
 OpenBabel03272503393D

 20 22  0  0  0  0  0  0  0  0999 V2000
   37.2580   22.0030   33.1430 C   0  0  0  0  0  0  0  0  0  0  0  0
   37.6240   21.9240   34.4840 C   0  0  0  0  0  0  0  0  0  0  0  0
   38.1220   23.0600   35.0920 C   0  0  0  0  0  0  0  0  0  0  0  0
   38.2350   24.2090   34.3600 N   0  0  0  0  0  0  0  0  0  0  0  0
   37.8660   24.2520   33.0470 C   0  0  0  0  0  0  0  0  0  0  0  0
   37.3790   23.1380   32.4560 N   0  0  0  0  0  0  0  0  0  0  0  0
   37.5580   21.0410   35.1170 H   0  0  0  0  0  0  0  0  0  0  0  0
   37.9590   25.1620   32.4810 H   0  0  0  0  0  0  0  0  0  0  0  0
   38.5300   23.0770   36.4990 C   0  0  0  0  0  0  0  0  0  0  0  0
   37.8620   23.7080   37.5140 C   0  0  0  0  0  0  0  0  0  0  0  0
   38.6300   23.4330   38.6390 C   0  0  0  0  0  0  0  0  0  0  0  0
   39.6950   22.6780   38.3000 N   0  0  0  0  0  0  0  0  0  0  0  0
   39.6290   22.4610   36.9810 N   0  0  0  0  0  0  0  0  0  0  0  0
   36.9540   24.2880   37.4750 H   0  0  0  0  0  0  0  0  0  0  0  0
   38.3450   23.8120   39.6300 H   0  0  0  0  0  0  0  0  0  0  0  0
   40.3830   22.3760   39.0260 H   0  0  0  0  0  0  0  0  0  0  0  0
   36.7780   20.7980   32.6610 O   0  0  0  0  0  0  0  0  0  0  0  0
   35.5740   20.1910   33.0570 C   0  0  0  0  0  3  0  0  0  0  0  0
   34.5750   19.7410   32.0630 C   0  0  0  0  0  2  0  0  0  0  0  0
   35.4520   18.7320   32.7980 C   0  0  0  0  0  2  0  0  0  0  0  0
  1  2  1  0  0  0  0
  2  3  2  0  0  0  0
  2  7  1  0  0  0  0
  3  9  1  0  0  0  0
  4  3  1  0  0  0  0
  5  4  2  0  0  0  0
  6  5  1  0  0  0  0
  6  1  2  0  0  0  0
  8  5  1  0  0  0  0
  9 13  2  0  0  0  0
  9 10  1  0  0  0  0
 10 11  2  0  0  0  0
 11 15  1  0  0  0  0
 12 11  1  0  0  0  0
 12 16  1  0  0  0  0
 13 12  1  0  0  0  0
 14 10  1  0  0  0  0
 17 18  1  0  0  0  0
 17  1  1  0  0  0  0
 19 20  1  0  0  0  0
 19 18  1  0  0  0  0
 20 18  1  0  0  0  0
M  END
>  <minimizedAffinity>
-4.66710854

$$$$

 OpenBabel03272503393D

 20 22  0  0  0  0  0  0  0  0999 V2000
   37.4010   26.0670   33.8800 C   0  0  0  0  0  0  0  0  0  0  0  0
   37.9060   24.9690   34.5720 C   0  0  0  0  0  0  0  0  0  0  0  0
   38.4700   25.1840   35.8150 C   0  0  0  0  0  0  0  0  0  0  0  0
   38.5100   26.4560   36.3130 N   0  0  0  0  0  0  0  0  0  0  0  0
   38.0060   27.5100   35.6080 C   0  0  0  0  0  0  0  0  0  0  0  0
   37.4550   27.2950   34.3930 N   0  0  0  0  0  0  0  0  0  0  0  0
   37.9030   23.9370   34.2290 H   0  0  0  0  0  0  0  0  0  0  0  0
   38.0430   28.5070   36.0110 H   0  0  0  0  0  0  0  0  0  0  0  0
   39.0220   24.0920   36.6200 C   0  0  0  0  0  0  0  0  0  0  0  0
   40.1230   23.3450   36.3000 C   0  0  0  0  0  0  0  0  0  0  0  0
   40.2420   22.4570   37.3610 C   0  0  0  0  0  0  0  0  0  0  0  0
   39.2590   22.6720   38.2590 N   0  0  0  0  0  0  0  0  0  0  0  0
   38.5100   23.6810   37.7980 N   0  0  0  0  0  0  0  0  0  0  0  0
   40.7640   23.4110   35.4350 H   0  0  0  0  0  0  0  0  0  0  0  0
   41.0490   21.7120   37.3930 H   0  0  0  0  0  0  0  0  0  0  0  0
   39.1950   22.0910   39.1240 H   0  0  0  0  0  0  0  0  0  0  0  0
   36.8690   25.7100   32.6530 O   0  0  0  0  0  0  0  0  0  0  0  0
   36.7220   24.3930   32.1880 C   0  0  0  0  0  3  0  0  0  0  0  0
   35.6610   24.0280   31.2240 C   0  0  0  0  0  2  0  0  0  0  0  0
   37.1150   24.1420   30.7760 C   0  0  0  0  0  2  0  0  0  0  0  0
  1  6  2  0  0  0  0
  1  2  1  0  0  0  0
  2  3  2  0  0  0  0
  3  4  1  0  0  0  0
  3  9  1  0  0  0  0
  5  8  1  0  0  0  0
  5  4  2  0  0  0  0
  6  5  1  0  0  0  0
  7  2  1  0  0  0  0
  9 13  2  0  0  0  0
 10  9  1  0  0  0  0
 10 11  2  0  0  0  0
 11 15  1  0  0  0  0
 11 12  1  0  0  0  0
 12 16  1  0  0  0  0
 13 12  1  0  0  0  0
 14 10  1  0  0  0  0
 17  1  1  0  0  0  0
 18 17  1  0  0  0  0
 19 18  1  0  0  0  0
 20 19  1  0  0  0  0
 20 18  1  0  0  0  0
M  END
>  <minimizedAffinity>
-4.44077396

$$$$

 OpenBabel03272503393D

 20 22  0  0  0  0  0  0  0  0999 V2000
   38.6190   26.1480   35.4580 C   0  0  0  0  0  0  0  0  0  0  0  0
   37.6350   25.8760   34.5120 C   0  0  0  0  0  0  0  0  0  0  0  0
   37.8660   26.2520   33.2020 C   0  0  0  0  0  0  0  0  0  0  0  0
   39.0430   26.8700   32.8890 N   0  0  0  0  0  0  0  0  0  0  0  0
   39.9880   27.1220   33.8400 C   0  0  0  0  0  0  0  0  0  0  0  0
   39.7580   26.7520   35.1200 N   0  0  0  0  0  0  0  0  0  0  0  0
   36.6800   25.3890   34.7000 H   0  0  0  0  0  0  0  0  0  0  0  0
   40.9120   27.6090   33.5810 H   0  0  0  0  0  0  0  0  0  0  0  0
   36.8920   26.0040   32.1360 C   0  0  0  0  0  0  0  0  0  0  0  0
   36.1920   24.8430   31.9520 C   0  0  0  0  0  0  0  0  0  0  0  0
   35.4110   25.1000   30.8320 C   0  0  0  0  0  0  0  0  0  0  0  0
   35.6430   26.3500   30.3820 N   0  0  0  0  0  0  0  0  0  0  0  0
   36.5560   26.9040   31.1890 N   0  0  0  0  0  0  0  0  0  0  0  0
   36.2220   23.9300   32.5250 H   0  0  0  0  0  0  0  0  0  0  0  0
   34.7260   24.3420   30.4280 H   0  0  0  0  0  0  0  0  0  0  0  0
   35.1380   26.7130   29.5430 H   0  0  0  0  0  0  0  0  0  0  0  0
   38.2590   25.7220   36.7240 O   0  0  0  0  0  0  0  0  0  0  0  0
   37.8940   24.4070   37.0600 C   0  0  0  0  0  3  0  0  0  0  0  0
   38.9110   23.3510   37.2590 C   0  0  0  0  0  2  0  0  0  0  0  0
   38.1920   23.9740   38.4510 C   0  0  0  0  0  2  0  0  0  0  0  0
  1 17  1  0  0  0  0
  2  7  1  0  0  0  0
  2  1  2  0  0  0  0
  3  2  1  0  0  0  0
  4  3  2  0  0  0  0
  4  5  1  0  0  0  0
  5  6  2  0  0  0  0
  6  1  1  0  0  0  0
  8  5  1  0  0  0  0
  9  3  1  0  0  0  0
 10  9  1  0  0  0  0
 10 14  1  0  0  0  0
 11 10  2  0  0  0  0
 12 11  1  0  0  0  0
 12 13  1  0  0  0  0
 13  9  2  0  0  0  0
 15 11  1  0  0  0  0
 16 12  1  0  0  0  0
 17 18  1  0  0  0  0
 18 19  1  0  0  0  0
 18 20  1  0  0  0  0
 19 20  1  0  0  0  0
M  END
>  <minimizedAffinity>
-4.25974274

$$$$

 OpenBabel03272503393D

 20 22  0  0  0  0  0  0  0  0999 V2000
   38.1990   24.3820   36.2800 C   0  0  0  0  0  0  0  0  0  0  0  0
   39.4140   23.7500   36.0280 C   0  0  0  0  0  0  0  0  0  0  0  0
   40.0100   23.0470   37.0570 C   0  0  0  0  0  0  0  0  0  0  0  0
   39.3890   22.9990   38.2730 N   0  0  0  0  0  0  0  0  0  0  0  0
   38.1980   23.6290   38.4870 C   0  0  0  0  0  0  0  0  0  0  0  0
   37.6180   24.3160   37.4770 N   0  0  0  0  0  0  0  0  0  0  0  0
   39.9560   23.7530   35.0840 H   0  0  0  0  0  0  0  0  0  0  0  0
   37.7180   23.5830   39.4490 H   0  0  0  0  0  0  0  0  0  0  0  0
   41.2850   22.3470   36.8860 C   0  0  0  0  0  0  0  0  0  0  0  0
   42.3340   22.7770   36.1200 C   0  0  0  0  0  0  0  0  0  0  0  0
   43.2940   21.7870   36.2840 C   0  0  0  0  0  0  0  0  0  0  0  0
   42.8310   20.8230   37.1050 N   0  0  0  0  0  0  0  0  0  0  0  0
   41.5930   21.1720   37.4740 N   0  0  0  0  0  0  0  0  0  0  0  0
   42.4200   23.6700   35.5210 H   0  0  0  0  0  0  0  0  0  0  0  0
   44.2700   21.8490   35.7820 H   0  0  0  0  0  0  0  0  0  0  0  0
   43.4250   19.9960   37.3400 H   0  0  0  0  0  0  0  0  0  0  0  0
   37.7160   25.0480   35.1670 O   0  0  0  0  0  0  0  0  0  0  0  0
   37.5610   26.4400   35.0640 C   0  0  0  0  0  3  0  0  0  0  0  0
   38.4940   27.3730   35.7320 C   0  0  0  0  0  2  0  0  0  0  0  0
   38.5570   27.1570   34.2240 C   0  0  0  0  0  2  0  0  0  0  0  0
  1  6  1  0  0  0  0
  2  1  2  0  0  0  0
  2  3  1  0  0  0  0
  3  4  2  0  0  0  0
  4  5  1  0  0  0  0
  5  8  1  0  0  0  0
  6  5  2  0  0  0  0
  7  2  1  0  0  0  0
  9  3  1  0  0  0  0
  9 13  2  0  0  0  0
 10 11  2  0  0  0  0
 10  9  1  0  0  0  0
 11 12  1  0  0  0  0
 12 16  1  0  0  0  0
 12 13  1  0  0  0  0
 14 10  1  0  0  0  0
 15 11  1  0  0  0  0
 17  1  1  0  0  0  0
 18 17  1  0  0  0  0
 18 19  1  0  0  0  0
 20 18  1  0  0  0  0
 20 19  1  0  0  0  0
M  END
>  <minimizedAffinity>
-4.23685837

$$$$

 OpenBabel03272503393D

 20 22  0  0  0  0  0  0  0  0999 V2000
   37.7890   24.0700   32.9490 C   0  0  0  0  0  0  0  0  0  0  0  0
   38.2330   24.1650   34.2650 C   0  0  0  0  0  0  0  0  0  0  0  0
   38.1230   23.0500   35.0740 C   0  0  0  0  0  0  0  0  0  0  0  0
   37.5860   21.9050   34.5540 N   0  0  0  0  0  0  0  0  0  0  0  0
   37.1610   21.8450   33.2590 C   0  0  0  0  0  0  0  0  0  0  0  0
   37.2710   22.9390   32.4720 N   0  0  0  0  0  0  0  0  0  0  0  0
   38.6670   25.0450   34.7350 H   0  0  0  0  0  0  0  0  0  0  0  0
   36.7400   20.9380   32.8620 H   0  0  0  0  0  0  0  0  0  0  0  0
   38.5660   23.0520   36.4700 C   0  0  0  0  0  0  0  0  0  0  0  0
   37.9490   23.7070   37.5010 C   0  0  0  0  0  0  0  0  0  0  0  0
   38.7350   23.4040   38.6060 C   0  0  0  0  0  0  0  0  0  0  0  0
   39.7620   22.6100   38.2400 N   0  0  0  0  0  0  0  0  0  0  0  0
   39.6540   22.3950   36.9230 N   0  0  0  0  0  0  0  0  0  0  0  0
   37.0620   24.3200   37.4850 H   0  0  0  0  0  0  0  0  0  0  0  0
   38.4900   23.7930   39.6030 H   0  0  0  0  0  0  0  0  0  0  0  0
   40.4570   22.2830   38.9480 H   0  0  0  0  0  0  0  0  0  0  0  0
   37.9570   25.2550   32.2550 O   0  0  0  0  0  0  0  0  0  0  0  0
   37.9080   26.5380   32.8240 C   0  0  0  0  0  3  0  0  0  0  0  0
   37.9620   27.7560   31.9860 C   0  0  0  0  0  2  0  0  0  0  0  0
   36.6500   27.3050   32.6210 C   0  0  0  0  0  2  0  0  0  0  0  0
  1  2  1  0  0  0  0
  2  7  1  0  0  0  0
  2  3  2  0  0  0  0
  3  9  1  0  0  0  0
  4  3  1  0  0  0  0
  5  4  2  0  0  0  0
  6  1  2  0  0  0  0
  6  5  1  0  0  0  0
  8  5  1  0  0  0  0
  9 13  2  0  0  0  0
  9 10  1  0  0  0  0
 10 11  2  0  0  0  0
 11 15  1  0  0  0  0
 12 11  1  0  0  0  0
 12 16  1  0  0  0  0
 13 12  1  0  0  0  0
 14 10  1  0  0  0  0
 17 18  1  0  0  0  0
 17  1  1  0  0  0  0
 19 20  1  0  0  0  0
 19 18  1  0  0  0  0
 20 18  1  0  0  0  0
M  END
>  <minimizedAffinity>
-4.23016262

$$$$

 OpenBabel03272503393D

 20 22  0  0  0  0  0  0  0  0999 V2000
   38.2310   25.2480   33.2390 C   0  0  0  0  0  0  0  0  0  0  0  0
   38.0180   24.7990   34.5390 C   0  0  0  0  0  0  0  0  0  0  0  0
   39.0900   24.2660   35.2290 C   0  0  0  0  0  0  0  0  0  0  0  0
   40.3080   24.2010   34.6130 N   0  0  0  0  0  0  0  0  0  0  0  0
   40.4830   24.6510   33.3370 C   0  0  0  0  0  0  0  0  0  0  0  0
   39.4310   25.1720   32.6660 N   0  0  0  0  0  0  0  0  0  0  0  0
   37.0740   24.8230   35.0810 H   0  0  0  0  0  0  0  0  0  0  0  0
   41.4470   24.5950   32.8630 H   0  0  0  0  0  0  0  0  0  0  0  0
   38.9650   23.7710   36.6020 C   0  0  0  0  0  0  0  0  0  0  0  0
   37.9480   24.0700   37.4670 C   0  0  0  0  0  0  0  0  0  0  0  0
   38.2750   23.3700   38.6210 C   0  0  0  0  0  0  0  0  0  0  0  0
   39.4290   22.6950   38.4420 N   0  0  0  0  0  0  0  0  0  0  0  0
   39.8500   22.9450   37.1970 N   0  0  0  0  0  0  0  0  0  0  0  0
   37.0840   24.6980   37.3130 H   0  0  0  0  0  0  0  0  0  0  0  0
   37.6360   23.4110   39.5140 H   0  0  0  0  0  0  0  0  0  0  0  0
   39.8260   22.1120   39.2120 H   0  0  0  0  0  0  0  0  0  0  0  0
   37.0770   25.7540   32.6660 O   0  0  0  0  0  0  0  0  0  0  0  0
   36.6220   25.4600   31.3700 C   0  0  0  0  0  3  0  0  0  0  0  0
   36.4480   24.0640   30.9120 C   0  0  0  0  0  2  0  0  0  0  0  0
   35.2380   24.9250   31.2610 C   0  0  0  0  0  2  0  0  0  0  0  0
  1  2  1  0  0  0  0
  2  7  1  0  0  0  0
  2  3  2  0  0  0  0
  3  9  1  0  0  0  0
  4  3  1  0  0  0  0
  5  4  2  0  0  0  0
  6  1  2  0  0  0  0
  6  5  1  0  0  0  0
  8  5  1  0  0  0  0
  9 13  2  0  0  0  0
  9 10  1  0  0  0  0
 10 11  2  0  0  0  0
 11 15  1  0  0  0  0
 12 11  1  0  0  0  0
 12 16  1  0  0  0  0
 13 12  1  0  0  0  0
 14 10  1  0  0  0  0
 17  1  1  0  0  0  0
 18 17  1  0  0  0  0
 19 20  1  0  0  0  0
 19 18  1  0  0  0  0
 20 18  1  0  0  0  0
M  END
>  <minimizedAffinity>
-4.22305632

$$$$

 OpenBabel03272503393D

 20 22  0  0  0  0  0  0  0  0999 V2000
   38.1090   22.9910   34.7490 C   0  0  0  0  0  0  0  0  0  0  0  0
   37.4960   21.8160   34.3250 C   0  0  0  0  0  0  0  0  0  0  0  0
   36.9400   21.7880   33.0610 C   0  0  0  0  0  0  0  0  0  0  0  0
   37.0140   22.9070   32.2800 N   0  0  0  0  0  0  0  0  0  0  0  0
   37.6220   24.0440   32.7260 C   0  0  0  0  0  0  0  0  0  0  0  0
   38.1650   24.0670   33.9640 N   0  0  0  0  0  0  0  0  0  0  0  0
   37.4060   20.8950   34.8990 H   0  0  0  0  0  0  0  0  0  0  0  0
   37.6740   24.9190   32.1020 H   0  0  0  0  0  0  0  0  0  0  0  0
   36.2790   20.5950   32.5250 C   0  0  0  0  0  0  0  0  0  0  0  0
   35.5420   19.7000   33.2520 C   0  0  0  0  0  0  0  0  0  0  0  0
   35.1310   18.7660   32.3100 C   0  0  0  0  0  0  0  0  0  0  0  0
   35.6040   19.0970   31.0910 N   0  0  0  0  0  0  0  0  0  0  0  0
   36.3100   20.2260   31.2290 N   0  0  0  0  0  0  0  0  0  0  0  0
   35.3190   19.6970   34.3070 H   0  0  0  0  0  0  0  0  0  0  0  0
   34.5100   17.9050   32.5940 H   0  0  0  0  0  0  0  0  0  0  0  0
   35.3900   18.5020   30.2600 H   0  0  0  0  0  0  0  0  0  0  0  0
   38.6200   22.8810   36.0300 O   0  0  0  0  0  0  0  0  0  0  0  0
   37.9100   23.1620   37.2100 C   0  0  0  0  0  3  0  0  0  0  0  0
   38.6090   23.4380   38.4840 C   0  0  0  0  0  2  0  0  0  0  0  0
   37.9580   24.5680   37.6920 C   0  0  0  0  0  2  0  0  0  0  0  0
  1 17  1  0  0  0  0
  2  1  1  0  0  0  0
  2  7  1  0  0  0  0
  3  2  2  0  0  0  0
  4  5  2  0  0  0  0
  4  3  1  0  0  0  0
  5  6  1  0  0  0  0
  6  1  2  0  0  0  0
  8  5  1  0  0  0  0
  9  3  1  0  0  0  0
  9 10  1  0  0  0  0
 10 14  1  0  0  0  0
 11 15  1  0  0  0  0
 11 10  2  0  0  0  0
 12 13  1  0  0  0  0
 12 11  1  0  0  0  0
 13  9  2  0  0  0  0
 16 12  1  0  0  0  0
 17 18  1  0  0  0  0
 18 20  1  0  0  0  0
 18 19  1  0  0  0  0
 20 19  1  0  0  0  0
M  END
>  <minimizedAffinity>
-4.18436718

$$$$

 OpenBabel03272503393D

 20 22  0  0  0  0  0  0  0  0999 V2000
   37.0860   26.9820   34.4030 C   0  0  0  0  0  0  0  0  0  0  0  0
   37.5560   26.3110   35.5290 C   0  0  0  0  0  0  0  0  0  0  0  0
   38.0170   25.0180   35.3730 C   0  0  0  0  0  0  0  0  0  0  0  0
   37.9950   24.4520   34.1300 N   0  0  0  0  0  0  0  0  0  0  0  0
   37.5280   25.1380   33.0460 C   0  0  0  0  0  0  0  0  0  0  0  0
   37.0780   26.4030   33.2030 N   0  0  0  0  0  0  0  0  0  0  0  0
   37.5990   26.7070   36.5420 H   0  0  0  0  0  0  0  0  0  0  0  0
   37.5150   24.6810   32.0720 H   0  0  0  0  0  0  0  0  0  0  0  0
   38.5340   24.2330   36.4970 C   0  0  0  0  0  0  0  0  0  0  0  0
   39.5910   23.3660   36.4420 C   0  0  0  0  0  0  0  0  0  0  0  0
   39.6910   22.8810   37.7400 C   0  0  0  0  0  0  0  0  0  0  0  0
   38.7390   23.4370   38.5170 N   0  0  0  0  0  0  0  0  0  0  0  0
   38.0290   24.2700   37.7470 N   0  0  0  0  0  0  0  0  0  0  0  0
   40.2150   23.1030   35.6030 H   0  0  0  0  0  0  0  0  0  0  0  0
   40.4620   22.1490   38.0180 H   0  0  0  0  0  0  0  0  0  0  0  0
   38.6670   23.1850   39.5280 H   0  0  0  0  0  0  0  0  0  0  0  0
   36.6560   28.2630   34.7010 O   0  0  0  0  0  0  0  0  0  0  0  0
   35.7700   29.0200   33.9160 C   0  0  0  0  0  3  0  0  0  0  0  0
   34.4340   29.4090   34.4190 C   0  0  0  0  0  2  0  0  0  0  0  0
   35.5610   30.4330   34.3310 C   0  0  0  0  0  2  0  0  0  0  0  0
  1 17  1  0  0  0  0
  1  2  1  0  0  0  0
  2  7  1  0  0  0  0
  3  2  2  0  0  0  0
  3  9  1  0  0  0  0
  4  3  1  0  0  0  0
  5  6  1  0  0  0  0
  5  4  2  0  0  0  0
  6  1  2  0  0  0  0
  8  5  1  0  0  0  0
  9 13  2  0  0  0  0
 10  9  1  0  0  0  0
 10 11  2  0  0  0  0
 11 15  1  0  0  0  0
 11 12  1  0  0  0  0
 12 16  1  0  0  0  0
 13 12  1  0  0  0  0
 14 10  1  0  0  0  0
 18 20  1  0  0  0  0
 18 19  1  0  0  0  0
 18 17  1  0  0  0  0
 20 19  1  0  0  0  0
M  END
>  <minimizedAffinity>
-4.16402054

$$$$

 OpenBabel03272503393D

 20 22  0  0  0  0  0  0  0  0999 V2000
   37.6380   24.7420   33.1450 C   0  0  0  0  0  0  0  0  0  0  0  0
   38.0750   24.0340   34.2620 C   0  0  0  0  0  0  0  0  0  0  0  0
   38.0470   24.6680   35.4890 C   0  0  0  0  0  0  0  0  0  0  0  0
   37.5940   25.9550   35.5590 N   0  0  0  0  0  0  0  0  0  0  0  0
   37.1730   26.6210   34.4450 C   0  0  0  0  0  0  0  0  0  0  0  0
   37.2020   25.9970   33.2460 N   0  0  0  0  0  0  0  0  0  0  0  0
   38.4450   23.0110   34.2690 H   0  0  0  0  0  0  0  0  0  0  0  0
   36.8190   27.6350   34.5130 H   0  0  0  0  0  0  0  0  0  0  0  0
   38.4810   24.0040   36.7200 C   0  0  0  0  0  0  0  0  0  0  0  0
   38.0230   24.2840   37.9790 C   0  0  0  0  0  0  0  0  0  0  0  0
   38.7240   23.4010   38.7920 C   0  0  0  0  0  0  0  0  0  0  0  0
   39.5520   22.6410   38.0450 N   0  0  0  0  0  0  0  0  0  0  0  0
   39.3980   23.0160   36.7700 N   0  0  0  0  0  0  0  0  0  0  0  0
   37.2930   25.0120   38.2930 H   0  0  0  0  0  0  0  0  0  0  0  0
   38.5710   23.3830   39.8790 H   0  0  0  0  0  0  0  0  0  0  0  0
   40.1580   21.9190   38.4950 H   0  0  0  0  0  0  0  0  0  0  0  0
   37.7210   23.9910   31.9860 O   0  0  0  0  0  0  0  0  0  0  0  0
   37.8780   24.5170   30.6930 C   0  0  0  0  0  3  0  0  0  0  0  0
   39.1610   25.1040   30.2490 C   0  0  0  0  0  2  0  0  0  0  0  0
   38.7230   23.7290   29.7570 C   0  0  0  0  0  2  0  0  0  0  0  0
  1  6  2  0  0  0  0
  1  2  1  0  0  0  0
  2  7  1  0  0  0  0
  2  3  2  0  0  0  0
  3  4  1  0  0  0  0
  3  9  1  0  0  0  0
  5  8  1  0  0  0  0
  5  4  2  0  0  0  0
  6  5  1  0  0  0  0
  9 13  2  0  0  0  0
  9 10  1  0  0  0  0
 10 14  1  0  0  0  0
 10 11  2  0  0  0  0
 11 15  1  0  0  0  0
 12 16  1  0  0  0  0
 12 11  1  0  0  0  0
 13 12  1  0  0  0  0
 17  1  1  0  0  0  0
 18 17  1  0  0  0  0
 19 18  1  0  0  0  0
 20 19  1  0  0  0  0
 20 18  1  0  0  0  0
M  END
>  <minimizedAffinity>
-4.13915014

$$$$
