
 OpenBabel03272509453D

 13 14  0  0  0  0  0  0  0  0999 V2000
   38.3840   31.2690   50.1810 C   0  0  0  0  0  0  0  0  0  0  0  0
   38.4300   31.9920   48.9860 C   0  0  0  0  0  0  0  0  0  0  0  0
   37.6250   31.5580   47.9210 C   0  0  0  0  0  0  0  0  0  0  0  0
   36.8330   30.4430   48.1080 N   0  0  0  0  0  0  0  0  0  0  0  0
   36.8290   29.7760   49.2960 C   0  0  0  0  0  0  0  0  0  0  0  0
   37.6030   30.1970   50.3160 N   0  0  0  0  0  0  0  0  0  0  0  0
   39.0090   31.6130   50.9910 H   0  0  0  0  0  0  0  0  0  0  0  0
   39.0440   32.8700   48.8140 H   0  0  0  0  0  0  0  0  0  0  0  0
   37.6240   32.0760   46.9860 H   0  0  0  0  0  0  0  0  0  0  0  0
   35.9730   28.6930   49.2820 O   0  0  0  0  0  0  0  0  0  0  0  0
   34.7570   28.8100   48.5640 C   0  0  0  0  0  3  0  0  0  0  0  0
   33.4810   28.3870   49.1860 C   0  0  0  0  0  2  0  0  0  0  0  0
   34.1470   27.4510   48.2320 C   0  0  0  0  0  2  0  0  0  0  0  0
  1  6  1  0  0  0  0
  1  7  1  0  0  0  0
  2  1  2  0  0  0  0
  3  4  2  0  0  0  0
  3  2  1  0  0  0  0
  4  5  1  0  0  0  0
  5  6  2  0  0  0  0
  8  2  1  0  0  0  0
  9  3  1  0  0  0  0
 10  5  1  0  0  0  0
 11 12  1  0  0  0  0
 11 10  1  0  0  0  0
 13 11  1  0  0  0  0
 13 12  1  0  0  0  0
M  END
>  <minimizedAffinity>
-3.57568264

>  <minimizedRMSD>
2.06267643

$$$$
