
 OpenBabel03272509353D

 41 45  0  0  1  0  0  0  0  0999 V2000
   36.9130   31.0150   45.1800 C   0  0  1  0  0  0  0  0  0  0  0  0
   37.9850   32.0420   45.2420 C   0  0  0  0  0  0  0  0  0  0  0  0
   38.4700   30.6850   45.1110 C   0  0  2  0  0  0  0  0  0  0  0  0
   36.4100   30.7110   44.2740 H   0  0  0  0  0  0  0  0  0  0  0  0
   37.7920   32.8170   44.5080 H   0  0  0  0  0  0  0  0  0  0  0  0
   38.1150   32.5080   46.2840 H   0  0  0  0  0  0  0  0  0  0  0  0
   38.6760   29.9170   45.8430 H   0  0  0  0  0  0  0  0  0  0  0  0
   39.0380   30.4460   43.7390 C   0  0  0  0  0  0  0  0  0  0  0  0
   39.4480   31.6500   43.1650 C   0  0  0  0  0  0  0  0  0  0  0  0
   40.0890   31.6520   41.9530 C   0  0  0  0  0  0  0  0  0  0  0  0
   40.3480   30.4580   41.2650 C   0  0  0  0  0  0  0  0  0  0  0  0
   39.9280   29.2790   41.8630 C   0  0  0  0  0  0  0  0  0  0  0  0
   40.1070   28.0490   41.2930 C   0  0  0  0  0  0  0  0  0  0  0  0
   39.6850   26.8770   41.8680 C   0  0  0  0  0  0  0  0  0  0  0  0
   39.0460   26.9290   43.0870 C   0  0  0  0  0  0  0  0  0  0  0  0
   38.8610   28.1660   43.6700 C   0  0  0  0  0  0  0  0  0  0  0  0
   39.3020   29.3200   43.0550 C   0  0  0  0  0  0  0  0  0  0  0  0
   39.4170   32.6870   43.4300 H   0  0  0  0  0  0  0  0  0  0  0  0
   40.4720   32.4700   41.3650 H   0  0  0  0  0  0  0  0  0  0  0  0
   40.8410   30.3210   40.3080 H   0  0  0  0  0  0  0  0  0  0  0  0
   40.6040   27.9560   40.3360 H   0  0  0  0  0  0  0  0  0  0  0  0
   39.8490   25.9250   41.3770 H   0  0  0  0  0  0  0  0  0  0  0  0
   38.6880   26.0550   43.5970 H   0  0  0  0  0  0  0  0  0  0  0  0
   38.3480   28.1930   44.6480 H   0  0  0  0  0  0  0  0  0  0  0  0
   34.6820   29.3500   47.7260 C   0  0  0  0  0  0  0  0  0  0  0  0
   35.2400   29.7410   46.4690 C   0  0  0  0  0  0  0  0  0  0  0  0
   36.3160   30.5800   46.4680 C   0  0  0  0  0  0  0  0  0  0  0  0
   36.7840   30.9880   47.7030 N   0  0  0  0  0  0  0  0  0  0  0  0
   36.2520   30.6150   48.8700 C   0  0  0  0  0  0  0  0  0  0  0  0
   35.1890   29.7870   48.8970 N   0  0  0  0  0  0  0  0  0  0  0  0
   33.8170   28.6730   47.6830 H   0  0  0  0  0  0  0  0  0  0  0  0
   34.7790   29.3480   45.5640 H   0  0  0  0  0  0  0  0  0  0  0  0
   36.8790   31.1390   50.1280 C   0  0  0  0  0  0  0  0  0  0  0  0
   36.3110   31.9560   50.5660 H   0  0  0  0  0  0  0  0  0  0  0  0
   36.9970   30.2770   50.8290 H   0  0  0  0  0  0  0  0  0  0  0  0
   38.3080   31.5950   49.7610 C   0  0  0  0  0  0  0  0  0  0  0  0
   38.6550   31.0320   48.8630 H   0  0  0  0  0  0  0  0  0  0  0  0
   38.9940   31.4150   50.5860 H   0  0  0  0  0  0  0  0  0  0  0  0
   38.2730   33.0670   49.4200 C   0  0  0  0  0  0  0  0  0  0  0  0
   39.1880   33.6300   48.4090 C   0  0  0  0  0  0  0  0  0  0  0  0
   39.4580   33.9380   49.8380 C   0  0  0  0  0  0  0  0  0  0  0  0
  1  4  1  6  0  0  0
  1  2  1  0  0  0  0
  1 27  1  0  0  0  0
  2  6  1  0  0  0  0
  3  1  1  0  0  0  0
  3  2  1  0  0  0  0
  3  7  1  1  0  0  0
  5  2  1  0  0  0  0
  8  3  1  0  0  0  0
  9 18  1  0  0  0  0
  9  8  1  0  0  0  0
 10  9  2  0  0  0  0
 11 12  2  0  0  0  0
 11 10  1  0  0  0  0
 12 17  1  0  0  0  0
 13 12  1  0  0  0  0
 13 14  2  0  0  0  0
 14 15  1  0  0  0  0
 15 23  1  0  0  0  0
 15 16  2  0  0  0  0
 16 24  1  0  0  0  0
 17 16  1  0  0  0  0
 17  8  2  0  0  0  0
 19 10  1  0  0  0  0
 20 11  1  0  0  0  0
 21 13  1  0  0  0  0
 22 14  1  0  0  0  0
 25 30  1  0  0  0  0
 26 25  2  0  0  0  0
 27 26  1  0  0  0  0
 27 28  2  0  0  0  0
 28 29  1  0  0  0  0
 29 30  2  0  0  0  0
 29 33  1  0  0  0  0
 31 25  1  0  0  0  0
 32 26  1  0  0  0  0
 33 34  1  0  0  0  0
 33 35  1  0  0  0  0
 36 33  1  0  0  0  0
 36 38  1  0  0  0  0
 37 36  1  0  0  0  0
 39 36  1  0  0  0  0
 39 41  1  0  0  0  0
 40 39  1  0  0  0  0
 40 41  1  0  0  0  0
M  END
>  <minimizedAffinity>
-5.93269014

>  <minimizedRMSD>
3.17943263

$$$$
