
 OpenBabel03272508343D

 19 21  0  0  0  0  0  0  0  0999 V2000
   37.1690   30.8970   48.1030 C   0  0  0  0  0  0  0  0  0  0  0  0
   38.1160   30.6380   47.1350 C   0  0  0  0  0  0  0  0  0  0  0  0
   39.0560   31.6650   47.1810 C   0  0  0  0  0  0  0  0  0  0  0  0
   38.6530   32.4960   48.1590 N   0  0  0  0  0  0  0  0  0  0  0  0
   37.5100   32.0480   48.7290 N   0  0  0  0  0  0  0  0  0  0  0  0
   38.1650   29.8110   46.4460 H   0  0  0  0  0  0  0  0  0  0  0  0
   39.9190   31.7700   46.5650 H   0  0  0  0  0  0  0  0  0  0  0  0
   34.8130   28.3490   49.5550 C   0  0  0  0  0  0  0  0  0  0  0  0
   35.9550   29.1400   49.4280 C   0  0  0  0  0  0  0  0  0  0  0  0
   36.0260   30.0210   48.3390 C   0  0  0  0  0  0  0  0  0  0  0  0
   34.9690   30.0580   47.4560 N   0  0  0  0  0  0  0  0  0  0  0  0
   33.8760   29.2660   47.6240 C   0  0  0  0  0  0  0  0  0  0  0  0
   33.7960   28.4180   48.6610 N   0  0  0  0  0  0  0  0  0  0  0  0
   34.7610   27.6710   50.3970 H   0  0  0  0  0  0  0  0  0  0  0  0
   36.7810   29.1180   50.1100 H   0  0  0  0  0  0  0  0  0  0  0  0
   33.1220   29.3960   46.8560 H   0  0  0  0  0  0  0  0  0  0  0  0
   39.3170   33.7050   48.5700 C   0  0  0  0  0  3  0  0  0  0  0  0
   38.6310   34.6890   49.4220 C   0  0  0  0  0  2  0  0  0  0  0  0
   39.6670   33.8450   50.0730 C   0  0  0  0  0  2  0  0  0  0  0  0
  1 10  1  0  0  0  0
  1  5  2  0  0  0  0
  2  3  2  0  0  0  0
  2  1  1  0  0  0  0
  3  4  1  0  0  0  0
  4 17  1  0  0  0  0
  4  5  1  0  0  0  0
  6  2  1  0  0  0  0
  7  3  1  0  0  0  0
  8 14  1  0  0  0  0
  9  8  1  0  0  0  0
  9 15  1  0  0  0  0
 10  9  2  0  0  0  0
 11 12  2  0  0  0  0
 11 10  1  0  0  0  0
 12 13  1  0  0  0  0
 13  8  2  0  0  0  0
 16 12  1  0  0  0  0
 17 18  1  0  0  0  0
 17 19  1  0  0  0  0
 18 19  1  0  0  0  0
M  END
>  <minimizedAffinity>
-3.73104978

>  <minimizedRMSD>
2.44601679

$$$$
