
     RDKit          3D

 38 40  0  0  0  0  0  0  0  0999 V2000
   36.6801   29.9223   49.0431 C   0  0  0  0  0  0  0  0  0  0  0  0
   37.7019   30.5908   48.3393 C   0  0  0  0  0  0  0  0  0  0  0  0
   37.4734   30.8910   46.9897 C   0  0  0  0  0  0  0  0  0  0  0  0
   36.3064   30.5286   46.4498 N   0  0  0  0  0  0  0  0  0  0  0  0
   35.3504   29.8922   47.1454 C   0  0  0  0  0  0  0  0  0  0  0  0
   35.5389   29.5916   48.4359 N   0  0  0  0  0  0  0  0  0  0  0  0
   38.4590   31.5556   46.2415 N   0  0  0  0  0  0  0  0  0  0  0  0
   39.4567   32.4849   46.7871 C   0  0  0  0  0  0  0  0  0  0  0  0
   40.1269   33.1368   45.6114 C   0  0  0  0  0  0  0  0  0  0  0  0
   39.1817   32.8815   44.5069 C   0  0  0  0  0  0  0  0  0  0  0  0
   38.7008   31.4763   44.8362 C   0  0  2  0  0  0  0  0  0  0  0  0
   37.5882   31.0331   43.9566 C   0  0  0  0  0  0  0  0  0  0  0  0
   36.4619   31.7485   44.3421 F   0  0  0  0  0  0  0  0  0  0  0  0
   37.2764   29.7126   44.0183 F   0  0  0  0  0  0  0  0  0  0  0  0
   37.8960   31.4603   42.6767 F   0  0  0  0  0  0  0  0  0  0  0  0
   39.8476   30.5464   44.6706 C   0  0  0  0  0  0  0  0  0  0  0  0
   40.3429   30.7832   43.5545 O   0  0  0  0  0  0  0  0  0  0  0  0
   40.9019   30.0675   42.5591 C   0  0  0  0  0  0  0  0  0  0  0  0
   40.6481   30.6428   41.4706 O   0  0  0  0  0  0  0  0  0  0  0  0
   36.9664   29.7387   50.0887 H   0  0  0  0  0  0  0  0  0  0  0  0
   38.6487   30.8914   48.7553 H   0  0  0  0  0  0  0  0  0  0  0  0
   34.3971   29.5882   46.7308 H   0  0  0  0  0  0  0  0  0  0  0  0
   40.1790   31.8319   47.3218 H   0  0  0  0  0  0  0  0  0  0  0  0
   38.9742   33.1871   47.4643 H   0  0  0  0  0  0  0  0  0  0  0  0
   40.1119   34.2429   45.8229 H   0  0  0  0  0  0  0  0  0  0  0  0
   41.1653   32.8378   45.4693 H   0  0  0  0  0  0  0  0  0  0  0  0
   39.6253   32.9309   43.4930 H   0  0  0  0  0  0  0  0  0  0  0  0
   38.3477   33.5991   44.5367 H   0  0  0  0  0  0  0  0  0  0  0  0
   39.4927   29.5621   45.0435 H   0  0  0  0  0  0  0  0  0  0  0  0
   40.6259   30.8709   45.4275 H   0  0  0  0  0  0  0  0  0  0  0  0
   41.6392   29.0228   41.8794 C   0  0  0  0  0  0  0  0  0  0  0  0
   41.9951   29.0453   40.4483 C   0  0  0  0  0  0  0  0  0  0  0  0
   43.0414   29.3709   41.4184 C   0  0  0  0  0  0  0  0  0  0  0  0
   41.6169   27.9849   42.3564 H   0  0  0  0  0  0  0  0  0  0  0  0
   41.5067   29.8442   39.8188 H   0  0  0  0  0  0  0  0  0  0  0  0
   41.9743   28.0768   39.9097 H   0  0  0  0  0  0  0  0  0  0  0  0
   43.8642   28.6591   41.5243 H   0  0  0  0  0  0  0  0  0  0  0  0
   43.3505   30.4535   41.4451 H   0  0  0  0  0  0  0  0  0  0  0  0
  2  1  2  0
  3  2  1  0
  4  3  2  0
  4  5  1  0
  5  6  2  0
  6  1  1  0
  7  8  1  0
  7  3  1  0
  9  8  1  0
 10 11  1  0
 10  9  1  0
 11 12  1  6
 11  7  1  0
 12 14  1  0
 12 13  1  0
 15 12  1  0
 16 11  1  0
 17 16  1  0
 18 17  1  0
 19 18  2  0
  1 20  1  0
  2 21  1  0
  5 22  1  0
  8 23  1  0
  8 24  1  0
  9 25  1  0
  9 26  1  0
 10 27  1  0
 10 28  1  0
 16 29  1  0
 16 30  1  0
 31 32  1  0
 32 33  1  0
 33 31  1  0
 31 34  1  0
 32 35  1  0
 32 36  1  0
 33 37  1  0
 33 38  1  0
 18 31  1  0
M  ISO  8  20  14  21  14  22  14  23  13  24  13  25  13  26  13  27  13
M  ISO  3  28  13  29   8  30   8
M  END
>  <DihAtoms>  (1) 
16,17,30,31

>  <DihDeg>  (1) 
-21.06713949692868

$$$$
