
 OpenBabel03262521223D

 27 28  0  0  0  0  0  0  0  0999 V2000
   38.0000   25.0740   32.6290 O   0  0  0  0  0  0  0  0  0  0  0  0
   38.0470   25.0670   34.0010 C   0  0  0  0  0  0  0  0  0  0  0  0
   38.1490   26.3320   34.5200 C   0  0  0  0  0  0  0  0  0  0  0  0
   38.2090   26.5000   35.9220 C   0  0  0  0  0  0  0  0  0  0  0  0
   38.1600   25.3420   36.6830 N   0  0  0  0  0  0  0  0  0  0  0  0
   38.0580   24.1090   36.1190 C   0  0  0  0  0  0  0  0  0  0  0  0
   38.0050   24.0010   34.8010 N   0  0  0  0  0  0  0  0  0  0  0  0
   38.0860   23.3060   38.3680 C   0  0  0  0  0  0  0  0  0  0  0  0
   38.1880   24.4810   38.8750 O   0  0  0  0  0  0  0  0  0  0  0  0
   38.0120   22.9890   36.9870 N   0  0  0  0  0  0  0  0  0  0  0  0
   38.1940   27.2850   34.0060 H   0  0  0  0  0  0  0  0  0  0  0  0
   38.2890   27.4650   36.3960 H   0  0  0  0  0  0  0  0  0  0  0  0
   38.0650   22.5800   39.1650 H   0  0  0  0  0  0  0  0  0  0  0  0
   37.9300   21.9960   36.6860 H   0  0  0  0  0  0  0  0  0  0  0  0
   36.8010   25.3930   32.0210 C   0  0  0  0  0  0  0  0  0  0  0  0
   36.0360   25.4470   32.8210 H   0  0  0  0  0  0  0  0  0  0  0  0
   36.8060   26.4420   31.5990 H   0  0  0  0  0  0  0  0  0  0  0  0
   36.7420   24.4030   31.1260 C   0  0  0  0  0  0  0  0  0  0  0  0
   37.6970   23.9770   30.7300 H   0  0  0  0  0  0  0  0  0  0  0  0
   36.2780   24.7610   30.1540 H   0  0  0  0  0  0  0  0  0  0  0  0
   35.9010   23.2060   31.5090 C   0  0  0  0  0  0  0  0  0  0  0  0
   35.1270   23.0880   30.6940 H   0  0  0  0  0  0  0  0  0  0  0  0
   35.2970   23.3760   32.4320 H   0  0  0  0  0  0  0  0  0  0  0  0
   36.8260   21.7250   31.7000 S   0  0  0  0  0  0  0  0  0  0  0  0
   35.9470   20.1820   31.6700 C   0  0  0  0  0  3  0  0  0  0  0  0
   35.5430   19.6160   33.0590 C   0  0  0  0  0  2  0  0  0  0  0  0
   34.5440   19.9860   32.0230 C   0  0  0  0  0  2  0  0  0  0  0  0
  1  2  1  0  0  0  0
  2  3  2  0  0  0  0
  2  7  1  0  0  0  0
  3  4  1  0  0  0  0
  4 12  1  0  0  0  0
  4  5  2  0  0  0  0
  6  5  1  0  0  0  0
  6 10  1  0  0  0  0
  7  6  2  0  0  0  0
  8  9  2  0  0  0  0
  8 13  1  0  0  0  0
 10  8  1  0  0  0  0
 11  3  1  0  0  0  0
 14 10  1  0  0  0  0
 15  1  1  0  0  0  0
 15 16  1  0  0  0  0
 17 15  1  0  0  0  0
 18 21  1  0  0  0  0
 18 15  1  0  0  0  0
 19 18  1  0  0  0  0
 20 18  1  0  0  0  0
 21 24  1  0  0  0  0
 21 23  1  0  0  0  0
 22 21  1  0  0  0  0
 25 24  1  0  0  0  0
 25 27  1  0  0  0  0
 25 26  1  0  0  0  0
 27 26  1  0  0  0  0
M  END
>  <minimizedAffinity>
-4.1628809

$$$$

 OpenBabel03262521223D

 27 28  0  0  0  0  0  0  0  0999 V2000
   37.4940   25.8430   35.7180 O   0  0  0  0  0  0  0  0  0  0  0  0
   38.2810   24.8530   36.2500 C   0  0  0  0  0  0  0  0  0  0  0  0
   37.8730   24.4890   37.5070 C   0  0  0  0  0  0  0  0  0  0  0  0
   38.5800   23.4780   38.1970 C   0  0  0  0  0  0  0  0  0  0  0  0
   39.6600   22.9180   37.5320 N   0  0  0  0  0  0  0  0  0  0  0  0
   40.0250   23.3150   36.2830 C   0  0  0  0  0  0  0  0  0  0  0  0
   39.3320   24.2660   35.6760 N   0  0  0  0  0  0  0  0  0  0  0  0
   41.7580   21.6860   36.4980 C   0  0  0  0  0  0  0  0  0  0  0  0
   41.3970   21.3340   37.6780 O   0  0  0  0  0  0  0  0  0  0  0  0
   41.1440   22.6770   35.6890 N   0  0  0  0  0  0  0  0  0  0  0  0
   37.0480   24.8680   38.0990 H   0  0  0  0  0  0  0  0  0  0  0  0
   38.3120   23.1440   39.1870 H   0  0  0  0  0  0  0  0  0  0  0  0
   42.6170   21.1030   36.2050 H   0  0  0  0  0  0  0  0  0  0  0  0
   41.5220   22.8830   34.7420 H   0  0  0  0  0  0  0  0  0  0  0  0
   38.1000   27.0290   35.3490 C   0  0  0  0  0  0  0  0  0  0  0  0
   38.0100   27.7200   36.2100 H   0  0  0  0  0  0  0  0  0  0  0  0
   39.2190   26.9130   35.2280 H   0  0  0  0  0  0  0  0  0  0  0  0
   37.4140   27.2830   34.2310 C   0  0  0  0  0  0  0  0  0  0  0  0
   36.8070   28.2200   34.1720 H   0  0  0  0  0  0  0  0  0  0  0  0
   36.5920   26.5160   34.0770 H   0  0  0  0  0  0  0  0  0  0  0  0
   38.2000   27.2350   32.9400 C   0  0  0  0  0  0  0  0  0  0  0  0
   39.2750   27.4520   33.2140 H   0  0  0  0  0  0  0  0  0  0  0  0
   37.9290   28.0560   32.2350 H   0  0  0  0  0  0  0  0  0  0  0  0
   38.0760   25.6990   32.0960 S   0  0  0  0  0  0  0  0  0  0  0  0
   36.5190   24.8450   32.1390 C   0  0  0  0  0  3  0  0  0  0  0  0
   35.4460   25.3620   31.1410 C   0  0  0  0  0  2  0  0  0  0  0  0
   35.9860   23.9780   31.0920 C   0  0  0  0  0  2  0  0  0  0  0  0
  1  2  1  0  0  0  0
  2  3  1  0  0  0  0
  3 11  1  0  0  0  0
  3  4  2  0  0  0  0
  4 12  1  0  0  0  0
  5  4  1  0  0  0  0
  6  5  2  0  0  0  0
  7  2  2  0  0  0  0
  7  6  1  0  0  0  0
  8  9  2  0  0  0  0
 10  6  1  0  0  0  0
 10  8  1  0  0  0  0
 13  8  1  0  0  0  0
 14 10  1  0  0  0  0
 15  1  1  0  0  0  0
 15 16  1  0  0  0  0
 17 15  1  0  0  0  0
 18 15  1  0  0  0  0
 19 18  1  0  0  0  0
 20 18  1  0  0  0  0
 21 22  1  0  0  0  0
 21 18  1  0  0  0  0
 23 21  1  0  0  0  0
 24 25  1  0  0  0  0
 24 21  1  0  0  0  0
 26 25  1  0  0  0  0
 27 26  1  0  0  0  0
 27 25  1  0  0  0  0
M  END
>  <minimizedAffinity>
-4.10252476

$$$$

 OpenBabel03262521223D

 27 28  0  0  0  0  0  0  0  0999 V2000
   37.5210   25.7010   35.9670 O   0  0  0  0  0  0  0  0  0  0  0  0
   38.3450   24.7200   36.4600 C   0  0  0  0  0  0  0  0  0  0  0  0
   38.0070   24.3580   37.7390 C   0  0  0  0  0  0  0  0  0  0  0  0
   38.7590   23.3560   38.3930 C   0  0  0  0  0  0  0  0  0  0  0  0
   39.8070   22.8040   37.6740 N   0  0  0  0  0  0  0  0  0  0  0  0
   40.1020   23.1980   36.4060 C   0  0  0  0  0  0  0  0  0  0  0  0
   39.3690   24.1410   35.8330 N   0  0  0  0  0  0  0  0  0  0  0  0
   41.8580   21.5860   36.5330 C   0  0  0  0  0  0  0  0  0  0  0  0
   41.5640   21.2360   37.7330 O   0  0  0  0  0  0  0  0  0  0  0  0
   41.1930   22.5680   35.7550 N   0  0  0  0  0  0  0  0  0  0  0  0
   37.2110   24.7320   38.3730 H   0  0  0  0  0  0  0  0  0  0  0  0
   38.5480   23.0230   39.3970 H   0  0  0  0  0  0  0  0  0  0  0  0
   42.7060   21.0100   36.1980 H   0  0  0  0  0  0  0  0  0  0  0  0
   41.5180   22.7730   34.7880 H   0  0  0  0  0  0  0  0  0  0  0  0
   38.0800   26.9270   35.6600 C   0  0  0  0  0  0  0  0  0  0  0  0
   38.2160   27.4700   36.6160 H   0  0  0  0  0  0  0  0  0  0  0  0
   39.1370   26.8250   35.2700 H   0  0  0  0  0  0  0  0  0  0  0  0
   37.1720   27.3650   34.7830 C   0  0  0  0  0  0  0  0  0  0  0  0
   37.1630   28.4490   34.5120 H   0  0  0  0  0  0  0  0  0  0  0  0
   36.1220   27.2660   35.2040 H   0  0  0  0  0  0  0  0  0  0  0  0
   37.1050   26.6240   33.4660 C   0  0  0  0  0  0  0  0  0  0  0  0
   36.0540   26.2160   33.3850 H   0  0  0  0  0  0  0  0  0  0  0  0
   37.7510   25.7140   33.4450 H   0  0  0  0  0  0  0  0  0  0  0  0
   37.4880   27.6240   32.0740 S   0  0  0  0  0  0  0  0  0  0  0  0
   36.2080   28.6650   31.4160 C   0  0  0  0  0  3  0  0  0  0  0  0
   35.9910   30.0100   32.1620 C   0  0  0  0  0  2  0  0  0  0  0  0
   36.4050   29.9420   30.7360 C   0  0  0  0  0  2  0  0  0  0  0  0
  1  2  1  0  0  0  0
  2  3  1  0  0  0  0
  3 11  1  0  0  0  0
  3  4  2  0  0  0  0
  4 12  1  0  0  0  0
  5  4  1  0  0  0  0
  6  5  2  0  0  0  0
  7  6  1  0  0  0  0
  7  2  2  0  0  0  0
  8  9  2  0  0  0  0
 10  6  1  0  0  0  0
 10  8  1  0  0  0  0
 13  8  1  0  0  0  0
 14 10  1  0  0  0  0
 15  1  1  0  0  0  0
 15 16  1  0  0  0  0
 17 15  1  0  0  0  0
 18 20  1  0  0  0  0
 18 15  1  0  0  0  0
 19 18  1  0  0  0  0
 21 18  1  0  0  0  0
 22 21  1  0  0  0  0
 23 21  1  0  0  0  0
 24 21  1  0  0  0  0
 25 24  1  0  0  0  0
 25 26  1  0  0  0  0
 27 25  1  0  0  0  0
 27 26  1  0  0  0  0
M  END
>  <minimizedAffinity>
-4.09358835

$$$$

 OpenBabel03262521223D

 27 28  0  0  0  0  0  0  0  0999 V2000
   38.0240   24.0760   32.5520 O   0  0  0  0  0  0  0  0  0  0  0  0
   38.0270   24.3100   33.9040 C   0  0  0  0  0  0  0  0  0  0  0  0
   37.9570   25.6480   34.1970 C   0  0  0  0  0  0  0  0  0  0  0  0
   37.9490   26.0590   35.5490 C   0  0  0  0  0  0  0  0  0  0  0  0
   38.0170   25.0520   36.4990 N   0  0  0  0  0  0  0  0  0  0  0  0
   38.0850   23.7380   36.1570 C   0  0  0  0  0  0  0  0  0  0  0  0
   38.0890   23.4000   34.8770 N   0  0  0  0  0  0  0  0  0  0  0  0
   38.1370   23.3410   38.5110 C   0  0  0  0  0  0  0  0  0  0  0  0
   38.0780   24.5880   38.8080 O   0  0  0  0  0  0  0  0  0  0  0  0
   38.1470   22.7850   37.2060 N   0  0  0  0  0  0  0  0  0  0  0  0
   37.9020   26.4970   33.5250 H   0  0  0  0  0  0  0  0  0  0  0  0
   37.8960   27.0940   35.8490 H   0  0  0  0  0  0  0  0  0  0  0  0
   38.1780   22.7650   39.4230 H   0  0  0  0  0  0  0  0  0  0  0  0
   38.1980   21.7530   37.0810 H   0  0  0  0  0  0  0  0  0  0  0  0
   36.8860   23.5330   31.9880 C   0  0  0  0  0  0  0  0  0  0  0  0
   37.1110   22.4710   31.7650 H   0  0  0  0  0  0  0  0  0  0  0  0
   36.0360   23.4650   32.7300 H   0  0  0  0  0  0  0  0  0  0  0  0
   36.7150   24.3910   30.9780 C   0  0  0  0  0  0  0  0  0  0  0  0
   36.5510   23.9870   29.9490 H   0  0  0  0  0  0  0  0  0  0  0  0
   37.6590   24.9950   30.7950 H   0  0  0  0  0  0  0  0  0  0  0  0
   35.6450   25.4420   31.1700 C   0  0  0  0  0  0  0  0  0  0  0  0
   35.1890   25.2500   32.1860 H   0  0  0  0  0  0  0  0  0  0  0  0
   34.7880   25.3250   30.4640 H   0  0  0  0  0  0  0  0  0  0  0  0
   36.2470   27.0890   31.0640 S   0  0  0  0  0  0  0  0  0  0  0  0
   35.4280   28.3400   32.0220 C   0  0  0  0  0  3  0  0  0  0  0  0
   36.1000   28.6900   33.3780 C   0  0  0  0  0  2  0  0  0  0  0  0
   35.9310   29.6850   32.2860 C   0  0  0  0  0  2  0  0  0  0  0  0
  1  2  1  0  0  0  0
  2  3  2  0  0  0  0
  2  7  1  0  0  0  0
  3  4  1  0  0  0  0
  4 12  1  0  0  0  0
  4  5  2  0  0  0  0
  6  5  1  0  0  0  0
  6 10  1  0  0  0  0
  7  6  2  0  0  0  0
  8  9  2  0  0  0  0
  8 13  1  0  0  0  0
 10  8  1  0  0  0  0
 11  3  1  0  0  0  0
 14 10  1  0  0  0  0
 15  1  1  0  0  0  0
 15 17  1  0  0  0  0
 16 15  1  0  0  0  0
 18 21  1  0  0  0  0
 18 15  1  0  0  0  0
 19 18  1  0  0  0  0
 20 18  1  0  0  0  0
 21 22  1  0  0  0  0
 23 21  1  0  0  0  0
 24 21  1  0  0  0  0
 24 25  1  0  0  0  0
 25 27  1  0  0  0  0
 25 26  1  0  0  0  0
 27 26  1  0  0  0  0
M  END
>  <minimizedAffinity>
-4.07725477

$$$$

 OpenBabel03262521223D

 27 28  0  0  0  0  0  0  0  0999 V2000
   37.5060   25.6900   35.7810 O   0  0  0  0  0  0  0  0  0  0  0  0
   38.3170   24.7220   36.3170 C   0  0  0  0  0  0  0  0  0  0  0  0
   37.9440   24.3840   37.5920 C   0  0  0  0  0  0  0  0  0  0  0  0
   38.6790   23.3970   38.2880 C   0  0  0  0  0  0  0  0  0  0  0  0
   39.7490   22.8350   37.6100 N   0  0  0  0  0  0  0  0  0  0  0  0
   40.0800   23.2060   36.3440 C   0  0  0  0  0  0  0  0  0  0  0  0
   39.3610   24.1340   35.7320 N   0  0  0  0  0  0  0  0  0  0  0  0
   41.8360   21.6020   36.5550 C   0  0  0  0  0  0  0  0  0  0  0  0
   41.5080   21.2750   37.7520 O   0  0  0  0  0  0  0  0  0  0  0  0
   41.1910   22.5670   35.7380 N   0  0  0  0  0  0  0  0  0  0  0  0
   37.1280   24.7670   38.1950 H   0  0  0  0  0  0  0  0  0  0  0  0
   38.4390   23.0840   39.2920 H   0  0  0  0  0  0  0  0  0  0  0  0
   42.6960   21.0230   36.2550 H   0  0  0  0  0  0  0  0  0  0  0  0
   41.5440   22.7540   34.7780 H   0  0  0  0  0  0  0  0  0  0  0  0
   37.6350   25.9770   34.4350 C   0  0  0  0  0  0  0  0  0  0  0  0
   38.7130   25.8960   34.1900 H   0  0  0  0  0  0  0  0  0  0  0  0
   37.1620   25.1820   33.7860 H   0  0  0  0  0  0  0  0  0  0  0  0
   37.0480   27.1770   34.4130 C   0  0  0  0  0  0  0  0  0  0  0  0
   37.4540   27.9880   35.0660 H   0  0  0  0  0  0  0  0  0  0  0  0
   35.9910   27.1180   34.8210 H   0  0  0  0  0  0  0  0  0  0  0  0
   36.8760   27.8100   33.0510 C   0  0  0  0  0  0  0  0  0  0  0  0
   36.6020   26.9730   32.3430 H   0  0  0  0  0  0  0  0  0  0  0  0
   37.8290   28.2140   32.6350 H   0  0  0  0  0  0  0  0  0  0  0  0
   35.6580   29.0760   33.0100 S   0  0  0  0  0  0  0  0  0  0  0  0
   35.0060   29.6580   34.5570 C   0  0  0  0  0  3  0  0  0  0  0  0
   35.8340   30.7720   35.2540 C   0  0  0  0  0  2  0  0  0  0  0  0
   34.4330   30.9770   34.8040 C   0  0  0  0  0  2  0  0  0  0  0  0
  1  2  1  0  0  0  0
  2  3  1  0  0  0  0
  3 11  1  0  0  0  0
  3  4  2  0  0  0  0
  4 12  1  0  0  0  0
  5  4  1  0  0  0  0
  6  5  2  0  0  0  0
  7  2  2  0  0  0  0
  7  6  1  0  0  0  0
  8  9  2  0  0  0  0
 10  6  1  0  0  0  0
 10  8  1  0  0  0  0
 13  8  1  0  0  0  0
 14 10  1  0  0  0  0
 15  1  1  0  0  0  0
 16 15  1  0  0  0  0
 17 15  1  0  0  0  0
 18 15  1  0  0  0  0
 18 20  1  0  0  0  0
 18 19  1  0  0  0  0
 21 18  1  0  0  0  0
 22 21  1  0  0  0  0
 23 21  1  0  0  0  0
 24 21  1  0  0  0  0
 24 25  1  0  0  0  0
 25 27  1  0  0  0  0
 25 26  1  0  0  0  0
 27 26  1  0  0  0  0
M  END
>  <minimizedAffinity>
-4.06754875

$$$$

 OpenBabel03262521223D

 27 28  0  0  0  0  0  0  0  0999 V2000
   37.4680   25.5820   35.9890 O   0  0  0  0  0  0  0  0  0  0  0  0
   38.3160   24.6240   36.4860 C   0  0  0  0  0  0  0  0  0  0  0  0
   38.0130   24.2880   37.7810 C   0  0  0  0  0  0  0  0  0  0  0  0
   38.7920   23.3120   38.4420 C   0  0  0  0  0  0  0  0  0  0  0  0
   39.8320   22.7570   37.7120 N   0  0  0  0  0  0  0  0  0  0  0  0
   40.0930   23.1250   36.4290 C   0  0  0  0  0  0  0  0  0  0  0  0
   39.3340   24.0430   35.8500 N   0  0  0  0  0  0  0  0  0  0  0  0
   41.8740   21.5400   36.5540 C   0  0  0  0  0  0  0  0  0  0  0  0
   41.6120   21.2150   37.7680 O   0  0  0  0  0  0  0  0  0  0  0  0
   41.1780   22.4940   35.7690 N   0  0  0  0  0  0  0  0  0  0  0  0
   37.2250   24.6660   38.4230 H   0  0  0  0  0  0  0  0  0  0  0  0
   38.6080   23.0010   39.4580 H   0  0  0  0  0  0  0  0  0  0  0  0
   42.7220   20.9670   36.2130 H   0  0  0  0  0  0  0  0  0  0  0  0
   41.4780   22.6800   34.7900 H   0  0  0  0  0  0  0  0  0  0  0  0
   37.7500   26.1200   34.7480 C   0  0  0  0  0  0  0  0  0  0  0  0
   38.8540   26.1690   34.6590 H   0  0  0  0  0  0  0  0  0  0  0  0
   37.4550   25.4230   33.9070 H   0  0  0  0  0  0  0  0  0  0  0  0
   37.0510   27.2550   34.8410 C   0  0  0  0  0  0  0  0  0  0  0  0
   37.4640   28.0940   35.4520 H   0  0  0  0  0  0  0  0  0  0  0  0
   36.0730   27.0840   35.3920 H   0  0  0  0  0  0  0  0  0  0  0  0
   36.6240   27.8840   33.5340 C   0  0  0  0  0  0  0  0  0  0  0  0
   37.2270   28.8340   33.4270 H   0  0  0  0  0  0  0  0  0  0  0  0
   35.5650   28.2360   33.5460 H   0  0  0  0  0  0  0  0  0  0  0  0
   36.8600   26.8430   32.1390 S   0  0  0  0  0  0  0  0  0  0  0  0
   38.1340   27.2750   30.9800 C   0  0  0  0  0  3  0  0  0  0  0  0
   39.5860   27.2070   31.5290 C   0  0  0  0  0  2  0  0  0  0  0  0
   39.1140   26.3600   30.4020 C   0  0  0  0  0  2  0  0  0  0  0  0
  1  2  1  0  0  0  0
  2  3  1  0  0  0  0
  3 11  1  0  0  0  0
  3  4  2  0  0  0  0
  4 12  1  0  0  0  0
  5  4  1  0  0  0  0
  6  5  2  0  0  0  0
  7  6  1  0  0  0  0
  7  2  2  0  0  0  0
  8  9  2  0  0  0  0
 10  6  1  0  0  0  0
 10  8  1  0  0  0  0
 13  8  1  0  0  0  0
 14 10  1  0  0  0  0
 15 18  1  0  0  0  0
 15  1  1  0  0  0  0
 16 15  1  0  0  0  0
 17 15  1  0  0  0  0
 18 20  1  0  0  0  0
 18 19  1  0  0  0  0
 21 23  1  0  0  0  0
 21 18  1  0  0  0  0
 22 21  1  0  0  0  0
 24 21  1  0  0  0  0
 25 26  1  0  0  0  0
 25 24  1  0  0  0  0
 27 25  1  0  0  0  0
 27 26  1  0  0  0  0
M  END
>  <minimizedAffinity>
-3.86425757

$$$$

 OpenBabel03262521223D

 27 28  0  0  0  0  0  0  0  0999 V2000
   38.5470   24.4480   35.8900 O   0  0  0  0  0  0  0  0  0  0  0  0
   37.9770   25.3530   35.0300 C   0  0  0  0  0  0  0  0  0  0  0  0
   37.8140   26.5850   35.6100 C   0  0  0  0  0  0  0  0  0  0  0  0
   37.2390   27.6330   34.8560 C   0  0  0  0  0  0  0  0  0  0  0  0
   36.8740   27.3260   33.5540 N   0  0  0  0  0  0  0  0  0  0  0  0
   37.0570   26.0870   33.0240 C   0  0  0  0  0  0  0  0  0  0  0  0
   37.6000   25.1370   33.7690 N   0  0  0  0  0  0  0  0  0  0  0  0
   36.0880   27.0150   31.0490 C   0  0  0  0  0  0  0  0  0  0  0  0
   35.9190   28.1740   31.5750 O   0  0  0  0  0  0  0  0  0  0  0  0
   36.6520   25.8770   31.6820 N   0  0  0  0  0  0  0  0  0  0  0  0
   38.0670   26.9120   36.6120 H   0  0  0  0  0  0  0  0  0  0  0  0
   37.0820   28.6240   35.2500 H   0  0  0  0  0  0  0  0  0  0  0  0
   35.7270   27.0350   30.0330 H   0  0  0  0  0  0  0  0  0  0  0  0
   36.7410   24.9820   31.1580 H   0  0  0  0  0  0  0  0  0  0  0  0
   37.9040   24.1920   37.0860 C   0  0  0  0  0  0  0  0  0  0  0  0
   37.6910   25.1730   37.5550 H   0  0  0  0  0  0  0  0  0  0  0  0
   36.8730   23.7540   36.9260 H   0  0  0  0  0  0  0  0  0  0  0  0
   38.8050   23.3800   37.6460 C   0  0  0  0  0  0  0  0  0  0  0  0
   38.4950   22.7490   38.5150 H   0  0  0  0  0  0  0  0  0  0  0  0
   39.6390   23.9760   38.1330 H   0  0  0  0  0  0  0  0  0  0  0  0
   39.5300   22.4410   36.7090 C   0  0  0  0  0  0  0  0  0  0  0  0
   39.5440   22.9480   35.6980 H   0  0  0  0  0  0  0  0  0  0  0  0
   38.9740   21.4910   36.5270 H   0  0  0  0  0  0  0  0  0  0  0  0
   41.1630   22.0520   37.2250 S   0  0  0  0  0  0  0  0  0  0  0  0
   42.5050   22.4730   36.1410 C   0  0  0  0  0  3  0  0  0  0  0  0
   42.6250   23.9790   35.7810 C   0  0  0  0  0  2  0  0  0  0  0  0
   43.6930   23.2400   36.5030 C   0  0  0  0  0  2  0  0  0  0  0  0
  1 15  1  0  0  0  0
  2  3  1  0  0  0  0
  2  1  1  0  0  0  0
  3 11  1  0  0  0  0
  4 12  1  0  0  0  0
  4  3  2  0  0  0  0
  5  4  1  0  0  0  0
  6  5  2  0  0  0  0
  6  7  1  0  0  0  0
  7  2  2  0  0  0  0
  8  9  2  0  0  0  0
  8 10  1  0  0  0  0
 10  6  1  0  0  0  0
 13  8  1  0  0  0  0
 14 10  1  0  0  0  0
 15 16  1  0  0  0  0
 15 18  1  0  0  0  0
 17 15  1  0  0  0  0
 18 20  1  0  0  0  0
 18 19  1  0  0  0  0
 21 24  1  0  0  0  0
 21 18  1  0  0  0  0
 22 21  1  0  0  0  0
 23 21  1  0  0  0  0
 25 27  1  0  0  0  0
 25 24  1  0  0  0  0
 26 25  1  0  0  0  0
 26 27  1  0  0  0  0
M  END
>  <minimizedAffinity>
-3.85110354

$$$$

 OpenBabel03262521223D

 27 28  0  0  0  0  0  0  0  0999 V2000
   36.3120   28.5420   33.8080 O   0  0  0  0  0  0  0  0  0  0  0  0
   35.5220   29.5110   34.3730 C   0  0  0  0  0  0  0  0  0  0  0  0
   34.2610   29.5280   33.8350 C   0  0  0  0  0  0  0  0  0  0  0  0
   33.3210   30.4710   34.3090 C   0  0  0  0  0  0  0  0  0  0  0  0
   33.7580   31.3290   35.3070 N   0  0  0  0  0  0  0  0  0  0  0  0
   35.0210   31.2710   35.8070 C   0  0  0  0  0  0  0  0  0  0  0  0
   35.8670   30.3710   35.3320 N   0  0  0  0  0  0  0  0  0  0  0  0
   34.3280   33.0810   37.2020 C   0  0  0  0  0  0  0  0  0  0  0  0
   33.1440   33.1190   36.7080 O   0  0  0  0  0  0  0  0  0  0  0  0
   35.3680   32.1920   36.8290 N   0  0  0  0  0  0  0  0  0  0  0  0
   33.8350   28.9010   33.0590 H   0  0  0  0  0  0  0  0  0  0  0  0
   32.3130   30.5390   33.9310 H   0  0  0  0  0  0  0  0  0  0  0  0
   34.4170   33.8440   37.9590 H   0  0  0  0  0  0  0  0  0  0  0  0
   36.2950   32.2500   37.2980 H   0  0  0  0  0  0  0  0  0  0  0  0
   37.0060   27.6940   34.6500 C   0  0  0  0  0  0  0  0  0  0  0  0
   37.5500   28.3330   35.3740 H   0  0  0  0  0  0  0  0  0  0  0  0
   36.3130   27.0910   35.3090 H   0  0  0  0  0  0  0  0  0  0  0  0
   37.6970   27.0030   33.7390 C   0  0  0  0  0  0  0  0  0  0  0  0
   38.7360   27.3300   33.4880 H   0  0  0  0  0  0  0  0  0  0  0  0
   37.2180   27.0930   32.7140 H   0  0  0  0  0  0  0  0  0  0  0  0
   37.7920   25.5110   33.9640 C   0  0  0  0  0  0  0  0  0  0  0  0
   38.2880   25.0810   33.0440 H   0  0  0  0  0  0  0  0  0  0  0  0
   36.7950   25.0110   33.9920 H   0  0  0  0  0  0  0  0  0  0  0  0
   38.6880   25.0710   35.4100 S   0  0  0  0  0  0  0  0  0  0  0  0
   37.7660   24.6100   36.8560 C   0  0  0  0  0  3  0  0  0  0  0  0
   37.4800   23.0900   37.0090 C   0  0  0  0  0  2  0  0  0  0  0  0
   38.2800   23.8590   37.9980 C   0  0  0  0  0  2  0  0  0  0  0  0
  1  2  1  0  0  0  0
  1 15  1  0  0  0  0
  2  7  1  0  0  0  0
  3  4  1  0  0  0  0
  3  2  2  0  0  0  0
  4  5  2  0  0  0  0
  5  6  1  0  0  0  0
  6 10  1  0  0  0  0
  7  6  2  0  0  0  0
  8 13  1  0  0  0  0
  9  8  2  0  0  0  0
 10  8  1  0  0  0  0
 10 14  1  0  0  0  0
 11  3  1  0  0  0  0
 12  4  1  0  0  0  0
 15 17  1  0  0  0  0
 15 16  1  0  0  0  0
 18 21  1  0  0  0  0
 18 15  1  0  0  0  0
 19 18  1  0  0  0  0
 20 18  1  0  0  0  0
 21 23  1  0  0  0  0
 21 24  1  0  0  0  0
 22 21  1  0  0  0  0
 24 25  1  0  0  0  0
 25 26  1  0  0  0  0
 25 27  1  0  0  0  0
 26 27  1  0  0  0  0
M  END
>  <minimizedAffinity>
-3.8064537

$$$$

 OpenBabel03262521223D

 27 28  0  0  0  0  0  0  0  0999 V2000
   35.9680   28.5770   33.6830 O   0  0  0  0  0  0  0  0  0  0  0  0
   35.2550   29.5410   34.3500 C   0  0  0  0  0  0  0  0  0  0  0  0
   33.9230   29.5160   34.0230 C   0  0  0  0  0  0  0  0  0  0  0  0
   33.0470   30.4460   34.6260 C   0  0  0  0  0  0  0  0  0  0  0  0
   33.6160   31.3360   35.5240 N   0  0  0  0  0  0  0  0  0  0  0  0
   34.9440   31.3190   35.8150 C   0  0  0  0  0  0  0  0  0  0  0  0
   35.7260   30.4290   35.2260 N   0  0  0  0  0  0  0  0  0  0  0  0
   34.4360   33.1430   37.2710 C   0  0  0  0  0  0  0  0  0  0  0  0
   33.1870   33.1420   36.9740 O   0  0  0  0  0  0  0  0  0  0  0  0
   35.4260   32.2700   36.7510 N   0  0  0  0  0  0  0  0  0  0  0  0
   33.3950   28.8630   33.3370 H   0  0  0  0  0  0  0  0  0  0  0  0
   31.9900   30.4820   34.4130 H   0  0  0  0  0  0  0  0  0  0  0  0
   34.6250   33.9240   37.9900 H   0  0  0  0  0  0  0  0  0  0  0  0
   36.4140   32.3600   37.0630 H   0  0  0  0  0  0  0  0  0  0  0  0
   36.2830   28.8020   32.3560 C   0  0  0  0  0  0  0  0  0  0  0  0
   35.3590   28.6230   31.7700 H   0  0  0  0  0  0  0  0  0  0  0  0
   36.5090   29.8920   32.1530 H   0  0  0  0  0  0  0  0  0  0  0  0
   37.3100   27.9580   32.2310 C   0  0  0  0  0  0  0  0  0  0  0  0
   38.3500   28.3540   32.3380 H   0  0  0  0  0  0  0  0  0  0  0  0
   37.3720   27.5490   31.1740 H   0  0  0  0  0  0  0  0  0  0  0  0
   37.2640   26.7190   33.0960 C   0  0  0  0  0  0  0  0  0  0  0  0
   36.2120   26.6540   33.5030 H   0  0  0  0  0  0  0  0  0  0  0  0
   37.9020   26.8000   34.0080 H   0  0  0  0  0  0  0  0  0  0  0  0
   37.6860   25.2440   32.2390 S   0  0  0  0  0  0  0  0  0  0  0  0
   36.5600   24.6450   31.0030 C   0  0  0  0  0  3  0  0  0  0  0  0
   35.5750   23.5410   31.4760 C   0  0  0  0  0  2  0  0  0  0  0  0
   35.1170   24.8640   30.9790 C   0  0  0  0  0  2  0  0  0  0  0  0
  1  2  1  0  0  0  0
  2  7  1  0  0  0  0
  3  2  2  0  0  0  0
  3  4  1  0  0  0  0
  4  5  2  0  0  0  0
  5  6  1  0  0  0  0
  6 10  1  0  0  0  0
  7  6  2  0  0  0  0
  8 13  1  0  0  0  0
  9  8  2  0  0  0  0
 10 14  1  0  0  0  0
 10  8  1  0  0  0  0
 11  3  1  0  0  0  0
 12  4  1  0  0  0  0
 15  1  1  0  0  0  0
 16 15  1  0  0  0  0
 17 15  1  0  0  0  0
 18 19  1  0  0  0  0
 18 15  1  0  0  0  0
 18 21  1  0  0  0  0
 20 18  1  0  0  0  0
 21 22  1  0  0  0  0
 21 23  1  0  0  0  0
 24 21  1  0  0  0  0
 25 26  1  0  0  0  0
 25 24  1  0  0  0  0
 27 25  1  0  0  0  0
 27 26  1  0  0  0  0
M  END
>  <minimizedAffinity>
-3.80436206

$$$$
