
 OpenBabel03272508273D

 32 35  0  0  1  0  0  0  0  0999 V2000
   35.6220   30.3760   49.0330 C   0  0  1  0  0  0  0  0  0  0  0  0
   35.7040   28.9590   48.7630 C   0  0  1  0  0  0  0  0  0  0  0  0
   35.8900   29.3880   50.1810 C   0  0  0  0  0  0  0  0  0  0  0  0
   34.7070   30.9670   49.2510 H   0  0  0  0  0  0  0  0  0  0  0  0
   36.6430   28.6360   48.2230 H   0  0  0  0  0  0  0  0  0  0  0  0
   36.9030   29.3350   50.6130 H   0  0  0  0  0  0  0  0  0  0  0  0
   35.0660   29.1420   50.8730 H   0  0  0  0  0  0  0  0  0  0  0  0
   33.8240   28.9070   47.2300 C   0  0  2  0  0  0  0  0  0  0  0  0
   34.5310   28.1390   48.3380 C   0  0  2  0  0  0  0  0  0  0  0  0
   33.6140   27.9990   49.3360 O   0  0  0  0  0  0  0  0  0  0  0  0
   32.3470   28.0850   48.8400 C   0  0  0  0  0  0  0  0  0  0  0  0
   32.4370   28.2640   47.3400 C   0  0  1  0  0  0  0  0  0  0  0  0
   33.6840   29.9720   47.4630 H   0  0  0  0  0  0  0  0  0  0  0  0
   34.8010   27.1520   47.9060 H   0  0  0  0  0  0  0  0  0  0  0  0
   31.8880   29.0100   49.2420 H   0  0  0  0  0  0  0  0  0  0  0  0
   31.6910   27.2340   49.1050 H   0  0  0  0  0  0  0  0  0  0  0  0
   32.4690   27.2190   46.9230 H   0  0  0  0  0  0  0  0  0  0  0  0
   34.3810   28.6970   45.9790 O   0  0  0  0  0  0  0  0  0  0  0  0
   34.3890   29.5470   45.4990 H   0  0  0  0  0  0  0  0  0  0  0  0
   31.4630   29.0520   46.7980 O   0  0  0  0  0  0  0  0  0  0  0  0
   30.6750   28.4050   45.8610 C   0  0  0  0  0  3  0  0  0  0  0  0
   31.0950   28.2550   44.4580 C   0  0  0  0  0  2  0  0  0  0  0  0
   31.0270   27.0500   45.3700 C   0  0  0  0  0  2  0  0  0  0  0  0
   36.8070   31.2960   48.7950 C   0  0  0  0  0  0  0  0  0  0  0  0
   37.0570   32.2920   49.7370 C   0  0  0  0  0  0  0  0  0  0  0  0
   38.1370   33.1130   49.4560 C   0  0  0  0  0  0  0  0  0  0  0  0
   38.8860   32.9390   48.3330 N   0  0  0  0  0  0  0  0  0  0  0  0
   38.6090   31.9490   47.4360 C   0  0  0  0  0  0  0  0  0  0  0  0
   37.5550   31.1220   47.6770 N   0  0  0  0  0  0  0  0  0  0  0  0
   36.4230   32.3760   50.6060 H   0  0  0  0  0  0  0  0  0  0  0  0
   38.3710   33.9080   50.1670 H   0  0  0  0  0  0  0  0  0  0  0  0
   39.1910   31.7940   46.5380 H   0  0  0  0  0  0  0  0  0  0  0  0
  1  4  1  6  0  0  0
  1  3  1  0  0  0  0
  2  5  1  6  0  0  0
  2  1  1  0  0  0  0
  2  3  1  0  0  0  0
  3  6  1  0  0  0  0
  3  7  1  0  0  0  0
  8 12  1  0  0  0  0
  8 13  1  1  0  0  0
  8  9  1  0  0  0  0
  9 14  1  6  0  0  0
  9  2  1  0  0  0  0
  9 10  1  0  0  0  0
 11 16  1  0  0  0  0
 11 15  1  0  0  0  0
 11 10  1  0  0  0  0
 12 17  1  6  0  0  0
 12 11  1  0  0  0  0
 18  8  1  0  0  0  0
 19 18  1  0  0  0  0
 20 12  1  0  0  0  0
 21 20  1  0  0  0  0
 22 23  1  0  0  0  0
 22 21  1  0  0  0  0
 23 21  1  0  0  0  0
 24  1  1  0  0  0  0
 24 25  1  0  0  0  0
 25 30  1  0  0  0  0
 26 25  2  0  0  0  0
 26 31  1  0  0  0  0
 27 26  1  0  0  0  0
 28 29  1  0  0  0  0
 28 27  2  0  0  0  0
 29 24  2  0  0  0  0
 32 28  1  0  0  0  0
M  END
>  <minimizedAffinity>
-4.57970381

>  <minimizedRMSD>
0.363177389

$$$$
