
 OpenBabel03272509573D

 40 43  0  0  0  0  0  0  0  0999 V2000
   35.0110   28.3680   49.5320 O   0  0  0  0  0  0  0  0  0  0  0  0
   37.3780   30.1930   51.5710 C   0  0  0  0  0  0  0  0  0  0  0  0
   38.0920   30.8750   50.5580 C   0  0  0  0  0  0  0  0  0  0  0  0
   37.7160   30.6660   49.2420 C   0  0  0  0  0  0  0  0  0  0  0  0
   36.6680   29.8020   49.0420 N   0  0  0  0  0  0  0  0  0  0  0  0
   36.0100   29.1690   50.0070 C   0  0  0  0  0  0  0  0  0  0  0  0
   36.3780   29.3740   51.2900 N   0  0  0  0  0  0  0  0  0  0  0  0
   37.6910   30.3740   52.5920 H   0  0  0  0  0  0  0  0  0  0  0  0
   38.9130   31.5520   50.7300 H   0  0  0  0  0  0  0  0  0  0  0  0
   38.9580   33.2750   49.0380 F   0  0  0  0  0  0  0  0  0  0  0  0
   38.9100   32.4920   47.9770 C   0  0  0  0  0  0  0  0  0  0  0  0
   38.3270   31.2740   48.0820 C   0  0  0  0  0  0  0  0  0  0  0  0
   38.3270   30.5270   46.9070 C   0  0  0  0  0  0  0  0  0  0  0  0
   38.8820   31.0020   45.7390 C   0  0  0  0  0  0  0  0  0  0  0  0
   39.4610   32.2430   45.6780 C   0  0  0  0  0  0  0  0  0  0  0  0
   39.4700   32.9890   46.8170 C   0  0  0  0  0  0  0  0  0  0  0  0
   37.8970   29.5360   46.8410 H   0  0  0  0  0  0  0  0  0  0  0  0
   38.8750   30.4100   44.8290 H   0  0  0  0  0  0  0  0  0  0  0  0
   39.9070   32.6430   44.7660 H   0  0  0  0  0  0  0  0  0  0  0  0
   39.9240   33.9660   46.7800 H   0  0  0  0  0  0  0  0  0  0  0  0
   34.5190   28.5840   48.2200 C   0  0  0  0  0  0  0  0  0  0  0  0
   33.9240   29.5060   48.2210 H   0  0  0  0  0  0  0  0  0  0  0  0
   35.3940   28.6100   47.5250 H   0  0  0  0  0  0  0  0  0  0  0  0
   33.6390   27.4470   47.7790 C   0  0  0  0  0  0  0  0  0  0  0  0
   33.9360   27.0510   46.7770 H   0  0  0  0  0  0  0  0  0  0  0  0
   33.7550   26.6080   48.4710 H   0  0  0  0  0  0  0  0  0  0  0  0
   32.2000   27.8500   47.7190 C   0  0  0  0  0  0  0  0  0  0  0  0
   31.3660   27.3970   48.7230 C   0  0  0  0  0  0  0  0  0  0  0  0
   30.0330   27.7070   48.7630 C   0  0  0  0  0  0  0  0  0  0  0  0
   29.5190   28.4690   47.8090 N   0  0  0  0  0  0  0  0  0  0  0  0
   30.3400   28.9130   46.8250 C   0  0  0  0  0  0  0  0  0  0  0  0
   31.6540   28.6200   46.7640 N   0  0  0  0  0  0  0  0  0  0  0  0
   31.7760   26.7740   49.5080 H   0  0  0  0  0  0  0  0  0  0  0  0
   29.4320   27.3090   49.5940 H   0  0  0  0  0  0  0  0  0  0  0  0
   29.7450   29.7760   45.7470 C   0  0  0  0  0  0  0  0  0  0  0  0
   28.9210   30.3970   46.1790 H   0  0  0  0  0  0  0  0  0  0  0  0
   29.3180   29.1300   44.9360 H   0  0  0  0  0  0  0  0  0  0  0  0
   30.7640   30.6720   45.1230 C   0  0  0  0  0  3  0  0  0  0  0  0
   30.6390   30.7450   43.5880 C   0  0  0  0  0  2  0  0  0  0  0  0
   30.4340   31.9410   44.4620 C   0  0  0  0  0  2  0  0  0  0  0  0
  1  6  1  0  0  0  0
  2  8  1  0  0  0  0
  3  9  1  0  0  0  0
  3  2  2  0  0  0  0
  4  3  1  0  0  0  0
  5  4  2  0  0  0  0
  5  6  1  0  0  0  0
  6  7  2  0  0  0  0
  7  2  1  0  0  0  0
 11 12  1  0  0  0  0
 11 10  1  0  0  0  0
 12  4  1  0  0  0  0
 13 12  2  0  0  0  0
 14 13  1  0  0  0  0
 15 14  2  0  0  0  0
 15 16  1  0  0  0  0
 16 11  2  0  0  0  0
 17 13  1  0  0  0  0
 18 14  1  0  0  0  0
 19 15  1  0  0  0  0
 20 16  1  0  0  0  0
 21 22  1  0  0  0  0
 21  1  1  0  0  0  0
 23 21  1  0  0  0  0
 24 21  1  0  0  0  0
 24 26  1  0  0  0  0
 25 24  1  0  0  0  0
 27 24  1  0  0  0  0
 27 28  1  0  0  0  0
 28 29  2  0  0  0  0
 28 33  1  0  0  0  0
 29 34  1  0  0  0  0
 30 29  1  0  0  0  0
 31 30  2  0  0  0  0
 32 31  1  0  0  0  0
 32 27  2  0  0  0  0
 35 36  1  0  0  0  0
 35 31  1  0  0  0  0
 37 35  1  0  0  0  0
 38 35  1  0  0  0  0
 39 40  1  0  0  0  0
 39 38  1  0  0  0  0
 40 38  1  0  0  0  0
M  END
>  <minimizedAffinity>
-6.12947321

>  <minimizedRMSD>
0.665590048

$$$$
