
     RDKit          3D

 26 27  0  0  0  0  0  0  0  0999 V2000
   36.0773   30.2834   50.0216 C   0  0  0  0  0  0  0  0  0  0  0  0
   35.1279   29.5978   49.1103 C   0  0  0  0  0  0  0  0  0  0  0  0
   34.6774   30.2757   47.9872 C   0  0  0  0  0  0  0  0  0  0  0  0
   33.7885   29.6420   47.1284 C   0  0  0  0  0  0  0  0  0  0  0  0
   33.3967   28.3786   47.4276 N   0  0  0  0  0  0  0  0  0  0  0  0
   33.8461   27.7303   48.5286 C   0  0  0  0  0  0  0  0  0  0  0  0
   34.7110   28.3395   49.3695 N   0  0  0  0  0  0  0  0  0  0  0  0
   36.3447   31.5859   49.6286 O   0  0  0  0  0  0  0  0  0  0  0  0
   38.3997   31.1715   48.0451 O   0  0  0  0  0  0  0  0  0  0  0  0
   38.0150   31.7094   49.3927 P   0  0  2  0  0  0  0  0  0  0  0  0
   38.8067   30.7640   50.5694 O   0  0  0  0  0  0  0  0  0  0  0  0
   38.5121   33.3288   49.5021 O   0  0  0  0  0  0  0  0  0  0  0  0
   35.6772   30.2912   51.0712 H   0  0  0  0  0  0  0  0  0  0  0  0
   36.9844   29.6397   50.0512 H   0  0  0  0  0  0  0  0  0  0  0  0
   34.9929   31.2959   47.7445 H   0  0  0  0  0  0  0  0  0  0  0  0
   33.4289   30.1701   46.2409 H   0  0  0  0  0  0  0  0  0  0  0  0
   33.5035   26.7123   48.7305 H   0  0  0  0  0  0  0  0  0  0  0  0
   39.6608   30.3848   50.2414 H   0  0  0  0  0  0  0  0  0  0  0  0
   37.5106   34.1308   48.9854 C   0  0  0  0  0  0  0  0  0  0  0  0
   37.6794   35.6066   49.3984 C   0  0  0  0  0  0  0  0  0  0  0  0
   37.7490   35.1530   47.9455 C   0  0  0  0  0  0  0  0  0  0  0  0
   36.4524   33.7497   49.0847 H   0  0  0  0  0  0  0  0  0  0  0  0
   36.7734   36.1195   49.7680 H   0  0  0  0  0  0  0  0  0  0  0  0
   38.6435   35.9315   49.8068 H   0  0  0  0  0  0  0  0  0  0  0  0
   38.7224   35.1872   47.4300 H   0  0  0  0  0  0  0  0  0  0  0  0
   36.8935   35.4367   47.3074 H   0  0  0  0  0  0  0  0  0  0  0  0
  2  7  1  0
  2  1  1  0
  3  2  2  0
  4  5  2  0
  4  3  1  0
  5  6  1  0
  6  7  2  0
  8  1  1  0
  9 10  2  0
 10 12  1  6
 10  8  1  0
 10 11  1  0
  1 13  1  0
  1 14  1  0
  3 15  1  0
  4 16  1  0
  6 17  1  0
 11 18  1  0
 19 20  1  0
 20 21  1  0
 21 19  1  0
 19 22  1  0
 20 23  1  0
 20 24  1  0
 21 25  1  0
 21 26  1  0
 12 19  1  0
M  ISO  6  13   8  14   8  15  14  16  14  17  14  18   3
M  END
>  <DihAtoms>  (1) 
9,11,18,19

>  <DihDeg>  (1) 
133.64828242226034

$$$$
