
 OpenBabel03272509583D

 40 43  0  0  0  0  0  0  0  0999 V2000
   34.9850   28.3600   49.4420 O   0  0  0  0  0  0  0  0  0  0  0  0
   37.3280   30.1730   51.5200 C   0  0  0  0  0  0  0  0  0  0  0  0
   38.0570   30.8570   50.5200 C   0  0  0  0  0  0  0  0  0  0  0  0
   37.6980   30.6540   49.1970 C   0  0  0  0  0  0  0  0  0  0  0  0
   36.6520   29.7920   48.9800 N   0  0  0  0  0  0  0  0  0  0  0  0
   35.9790   29.1570   49.9340 C   0  0  0  0  0  0  0  0  0  0  0  0
   36.3300   29.3570   51.2230 N   0  0  0  0  0  0  0  0  0  0  0  0
   37.6270   30.3490   52.5460 H   0  0  0  0  0  0  0  0  0  0  0  0
   38.8760   31.5310   50.7060 H   0  0  0  0  0  0  0  0  0  0  0  0
   38.9450   33.2620   49.0200 F   0  0  0  0  0  0  0  0  0  0  0  0
   38.9120   32.4830   47.9560 C   0  0  0  0  0  0  0  0  0  0  0  0
   38.3260   31.2650   48.0480 C   0  0  0  0  0  0  0  0  0  0  0  0
   38.3430   30.5220   46.8710 C   0  0  0  0  0  0  0  0  0  0  0  0
   38.9150   31.0000   45.7130 C   0  0  0  0  0  0  0  0  0  0  0  0
   39.4950   32.2400   45.6640 C   0  0  0  0  0  0  0  0  0  0  0  0
   39.4890   32.9820   46.8050 C   0  0  0  0  0  0  0  0  0  0  0  0
   37.9130   29.5310   46.7960 H   0  0  0  0  0  0  0  0  0  0  0  0
   38.9210   30.4100   44.8010 H   0  0  0  0  0  0  0  0  0  0  0  0
   39.9550   32.6420   44.7600 H   0  0  0  0  0  0  0  0  0  0  0  0
   39.9440   33.9600   46.7780 H   0  0  0  0  0  0  0  0  0  0  0  0
   34.4260   28.6580   48.1740 C   0  0  0  0  0  0  0  0  0  0  0  0
   33.8100   29.5600   48.2710 H   0  0  0  0  0  0  0  0  0  0  0  0
   35.2670   28.7590   47.4430 H   0  0  0  0  0  0  0  0  0  0  0  0
   33.5550   27.5310   47.6900 C   0  0  0  0  0  0  0  0  0  0  0  0
   33.7940   27.2390   46.6370 H   0  0  0  0  0  0  0  0  0  0  0  0
   33.7460   26.6390   48.2920 H   0  0  0  0  0  0  0  0  0  0  0  0
   32.1030   27.8820   47.7640 C   0  0  0  0  0  0  0  0  0  0  0  0
   31.4010   27.4680   48.8790 C   0  0  0  0  0  0  0  0  0  0  0  0
   30.0690   27.7360   49.0470 C   0  0  0  0  0  0  0  0  0  0  0  0
   29.4250   28.4170   48.1100 N   0  0  0  0  0  0  0  0  0  0  0  0
   30.1170   28.8230   47.0170 C   0  0  0  0  0  0  0  0  0  0  0  0
   31.4270   28.5700   46.8300 N   0  0  0  0  0  0  0  0  0  0  0  0
   31.9180   26.9110   49.6500 H   0  0  0  0  0  0  0  0  0  0  0  0
   29.5770   27.3730   49.9610 H   0  0  0  0  0  0  0  0  0  0  0  0
   29.3750   29.5950   45.9610 C   0  0  0  0  0  0  0  0  0  0  0  0
   28.8460   30.4600   46.4330 H   0  0  0  0  0  0  0  0  0  0  0  0
   28.6130   28.9340   45.4720 H   0  0  0  0  0  0  0  0  0  0  0  0
   30.2890   30.0990   44.8930 C   0  0  0  0  0  3  0  0  0  0  0  0
   29.5320   30.6620   43.6720 C   0  0  0  0  0  2  0  0  0  0  0  0
   30.4110   31.5160   44.5300 C   0  0  0  0  0  2  0  0  0  0  0  0
  1  6  1  0  0  0  0
  2  8  1  0  0  0  0
  3  9  1  0  0  0  0
  3  2  2  0  0  0  0
  4  3  1  0  0  0  0
  5  4  2  0  0  0  0
  5  6  1  0  0  0  0
  6  7  2  0  0  0  0
  7  2  1  0  0  0  0
 11 12  1  0  0  0  0
 11 10  1  0  0  0  0
 12  4  1  0  0  0  0
 13 12  2  0  0  0  0
 14 13  1  0  0  0  0
 15 14  2  0  0  0  0
 15 16  1  0  0  0  0
 16 11  2  0  0  0  0
 17 13  1  0  0  0  0
 18 14  1  0  0  0  0
 19 15  1  0  0  0  0
 20 16  1  0  0  0  0
 21 22  1  0  0  0  0
 21  1  1  0  0  0  0
 23 21  1  0  0  0  0
 24 27  1  0  0  0  0
 24 21  1  0  0  0  0
 24 26  1  0  0  0  0
 25 24  1  0  0  0  0
 27 28  1  0  0  0  0
 28 29  2  0  0  0  0
 28 33  1  0  0  0  0
 29 34  1  0  0  0  0
 30 29  1  0  0  0  0
 31 30  2  0  0  0  0
 32 31  1  0  0  0  0
 32 27  2  0  0  0  0
 35 36  1  0  0  0  0
 35 31  1  0  0  0  0
 37 35  1  0  0  0  0
 38 35  1  0  0  0  0
 39 40  1  0  0  0  0
 39 38  1  0  0  0  0
 40 38  1  0  0  0  0
M  END
>  <minimizedAffinity>
-6.09954548

>  <minimizedRMSD>
0.577808499

$$$$
