
 OpenBabel03272510103D

 22 24  0  0  0  0  0  0  0  0999 V2000
   37.4480   31.2170   48.8460 C   0  0  0  0  0  0  0  0  0  0  0  0
   37.9200   32.4620   49.1230 C   0  0  0  0  0  0  0  0  0  0  0  0
   38.8230   33.1390   48.3260 C   0  0  0  0  0  0  0  0  0  0  0  0
   39.2990   32.5500   47.1690 C   0  0  0  0  0  0  0  0  0  0  0  0
   38.8030   31.2920   46.9190 C   0  0  0  0  0  0  0  0  0  0  0  0
   37.9250   30.6490   47.7060 N   0  0  0  0  0  0  0  0  0  0  0  0
   37.5560   32.9420   50.0290 H   0  0  0  0  0  0  0  0  0  0  0  0
   39.1850   34.1320   48.5670 H   0  0  0  0  0  0  0  0  0  0  0  0
   39.0560   30.6720   46.0690 H   0  0  0  0  0  0  0  0  0  0  0  0
   36.8230   29.9190   50.9090 C   0  0  0  0  0  0  0  0  0  0  0  0
   36.4980   30.5010   49.6870 C   0  0  0  0  0  0  0  0  0  0  0  0
   35.1950   30.3850   49.2550 C   0  0  0  0  0  0  0  0  0  0  0  0
   34.2910   29.7170   50.0290 N   0  0  0  0  0  0  0  0  0  0  0  0
   34.6620   29.1690   51.2120 C   0  0  0  0  0  0  0  0  0  0  0  0
   35.9370   29.2640   51.6680 N   0  0  0  0  0  0  0  0  0  0  0  0
   37.8690   30.0530   51.1790 H   0  0  0  0  0  0  0  0  0  0  0  0
   34.9220   30.8300   48.3090 H   0  0  0  0  0  0  0  0  0  0  0  0
   33.9840   28.6300   51.8610 H   0  0  0  0  0  0  0  0  0  0  0  0
   40.1970   33.1160   46.2920 O   0  0  0  0  0  0  0  0  0  0  0  0
   40.3630   32.8520   44.9410 C   0  0  0  0  0  3  0  0  0  0  0  0
   39.0770   32.9710   44.0590 C   0  0  0  0  0  2  0  0  0  0  0  0
   40.2630   33.9150   43.9110 C   0  0  0  0  0  2  0  0  0  0  0  0
  1  2  1  0  0  0  0
  1 11  1  0  0  0  0
  2  7  1  0  0  0  0
  3  8  1  0  0  0  0
  3  2  2  0  0  0  0
  4  3  1  0  0  0  0
  5  4  2  0  0  0  0
  5  6  1  0  0  0  0
  6  1  2  0  0  0  0
  9  5  1  0  0  0  0
 10 16  1  0  0  0  0
 10 15  1  0  0  0  0
 11 10  2  0  0  0  0
 12 11  1  0  0  0  0
 12 13  2  0  0  0  0
 13 14  1  0  0  0  0
 14 15  2  0  0  0  0
 14 18  1  0  0  0  0
 17 12  1  0  0  0  0
 19  4  1  0  0  0  0
 20 19  1  0  0  0  0
 21 20  1  0  0  0  0
 22 21  1  0  0  0  0
 22 20  1  0  0  0  0
M  END
>  <minimizedAffinity>
-4.6485095

>  <minimizedRMSD>
0.693317235

$$$$
