
 OpenBabel03272503493D

 31 33  0  0  1  0  0  0  0  0999 V2000
   33.1940   27.3940   45.8440 C   0  0  1  0  0  0  0  0  0  0  0  0
   33.9500   27.4870   47.1900 C   0  0  2  0  0  0  0  0  0  0  0  0
   33.8000   26.2450   47.7200 O   0  0  0  0  0  0  0  0  0  0  0  0
   34.0690   25.3840   46.6670 C   0  0  0  0  0  0  0  0  0  0  0  0
   33.5700   26.0100   45.4010 C   0  0  2  0  0  0  0  0  0  0  0  0
   33.5780   28.1950   45.1670 H   0  0  0  0  0  0  0  0  0  0  0  0
   34.9970   27.6570   46.8690 H   0  0  0  0  0  0  0  0  0  0  0  0
   35.1430   25.1250   46.6470 H   0  0  0  0  0  0  0  0  0  0  0  0
   33.5150   24.4290   46.8920 H   0  0  0  0  0  0  0  0  0  0  0  0
   32.6660   25.4520   45.0700 H   0  0  0  0  0  0  0  0  0  0  0  0
   31.8430   27.6060   46.0340 O   0  0  0  0  0  0  0  0  0  0  0  0
   31.3490   26.7730   45.8650 H   0  0  0  0  0  0  0  0  0  0  0  0
   33.3490   28.5200   47.8490 O   0  0  0  0  0  0  0  0  0  0  0  0
   35.3510   29.8560   46.7670 O   0  0  0  0  0  0  0  0  0  0  0  0
   34.0990   30.0090   47.6240 P   0  0  1  0  0  0  0  0  0  0  0  0
   33.0880   31.0430   46.7440 O   0  0  0  0  0  0  0  0  0  0  0  0
   33.6260   31.7030   46.2640 H   0  0  0  0  0  0  0  0  0  0  0  0
   34.4130   30.6500   49.1770 O   0  0  0  0  0  0  0  0  0  0  0  0
   35.6430   30.5160   49.7890 C   0  0  0  0  0  0  0  0  0  0  0  0
   35.9800   29.4920   50.7010 C   0  0  0  0  0  0  0  0  0  0  0  0
   37.2600   29.4860   51.2360 C   0  0  0  0  0  0  0  0  0  0  0  0
   38.1320   30.4690   50.8540 N   0  0  0  0  0  0  0  0  0  0  0  0
   37.7820   31.4450   49.9720 C   0  0  0  0  0  0  0  0  0  0  0  0
   36.5310   31.4630   49.4410 N   0  0  0  0  0  0  0  0  0  0  0  0
   35.2190   28.7780   50.9250 H   0  0  0  0  0  0  0  0  0  0  0  0
   37.5300   28.7150   51.9290 H   0  0  0  0  0  0  0  0  0  0  0  0
   38.5110   32.1970   49.7060 H   0  0  0  0  0  0  0  0  0  0  0  0
   34.5630   26.0550   44.4480 O   0  0  0  0  0  0  0  0  0  0  0  0
   34.5010   27.1520   43.6140 C   0  0  0  0  0  0  0  0  0  0  0  0
   35.6650   27.9610   43.2640 C   0  0  0  0  0  0  0  0  0  0  0  0
   35.2190   26.9120   42.2780 C   0  0  0  0  0  0  0  0  0  0  0  0
  1  6  1  6  0  0  0
  1 11  1  0  0  0  0
  1  2  1  0  0  0  0
  2  7  1  6  0  0  0
  2  3  1  0  0  0  0
  2 13  1  0  0  0  0
  4  9  1  0  0  0  0
  4  3  1  0  0  0  0
  5 10  1  6  0  0  0
  5  1  1  0  0  0  0
  5  4  1  0  0  0  0
  8  4  1  0  0  0  0
 12 11  1  0  0  0  0
 15 14  2  6  0  0  0
 15 13  1  0  0  0  0
 15 18  1  0  0  0  0
 16 15  1  0  0  0  0
 17 16  1  0  0  0  0
 18 19  1  0  0  0  0
 19 20  1  0  0  0  0
 20 25  1  0  0  0  0
 20 21  2  0  0  0  0
 21 26  1  0  0  0  0
 22 21  1  0  0  0  0
 23 22  2  0  0  0  0
 24 19  2  0  0  0  0
 24 23  1  0  0  0  0
 27 23  1  0  0  0  0
 28  5  1  0  0  0  0
 29 28  1  0  0  0  0
 30 29  1  0  0  0  0
 31 30  1  0  0  0  0
 31 29  1  0  0  0  0
M  END
>  <minimizedAffinity>
-4.02682829

>  <minimizedRMSD>
1.30059838

$$$$
