
     RDKit          3D

 45 48  0  0  0  0  0  0  0  0999 V2000
   37.3321   30.1810   51.5219 C   0  0  0  0  0  0  0  0  0  0  0  0
   38.0598   30.8632   50.5201 C   0  0  0  0  0  0  0  0  0  0  0  0
   37.7034   30.6539   49.1976 C   0  0  0  0  0  0  0  0  0  0  0  0
   36.6592   29.7886   48.9834 N   0  0  0  0  0  0  0  0  0  0  0  0
   35.9869   29.1563   49.9391 C   0  0  0  0  0  0  0  0  0  0  0  0
   36.3364   29.3621   51.2273 N   0  0  0  0  0  0  0  0  0  0  0  0
   38.9445   33.2635   49.0112 F   0  0  0  0  0  0  0  0  0  0  0  0
   38.9141   32.4814   47.9500 C   0  0  0  0  0  0  0  0  0  0  0  0
   38.3312   31.2620   48.0472 C   0  0  0  0  0  0  0  0  0  0  0  0
   38.3505   30.5135   46.8735 C   0  0  0  0  0  0  0  0  0  0  0  0
   38.9215   30.9895   45.7126 C   0  0  0  0  0  0  0  0  0  0  0  0
   39.5001   32.2295   45.6602 C   0  0  0  0  0  0  0  0  0  0  0  0
   39.4911   32.9767   46.7980 C   0  0  0  0  0  0  0  0  0  0  0  0
   34.9955   28.3546   49.4487 O   0  0  0  0  0  0  0  0  0  0  0  0
   34.4373   28.6459   48.1786 C   0  0  0  0  0  0  0  0  0  0  0  0
   33.5629   27.5193   47.7017 C   0  0  0  0  0  0  0  0  0  0  0  0
   32.1144   27.8884   47.7376 C   0  0  0  0  0  0  0  0  0  0  0  0
   31.3760   27.4788   48.8306 C   0  0  0  0  0  0  0  0  0  0  0  0
   30.0427   27.7630   48.9634 C   0  0  0  0  0  0  0  0  0  0  0  0
   29.4338   28.4557   48.0120 N   0  0  0  0  0  0  0  0  0  0  0  0
   30.1612   28.8569   46.9395 C   0  0  0  0  0  0  0  0  0  0  0  0
   31.4731   28.5885   46.7885 N   0  0  0  0  0  0  0  0  0  0  0  0
   29.4593   29.6416   45.8675 C   0  0  0  0  0  0  0  0  0  0  0  0
   37.6303   30.3617   52.5483 H   0  0  0  0  0  0  0  0  0  0  0  0
   38.8783   31.5403   50.7037 H   0  0  0  0  0  0  0  0  0  0  0  0
   37.9228   29.5223   46.8012 H   0  0  0  0  0  0  0  0  0  0  0  0
   38.9297   30.3956   44.8045 H   0  0  0  0  0  0  0  0  0  0  0  0
   39.9588   32.6304   44.7549 H   0  0  0  0  0  0  0  0  0  0  0  0
   39.9442   33.9547   46.7674 H   0  0  0  0  0  0  0  0  0  0  0  0
   33.8231   29.5506   48.2697 H   0  0  0  0  0  0  0  0  0  0  0  0
   35.2782   28.7404   47.4482 H   0  0  0  0  0  0  0  0  0  0  0  0
   33.8196   27.1998   46.6620 H   0  0  0  0  0  0  0  0  0  0  0  0
   33.7314   26.6382   48.3282 H   0  0  0  0  0  0  0  0  0  0  0  0
   31.8644   26.9122   49.6135 H   0  0  0  0  0  0  0  0  0  0  0  0
   29.5216   27.4031   49.8621 H   0  0  0  0  0  0  0  0  0  0  0  0
   29.0214   30.5714   46.3105 H   0  0  0  0  0  0  0  0  0  0  0  0
   28.6285   29.0287   45.4302 H   0  0  0  0  0  0  0  0  0  0  0  0
   30.3814   30.0139   44.7529 C   0  0  0  0  0  0  0  0  0  0  0  0
   31.5160   28.9896   44.5452 C   0  0  0  0  0  0  0  0  0  0  0  0
   30.4840   29.2601   43.4964 C   0  0  0  0  0  0  0  0  0  0  0  0
   30.7377   31.0818   44.7905 H   0  0  0  0  0  0  0  0  0  0  0  0
   32.5395   29.3754   44.4657 H   0  0  0  0  0  0  0  0  0  0  0  0
   31.4314   28.0063   45.0512 H   0  0  0  0  0  0  0  0  0  0  0  0
   30.8696   29.8519   42.6166 H   0  0  0  0  0  0  0  0  0  0  0  0
   29.7509   28.5096   43.1873 H   0  0  0  0  0  0  0  0  0  0  0  0
  2  1  2  0
  3  2  1  0
  4  3  2  0
  4  5  1  0
  5  6  2  0
  6  1  1  0
  8  9  2  0
  8  7  1  0
  9  3  1  0
 10  9  1  0
 11 10  2  0
 12 11  1  0
 12 13  2  0
 13  8  1  0
 14  5  1  0
 15 14  1  0
 16 17  1  0
 16 15  1  0
 17 18  2  0
 18 19  1  0
 20 19  2  0
 21 20  1  0
 22 21  2  0
 22 17  1  0
 23 21  1  0
  1 24  1  0
  2 25  1  0
 10 26  1  0
 11 27  1  0
 12 28  1  0
 13 29  1  0
 15 30  1  0
 15 31  1  0
 16 32  1  0
 16 33  1  0
 18 34  1  0
 19 35  1  0
 23 36  1  0
 23 37  1  0
 38 39  1  0
 39 40  1  0
 40 38  1  0
 38 41  1  0
 39 42  1  0
 39 43  1  0
 40 44  1  0
 40 45  1  0
 23 38  1  0
M  ISO  8  24  14  25  14  26  14  27  14  28  14  29  14  30   8  31   8
M  ISO  6  32   8  33   8  34  14  35  14  36   8  37   8
M  END
>  <DihAtoms>  (1) 
20,22,37,38

>  <DihDeg>  (1) 
-179.99874041701412

$$$$
