
 OpenBabel03272509433D

 32 34  0  0  1  0  0  0  0  0999 V2000
   37.0260   30.9200   49.0360 C   0  0  0  0  0  0  0  0  0  0  0  0
   36.7330   31.8020   50.0780 C   0  0  0  0  0  0  0  0  0  0  0  0
   37.3220   33.0550   50.1640 C   0  0  0  0  0  0  0  0  0  0  0  0
   38.2340   33.4520   49.1820 C   0  0  0  0  0  0  0  0  0  0  0  0
   38.5100   32.5800   48.1690 C   0  0  0  0  0  0  0  0  0  0  0  0
   37.9030   31.3330   48.1150 C   0  0  0  0  0  0  0  0  0  0  0  0
   36.0170   31.4620   50.8300 H   0  0  0  0  0  0  0  0  0  0  0  0
   37.0120   33.6370   51.0160 H   0  0  0  0  0  0  0  0  0  0  0  0
   38.6370   34.4340   49.3280 H   0  0  0  0  0  0  0  0  0  0  0  0
   39.2350   33.0280   47.4880 H   0  0  0  0  0  0  0  0  0  0  0  0
   36.4350   29.6000   48.9690 C   0  0  2  0  0  0  0  0  0  0  0  0
   36.9720   29.0760   48.0890 H   0  0  0  0  0  0  0  0  0  0  0  0
   33.5800   30.1170   46.7810 C   0  0  0  0  0  0  0  0  0  0  0  0
   32.9090   28.9090   46.8160 C   0  0  0  0  0  0  0  0  0  0  0  0
   33.3980   27.9160   47.6440 C   0  0  0  0  0  0  0  0  0  0  0  0
   34.5250   28.1600   48.3990 N   0  0  0  0  0  0  0  0  0  0  0  0
   35.1200   29.3330   48.3200 C   0  0  0  0  0  0  0  0  0  0  0  0
   34.6560   30.3170   47.5170 N   0  0  0  0  0  0  0  0  0  0  0  0
   33.2220   30.9230   46.1390 H   0  0  0  0  0  0  0  0  0  0  0  0
   32.0390   28.8130   46.1890 H   0  0  0  0  0  0  0  0  0  0  0  0
   32.8760   26.9690   47.6770 H   0  0  0  0  0  0  0  0  0  0  0  0
   36.8680   28.8180   49.8940 O   0  0  0  0  0  0  0  0  0  0  0  0
   36.5240   28.7800   50.8020 H   0  0  0  0  0  0  0  0  0  0  0  0
   38.3100   30.5000   47.0080 C   0  0  0  0  0  3  0  0  0  0  0  0
   38.9990   30.9480   45.9540 C   0  0  0  0  0  3  0  0  0  0  0  0
   39.5010   30.1810   44.7910 C   0  0  0  0  0  0  0  0  0  0  0  0
   38.8190   29.3390   44.5130 H   0  0  0  0  0  0  0  0  0  0  0  0
   40.5010   29.7420   44.9740 H   0  0  0  0  0  0  0  0  0  0  0  0
   39.6350   31.2630   43.3640 S   0  0  0  0  0  0  0  0  0  0  0  0
   37.9870   31.4740   42.5950 C   0  0  0  0  0  3  0  0  0  0  0  0
   37.0120   30.3940   42.8730 C   0  0  0  0  0  2  0  0  0  0  0  0
   37.5860   30.5430   41.5110 C   0  0  0  0  0  2  0  0  0  0  0  0
  1  2  1  0  0  0  0
  2  3  2  0  0  0  0
  2  7  1  0  0  0  0
  3  8  1  0  0  0  0
  4  9  1  0  0  0  0
  4  3  1  0  0  0  0
  5  4  2  0  0  0  0
  6  5  1  0  0  0  0
  6  1  2  0  0  0  0
 10  5  1  0  0  0  0
 11 12  1  6  0  0  0
 11  1  1  0  0  0  0
 11 22  1  0  0  0  0
 13 14  2  0  0  0  0
 13 18  1  0  0  0  0
 14 15  1  0  0  0  0
 15 21  1  0  0  0  0
 15 16  2  0  0  0  0
 17 16  1  0  0  0  0
 17 11  1  0  0  0  0
 18 17  2  0  0  0  0
 19 13  1  0  0  0  0
 20 14  1  0  0  0  0
 22 23  1  0  0  0  0
 24  6  1  0  0  0  0
 25 24  2  0  0  0  0
 26 28  1  0  0  0  0
 26 25  1  0  0  0  0
 27 26  1  0  0  0  0
 29 26  1  0  0  0  0
 30 31  1  0  0  0  0
 30 29  1  0  0  0  0
 32 30  1  0  0  0  0
 32 31  1  0  0  0  0
M  END
>  <minimizedAffinity>
-5.19563103

>  <minimizedRMSD>
0.327401876

$$$$
