REMARK  Name = 
REMARK  3 active torsions:
REMARK  status: ('A' for Active; 'I' for Inactive)
REMARK    1  A    between atoms: C_3  and  C_9
REMARK    2  A    between atoms: C_7  and  O_14
REMARK    3  A    between atoms: O_14  and  C_21
REMARK                            x       y       z     vdW  Elec       q    Type
REMARK                         _______ _______ _______ _____ _____    ______ ____
ROOT
ATOM      1 CL   UNL     1      38.419  30.604  46.795  0.00  0.00    +0.000 Cl
ATOM      2  C   UNL     1      38.841  32.047  47.681  0.00  0.00    +0.000 A 
ATOM      3  C   UNL     1      38.339  32.199  48.951  0.00  0.00    +0.000 A 
ATOM      4  C   UNL     1      38.703  33.369  49.620  0.00  0.00    +0.000 A 
ATOM      5  C   UNL     1      39.534  34.286  48.971  0.00  0.00    +0.000 A 
ATOM      6  C   UNL     1      40.001  34.083  47.716  0.00  0.00    +0.000 A 
ATOM      7  C   UNL     1      39.655  32.941  47.042  0.00  0.00    +0.000 A 
ATOM      8  H   UNL     1      38.313  33.491  50.609  0.00  0.00    +0.000 HD
ATOM      9  H   UNL     1      39.733  35.147  49.612  0.00  0.00    +0.000 HD
ATOM     10  H   UNL     1      40.618  34.897  47.399  0.00  0.00    +0.000 HD
ENDROOT
BRANCH   3  12
ATOM     11  C   UNL     1      37.930  30.413  50.642  0.00  0.00    +0.000 A 
ATOM     12  C   UNL     1      37.467  31.230  49.622  0.00  0.00    +0.000 A 
ATOM     13  C   UNL     1      36.138  31.102  49.249  0.00  0.00    +0.000 A 
ATOM     14  N   UNL     1      35.373  30.191  49.900  0.00  0.00    +0.000 NA
ATOM     15  C   UNL     1      35.847  29.421  50.877  0.00  0.00    +0.000 A 
ATOM     16  N   UNL     1      37.143  29.521  51.266  0.00  0.00    +0.000 NA
ATOM     17  H   UNL     1      38.972  30.543  50.904  0.00  0.00    +0.000 HD
ATOM     18  H   UNL     1      35.751  31.715  48.468  0.00  0.00    +0.000 HD
ATOM     19  H   UNL     1      35.206  28.704  51.374  0.00  0.00    +0.000 HD
ENDBRANCH   3  12
BRANCH   7  20
ATOM     20  O   UNL     1      40.131  32.743  45.771  0.00  0.00    +0.000 OA
BRANCH  20  21
ATOM     21  C   UNL     1      40.952  33.600  45.067  0.00  0.00    +0.000 C 
ATOM     22  C   UNL     1      40.661  35.092  45.197  0.00  0.00    +0.000 C 
ATOM     23  C   UNL     1      40.411  34.390  43.908  0.00  0.00    +0.000 C 
ENDBRANCH  20  21
ENDBRANCH   7  20
TORSDOF 3
