
 OpenBabel03272509433D

 32 34  0  0  1  0  0  0  0  0999 V2000
   37.0230   30.9200   49.0360 C   0  0  0  0  0  0  0  0  0  0  0  0
   36.7370   31.7960   50.0840 C   0  0  0  0  0  0  0  0  0  0  0  0
   37.3260   33.0500   50.1710 C   0  0  0  0  0  0  0  0  0  0  0  0
   38.2310   33.4510   49.1850 C   0  0  0  0  0  0  0  0  0  0  0  0
   38.5010   32.5830   48.1660 C   0  0  0  0  0  0  0  0  0  0  0  0
   37.8930   31.3370   48.1110 C   0  0  0  0  0  0  0  0  0  0  0  0
   36.0260   31.4530   50.8390 H   0  0  0  0  0  0  0  0  0  0  0  0
   37.0220   33.6280   51.0280 H   0  0  0  0  0  0  0  0  0  0  0  0
   38.6360   34.4330   49.3330 H   0  0  0  0  0  0  0  0  0  0  0  0
   39.2210   33.0350   47.4830 H   0  0  0  0  0  0  0  0  0  0  0  0
   36.4320   29.6000   48.9670 C   0  0  2  0  0  0  0  0  0  0  0  0
   36.9620   29.0810   48.0790 H   0  0  0  0  0  0  0  0  0  0  0  0
   33.5740   30.1090   46.7820 C   0  0  0  0  0  0  0  0  0  0  0  0
   32.8900   28.9090   46.8400 C   0  0  0  0  0  0  0  0  0  0  0  0
   33.3710   27.9260   47.6840 C   0  0  0  0  0  0  0  0  0  0  0  0
   34.5040   28.1710   48.4300 N   0  0  0  0  0  0  0  0  0  0  0  0
   35.1110   29.3360   48.3280 C   0  0  0  0  0  0  0  0  0  0  0  0
   34.6540   30.3100   47.5100 N   0  0  0  0  0  0  0  0  0  0  0  0
   33.2210   30.9080   46.1270 H   0  0  0  0  0  0  0  0  0  0  0  0
   32.0160   28.8120   46.2180 H   0  0  0  0  0  0  0  0  0  0  0  0
   32.8400   26.9860   47.7350 H   0  0  0  0  0  0  0  0  0  0  0  0
   36.8730   28.8130   49.8840 O   0  0  0  0  0  0  0  0  0  0  0  0
   36.5370   28.7700   50.7950 H   0  0  0  0  0  0  0  0  0  0  0  0
   38.2930   30.5090   46.9970 C   0  0  0  0  0  3  0  0  0  0  0  0
   39.0370   30.9450   45.9760 C   0  0  0  0  0  3  0  0  0  0  0  0
   39.5360   30.1790   44.8100 C   0  0  0  0  0  0  0  0  0  0  0  0
   38.8500   29.3420   44.5280 H   0  0  0  0  0  0  0  0  0  0  0  0
   40.5330   29.7330   44.9940 H   0  0  0  0  0  0  0  0  0  0  0  0
   39.6780   31.2650   43.3870 S   0  0  0  0  0  0  0  0  0  0  0  0
   38.0240   31.5340   42.6520 C   0  0  0  0  0  3  0  0  0  0  0  0
   37.7750   32.8950   42.1220 C   0  0  0  0  0  2  0  0  0  0  0  0
   37.0750   32.4370   43.3500 C   0  0  0  0  0  2  0  0  0  0  0  0
  1  2  1  0  0  0  0
  2  3  2  0  0  0  0
  2  7  1  0  0  0  0
  3  8  1  0  0  0  0
  4  9  1  0  0  0  0
  4  3  1  0  0  0  0
  5  4  2  0  0  0  0
  6  5  1  0  0  0  0
  6  1  2  0  0  0  0
 10  5  1  0  0  0  0
 11 12  1  6  0  0  0
 11  1  1  0  0  0  0
 11 22  1  0  0  0  0
 13 14  2  0  0  0  0
 13 18  1  0  0  0  0
 14 15  1  0  0  0  0
 15 21  1  0  0  0  0
 15 16  2  0  0  0  0
 17 16  1  0  0  0  0
 17 11  1  0  0  0  0
 18 17  2  0  0  0  0
 19 13  1  0  0  0  0
 20 14  1  0  0  0  0
 22 23  1  0  0  0  0
 24  6  1  0  0  0  0
 25 24  2  0  0  0  0
 26 28  1  0  0  0  0
 26 25  1  0  0  0  0
 27 26  1  0  0  0  0
 29 26  1  0  0  0  0
 30 32  1  0  0  0  0
 30 29  1  0  0  0  0
 31 30  1  0  0  0  0
 31 32  1  0  0  0  0
M  END
>  <minimizedAffinity>
-5.33432245

>  <minimizedRMSD>
0.282786399

$$$$
