REMARK  Name = 
REMARK  6 active torsions:
REMARK  status: ('A' for Active; 'I' for Inactive)
REMARK    1  A    between atoms: C_1  and  C_4
REMARK    2  A    between atoms: C_3  and  O_11
REMARK    3  A    between atoms: O_11  and  P_13
REMARK    4  A    between atoms: P_13  and  O_14
REMARK    5  A    between atoms: P_13  and  O_15
REMARK    6  A    between atoms: O_15  and  C_25
REMARK                            x       y       z     vdW  Elec       q    Type
REMARK                         _______ _______ _______ _____ _____    ______ ____
ROOT
ATOM      1  C   UNL     1      36.989  31.567  48.672  0.00  0.00    +0.000 C 
ATOM      2  C   UNL     1      36.212  30.924  47.642  0.00  0.00    +0.000 C 
ATOM      3  C   UNL     1      37.173  30.131  48.464  0.00  0.00    +0.000 C 
ATOM      4  H   UNL     1      36.546  31.833  49.694  0.00  0.00    +0.000 HD
ATOM      5  H   UNL     1      35.181  31.177  47.801  0.00  0.00    +0.000 HD
ATOM      6  H   UNL     1      36.518  31.122  46.593  0.00  0.00    +0.000 HD
ATOM      7  H   UNL     1      37.879  29.626  47.829  0.00  0.00    +0.000 HD
ENDROOT
BRANCH   1   8
ATOM      8  C   UNL     1      38.145  32.461  48.324  0.00  0.00    +0.000 A 
ATOM      9  C   UNL     1      38.528  33.386  49.322  0.00  0.00    +0.000 A 
ATOM     10  C   UNL     1      39.594  34.183  48.981  0.00  0.00    +0.000 A 
ATOM     11  N   UNL     1      40.198  34.053  47.768  0.00  0.00    +0.000 NA
ATOM     12  C   UNL     1      39.795  33.149  46.839  0.00  0.00    +0.000 A 
ATOM     13  N   UNL     1      38.735  32.339  47.145  0.00  0.00    +0.000 NA
ATOM     14  N   UNL     1      40.413  32.992  45.594  0.00  0.00    +0.000 N 
ATOM     15  H   UNL     1      38.054  33.494  50.285  0.00  0.00    +0.000 HD
ATOM     16  H   UNL     1      39.922  34.905  49.711  0.00  0.00    +0.000 HD
ATOM     17  H   UNL     1      40.727  33.777  44.988  0.00  0.00    +0.000 HD
ATOM     18  H   UNL     1      40.631  32.078  45.127  0.00  0.00    +0.000 HD
ENDBRANCH   1   8
BRANCH   3  19
ATOM     19  O   UNL     1      36.598  29.303  49.433  0.00  0.00    +0.000 OA
BRANCH  19  21
ATOM     20  O   UNL     1      34.622  27.663  49.685  0.00  0.00    +0.000 OA
ATOM     21  P   UNL     1      35.019  28.952  49.038  0.00  0.00    +0.000 P 
BRANCH  21  22
ATOM     22  O   UNL     1      33.977  30.143  49.742  0.00  0.00    +0.000 OA
ATOM     23  H   UNL     1      33.852  29.934  50.700  0.00  0.00    +0.000 HD
ENDBRANCH  21  22
BRANCH  21  24
ATOM     24  O   UNL     1      34.854  28.960  47.365  0.00  0.00    +0.000 OA
BRANCH  24  25
ATOM     25  C   UNL     1      34.091  27.942  46.869  0.00  0.00    +0.000 C 
ATOM     26  C   UNL     1      34.779  26.888  46.084  0.00  0.00    +0.000 C 
ATOM     27  C   UNL     1      33.981  27.884  45.330  0.00  0.00    +0.000 C 
ENDBRANCH  24  25
ENDBRANCH  21  24
ENDBRANCH  19  21
ENDBRANCH   3  19
TORSDOF 6
