
 OpenBabel03272510043D

 31 33  0  0  0  0  0  0  0  0999 V2000
   36.2160   30.5060   45.4360 C   0  0  0  0  0  0  0  0  0  0  0  0
   35.8270   30.2970   46.7210 C   0  0  0  0  0  0  0  0  0  0  0  0
   34.5420   29.8350   46.9940 C   0  0  0  0  0  0  0  0  0  0  0  0
   33.6190   29.5750   45.9980 C   0  0  0  0  0  0  0  0  0  0  0  0
   33.9740   29.7790   44.6890 C   0  0  0  0  0  0  0  0  0  0  0  0
   35.2480   30.2340   44.4550 C   0  0  0  0  0  0  0  0  0  0  0  0
   34.2590   29.6730   48.0430 H   0  0  0  0  0  0  0  0  0  0  0  0
   32.6650   29.2250   46.3090 H   0  0  0  0  0  0  0  0  0  0  0  0
   33.2280   29.5660   43.9690 H   0  0  0  0  0  0  0  0  0  0  0  0
   35.4030   30.3580   43.3750 H   0  0  0  0  0  0  0  0  0  0  0  0
   38.4550   31.9060   48.7280 C   0  0  0  0  0  0  0  0  0  0  0  0
   37.5880   31.6060   47.6900 C   0  0  0  0  0  0  0  0  0  0  0  0
   36.6900   30.5820   47.8140 C   0  0  0  0  0  0  0  0  0  0  0  0
   36.6930   29.8960   48.9890 N   0  0  0  0  0  0  0  0  0  0  0  0
   37.5260   30.1860   49.9940 C   0  0  0  0  0  0  0  0  0  0  0  0
   38.4030   31.1870   49.8560 N   0  0  0  0  0  0  0  0  0  0  0  0
   39.2110   32.6610   48.7980 H   0  0  0  0  0  0  0  0  0  0  0  0
   37.8070   32.3350   46.9480 H   0  0  0  0  0  0  0  0  0  0  0  0
   37.3690   29.3970   51.2450 C   0  0  0  0  0  0  0  0  0  0  0  0
   37.6560   30.1460   52.3690 F   0  0  0  0  0  0  0  0  0  0  0  0
   35.9650   29.0950   51.4270 F   0  0  0  0  0  0  0  0  0  0  0  0
   37.9450   28.2180   51.2880 F   0  0  0  0  0  0  0  0  0  0  0  0
   37.7690   31.0330   44.9690 S   0  0  0  0  0  0  0  0  0  0  0  0
   37.9390   32.4980   45.2130 O   0  0  0  0  0  0  0  0  0  0  0  0
   37.5410   31.1500   43.4810 O   0  0  0  0  0  0  0  0  0  0  0  0
   39.1140   30.0750   44.6060 C   0  0  0  0  0  0  0  0  0  0  0  0
   39.9820   30.1470   45.2650 H   0  0  0  0  0  0  0  0  0  0  0  0
   38.7830   28.9990   44.8130 H   0  0  0  0  0  0  0  0  0  0  0  0
   39.4670   30.0060   43.1460 C   0  0  0  0  0  3  0  0  0  0  0  0
   39.9270   28.5940   42.7230 C   0  0  0  0  0  2  0  0  0  0  0  0
   40.8620   29.7850   42.7020 C   0  0  0  0  0  2  0  0  0  0  0  0
  1  2  1  0  0  0  0
  2  3  2  0  0  0  0
  2 13  1  0  0  0  0
  3  7  1  0  0  0  0
  4  8  1  0  0  0  0
  4  3  1  0  0  0  0
  5  4  2  0  0  0  0
  6  5  1  0  0  0  0
  6  1  2  0  0  0  0
  9  5  1  0  0  0  0
 10  6  1  0  0  0  0
 11 17  1  0  0  0  0
 11 16  1  0  0  0  0
 12 13  1  0  0  0  0
 12 11  2  0  0  0  0
 13 14  2  0  0  0  0
 14 15  1  0  0  0  0
 15 19  1  0  0  0  0
 16 15  2  0  0  0  0
 18 12  1  0  0  0  0
 19 22  1  0  0  0  0
 19 21  1  0  0  0  0
 19 20  1  0  0  0  0
 23 24  2  0  0  0  0
 23  1  1  0  0  0  0
 25 23  2  0  0  0  0
 26 28  1  0  0  0  0
 26 23  1  0  0  0  0
 26 27  1  0  0  0  0
 29 26  1  0  0  0  0
 30 29  1  0  0  0  0
 31 30  1  0  0  0  0
 31 29  1  0  0  0  0
M  END
>  <minimizedAffinity>
-5.75220013

>  <minimizedRMSD>
1.89214158

$$$$
