
 OpenBabel03272509453D

 13 14  0  0  0  0  0  0  0  0999 V2000
   37.6250   30.4070   51.0000 C   0  0  0  0  0  0  0  0  0  0  0  0
   38.2660   31.2340   50.0750 C   0  0  0  0  0  0  0  0  0  0  0  0
   37.5930   31.5320   48.8800 C   0  0  0  0  0  0  0  0  0  0  0  0
   36.3380   30.9940   48.6800 N   0  0  0  0  0  0  0  0  0  0  0  0
   35.7610   30.1920   49.6180 C   0  0  0  0  0  0  0  0  0  0  0  0
   36.4110   29.9090   50.7640 N   0  0  0  0  0  0  0  0  0  0  0  0
   38.1540   30.1860   51.9150 H   0  0  0  0  0  0  0  0  0  0  0  0
   39.2510   31.6700   50.2070 H   0  0  0  0  0  0  0  0  0  0  0  0
   38.0400   32.1610   48.1390 H   0  0  0  0  0  0  0  0  0  0  0  0
   34.5100   29.7560   49.2320 O   0  0  0  0  0  0  0  0  0  0  0  0
   34.2030   28.3820   49.3860 C   0  0  0  0  0  3  0  0  0  0  0  0
   34.1290   27.4960   48.2000 C   0  0  0  0  0  2  0  0  0  0  0  0
   32.8530   28.0170   48.7740 C   0  0  0  0  0  2  0  0  0  0  0  0
  1  7  1  0  0  0  0
  2  8  1  0  0  0  0
  2  1  2  0  0  0  0
  3  2  1  0  0  0  0
  4  3  2  0  0  0  0
  4  5  1  0  0  0  0
  5  6  2  0  0  0  0
  6  1  1  0  0  0  0
  9  3  1  0  0  0  0
 10 11  1  0  0  0  0
 10  5  1  0  0  0  0
 12 13  1  0  0  0  0
 12 11  1  0  0  0  0
 13 11  1  0  0  0  0
M  END
>  <minimizedAffinity>
-3.63186097

>  <minimizedRMSD>
1.97917557

$$$$
