
 OpenBabel03272509313D

 32 34  0  0  1  0  0  0  0  0999 V2000
   36.1880   30.7320   49.0470 C   0  0  2  0  0  0  0  0  0  0  0  0
   37.1300   31.5900   49.8360 C   0  0  0  0  0  0  0  0  0  0  0  0
   38.0390   30.7910   50.7440 C   0  0  0  0  0  0  0  0  0  0  0  0
   37.2220   29.9130   51.6870 C   0  0  0  0  0  0  0  0  0  0  0  0
   35.9850   29.3320   51.0620 C   0  0  0  0  0  0  0  0  0  0  0  0
   36.1700   29.3180   49.5360 C   0  0  1  0  0  0  0  0  0  0  0  0
   35.1190   31.0800   49.0690 H   0  0  0  0  0  0  0  0  0  0  0  0
   36.4500   32.1370   50.5740 H   0  0  0  0  0  0  0  0  0  0  0  0
   37.6520   32.3710   49.3180 H   0  0  0  0  0  0  0  0  0  0  0  0
   38.8230   30.2330   50.2340 H   0  0  0  0  0  0  0  0  0  0  0  0
   38.5550   31.5270   51.3990 H   0  0  0  0  0  0  0  0  0  0  0  0
   36.9890   30.4070   52.6420 H   0  0  0  0  0  0  0  0  0  0  0  0
   37.8880   29.0310   51.9170 H   0  0  0  0  0  0  0  0  0  0  0  0
   35.7830   28.3000   51.3620 H   0  0  0  0  0  0  0  0  0  0  0  0
   35.1140   30.0080   51.2710 H   0  0  0  0  0  0  0  0  0  0  0  0
   37.1470   28.9020   49.4600 H   0  0  0  0  0  0  0  0  0  0  0  0
   36.5560   30.7260   47.6070 C   0  0  0  0  0  0  0  0  0  0  0  0
   37.8440   31.1700   47.3020 C   0  0  0  0  0  0  0  0  0  0  0  0
   38.2100   31.1670   45.9490 C   0  0  0  0  0  0  0  0  0  0  0  0
   37.3020   30.7360   45.0170 N   0  0  0  0  0  0  0  0  0  0  0  0
   36.0420   30.3060   45.3710 C   0  0  0  0  0  0  0  0  0  0  0  0
   35.7000   30.3120   46.6600 N   0  0  0  0  0  0  0  0  0  0  0  0
   38.6460   31.5200   47.9170 H   0  0  0  0  0  0  0  0  0  0  0  0
   39.1660   31.4820   45.5710 H   0  0  0  0  0  0  0  0  0  0  0  0
   35.3570   29.9730   44.6080 H   0  0  0  0  0  0  0  0  0  0  0  0
   33.8850   28.3070   49.0290 C   0  0  0  0  0  0  0  0  0  0  0  0
   33.1160   28.8420   49.8770 O   0  0  0  0  0  0  0  0  0  0  0  0
   35.2970   28.4400   48.8460 N   0  0  0  0  0  0  0  0  0  0  0  0
   35.6740   27.7770   48.0940 H   0  0  0  0  0  0  0  0  0  0  0  0
   33.0880   27.4040   48.1080 C   0  0  0  0  0  3  0  0  0  0  0  0
   33.5390   27.2350   46.6850 C   0  0  0  0  0  2  0  0  0  0  0  0
   33.7910   26.1190   47.6270 C   0  0  0  0  0  2  0  0  0  0  0  0
  1  7  1  1  0  0  0
  1  6  1  0  0  0  0
  1  2  1  0  0  0  0
  2  8  1  0  0  0  0
  2  3  1  0  0  0  0
  3 11  1  0  0  0  0
  3  4  1  0  0  0  0
  4 13  1  0  0  0  0
  4 12  1  0  0  0  0
  5 15  1  0  0  0  0
  5 14  1  0  0  0  0
  5  4  1  0  0  0  0
  6 16  1  6  0  0  0
  6  5  1  0  0  0  0
  9  2  1  0  0  0  0
 10  3  1  0  0  0  0
 17  1  1  0  0  0  0
 18 17  1  0  0  0  0
 18 23  1  0  0  0  0
 19 18  2  0  0  0  0
 20 21  2  0  0  0  0
 20 19  1  0  0  0  0
 21 22  1  0  0  0  0
 22 17  2  0  0  0  0
 24 19  1  0  0  0  0
 25 21  1  0  0  0  0
 26 27  2  0  0  0  0
 28 26  1  0  0  0  0
 28  6  1  0  0  0  0
 29 28  1  0  0  0  0
 30 26  1  0  0  0  0
 31 32  1  0  0  0  0
 31 30  1  0  0  0  0
 32 30  1  0  0  0  0
M  END
>  <minimizedAffinity>
-5.6696682

>  <minimizedRMSD>
0.326778144

$$$$
