
 OpenBabel03272507533D

 26 28  0  0  0  0  0  0  0  0999 V2000
   39.7210   24.2080   35.3310 C   0  0  0  0  0  0  0  0  0  0  0  0
   38.4010   24.6250   35.6110 C   0  0  0  0  0  0  0  0  0  0  0  0
   37.7600   24.1370   36.7550 C   0  0  0  0  0  0  0  0  0  0  0  0
   38.4520   23.2800   37.5440 N   0  0  0  0  0  0  0  0  0  0  0  0
   39.6880   22.8870   37.2830 C   0  0  0  0  0  0  0  0  0  0  0  0
   40.3160   23.3490   36.1850 N   0  0  0  0  0  0  0  0  0  0  0  0
   36.7590   24.4660   36.9500 H   0  0  0  0  0  0  0  0  0  0  0  0
   40.2560   22.2030   37.9020 H   0  0  0  0  0  0  0  0  0  0  0  0
   37.7890   25.5380   34.6880 N   0  0  0  0  0  0  0  0  0  0  0  0
   37.6220   26.8280   34.9480 C   0  0  0  0  0  0  0  0  0  0  0  0
   37.0220   27.6550   33.9970 C   0  0  0  0  0  0  0  0  0  0  0  0
   36.6510   27.0290   32.8470 C   0  0  0  0  0  0  0  0  0  0  0  0
   36.1070   27.8130   32.0010 O   0  0  0  0  0  0  0  0  0  0  0  0
   36.7960   25.7450   32.5420 N   0  0  0  0  0  0  0  0  0  0  0  0
   37.3830   24.9950   33.5010 C   0  0  0  0  0  0  0  0  0  0  0  0
   37.5350   23.7550   33.2300 O   0  0  0  0  0  0  0  0  0  0  0  0
   37.9510   27.2340   35.8940 H   0  0  0  0  0  0  0  0  0  0  0  0
   36.8880   28.6950   34.2070 H   0  0  0  0  0  0  0  0  0  0  0  0
   36.3700   25.1610   31.2880 C   0  0  0  0  0  3  0  0  0  0  0  0
   35.5240   23.9370   31.2520 C   0  0  0  0  0  2  0  0  0  0  0  0
   34.9350   25.2440   30.8500 C   0  0  0  0  0  2  0  0  0  0  0  0
   41.1170   25.8910   33.9250 C   0  0  0  0  0  0  0  0  0  0  0  0
   41.1820   26.8240   34.7560 O   0  0  0  0  0  0  0  0  0  0  0  0
   40.4610   24.6510   34.2150 N   0  0  0  0  0  0  0  0  0  0  0  0
   41.5940   26.1360   33.0220 H   0  0  0  0  0  0  0  0  0  0  0  0
   40.5950   23.9920   33.4050 H   0  0  0  0  0  0  0  0  0  0  0  0
  1  2  2  0  0  0  0
  1  6  1  0  0  0  0
  2  3  1  0  0  0  0
  3  7  1  0  0  0  0
  3  4  2  0  0  0  0
  5  4  1  0  0  0  0
  5  8  1  0  0  0  0
  6  5  2  0  0  0  0
  9 10  1  0  0  0  0
  9  2  1  0  0  0  0
 10 17  1  0  0  0  0
 11 18  1  0  0  0  0
 11 10  2  0  0  0  0
 12 11  1  0  0  0  0
 13 12  2  0  0  0  0
 14 12  1  0  0  0  0
 14 15  1  0  0  0  0
 15  9  1  0  0  0  0
 16 15  2  0  0  0  0
 19 14  1  0  0  0  0
 20 19  1  0  0  0  0
 21 20  1  0  0  0  0
 21 19  1  0  0  0  0
 22 24  1  0  0  0  0
 22 23  2  0  0  0  0
 24  1  1  0  0  0  0
 25 22  1  0  0  0  0
 26 24  1  0  0  0  0
M  END
>  <minimizedAffinity>
-4.98483658

$$$$

 OpenBabel03272507533D

 26 28  0  0  0  0  0  0  0  0999 V2000
   39.8070   22.6820   36.7540 C   0  0  0  0  0  0  0  0  0  0  0  0
   40.3000   23.4980   35.7120 C   0  0  0  0  0  0  0  0  0  0  0  0
   41.6630   23.4500   35.3960 C   0  0  0  0  0  0  0  0  0  0  0  0
   42.4460   22.6120   36.1180 N   0  0  0  0  0  0  0  0  0  0  0  0
   41.9850   21.8480   37.0960 C   0  0  0  0  0  0  0  0  0  0  0  0
   40.6770   21.8850   37.4100 N   0  0  0  0  0  0  0  0  0  0  0  0
   42.0170   24.0750   34.6010 H   0  0  0  0  0  0  0  0  0  0  0  0
   42.5950   21.1740   37.6840 H   0  0  0  0  0  0  0  0  0  0  0  0
   39.3570   24.3380   35.0300 N   0  0  0  0  0  0  0  0  0  0  0  0
   39.1790   25.6180   35.3310 C   0  0  0  0  0  0  0  0  0  0  0  0
   38.2450   26.3720   34.6190 C   0  0  0  0  0  0  0  0  0  0  0  0
   37.5810   25.6920   33.6460 C   0  0  0  0  0  0  0  0  0  0  0  0
   36.7360   26.4100   33.0160 O   0  0  0  0  0  0  0  0  0  0  0  0
   37.7250   24.4150   33.3090 N   0  0  0  0  0  0  0  0  0  0  0  0
   38.6430   23.7360   34.0330 C   0  0  0  0  0  0  0  0  0  0  0  0
   38.8000   22.5050   33.7280 O   0  0  0  0  0  0  0  0  0  0  0  0
   39.7560   26.0710   36.1240 H   0  0  0  0  0  0  0  0  0  0  0  0
   38.1010   27.4040   34.8610 H   0  0  0  0  0  0  0  0  0  0  0  0
   36.9730   23.7700   32.2550 C   0  0  0  0  0  3  0  0  0  0  0  0
   36.3670   24.5550   31.1440 C   0  0  0  0  0  2  0  0  0  0  0  0
   37.5310   23.6690   30.8630 C   0  0  0  0  0  2  0  0  0  0  0  0
   37.6930   23.4280   38.0710 C   0  0  0  0  0  0  0  0  0  0  0  0
   38.1830   24.4060   38.6770 O   0  0  0  0  0  0  0  0  0  0  0  0
   38.4520   22.6440   37.1420 N   0  0  0  0  0  0  0  0  0  0  0  0
   36.6870   23.2700   38.3300 H   0  0  0  0  0  0  0  0  0  0  0  0
   37.8200   21.9270   36.6990 H   0  0  0  0  0  0  0  0  0  0  0  0
  1 24  1  0  0  0  0
  1  6  1  0  0  0  0
  2  1  2  0  0  0  0
  3  2  1  0  0  0  0
  3  4  2  0  0  0  0
  4  5  1  0  0  0  0
  5  6  2  0  0  0  0
  5  8  1  0  0  0  0
  7  3  1  0  0  0  0
  9 10  1  0  0  0  0
  9  2  1  0  0  0  0
 10 17  1  0  0  0  0
 11 18  1  0  0  0  0
 11 10  2  0  0  0  0
 12 11  1  0  0  0  0
 13 12  2  0  0  0  0
 14 12  1  0  0  0  0
 14 15  1  0  0  0  0
 15  9  1  0  0  0  0
 16 15  2  0  0  0  0
 19 14  1  0  0  0  0
 20 19  1  0  0  0  0
 21 20  1  0  0  0  0
 21 19  1  0  0  0  0
 22 25  1  0  0  0  0
 22 23  2  0  0  0  0
 24 22  1  0  0  0  0
 26 24  1  0  0  0  0
M  END
>  <minimizedAffinity>
-4.86430359

$$$$

 OpenBabel03272507533D

 26 28  0  0  0  0  0  0  0  0999 V2000
   39.5980   22.8250   36.6240 C   0  0  0  0  0  0  0  0  0  0  0  0
   38.4440   23.4490   36.1010 C   0  0  0  0  0  0  0  0  0  0  0  0
   37.5630   24.0950   36.9750 C   0  0  0  0  0  0  0  0  0  0  0  0
   37.8690   24.0860   38.2950 N   0  0  0  0  0  0  0  0  0  0  0  0
   38.9490   23.5010   38.7870 C   0  0  0  0  0  0  0  0  0  0  0  0
   39.8050   22.8760   37.9570 N   0  0  0  0  0  0  0  0  0  0  0  0
   36.6930   24.5630   36.5580 H   0  0  0  0  0  0  0  0  0  0  0  0
   39.2090   23.4830   39.8380 H   0  0  0  0  0  0  0  0  0  0  0  0
   38.2450   23.3810   34.6810 N   0  0  0  0  0  0  0  0  0  0  0  0
   38.7080   24.2970   33.8400 C   0  0  0  0  0  0  0  0  0  0  0  0
   38.4770   24.1590   32.4710 C   0  0  0  0  0  0  0  0  0  0  0  0
   37.7700   23.0510   32.1170 C   0  0  0  0  0  0  0  0  0  0  0  0
   37.5780   22.9560   30.8600 O   0  0  0  0  0  0  0  0  0  0  0  0
   37.2880   22.1090   32.9200 N   0  0  0  0  0  0  0  0  0  0  0  0
   37.5420   22.2970   34.2350 C   0  0  0  0  0  0  0  0  0  0  0  0
   37.0890   21.4040   35.0280 O   0  0  0  0  0  0  0  0  0  0  0  0
   39.2600   25.1460   34.2180 H   0  0  0  0  0  0  0  0  0  0  0  0
   38.8500   24.8970   31.7930 H   0  0  0  0  0  0  0  0  0  0  0  0
   36.5440   20.9580   32.4560 C   0  0  0  0  0  3  0  0  0  0  0  0
   35.3940   20.4160   33.2330 C   0  0  0  0  0  2  0  0  0  0  0  0
   35.1410   21.1080   31.9380 C   0  0  0  0  0  2  0  0  0  0  0  0
   41.7580   22.6130   35.1940 C   0  0  0  0  0  0  0  0  0  0  0  0
   42.1960   23.7760   35.3380 O   0  0  0  0  0  0  0  0  0  0  0  0
   40.5560   22.1620   35.8300 N   0  0  0  0  0  0  0  0  0  0  0  0
   42.3730   22.0380   34.5660 H   0  0  0  0  0  0  0  0  0  0  0  0
   40.4240   21.1370   35.6300 H   0  0  0  0  0  0  0  0  0  0  0  0
  1  6  1  0  0  0  0
  2  1  2  0  0  0  0
  2  3  1  0  0  0  0
  3  4  2  0  0  0  0
  4  5  1  0  0  0  0
  5  8  1  0  0  0  0
  6  5  2  0  0  0  0
  7  3  1  0  0  0  0
  9  2  1  0  0  0  0
 10 17  1  0  0  0  0
 10  9  1  0  0  0  0
 11 10  2  0  0  0  0
 12 11  1  0  0  0  0
 12 14  1  0  0  0  0
 13 12  2  0  0  0  0
 14 15  1  0  0  0  0
 15  9  1  0  0  0  0
 15 16  2  0  0  0  0
 18 11  1  0  0  0  0
 19 14  1  0  0  0  0
 19 20  1  0  0  0  0
 21 19  1  0  0  0  0
 21 20  1  0  0  0  0
 22 23  2  0  0  0  0
 22 24  1  0  0  0  0
 24  1  1  0  0  0  0
 25 22  1  0  0  0  0
 26 24  1  0  0  0  0
M  END
>  <minimizedAffinity>
-4.73688078

$$$$

 OpenBabel03272507533D

 26 28  0  0  0  0  0  0  0  0999 V2000
   39.6650   22.4680   36.5240 C   0  0  0  0  0  0  0  0  0  0  0  0
   40.1050   22.9070   35.2560 C   0  0  0  0  0  0  0  0  0  0  0  0
   41.4490   22.7370   34.9050 C   0  0  0  0  0  0  0  0  0  0  0  0
   42.2660   22.1520   35.8150 N   0  0  0  0  0  0  0  0  0  0  0  0
   41.8550   21.7410   37.0040 C   0  0  0  0  0  0  0  0  0  0  0  0
   40.5650   21.8990   37.3530 N   0  0  0  0  0  0  0  0  0  0  0  0
   41.7640   23.0760   33.9390 H   0  0  0  0  0  0  0  0  0  0  0  0
   42.4930   21.2730   37.7430 H   0  0  0  0  0  0  0  0  0  0  0  0
   39.1310   23.5100   34.3920 N   0  0  0  0  0  0  0  0  0  0  0  0
   38.3660   22.8100   33.5630 C   0  0  0  0  0  0  0  0  0  0  0  0
   37.4370   23.4680   32.7570 C   0  0  0  0  0  0  0  0  0  0  0  0
   37.4040   24.8200   32.9060 C   0  0  0  0  0  0  0  0  0  0  0  0
   36.5450   25.3890   32.1550 O   0  0  0  0  0  0  0  0  0  0  0  0
   38.1470   25.5620   33.7200 N   0  0  0  0  0  0  0  0  0  0  0  0
   39.0280   24.8700   34.4750 C   0  0  0  0  0  0  0  0  0  0  0  0
   39.7550   25.5620   35.2670 O   0  0  0  0  0  0  0  0  0  0  0  0
   38.4660   21.7350   33.5160 H   0  0  0  0  0  0  0  0  0  0  0  0
   36.8200   22.9050   32.0890 H   0  0  0  0  0  0  0  0  0  0  0  0
   38.0450   27.0030   33.8150 C   0  0  0  0  0  3  0  0  0  0  0  0
   36.7690   27.7100   33.5170 C   0  0  0  0  0  2  0  0  0  0  0  0
   37.2600   27.6460   34.9220 C   0  0  0  0  0  2  0  0  0  0  0  0
   37.6930   23.4740   37.8880 C   0  0  0  0  0  0  0  0  0  0  0  0
   38.3010   24.4280   38.4220 O   0  0  0  0  0  0  0  0  0  0  0  0
   38.3310   22.5780   36.9690 N   0  0  0  0  0  0  0  0  0  0  0  0
   36.6900   23.4260   38.1960 H   0  0  0  0  0  0  0  0  0  0  0  0
   37.6150   21.9050   36.5900 H   0  0  0  0  0  0  0  0  0  0  0  0
  1 24  1  0  0  0  0
  1  6  1  0  0  0  0
  2  1  2  0  0  0  0
  3  2  1  0  0  0  0
  3  4  2  0  0  0  0
  4  5  1  0  0  0  0
  5  6  2  0  0  0  0
  5  8  1  0  0  0  0
  7  3  1  0  0  0  0
  9 15  1  0  0  0  0
  9  2  1  0  0  0  0
 10  9  1  0  0  0  0
 11 12  1  0  0  0  0
 11 10  2  0  0  0  0
 12 14  1  0  0  0  0
 13 12  2  0  0  0  0
 14 19  1  0  0  0  0
 14 15  1  0  0  0  0
 15 16  2  0  0  0  0
 17 10  1  0  0  0  0
 18 11  1  0  0  0  0
 19 21  1  0  0  0  0
 20 19  1  0  0  0  0
 20 21  1  0  0  0  0
 22 25  1  0  0  0  0
 22 23  2  0  0  0  0
 24 22  1  0  0  0  0
 26 24  1  0  0  0  0
M  END
>  <minimizedAffinity>
-4.70471001

$$$$

 OpenBabel03272507533D

 26 28  0  0  0  0  0  0  0  0999 V2000
   37.6920   25.3770   34.0810 C   0  0  0  0  0  0  0  0  0  0  0  0
   38.2870   25.6760   35.3260 C   0  0  0  0  0  0  0  0  0  0  0  0
   38.1800   26.9740   35.8380 C   0  0  0  0  0  0  0  0  0  0  0  0
   37.5010   27.8860   35.1000 N   0  0  0  0  0  0  0  0  0  0  0  0
   36.9440   27.6070   33.9330 C   0  0  0  0  0  0  0  0  0  0  0  0
   37.0410   26.3630   33.4290 N   0  0  0  0  0  0  0  0  0  0  0  0
   38.6380   27.1810   36.7850 H   0  0  0  0  0  0  0  0  0  0  0  0
   36.3990   28.3230   33.3300 H   0  0  0  0  0  0  0  0  0  0  0  0
   38.9760   24.6120   36.0000 N   0  0  0  0  0  0  0  0  0  0  0  0
   38.4490   23.9360   37.0140 C   0  0  0  0  0  0  0  0  0  0  0  0
   39.1800   22.9110   37.6150 C   0  0  0  0  0  0  0  0  0  0  0  0
   40.4130   22.6950   37.0810 C   0  0  0  0  0  0  0  0  0  0  0  0
   41.0520   21.7520   37.6530 O   0  0  0  0  0  0  0  0  0  0  0  0
   40.9800   23.3430   36.0700 N   0  0  0  0  0  0  0  0  0  0  0  0
   40.2260   24.3250   35.5280 C   0  0  0  0  0  0  0  0  0  0  0  0
   40.7510   24.9640   34.5530 O   0  0  0  0  0  0  0  0  0  0  0  0
   37.4590   24.1820   37.3690 H   0  0  0  0  0  0  0  0  0  0  0  0
   38.7560   22.3660   38.4320 H   0  0  0  0  0  0  0  0  0  0  0  0
   42.3030   23.0470   35.5630 C   0  0  0  0  0  3  0  0  0  0  0  0
   43.3220   24.1170   35.3870 C   0  0  0  0  0  2  0  0  0  0  0  0
   43.5030   23.1070   36.4660 C   0  0  0  0  0  2  0  0  0  0  0  0
   38.3740   23.6060   32.3040 C   0  0  0  0  0  0  0  0  0  0  0  0
   39.1330   24.3180   31.6090 O   0  0  0  0  0  0  0  0  0  0  0  0
   37.7290   24.1000   33.4840 N   0  0  0  0  0  0  0  0  0  0  0  0
   38.2820   22.6350   31.9140 H   0  0  0  0  0  0  0  0  0  0  0  0
   37.2050   23.3120   33.9450 H   0  0  0  0  0  0  0  0  0  0  0  0
  1  2  1  0  0  0  0
  2  3  2  0  0  0  0
  2  9  1  0  0  0  0
  3  7  1  0  0  0  0
  4  3  1  0  0  0  0
  5  4  2  0  0  0  0
  6  5  1  0  0  0  0
  6  1  2  0  0  0  0
  8  5  1  0  0  0  0
  9 10  1  0  0  0  0
 10 17  1  0  0  0  0
 10 11  2  0  0  0  0
 11 18  1  0  0  0  0
 12 11  1  0  0  0  0
 12 13  2  0  0  0  0
 14 12  1  0  0  0  0
 15  9  1  0  0  0  0
 15 14  1  0  0  0  0
 16 15  2  0  0  0  0
 19 14  1  0  0  0  0
 19 21  1  0  0  0  0
 20 19  1  0  0  0  0
 20 21  1  0  0  0  0
 22 24  1  0  0  0  0
 23 22  2  0  0  0  0
 24 26  1  0  0  0  0
 24  1  1  0  0  0  0
 25 22  1  0  0  0  0
M  END
>  <minimizedAffinity>
-4.56344032

$$$$

 OpenBabel03272507533D

 26 28  0  0  0  0  0  0  0  0999 V2000
   36.5590   28.5190   30.4390 C   0  0  0  0  0  0  0  0  0  0  0  0
   35.8720   27.8780   31.4940 C   0  0  0  0  0  0  0  0  0  0  0  0
   35.0550   28.6400   32.3360 C   0  0  0  0  0  0  0  0  0  0  0  0
   34.9660   29.9700   32.0910 N   0  0  0  0  0  0  0  0  0  0  0  0
   35.6100   30.5720   31.1040 C   0  0  0  0  0  0  0  0  0  0  0  0
   36.4000   29.8500   30.2870 N   0  0  0  0  0  0  0  0  0  0  0  0
   34.5410   28.1350   33.1300 H   0  0  0  0  0  0  0  0  0  0  0  0
   35.5520   31.6320   30.8940 H   0  0  0  0  0  0  0  0  0  0  0  0
   36.0580   26.4630   31.6370 N   0  0  0  0  0  0  0  0  0  0  0  0
   35.3110   25.5660   31.0050 C   0  0  0  0  0  0  0  0  0  0  0  0
   35.5560   24.2060   31.1920 C   0  0  0  0  0  0  0  0  0  0  0  0
   36.5810   23.9190   32.0410 C   0  0  0  0  0  0  0  0  0  0  0  0
   36.7770   22.6680   32.1880 O   0  0  0  0  0  0  0  0  0  0  0  0
   37.3540   24.7780   32.6940 N   0  0  0  0  0  0  0  0  0  0  0  0
   37.0700   26.0810   32.4740 C   0  0  0  0  0  0  0  0  0  0  0  0
   37.8000   26.9280   33.0920 O   0  0  0  0  0  0  0  0  0  0  0  0
   34.5170   25.8930   30.3480 H   0  0  0  0  0  0  0  0  0  0  0  0
   34.9550   23.4830   30.6820 H   0  0  0  0  0  0  0  0  0  0  0  0
   38.4270   24.3840   33.5820 C   0  0  0  0  0  3  0  0  0  0  0  0
   38.5100   24.9040   34.9740 C   0  0  0  0  0  2  0  0  0  0  0  0
   38.1640   23.4740   34.7480 C   0  0  0  0  0  2  0  0  0  0  0  0
   38.8090   27.6180   29.4990 C   0  0  0  0  0  0  0  0  0  0  0  0
   39.5620   27.9800   30.4310 O   0  0  0  0  0  0  0  0  0  0  0  0
   37.3950   27.8430   29.5260 N   0  0  0  0  0  0  0  0  0  0  0  0
   39.3410   27.1460   28.7270 H   0  0  0  0  0  0  0  0  0  0  0  0
   36.9580   27.3910   28.6820 H   0  0  0  0  0  0  0  0  0  0  0  0
  1  2  1  0  0  0  0
  2  9  1  0  0  0  0
  2  3  2  0  0  0  0
  3  7  1  0  0  0  0
  4  3  1  0  0  0  0
  5  4  2  0  0  0  0
  6  1  2  0  0  0  0
  6  5  1  0  0  0  0
  8  5  1  0  0  0  0
  9 15  1  0  0  0  0
 10 11  2  0  0  0  0
 10  9  1  0  0  0  0
 11 12  1  0  0  0  0
 12 13  2  0  0  0  0
 12 14  1  0  0  0  0
 14 19  1  0  0  0  0
 15 14  1  0  0  0  0
 15 16  2  0  0  0  0
 17 10  1  0  0  0  0
 18 11  1  0  0  0  0
 19 21  1  0  0  0  0
 19 20  1  0  0  0  0
 21 20  1  0  0  0  0
 22 24  1  0  0  0  0
 22 23  2  0  0  0  0
 24  1  1  0  0  0  0
 25 22  1  0  0  0  0
 26 24  1  0  0  0  0
M  END
>  <minimizedAffinity>
-4.54828548

$$$$

 OpenBabel03272507533D

 26 28  0  0  0  0  0  0  0  0999 V2000
   38.1790   24.5350   36.4540 C   0  0  0  0  0  0  0  0  0  0  0  0
   38.9000   23.4980   35.8220 C   0  0  0  0  0  0  0  0  0  0  0  0
   39.5820   22.5640   36.6100 C   0  0  0  0  0  0  0  0  0  0  0  0
   39.5130   22.7080   37.9560 N   0  0  0  0  0  0  0  0  0  0  0  0
   38.8390   23.6800   38.5490 C   0  0  0  0  0  0  0  0  0  0  0  0
   38.1790   24.5850   37.8020 N   0  0  0  0  0  0  0  0  0  0  0  0
   40.1230   21.7840   36.1110 H   0  0  0  0  0  0  0  0  0  0  0  0
   38.7730   23.8110   39.6220 H   0  0  0  0  0  0  0  0  0  0  0  0
   38.8870   23.4660   34.3870 N   0  0  0  0  0  0  0  0  0  0  0  0
   39.7030   24.1990   33.6390 C   0  0  0  0  0  0  0  0  0  0  0  0
   39.6330   24.1100   32.2490 C   0  0  0  0  0  0  0  0  0  0  0  0
   38.6960   23.2440   31.7750 C   0  0  0  0  0  0  0  0  0  0  0  0
   38.6600   23.1880   30.5020 O   0  0  0  0  0  0  0  0  0  0  0  0
   37.8600   22.4920   32.4820 N   0  0  0  0  0  0  0  0  0  0  0  0
   37.9730   22.6200   33.8230 C   0  0  0  0  0  0  0  0  0  0  0  0
   37.1790   21.9070   34.5250 O   0  0  0  0  0  0  0  0  0  0  0  0
   40.4170   24.8600   34.1090 H   0  0  0  0  0  0  0  0  0  0  0  0
   40.2910   24.7000   31.6460 H   0  0  0  0  0  0  0  0  0  0  0  0
   36.8900   21.5940   31.8930 C   0  0  0  0  0  3  0  0  0  0  0  0
   35.5140   21.4700   32.4490 C   0  0  0  0  0  2  0  0  0  0  0  0
   35.7130   22.1290   31.1280 C   0  0  0  0  0  2  0  0  0  0  0  0
   37.7310   26.8830   35.4330 C   0  0  0  0  0  0  0  0  0  0  0  0
   38.8270   27.4210   35.7080 O   0  0  0  0  0  0  0  0  0  0  0  0
   37.4470   25.5160   35.7540 N   0  0  0  0  0  0  0  0  0  0  0  0
   37.0770   27.5500   34.9530 H   0  0  0  0  0  0  0  0  0  0  0  0
   36.5030   25.2600   35.3650 H   0  0  0  0  0  0  0  0  0  0  0  0
  1  6  1  0  0  0  0
  2  1  2  0  0  0  0
  2  3  1  0  0  0  0
  3  4  2  0  0  0  0
  4  5  1  0  0  0  0
  5  8  1  0  0  0  0
  6  5  2  0  0  0  0
  7  3  1  0  0  0  0
  9  2  1  0  0  0  0
 10 17  1  0  0  0  0
 10  9  1  0  0  0  0
 11 10  2  0  0  0  0
 12 11  1  0  0  0  0
 12 14  1  0  0  0  0
 13 12  2  0  0  0  0
 14 15  1  0  0  0  0
 15  9  1  0  0  0  0
 15 16  2  0  0  0  0
 18 11  1  0  0  0  0
 19 20  1  0  0  0  0
 19 14  1  0  0  0  0
 21 19  1  0  0  0  0
 21 20  1  0  0  0  0
 22 23  2  0  0  0  0
 22 24  1  0  0  0  0
 24  1  1  0  0  0  0
 25 22  1  0  0  0  0
 26 24  1  0  0  0  0
M  END
>  <minimizedAffinity>
-4.54195356

$$$$

 OpenBabel03272507533D

 26 28  0  0  0  0  0  0  0  0999 V2000
   36.3970   28.4450   33.3440 C   0  0  0  0  0  0  0  0  0  0  0  0
   35.7490   29.6880   33.1740 C   0  0  0  0  0  0  0  0  0  0  0  0
   35.6710   30.2460   31.8930 C   0  0  0  0  0  0  0  0  0  0  0  0
   36.2300   29.5530   30.8710 N   0  0  0  0  0  0  0  0  0  0  0  0
   36.8380   28.3890   31.0290 C   0  0  0  0  0  0  0  0  0  0  0  0
   36.9200   27.8410   32.2560 N   0  0  0  0  0  0  0  0  0  0  0  0
   35.1750   31.1900   31.7850 H   0  0  0  0  0  0  0  0  0  0  0  0
   37.2900   27.8220   30.2250 H   0  0  0  0  0  0  0  0  0  0  0  0
   35.2020   30.3110   34.3450 N   0  0  0  0  0  0  0  0  0  0  0  0
   35.9020   31.1250   35.1260 C   0  0  0  0  0  0  0  0  0  0  0  0
   35.2980   31.6970   36.2470 C   0  0  0  0  0  0  0  0  0  0  0  0
   33.9970   31.3490   36.4380 C   0  0  0  0  0  0  0  0  0  0  0  0
   33.4760   31.8890   37.4690 O   0  0  0  0  0  0  0  0  0  0  0  0
   33.2570   30.5410   35.6860 N   0  0  0  0  0  0  0  0  0  0  0  0
   33.8950   30.0170   34.6150 C   0  0  0  0  0  0  0  0  0  0  0  0
   33.2050   29.2360   33.8770 O   0  0  0  0  0  0  0  0  0  0  0  0
   36.9340   31.3420   34.8920 H   0  0  0  0  0  0  0  0  0  0  0  0
   35.8610   32.3530   36.8760 H   0  0  0  0  0  0  0  0  0  0  0  0
   31.8730   30.2240   35.9640 C   0  0  0  0  0  3  0  0  0  0  0  0
   31.3410   28.8470   35.7740 C   0  0  0  0  0  2  0  0  0  0  0  0
   31.5000   29.3860   37.1540 C   0  0  0  0  0  2  0  0  0  0  0  0
   37.6540   27.3140   35.3190 C   0  0  0  0  0  0  0  0  0  0  0  0
   38.8280   27.5050   34.9300 O   0  0  0  0  0  0  0  0  0  0  0  0
   36.5180   27.7900   34.5870 N   0  0  0  0  0  0  0  0  0  0  0  0
   37.6220   26.7780   36.2210 H   0  0  0  0  0  0  0  0  0  0  0  0
   35.6430   27.5830   35.1350 H   0  0  0  0  0  0  0  0  0  0  0  0
  1 24  1  0  0  0  0
  2  1  1  0  0  0  0
  2  9  1  0  0  0  0
  3  2  2  0  0  0  0
  4  5  2  0  0  0  0
  4  3  1  0  0  0  0
  5  6  1  0  0  0  0
  6  1  2  0  0  0  0
  7  3  1  0  0  0  0
  8  5  1  0  0  0  0
  9 15  1  0  0  0  0
  9 10  1  0  0  0  0
 10 11  2  0  0  0  0
 11 12  1  0  0  0  0
 11 18  1  0  0  0  0
 12 13  2  0  0  0  0
 14 19  1  0  0  0  0
 14 12  1  0  0  0  0
 15 14  1  0  0  0  0
 16 15  2  0  0  0  0
 17 10  1  0  0  0  0
 19 21  1  0  0  0  0
 20 19  1  0  0  0  0
 20 21  1  0  0  0  0
 22 25  1  0  0  0  0
 23 22  2  0  0  0  0
 24 26  1  0  0  0  0
 24 22  1  0  0  0  0
M  END
>  <minimizedAffinity>
-4.53151274

$$$$

 OpenBabel03272507533D

 26 28  0  0  0  0  0  0  0  0999 V2000
   36.7850   27.1850   32.8280 C   0  0  0  0  0  0  0  0  0  0  0  0
   36.9050   26.8390   31.4640 C   0  0  0  0  0  0  0  0  0  0  0  0
   36.5930   27.7930   30.4890 C   0  0  0  0  0  0  0  0  0  0  0  0
   36.1880   29.0150   30.9130 N   0  0  0  0  0  0  0  0  0  0  0  0
   36.0730   29.3400   32.1900 C   0  0  0  0  0  0  0  0  0  0  0  0
   36.3700   28.4310   33.1380 N   0  0  0  0  0  0  0  0  0  0  0  0
   36.6910   27.5120   29.4590 H   0  0  0  0  0  0  0  0  0  0  0  0
   35.7500   30.3100   32.5480 H   0  0  0  0  0  0  0  0  0  0  0  0
   37.3470   25.5080   31.1580 N   0  0  0  0  0  0  0  0  0  0  0  0
   38.6000   25.2190   30.8300 C   0  0  0  0  0  0  0  0  0  0  0  0
   38.9540   23.8980   30.5500 C   0  0  0  0  0  0  0  0  0  0  0  0
   37.9370   22.9990   30.6460 C   0  0  0  0  0  0  0  0  0  0  0  0
   38.2950   21.8030   30.3850 O   0  0  0  0  0  0  0  0  0  0  0  0
   36.6720   23.2400   30.9700 N   0  0  0  0  0  0  0  0  0  0  0  0
   36.3880   24.5360   31.2290 C   0  0  0  0  0  0  0  0  0  0  0  0
   35.1770   24.7940   31.5430 O   0  0  0  0  0  0  0  0  0  0  0  0
   39.3390   26.0050   30.7800 H   0  0  0  0  0  0  0  0  0  0  0  0
   39.9640   23.6640   30.2860 H   0  0  0  0  0  0  0  0  0  0  0  0
   35.6510   22.2180   31.0480 C   0  0  0  0  0  3  0  0  0  0  0  0
   36.0010   20.7910   31.2850 C   0  0  0  0  0  2  0  0  0  0  0  0
   35.3170   21.5640   32.3590 C   0  0  0  0  0  2  0  0  0  0  0  0
   38.0070   26.3950   34.9820 C   0  0  0  0  0  0  0  0  0  0  0  0
   38.6900   27.4210   35.1990 O   0  0  0  0  0  0  0  0  0  0  0  0
   37.0880   26.3040   33.8870 N   0  0  0  0  0  0  0  0  0  0  0  0
   38.1970   25.6410   35.6880 H   0  0  0  0  0  0  0  0  0  0  0  0
   36.5730   25.3880   33.9440 H   0  0  0  0  0  0  0  0  0  0  0  0
  1  6  1  0  0  0  0
  1 24  1  0  0  0  0
  2  1  2  0  0  0  0
  3  4  2  0  0  0  0
  3  2  1  0  0  0  0
  4  5  1  0  0  0  0
  5  8  1  0  0  0  0
  5  6  2  0  0  0  0
  7  3  1  0  0  0  0
  9 15  1  0  0  0  0
  9  2  1  0  0  0  0
 10  9  1  0  0  0  0
 11 12  1  0  0  0  0
 11 10  2  0  0  0  0
 12 14  1  0  0  0  0
 13 12  2  0  0  0  0
 14 19  1  0  0  0  0
 14 15  1  0  0  0  0
 15 16  2  0  0  0  0
 17 10  1  0  0  0  0
 18 11  1  0  0  0  0
 19 20  1  0  0  0  0
 19 21  1  0  0  0  0
 20 21  1  0  0  0  0
 22 23  2  0  0  0  0
 22 25  1  0  0  0  0
 24 26  1  0  0  0  0
 24 22  1  0  0  0  0
M  END
>  <minimizedAffinity>
-4.47607231

$$$$
