
 OpenBabel03272510303D

 22 24  0  0  0  0  0  0  0  0999 V2000
   37.3570   31.3570   49.1910 C   0  0  0  0  0  0  0  0  0  0  0  0
   37.5760   32.6640   49.6340 C   0  0  0  0  0  0  0  0  0  0  0  0
   38.4760   33.4060   48.9010 C   0  0  0  0  0  0  0  0  0  0  0  0
   39.0920   32.8490   47.8090 N   0  0  0  0  0  0  0  0  0  0  0  0
   38.8420   31.5610   47.4170 C   0  0  0  0  0  0  0  0  0  0  0  0
   37.9510   30.7990   48.1300 N   0  0  0  0  0  0  0  0  0  0  0  0
   37.0670   33.0610   50.5000 H   0  0  0  0  0  0  0  0  0  0  0  0
   38.7110   34.4290   49.1660 H   0  0  0  0  0  0  0  0  0  0  0  0
   36.3550   30.5290   49.9530 C   0  0  0  0  0  0  0  0  0  0  0  0
   36.3310   29.0900   49.9150 C   0  0  0  0  0  0  0  0  0  0  0  0
   36.9910   29.7470   51.1140 C   0  0  0  0  0  0  0  0  0  0  0  0
   35.4310   31.1110   50.2500 H   0  0  0  0  0  0  0  0  0  0  0  0
   35.3490   28.5910   50.0720 H   0  0  0  0  0  0  0  0  0  0  0  0
   37.0110   28.5080   49.2620 H   0  0  0  0  0  0  0  0  0  0  0  0
   36.4240   29.7120   52.0730 H   0  0  0  0  0  0  0  0  0  0  0  0
   38.0810   29.7510   51.2190 H   0  0  0  0  0  0  0  0  0  0  0  0
   39.4780   30.9440   46.2440 C   0  0  0  0  0  0  0  0  0  0  0  0
   40.4940   31.3470   46.0590 H   0  0  0  0  0  0  0  0  0  0  0  0
   39.6140   29.8590   46.4340 H   0  0  0  0  0  0  0  0  0  0  0  0
   38.5970   31.0840   45.0250 C   0  0  0  0  0  3  0  0  0  0  0  0
   37.1280   31.0360   45.1250 C   0  0  0  0  0  2  0  0  0  0  0  0
   37.8710   32.3370   44.7630 C   0  0  0  0  0  2  0  0  0  0  0  0
  1  2  1  0  0  0  0
  1  9  1  0  0  0  0
  2  7  1  0  0  0  0
  3  8  1  0  0  0  0
  3  2  2  0  0  0  0
  4  3  1  0  0  0  0
  5  4  2  0  0  0  0
  5  6  1  0  0  0  0
  6  1  2  0  0  0  0
  9 12  1  0  0  0  0
  9 11  1  0  0  0  0
 10  9  1  0  0  0  0
 10 13  1  0  0  0  0
 10 11  1  0  0  0  0
 11 16  1  0  0  0  0
 11 15  1  0  0  0  0
 14 10  1  0  0  0  0
 17 19  1  0  0  0  0
 17  5  1  0  0  0  0
 18 17  1  0  0  0  0
 20 21  1  0  0  0  0
 20 17  1  0  0  0  0
 22 20  1  0  0  0  0
 22 21  1  0  0  0  0
M  END
>  <minimizedAffinity>
-4.75842762

>  <minimizedRMSD>
0.217734024

$$$$
