
 OpenBabel03272507273D

 33 35  0  0  1  0  0  0  0  0999 V2000
   37.7980   31.1170   49.3970 C   0  0  0  0  0  0  0  0  0  0  0  0
   38.6210   31.6740   48.3980 C   0  0  0  0  0  0  0  0  0  0  0  0
   38.1720   31.6070   47.0730 C   0  0  0  0  0  0  0  0  0  0  0  0
   36.9950   31.0230   46.8320 N   0  0  0  0  0  0  0  0  0  0  0  0
   36.2310   30.5010   47.8040 C   0  0  0  0  0  0  0  0  0  0  0  0
   36.6330   30.5500   49.0800 N   0  0  0  0  0  0  0  0  0  0  0  0
   38.9550   32.1460   46.0380 N   0  0  0  0  0  0  0  0  0  0  0  0
   39.8970   33.2640   46.1790 C   0  0  0  0  0  0  0  0  0  0  0  0
   40.3110   33.6570   44.7890 C   0  0  0  0  0  0  0  0  0  0  0  0
   39.2610   33.0540   43.9470 C   0  0  0  0  0  0  0  0  0  0  0  0
   39.0070   31.7390   44.6690 C   0  0  2  0  0  0  0  0  0  0  0  0
   38.2470   31.2270   50.3950 H   0  0  0  0  0  0  0  0  0  0  0  0
   39.5730   32.1490   48.5700 H   0  0  0  0  0  0  0  0  0  0  0  0
   35.2740   30.0220   47.6360 H   0  0  0  0  0  0  0  0  0  0  0  0
   40.7610   32.8300   46.7250 H   0  0  0  0  0  0  0  0  0  0  0  0
   39.4300   34.0690   46.7430 H   0  0  0  0  0  0  0  0  0  0  0  0
   40.1900   34.7750   44.7370 H   0  0  0  0  0  0  0  0  0  0  0  0
   41.3480   33.4220   44.5520 H   0  0  0  0  0  0  0  0  0  0  0  0
   39.5490   32.8860   42.8900 H   0  0  0  0  0  0  0  0  0  0  0  0
   38.3570   33.6820   43.9450 H   0  0  0  0  0  0  0  0  0  0  0  0
   37.8460   30.9970   44.1140 C   0  0  0  0  0  0  0  0  0  0  0  0
   36.7050   31.6840   44.5040 F   0  0  0  0  0  0  0  0  0  0  0  0
   37.7120   29.7110   44.5300 F   0  0  0  0  0  0  0  0  0  0  0  0
   37.9160   31.1180   42.7370 F   0  0  0  0  0  0  0  0  0  0  0  0
   40.2260   30.8990   44.5390 C   0  0  0  0  0  0  0  0  0  0  0  0
   40.1050   30.0770   45.2770 H   0  0  0  0  0  0  0  0  0  0  0  0
   41.0800   31.5210   44.9480 H   0  0  0  0  0  0  0  0  0  0  0  0
   40.4480   30.7770   43.3210 O   0  0  0  0  0  0  0  0  0  0  0  0
   40.8820   29.8030   42.4980 C   0  0  0  0  0  0  0  0  0  0  0  0
   40.1820   28.7790   42.6980 O   0  0  0  0  0  0  0  0  0  0  0  0
   41.6590   29.1210   41.4840 C   0  0  0  0  0  3  0  0  0  0  0  0
   41.1140   28.6170   40.2100 C   0  0  0  0  0  2  0  0  0  0  0  0
   41.8770   29.8650   40.1810 C   0  0  0  0  0  2  0  0  0  0  0  0
  1 12  1  0  0  0  0
  2 13  1  0  0  0  0
  2  1  2  0  0  0  0
  3  2  1  0  0  0  0
  4  3  2  0  0  0  0
  4  5  1  0  0  0  0
  5  6  2  0  0  0  0
  6  1  1  0  0  0  0
  7  8  1  0  0  0  0
  7  3  1  0  0  0  0
  8 15  1  0  0  0  0
  8 16  1  0  0  0  0
  9  8  1  0  0  0  0
 10 11  1  0  0  0  0
 10  9  1  0  0  0  0
 11 21  1  6  0  0  0
 11  7  1  0  0  0  0
 14  5  1  0  0  0  0
 17  9  1  0  0  0  0
 18  9  1  0  0  0  0
 19 10  1  0  0  0  0
 20 10  1  0  0  0  0
 21 22  1  0  0  0  0
 21 23  1  0  0  0  0
 24 21  1  0  0  0  0
 25 11  1  0  0  0  0
 25 27  1  0  0  0  0
 25 26  1  0  0  0  0
 28 25  1  0  0  0  0
 29 30  2  0  0  0  0
 29 28  1  0  0  0  0
 31 29  1  0  0  0  0
 32 31  1  0  0  0  0
 33 32  1  0  0  0  0
 33 31  1  0  0  0  0
M  END
>  <minimizedAffinity>
-4.91009855

>  <minimizedRMSD>
1.00276899

$$$$
