
 OpenBabel03272509433D

 32 34  0  0  1  0  0  0  0  0999 V2000
   37.0570   30.9310   49.0260 C   0  0  0  0  0  0  0  0  0  0  0  0
   36.7820   31.8320   50.0560 C   0  0  0  0  0  0  0  0  0  0  0  0
   37.3800   33.0830   50.1150 C   0  0  0  0  0  0  0  0  0  0  0  0
   38.2840   33.4570   49.1160 C   0  0  0  0  0  0  0  0  0  0  0  0
   38.5430   32.5660   48.1150 C   0  0  0  0  0  0  0  0  0  0  0  0
   37.9270   31.3230   48.0890 C   0  0  0  0  0  0  0  0  0  0  0  0
   36.0720   31.5100   50.8220 H   0  0  0  0  0  0  0  0  0  0  0  0
   37.0830   33.6810   50.9610 H   0  0  0  0  0  0  0  0  0  0  0  0
   38.6950   34.4390   49.2420 H   0  0  0  0  0  0  0  0  0  0  0  0
   39.2630   32.9980   47.4200 H   0  0  0  0  0  0  0  0  0  0  0  0
   36.4570   29.6150   48.9880 C   0  0  2  0  0  0  0  0  0  0  0  0
   36.9620   29.0810   48.0940 H   0  0  0  0  0  0  0  0  0  0  0  0
   33.6400   29.9880   46.7230 C   0  0  0  0  0  0  0  0  0  0  0  0
   32.8720   28.8630   46.9570 C   0  0  0  0  0  0  0  0  0  0  0  0
   33.2820   27.9870   47.9440 C   0  0  0  0  0  0  0  0  0  0  0  0
   34.4310   28.2620   48.6550 N   0  0  0  0  0  0  0  0  0  0  0  0
   35.1200   29.3510   48.3840 C   0  0  0  0  0  0  0  0  0  0  0  0
   34.7330   30.2200   47.4220 N   0  0  0  0  0  0  0  0  0  0  0  0
   33.3450   30.7010   45.9510 H   0  0  0  0  0  0  0  0  0  0  0  0
   31.9920   28.7340   46.3480 H   0  0  0  0  0  0  0  0  0  0  0  0
   32.6850   27.1060   48.1330 H   0  0  0  0  0  0  0  0  0  0  0  0
   36.9150   28.8360   49.9030 O   0  0  0  0  0  0  0  0  0  0  0  0
   36.6010   28.8070   50.8230 H   0  0  0  0  0  0  0  0  0  0  0  0
   38.3160   30.4690   46.9910 C   0  0  0  0  0  3  0  0  0  0  0  0
   38.9370   30.9070   45.8920 C   0  0  0  0  0  3  0  0  0  0  0  0
   39.4160   30.1210   44.7320 C   0  0  0  0  0  0  0  0  0  0  0  0
   39.0490   29.0640   44.7560 H   0  0  0  0  0  0  0  0  0  0  0  0
   40.5200   30.0800   44.6760 H   0  0  0  0  0  0  0  0  0  0  0  0
   38.8210   30.8640   43.2090 S   0  0  0  0  0  0  0  0  0  0  0  0
   37.3330   29.9710   42.6290 C   0  0  0  0  0  3  0  0  0  0  0  0
   36.3420   29.6340   43.6770 C   0  0  0  0  0  2  0  0  0  0  0  0
   37.1470   28.5580   43.0440 C   0  0  0  0  0  2  0  0  0  0  0  0
  1  2  1  0  0  0  0
  2  3  2  0  0  0  0
  2  7  1  0  0  0  0
  3  8  1  0  0  0  0
  4  9  1  0  0  0  0
  4  3  1  0  0  0  0
  5  4  2  0  0  0  0
  6  5  1  0  0  0  0
  6  1  2  0  0  0  0
 10  5  1  0  0  0  0
 11 12  1  6  0  0  0
 11  1  1  0  0  0  0
 11 22  1  0  0  0  0
 13 14  2  0  0  0  0
 13 18  1  0  0  0  0
 14 15  1  0  0  0  0
 15 21  1  0  0  0  0
 15 16  2  0  0  0  0
 17 16  1  0  0  0  0
 17 11  1  0  0  0  0
 18 17  2  0  0  0  0
 19 13  1  0  0  0  0
 20 14  1  0  0  0  0
 22 23  1  0  0  0  0
 24  6  1  0  0  0  0
 25 24  2  0  0  0  0
 26 27  1  0  0  0  0
 26 25  1  0  0  0  0
 28 26  1  0  0  0  0
 29 26  1  0  0  0  0
 30 32  1  0  0  0  0
 30 29  1  0  0  0  0
 30 31  1  0  0  0  0
 32 31  1  0  0  0  0
M  END
>  <minimizedAffinity>
-5.20095682

>  <minimizedRMSD>
0.617651701

$$$$
