
 OpenBabel03272507273D

 33 35  0  0  1  0  0  0  0  0999 V2000
   36.5860   29.6300   49.7980 C   0  0  0  0  0  0  0  0  0  0  0  0
   37.5190   30.2680   48.9540 C   0  0  0  0  0  0  0  0  0  0  0  0
   37.1190   30.5550   47.6430 C   0  0  0  0  0  0  0  0  0  0  0  0
   35.8840   30.2110   47.2680 N   0  0  0  0  0  0  0  0  0  0  0  0
   35.0160   29.6030   48.0930 C   0  0  0  0  0  0  0  0  0  0  0  0
   35.3690   29.3160   49.3520 N   0  0  0  0  0  0  0  0  0  0  0  0
   38.0100   31.1890   46.7610 N   0  0  0  0  0  0  0  0  0  0  0  0
   39.0890   32.1040   47.1540 C   0  0  0  0  0  0  0  0  0  0  0  0
   39.6100   32.7260   45.8900 C   0  0  0  0  0  0  0  0  0  0  0  0
   38.5220   32.4770   44.9250 C   0  0  0  0  0  0  0  0  0  0  0  0
   38.0620   31.0860   45.3370 C   0  0  2  0  0  0  0  0  0  0  0  0
   37.0050   29.4540   50.7990 H   0  0  0  0  0  0  0  0  0  0  0  0
   38.5180   30.5530   49.2370 H   0  0  0  0  0  0  0  0  0  0  0  0
   34.0110   29.3140   47.8130 H   0  0  0  0  0  0  0  0  0  0  0  0
   39.8630   31.4420   47.5990 H   0  0  0  0  0  0  0  0  0  0  0  0
   38.7140   32.8250   47.8780 H   0  0  0  0  0  0  0  0  0  0  0  0
   39.6440   33.8350   46.0850 H   0  0  0  0  0  0  0  0  0  0  0  0
   40.6140   32.4030   45.6170 H   0  0  0  0  0  0  0  0  0  0  0  0
   38.8280   32.5030   43.8610 H   0  0  0  0  0  0  0  0  0  0  0  0
   37.7130   33.2120   45.0540 H   0  0  0  0  0  0  0  0  0  0  0  0
   36.8340   30.6550   44.6200 C   0  0  0  0  0  0  0  0  0  0  0  0
   35.7750   31.3580   45.1770 F   0  0  0  0  0  0  0  0  0  0  0  0
   36.5350   29.3330   44.7000 F   0  0  0  0  0  0  0  0  0  0  0  0
   36.9530   31.1080   43.3170 F   0  0  0  0  0  0  0  0  0  0  0  0
   39.1590   30.1300   45.0360 C   0  0  0  0  0  0  0  0  0  0  0  0
   39.0340   29.2930   45.7560 H   0  0  0  0  0  0  0  0  0  0  0  0
   40.1170   30.6400   45.3600 H   0  0  0  0  0  0  0  0  0  0  0  0
   39.2250   30.0400   43.7960 O   0  0  0  0  0  0  0  0  0  0  0  0
   39.6240   29.1140   42.9020 C   0  0  0  0  0  0  0  0  0  0  0  0
   38.6030   28.5290   42.4610 O   0  0  0  0  0  0  0  0  0  0  0  0
   40.4920   28.3090   42.0700 C   0  0  0  0  0  3  0  0  0  0  0  0
   40.7390   28.5500   40.6370 C   0  0  0  0  0  2  0  0  0  0  0  0
   41.7720   28.9650   41.5880 C   0  0  0  0  0  2  0  0  0  0  0  0
  1 12  1  0  0  0  0
  2 13  1  0  0  0  0
  2  1  2  0  0  0  0
  3  2  1  0  0  0  0
  4  3  2  0  0  0  0
  4  5  1  0  0  0  0
  5  6  2  0  0  0  0
  6  1  1  0  0  0  0
  7  8  1  0  0  0  0
  7  3  1  0  0  0  0
  8 15  1  0  0  0  0
  8 16  1  0  0  0  0
  9 17  1  0  0  0  0
  9  8  1  0  0  0  0
 10 20  1  0  0  0  0
 10 11  1  0  0  0  0
 10  9  1  0  0  0  0
 11 21  1  6  0  0  0
 11  7  1  0  0  0  0
 14  5  1  0  0  0  0
 18  9  1  0  0  0  0
 19 10  1  0  0  0  0
 21 23  1  0  0  0  0
 21 22  1  0  0  0  0
 24 21  1  0  0  0  0
 25 11  1  0  0  0  0
 25 27  1  0  0  0  0
 25 26  1  0  0  0  0
 28 25  1  0  0  0  0
 29 28  1  0  0  0  0
 30 29  2  0  0  0  0
 31 29  1  0  0  0  0
 32 33  1  0  0  0  0
 32 31  1  0  0  0  0
 33 31  1  0  0  0  0
M  END
>  <minimizedAffinity>
-4.44952965

>  <minimizedRMSD>
1.25176072

$$$$
