
 OpenBabel03272502293D

 17 18  0  0  0  0  0  0  0  0999 V2000
   38.7410   23.3750   38.4680 C   0  0  0  0  0  0  0  0  0  0  0  0
   38.0450   24.3560   37.7270 C   0  0  0  0  0  0  0  0  0  0  0  0
   38.4790   24.6110   36.4370 C   0  0  0  0  0  0  0  0  0  0  0  0
   39.5280   23.9250   35.9500 N   0  0  0  0  0  0  0  0  0  0  0  0
   40.1880   22.9930   36.6580 C   0  0  0  0  0  0  0  0  0  0  0  0
   39.7960   22.7140   37.9230 N   0  0  0  0  0  0  0  0  0  0  0  0
   38.3910   23.1870   39.4760 H   0  0  0  0  0  0  0  0  0  0  0  0
   37.2130   24.8780   38.1580 H   0  0  0  0  0  0  0  0  0  0  0  0
   41.0230   22.4940   36.1780 H   0  0  0  0  0  0  0  0  0  0  0  0
   37.7830   25.6000   35.6840 C   0  0  0  0  0  3  0  0  0  0  0  0
   38.0370   26.8760   35.7120 C   0  0  0  0  0  3  0  0  0  0  0  0
   37.2970   27.8870   34.9120 C   0  0  0  0  0  0  0  0  0  0  0  0
   37.9230   28.8120   34.7600 H   0  0  0  0  0  0  0  0  0  0  0  0
   36.4180   28.2660   35.4880 H   0  0  0  0  0  0  0  0  0  0  0  0
   36.8250   27.3550   33.5980 C   0  0  0  0  0  3  0  0  0  0  0  0
   37.4250   27.9230   32.3310 C   0  0  0  0  0  2  0  0  0  0  0  0
   36.0370   28.2500   32.7420 C   0  0  0  0  0  2  0  0  0  0  0  0
  1  7  1  0  0  0  0
  2  8  1  0  0  0  0
  2  1  2  0  0  0  0
  3  2  1  0  0  0  0
  4  3  2  0  0  0  0
  4  5  1  0  0  0  0
  5  6  2  0  0  0  0
  6  1  1  0  0  0  0
  9  5  1  0  0  0  0
 10 11  2  0  0  0  0
 10  3  1  0  0  0  0
 12 14  1  0  0  0  0
 12 11  1  0  0  0  0
 13 12  1  0  0  0  0
 15 12  1  0  0  0  0
 16 17  1  0  0  0  0
 16 15  1  0  0  0  0
 17 15  1  0  0  0  0
M  END
>  <minimizedAffinity>
-3.92458677

$$$$

 OpenBabel03272502293D

 17 18  0  0  0  0  0  0  0  0999 V2000
   39.9620   22.6980   37.3260 C   0  0  0  0  0  0  0  0  0  0  0  0
   39.3420   22.2120   36.1540 C   0  0  0  0  0  0  0  0  0  0  0  0
   37.9690   22.3490   36.0530 C   0  0  0  0  0  0  0  0  0  0  0  0
   37.2920   22.9310   37.0580 N   0  0  0  0  0  0  0  0  0  0  0  0
   37.8850   23.3940   38.1720 C   0  0  0  0  0  0  0  0  0  0  0  0
   39.2260   23.2780   38.3110 N   0  0  0  0  0  0  0  0  0  0  0  0
   41.0380   22.5830   37.3920 H   0  0  0  0  0  0  0  0  0  0  0  0
   39.9240   21.7530   35.3780 H   0  0  0  0  0  0  0  0  0  0  0  0
   37.2530   23.8480   38.9270 H   0  0  0  0  0  0  0  0  0  0  0  0
   37.3350   21.8580   34.8740 C   0  0  0  0  0  3  0  0  0  0  0  0
   36.2740   21.1050   34.8550 C   0  0  0  0  0  3  0  0  0  0  0  0
   35.6310   20.6110   33.6100 C   0  0  0  0  0  0  0  0  0  0  0  0
   34.5470   20.9160   33.5710 H   0  0  0  0  0  0  0  0  0  0  0  0
   35.5810   19.4940   33.6190 H   0  0  0  0  0  0  0  0  0  0  0  0
   36.3420   21.0550   32.3730 C   0  0  0  0  0  3  0  0  0  0  0  0
   35.5710   21.8480   31.3420 C   0  0  0  0  0  2  0  0  0  0  0  0
   35.9530   20.4340   31.1010 C   0  0  0  0  0  2  0  0  0  0  0  0
  1  7  1  0  0  0  0
  1  6  1  0  0  0  0
  2  1  2  0  0  0  0
  3  2  1  0  0  0  0
  3  4  2  0  0  0  0
  4  5  1  0  0  0  0
  5  6  2  0  0  0  0
  5  9  1  0  0  0  0
  8  2  1  0  0  0  0
 10  3  1  0  0  0  0
 11 10  2  0  0  0  0
 12 14  1  0  0  0  0
 12 11  1  0  0  0  0
 13 12  1  0  0  0  0
 15 12  1  0  0  0  0
 16 15  1  0  0  0  0
 17 16  1  0  0  0  0
 17 15  1  0  0  0  0
M  END
>  <minimizedAffinity>
-3.74801564

$$$$

 OpenBabel03272502293D

 17 18  0  0  0  0  0  0  0  0999 V2000
   38.9890   25.6000   35.1930 C   0  0  0  0  0  0  0  0  0  0  0  0
   38.4120   26.8550   35.4880 C   0  0  0  0  0  0  0  0  0  0  0  0
   37.3900   27.2990   34.6670 C   0  0  0  0  0  0  0  0  0  0  0  0
   36.9940   26.5280   33.6380 N   0  0  0  0  0  0  0  0  0  0  0  0
   37.5440   25.3350   33.3600 C   0  0  0  0  0  0  0  0  0  0  0  0
   38.5470   24.8640   34.1380 N   0  0  0  0  0  0  0  0  0  0  0  0
   39.7880   25.2660   35.8440 H   0  0  0  0  0  0  0  0  0  0  0  0
   38.7620   27.4350   36.3200 H   0  0  0  0  0  0  0  0  0  0  0  0
   37.1560   24.7870   32.5090 H   0  0  0  0  0  0  0  0  0  0  0  0
   36.8050   28.5650   34.9570 C   0  0  0  0  0  3  0  0  0  0  0  0
   35.8800   29.1410   34.2460 C   0  0  0  0  0  3  0  0  0  0  0  0
   35.2840   30.4620   34.5740 C   0  0  0  0  0  0  0  0  0  0  0  0
   34.1770   30.3640   34.7660 H   0  0  0  0  0  0  0  0  0  0  0  0
   35.3280   31.1360   33.6840 H   0  0  0  0  0  0  0  0  0  0  0  0
   35.9550   31.1320   35.7270 C   0  0  0  0  0  3  0  0  0  0  0  0
   35.1460   32.0780   36.5850 C   0  0  0  0  0  2  0  0  0  0  0  0
   36.1750   32.5810   35.6420 C   0  0  0  0  0  2  0  0  0  0  0  0
  1  2  1  0  0  0  0
  1  7  1  0  0  0  0
  2  8  1  0  0  0  0
  3 10  1  0  0  0  0
  3  2  2  0  0  0  0
  4  3  1  0  0  0  0
  5  4  2  0  0  0  0
  5  6  1  0  0  0  0
  6  1  2  0  0  0  0
  9  5  1  0  0  0  0
 11 12  1  0  0  0  0
 11 10  2  0  0  0  0
 12 13  1  0  0  0  0
 12 15  1  0  0  0  0
 14 12  1  0  0  0  0
 15 16  1  0  0  0  0
 17 15  1  0  0  0  0
 17 16  1  0  0  0  0
M  END
>  <minimizedAffinity>
-3.67265868

$$$$

 OpenBabel03272502293D

 17 18  0  0  0  0  0  0  0  0999 V2000
   37.4990   26.5500   32.9520 C   0  0  0  0  0  0  0  0  0  0  0  0
   37.0310   25.2560   32.6340 C   0  0  0  0  0  0  0  0  0  0  0  0
   36.0440   25.1510   31.6700 C   0  0  0  0  0  0  0  0  0  0  0  0
   35.5780   26.2690   31.0840 N   0  0  0  0  0  0  0  0  0  0  0  0
   36.0250   27.4980   31.3890 C   0  0  0  0  0  0  0  0  0  0  0  0
   36.9900   27.6450   32.3270 N   0  0  0  0  0  0  0  0  0  0  0  0
   38.2710   26.6170   33.7100 H   0  0  0  0  0  0  0  0  0  0  0  0
   37.4330   24.3930   33.1290 H   0  0  0  0  0  0  0  0  0  0  0  0
   35.5870   28.3380   30.8610 H   0  0  0  0  0  0  0  0  0  0  0  0
   35.5650   23.8490   31.3450 C   0  0  0  0  0  3  0  0  0  0  0  0
   36.2410   22.7470   31.4920 C   0  0  0  0  0  3  0  0  0  0  0  0
   35.7160   21.4000   31.1480 C   0  0  0  0  0  0  0  0  0  0  0  0
   36.0230   21.1060   30.1040 H   0  0  0  0  0  0  0  0  0  0  0  0
   34.6010   21.4240   31.0880 H   0  0  0  0  0  0  0  0  0  0  0  0
   36.1280   20.3490   32.1270 C   0  0  0  0  0  3  0  0  0  0  0  0
   35.1210   19.2910   32.5180 C   0  0  0  0  0  2  0  0  0  0  0  0
   35.5070   20.3730   33.4570 C   0  0  0  0  0  2  0  0  0  0  0  0
  1  7  1  0  0  0  0
  2  1  1  0  0  0  0
  2  8  1  0  0  0  0
  3  2  2  0  0  0  0
  4  5  2  0  0  0  0
  4  3  1  0  0  0  0
  5  6  1  0  0  0  0
  6  1  2  0  0  0  0
  9  5  1  0  0  0  0
 10 11  2  0  0  0  0
 10  3  1  0  0  0  0
 12 11  1  0  0  0  0
 12 15  1  0  0  0  0
 13 12  1  0  0  0  0
 14 12  1  0  0  0  0
 15 16  1  0  0  0  0
 15 17  1  0  0  0  0
 16 17  1  0  0  0  0
M  END
>  <minimizedAffinity>
-3.63981438

$$$$

 OpenBabel03272502293D

 17 18  0  0  0  0  0  0  0  0999 V2000
   37.6590   25.6440   32.7960 C   0  0  0  0  0  0  0  0  0  0  0  0
   37.2530   26.9450   33.1660 C   0  0  0  0  0  0  0  0  0  0  0  0
   36.1960   27.5080   32.4710 C   0  0  0  0  0  0  0  0  0  0  0  0
   35.6090   26.8040   31.4870 N   0  0  0  0  0  0  0  0  0  0  0  0
   35.9970   25.5660   31.1380 C   0  0  0  0  0  0  0  0  0  0  0  0
   37.0270   24.9790   31.7930 N   0  0  0  0  0  0  0  0  0  0  0  0
   38.4870   25.2170   33.3480 H   0  0  0  0  0  0  0  0  0  0  0  0
   37.7530   27.4690   33.9580 H   0  0  0  0  0  0  0  0  0  0  0  0
   35.4600   25.0780   30.3320 H   0  0  0  0  0  0  0  0  0  0  0  0
   35.7820   28.8220   32.8370 C   0  0  0  0  0  3  0  0  0  0  0  0
   35.7610   29.2860   34.0520 C   0  0  0  0  0  3  0  0  0  0  0  0
   35.3280   30.6630   34.4060 C   0  0  0  0  0  0  0  0  0  0  0  0
   34.2060   30.7150   34.5070 H   0  0  0  0  0  0  0  0  0  0  0  0
   35.5400   31.3630   33.5620 H   0  0  0  0  0  0  0  0  0  0  0  0
   35.9870   31.1790   35.6430 C   0  0  0  0  0  3  0  0  0  0  0  0
   35.1580   31.9740   36.6260 C   0  0  0  0  0  2  0  0  0  0  0  0
   36.1730   32.6300   35.7650 C   0  0  0  0  0  2  0  0  0  0  0  0
  1  2  1  0  0  0  0
  1  7  1  0  0  0  0
  2  8  1  0  0  0  0
  3 10  1  0  0  0  0
  3  2  2  0  0  0  0
  4  3  1  0  0  0  0
  5  4  2  0  0  0  0
  5  6  1  0  0  0  0
  6  1  2  0  0  0  0
  9  5  1  0  0  0  0
 10 11  2  0  0  0  0
 11 12  1  0  0  0  0
 12 13  1  0  0  0  0
 12 15  1  0  0  0  0
 14 12  1  0  0  0  0
 15 17  1  0  0  0  0
 15 16  1  0  0  0  0
 17 16  1  0  0  0  0
M  END
>  <minimizedAffinity>
-3.61392331

$$$$

 OpenBabel03272502293D

 17 18  0  0  0  0  0  0  0  0999 V2000
   36.5020   28.3800   31.8300 C   0  0  0  0  0  0  0  0  0  0  0  0
   35.9190   29.3900   32.6260 C   0  0  0  0  0  0  0  0  0  0  0  0
   35.9170   29.2030   33.9970 C   0  0  0  0  0  0  0  0  0  0  0  0
   36.4620   28.0850   34.5080 N   0  0  0  0  0  0  0  0  0  0  0  0
   37.0160   27.1250   33.7480 C   0  0  0  0  0  0  0  0  0  0  0  0
   37.0380   27.2690   32.4020 N   0  0  0  0  0  0  0  0  0  0  0  0
   36.4960   28.5390   30.7580 H   0  0  0  0  0  0  0  0  0  0  0  0
   35.4960   30.2660   32.1740 H   0  0  0  0  0  0  0  0  0  0  0  0
   37.4300   26.2590   34.2520 H   0  0  0  0  0  0  0  0  0  0  0  0
   35.3290   30.2180   34.8070 C   0  0  0  0  0  3  0  0  0  0  0  0
   35.9820   30.9990   35.6170 C   0  0  0  0  0  3  0  0  0  0  0  0
   35.3440   32.0520   36.4480 C   0  0  0  0  0  0  0  0  0  0  0  0
   35.7930   33.0620   36.2270 H   0  0  0  0  0  0  0  0  0  0  0  0
   35.5910   31.8950   37.5270 H   0  0  0  0  0  0  0  0  0  0  0  0
   33.8590   32.0970   36.2900 C   0  0  0  0  0  3  0  0  0  0  0  0
   33.0610   32.9930   37.2100 C   0  0  0  0  0  2  0  0  0  0  0  0
   33.0400   31.5170   37.3620 C   0  0  0  0  0  2  0  0  0  0  0  0
  1  6  2  0  0  0  0
  1  2  1  0  0  0  0
  2  3  2  0  0  0  0
  3  4  1  0  0  0  0
  3 10  1  0  0  0  0
  5  9  1  0  0  0  0
  5  4  2  0  0  0  0
  6  5  1  0  0  0  0
  7  1  1  0  0  0  0
  8  2  1  0  0  0  0
 10 11  2  0  0  0  0
 11 12  1  0  0  0  0
 12 14  1  0  0  0  0
 13 12  1  0  0  0  0
 15 12  1  0  0  0  0
 15 16  1  0  0  0  0
 15 17  1  0  0  0  0
 16 17  1  0  0  0  0
M  END
>  <minimizedAffinity>
-3.56795812

$$$$

 OpenBabel03272502293D

 17 18  0  0  0  0  0  0  0  0999 V2000
   37.4130   28.0990   31.8660 C   0  0  0  0  0  0  0  0  0  0  0  0
   37.8520   27.2560   32.9120 C   0  0  0  0  0  0  0  0  0  0  0  0
   37.2190   27.3750   34.1370 C   0  0  0  0  0  0  0  0  0  0  0  0
   36.2280   28.2720   34.2800 N   0  0  0  0  0  0  0  0  0  0  0  0
   35.8120   29.0710   33.2840 C   0  0  0  0  0  0  0  0  0  0  0  0
   36.4050   28.9880   32.0690 N   0  0  0  0  0  0  0  0  0  0  0  0
   37.9180   27.9960   30.9130 H   0  0  0  0  0  0  0  0  0  0  0  0
   38.6480   26.5550   32.7510 H   0  0  0  0  0  0  0  0  0  0  0  0
   35.0050   29.7630   33.4970 H   0  0  0  0  0  0  0  0  0  0  0  0
   37.6580   26.5290   35.1970 C   0  0  0  0  0  3  0  0  0  0  0  0
   38.2720   25.3930   35.0410 C   0  0  0  0  0  3  0  0  0  0  0  0
   38.7230   24.5320   36.1650 C   0  0  0  0  0  0  0  0  0  0  0  0
   39.6660   24.9410   36.6280 H   0  0  0  0  0  0  0  0  0  0  0  0
   39.0400   23.5320   35.7820 H   0  0  0  0  0  0  0  0  0  0  0  0
   37.6710   24.3420   37.2090 C   0  0  0  0  0  3  0  0  0  0  0  0
   37.9950   24.7130   38.6380 C   0  0  0  0  0  2  0  0  0  0  0  0
   37.8870   23.2940   38.2150 C   0  0  0  0  0  2  0  0  0  0  0  0
  1  6  2  0  0  0  0
  1  2  1  0  0  0  0
  2  3  2  0  0  0  0
  3  4  1  0  0  0  0
  3 10  1  0  0  0  0
  5  9  1  0  0  0  0
  5  4  2  0  0  0  0
  6  5  1  0  0  0  0
  7  1  1  0  0  0  0
  8  2  1  0  0  0  0
 11 10  2  0  0  0  0
 11 12  1  0  0  0  0
 12 13  1  0  0  0  0
 12 15  1  0  0  0  0
 14 12  1  0  0  0  0
 15 17  1  0  0  0  0
 15 16  1  0  0  0  0
 17 16  1  0  0  0  0
M  END
>  <minimizedAffinity>
-3.55326486

$$$$

 OpenBabel03272502293D

 17 18  0  0  0  0  0  0  0  0999 V2000
   36.2130   22.0120   31.2870 C   0  0  0  0  0  0  0  0  0  0  0  0
   37.0020   22.3770   32.4000 C   0  0  0  0  0  0  0  0  0  0  0  0
   36.8150   21.6720   33.5760 C   0  0  0  0  0  0  0  0  0  0  0  0
   35.9040   20.6830   33.6100 N   0  0  0  0  0  0  0  0  0  0  0  0
   35.1550   20.3380   32.5490 C   0  0  0  0  0  0  0  0  0  0  0  0
   35.3070   21.0030   31.3800 N   0  0  0  0  0  0  0  0  0  0  0  0
   36.3700   22.5730   30.3730 H   0  0  0  0  0  0  0  0  0  0  0  0
   37.7170   23.1740   32.3260 H   0  0  0  0  0  0  0  0  0  0  0  0
   34.4470   19.5260   32.6750 H   0  0  0  0  0  0  0  0  0  0  0  0
   37.6060   22.0350   34.7040 C   0  0  0  0  0  3  0  0  0  0  0  0
   38.0290   23.2380   34.9630 C   0  0  0  0  0  3  0  0  0  0  0  0
   38.8500   23.5910   36.1500 C   0  0  0  0  0  0  0  0  0  0  0  0
   39.1620   24.6740   36.1130 H   0  0  0  0  0  0  0  0  0  0  0  0
   39.8240   23.0440   36.1220 H   0  0  0  0  0  0  0  0  0  0  0  0
   38.1620   23.2920   37.4420 C   0  0  0  0  0  3  0  0  0  0  0  0
   37.9900   24.4090   38.4450 C   0  0  0  0  0  2  0  0  0  0  0  0
   38.9690   23.3160   38.6680 C   0  0  0  0  0  2  0  0  0  0  0  0
  1  6  2  0  0  0  0
  1  2  1  0  0  0  0
  2  3  2  0  0  0  0
  3  4  1  0  0  0  0
  3 10  1  0  0  0  0
  5  9  1  0  0  0  0
  5  4  2  0  0  0  0
  6  5  1  0  0  0  0
  7  1  1  0  0  0  0
  8  2  1  0  0  0  0
 10 11  2  0  0  0  0
 11 12  1  0  0  0  0
 12 15  1  0  0  0  0
 13 12  1  0  0  0  0
 14 12  1  0  0  0  0
 15 16  1  0  0  0  0
 15 17  1  0  0  0  0
 16 17  1  0  0  0  0
M  END
>  <minimizedAffinity>
-3.50625253

$$$$

 OpenBabel03272502293D

 17 18  0  0  0  0  0  0  0  0999 V2000
   38.4300   23.7950   37.8600 C   0  0  0  0  0  0  0  0  0  0  0  0
   37.9010   24.5910   36.8190 C   0  0  0  0  0  0  0  0  0  0  0  0
   38.4720   24.4660   35.5650 C   0  0  0  0  0  0  0  0  0  0  0  0
   39.4910   23.6060   35.3900 N   0  0  0  0  0  0  0  0  0  0  0  0
   39.9920   22.8500   36.3820 C   0  0  0  0  0  0  0  0  0  0  0  0
   39.4620   22.9420   37.6240 N   0  0  0  0  0  0  0  0  0  0  0  0
   37.9740   23.9040   38.8360 H   0  0  0  0  0  0  0  0  0  0  0  0
   37.0870   25.2640   37.0070 H   0  0  0  0  0  0  0  0  0  0  0  0
   40.8140   22.1860   36.1420 H   0  0  0  0  0  0  0  0  0  0  0  0
   37.9450   25.2670   34.5110 C   0  0  0  0  0  3  0  0  0  0  0  0
   37.7480   24.8610   33.2910 C   0  0  0  0  0  3  0  0  0  0  0  0
   37.1930   25.7170   32.2100 C   0  0  0  0  0  0  0  0  0  0  0  0
   37.9980   26.3630   31.7590 H   0  0  0  0  0  0  0  0  0  0  0  0
   36.4780   26.4620   32.6380 H   0  0  0  0  0  0  0  0  0  0  0  0
   36.4980   24.9310   31.1460 C   0  0  0  0  0  3  0  0  0  0  0  0
   35.0070   25.1090   30.9730 C   0  0  0  0  0  2  0  0  0  0  0  0
   35.5720   23.8740   31.5710 C   0  0  0  0  0  2  0  0  0  0  0  0
  1  7  1  0  0  0  0
  2  8  1  0  0  0  0
  2  1  2  0  0  0  0
  3  2  1  0  0  0  0
  4  3  2  0  0  0  0
  4  5  1  0  0  0  0
  5  6  2  0  0  0  0
  6  1  1  0  0  0  0
  9  5  1  0  0  0  0
 10  3  1  0  0  0  0
 11 10  2  0  0  0  0
 12 14  1  0  0  0  0
 12 11  1  0  0  0  0
 13 12  1  0  0  0  0
 15 17  1  0  0  0  0
 15 12  1  0  0  0  0
 16 15  1  0  0  0  0
 16 17  1  0  0  0  0
M  END
>  <minimizedAffinity>
-3.48198962

$$$$
