REMARK  Name = 
REMARK  5 active torsions:
REMARK  status: ('A' for Active; 'I' for Inactive)
REMARK    1  A    between atoms: C_1  and  C_8
REMARK    2  A    between atoms: C_3  and  N_12
REMARK    3  A    between atoms: C_10  and  C_13
REMARK    4  A    between atoms: C_17  and  C_19
REMARK    5  A    between atoms: C_19  and  C_32
REMARK                            x       y       z     vdW  Elec       q    Type
REMARK                         _______ _______ _______ _____ _____    ______ ____
ROOT
ATOM      1  C   UNL     1      38.376  31.912  44.495  0.00  0.00    +0.000 C 
ATOM      2  O   UNL     1      37.258  32.479  44.385  0.00  0.00    +0.000 OA
ATOM      3  N   UNL     1      38.940  31.623  45.787  0.00  0.00    +0.000 N 
ATOM      4  H   UNL     1      39.932  31.337  45.940  0.00  0.00    +0.000 HD
ENDROOT
BRANCH   1   5
ATOM      5  C   UNL     1      39.139  31.528  43.300  0.00  0.00    +0.000 A 
ATOM      6  C   UNL     1      40.138  30.602  43.427  0.00  0.00    +0.000 A 
ATOM      7  C   UNL     1      40.851  30.215  42.306  0.00  0.00    +0.000 A 
ATOM      8  C   UNL     1      40.508  30.792  41.122  0.00  0.00    +0.000 A 
ATOM      9  C   UNL     1      39.502  31.734  40.964  0.00  0.00    +0.000 A 
ATOM     10  N   UNL     1      38.842  32.069  42.100  0.00  0.00    +0.000 NA
ATOM     11  H   UNL     1      40.429  30.127  44.373  0.00  0.00    +0.000 HD
ATOM     12  H   UNL     1      41.650  29.496  42.314  0.00  0.00    +0.000 HD
ATOM     13  H   UNL     1      41.037  30.523  40.207  0.00  0.00    +0.000 HD
BRANCH   9  14
ATOM     14  C   UNL     1      39.201  32.325  39.656  0.00  0.00    +0.000 C 
ATOM     15  O   UNL     1      38.801  33.536  39.644  0.00  0.00    +0.000 OA
BRANCH  14  16
ATOM     16  C   UNL     1      39.398  31.435  38.468  0.00  0.00    +0.000 C 
ATOM     17  C   UNL     1      40.217  30.176  38.822  0.00  0.00    +0.000 C 
ATOM     18  C   UNL     1      40.792  31.217  37.959  0.00  0.00    +0.000 C 
ENDBRANCH  14  16
ENDBRANCH   9  14
ENDBRANCH   1   5
BRANCH   3  21
ATOM     19  C   UNL     1      38.432  31.124  48.170  0.00  0.00    +0.000 C 
ATOM     20  C   UNL     1      38.695  32.579  48.085  0.00  0.00    +0.000 C 
ATOM     21  C   UNL     1      38.070  31.740  46.935  0.00  0.00    +0.000 C 
ATOM     22  H   UNL     1      39.372  30.518  48.248  0.00  0.00    +0.000 HD
ATOM     23  H   UNL     1      37.990  33.242  48.637  0.00  0.00    +0.000 HD
ATOM     24  H   UNL     1      39.714  32.947  47.950  0.00  0.00    +0.000 HD
ATOM     25  H   UNL     1      36.990  32.008  46.735  0.00  0.00    +0.000 HD
BRANCH  19  30
ATOM     26  C   UNL     1      35.088  30.251  49.493  0.00  0.00    +0.000 A 
ATOM     27  C   UNL     1      35.421  29.550  50.688  0.00  0.00    +0.000 A 
ATOM     28  C   UNL     1      36.819  29.397  51.030  0.00  0.00    +0.000 A 
ATOM     29  N   UNL     1      37.767  29.928  50.194  0.00  0.00    +0.000 NA
ATOM     30  C   UNL     1      37.365  30.584  49.069  0.00  0.00    +0.000 A 
ATOM     31  N   UNL     1      36.041  30.765  48.687  0.00  0.00    +0.000 NA
ATOM     32  H   UNL     1      34.031  30.336  49.286  0.00  0.00    +0.000 HD
ATOM     33  H   UNL     1      34.651  29.157  51.302  0.00  0.00    +0.000 HD
ATOM     34  H   UNL     1      37.060  28.869  51.930  0.00  0.00    +0.000 HD
ENDBRANCH  19  30
ENDBRANCH   3  21
TORSDOF 5
