
     RDKit          3D

 24 26  0  0  0  0  0  0  0  0999 V2000
   37.3626   30.0672   51.3066 C   0  0  0  0  0  0  0  0  0  0  0  0
   38.0707   30.9775   50.5235 C   0  0  0  0  0  0  0  0  0  0  0  0
   37.8737   30.9405   49.1353 C   0  0  0  0  0  0  0  0  0  0  0  0
   36.9959   30.0120   48.6206 N   0  0  0  0  0  0  0  0  0  0  0  0
   36.3285   29.1445   49.4286 C   0  0  0  0  0  0  0  0  0  0  0  0
   36.5079   29.1694   50.7588 N   0  0  0  0  0  0  0  0  0  0  0  0
   38.5591   31.8435   48.2144 C   0  0  0  0  0  0  0  0  0  0  0  0
   38.9409   31.4612   46.9457 C   0  0  0  0  0  0  0  0  0  0  0  0
   39.5616   32.5538   46.3462 C   0  0  0  0  0  0  0  0  0  0  0  0
   39.5350   33.5442   47.2571 N   0  0  0  0  0  0  0  0  0  0  0  0
   38.9311   33.1322   48.3960 N   0  0  0  0  0  0  0  0  0  0  0  0
   37.5161   30.0975   52.3781 H   0  0  0  0  0  0  0  0  0  0  0  0
   38.7553   31.7033   50.9129 H   0  0  0  0  0  0  0  0  0  0  0  0
   35.6711   28.4693   48.8940 H   0  0  0  0  0  0  0  0  0  0  0  0
   38.8070   30.5067   46.4615 H   0  0  0  0  0  0  0  0  0  0  0  0
   39.9741   32.5967   45.3647 H   0  0  0  0  0  0  0  0  0  0  0  0
   40.0651   34.8704   47.0808 C   0  0  0  0  0  0  0  0  0  0  0  0
   39.5508   35.7520   46.0203 C   0  0  0  0  0  0  0  0  0  0  0  0
   39.1261   36.0584   47.4118 C   0  0  0  0  0  0  0  0  0  0  0  0
   41.1350   35.0405   47.3483 H   0  0  0  0  0  0  0  0  0  0  0  0
   40.2323   36.5123   45.5489 H   0  0  0  0  0  0  0  0  0  0  0  0
   38.7865   35.4121   45.2950 H   0  0  0  0  0  0  0  0  0  0  0  0
   39.5926   36.8958   47.9517 H   0  0  0  0  0  0  0  0  0  0  0  0
   38.0897   35.7896   47.7547 H   0  0  0  0  0  0  0  0  0  0  0  0
  2  1  2  0
  3  2  1  0
  4  3  2  0
  4  5  1  0
  5  6  2  0
  6  1  1  0
  7 11  2  0
  7  3  1  0
  8  7  1  0
  9  8  2  0
  9 10  1  0
 10 11  1  0
  1 12  1  0
  2 13  1  0
  5 14  1  0
  8 15  1  0
  9 16  1  0
 17 18  1  0
 18 19  1  0
 19 17  1  0
 17 20  1  0
 18 21  1  0
 18 22  1  0
 19 23  1  0
 19 24  1  0
 10 17  1  0
M  ISO  5  12  14  13  14  14  14  15  14  16  14
M  END
>  <DihAtoms>  (1) 
8,9,16,17

>  <DihDeg>  (1) 
-14.358585856173477

$$$$
