
 OpenBabel03262522013D

 14 15  0  0  0  0  0  0  0  0999 V2000
   38.7730   24.2410   36.0730 C   0  0  0  0  0  0  0  0  0  0  0  0
   38.1420   24.1490   37.3270 C   0  0  0  0  0  0  0  0  0  0  0  0
   38.7600   23.3620   38.3040 C   0  0  0  0  0  0  0  0  0  0  0  0
   39.9410   22.7290   37.9730 N   0  0  0  0  0  0  0  0  0  0  0  0
   40.5030   22.8510   36.7540 C   0  0  0  0  0  0  0  0  0  0  0  0
   39.9170   23.6110   35.7930 N   0  0  0  0  0  0  0  0  0  0  0  0
   37.2320   24.6250   37.6100 H   0  0  0  0  0  0  0  0  0  0  0  0
   38.3800   23.2120   39.2980 H   0  0  0  0  0  0  0  0  0  0  0  0
   41.4280   22.3040   36.6220 H   0  0  0  0  0  0  0  0  0  0  0  0
   38.1160   25.0620   35.0750 C   0  0  0  0  0  0  0  0  0  0  0  0
   38.1040   24.7790   33.8360 O   0  0  0  0  0  0  0  0  0  0  0  0
   37.3880   26.3210   35.4150 C   0  0  0  0  0  3  0  0  0  0  0  0
   38.3550   27.4920   35.6020 C   0  0  0  0  0  2  0  0  0  0  0  0
   37.3330   27.4430   34.4730 C   0  0  0  0  0  2  0  0  0  0  0  0
  1  2  1  0  0  0  0
  2  7  1  0  0  0  0
  2  3  2  0  0  0  0
  3  8  1  0  0  0  0
  4  3  1  0  0  0  0
  5  4  2  0  0  0  0
  6  1  2  0  0  0  0
  6  5  1  0  0  0  0
  9  5  1  0  0  0  0
 10 12  1  0  0  0  0
 10  1  1  0  0  0  0
 11 10  2  0  0  0  0
 12 13  1  0  0  0  0
 14 12  1  0  0  0  0
 14 13  1  0  0  0  0
M  END
>  <minimizedAffinity>
-3.61482811

$$$$

 OpenBabel03262522013D

 14 15  0  0  0  0  0  0  0  0999 V2000
   38.5130   24.3070   36.0290 C   0  0  0  0  0  0  0  0  0  0  0  0
   39.7220   23.5950   36.1210 C   0  0  0  0  0  0  0  0  0  0  0  0
   39.9860   22.9220   37.3180 C   0  0  0  0  0  0  0  0  0  0  0  0
   39.0450   23.0020   38.3260 N   0  0  0  0  0  0  0  0  0  0  0  0
   37.9010   23.7000   38.1840 C   0  0  0  0  0  0  0  0  0  0  0  0
   37.6290   24.3590   37.0280 N   0  0  0  0  0  0  0  0  0  0  0  0
   40.4660   23.5150   35.3610 H   0  0  0  0  0  0  0  0  0  0  0  0
   40.8710   22.3450   37.5120 H   0  0  0  0  0  0  0  0  0  0  0  0
   37.2480   23.6840   39.0480 H   0  0  0  0  0  0  0  0  0  0  0  0
   38.2600   24.9970   34.7790 C   0  0  0  0  0  0  0  0  0  0  0  0
   37.7510   24.4330   33.7600 O   0  0  0  0  0  0  0  0  0  0  0  0
   38.5770   26.4420   34.5750 C   0  0  0  0  0  3  0  0  0  0  0  0
   37.3960   27.3330   34.9670 C   0  0  0  0  0  2  0  0  0  0  0  0
   38.7250   27.3550   35.7120 C   0  0  0  0  0  2  0  0  0  0  0  0
  1  2  2  0  0  0  0
  1  6  1  0  0  0  0
  2  3  1  0  0  0  0
  3  8  1  0  0  0  0
  3  4  2  0  0  0  0
  5  4  1  0  0  0  0
  5  9  1  0  0  0  0
  6  5  2  0  0  0  0
  7  2  1  0  0  0  0
 10  1  1  0  0  0  0
 11 10  2  0  0  0  0
 12 10  1  0  0  0  0
 12 13  1  0  0  0  0
 12 14  1  0  0  0  0
 13 14  1  0  0  0  0
M  END
>  <minimizedAffinity>
-3.599828

$$$$

 OpenBabel03262522013D

 14 15  0  0  0  0  0  0  0  0999 V2000
   39.0920   24.7080   35.5330 C   0  0  0  0  0  0  0  0  0  0  0  0
   38.5410   25.9960   35.4100 C   0  0  0  0  0  0  0  0  0  0  0  0
   39.3900   27.0230   34.9850 C   0  0  0  0  0  0  0  0  0  0  0  0
   40.7060   26.7040   34.7160 N   0  0  0  0  0  0  0  0  0  0  0  0
   41.1820   25.4510   34.8500 C   0  0  0  0  0  0  0  0  0  0  0  0
   40.3720   24.4420   35.2630 N   0  0  0  0  0  0  0  0  0  0  0  0
   37.5310   26.2700   35.6100 H   0  0  0  0  0  0  0  0  0  0  0  0
   39.0910   28.0460   34.8520 H   0  0  0  0  0  0  0  0  0  0  0  0
   42.2310   25.3340   34.6090 H   0  0  0  0  0  0  0  0  0  0  0  0
   38.1950   23.6580   35.9760 C   0  0  0  0  0  0  0  0  0  0  0  0
   37.7790   22.7280   35.2150 O   0  0  0  0  0  0  0  0  0  0  0  0
   37.6750   23.5740   37.3730 C   0  0  0  0  0  3  0  0  0  0  0  0
   38.7850   23.2030   38.3600 C   0  0  0  0  0  2  0  0  0  0  0  0
   38.0740   24.5500   38.3920 C   0  0  0  0  0  2  0  0  0  0  0  0
  1 10  1  0  0  0  0
  2  1  1  0  0  0  0
  2  7  1  0  0  0  0
  3  2  2  0  0  0  0
  4  5  2  0  0  0  0
  4  3  1  0  0  0  0
  5  6  1  0  0  0  0
  6  1  2  0  0  0  0
  8  3  1  0  0  0  0
  9  5  1  0  0  0  0
 10 12  1  0  0  0  0
 11 10  2  0  0  0  0
 12 13  1  0  0  0  0
 12 14  1  0  0  0  0
 13 14  1  0  0  0  0
M  END
>  <minimizedAffinity>
-3.45014644

$$$$

 OpenBabel03262522013D

 14 15  0  0  0  0  0  0  0  0999 V2000
   39.9140   22.9170   37.0860 C   0  0  0  0  0  0  0  0  0  0  0  0
   39.3690   23.3920   35.8810 C   0  0  0  0  0  0  0  0  0  0  0  0
   38.1370   24.0510   35.9440 C   0  0  0  0  0  0  0  0  0  0  0  0
   37.5410   24.1890   37.1820 N   0  0  0  0  0  0  0  0  0  0  0  0
   38.1080   23.7130   38.3080 C   0  0  0  0  0  0  0  0  0  0  0  0
   39.3040   23.0710   38.2640 N   0  0  0  0  0  0  0  0  0  0  0  0
   39.8060   23.3010   34.9130 H   0  0  0  0  0  0  0  0  0  0  0  0
   37.6180   24.4590   35.0970 H   0  0  0  0  0  0  0  0  0  0  0  0
   37.5390   23.8850   39.2130 H   0  0  0  0  0  0  0  0  0  0  0  0
   41.1920   22.2370   36.9970 C   0  0  0  0  0  0  0  0  0  0  0  0
   41.5290   21.2800   37.7630 O   0  0  0  0  0  0  0  0  0  0  0  0
   42.2340   22.6010   35.9910 C   0  0  0  0  0  3  0  0  0  0  0  0
   43.1940   23.6590   36.5390 C   0  0  0  0  0  2  0  0  0  0  0  0
   43.6410   22.2440   36.1930 C   0  0  0  0  0  2  0  0  0  0  0  0
  1  6  1  0  0  0  0
  2  3  1  0  0  0  0
  2  1  2  0  0  0  0
  3  4  2  0  0  0  0
  4  5  1  0  0  0  0
  5  9  1  0  0  0  0
  6  5  2  0  0  0  0
  7  2  1  0  0  0  0
  8  3  1  0  0  0  0
 10  1  1  0  0  0  0
 10 11  2  0  0  0  0
 12 14  1  0  0  0  0
 12 13  1  0  0  0  0
 12 10  1  0  0  0  0
 14 13  1  0  0  0  0
M  END
>  <minimizedAffinity>
-3.4167676

$$$$

 OpenBabel03262522013D

 14 15  0  0  0  0  0  0  0  0999 V2000
   39.6980   23.9540   35.8800 C   0  0  0  0  0  0  0  0  0  0  0  0
   39.4070   23.1480   36.9950 C   0  0  0  0  0  0  0  0  0  0  0  0
   40.4520   22.3930   37.5370 C   0  0  0  0  0  0  0  0  0  0  0  0
   41.6940   22.4880   36.9410 N   0  0  0  0  0  0  0  0  0  0  0  0
   41.9180   23.2770   35.8720 C   0  0  0  0  0  0  0  0  0  0  0  0
   40.9140   24.0170   35.3330 N   0  0  0  0  0  0  0  0  0  0  0  0
   38.4600   23.0560   37.4750 H   0  0  0  0  0  0  0  0  0  0  0  0
   40.3580   21.7410   38.3850 H   0  0  0  0  0  0  0  0  0  0  0  0
   42.9350   23.2620   35.4990 H   0  0  0  0  0  0  0  0  0  0  0  0
   38.6000   24.7280   35.3350 C   0  0  0  0  0  0  0  0  0  0  0  0
   37.9860   24.4140   34.2670 O   0  0  0  0  0  0  0  0  0  0  0  0
   38.0870   25.9720   35.9830 C   0  0  0  0  0  3  0  0  0  0  0  0
   38.9410   27.1870   35.6130 C   0  0  0  0  0  2  0  0  0  0  0  0
   37.4840   27.0470   35.1890 C   0  0  0  0  0  2  0  0  0  0  0  0
  1  2  1  0  0  0  0
  2  7  1  0  0  0  0
  2  3  2  0  0  0  0
  3  8  1  0  0  0  0
  4  3  1  0  0  0  0
  5  4  2  0  0  0  0
  6  5  1  0  0  0  0
  6  1  2  0  0  0  0
  9  5  1  0  0  0  0
 10  1  1  0  0  0  0
 10 12  1  0  0  0  0
 11 10  2  0  0  0  0
 13 12  1  0  0  0  0
 14 13  1  0  0  0  0
 14 12  1  0  0  0  0
M  END
>  <minimizedAffinity>
-3.38100934

$$$$

 OpenBabel03262522013D

 14 15  0  0  0  0  0  0  0  0999 V2000
   37.1020   25.4390   32.6760 C   0  0  0  0  0  0  0  0  0  0  0  0
   36.5760   26.6460   32.1830 C   0  0  0  0  0  0  0  0  0  0  0  0
   35.5670   26.5640   31.2170 C   0  0  0  0  0  0  0  0  0  0  0  0
   35.1590   25.3080   30.8140 N   0  0  0  0  0  0  0  0  0  0  0  0
   35.6990   24.1810   31.3200 C   0  0  0  0  0  0  0  0  0  0  0  0
   36.6790   24.2430   32.2590 N   0  0  0  0  0  0  0  0  0  0  0  0
   36.8700   27.6270   32.4750 H   0  0  0  0  0  0  0  0  0  0  0  0
   35.0850   27.4110   30.7650 H   0  0  0  0  0  0  0  0  0  0  0  0
   35.2910   23.2620   30.9200 H   0  0  0  0  0  0  0  0  0  0  0  0
   38.1470   25.5470   33.6760 C   0  0  0  0  0  0  0  0  0  0  0  0
   38.6430   24.5440   34.2790 O   0  0  0  0  0  0  0  0  0  0  0  0
   38.7390   26.8540   34.0900 C   0  0  0  0  0  3  0  0  0  0  0  0
   38.2050   27.3020   35.4530 C   0  0  0  0  0  2  0  0  0  0  0  0
   39.6680   26.9420   35.2200 C   0  0  0  0  0  2  0  0  0  0  0  0
  1 10  1  0  0  0  0
  2  7  1  0  0  0  0
  2  1  2  0  0  0  0
  3  2  1  0  0  0  0
  4  3  2  0  0  0  0
  4  5  1  0  0  0  0
  5  6  2  0  0  0  0
  6  1  1  0  0  0  0
  8  3  1  0  0  0  0
  9  5  1  0  0  0  0
 10 12  1  0  0  0  0
 10 11  2  0  0  0  0
 12 14  1  0  0  0  0
 12 13  1  0  0  0  0
 14 13  1  0  0  0  0
M  END
>  <minimizedAffinity>
-3.30804753

$$$$

 OpenBabel03262522013D

 14 15  0  0  0  0  0  0  0  0999 V2000
   37.0080   25.6370   32.5780 C   0  0  0  0  0  0  0  0  0  0  0  0
   37.3510   24.2750   32.6240 C   0  0  0  0  0  0  0  0  0  0  0  0
   36.6010   23.3920   31.8390 C   0  0  0  0  0  0  0  0  0  0  0  0
   35.5780   23.9170   31.0750 N   0  0  0  0  0  0  0  0  0  0  0  0
   35.2910   25.2340   31.0690 C   0  0  0  0  0  0  0  0  0  0  0  0
   36.0090   26.1040   31.8250 N   0  0  0  0  0  0  0  0  0  0  0  0
   38.1350   23.8420   33.2020 H   0  0  0  0  0  0  0  0  0  0  0  0
   36.7640   22.3320   31.7870 H   0  0  0  0  0  0  0  0  0  0  0  0
   34.4650   25.5170   30.4280 H   0  0  0  0  0  0  0  0  0  0  0  0
   37.7980   26.5330   33.3990 C   0  0  0  0  0  0  0  0  0  0  0  0
   38.8740   27.0810   33.0000 O   0  0  0  0  0  0  0  0  0  0  0  0
   37.4180   26.8970   34.7960 C   0  0  0  0  0  3  0  0  0  0  0  0
   38.0430   25.9390   35.8130 C   0  0  0  0  0  2  0  0  0  0  0  0
   38.4100   27.4170   35.7420 C   0  0  0  0  0  2  0  0  0  0  0  0
  1  2  1  0  0  0  0
  1 10  1  0  0  0  0
  2  7  1  0  0  0  0
  3  2  2  0  0  0  0
  4  3  1  0  0  0  0
  5  4  2  0  0  0  0
  5  6  1  0  0  0  0
  6  1  2  0  0  0  0
  8  3  1  0  0  0  0
  9  5  1  0  0  0  0
 10 12  1  0  0  0  0
 11 10  2  0  0  0  0
 12 14  1  0  0  0  0
 12 13  1  0  0  0  0
 14 13  1  0  0  0  0
M  END
>  <minimizedAffinity>
-3.30018806

$$$$

 OpenBabel03262522013D

 14 15  0  0  0  0  0  0  0  0999 V2000
   38.3360   24.8580   35.8350 C   0  0  0  0  0  0  0  0  0  0  0  0
   38.2820   26.2060   36.2320 C   0  0  0  0  0  0  0  0  0  0  0  0
   37.9240   27.1500   35.2640 C   0  0  0  0  0  0  0  0  0  0  0  0
   37.6520   26.6970   33.9890 N   0  0  0  0  0  0  0  0  0  0  0  0
   37.7190   25.3910   33.6610 C   0  0  0  0  0  0  0  0  0  0  0  0
   38.0640   24.4610   34.5890 N   0  0  0  0  0  0  0  0  0  0  0  0
   38.4860   26.5840   37.2070 H   0  0  0  0  0  0  0  0  0  0  0  0
   37.8470   28.2070   35.4410 H   0  0  0  0  0  0  0  0  0  0  0  0
   37.4820   25.1670   32.6290 H   0  0  0  0  0  0  0  0  0  0  0  0
   38.7080   23.8970   36.8540 C   0  0  0  0  0  0  0  0  0  0  0  0
   38.3370   23.9850   38.0670 O   0  0  0  0  0  0  0  0  0  0  0  0
   39.5660   22.7080   36.5700 C   0  0  0  0  0  3  0  0  0  0  0  0
   41.0250   23.1130   36.3450 C   0  0  0  0  0  2  0  0  0  0  0  0
   40.5830   22.2600   37.5270 C   0  0  0  0  0  2  0  0  0  0  0  0
  1  2  1  0  0  0  0
  1 10  1  0  0  0  0
  2  7  1  0  0  0  0
  3  8  1  0  0  0  0
  3  2  2  0  0  0  0
  4  3  1  0  0  0  0
  5  4  2  0  0  0  0
  5  6  1  0  0  0  0
  6  1  2  0  0  0  0
  9  5  1  0  0  0  0
 10 11  2  0  0  0  0
 12 10  1  0  0  0  0
 12 14  1  0  0  0  0
 13 12  1  0  0  0  0
 13 14  1  0  0  0  0
M  END
>  <minimizedAffinity>
-3.28308702

$$$$

 OpenBabel03262522013D

 14 15  0  0  0  0  0  0  0  0999 V2000
   38.5970   24.9080   35.7050 C   0  0  0  0  0  0  0  0  0  0  0  0
   38.5840   23.8710   34.7570 C   0  0  0  0  0  0  0  0  0  0  0  0
   38.0400   22.6430   35.1490 C   0  0  0  0  0  0  0  0  0  0  0  0
   37.5550   22.5340   36.4370 N   0  0  0  0  0  0  0  0  0  0  0  0
   37.5930   23.5620   37.3080 C   0  0  0  0  0  0  0  0  0  0  0  0
   38.1170   24.7610   36.9430 N   0  0  0  0  0  0  0  0  0  0  0  0
   38.9500   23.9270   33.7570 H   0  0  0  0  0  0  0  0  0  0  0  0
   37.9720   21.7760   34.5190 H   0  0  0  0  0  0  0  0  0  0  0  0
   37.1820   23.3460   38.2860 H   0  0  0  0  0  0  0  0  0  0  0  0
   39.1650   26.1720   35.2770 C   0  0  0  0  0  0  0  0  0  0  0  0
   40.4110   26.3540   35.1040 O   0  0  0  0  0  0  0  0  0  0  0  0
   38.3330   27.3800   34.9990 C   0  0  0  0  0  3  0  0  0  0  0  0
   37.8120   27.3800   33.5590 C   0  0  0  0  0  2  0  0  0  0  0  0
   36.8900   27.2710   34.7670 C   0  0  0  0  0  2  0  0  0  0  0  0
  1  6  1  0  0  0  0
  2  3  1  0  0  0  0
  2  1  2  0  0  0  0
  3  4  2  0  0  0  0
  4  5  1  0  0  0  0
  5  9  1  0  0  0  0
  6  5  2  0  0  0  0
  7  2  1  0  0  0  0
  8  3  1  0  0  0  0
 10  1  1  0  0  0  0
 11 10  2  0  0  0  0
 12 10  1  0  0  0  0
 13 14  1  0  0  0  0
 13 12  1  0  0  0  0
 14 12  1  0  0  0  0
M  END
>  <minimizedAffinity>
-3.20643139

$$$$
