REMARK  Name = 
REMARK  5 active torsions:
REMARK  status: ('A' for Active; 'I' for Inactive)
REMARK    1  A    between atoms: C_1  and  S_17
REMARK    2  A    between atoms: C_2  and  C_9
REMARK    3  A    between atoms: C_11  and  C_13
REMARK    4  A    between atoms: S_17  and  C_20
REMARK    5  A    between atoms: C_20  and  C_29
REMARK                            x       y       z     vdW  Elec       q    Type
REMARK                         _______ _______ _______ _____ _____    ______ ____
ROOT
ATOM      1  C   UNL     1      38.173  31.241  44.932  0.00  0.00    +0.000 A 
ATOM      2  C   UNL     1      37.351  30.937  45.971  0.00  0.00    +0.000 A 
ATOM      3  C   UNL     1      36.114  30.346  45.731  0.00  0.00    +0.000 A 
ATOM      4  C   UNL     1      35.667  30.049  44.457  0.00  0.00    +0.000 A 
ATOM      5  C   UNL     1      36.467  30.345  43.383  0.00  0.00    +0.000 A 
ATOM      6  C   UNL     1      37.681  30.926  43.655  0.00  0.00    +0.000 A 
ATOM      7  H   UNL     1      35.474  30.110  46.592  0.00  0.00    +0.000 HD
ATOM      8  H   UNL     1      34.708  29.598  44.379  0.00  0.00    +0.000 HD
ATOM      9  H   UNL     1      36.075  30.098  42.432  0.00  0.00    +0.000 HD
ATOM     10  H   UNL     1      38.219  31.114  42.716  0.00  0.00    +0.000 HD
ENDROOT
BRANCH   2  13
ATOM     11  C   UNL     1      38.683  32.782  48.860  0.00  0.00    +0.000 A 
ATOM     12  C   UNL     1      38.313  32.447  47.568  0.00  0.00    +0.000 A 
ATOM     13  C   UNL     1      37.703  31.250  47.312  0.00  0.00    +0.000 A 
ATOM     14  N   UNL     1      37.481  30.430  48.375  0.00  0.00    +0.000 NA
ATOM     15  C   UNL     1      37.833  30.753  49.624  0.00  0.00    +0.000 A 
ATOM     16  N   UNL     1      38.434  31.925  49.858  0.00  0.00    +0.000 NA
ATOM     17  H   UNL     1      39.165  33.663  49.232  0.00  0.00    +0.000 HD
ATOM     18  H   UNL     1      38.583  33.297  46.990  0.00  0.00    +0.000 HD
BRANCH  15  19
ATOM     19  C   UNL     1      37.464  29.790  50.696  0.00  0.00    +0.000 C 
ATOM     20  F   UNL     1      37.715  30.296  51.956  0.00  0.00    +0.000 F 
ATOM     21  F   UNL     1      36.025  29.639  50.705  0.00  0.00    +0.000 F 
ATOM     22  F   UNL     1      37.902  28.558  50.573  0.00  0.00    +0.000 F 
ENDBRANCH  15  19
ENDBRANCH   2  13
BRANCH   1  23
ATOM     23  S   UNL     1      39.724  31.930  45.096  0.00  0.00    +0.000 S 
ATOM     24  O   UNL     1      39.683  33.410  44.888  0.00  0.00    +0.000 OA
ATOM     25  O   UNL     1      40.275  31.598  43.730  0.00  0.00    +0.000 OA
BRANCH  23  26
ATOM     26  C   UNL     1      41.109  31.205  45.741  0.00  0.00    +0.000 C 
ATOM     27  H   UNL     1      41.940  31.857  46.021  0.00  0.00    +0.000 HD
ATOM     28  H   UNL     1      40.794  30.814  46.769  0.00  0.00    +0.000 HD
BRANCH  26  29
ATOM     29  C   UNL     1      41.538  29.938  45.055  0.00  0.00    +0.000 C 
ATOM     30  C   UNL     1      42.979  29.531  45.431  0.00  0.00    +0.000 C 
ATOM     31  C   UNL     1      42.602  29.945  44.025  0.00  0.00    +0.000 C 
ENDBRANCH  26  29
ENDBRANCH  23  26
ENDBRANCH   1  23
TORSDOF 5
