
 OpenBabel03272504243D

 33 36  0  0  0  0  0  0  0  0999 V2000
   35.8510   30.1770   48.4790 C   0  0  0  0  0  0  0  0  0  0  0  0
   35.7750   29.1850   49.3980 C   0  0  0  0  0  0  0  0  0  0  0  0
   34.7250   28.3540   49.4590 C   0  0  0  0  0  0  0  0  0  0  0  0
   33.7260   28.5300   48.5710 N   0  0  0  0  0  0  0  0  0  0  0  0
   33.7890   29.4930   47.6650 C   0  0  0  0  0  0  0  0  0  0  0  0
   34.8410   30.3230   47.6070 N   0  0  0  0  0  0  0  0  0  0  0  0
   36.6110   29.1060   50.0710 H   0  0  0  0  0  0  0  0  0  0  0  0
   34.8140   27.6150   50.2440 H   0  0  0  0  0  0  0  0  0  0  0  0
   31.8340   28.4800   46.6170 C   0  0  0  0  0  0  0  0  0  0  0  0
   32.6960   29.5780   46.7200 C   0  0  0  0  0  0  0  0  0  0  0  0
   32.5670   30.7390   45.9750 C   0  0  0  0  0  0  0  0  0  0  0  0
   31.5320   30.8580   45.0640 C   0  0  0  0  0  0  0  0  0  0  0  0
   30.6340   29.8330   44.8960 C   0  0  0  0  0  0  0  0  0  0  0  0
   30.8480   28.7360   45.6750 C   0  0  0  0  0  0  0  0  0  0  0  0
   33.3010   31.5440   46.1330 H   0  0  0  0  0  0  0  0  0  0  0  0
   31.5240   31.7840   44.5400 H   0  0  0  0  0  0  0  0  0  0  0  0
   29.8390   29.9260   44.1980 H   0  0  0  0  0  0  0  0  0  0  0  0
   30.1140   27.9220   45.5260 H   0  0  0  0  0  0  0  0  0  0  0  0
   31.9210   27.0680   47.4840 S   0  0  0  0  0  0  0  0  0  0  0  0
   30.8950   26.2740   46.6860 O   0  0  0  0  0  0  0  0  0  0  0  0
   31.3560   27.2330   48.8880 O   0  0  0  0  0  0  0  0  0  0  0  0
   32.7400   25.6050   47.4730 C   0  0  0  0  0  0  0  0  0  0  0  0
   33.0200   24.9330   46.1020 C   0  0  0  0  0  0  0  0  0  0  0  0
   34.0900   25.7020   46.6290 C   0  0  0  0  0  0  0  0  0  0  0  0
   38.1330   32.9280   49.3240 C   0  0  0  0  0  0  0  0  0  0  0  0
   39.0550   32.8830   48.2460 C   0  0  0  0  0  0  0  0  0  0  0  0
   38.8670   31.9010   47.2550 C   0  0  0  0  0  0  0  0  0  0  0  0
   37.8130   31.0460   47.3800 N   0  0  0  0  0  0  0  0  0  0  0  0
   36.9620   31.1120   48.4040 C   0  0  0  0  0  0  0  0  0  0  0  0
   37.1260   32.0590   49.3790 N   0  0  0  0  0  0  0  0  0  0  0  0
   38.3040   33.6840   50.0570 H   0  0  0  0  0  0  0  0  0  0  0  0
   39.8830   33.5440   48.1360 H   0  0  0  0  0  0  0  0  0  0  0  0
   39.5130   31.7870   46.4020 H   0  0  0  0  0  0  0  0  0  0  0  0
  1  2  1  0  0  0  0
  2  3  2  0  0  0  0
  2  7  1  0  0  0  0
  3  8  1  0  0  0  0
  4  3  1  0  0  0  0
  5  4  2  0  0  0  0
  6  5  1  0  0  0  0
  6  1  2  0  0  0  0
  9 10  1  0  0  0  0
  9 19  1  0  0  0  0
 10  5  1  0  0  0  0
 11 15  1  0  0  0  0
 11 10  2  0  0  0  0
 12 11  1  0  0  0  0
 13 12  2  0  0  0  0
 13 14  1  0  0  0  0
 14  9  2  0  0  0  0
 16 12  1  0  0  0  0
 17 13  1  0  0  0  0
 18 14  1  0  0  0  0
 19 21  2  0  0  0  0
 20 19  2  0  0  0  0
 22 19  1  0  0  0  0
 23 24  1  0  0  0  0
 23 22  1  0  0  0  0
 24 22  1  0  0  0  0
 25 30  1  0  0  0  0
 25 31  1  0  0  0  0
 26 25  2  0  0  0  0
 27 28  2  0  0  0  0
 27 26  1  0  0  0  0
 28 29  1  0  0  0  0
 29  1  1  0  0  0  0
 29 30  2  0  0  0  0
 32 26  1  0  0  0  0
 33 27  1  0  0  0  0
M  END
>  <minimizedAffinity>
-5.26386118

>  <minimizedRMSD>
0.938303292

$$$$
