
 OpenBabel03272508423D

 14 15  0  0  0  0  0  0  0  0999 V2000
   37.3930   30.1540   51.5280 C   0  0  0  0  0  0  0  0  0  0  0  0
   38.2350   30.6590   50.5090 C   0  0  0  0  0  0  0  0  0  0  0  0
   37.7960   30.5470   49.1890 C   0  0  0  0  0  0  0  0  0  0  0  0
   36.5980   29.9640   48.9720 N   0  0  0  0  0  0  0  0  0  0  0  0
   35.8170   29.4920   49.9620 C   0  0  0  0  0  0  0  0  0  0  0  0
   36.2060   29.5830   51.2290 N   0  0  0  0  0  0  0  0  0  0  0  0
   37.7400   30.2440   52.5490 H   0  0  0  0  0  0  0  0  0  0  0  0
   39.1910   31.1210   50.7090 H   0  0  0  0  0  0  0  0  0  0  0  0
   38.4070   30.9190   48.3780 H   0  0  0  0  0  0  0  0  0  0  0  0
   34.5290   28.8670   49.7000 C   0  0  0  0  0  0  0  0  0  0  0  0
   33.4750   29.1740   50.2990 O   0  0  0  0  0  0  0  0  0  0  0  0
   34.3400   27.7910   48.6840 C   0  0  0  0  0  3  0  0  0  0  0  0
   33.9290   28.1430   47.3040 C   0  0  0  0  0  2  0  0  0  0  0  0
   32.9680   27.4010   48.2560 C   0  0  0  0  0  2  0  0  0  0  0  0
  1  7  1  0  0  0  0
  2  8  1  0  0  0  0
  2  1  2  0  0  0  0
  3  2  1  0  0  0  0
  4  3  2  0  0  0  0
  4  5  1  0  0  0  0
  5  6  2  0  0  0  0
  6  1  1  0  0  0  0
  9  3  1  0  0  0  0
 10  5  1  0  0  0  0
 10 11  2  0  0  0  0
 12 10  1  0  0  0  0
 13 14  1  0  0  0  0
 13 12  1  0  0  0  0
 14 12  1  0  0  0  0
M  END
>  <minimizedAffinity>
-3.85750675

>  <minimizedRMSD>
0.917650282

$$$$
