
 OpenBabel03272501593D

 25 27  0  0  0  0  0  0  0  0999 V2000
   37.6780   27.5810   35.3490 C   0  0  0  0  0  0  0  0  0  0  0  0
   37.7740   28.6040   35.7050 H   0  0  0  0  0  0  0  0  0  0  0  0
   37.1060   26.9240   36.0520 H   0  0  0  0  0  0  0  0  0  0  0  0
   36.9620   27.5700   34.0310 C   0  0  0  0  0  0  0  0  0  0  0  0
   36.1720   28.5450   33.4800 C   0  0  0  0  0  0  0  0  0  0  0  0
   35.6870   28.1700   32.2520 C   0  0  0  0  0  0  0  0  0  0  0  0
   36.2080   26.9400   32.0810 N   0  0  0  0  0  0  0  0  0  0  0  0
   36.9620   26.5770   33.1260 N   0  0  0  0  0  0  0  0  0  0  0  0
   35.9460   29.5100   33.9490 H   0  0  0  0  0  0  0  0  0  0  0  0
   35.0450   28.6970   31.5620 H   0  0  0  0  0  0  0  0  0  0  0  0
   35.9680   26.1180   30.8900 C   0  0  0  0  0  3  0  0  0  0  0  0
   36.0300   24.6470   31.0270 C   0  0  0  0  0  2  0  0  0  0  0  0
   34.6930   25.3100   30.9670 C   0  0  0  0  0  2  0  0  0  0  0  0
   39.0190   26.9380   35.0850 C   0  0  0  0  0  0  0  0  0  0  0  0
   39.8430   27.5040   35.5780 H   0  0  0  0  0  0  0  0  0  0  0  0
   39.2540   26.8420   34.0120 H   0  0  0  0  0  0  0  0  0  0  0  0
   40.0030   23.4570   35.8590 C   0  0  0  0  0  0  0  0  0  0  0  0
   39.0470   23.0840   36.8280 C   0  0  0  0  0  0  0  0  0  0  0  0
   38.0810   24.0360   37.1980 C   0  0  0  0  0  0  0  0  0  0  0  0
   38.1090   25.2710   36.6090 N   0  0  0  0  0  0  0  0  0  0  0  0
   39.0470   25.5770   35.6850 C   0  0  0  0  0  0  0  0  0  0  0  0
   39.9600   24.6880   35.3300 N   0  0  0  0  0  0  0  0  0  0  0  0
   40.7360   22.7030   35.5910 H   0  0  0  0  0  0  0  0  0  0  0  0
   39.0770   22.0910   37.2580 H   0  0  0  0  0  0  0  0  0  0  0  0
   37.3540   23.7550   37.9340 H   0  0  0  0  0  0  0  0  0  0  0  0
  1  2  1  0  0  0  0
  1  3  1  0  0  0  0
  4  1  1  0  0  0  0
  5  9  1  0  0  0  0
  5  4  1  0  0  0  0
  6  5  2  0  0  0  0
  7  6  1  0  0  0  0
  7  8  1  0  0  0  0
  8  4  2  0  0  0  0
 10  6  1  0  0  0  0
 11 13  1  0  0  0  0
 11 12  1  0  0  0  0
 11  7  1  0  0  0  0
 13 12  1  0  0  0  0
 14  1  1  0  0  0  0
 14 15  1  0  0  0  0
 14 21  1  0  0  0  0
 16 14  1  0  0  0  0
 17 18  1  0  0  0  0
 18 19  2  0  0  0  0
 18 24  1  0  0  0  0
 19 25  1  0  0  0  0
 20 19  1  0  0  0  0
 21 20  2  0  0  0  0
 22 21  1  0  0  0  0
 22 17  2  0  0  0  0
 23 17  1  0  0  0  0
M  END
>  <minimizedAffinity>
-4.44699144

$$$$

 OpenBabel03272501593D

 25 27  0  0  0  0  0  0  0  0999 V2000
   38.1200   26.0710   35.9040 C   0  0  0  0  0  0  0  0  0  0  0  0
   39.1750   26.3360   35.9040 H   0  0  0  0  0  0  0  0  0  0  0  0
   37.5330   26.6100   36.6900 H   0  0  0  0  0  0  0  0  0  0  0  0
   37.5150   26.4070   34.5730 C   0  0  0  0  0  0  0  0  0  0  0  0
   36.9740   27.5960   34.1560 C   0  0  0  0  0  0  0  0  0  0  0  0
   36.5170   27.5180   32.8640 C   0  0  0  0  0  0  0  0  0  0  0  0
   36.7990   26.2470   32.5160 N   0  0  0  0  0  0  0  0  0  0  0  0
   37.3870   25.5840   33.5200 N   0  0  0  0  0  0  0  0  0  0  0  0
   36.9080   28.5040   34.7660 H   0  0  0  0  0  0  0  0  0  0  0  0
   36.0440   28.2630   32.2430 H   0  0  0  0  0  0  0  0  0  0  0  0
   36.4900   25.6820   31.1990 C   0  0  0  0  0  3  0  0  0  0  0  0
   36.2310   24.2300   31.1010 C   0  0  0  0  0  2  0  0  0  0  0  0
   35.0730   25.1720   31.0830 C   0  0  0  0  0  2  0  0  0  0  0  0
   37.9010   24.5880   36.0850 C   0  0  0  0  0  0  0  0  0  0  0  0
   37.4690   24.1290   35.1660 H   0  0  0  0  0  0  0  0  0  0  0  0
   37.2490   24.3430   36.9390 H   0  0  0  0  0  0  0  0  0  0  0  0
   41.4200   23.5270   35.6620 C   0  0  0  0  0  0  0  0  0  0  0  0
   41.5970   22.6380   36.7440 C   0  0  0  0  0  0  0  0  0  0  0  0
   40.5040   22.4210   37.6000 C   0  0  0  0  0  0  0  0  0  0  0  0
   39.3270   23.0720   37.3510 N   0  0  0  0  0  0  0  0  0  0  0  0
   39.2100   23.9120   36.2980 C   0  0  0  0  0  0  0  0  0  0  0  0
   40.2320   24.1240   35.4860 N   0  0  0  0  0  0  0  0  0  0  0  0
   42.2790   23.6760   35.0160 H   0  0  0  0  0  0  0  0  0  0  0  0
   42.5540   22.1530   36.8900 H   0  0  0  0  0  0  0  0  0  0  0  0
   40.6360   21.7470   38.4240 H   0  0  0  0  0  0  0  0  0  0  0  0
  1 14  1  0  0  0  0
  1  3  1  0  0  0  0
  2  1  1  0  0  0  0
  4  1  1  0  0  0  0
  5  4  1  0  0  0  0
  5  9  1  0  0  0  0
  6  5  2  0  0  0  0
  7  6  1  0  0  0  0
  7  8  1  0  0  0  0
  8  4  2  0  0  0  0
 10  6  1  0  0  0  0
 11  7  1  0  0  0  0
 12 11  1  0  0  0  0
 13 12  1  0  0  0  0
 13 11  1  0  0  0  0
 14 21  1  0  0  0  0
 14 16  1  0  0  0  0
 15 14  1  0  0  0  0
 17 18  1  0  0  0  0
 18 24  1  0  0  0  0
 18 19  2  0  0  0  0
 19 25  1  0  0  0  0
 20 19  1  0  0  0  0
 21 20  2  0  0  0  0
 22 17  2  0  0  0  0
 22 21  1  0  0  0  0
 23 17  1  0  0  0  0
M  END
>  <minimizedAffinity>
-4.38325882

$$$$

 OpenBabel03272501593D

 25 27  0  0  0  0  0  0  0  0999 V2000
   39.0300   23.6430   33.6290 C   0  0  0  0  0  0  0  0  0  0  0  0
   39.7060   22.9400   34.1100 H   0  0  0  0  0  0  0  0  0  0  0  0
   39.4860   24.1540   32.7440 H   0  0  0  0  0  0  0  0  0  0  0  0
   37.8040   22.9200   33.1550 C   0  0  0  0  0  0  0  0  0  0  0  0
   36.9530   23.2600   32.1340 C   0  0  0  0  0  0  0  0  0  0  0  0
   35.9360   22.3480   31.9990 C   0  0  0  0  0  0  0  0  0  0  0  0
   36.2000   21.4500   32.9680 N   0  0  0  0  0  0  0  0  0  0  0  0
   37.3000   21.7800   33.6560 N   0  0  0  0  0  0  0  0  0  0  0  0
   37.0580   24.1450   31.4970 H   0  0  0  0  0  0  0  0  0  0  0  0
   35.1100   22.3180   31.3040 H   0  0  0  0  0  0  0  0  0  0  0  0
   35.3720   20.2660   33.2210 C   0  0  0  0  0  3  0  0  0  0  0  0
   34.6310   19.6720   32.0880 C   0  0  0  0  0  2  0  0  0  0  0  0
   35.8920   19.0170   32.5480 C   0  0  0  0  0  2  0  0  0  0  0  0
   38.5300   24.7030   34.5820 C   0  0  0  0  0  0  0  0  0  0  0  0
   37.4470   24.9090   34.4250 H   0  0  0  0  0  0  0  0  0  0  0  0
   39.0830   25.6540   34.5060 H   0  0  0  0  0  0  0  0  0  0  0  0
   37.9040   24.1820   38.1910 C   0  0  0  0  0  0  0  0  0  0  0  0
   38.9230   23.2710   38.5420 C   0  0  0  0  0  0  0  0  0  0  0  0
   39.8060   22.8510   37.5330 C   0  0  0  0  0  0  0  0  0  0  0  0
   39.6430   23.3390   36.2650 N   0  0  0  0  0  0  0  0  0  0  0  0
   38.6500   24.2120   35.9820 C   0  0  0  0  0  0  0  0  0  0  0  0
   37.8140   24.6130   36.9240 N   0  0  0  0  0  0  0  0  0  0  0  0
   37.2370   24.4900   38.9890 H   0  0  0  0  0  0  0  0  0  0  0  0
   39.0000   22.9200   39.5640 H   0  0  0  0  0  0  0  0  0  0  0  0
   40.5800   22.1580   37.7980 H   0  0  0  0  0  0  0  0  0  0  0  0
  1  2  1  0  0  0  0
  1 14  1  0  0  0  0
  3  1  1  0  0  0  0
  4  1  1  0  0  0  0
  4  8  2  0  0  0  0
  5  4  1  0  0  0  0
  6  5  2  0  0  0  0
  6  7  1  0  0  0  0
  7 11  1  0  0  0  0
  7  8  1  0  0  0  0
  9  5  1  0  0  0  0
 10  6  1  0  0  0  0
 12 13  1  0  0  0  0
 12 11  1  0  0  0  0
 13 11  1  0  0  0  0
 14 21  1  0  0  0  0
 15 14  1  0  0  0  0
 16 14  1  0  0  0  0
 17 18  1  0  0  0  0
 17 23  1  0  0  0  0
 18 24  1  0  0  0  0
 19 25  1  0  0  0  0
 19 18  2  0  0  0  0
 20 19  1  0  0  0  0
 21 20  2  0  0  0  0
 21 22  1  0  0  0  0
 22 17  2  0  0  0  0
M  END
>  <minimizedAffinity>
-4.26354694

$$$$

 OpenBabel03272501593D

 25 27  0  0  0  0  0  0  0  0999 V2000
   38.0390   21.8330   35.3070 C   0  0  0  0  0  0  0  0  0  0  0  0
   38.4540   21.9930   34.3140 H   0  0  0  0  0  0  0  0  0  0  0  0
   38.6150   21.0850   35.9070 H   0  0  0  0  0  0  0  0  0  0  0  0
   38.0390   23.1250   36.0690 C   0  0  0  0  0  0  0  0  0  0  0  0
   37.8010   23.3290   37.4030 C   0  0  0  0  0  0  0  0  0  0  0  0
   37.8890   24.6580   37.7350 C   0  0  0  0  0  0  0  0  0  0  0  0
   38.1870   25.2480   36.5610 N   0  0  0  0  0  0  0  0  0  0  0  0
   38.2770   24.3500   35.5720 N   0  0  0  0  0  0  0  0  0  0  0  0
   37.5680   22.5400   38.1280 H   0  0  0  0  0  0  0  0  0  0  0  0
   37.7600   25.1520   38.6870 H   0  0  0  0  0  0  0  0  0  0  0  0
   38.3840   26.6930   36.4080 C   0  0  0  0  0  3  0  0  0  0  0  0
   39.1030   27.1810   35.2120 C   0  0  0  0  0  2  0  0  0  0  0  0
   37.6140   27.2830   35.2500 C   0  0  0  0  0  2  0  0  0  0  0  0
   36.5950   21.3920   35.2600 C   0  0  0  0  0  0  0  0  0  0  0  0
   35.9120   22.2130   35.5790 H   0  0  0  0  0  0  0  0  0  0  0  0
   36.3890   20.5040   35.8790 H   0  0  0  0  0  0  0  0  0  0  0  0
   35.1340   19.7010   32.3120 C   0  0  0  0  0  0  0  0  0  0  0  0
   35.5500   20.5360   31.2520 C   0  0  0  0  0  0  0  0  0  0  0  0
   36.3230   21.6650   31.5690 C   0  0  0  0  0  0  0  0  0  0  0  0
   36.6380   21.9050   32.8790 N   0  0  0  0  0  0  0  0  0  0  0  0
   36.2160   21.0720   33.8570 C   0  0  0  0  0  0  0  0  0  0  0  0
   35.4870   20.0070   33.5690 N   0  0  0  0  0  0  0  0  0  0  0  0
   34.5390   18.8360   32.0380 H   0  0  0  0  0  0  0  0  0  0  0  0
   35.2670   20.2930   30.2350 H   0  0  0  0  0  0  0  0  0  0  0  0
   36.6390   22.3010   30.7660 H   0  0  0  0  0  0  0  0  0  0  0  0
  1  3  1  0  0  0  0
  1  4  1  0  0  0  0
  2  1  1  0  0  0  0
  4  5  1  0  0  0  0
  5  6  2  0  0  0  0
  5  9  1  0  0  0  0
  6 10  1  0  0  0  0
  7  6  1  0  0  0  0
  8  4  2  0  0  0  0
  8  7  1  0  0  0  0
 11  7  1  0  0  0  0
 12 13  1  0  0  0  0
 12 11  1  0  0  0  0
 13 11  1  0  0  0  0
 14  1  1  0  0  0  0
 14 15  1  0  0  0  0
 14 16  1  0  0  0  0
 17 22  1  0  0  0  0
 18 19  1  0  0  0  0
 18 17  2  0  0  0  0
 19 20  2  0  0  0  0
 20 21  1  0  0  0  0
 21 14  1  0  0  0  0
 22 21  2  0  0  0  0
 23 17  1  0  0  0  0
 24 18  1  0  0  0  0
 25 19  1  0  0  0  0
M  END
>  <minimizedAffinity>
-4.22670078

$$$$

 OpenBabel03272501593D

 25 27  0  0  0  0  0  0  0  0999 V2000
   38.5900   27.0050   35.5610 C   0  0  0  0  0  0  0  0  0  0  0  0
   39.5220   26.8930   36.1100 H   0  0  0  0  0  0  0  0  0  0  0  0
   38.0110   27.9150   35.8600 H   0  0  0  0  0  0  0  0  0  0  0  0
   38.8790   27.1130   34.0930 C   0  0  0  0  0  0  0  0  0  0  0  0
   40.0880   27.0280   33.4520 C   0  0  0  0  0  0  0  0  0  0  0  0
   39.9520   27.1770   32.0940 C   0  0  0  0  0  0  0  0  0  0  0  0
   38.6260   27.3540   31.9370 N   0  0  0  0  0  0  0  0  0  0  0  0
   37.9850   27.3190   33.1120 N   0  0  0  0  0  0  0  0  0  0  0  0
   41.0510   26.8610   33.9470 H   0  0  0  0  0  0  0  0  0  0  0  0
   40.6950   27.1620   31.3100 H   0  0  0  0  0  0  0  0  0  0  0  0
   37.9860   27.5590   30.6340 C   0  0  0  0  0  3  0  0  0  0  0  0
   36.5830   28.0270   30.6050 C   0  0  0  0  0  2  0  0  0  0  0  0
   37.6760   29.0090   30.3400 C   0  0  0  0  0  2  0  0  0  0  0  0
   37.6890   25.8010   35.7070 C   0  0  0  0  0  0  0  0  0  0  0  0
   37.4490   25.3540   34.7160 H   0  0  0  0  0  0  0  0  0  0  0  0
   36.7440   26.0240   36.2300 H   0  0  0  0  0  0  0  0  0  0  0  0
   38.6550   23.4630   38.4060 C   0  0  0  0  0  0  0  0  0  0  0  0
   39.7400   22.7700   37.8270 C   0  0  0  0  0  0  0  0  0  0  0  0
   40.1190   23.1180   36.5200 C   0  0  0  0  0  0  0  0  0  0  0  0
   39.4280   24.1040   35.8700 N   0  0  0  0  0  0  0  0  0  0  0  0
   38.3970   24.7380   36.4710 C   0  0  0  0  0  0  0  0  0  0  0  0
   38.0320   24.4180   37.7010 N   0  0  0  0  0  0  0  0  0  0  0  0
   38.3850   23.1750   39.4160 H   0  0  0  0  0  0  0  0  0  0  0  0
   40.2470   21.9980   38.3920 H   0  0  0  0  0  0  0  0  0  0  0  0
   40.9430   22.5920   36.0770 H   0  0  0  0  0  0  0  0  0  0  0  0
  1 14  1  0  0  0  0
  1  3  1  0  0  0  0
  1  2  1  0  0  0  0
  4  1  1  0  0  0  0
  5  9  1  0  0  0  0
  5  4  1  0  0  0  0
  6  5  2  0  0  0  0
  7  6  1  0  0  0  0
  7  8  1  0  0  0  0
  8  4  2  0  0  0  0
 10  6  1  0  0  0  0
 11  7  1  0  0  0  0
 12 11  1  0  0  0  0
 13 12  1  0  0  0  0
 13 11  1  0  0  0  0
 14 16  1  0  0  0  0
 14 21  1  0  0  0  0
 15 14  1  0  0  0  0
 17 23  1  0  0  0  0
 18 24  1  0  0  0  0
 18 17  1  0  0  0  0
 19 18  2  0  0  0  0
 20 21  2  0  0  0  0
 20 19  1  0  0  0  0
 21 22  1  0  0  0  0
 22 17  2  0  0  0  0
 25 19  1  0  0  0  0
M  END
>  <minimizedAffinity>
-4.22378683

$$$$

 OpenBabel03272501593D

 25 27  0  0  0  0  0  0  0  0999 V2000
   38.6680   26.9950   35.1740 C   0  0  0  0  0  0  0  0  0  0  0  0
   39.0830   27.6650   35.9230 H   0  0  0  0  0  0  0  0  0  0  0  0
   39.2180   27.0330   34.1990 H   0  0  0  0  0  0  0  0  0  0  0  0
   38.7250   25.5810   35.6730 C   0  0  0  0  0  0  0  0  0  0  0  0
   37.7740   24.8840   36.3720 C   0  0  0  0  0  0  0  0  0  0  0  0
   38.1890   23.6070   36.6550 C   0  0  0  0  0  0  0  0  0  0  0  0
   39.4190   23.5560   36.1060 N   0  0  0  0  0  0  0  0  0  0  0  0
   39.7430   24.7180   35.5240 N   0  0  0  0  0  0  0  0  0  0  0  0
   36.7980   25.2820   36.6740 H   0  0  0  0  0  0  0  0  0  0  0  0
   37.6890   22.8080   37.1830 H   0  0  0  0  0  0  0  0  0  0  0  0
   40.2760   22.3680   36.1510 C   0  0  0  0  0  3  0  0  0  0  0  0
   41.7150   22.5510   36.4390 C   0  0  0  0  0  2  0  0  0  0  0  0
   40.8160   22.0710   37.5300 C   0  0  0  0  0  2  0  0  0  0  0  0
   37.2070   27.2690   34.9050 C   0  0  0  0  0  0  0  0  0  0  0  0
   36.8270   28.0960   35.5460 H   0  0  0  0  0  0  0  0  0  0  0  0
   36.5630   26.3870   35.0520 H   0  0  0  0  0  0  0  0  0  0  0  0
   37.8130   27.8870   31.3080 C   0  0  0  0  0  0  0  0  0  0  0  0
   36.6640   28.6170   30.9320 C   0  0  0  0  0  0  0  0  0  0  0  0
   35.7020   28.8820   31.9210 C   0  0  0  0  0  0  0  0  0  0  0  0
   35.9170   28.4270   33.1940 N   0  0  0  0  0  0  0  0  0  0  0  0
   37.0370   27.7340   33.5010 C   0  0  0  0  0  0  0  0  0  0  0  0
   37.9480   27.4790   32.5780 N   0  0  0  0  0  0  0  0  0  0  0  0
   38.5400   27.6980   30.5250 H   0  0  0  0  0  0  0  0  0  0  0  0
   36.5510   28.9490   29.9080 H   0  0  0  0  0  0  0  0  0  0  0  0
   34.8280   29.4350   31.6380 H   0  0  0  0  0  0  0  0  0  0  0  0
  1  4  1  0  0  0  0
  1  2  1  0  0  0  0
  3  1  1  0  0  0  0
  4  5  1  0  0  0  0
  5  6  2  0  0  0  0
  5  9  1  0  0  0  0
  6 10  1  0  0  0  0
  7 11  1  0  0  0  0
  7  6  1  0  0  0  0
  8  4  2  0  0  0  0
  8  7  1  0  0  0  0
 11 12  1  0  0  0  0
 11 13  1  0  0  0  0
 12 13  1  0  0  0  0
 14 16  1  0  0  0  0
 14  1  1  0  0  0  0
 14 15  1  0  0  0  0
 17 22  1  0  0  0  0
 18 17  2  0  0  0  0
 18 19  1  0  0  0  0
 19 20  2  0  0  0  0
 20 21  1  0  0  0  0
 21 14  1  0  0  0  0
 22 21  2  0  0  0  0
 23 17  1  0  0  0  0
 24 18  1  0  0  0  0
 25 19  1  0  0  0  0
M  END
>  <minimizedAffinity>
-4.174191

$$$$

 OpenBabel03272501593D

 25 27  0  0  0  0  0  0  0  0999 V2000
   38.3810   25.4590   33.5300 C   0  0  0  0  0  0  0  0  0  0  0  0
   39.2740   24.8390   33.5670 H   0  0  0  0  0  0  0  0  0  0  0  0
   38.5690   26.4720   33.0940 H   0  0  0  0  0  0  0  0  0  0  0  0
   37.3350   24.7880   32.6890 C   0  0  0  0  0  0  0  0  0  0  0  0
   36.3200   25.3640   31.9700 C   0  0  0  0  0  0  0  0  0  0  0  0
   35.5600   24.4200   31.3240 C   0  0  0  0  0  0  0  0  0  0  0  0
   36.1490   23.2610   31.6760 N   0  0  0  0  0  0  0  0  0  0  0  0
   37.1970   23.4690   32.4820 N   0  0  0  0  0  0  0  0  0  0  0  0
   36.1260   26.4410   31.9090 H   0  0  0  0  0  0  0  0  0  0  0  0
   34.6980   24.5340   30.6840 H   0  0  0  0  0  0  0  0  0  0  0  0
   35.6830   21.9470   31.2210 C   0  0  0  0  0  3  0  0  0  0  0  0
   36.3290   20.7400   31.7800 C   0  0  0  0  0  2  0  0  0  0  0  0
   34.9910   21.1490   32.3020 C   0  0  0  0  0  2  0  0  0  0  0  0
   37.7510   25.6380   34.8910 C   0  0  0  0  0  0  0  0  0  0  0  0
   36.6670   25.3830   34.8710 H   0  0  0  0  0  0  0  0  0  0  0  0
   37.8630   26.6590   35.2930 H   0  0  0  0  0  0  0  0  0  0  0  0
   40.0720   23.2020   36.4280 C   0  0  0  0  0  0  0  0  0  0  0  0
   39.4680   22.9640   37.6820 C   0  0  0  0  0  0  0  0  0  0  0  0
   38.2750   23.6450   37.9760 C   0  0  0  0  0  0  0  0  0  0  0  0
   37.7540   24.5020   37.0450 N   0  0  0  0  0  0  0  0  0  0  0  0
   38.3720   24.6930   35.8580 C   0  0  0  0  0  0  0  0  0  0  0  0
   39.4950   24.0570   35.5710 N   0  0  0  0  0  0  0  0  0  0  0  0
   40.9910   22.6620   36.2270 H   0  0  0  0  0  0  0  0  0  0  0  0
   39.9290   22.2740   38.3770 H   0  0  0  0  0  0  0  0  0  0  0  0
   37.8150   23.4660   38.9280 H   0  0  0  0  0  0  0  0  0  0  0  0
  1  2  1  0  0  0  0
  1 14  1  0  0  0  0
  3  1  1  0  0  0  0
  4  1  1  0  0  0  0
  5  4  1  0  0  0  0
  6  7  1  0  0  0  0
  6  5  2  0  0  0  0
  7  8  1  0  0  0  0
  8  4  2  0  0  0  0
  9  5  1  0  0  0  0
 10  6  1  0  0  0  0
 11  7  1  0  0  0  0
 11 12  1  0  0  0  0
 11 13  1  0  0  0  0
 12 13  1  0  0  0  0
 14 16  1  0  0  0  0
 14 21  1  0  0  0  0
 15 14  1  0  0  0  0
 17 18  1  0  0  0  0
 18 19  2  0  0  0  0
 18 24  1  0  0  0  0
 19 25  1  0  0  0  0
 20 19  1  0  0  0  0
 21 20  2  0  0  0  0
 22 21  1  0  0  0  0
 22 17  2  0  0  0  0
 23 17  1  0  0  0  0
M  END
>  <minimizedAffinity>
-4.16078901

$$$$

 OpenBabel03272501593D

 25 27  0  0  0  0  0  0  0  0999 V2000
   38.1410   26.6310   35.3830 C   0  0  0  0  0  0  0  0  0  0  0  0
   39.2050   26.8120   35.2460 H   0  0  0  0  0  0  0  0  0  0  0  0
   37.7690   26.9450   36.3900 H   0  0  0  0  0  0  0  0  0  0  0  0
   37.3620   27.3930   34.3520 C   0  0  0  0  0  0  0  0  0  0  0  0
   36.3850   28.3350   34.5450 C   0  0  0  0  0  0  0  0  0  0  0  0
   35.9010   28.8130   33.3530 C   0  0  0  0  0  0  0  0  0  0  0  0
   36.6160   28.1310   32.4370 N   0  0  0  0  0  0  0  0  0  0  0  0
   37.4800   27.2900   33.0180 N   0  0  0  0  0  0  0  0  0  0  0  0
   36.0240   28.6760   35.5230 H   0  0  0  0  0  0  0  0  0  0  0  0
   35.1390   29.5520   33.1520 H   0  0  0  0  0  0  0  0  0  0  0  0
   36.4510   28.3030   30.9900 C   0  0  0  0  0  3  0  0  0  0  0  0
   36.2870   29.6740   30.4600 C   0  0  0  0  0  2  0  0  0  0  0  0
   37.6170   29.0070   30.3340 C   0  0  0  0  0  2  0  0  0  0  0  0
   37.7750   25.1800   35.1740 C   0  0  0  0  0  0  0  0  0  0  0  0
   38.0630   24.8340   34.1550 H   0  0  0  0  0  0  0  0  0  0  0  0
   36.7020   24.9750   35.3240 H   0  0  0  0  0  0  0  0  0  0  0  0
   40.3890   22.9920   36.6100 C   0  0  0  0  0  0  0  0  0  0  0  0
   39.9100   22.7740   37.9200 C   0  0  0  0  0  0  0  0  0  0  0  0
   38.6980   23.3840   38.2860 C   0  0  0  0  0  0  0  0  0  0  0  0
   38.0400   24.1550   37.3670 N   0  0  0  0  0  0  0  0  0  0  0  0
   38.5420   24.3300   36.1240 C   0  0  0  0  0  0  0  0  0  0  0  0
   39.6820   23.7600   35.7690 N   0  0  0  0  0  0  0  0  0  0  0  0
   41.3260   22.5080   36.3540 H   0  0  0  0  0  0  0  0  0  0  0  0
   40.4770   22.1540   38.6020 H   0  0  0  0  0  0  0  0  0  0  0  0
   38.3340   23.2210   39.2810 H   0  0  0  0  0  0  0  0  0  0  0  0
  1  3  1  0  0  0  0
  2  1  1  0  0  0  0
  4  5  1  0  0  0  0
  4  1  1  0  0  0  0
  5  9  1  0  0  0  0
  6  5  2  0  0  0  0
  7  8  1  0  0  0  0
  7  6  1  0  0  0  0
  8  4  2  0  0  0  0
 10  6  1  0  0  0  0
 11  7  1  0  0  0  0
 12 11  1  0  0  0  0
 13 12  1  0  0  0  0
 13 11  1  0  0  0  0
 14 16  1  0  0  0  0
 14  1  1  0  0  0  0
 14 21  1  0  0  0  0
 15 14  1  0  0  0  0
 17 18  1  0  0  0  0
 18 19  2  0  0  0  0
 18 24  1  0  0  0  0
 19 25  1  0  0  0  0
 20 19  1  0  0  0  0
 21 20  2  0  0  0  0
 22 21  1  0  0  0  0
 22 17  2  0  0  0  0
 23 17  1  0  0  0  0
M  END
>  <minimizedAffinity>
-4.15718555

$$$$

 OpenBabel03272501593D

 25 27  0  0  0  0  0  0  0  0999 V2000
   38.0710   27.1580   33.7540 C   0  0  0  0  0  0  0  0  0  0  0  0
   38.8920   27.8710   33.7860 H   0  0  0  0  0  0  0  0  0  0  0  0
   37.8660   26.7720   32.7230 H   0  0  0  0  0  0  0  0  0  0  0  0
   38.3920   25.9800   34.6250 C   0  0  0  0  0  0  0  0  0  0  0  0
   39.4440   25.1060   34.5270 C   0  0  0  0  0  0  0  0  0  0  0  0
   39.4010   24.1500   35.5110 C   0  0  0  0  0  0  0  0  0  0  0  0
   38.2920   24.4740   36.2040 N   0  0  0  0  0  0  0  0  0  0  0  0
   37.6900   25.5530   35.6880 N   0  0  0  0  0  0  0  0  0  0  0  0
   40.2300   25.1520   33.7640 H   0  0  0  0  0  0  0  0  0  0  0  0
   40.0680   23.3260   35.7170 H   0  0  0  0  0  0  0  0  0  0  0  0
   37.8210   23.7260   37.3740 C   0  0  0  0  0  3  0  0  0  0  0  0
   38.8110   23.3230   38.3950 C   0  0  0  0  0  2  0  0  0  0  0  0
   37.9350   24.5010   38.6660 C   0  0  0  0  0  2  0  0  0  0  0  0
   36.7890   27.7330   34.3080 C   0  0  0  0  0  0  0  0  0  0  0  0
   36.9850   28.3770   35.1950 H   0  0  0  0  0  0  0  0  0  0  0  0
   36.0510   26.9630   34.5900 H   0  0  0  0  0  0  0  0  0  0  0  0
   34.4550   30.0750   32.6500 C   0  0  0  0  0  0  0  0  0  0  0  0
   35.0520   30.2440   31.3810 C   0  0  0  0  0  0  0  0  0  0  0  0
   36.2460   29.5510   31.1200 C   0  0  0  0  0  0  0  0  0  0  0  0
   36.7730   28.7490   32.0950 N   0  0  0  0  0  0  0  0  0  0  0  0
   36.1600   28.6210   33.2930 C   0  0  0  0  0  0  0  0  0  0  0  0
   35.0370   29.2690   33.5500 N   0  0  0  0  0  0  0  0  0  0  0  0
   33.5340   30.6210   32.8240 H   0  0  0  0  0  0  0  0  0  0  0  0
   34.5860   30.8940   30.6510 H   0  0  0  0  0  0  0  0  0  0  0  0
   36.7010   29.6790   30.1570 H   0  0  0  0  0  0  0  0  0  0  0  0
  1  2  1  0  0  0  0
  1 14  1  0  0  0  0
  1  4  1  0  0  0  0
  3  1  1  0  0  0  0
  4  8  2  0  0  0  0
  5  4  1  0  0  0  0
  5  6  2  0  0  0  0
  6 10  1  0  0  0  0
  6  7  1  0  0  0  0
  7 11  1  0  0  0  0
  8  7  1  0  0  0  0
  9  5  1  0  0  0  0
 11 12  1  0  0  0  0
 11 13  1  0  0  0  0
 12 13  1  0  0  0  0
 14 16  1  0  0  0  0
 14 15  1  0  0  0  0
 17 23  1  0  0  0  0
 17 22  1  0  0  0  0
 18 17  2  0  0  0  0
 19 18  1  0  0  0  0
 19 20  2  0  0  0  0
 20 21  1  0  0  0  0
 21 22  2  0  0  0  0
 21 14  1  0  0  0  0
 24 18  1  0  0  0  0
 25 19  1  0  0  0  0
M  END
>  <minimizedAffinity>
-4.12278891

$$$$
