
 OpenBabel03272510303D

 22 24  0  0  0  0  0  0  0  0999 V2000
   37.1510   31.2950   49.2040 C   0  0  0  0  0  0  0  0  0  0  0  0
   37.3620   32.5440   49.7930 C   0  0  0  0  0  0  0  0  0  0  0  0
   38.3130   33.3400   49.1930 C   0  0  0  0  0  0  0  0  0  0  0  0
   38.9830   32.8870   48.0850 N   0  0  0  0  0  0  0  0  0  0  0  0
   38.7370   31.6530   47.5460 C   0  0  0  0  0  0  0  0  0  0  0  0
   37.7970   30.8380   48.1240 N   0  0  0  0  0  0  0  0  0  0  0  0
   36.8100   32.8590   50.6670 H   0  0  0  0  0  0  0  0  0  0  0  0
   38.5470   34.3250   49.5770 H   0  0  0  0  0  0  0  0  0  0  0  0
   36.0950   30.4120   49.8170 C   0  0  0  0  0  0  0  0  0  0  0  0
   36.0620   28.9830   49.6400 C   0  0  0  0  0  0  0  0  0  0  0  0
   36.6490   29.5140   50.9370 C   0  0  0  0  0  0  0  0  0  0  0  0
   35.1580   30.9760   50.1090 H   0  0  0  0  0  0  0  0  0  0  0  0
   35.0680   28.4850   49.6860 H   0  0  0  0  0  0  0  0  0  0  0  0
   36.7780   28.4560   48.9790 H   0  0  0  0  0  0  0  0  0  0  0  0
   36.0200   29.3960   51.8500 H   0  0  0  0  0  0  0  0  0  0  0  0
   37.7290   29.4930   51.1100 H   0  0  0  0  0  0  0  0  0  0  0  0
   39.4310   31.1490   46.3520 C   0  0  0  0  0  0  0  0  0  0  0  0
   40.3530   31.7230   46.1300 H   0  0  0  0  0  0  0  0  0  0  0  0
   39.7620   30.1060   46.5380 H   0  0  0  0  0  0  0  0  0  0  0  0
   38.4970   31.1230   45.1650 C   0  0  0  0  0  3  0  0  0  0  0  0
   37.8470   32.3470   44.6660 C   0  0  0  0  0  2  0  0  0  0  0  0
   38.9360   31.6190   43.8520 C   0  0  0  0  0  2  0  0  0  0  0  0
  1  2  1  0  0  0  0
  1  9  1  0  0  0  0
  2  7  1  0  0  0  0
  3  8  1  0  0  0  0
  3  2  2  0  0  0  0
  4  3  1  0  0  0  0
  5  4  2  0  0  0  0
  5  6  1  0  0  0  0
  6  1  2  0  0  0  0
  9 12  1  0  0  0  0
  9 11  1  0  0  0  0
 10 13  1  0  0  0  0
 10  9  1  0  0  0  0
 10 11  1  0  0  0  0
 11 16  1  0  0  0  0
 11 15  1  0  0  0  0
 14 10  1  0  0  0  0
 17 19  1  0  0  0  0
 17  5  1  0  0  0  0
 18 17  1  0  0  0  0
 20 17  1  0  0  0  0
 21 20  1  0  0  0  0
 22 21  1  0  0  0  0
 22 20  1  0  0  0  0
M  END
>  <minimizedAffinity>
-4.73311329

>  <minimizedRMSD>
0.527065992

$$$$
