REMARK  Name = 
REMARK  3 active torsions:
REMARK  status: ('A' for Active; 'I' for Inactive)
REMARK    1  A    between atoms: C_1  and  C_7
REMARK    2  A    between atoms: C_6  and  N_15
REMARK    3  A    between atoms: C_13  and  C_30
REMARK                            x       y       z     vdW  Elec       q    Type
REMARK                         _______ _______ _______ _____ _____    ______ ____
ROOT
ATOM      1  C   UNL     1      36.071  30.695  49.067  0.00  0.00    +0.000 C 
ATOM      2  C   UNL     1      37.011  31.645  49.744  0.00  0.00    +0.000 C 
ATOM      3  C   UNL     1      38.042  30.947  50.603  0.00  0.00    +0.000 C 
ATOM      4  C   UNL     1      37.365  30.058  51.642  0.00  0.00    +0.000 C 
ATOM      5  C   UNL     1      36.125  29.370  51.142  0.00  0.00    +0.000 C 
ATOM      6  C   UNL     1      36.189  29.304  49.607  0.00  0.00    +0.000 C 
ATOM      7  H   UNL     1      34.986  30.972  49.164  0.00  0.00    +0.000 HD
ATOM      8  H   UNL     1      36.355  32.177  50.515  0.00  0.00    +0.000 HD
ATOM      9  H   UNL     1      37.435  32.437  49.157  0.00  0.00    +0.000 HD
ATOM     10  H   UNL     1      38.820  30.421  50.052  0.00  0.00    +0.000 HD
ATOM     11  H   UNL     1      38.556  31.742  51.186  0.00  0.00    +0.000 HD
ATOM     12  H   UNL     1      37.175  30.575  52.594  0.00  0.00    +0.000 HD
ATOM     13  H   UNL     1      38.106  29.232  51.849  0.00  0.00    +0.000 HD
ATOM     14  H   UNL     1      36.020  28.341  51.495  0.00  0.00    +0.000 HD
ATOM     15  H   UNL     1      35.229  29.996  51.396  0.00  0.00    +0.000 HD
ATOM     16  H   UNL     1      37.184  28.951  49.467  0.00  0.00    +0.000 HD
ENDROOT
BRANCH   1  17
ATOM     17  C   UNL     1      36.323  30.652  47.603  0.00  0.00    +0.000 A 
ATOM     18  C   UNL     1      37.566  31.128  47.181  0.00  0.00    +0.000 A 
ATOM     19  C   UNL     1      37.823  31.091  45.804  0.00  0.00    +0.000 A 
ATOM     20  N   UNL     1      36.860  30.599  44.962  0.00  0.00    +0.000 NA
ATOM     21  C   UNL     1      35.649  30.140  45.430  0.00  0.00    +0.000 A 
ATOM     22  N   UNL     1      35.410  30.178  46.741  0.00  0.00    +0.000 NA
ATOM     23  H   UNL     1      38.402  31.525  47.719  0.00  0.00    +0.000 HD
ATOM     24  H   UNL     1      38.735  31.425  45.341  0.00  0.00    +0.000 HD
ATOM     25  H   UNL     1      34.917  29.759  44.735  0.00  0.00    +0.000 HD
ENDBRANCH   1  17
BRANCH   6  28
ATOM     26  C   UNL     1      33.914  28.227  49.206  0.00  0.00    +0.000 C 
ATOM     27  O   UNL     1      33.133  28.861  49.972  0.00  0.00    +0.000 OA
ATOM     28  N   UNL     1      35.327  28.342  49.024  0.00  0.00    +0.000 N 
ATOM     29  H   UNL     1      35.715  27.592  48.366  0.00  0.00    +0.000 HD
BRANCH  26  30
ATOM     30  C   UNL     1      33.130  27.211  48.398  0.00  0.00    +0.000 C 
ATOM     31  C   UNL     1      31.862  27.645  47.719  0.00  0.00    +0.000 C 
ATOM     32  C   UNL     1      33.064  27.446  46.876  0.00  0.00    +0.000 C 
ENDBRANCH  26  30
ENDBRANCH   6  28
TORSDOF 3
