
 OpenBabel03272505283D

 25 27  0  0  0  0  0  0  0  0999 V2000
   36.3180   27.4650   32.4200 N   0  0  0  0  0  0  0  0  0  0  0  0
   37.0950   27.3820   33.5350 C   0  0  0  0  0  0  0  0  0  0  0  0
   37.6650   26.1840   33.9410 C   0  0  0  0  0  0  0  0  0  0  0  0
   37.4110   25.0540   33.1580 C   0  0  0  0  0  0  0  0  0  0  0  0
   37.9060   23.9400   33.4830 O   0  0  0  0  0  0  0  0  0  0  0  0
   36.6330   25.1430   32.0420 N   0  0  0  0  0  0  0  0  0  0  0  0
   36.1350   26.3490   31.7470 C   0  0  0  0  0  0  0  0  0  0  0  0
   35.4260   26.3930   30.7220 O   0  0  0  0  0  0  0  0  0  0  0  0
   37.3010   28.2370   34.1460 H   0  0  0  0  0  0  0  0  0  0  0  0
   35.7800   30.7330   30.7350 C   0  0  0  0  0  0  0  0  0  0  0  0
   36.3700   29.5170   31.1290 C   0  0  0  0  0  0  0  0  0  0  0  0
   35.7470   28.6810   32.0200 C   0  0  0  0  0  0  0  0  0  0  0  0
   34.5410   29.0770   32.5030 N   0  0  0  0  0  0  0  0  0  0  0  0
   33.9440   30.2390   32.1460 C   0  0  0  0  0  0  0  0  0  0  0  0
   34.5640   31.0670   31.2620 N   0  0  0  0  0  0  0  0  0  0  0  0
   36.1940   31.4320   30.0530 H   0  0  0  0  0  0  0  0  0  0  0  0
   37.3080   29.3930   30.6520 H   0  0  0  0  0  0  0  0  0  0  0  0
   32.9840   30.4520   32.5950 H   0  0  0  0  0  0  0  0  0  0  0  0
   36.3690   23.9690   31.2250 C   0  0  0  0  0  0  0  0  0  0  0  0
   35.1400   24.0640   30.6570 F   0  0  0  0  0  0  0  0  0  0  0  0
   36.3650   22.7940   31.9600 F   0  0  0  0  0  0  0  0  0  0  0  0
   37.3140   23.8990   30.2100 F   0  0  0  0  0  0  0  0  0  0  0  0
   38.5170   26.0820   35.1600 C   0  0  0  0  0  3  0  0  0  0  0  0
   39.8520   26.7700   35.1140 C   0  0  0  0  0  2  0  0  0  0  0  0
   38.7580   27.2420   36.0160 C   0  0  0  0  0  2  0  0  0  0  0  0
  1  2  1  0  0  0  0
  2  3  2  0  0  0  0
  2  9  1  0  0  0  0
  3 23  1  0  0  0  0
  4  5  2  0  0  0  0
  4  3  1  0  0  0  0
  6  4  1  0  0  0  0
  7  6  1  0  0  0  0
  7  1  1  0  0  0  0
  8  7  2  0  0  0  0
 10 11  2  0  0  0  0
 10 15  1  0  0  0  0
 11 12  1  0  0  0  0
 12  1  1  0  0  0  0
 12 13  2  0  0  0  0
 14 13  1  0  0  0  0
 14 18  1  0  0  0  0
 15 14  2  0  0  0  0
 16 10  1  0  0  0  0
 17 11  1  0  0  0  0
 19 21  1  0  0  0  0
 19  6  1  0  0  0  0
 20 19  1  0  0  0  0
 22 19  1  0  0  0  0
 23 25  1  0  0  0  0
 24 23  1  0  0  0  0
 24 25  1  0  0  0  0
M  END
>  <minimizedAffinity>
-5.29410696

$$$$

 OpenBabel03272505283D

 25 27  0  0  0  0  0  0  0  0999 V2000
   37.9960   23.0620   34.2990 N   0  0  0  0  0  0  0  0  0  0  0  0
   38.0970   24.3080   33.7580 C   0  0  0  0  0  0  0  0  0  0  0  0
   38.2350   25.4390   34.5500 C   0  0  0  0  0  0  0  0  0  0  0  0
   38.2690   25.2530   35.9360 C   0  0  0  0  0  0  0  0  0  0  0  0
   38.3940   26.2480   36.7010 O   0  0  0  0  0  0  0  0  0  0  0  0
   38.1690   24.0030   36.4710 N   0  0  0  0  0  0  0  0  0  0  0  0
   38.0380   22.9860   35.6110 C   0  0  0  0  0  0  0  0  0  0  0  0
   37.9470   21.8580   36.1360 O   0  0  0  0  0  0  0  0  0  0  0  0
   38.0740   24.4690   32.7000 H   0  0  0  0  0  0  0  0  0  0  0  0
   38.7760   20.1760   32.0920 C   0  0  0  0  0  0  0  0  0  0  0  0
   38.9350   21.3180   32.9000 C   0  0  0  0  0  0  0  0  0  0  0  0
   37.8570   21.9280   33.4880 C   0  0  0  0  0  0  0  0  0  0  0  0
   36.6340   21.3820   33.2570 N   0  0  0  0  0  0  0  0  0  0  0  0
   36.4440   20.2850   32.4860 C   0  0  0  0  0  0  0  0  0  0  0  0
   37.5160   19.6820   31.9040 N   0  0  0  0  0  0  0  0  0  0  0  0
   39.5550   19.6470   31.6040 H   0  0  0  0  0  0  0  0  0  0  0  0
   39.9570   21.5930   32.9490 H   0  0  0  0  0  0  0  0  0  0  0  0
   35.4270   19.9400   32.3710 H   0  0  0  0  0  0  0  0  0  0  0  0
   38.2060   23.8060   37.9110 C   0  0  0  0  0  0  0  0  0  0  0  0
   37.2420   22.9280   38.2870 F   0  0  0  0  0  0  0  0  0  0  0  0
   37.9620   24.9730   38.6180 F   0  0  0  0  0  0  0  0  0  0  0  0
   39.4400   23.2770   38.2680 F   0  0  0  0  0  0  0  0  0  0  0  0
   38.3450   26.8080   33.9700 C   0  0  0  0  0  3  0  0  0  0  0  0
   39.6920   27.2150   33.4440 C   0  0  0  0  0  2  0  0  0  0  0  0
   38.5260   27.0100   32.5340 C   0  0  0  0  0  2  0  0  0  0  0  0
  1  7  1  0  0  0  0
  2  1  1  0  0  0  0
  2  3  2  0  0  0  0
  3  4  1  0  0  0  0
  4  6  1  0  0  0  0
  4  5  2  0  0  0  0
  6 19  1  0  0  0  0
  7  8  2  0  0  0  0
  7  6  1  0  0  0  0
  9  2  1  0  0  0  0
 10 11  1  0  0  0  0
 11 17  1  0  0  0  0
 11 12  2  0  0  0  0
 12  1  1  0  0  0  0
 13 12  1  0  0  0  0
 14 13  2  0  0  0  0
 15 10  2  0  0  0  0
 15 14  1  0  0  0  0
 16 10  1  0  0  0  0
 18 14  1  0  0  0  0
 19 22  1  0  0  0  0
 19 20  1  0  0  0  0
 19 21  1  0  0  0  0
 23  3  1  0  0  0  0
 24 23  1  0  0  0  0
 25 24  1  0  0  0  0
 25 23  1  0  0  0  0
M  END
>  <minimizedAffinity>
-5.27676773

$$$$

 OpenBabel03272505283D

 25 27  0  0  0  0  0  0  0  0999 V2000
   37.6830   22.5450   34.1460 N   0  0  0  0  0  0  0  0  0  0  0  0
   36.8630   21.4870   33.8960 C   0  0  0  0  0  0  0  0  0  0  0  0
   36.0780   21.4250   32.7540 C   0  0  0  0  0  0  0  0  0  0  0  0
   36.1590   22.4970   31.8600 C   0  0  0  0  0  0  0  0  0  0  0  0
   35.4670   22.4900   30.8050 O   0  0  0  0  0  0  0  0  0  0  0  0
   36.9830   23.5530   32.1150 N   0  0  0  0  0  0  0  0  0  0  0  0
   37.6930   23.5060   33.2480 C   0  0  0  0  0  0  0  0  0  0  0  0
   38.4330   24.4890   33.4500 O   0  0  0  0  0  0  0  0  0  0  0  0
   36.7890   20.6570   34.5690 H   0  0  0  0  0  0  0  0  0  0  0  0
   38.8170   23.1890   37.6260 C   0  0  0  0  0  0  0  0  0  0  0  0
   38.0130   23.1520   36.4710 C   0  0  0  0  0  0  0  0  0  0  0  0
   38.4710   22.5960   35.3040 C   0  0  0  0  0  0  0  0  0  0  0  0
   39.7300   22.0860   35.3130 N   0  0  0  0  0  0  0  0  0  0  0  0
   40.5310   22.1060   36.4050 C   0  0  0  0  0  0  0  0  0  0  0  0
   40.0740   22.6570   37.5620 N   0  0  0  0  0  0  0  0  0  0  0  0
   38.5390   23.5990   38.5640 H   0  0  0  0  0  0  0  0  0  0  0  0
   37.0750   23.6050   36.6630 H   0  0  0  0  0  0  0  0  0  0  0  0
   41.5150   21.6720   36.2960 H   0  0  0  0  0  0  0  0  0  0  0  0
   37.0710   24.6680   31.1860 C   0  0  0  0  0  0  0  0  0  0  0  0
   37.5630   25.7640   31.8180 F   0  0  0  0  0  0  0  0  0  0  0  0
   35.8370   25.0390   30.6740 F   0  0  0  0  0  0  0  0  0  0  0  0
   37.9380   24.3350   30.1540 F   0  0  0  0  0  0  0  0  0  0  0  0
   35.1770   20.2720   32.4700 C   0  0  0  0  0  3  0  0  0  0  0  0
   35.7240   19.1840   31.5900 C   0  0  0  0  0  2  0  0  0  0  0  0
   35.4350   18.9510   33.0370 C   0  0  0  0  0  2  0  0  0  0  0  0
  1 12  1  0  0  0  0
  2  1  1  0  0  0  0
  2  9  1  0  0  0  0
  3  2  2  0  0  0  0
  4  6  1  0  0  0  0
  4  3  1  0  0  0  0
  5  4  2  0  0  0  0
  6  7  1  0  0  0  0
  7  8  2  0  0  0  0
  7  1  1  0  0  0  0
 10 16  1  0  0  0  0
 11 17  1  0  0  0  0
 11 10  2  0  0  0  0
 12 13  2  0  0  0  0
 12 11  1  0  0  0  0
 13 14  1  0  0  0  0
 14 15  2  0  0  0  0
 15 10  1  0  0  0  0
 18 14  1  0  0  0  0
 19 20  1  0  0  0  0
 19  6  1  0  0  0  0
 21 19  1  0  0  0  0
 22 19  1  0  0  0  0
 23  3  1  0  0  0  0
 23 25  1  0  0  0  0
 24 23  1  0  0  0  0
 24 25  1  0  0  0  0
M  END
>  <minimizedAffinity>
-5.21811295

$$$$

 OpenBabel03272505283D

 25 27  0  0  0  0  0  0  0  0999 V2000
   38.8730   24.2420   34.8170 N   0  0  0  0  0  0  0  0  0  0  0  0
   39.9740   23.4660   34.6140 C   0  0  0  0  0  0  0  0  0  0  0  0
   40.5860   22.7810   35.6550 C   0  0  0  0  0  0  0  0  0  0  0  0
   40.0270   22.9160   36.9290 C   0  0  0  0  0  0  0  0  0  0  0  0
   40.5440   22.3130   37.9100 O   0  0  0  0  0  0  0  0  0  0  0  0
   38.9240   23.6930   37.1250 N   0  0  0  0  0  0  0  0  0  0  0  0
   38.4180   24.3070   36.0490 C   0  0  0  0  0  0  0  0  0  0  0  0
   37.4120   25.0110   36.2660 O   0  0  0  0  0  0  0  0  0  0  0  0
   40.4150   23.3510   33.6460 H   0  0  0  0  0  0  0  0  0  0  0  0
   36.7910   25.0180   31.8380 C   0  0  0  0  0  0  0  0  0  0  0  0
   37.3980   24.3100   32.8930 C   0  0  0  0  0  0  0  0  0  0  0  0
   38.2640   24.9290   33.7580 C   0  0  0  0  0  0  0  0  0  0  0  0
   38.5090   26.2490   33.5510 N   0  0  0  0  0  0  0  0  0  0  0  0
   37.9440   26.9600   32.5460 C   0  0  0  0  0  0  0  0  0  0  0  0
   37.0850   26.3440   31.6900 N   0  0  0  0  0  0  0  0  0  0  0  0
   36.1120   24.6150   31.1290 H   0  0  0  0  0  0  0  0  0  0  0  0
   37.0880   23.2970   32.8810 H   0  0  0  0  0  0  0  0  0  0  0  0
   38.2140   28.0050   32.4770 H   0  0  0  0  0  0  0  0  0  0  0  0
   38.3390   23.8330   38.4490 C   0  0  0  0  0  0  0  0  0  0  0  0
   37.7750   25.0600   38.5820 F   0  0  0  0  0  0  0  0  0  0  0  0
   39.2780   23.7270   39.4640 F   0  0  0  0  0  0  0  0  0  0  0  0
   37.3450   22.8770   38.6120 F   0  0  0  0  0  0  0  0  0  0  0  0
   41.7920   21.9300   35.4450 C   0  0  0  0  0  3  0  0  0  0  0  0
   42.9080   22.5240   34.6340 C   0  0  0  0  0  2  0  0  0  0  0  0
   43.0630   22.2450   36.0930 C   0  0  0  0  0  2  0  0  0  0  0  0
  1  7  1  0  0  0  0
  2  1  1  0  0  0  0
  2  3  2  0  0  0  0
  3  4  1  0  0  0  0
  4  6  1  0  0  0  0
  4  5  2  0  0  0  0
  6 19  1  0  0  0  0
  7  8  2  0  0  0  0
  7  6  1  0  0  0  0
  9  2  1  0  0  0  0
 10 11  1  0  0  0  0
 11 12  2  0  0  0  0
 12  1  1  0  0  0  0
 13 12  1  0  0  0  0
 14 13  2  0  0  0  0
 15 10  2  0  0  0  0
 15 14  1  0  0  0  0
 16 10  1  0  0  0  0
 17 11  1  0  0  0  0
 18 14  1  0  0  0  0
 19 20  1  0  0  0  0
 19 22  1  0  0  0  0
 19 21  1  0  0  0  0
 23  3  1  0  0  0  0
 23 25  1  0  0  0  0
 24 23  1  0  0  0  0
 24 25  1  0  0  0  0
M  END
>  <minimizedAffinity>
-5.19789934

$$$$

 OpenBabel03272505283D

 25 27  0  0  0  0  0  0  0  0999 V2000
   38.1190   23.4760   34.2610 N   0  0  0  0  0  0  0  0  0  0  0  0
   38.2470   24.6910   33.6590 C   0  0  0  0  0  0  0  0  0  0  0  0
   37.6340   24.9730   32.4460 C   0  0  0  0  0  0  0  0  0  0  0  0
   36.8730   23.9570   31.8600 C   0  0  0  0  0  0  0  0  0  0  0  0
   36.2940   24.1620   30.7580 O   0  0  0  0  0  0  0  0  0  0  0  0
   36.7480   22.7430   32.4680 N   0  0  0  0  0  0  0  0  0  0  0  0
   37.3840   22.5830   33.6350 C   0  0  0  0  0  0  0  0  0  0  0  0
   37.2500   21.4610   34.1610 O   0  0  0  0  0  0  0  0  0  0  0  0
   38.8250   25.4800   34.0940 H   0  0  0  0  0  0  0  0  0  0  0  0
   38.8410   23.3120   37.9030 C   0  0  0  0  0  0  0  0  0  0  0  0
   38.2020   23.6000   36.6820 C   0  0  0  0  0  0  0  0  0  0  0  0
   38.7440   23.2030   35.4860 C   0  0  0  0  0  0  0  0  0  0  0  0
   39.9190   22.5240   35.5330 N   0  0  0  0  0  0  0  0  0  0  0  0
   40.5610   22.2300   36.6890 C   0  0  0  0  0  0  0  0  0  0  0  0
   40.0220   22.6250   37.8740 N   0  0  0  0  0  0  0  0  0  0  0  0
   38.4900   23.5820   38.8670 H   0  0  0  0  0  0  0  0  0  0  0  0
   37.3090   24.1420   36.8550 H   0  0  0  0  0  0  0  0  0  0  0  0
   41.4910   21.6850   36.6050 H   0  0  0  0  0  0  0  0  0  0  0  0
   35.9550   21.6860   31.8610 C   0  0  0  0  0  0  0  0  0  0  0  0
   35.3090   22.1590   30.7650 F   0  0  0  0  0  0  0  0  0  0  0  0
   34.9710   21.2000   32.7100 F   0  0  0  0  0  0  0  0  0  0  0  0
   36.7970   20.6570   31.4620 F   0  0  0  0  0  0  0  0  0  0  0  0
   37.7670   26.2980   31.7780 C   0  0  0  0  0  3  0  0  0  0  0  0
   36.8680   27.3980   32.2670 C   0  0  0  0  0  2  0  0  0  0  0  0
   38.3460   27.4440   32.4750 C   0  0  0  0  0  2  0  0  0  0  0  0
  1 12  1  0  0  0  0
  2  9  1  0  0  0  0
  2  1  1  0  0  0  0
  3  2  2  0  0  0  0
  4  3  1  0  0  0  0
  4  6  1  0  0  0  0
  5  4  2  0  0  0  0
  6  7  1  0  0  0  0
  7  8  2  0  0  0  0
  7  1  1  0  0  0  0
 10 16  1  0  0  0  0
 11 17  1  0  0  0  0
 11 10  2  0  0  0  0
 12 13  2  0  0  0  0
 12 11  1  0  0  0  0
 13 14  1  0  0  0  0
 14 15  2  0  0  0  0
 15 10  1  0  0  0  0
 18 14  1  0  0  0  0
 19  6  1  0  0  0  0
 19 21  1  0  0  0  0
 20 19  1  0  0  0  0
 22 19  1  0  0  0  0
 23 24  1  0  0  0  0
 23  3  1  0  0  0  0
 23 25  1  0  0  0  0
 24 25  1  0  0  0  0
M  END
>  <minimizedAffinity>
-5.12086725

$$$$

 OpenBabel03272505283D

 25 27  0  0  0  0  0  0  0  0999 V2000
   37.9380   22.8310   34.7920 N   0  0  0  0  0  0  0  0  0  0  0  0
   38.3890   23.6050   33.7660 C   0  0  0  0  0  0  0  0  0  0  0  0
   37.9980   23.3790   32.4540 C   0  0  0  0  0  0  0  0  0  0  0  0
   37.1170   22.3200   32.2190 C   0  0  0  0  0  0  0  0  0  0  0  0
   36.7290   22.0720   31.0450 O   0  0  0  0  0  0  0  0  0  0  0  0
   36.6670   21.5490   33.2510 N   0  0  0  0  0  0  0  0  0  0  0  0
   37.1110   21.8590   34.4750 C   0  0  0  0  0  0  0  0  0  0  0  0
   36.6810   21.1320   35.3930 O   0  0  0  0  0  0  0  0  0  0  0  0
   39.0640   24.4210   33.9270 H   0  0  0  0  0  0  0  0  0  0  0  0
   39.9090   22.8350   37.9420 C   0  0  0  0  0  0  0  0  0  0  0  0
   39.5190   22.5810   36.6130 C   0  0  0  0  0  0  0  0  0  0  0  0
   38.3390   23.0700   36.1130 C   0  0  0  0  0  0  0  0  0  0  0  0
   37.5670   23.8050   36.9550 N   0  0  0  0  0  0  0  0  0  0  0  0
   37.9110   24.0690   38.2380 C   0  0  0  0  0  0  0  0  0  0  0  0
   39.0820   23.5840   38.7310 N   0  0  0  0  0  0  0  0  0  0  0  0
   40.8030   22.4960   38.4030 H   0  0  0  0  0  0  0  0  0  0  0  0
   40.2470   21.9850   36.1250 H   0  0  0  0  0  0  0  0  0  0  0  0
   37.2180   24.6650   38.8160 H   0  0  0  0  0  0  0  0  0  0  0  0
   35.7480   20.4480   33.0100 C   0  0  0  0  0  0  0  0  0  0  0  0
   36.3630   19.4760   32.2900 F   0  0  0  0  0  0  0  0  0  0  0  0
   34.6370   20.8290   32.2740 F   0  0  0  0  0  0  0  0  0  0  0  0
   35.3560   19.9080   34.2270 F   0  0  0  0  0  0  0  0  0  0  0  0
   38.4870   24.2190   31.3230 C   0  0  0  0  0  3  0  0  0  0  0  0
   37.7290   25.4860   31.0430 C   0  0  0  0  0  2  0  0  0  0  0  0
   39.1300   25.5100   31.5600 C   0  0  0  0  0  2  0  0  0  0  0  0
  1 12  1  0  0  0  0
  2  9  1  0  0  0  0
  2  1  1  0  0  0  0
  3  2  2  0  0  0  0
  4  3  1  0  0  0  0
  4  6  1  0  0  0  0
  5  4  2  0  0  0  0
  6  7  1  0  0  0  0
  7  1  1  0  0  0  0
  7  8  2  0  0  0  0
 10 16  1  0  0  0  0
 10 15  1  0  0  0  0
 11 10  2  0  0  0  0
 12 11  1  0  0  0  0
 12 13  2  0  0  0  0
 13 14  1  0  0  0  0
 14 15  2  0  0  0  0
 14 18  1  0  0  0  0
 17 11  1  0  0  0  0
 19  6  1  0  0  0  0
 19 22  1  0  0  0  0
 20 19  1  0  0  0  0
 21 19  1  0  0  0  0
 23 25  1  0  0  0  0
 23  3  1  0  0  0  0
 24 23  1  0  0  0  0
 24 25  1  0  0  0  0
M  END
>  <minimizedAffinity>
-5.10282183

$$$$

 OpenBabel03272505283D

 25 27  0  0  0  0  0  0  0  0999 V2000
   37.9200   22.6980   34.3480 N   0  0  0  0  0  0  0  0  0  0  0  0
   37.1270   21.6510   33.9870 C   0  0  0  0  0  0  0  0  0  0  0  0
   36.3290   21.6960   32.8520 C   0  0  0  0  0  0  0  0  0  0  0  0
   36.3680   22.8650   32.0860 C   0  0  0  0  0  0  0  0  0  0  0  0
   35.6620   22.9580   31.0440 O   0  0  0  0  0  0  0  0  0  0  0  0
   37.1650   23.9090   32.4520 N   0  0  0  0  0  0  0  0  0  0  0  0
   37.8910   23.7550   33.5650 C   0  0  0  0  0  0  0  0  0  0  0  0
   38.6060   24.7300   33.8710 O   0  0  0  0  0  0  0  0  0  0  0  0
   37.0850   20.7490   34.5610 H   0  0  0  0  0  0  0  0  0  0  0  0
   40.7640   22.0310   36.6440 C   0  0  0  0  0  0  0  0  0  0  0  0
   39.9710   22.0750   35.4820 C   0  0  0  0  0  0  0  0  0  0  0  0
   38.7210   22.6400   35.4960 C   0  0  0  0  0  0  0  0  0  0  0  0
   38.2860   23.1510   36.6770 N   0  0  0  0  0  0  0  0  0  0  0  0
   39.0210   23.1250   37.8130 C   0  0  0  0  0  0  0  0  0  0  0  0
   40.2610   22.5640   37.7970 N   0  0  0  0  0  0  0  0  0  0  0  0
   41.7370   21.6140   36.7170 H   0  0  0  0  0  0  0  0  0  0  0  0
   40.4810   21.6200   34.6720 H   0  0  0  0  0  0  0  0  0  0  0  0
   38.5720   23.5600   38.6950 H   0  0  0  0  0  0  0  0  0  0  0  0
   37.2100   25.1250   31.6550 C   0  0  0  0  0  0  0  0  0  0  0  0
   37.1370   24.8190   30.3340 F   0  0  0  0  0  0  0  0  0  0  0  0
   38.3910   25.8320   31.8230 F   0  0  0  0  0  0  0  0  0  0  0  0
   36.1210   25.9230   31.9790 F   0  0  0  0  0  0  0  0  0  0  0  0
   35.4570   20.5570   32.4480 C   0  0  0  0  0  3  0  0  0  0  0  0
   36.1220   19.4130   31.7370 C   0  0  0  0  0  2  0  0  0  0  0  0
   35.5520   19.2580   33.1090 C   0  0  0  0  0  2  0  0  0  0  0  0
  1 12  1  0  0  0  0
  2  1  1  0  0  0  0
  2  9  1  0  0  0  0
  3  2  2  0  0  0  0
  4  6  1  0  0  0  0
  4  3  1  0  0  0  0
  5  4  2  0  0  0  0
  6  7  1  0  0  0  0
  7  8  2  0  0  0  0
  7  1  1  0  0  0  0
 10 16  1  0  0  0  0
 10 15  1  0  0  0  0
 11 12  1  0  0  0  0
 11 10  2  0  0  0  0
 12 13  2  0  0  0  0
 13 14  1  0  0  0  0
 14 18  1  0  0  0  0
 15 14  2  0  0  0  0
 17 11  1  0  0  0  0
 19 21  1  0  0  0  0
 19 22  1  0  0  0  0
 19  6  1  0  0  0  0
 20 19  1  0  0  0  0
 23  3  1  0  0  0  0
 23 25  1  0  0  0  0
 24 23  1  0  0  0  0
 24 25  1  0  0  0  0
M  END
>  <minimizedAffinity>
-5.03627634

$$$$

 OpenBabel03272505283D

 25 27  0  0  0  0  0  0  0  0999 V2000
   35.9330   29.3960   34.2000 N   0  0  0  0  0  0  0  0  0  0  0  0
   36.6300   28.3680   34.7580 C   0  0  0  0  0  0  0  0  0  0  0  0
   37.3830   27.4920   33.9880 C   0  0  0  0  0  0  0  0  0  0  0  0
   37.4010   27.7040   32.6060 C   0  0  0  0  0  0  0  0  0  0  0  0
   38.0700   26.9380   31.8610 O   0  0  0  0  0  0  0  0  0  0  0  0
   36.7010   28.7360   32.0530 N   0  0  0  0  0  0  0  0  0  0  0  0
   36.0100   29.5170   32.8920 C   0  0  0  0  0  0  0  0  0  0  0  0
   35.3810   30.4480   32.3520 O   0  0  0  0  0  0  0  0  0  0  0  0
   36.6290   28.1910   35.8140 H   0  0  0  0  0  0  0  0  0  0  0  0
   34.9820   32.1470   36.5090 C   0  0  0  0  0  0  0  0  0  0  0  0
   35.7590   31.2720   35.7270 C   0  0  0  0  0  0  0  0  0  0  0  0
   35.1770   30.2740   34.9880 C   0  0  0  0  0  0  0  0  0  0  0  0
   33.8240   30.1690   35.0450 N   0  0  0  0  0  0  0  0  0  0  0  0
   33.0460   30.9930   35.7870 C   0  0  0  0  0  0  0  0  0  0  0  0
   33.6260   31.9830   36.5190 N   0  0  0  0  0  0  0  0  0  0  0  0
   35.3530   32.9420   37.1060 H   0  0  0  0  0  0  0  0  0  0  0  0
   36.7870   31.5090   35.8220 H   0  0  0  0  0  0  0  0  0  0  0  0
   31.9800   30.8150   35.7570 H   0  0  0  0  0  0  0  0  0  0  0  0
   36.7200   28.9610   30.6170 C   0  0  0  0  0  0  0  0  0  0  0  0
   37.9720   29.2970   30.2140 F   0  0  0  0  0  0  0  0  0  0  0  0
   35.8960   30.0060   30.2270 F   0  0  0  0  0  0  0  0  0  0  0  0
   36.3530   27.7900   29.9670 F   0  0  0  0  0  0  0  0  0  0  0  0
   38.1490   26.3640   34.5890 C   0  0  0  0  0  3  0  0  0  0  0  0
   39.4900   26.6940   35.1820 C   0  0  0  0  0  2  0  0  0  0  0  0
   38.3410   26.2610   36.0330 C   0  0  0  0  0  2  0  0  0  0  0  0
  1  2  1  0  0  0  0
  1 12  1  0  0  0  0
  2  9  1  0  0  0  0
  3 23  1  0  0  0  0
  3  2  2  0  0  0  0
  4  3  1  0  0  0  0
  5  4  2  0  0  0  0
  6  4  1  0  0  0  0
  6  7  1  0  0  0  0
  7  1  1  0  0  0  0
  8  7  2  0  0  0  0
 10 15  1  0  0  0  0
 10 16  1  0  0  0  0
 11 17  1  0  0  0  0
 11 10  2  0  0  0  0
 12 13  2  0  0  0  0
 12 11  1  0  0  0  0
 13 14  1  0  0  0  0
 14 15  2  0  0  0  0
 18 14  1  0  0  0  0
 19  6  1  0  0  0  0
 20 19  1  0  0  0  0
 21 19  1  0  0  0  0
 22 19  1  0  0  0  0
 23 24  1  0  0  0  0
 23 25  1  0  0  0  0
 24 25  1  0  0  0  0
M  END
>  <minimizedAffinity>
-5.01214457

$$$$

 OpenBabel03272505283D

 25 27  0  0  0  0  0  0  0  0999 V2000
   38.0310   24.2000   34.5710 N   0  0  0  0  0  0  0  0  0  0  0  0
   37.7750   23.3060   33.5760 C   0  0  0  0  0  0  0  0  0  0  0  0
   37.2940   23.7090   32.3380 C   0  0  0  0  0  0  0  0  0  0  0  0
   37.0790   25.0770   32.1460 C   0  0  0  0  0  0  0  0  0  0  0  0
   36.6430   25.4970   31.0400 O   0  0  0  0  0  0  0  0  0  0  0  0
   37.3380   25.9670   33.1460 N   0  0  0  0  0  0  0  0  0  0  0  0
   37.7990   25.4660   34.2980 C   0  0  0  0  0  0  0  0  0  0  0  0
   38.0230   26.3080   35.1900 O   0  0  0  0  0  0  0  0  0  0  0  0
   37.9340   22.2550   33.7040 H   0  0  0  0  0  0  0  0  0  0  0  0
   40.2730   22.9110   37.2400 C   0  0  0  0  0  0  0  0  0  0  0  0
   39.8000   23.3230   35.9790 C   0  0  0  0  0  0  0  0  0  0  0  0
   38.5180   23.7810   35.8170 C   0  0  0  0  0  0  0  0  0  0  0  0
   37.7280   23.8170   36.9210 N   0  0  0  0  0  0  0  0  0  0  0  0
   38.1490   23.4280   38.1480 C   0  0  0  0  0  0  0  0  0  0  0  0
   39.4220   22.9750   38.3070 N   0  0  0  0  0  0  0  0  0  0  0  0
   41.2470   22.5470   37.4490 H   0  0  0  0  0  0  0  0  0  0  0  0
   40.5590   23.2110   35.2490 H   0  0  0  0  0  0  0  0  0  0  0  0
   37.4330   23.5000   38.9550 H   0  0  0  0  0  0  0  0  0  0  0  0
   37.1190   27.3920   32.9490 C   0  0  0  0  0  0  0  0  0  0  0  0
   36.9960   28.0140   34.1490 F   0  0  0  0  0  0  0  0  0  0  0  0
   35.9510   27.6620   32.2520 F   0  0  0  0  0  0  0  0  0  0  0  0
   38.2110   27.9340   32.2870 F   0  0  0  0  0  0  0  0  0  0  0  0
   37.0090   22.7400   31.2420 C   0  0  0  0  0  3  0  0  0  0  0  0
   38.1950   22.1680   30.5180 C   0  0  0  0  0  2  0  0  0  0  0  0
   37.3230   21.3200   31.3850 C   0  0  0  0  0  2  0  0  0  0  0  0
  1 12  1  0  0  0  0
  2  9  1  0  0  0  0
  2  1  1  0  0  0  0
  3  2  2  0  0  0  0
  4  3  1  0  0  0  0
  4  6  1  0  0  0  0
  5  4  2  0  0  0  0
  6  7  1  0  0  0  0
  7  1  1  0  0  0  0
  7  8  2  0  0  0  0
 10 16  1  0  0  0  0
 10 15  1  0  0  0  0
 11 10  2  0  0  0  0
 12 11  1  0  0  0  0
 12 13  2  0  0  0  0
 13 14  1  0  0  0  0
 14 15  2  0  0  0  0
 14 18  1  0  0  0  0
 17 11  1  0  0  0  0
 19  6  1  0  0  0  0
 19 20  1  0  0  0  0
 21 19  1  0  0  0  0
 22 19  1  0  0  0  0
 23 25  1  0  0  0  0
 23  3  1  0  0  0  0
 24 23  1  0  0  0  0
 24 25  1  0  0  0  0
M  END
>  <minimizedAffinity>
-4.91808891

$$$$
