
     RDKit          3D

 36 38  0  0  0  0  0  0  0  0999 V2000
   38.1731   31.2412   44.9318 C   0  0  0  0  0  0  0  0  0  0  0  0
   37.3513   30.9371   45.9705 C   0  0  0  0  0  0  0  0  0  0  0  0
   36.1145   30.3464   45.7308 C   0  0  0  0  0  0  0  0  0  0  0  0
   35.6668   30.0491   44.4566 C   0  0  0  0  0  0  0  0  0  0  0  0
   36.4673   30.3453   43.3825 C   0  0  0  0  0  0  0  0  0  0  0  0
   37.6814   30.9257   43.6551 C   0  0  0  0  0  0  0  0  0  0  0  0
   38.6827   32.7823   48.8600 C   0  0  0  0  0  0  0  0  0  0  0  0
   38.3128   32.4468   47.5681 C   0  0  0  0  0  0  0  0  0  0  0  0
   37.7027   31.2496   47.3121 C   0  0  0  0  0  0  0  0  0  0  0  0
   37.4809   30.4305   48.3748 N   0  0  0  0  0  0  0  0  0  0  0  0
   37.8331   30.7533   49.6240 C   0  0  0  0  0  0  0  0  0  0  0  0
   38.4335   31.9252   49.8576 N   0  0  0  0  0  0  0  0  0  0  0  0
   37.4641   29.7900   50.6957 C   0  0  0  0  0  0  0  0  0  0  0  0
   37.7148   30.2958   51.9560 F   0  0  0  0  0  0  0  0  0  0  0  0
   36.0250   29.6389   50.7045 F   0  0  0  0  0  0  0  0  0  0  0  0
   37.9016   28.5578   50.5733 F   0  0  0  0  0  0  0  0  0  0  0  0
   39.7241   31.9299   45.0962 S   0  0  0  0  0  0  0  0  0  0  0  0
   39.6828   33.4105   44.8876 O   0  0  0  0  0  0  0  0  0  0  0  0
   40.2746   31.5980   43.7305 O   0  0  0  0  0  0  0  0  0  0  0  0
   41.1091   31.2046   45.7413 C   0  0  0  0  0  0  0  0  0  0  0  0
   35.4738   30.1097   46.5919 H   0  0  0  0  0  0  0  0  0  0  0  0
   34.7081   29.5982   44.3793 H   0  0  0  0  0  0  0  0  0  0  0  0
   36.0748   30.0982   42.4321 H   0  0  0  0  0  0  0  0  0  0  0  0
   38.2193   31.1137   42.7162 H   0  0  0  0  0  0  0  0  0  0  0  0
   39.1647   33.6628   49.2321 H   0  0  0  0  0  0  0  0  0  0  0  0
   38.5831   33.2966   46.9899 H   0  0  0  0  0  0  0  0  0  0  0  0
   41.9401   31.8569   46.0213 H   0  0  0  0  0  0  0  0  0  0  0  0
   40.7939   30.8140   46.7693 H   0  0  0  0  0  0  0  0  0  0  0  0
   41.5382   29.9383   45.0553 C   0  0  0  0  0  0  0  0  0  0  0  0
   42.9609   30.0473   44.4664 C   0  0  0  0  0  0  0  0  0  0  0  0
   41.7384   29.8887   43.5889 C   0  0  0  0  0  0  0  0  0  0  0  0
   41.3413   29.0002   45.6040 H   0  0  0  0  0  0  0  0  0  0  0  0
   43.4190   31.0406   44.3762 H   0  0  0  0  0  0  0  0  0  0  0  0
   43.6353   29.2152   44.6712 H   0  0  0  0  0  0  0  0  0  0  0  0
   41.4331   30.6957   42.9153 H   0  0  0  0  0  0  0  0  0  0  0  0
   41.6571   28.8682   43.1333 H   0  0  0  0  0  0  0  0  0  0  0  0
  1 17  1  0
  1  2  1  0
  2  9  1  0
  3  2  2  0
  4  3  1  0
  5  6  1  0
  5  4  2  0
  6  1  2  0
  7 12  2  0
  8  7  1  0
  9  8  2  0
  9 10  1  0
 10 11  2  0
 11 12  1  0
 11 13  1  0
 13 15  1  0
 13 14  1  0
 16 13  1  0
 17 20  1  0
 18 17  2  0
 19 17  2  0
  3 21  1  0
  4 22  1  0
  5 23  1  0
  6 24  1  0
  7 25  1  0
  8 26  1  0
 20 27  1  0
 20 28  1  0
 29 30  1  0
 30 31  1  0
 31 29  1  0
 29 32  1  0
 30 33  1  0
 30 34  1  0
 31 35  1  0
 31 36  1  0
 20 29  1  0
M  ISO  8  21  14  22  14  23  14  24  14  25  14  26  14  27   8  28   8
M  END
>  <DihAtoms>  (1) 
16,19,28,29

>  <DihDeg>  (1) 
179.9971471880076

$$$$
