REMARK  Name = 
REMARK  3 active torsions:
REMARK  status: ('A' for Active; 'I' for Inactive)
REMARK    1  A    between atoms: C_1  and  C_7
REMARK    2  A    between atoms: C_5  and  C_10
REMARK    3  A    between atoms: C_10  and  C_20
REMARK                            x       y       z     vdW  Elec       q    Type
REMARK                         _______ _______ _______ _____ _____    ______ ____
ROOT
ATOM      1  C   UNL     1      37.368  31.368  49.205  0.00  0.00    +0.000 A 
ATOM      2  C   UNL     1      37.703  32.665  49.600  0.00  0.00    +0.000 A 
ATOM      3  C   UNL     1      38.580  33.338  48.778  0.00  0.00    +0.000 A 
ATOM      4  N   UNL     1      39.065  32.726  47.650  0.00  0.00    +0.000 NA
ATOM      5  C   UNL     1      38.704  31.451  47.307  0.00  0.00    +0.000 A 
ATOM      6  N   UNL     1      37.833  30.757  48.109  0.00  0.00    +0.000 NA
ATOM      7  H   UNL     1      37.296  33.107  50.498  0.00  0.00    +0.000 HD
ATOM      8  H   UNL     1      38.899  34.348  49.001  0.00  0.00    +0.000 HD
ENDROOT
BRANCH   1   9
ATOM      9  C   UNL     1      36.386  30.616  50.066  0.00  0.00    +0.000 C 
ATOM     10  C   UNL     1      36.255  29.182  50.043  0.00  0.00    +0.000 C 
ATOM     11  C   UNL     1      37.073  29.792  51.168  0.00  0.00    +0.000 C 
ATOM     12  H   UNL     1      35.539  31.264  50.445  0.00  0.00    +0.000 HD
ATOM     13  H   UNL     1      35.259  28.756  50.298  0.00  0.00    +0.000 HD
ATOM     14  H   UNL     1      36.825  28.551  49.333  0.00  0.00    +0.000 HD
ATOM     15  H   UNL     1      36.599  29.800  52.177  0.00  0.00    +0.000 HD
ATOM     16  H   UNL     1      38.165  29.717  51.168  0.00  0.00    +0.000 HD
ENDBRANCH   1   9
BRANCH   5  17
ATOM     17  C   UNL     1      39.198  30.777  46.098  0.00  0.00    +0.000 C 
ATOM     18  H   UNL     1      40.245  31.055  45.862  0.00  0.00    +0.000 HD
ATOM     19  H   UNL     1      39.209  29.681  46.272  0.00  0.00    +0.000 HD
BRANCH  17  20
ATOM     20  C   UNL     1      38.279  31.041  44.928  0.00  0.00    +0.000 C 
ATOM     21  C   UNL     1      37.599  29.945  44.217  0.00  0.00    +0.000 C 
ATOM     22  C   UNL     1      36.819  30.952  45.086  0.00  0.00    +0.000 C 
ENDBRANCH  17  20
ENDBRANCH   5  17
TORSDOF 3
