
 OpenBabel03272508213D

 36 39  0  0  0  0  0  0  0  0999 V2000
   33.1830   28.1830   49.0960 C   0  0  0  0  0  0  0  0  0  0  0  0
   32.7550   29.1490   49.4280 H   0  0  0  0  0  0  0  0  0  0  0  0
   33.2450   27.5880   50.0610 H   0  0  0  0  0  0  0  0  0  0  0  0
   30.9530   27.3120   48.5660 C   0  0  0  0  0  0  0  0  0  0  0  0
   32.2700   27.4910   48.2440 C   0  0  0  0  0  0  0  0  0  0  0  0
   32.6180   26.8940   47.0790 C   0  0  0  0  0  0  0  0  0  0  0  0
   31.7760   26.1970   46.3140 N   0  0  0  0  0  0  0  0  0  0  0  0
   30.5080   26.0240   46.6300 C   0  0  0  0  0  0  0  0  0  0  0  0
   30.0740   26.5790   47.7640 N   0  0  0  0  0  0  0  0  0  0  0  0
   33.6450   26.9520   46.6840 H   0  0  0  0  0  0  0  0  0  0  0  0
   29.7290   25.4950   46.1180 H   0  0  0  0  0  0  0  0  0  0  0  0
   30.3260   28.0450   49.7490 C   0  0  0  0  0  0  0  0  0  0  0  0
   28.9830   28.3840   49.8200 C   0  0  0  0  0  0  0  0  0  0  0  0
   29.3020   27.0180   50.4000 C   0  0  0  0  0  0  0  0  0  0  0  0
   30.9690   28.4180   50.5030 H   0  0  0  0  0  0  0  0  0  0  0  0
   28.3350   28.3000   48.8970 H   0  0  0  0  0  0  0  0  0  0  0  0
   28.5620   29.1040   50.5170 H   0  0  0  0  0  0  0  0  0  0  0  0
   29.4010   26.8950   51.4740 H   0  0  0  0  0  0  0  0  0  0  0  0
   29.0360   26.1300   49.8520 H   0  0  0  0  0  0  0  0  0  0  0  0
   34.5700   28.3610   48.6110 C   0  0  0  0  0  0  0  0  0  0  0  0
   34.5050   28.9440   47.6460 H   0  0  0  0  0  0  0  0  0  0  0  0
   35.0180   27.3950   48.3020 H   0  0  0  0  0  0  0  0  0  0  0  0
   36.4290   30.0650   47.4630 F   0  0  0  0  0  0  0  0  0  0  0  0
   36.3850   29.8550   48.8030 C   0  0  0  0  0  0  0  0  0  0  0  0
   35.4890   29.0360   49.4760 C   0  0  0  0  0  0  0  0  0  0  0  0
   35.6330   28.9750   50.8220 C   0  0  0  0  0  0  0  0  0  0  0  0
   36.5640   29.6530   51.5230 C   0  0  0  0  0  0  0  0  0  0  0  0
   37.4550   30.4680   50.8520 C   0  0  0  0  0  0  0  0  0  0  0  0
   37.3550   30.5560   49.4750 C   0  0  0  0  0  0  0  0  0  0  0  0
   35.0640   28.3180   51.4100 H   0  0  0  0  0  0  0  0  0  0  0  0
   36.6520   29.5890   52.6160 H   0  0  0  0  0  0  0  0  0  0  0  0
   38.1860   30.9920   51.4850 H   0  0  0  0  0  0  0  0  0  0  0  0
   38.3100   31.3760   48.8670 O   0  0  0  0  0  0  0  0  0  0  0  0
   38.2850   32.6790   48.4960 C   0  0  0  0  0  0  0  0  0  0  0  0
   39.4310   33.3940   47.8840 C   0  0  0  0  0  0  0  0  0  0  0  0
   39.0510   33.6970   49.3130 C   0  0  0  0  0  0  0  0  0  0  0  0
  1  2  1  0  0  0  0
  1  3  1  0  0  0  0
  4 12  1  0  0  0  0
  5  4  1  0  0  0  0
  5  1  1  0  0  0  0
  6  5  2  0  0  0  0
  7  8  2  0  0  0  0
  7  6  1  0  0  0  0
  8  9  1  0  0  0  0
  9  4  2  0  0  0  0
 10  6  1  0  0  0  0
 11  8  1  0  0  0  0
 12 13  1  0  0  0  0
 12 14  1  0  0  0  0
 12 15  1  0  0  0  0
 13 14  1  0  0  0  0
 13 17  1  0  0  0  0
 14 18  1  0  0  0  0
 16 13  1  0  0  0  0
 19 14  1  0  0  0  0
 20  1  1  0  0  0  0
 20 25  1  0  0  0  0
 21 20  1  0  0  0  0
 22 20  1  0  0  0  0
 23 24  1  0  0  0  0
 24 29  2  0  0  0  0
 24 25  1  0  0  0  0
 25 26  2  0  0  0  0
 26 30  1  0  0  0  0
 26 27  1  0  0  0  0
 27 31  1  0  0  0  0
 28 32  1  0  0  0  0
 28 27  2  0  0  0  0
 29 28  1  0  0  0  0
 33 29  1  0  0  0  0
 34 33  1  0  0  0  0
 34 36  1  0  0  0  0
 35 34  1  0  0  0  0
 35 36  1  0  0  0  0
M  END
>  <minimizedAffinity>
-6.21237659

>  <minimizedRMSD>
4.6215148

$$$$
