
     RDKit          3D

 31 33  0  0  0  0  0  0  0  0999 V2000
   38.0121   30.3118   50.1865 C   0  0  0  0  0  0  0  0  0  0  0  0
   37.3980   30.4953   48.9289 C   0  0  0  0  0  0  0  0  0  0  0  0
   36.0650   30.1029   48.8065 C   0  0  0  0  0  0  0  0  0  0  0  0
   35.4327   29.5740   49.8786 N   0  0  0  0  0  0  0  0  0  0  0  0
   36.0587   29.4084   51.0899 C   0  0  0  0  0  0  0  0  0  0  0  0
   37.3625   29.7877   51.2246 N   0  0  0  0  0  0  0  0  0  0  0  0
   38.1988   31.0690   47.8880 C   0  0  0  0  0  0  0  0  0  0  0  0
   38.5265   30.2625   46.8212 C   0  0  0  0  0  0  0  0  0  0  0  0
   39.2924   30.6669   45.7370 C   0  0  0  0  0  0  0  0  0  0  0  0
   39.7732   31.9878   45.7133 C   0  0  0  0  0  0  0  0  0  0  0  0
   39.4469   32.7996   46.7809 C   0  0  0  0  0  0  0  0  0  0  0  0
   38.6825   32.3745   47.8498 C   0  0  0  0  0  0  0  0  0  0  0  0
   38.2601   33.4213   49.2294 S   0  0  0  0  0  0  0  0  0  0  0  0
   35.2915   30.2384   47.5381 C   0  0  0  0  0  0  0  0  0  0  0  0
   34.0178   30.7700   47.8317 F   0  0  0  0  0  0  0  0  0  0  0  0
   35.8506   30.9731   46.5557 F   0  0  0  0  0  0  0  0  0  0  0  0
   34.9918   28.9648   47.0387 F   0  0  0  0  0  0  0  0  0  0  0  0
   39.0438   30.6018   50.3264 H   0  0  0  0  0  0  0  0  0  0  0  0
   35.4076   28.9711   51.8400 H   0  0  0  0  0  0  0  0  0  0  0  0
   38.1895   29.2322   46.7736 H   0  0  0  0  0  0  0  0  0  0  0  0
   39.5338   30.0097   44.9123 H   0  0  0  0  0  0  0  0  0  0  0  0
   40.3731   32.3847   44.9133 H   0  0  0  0  0  0  0  0  0  0  0  0
   39.7571   33.8313   46.8761 H   0  0  0  0  0  0  0  0  0  0  0  0
   36.7345   34.3218   49.0054 C   0  0  0  0  0  0  0  0  0  0  0  0
   36.1858   34.9262   50.3059 C   0  0  0  0  0  0  0  0  0  0  0  0
   36.6028   35.7718   49.1420 C   0  0  0  0  0  0  0  0  0  0  0  0
   35.9473   33.7740   48.4496 H   0  0  0  0  0  0  0  0  0  0  0  0
   36.8793   35.0038   51.1844 H   0  0  0  0  0  0  0  0  0  0  0  0
   35.1419   34.7670   50.5826 H   0  0  0  0  0  0  0  0  0  0  0  0
   37.4509   36.4659   49.2359 H   0  0  0  0  0  0  0  0  0  0  0  0
   35.7463   36.2483   48.5919 H   0  0  0  0  0  0  0  0  0  0  0  0
  1  6  2  0
  2  1  1  0
  3  2  2  0
  3  4  1  0
  4  5  2  0
  5  6  1  0
  7  2  1  0
  8  7  2  0
  9  8  1  0
 10  9  2  0
 10 11  1  0
 11 12  2  0
 12  7  1  0
 12 13  1  0
 14 15  1  0
 14  3  1  0
 16 14  1  0
 17 14  1  0
  1 18  1  0
  5 19  1  0
  8 20  1  0
  9 21  1  0
 10 22  1  0
 11 23  1  0
 24 25  1  0
 25 26  1  0
 26 24  1  0
 24 27  1  0
 25 28  1  0
 25 29  1  0
 26 30  1  0
 26 31  1  0
 13 24  1  0
M  ISO  6  18  14  19  14  20  14  21  14  22  14  23  14
M  END
>  <DihAtoms>  (1) 
11,12,23,24

>  <DihDeg>  (1) 
179.99894432418282

$$$$
