
 OpenBabel03272501053D

 24 26  0  0  1  0  0  0  0  0999 V2000
   38.6100   31.4680   47.7930 C   0  0  2  0  0  0  0  0  0  0  0  0
   37.6150   32.1180   48.7910 C   0  0  2  0  0  0  0  0  0  0  0  0
   38.5320   33.0750   49.4330 C   0  0  0  0  0  0  0  0  0  0  0  0
   39.3350   33.5910   48.4200 O   0  0  0  0  0  0  0  0  0  0  0  0
   39.2690   32.7630   47.3310 C   0  0  0  0  0  0  0  0  0  0  0  0
   39.2950   30.7900   48.2990 H   0  0  0  0  0  0  0  0  0  0  0  0
   36.8950   32.6690   48.1310 H   0  0  0  0  0  0  0  0  0  0  0  0
   38.0540   33.8630   50.0450 H   0  0  0  0  0  0  0  0  0  0  0  0
   39.2220   32.5360   50.1180 H   0  0  0  0  0  0  0  0  0  0  0  0
   38.5750   33.2190   46.5940 H   0  0  0  0  0  0  0  0  0  0  0  0
   40.2470   32.5750   46.8510 H   0  0  0  0  0  0  0  0  0  0  0  0
   36.9370   29.6650   51.5670 C   0  0  0  0  0  0  0  0  0  0  0  0
   37.6110   30.6230   50.7670 C   0  0  0  0  0  0  0  0  0  0  0  0
   36.9580   31.1540   49.6300 C   0  0  0  0  0  0  0  0  0  0  0  0
   35.6920   30.7030   49.3620 N   0  0  0  0  0  0  0  0  0  0  0  0
   35.0830   29.7970   50.1370 C   0  0  0  0  0  0  0  0  0  0  0  0
   35.6820   29.2690   51.2350 N   0  0  0  0  0  0  0  0  0  0  0  0
   37.5420   29.3420   52.4020 H   0  0  0  0  0  0  0  0  0  0  0  0
   38.6150   30.9660   50.9970 H   0  0  0  0  0  0  0  0  0  0  0  0
   34.0810   29.4710   49.8840 H   0  0  0  0  0  0  0  0  0  0  0  0
   37.9260   30.8770   46.7280 O   0  0  0  0  0  0  0  0  0  0  0  0
   38.6580   31.1440   45.5710 C   0  0  0  0  0  0  0  0  0  0  0  0
   37.9650   30.8440   44.2750 C   0  0  0  0  0  0  0  0  0  0  0  0
   39.1180   30.0070   44.7310 C   0  0  0  0  0  0  0  0  0  0  0  0
  1  6  1  1  0  0  0
  1  2  1  0  0  0  0
  2  7  1  6  0  0  0
  2  3  1  0  0  0  0
  2 14  1  0  0  0  0
  3  8  1  0  0  0  0
  3  9  1  0  0  0  0
  4  3  1  0  0  0  0
  5  1  1  0  0  0  0
  5  4  1  0  0  0  0
 10  5  1  0  0  0  0
 11  5  1  0  0  0  0
 12 18  1  0  0  0  0
 13 19  1  0  0  0  0
 13 12  2  0  0  0  0
 14 13  1  0  0  0  0
 15 14  2  0  0  0  0
 15 16  1  0  0  0  0
 16 17  2  0  0  0  0
 17 12  1  0  0  0  0
 20 16  1  0  0  0  0
 21  1  1  0  0  0  0
 22 21  1  0  0  0  0
 23 24  1  0  0  0  0
 23 22  1  0  0  0  0
 24 22  1  0  0  0  0
M  END
>  <minimizedAffinity>
-4.83170366

>  <minimizedRMSD>
1.95554936

$$$$
