
 OpenBabel03262520363D

 36 38  0  0  0  0  0  0  0  0999 V2000
   38.5950   26.7670   30.5790 O   0  0  0  0  0  0  0  0  0  0  0  0
   37.2130   27.1650   31.0910 P   0  0  2  0  0  0  0  0  0  0  0  0
   36.1010   27.2550   29.8100 O   0  0  0  0  0  0  0  0  0  0  0  0
   35.2160   26.9260   30.1240 H   0  0  0  0  0  0  0  0  0  0  0  0
   37.4220   28.7360   31.7260 O   0  0  0  0  0  0  0  0  0  0  0  0
   36.2460   29.4680   31.4850 C   0  0  0  0  0  0  0  0  0  0  0  0
   35.4770   28.7510   31.1410 H   0  0  0  0  0  0  0  0  0  0  0  0
   36.5040   30.2080   30.6840 H   0  0  0  0  0  0  0  0  0  0  0  0
   35.3080   29.5670   33.7590 C   0  0  0  0  0  3  0  0  0  0  0  0
   35.7730   30.1760   32.7010 C   0  0  0  0  0  3  0  0  0  0  0  0
   35.2530   31.8940   36.5930 C   0  0  0  0  0  0  0  0  0  0  0  0
   33.9150   31.8550   36.9710 C   0  0  0  0  0  0  0  0  0  0  0  0
   33.0360   31.0380   36.2590 C   0  0  0  0  0  0  0  0  0  0  0  0
   33.6040   30.3340   35.2250 N   0  0  0  0  0  0  0  0  0  0  0  0
   34.8750   30.3860   34.8860 C   0  0  0  0  0  0  0  0  0  0  0  0
   35.6860   31.1720   35.5820 N   0  0  0  0  0  0  0  0  0  0  0  0
   35.8740   32.5340   37.1720 H   0  0  0  0  0  0  0  0  0  0  0  0
   33.4770   32.4150   37.7890 H   0  0  0  0  0  0  0  0  0  0  0  0
   31.9860   30.9230   36.4530 H   0  0  0  0  0  0  0  0  0  0  0  0
   36.6880   26.0900   32.2670 O   0  0  0  0  0  0  0  0  0  0  0  0
   37.4130   24.0500   33.0710 C   0  0  0  0  0  0  0  0  0  0  0  0
   36.5840   24.7190   32.1530 C   0  0  0  0  0  0  0  0  0  0  0  0
   35.7810   24.0320   31.2710 C   0  0  0  0  0  0  0  0  0  0  0  0
   35.7940   22.6580   31.2860 C   0  0  0  0  0  0  0  0  0  0  0  0
   36.5940   22.0040   32.1700 C   0  0  0  0  0  0  0  0  0  0  0  0
   37.4130   22.6430   33.0720 C   0  0  0  0  0  0  0  0  0  0  0  0
   35.1750   24.6240   30.6000 H   0  0  0  0  0  0  0  0  0  0  0  0
   35.1780   22.1080   30.6080 H   0  0  0  0  0  0  0  0  0  0  0  0
   36.6220   20.9150   32.2020 H   0  0  0  0  0  0  0  0  0  0  0  0
   38.0500   22.1240   33.7750 H   0  0  0  0  0  0  0  0  0  0  0  0
   38.4510   24.8550   34.2250 S   0  0  0  0  0  0  0  0  0  0  0  0
   39.0080   23.8920   35.2040 O   0  0  0  0  0  0  0  0  0  0  0  0
   39.5700   25.5480   33.4340 O   0  0  0  0  0  0  0  0  0  0  0  0
   37.5680   26.1070   35.0950 C   0  0  0  0  0  3  0  0  0  0  0  0
   38.3690   26.6850   36.2860 C   0  0  0  0  0  2  0  0  0  0  0  0
   37.9860   27.5080   35.1240 C   0  0  0  0  0  2  0  0  0  0  0  0
  2  1  2  6  0  0  0
  2  5  1  0  0  0  0
  2 20  1  0  0  0  0
  3  4  1  0  0  0  0
  3  2  1  0  0  0  0
  6  5  1  0  0  0  0
  6 10  1  0  0  0  0
  7  6  1  0  0  0  0
  8  6  1  0  0  0  0
  9 15  1  0  0  0  0
 10  9  2  0  0  0  0
 11 12  1  0  0  0  0
 11 17  1  0  0  0  0
 12 18  1  0  0  0  0
 13 19  1  0  0  0  0
 13 12  2  0  0  0  0
 14 13  1  0  0  0  0
 15 14  2  0  0  0  0
 15 16  1  0  0  0  0
 16 11  2  0  0  0  0
 21 26  1  0  0  0  0
 21 31  1  0  0  0  0
 22 20  1  0  0  0  0
 22 21  2  0  0  0  0
 23 24  2  0  0  0  0
 23 22  1  0  0  0  0
 24 25  1  0  0  0  0
 25 29  1  0  0  0  0
 25 26  2  0  0  0  0
 26 30  1  0  0  0  0
 27 23  1  0  0  0  0
 28 24  1  0  0  0  0
 31 34  1  0  0  0  0
 31 32  2  0  0  0  0
 33 31  2  0  0  0  0
 34 36  1  0  0  0  0
 34 35  1  0  0  0  0
 36 35  1  0  0  0  0
M  END
>  <minimizedAffinity>
-5.40426683

$$$$

 OpenBabel03262520363D

 36 38  0  0  0  0  0  0  0  0999 V2000
   38.6760   28.0060   30.9920 O   0  0  0  0  0  0  0  0  0  0  0  0
   37.1560   28.1330   31.0490 P   0  0  2  0  0  0  0  0  0  0  0  0
   36.4680   27.7770   29.5380 O   0  0  0  0  0  0  0  0  0  0  0  0
   35.6080   27.2940   29.6770 H   0  0  0  0  0  0  0  0  0  0  0  0
   36.8700   29.7820   31.3900 O   0  0  0  0  0  0  0  0  0  0  0  0
   35.4790   29.9900   31.4180 C   0  0  0  0  0  0  0  0  0  0  0  0
   34.9960   29.0070   31.2610 H   0  0  0  0  0  0  0  0  0  0  0  0
   35.2570   30.6940   30.5750 H   0  0  0  0  0  0  0  0  0  0  0  0
   35.1680   29.9820   33.8610 C   0  0  0  0  0  3  0  0  0  0  0  0
   35.0320   30.5770   32.7050 C   0  0  0  0  0  3  0  0  0  0  0  0
   34.9460   32.0890   36.8540 C   0  0  0  0  0  0  0  0  0  0  0  0
   33.6270   31.8890   37.2480 C   0  0  0  0  0  0  0  0  0  0  0  0
   32.8180   31.0400   36.4930 C   0  0  0  0  0  0  0  0  0  0  0  0
   33.4290   30.4690   35.4030 N   0  0  0  0  0  0  0  0  0  0  0  0
   34.6820   30.6730   35.0490 C   0  0  0  0  0  0  0  0  0  0  0  0
   35.4260   31.4860   35.7870 N   0  0  0  0  0  0  0  0  0  0  0  0
   35.5130   32.7460   37.4680 H   0  0  0  0  0  0  0  0  0  0  0  0
   33.1540   32.3440   38.1100 H   0  0  0  0  0  0  0  0  0  0  0  0
   31.7890   30.8060   36.6940 H   0  0  0  0  0  0  0  0  0  0  0  0
   36.5260   27.1380   32.2440 O   0  0  0  0  0  0  0  0  0  0  0  0
   37.3280   25.1800   33.1700 C   0  0  0  0  0  0  0  0  0  0  0  0
   37.2080   26.5750   33.3020 C   0  0  0  0  0  0  0  0  0  0  0  0
   37.7320   27.2460   34.3840 C   0  0  0  0  0  0  0  0  0  0  0  0
   38.3880   26.5330   35.3590 C   0  0  0  0  0  0  0  0  0  0  0  0
   38.5070   25.1840   35.2390 C   0  0  0  0  0  0  0  0  0  0  0  0
   38.0020   24.4680   34.1780 C   0  0  0  0  0  0  0  0  0  0  0  0
   37.5960   28.3180   34.4080 H   0  0  0  0  0  0  0  0  0  0  0  0
   38.8010   27.0370   36.2070 H   0  0  0  0  0  0  0  0  0  0  0  0
   39.0220   24.5960   35.9980 H   0  0  0  0  0  0  0  0  0  0  0  0
   38.0960   23.3940   34.0810 H   0  0  0  0  0  0  0  0  0  0  0  0
   36.6960   24.2640   31.8220 S   0  0  0  0  0  0  0  0  0  0  0  0
   35.3000   24.6580   31.5170 O   0  0  0  0  0  0  0  0  0  0  0  0
   37.6160   24.5190   30.6190 O   0  0  0  0  0  0  0  0  0  0  0  0
   36.7400   22.5360   32.1620 C   0  0  0  0  0  3  0  0  0  0  0  0
   35.7530   21.7290   31.2850 C   0  0  0  0  0  2  0  0  0  0  0  0
   37.2120   21.5420   31.1990 C   0  0  0  0  0  2  0  0  0  0  0  0
  2  1  2  6  0  0  0
  2  5  1  0  0  0  0
  2 20  1  0  0  0  0
  3  4  1  0  0  0  0
  3  2  1  0  0  0  0
  5  6  1  0  0  0  0
  6 10  1  0  0  0  0
  7  6  1  0  0  0  0
  8  6  1  0  0  0  0
  9 15  1  0  0  0  0
 10  9  2  0  0  0  0
 11 12  1  0  0  0  0
 11 17  1  0  0  0  0
 12 18  1  0  0  0  0
 13 19  1  0  0  0  0
 13 12  2  0  0  0  0
 14 13  1  0  0  0  0
 15 14  2  0  0  0  0
 15 16  1  0  0  0  0
 16 11  2  0  0  0  0
 20 22  1  0  0  0  0
 21 22  2  0  0  0  0
 21 26  1  0  0  0  0
 22 23  1  0  0  0  0
 23 27  1  0  0  0  0
 23 24  2  0  0  0  0
 24 28  1  0  0  0  0
 25 24  1  0  0  0  0
 25 29  1  0  0  0  0
 26 25  2  0  0  0  0
 30 26  1  0  0  0  0
 31 34  1  0  0  0  0
 31 21  1  0  0  0  0
 32 31  2  0  0  0  0
 33 31  2  0  0  0  0
 35 34  1  0  0  0  0
 36 35  1  0  0  0  0
 36 34  1  0  0  0  0
M  END
>  <minimizedAffinity>
-5.36184263

$$$$

 OpenBabel03262520363D

 36 38  0  0  0  0  0  0  0  0999 V2000
   35.5790   25.9040   31.2330 O   0  0  0  0  0  0  0  0  0  0  0  0
   36.5490   27.0820   31.2630 P   0  0  2  0  0  0  0  0  0  0  0  0
   37.5720   27.0510   29.9090 O   0  0  0  0  0  0  0  0  0  0  0  0
   37.7400   27.9850   29.6050 H   0  0  0  0  0  0  0  0  0  0  0  0
   37.5010   26.8250   32.6570 O   0  0  0  0  0  0  0  0  0  0  0  0
   37.6650   25.4380   32.8260 C   0  0  0  0  0  0  0  0  0  0  0  0
   38.5110   25.1260   32.1840 H   0  0  0  0  0  0  0  0  0  0  0  0
   36.7030   24.9720   32.4920 H   0  0  0  0  0  0  0  0  0  0  0  0
   38.4670   23.9440   34.6120 C   0  0  0  0  0  3  0  0  0  0  0  0
   37.9410   25.0810   34.2400 C   0  0  0  0  0  3  0  0  0  0  0  0
   39.8120   22.7910   37.8230 C   0  0  0  0  0  0  0  0  0  0  0  0
   38.9530   23.4030   38.7300 C   0  0  0  0  0  0  0  0  0  0  0  0
   37.9210   24.2070   38.2460 C   0  0  0  0  0  0  0  0  0  0  0  0
   37.8580   24.3120   36.8780 N   0  0  0  0  0  0  0  0  0  0  0  0
   38.6830   23.7230   36.0370 C   0  0  0  0  0  0  0  0  0  0  0  0
   39.6550   22.9650   36.5280 N   0  0  0  0  0  0  0  0  0  0  0  0
   40.5780   22.1910   38.2510 H   0  0  0  0  0  0  0  0  0  0  0  0
   39.0110   23.3130   39.8080 H   0  0  0  0  0  0  0  0  0  0  0  0
   37.1970   24.7300   38.8420 H   0  0  0  0  0  0  0  0  0  0  0  0
   35.7110   28.5330   31.3480 O   0  0  0  0  0  0  0  0  0  0  0  0
   35.9730   30.6840   32.1490 C   0  0  0  0  0  0  0  0  0  0  0  0
   36.2020   29.7940   31.0840 C   0  0  0  0  0  0  0  0  0  0  0  0
   36.8480   30.1940   29.9360 C   0  0  0  0  0  0  0  0  0  0  0  0
   37.2780   31.4940   29.8290 C   0  0  0  0  0  0  0  0  0  0  0  0
   37.0600   32.3600   30.8540 C   0  0  0  0  0  0  0  0  0  0  0  0
   36.4210   32.0110   32.0210 C   0  0  0  0  0  0  0  0  0  0  0  0
   36.9830   29.4470   29.1660 H   0  0  0  0  0  0  0  0  0  0  0  0
   37.7810   31.8230   28.9440 H   0  0  0  0  0  0  0  0  0  0  0  0
   37.3910   33.3970   30.7940 H   0  0  0  0  0  0  0  0  0  0  0  0
   36.2460   32.6990   32.8380 H   0  0  0  0  0  0  0  0  0  0  0  0
   35.1680   30.2450   33.6380 S   0  0  0  0  0  0  0  0  0  0  0  0
   33.8050   29.7290   33.3750 O   0  0  0  0  0  0  0  0  0  0  0  0
   36.0340   29.1860   34.3360 O   0  0  0  0  0  0  0  0  0  0  0  0
   35.0550   31.6300   34.7210 C   0  0  0  0  0  3  0  0  0  0  0  0
   34.2680   31.3140   36.0150 C   0  0  0  0  0  2  0  0  0  0  0  0
   35.6970   31.6750   36.0340 C   0  0  0  0  0  2  0  0  0  0  0  0
  2  1  2  6  0  0  0
  2 20  1  0  0  0  0
  2  5  1  0  0  0  0
  3  2  1  0  0  0  0
  4  3  1  0  0  0  0
  5  6  1  0  0  0  0
  6 10  1  0  0  0  0
  7  6  1  0  0  0  0
  8  6  1  0  0  0  0
  9 15  1  0  0  0  0
 10  9  2  0  0  0  0
 11 17  1  0  0  0  0
 11 12  1  0  0  0  0
 12 18  1  0  0  0  0
 13 12  2  0  0  0  0
 13 19  1  0  0  0  0
 14 13  1  0  0  0  0
 15 16  1  0  0  0  0
 15 14  2  0  0  0  0
 16 11  2  0  0  0  0
 21 31  1  0  0  0  0
 22 20  1  0  0  0  0
 22 21  2  0  0  0  0
 23 22  1  0  0  0  0
 24 23  2  0  0  0  0
 24 25  1  0  0  0  0
 25 26  2  0  0  0  0
 26 21  1  0  0  0  0
 26 30  1  0  0  0  0
 27 23  1  0  0  0  0
 28 24  1  0  0  0  0
 29 25  1  0  0  0  0
 31 33  2  0  0  0  0
 31 34  1  0  0  0  0
 32 31  2  0  0  0  0
 34 35  1  0  0  0  0
 34 36  1  0  0  0  0
 35 36  1  0  0  0  0
M  END
>  <minimizedAffinity>
-5.31460047

$$$$

 OpenBabel03262520363D

 36 38  0  0  0  0  0  0  0  0999 V2000
   37.0090   26.5570   34.4490 O   0  0  0  0  0  0  0  0  0  0  0  0
   38.2280   25.7530   34.0050 P   0  0  2  0  0  0  0  0  0  0  0  0
   39.6590   26.6120   34.3180 O   0  0  0  0  0  0  0  0  0  0  0  0
   40.3680   25.9720   34.6000 H   0  0  0  0  0  0  0  0  0  0  0  0
   38.0560   25.6030   32.3130 O   0  0  0  0  0  0  0  0  0  0  0  0
   36.7570   25.1360   32.0430 C   0  0  0  0  0  0  0  0  0  0  0  0
   36.4980   25.4590   31.0170 H   0  0  0  0  0  0  0  0  0  0  0  0
   36.0930   25.6200   32.8050 H   0  0  0  0  0  0  0  0  0  0  0  0
   35.7020   22.9520   31.6200 C   0  0  0  0  0  3  0  0  0  0  0  0
   36.6650   23.6590   32.1500 C   0  0  0  0  0  3  0  0  0  0  0  0
   35.4960   19.5910   33.0740 C   0  0  0  0  0  0  0  0  0  0  0  0
   35.8410   18.7890   31.9920 C   0  0  0  0  0  0  0  0  0  0  0  0
   36.1420   19.3940   30.7710 C   0  0  0  0  0  0  0  0  0  0  0  0
   36.0630   20.7650   30.7660 N   0  0  0  0  0  0  0  0  0  0  0  0
   35.7340   21.5060   31.8040 C   0  0  0  0  0  0  0  0  0  0  0  0
   35.4530   20.9010   32.9520 N   0  0  0  0  0  0  0  0  0  0  0  0
   35.2780   19.0740   33.9770 H   0  0  0  0  0  0  0  0  0  0  0  0
   35.9010   17.7070   32.0060 H   0  0  0  0  0  0  0  0  0  0  0  0
   36.4210   18.8850   29.8670 H   0  0  0  0  0  0  0  0  0  0  0  0
   38.2510   24.2540   34.7580 O   0  0  0  0  0  0  0  0  0  0  0  0
   39.5620   23.2680   36.3840 C   0  0  0  0  0  0  0  0  0  0  0  0
   38.3950   24.0030   36.1060 C   0  0  0  0  0  0  0  0  0  0  0  0
   37.5350   24.3980   37.1070 C   0  0  0  0  0  0  0  0  0  0  0  0
   37.8250   24.0650   38.4070 C   0  0  0  0  0  0  0  0  0  0  0  0
   38.9510   23.3540   38.6840 C   0  0  0  0  0  0  0  0  0  0  0  0
   39.8410   22.9360   37.7230 C   0  0  0  0  0  0  0  0  0  0  0  0
   36.6620   24.9590   36.8060 H   0  0  0  0  0  0  0  0  0  0  0  0
   37.1690   24.3630   39.1970 H   0  0  0  0  0  0  0  0  0  0  0  0
   39.2030   23.0770   39.7080 H   0  0  0  0  0  0  0  0  0  0  0  0
   40.7370   22.3700   37.9410 H   0  0  0  0  0  0  0  0  0  0  0  0
   40.7020   22.7400   35.1690 S   0  0  0  0  0  0  0  0  0  0  0  0
   40.0320   21.9280   34.1270 O   0  0  0  0  0  0  0  0  0  0  0  0
   41.3440   23.9960   34.5620 O   0  0  0  0  0  0  0  0  0  0  0  0
   41.9940   21.7860   35.8930 C   0  0  0  0  0  3  0  0  0  0  0  0
   43.2660   21.7380   35.0140 C   0  0  0  0  0  2  0  0  0  0  0  0
   43.2580   22.3640   36.3480 C   0  0  0  0  0  2  0  0  0  0  0  0
  2  3  1  0  0  0  0
  2  1  2  1  0  0  0
  2 20  1  0  0  0  0
  3  4  1  0  0  0  0
  5  2  1  0  0  0  0
  6 10  1  0  0  0  0
  6  5  1  0  0  0  0
  6  8  1  0  0  0  0
  7  6  1  0  0  0  0
  9 15  1  0  0  0  0
  9 10  2  0  0  0  0
 11 17  1  0  0  0  0
 12 18  1  0  0  0  0
 12 11  2  0  0  0  0
 13 12  1  0  0  0  0
 14 13  2  0  0  0  0
 14 15  1  0  0  0  0
 15 16  2  0  0  0  0
 16 11  1  0  0  0  0
 19 13  1  0  0  0  0
 20 22  1  0  0  0  0
 21 26  1  0  0  0  0
 22 21  2  0  0  0  0
 22 23  1  0  0  0  0
 23 24  2  0  0  0  0
 24 25  1  0  0  0  0
 24 28  1  0  0  0  0
 25 29  1  0  0  0  0
 26 30  1  0  0  0  0
 26 25  2  0  0  0  0
 27 23  1  0  0  0  0
 31 34  1  0  0  0  0
 31 21  1  0  0  0  0
 32 31  2  0  0  0  0
 33 31  2  0  0  0  0
 34 36  1  0  0  0  0
 35 34  1  0  0  0  0
 35 36  1  0  0  0  0
M  END
>  <minimizedAffinity>
-5.26312685

$$$$

 OpenBabel03262520363D

 36 38  0  0  0  0  0  0  0  0999 V2000
   38.3920   27.0720   31.2420 O   0  0  0  0  0  0  0  0  0  0  0  0
   37.2540   26.1470   31.6660 P   0  0  2  0  0  0  0  0  0  0  0  0
   36.0410   26.1040   30.4780 O   0  0  0  0  0  0  0  0  0  0  0  0
   35.6690   25.1820   30.4250 H   0  0  0  0  0  0  0  0  0  0  0  0
   36.6030   26.8730   33.0670 O   0  0  0  0  0  0  0  0  0  0  0  0
   36.5560   28.2640   32.8600 C   0  0  0  0  0  0  0  0  0  0  0  0
   35.9980   28.4380   31.9200 H   0  0  0  0  0  0  0  0  0  0  0  0
   37.6220   28.5970   32.7710 H   0  0  0  0  0  0  0  0  0  0  0  0
   35.3460   30.1520   33.8760 C   0  0  0  0  0  3  0  0  0  0  0  0
   35.8930   28.9700   33.9830 C   0  0  0  0  0  3  0  0  0  0  0  0
   34.7650   32.0370   36.9680 C   0  0  0  0  0  0  0  0  0  0  0  0
   33.4360   31.7330   37.2440 C   0  0  0  0  0  0  0  0  0  0  0  0
   32.7430   30.8880   36.3770 C   0  0  0  0  0  0  0  0  0  0  0  0
   33.4690   30.4300   35.3050 N   0  0  0  0  0  0  0  0  0  0  0  0
   34.7280   30.7320   35.0630 C   0  0  0  0  0  0  0  0  0  0  0  0
   35.3610   31.5370   35.9060 N   0  0  0  0  0  0  0  0  0  0  0  0
   35.2410   32.6840   37.6640 H   0  0  0  0  0  0  0  0  0  0  0  0
   32.8720   32.0990   38.0930 H   0  0  0  0  0  0  0  0  0  0  0  0
   31.7190   30.5800   36.4820 H   0  0  0  0  0  0  0  0  0  0  0  0
   37.8360   24.6060   31.9840 O   0  0  0  0  0  0  0  0  0  0  0  0
   37.3620   22.7230   33.2340 C   0  0  0  0  0  0  0  0  0  0  0  0
   37.1060   23.4380   32.0500 C   0  0  0  0  0  0  0  0  0  0  0  0
   36.2170   22.9760   31.1060 C   0  0  0  0  0  0  0  0  0  0  0  0
   35.5660   21.7870   31.3250 C   0  0  0  0  0  0  0  0  0  0  0  0
   35.8090   21.0890   32.4670 C   0  0  0  0  0  0  0  0  0  0  0  0
   36.6860   21.5060   33.4410 C   0  0  0  0  0  0  0  0  0  0  0  0
   36.0780   23.5880   30.2260 H   0  0  0  0  0  0  0  0  0  0  0  0
   34.8730   21.4120   30.6030 H   0  0  0  0  0  0  0  0  0  0  0  0
   35.3060   20.1420   32.6650 H   0  0  0  0  0  0  0  0  0  0  0  0
   36.8810   20.9520   34.3500 H   0  0  0  0  0  0  0  0  0  0  0  0
   38.4690   23.2500   34.4800 S   0  0  0  0  0  0  0  0  0  0  0  0
   38.6930   22.1820   35.4820 O   0  0  0  0  0  0  0  0  0  0  0  0
   39.7840   23.6450   33.7920 O   0  0  0  0  0  0  0  0  0  0  0  0
   37.8530   24.6830   35.3000 C   0  0  0  0  0  3  0  0  0  0  0  0
   38.3180   24.7740   36.7730 C   0  0  0  0  0  2  0  0  0  0  0  0
   38.7120   25.7720   35.7630 C   0  0  0  0  0  2  0  0  0  0  0  0
  2  1  2  6  0  0  0
  2 20  1  0  0  0  0
  2  5  1  0  0  0  0
  3  2  1  0  0  0  0
  4  3  1  0  0  0  0
  6  5  1  0  0  0  0
  6 10  1  0  0  0  0
  7  6  1  0  0  0  0
  8  6  1  0  0  0  0
  9 10  2  0  0  0  0
  9 15  1  0  0  0  0
 11 12  1  0  0  0  0
 11 17  1  0  0  0  0
 12 18  1  0  0  0  0
 13 19  1  0  0  0  0
 13 12  2  0  0  0  0
 14 13  1  0  0  0  0
 15 14  2  0  0  0  0
 15 16  1  0  0  0  0
 16 11  2  0  0  0  0
 20 22  1  0  0  0  0
 21 26  1  0  0  0  0
 21 31  1  0  0  0  0
 22 21  2  0  0  0  0
 23 24  2  0  0  0  0
 23 22  1  0  0  0  0
 24 25  1  0  0  0  0
 25 29  1  0  0  0  0
 25 26  2  0  0  0  0
 26 30  1  0  0  0  0
 27 23  1  0  0  0  0
 28 24  1  0  0  0  0
 31 34  1  0  0  0  0
 31 32  2  0  0  0  0
 33 31  2  0  0  0  0
 34 36  1  0  0  0  0
 34 35  1  0  0  0  0
 36 35  1  0  0  0  0
M  END
>  <minimizedAffinity>
-5.24849844

$$$$

 OpenBabel03262520363D

 36 38  0  0  0  0  0  0  0  0999 V2000
   38.9090   26.5050   31.6140 O   0  0  0  0  0  0  0  0  0  0  0  0
   37.7390   25.5480   31.8290 P   0  0  2  0  0  0  0  0  0  0  0  0
   36.8060   25.4170   30.4170 O   0  0  0  0  0  0  0  0  0  0  0  0
   36.4840   24.4790   30.3240 H   0  0  0  0  0  0  0  0  0  0  0  0
   36.7840   26.2930   33.0320 O   0  0  0  0  0  0  0  0  0  0  0  0
   37.5920   27.2090   33.7300 C   0  0  0  0  0  0  0  0  0  0  0  0
   38.2130   27.7370   32.9810 H   0  0  0  0  0  0  0  0  0  0  0  0
   38.2220   26.5960   34.4240 H   0  0  0  0  0  0  0  0  0  0  0  0
   36.1270   29.1750   33.9560 C   0  0  0  0  0  3  0  0  0  0  0  0
   36.7840   28.1860   34.5010 C   0  0  0  0  0  3  0  0  0  0  0  0
   35.2140   31.7550   36.3980 C   0  0  0  0  0  0  0  0  0  0  0  0
   33.8280   31.6470   36.4250 C   0  0  0  0  0  0  0  0  0  0  0  0
   33.2090   30.6980   35.6110 C   0  0  0  0  0  0  0  0  0  0  0  0
   34.0620   29.9430   34.8430 N   0  0  0  0  0  0  0  0  0  0  0  0
   35.3740   30.0630   34.8340 C   0  0  0  0  0  0  0  0  0  0  0  0
   35.9330   30.9750   35.6190 N   0  0  0  0  0  0  0  0  0  0  0  0
   35.6280   32.4950   37.0380 H   0  0  0  0  0  0  0  0  0  0  0  0
   33.1630   32.2470   37.0350 H   0  0  0  0  0  0  0  0  0  0  0  0
   32.1510   30.5190   35.5430 H   0  0  0  0  0  0  0  0  0  0  0  0
   38.2930   24.0440   32.3240 O   0  0  0  0  0  0  0  0  0  0  0  0
   37.4860   22.4570   33.7950 C   0  0  0  0  0  0  0  0  0  0  0  0
   38.3410   23.5590   33.6140 C   0  0  0  0  0  0  0  0  0  0  0  0
   39.1140   24.0500   34.6420 C   0  0  0  0  0  0  0  0  0  0  0  0
   39.0450   23.4490   35.8760 C   0  0  0  0  0  0  0  0  0  0  0  0
   38.2210   22.3840   36.0590 C   0  0  0  0  0  0  0  0  0  0  0  0
   37.4300   21.8550   35.0660 C   0  0  0  0  0  0  0  0  0  0  0  0
   39.7430   24.9000   34.4180 H   0  0  0  0  0  0  0  0  0  0  0  0
   39.6370   23.8170   36.6860 H   0  0  0  0  0  0  0  0  0  0  0  0
   38.1480   21.8900   37.0280 H   0  0  0  0  0  0  0  0  0  0  0  0
   36.7730   21.0070   35.2100 H   0  0  0  0  0  0  0  0  0  0  0  0
   36.4840   21.7750   32.5360 S   0  0  0  0  0  0  0  0  0  0  0  0
   35.6460   22.8160   31.8970 O   0  0  0  0  0  0  0  0  0  0  0  0
   37.4180   21.1130   31.5110 O   0  0  0  0  0  0  0  0  0  0  0  0
   35.4350   20.5160   33.1820 C   0  0  0  0  0  3  0  0  0  0  0  0
   34.5730   19.8370   32.0900 C   0  0  0  0  0  2  0  0  0  0  0  0
   35.5910   19.0980   32.8590 C   0  0  0  0  0  2  0  0  0  0  0  0
  2  1  2  6  0  0  0
  2 20  1  0  0  0  0
  2  5  1  0  0  0  0
  3  2  1  0  0  0  0
  4  3  1  0  0  0  0
  5  6  1  0  0  0  0
  6  8  1  0  0  0  0
  6 10  1  0  0  0  0
  7  6  1  0  0  0  0
  9 10  2  0  0  0  0
  9 15  1  0  0  0  0
 11 12  1  0  0  0  0
 11 17  1  0  0  0  0
 12 18  1  0  0  0  0
 13 12  2  0  0  0  0
 14 13  1  0  0  0  0
 15 14  2  0  0  0  0
 15 16  1  0  0  0  0
 16 11  2  0  0  0  0
 19 13  1  0  0  0  0
 20 22  1  0  0  0  0
 21 26  1  0  0  0  0
 22 21  2  0  0  0  0
 22 23  1  0  0  0  0
 23 24  2  0  0  0  0
 24 25  1  0  0  0  0
 24 28  1  0  0  0  0
 25 29  1  0  0  0  0
 26 30  1  0  0  0  0
 26 25  2  0  0  0  0
 27 23  1  0  0  0  0
 31 34  1  0  0  0  0
 31 21  1  0  0  0  0
 32 31  2  0  0  0  0
 33 31  2  0  0  0  0
 35 36  1  0  0  0  0
 35 34  1  0  0  0  0
 36 34  1  0  0  0  0
M  END
>  <minimizedAffinity>
-5.17375469

$$$$

 OpenBabel03262520363D

 36 38  0  0  0  0  0  0  0  0999 V2000
   39.0140   22.3590   31.6350 O   0  0  0  0  0  0  0  0  0  0  0  0
   38.2450   22.6890   32.9120 P   0  0  2  0  0  0  0  0  0  0  0  0
   37.6490   21.2740   33.6360 O   0  0  0  0  0  0  0  0  0  0  0  0
   37.7020   21.3670   34.6260 H   0  0  0  0  0  0  0  0  0  0  0  0
   36.9130   23.6210   32.3880 O   0  0  0  0  0  0  0  0  0  0  0  0
   37.1930   24.1000   31.0950 C   0  0  0  0  0  0  0  0  0  0  0  0
   36.5330   23.5570   30.3930 H   0  0  0  0  0  0  0  0  0  0  0  0
   38.2730   23.8640   30.9080 H   0  0  0  0  0  0  0  0  0  0  0  0
   36.0840   26.2140   31.6970 C   0  0  0  0  0  3  0  0  0  0  0  0
   36.9630   25.5610   30.9830 C   0  0  0  0  0  3  0  0  0  0  0  0
   35.1190   29.7390   31.9990 C   0  0  0  0  0  0  0  0  0  0  0  0
   35.8280   30.3220   30.9540 C   0  0  0  0  0  0  0  0  0  0  0  0
   36.6330   29.5130   30.1510 C   0  0  0  0  0  0  0  0  0  0  0  0
   36.6410   28.1810   30.4880 N   0  0  0  0  0  0  0  0  0  0  0  0
   35.9600   27.6510   31.4830 C   0  0  0  0  0  0  0  0  0  0  0  0
   35.2030   28.4460   32.2290 N   0  0  0  0  0  0  0  0  0  0  0  0
   34.5230   30.4050   32.5750 H   0  0  0  0  0  0  0  0  0  0  0  0
   35.8150   31.3740   30.6960 H   0  0  0  0  0  0  0  0  0  0  0  0
   37.2260   29.8430   29.3180 H   0  0  0  0  0  0  0  0  0  0  0  0
   39.2150   23.5470   33.9790 O   0  0  0  0  0  0  0  0  0  0  0  0
   38.6540   24.7190   35.8880 C   0  0  0  0  0  0  0  0  0  0  0  0
   38.9620   24.7910   34.5180 C   0  0  0  0  0  0  0  0  0  0  0  0
   38.9940   25.9920   33.8470 C   0  0  0  0  0  0  0  0  0  0  0  0
   38.7150   27.1490   34.5340 C   0  0  0  0  0  0  0  0  0  0  0  0
   38.4160   27.0880   35.8590 C   0  0  0  0  0  0  0  0  0  0  0  0
   38.3720   25.9140   36.5740 C   0  0  0  0  0  0  0  0  0  0  0  0
   39.2400   25.9580   32.7950 H   0  0  0  0  0  0  0  0  0  0  0  0
   38.7350   28.0920   34.0290 H   0  0  0  0  0  0  0  0  0  0  0  0
   38.1910   27.9910   36.4260 H   0  0  0  0  0  0  0  0  0  0  0  0
   38.1330   25.8640   37.6290 H   0  0  0  0  0  0  0  0  0  0  0  0
   38.6030   23.2320   36.8060 S   0  0  0  0  0  0  0  0  0  0  0  0
   38.5460   23.5060   38.2610 O   0  0  0  0  0  0  0  0  0  0  0  0
   37.3680   22.4460   36.3430 O   0  0  0  0  0  0  0  0  0  0  0  0
   40.0180   22.2380   36.4680 C   0  0  0  0  0  3  0  0  0  0  0  0
   41.3480   22.9870   36.7150 C   0  0  0  0  0  2  0  0  0  0  0  0
   40.9570   21.8040   37.5020 C   0  0  0  0  0  2  0  0  0  0  0  0
  2  1  2  6  0  0  0
  2  3  1  0  0  0  0
  2 20  1  0  0  0  0
  3  4  1  0  0  0  0
  5  2  1  0  0  0  0
  6  5  1  0  0  0  0
  7  6  1  0  0  0  0
  8  6  1  0  0  0  0
 10  6  1  0  0  0  0
 10  9  2  0  0  0  0
 11 16  1  0  0  0  0
 11 17  1  0  0  0  0
 12 11  2  0  0  0  0
 13 14  2  0  0  0  0
 13 12  1  0  0  0  0
 14 15  1  0  0  0  0
 15  9  1  0  0  0  0
 15 16  2  0  0  0  0
 18 12  1  0  0  0  0
 19 13  1  0  0  0  0
 20 22  1  0  0  0  0
 21 26  1  0  0  0  0
 21 31  1  0  0  0  0
 22 21  2  0  0  0  0
 23 22  1  0  0  0  0
 23 24  2  0  0  0  0
 24 25  1  0  0  0  0
 25 29  1  0  0  0  0
 25 26  2  0  0  0  0
 26 30  1  0  0  0  0
 27 23  1  0  0  0  0
 28 24  1  0  0  0  0
 31 32  2  0  0  0  0
 33 31  2  0  0  0  0
 34 35  1  0  0  0  0
 34 31  1  0  0  0  0
 34 36  1  0  0  0  0
 35 36  1  0  0  0  0
M  END
>  <minimizedAffinity>
-5.10477018

$$$$

 OpenBabel03262520363D

 36 38  0  0  0  0  0  0  0  0999 V2000
   37.9380   25.8000   31.0110 O   0  0  0  0  0  0  0  0  0  0  0  0
   36.9030   25.5330   32.1010 P   0  0  2  0  0  0  0  0  0  0  0  0
   36.0990   24.0650   31.8180 O   0  0  0  0  0  0  0  0  0  0  0  0
   35.9210   23.6170   32.6900 H   0  0  0  0  0  0  0  0  0  0  0  0
   35.7700   26.8010   31.9430 O   0  0  0  0  0  0  0  0  0  0  0  0
   36.4640   28.0220   32.0230 C   0  0  0  0  0  0  0  0  0  0  0  0
   36.5310   28.4290   30.9960 H   0  0  0  0  0  0  0  0  0  0  0  0
   37.4760   27.7740   32.4320 H   0  0  0  0  0  0  0  0  0  0  0  0
   36.0630   29.1460   34.1760 C   0  0  0  0  0  3  0  0  0  0  0  0
   35.7770   28.9930   32.9100 C   0  0  0  0  0  3  0  0  0  0  0  0
   33.3390   31.1140   35.6460 C   0  0  0  0  0  0  0  0  0  0  0  0
   34.0380   32.0530   36.3990 C   0  0  0  0  0  0  0  0  0  0  0  0
   35.4320   32.0120   36.4040 C   0  0  0  0  0  0  0  0  0  0  0  0
   35.9890   31.0150   35.6400 N   0  0  0  0  0  0  0  0  0  0  0  0
   35.3070   30.1360   34.9340 C   0  0  0  0  0  0  0  0  0  0  0  0
   33.9810   30.2010   34.9490 N   0  0  0  0  0  0  0  0  0  0  0  0
   32.2800   31.1950   35.6810 H   0  0  0  0  0  0  0  0  0  0  0  0
   33.5890   32.8350   36.9990 H   0  0  0  0  0  0  0  0  0  0  0  0
   36.0800   32.6780   36.9430 H   0  0  0  0  0  0  0  0  0  0  0  0
   37.6280   25.5390   33.6150 O   0  0  0  0  0  0  0  0  0  0  0  0
   39.5960   24.7650   34.5420 C   0  0  0  0  0  0  0  0  0  0  0  0
   38.9420   25.8360   33.9070 C   0  0  0  0  0  0  0  0  0  0  0  0
   39.5910   27.0190   33.6330 C   0  0  0  0  0  0  0  0  0  0  0  0
   40.9100   27.1550   33.9910 C   0  0  0  0  0  0  0  0  0  0  0  0
   41.5500   26.1250   34.6060 C   0  0  0  0  0  0  0  0  0  0  0  0
   40.9470   24.9240   34.9010 C   0  0  0  0  0  0  0  0  0  0  0  0
   39.0150   27.7900   33.1430 H   0  0  0  0  0  0  0  0  0  0  0  0
   41.4310   28.0670   33.7880 H   0  0  0  0  0  0  0  0  0  0  0  0
   42.5960   26.2080   34.9000 H   0  0  0  0  0  0  0  0  0  0  0  0
   41.4540   24.1030   35.3900 H   0  0  0  0  0  0  0  0  0  0  0  0
   38.8390   23.2340   34.9120 S   0  0  0  0  0  0  0  0  0  0  0  0
   37.9550   22.7940   33.8080 O   0  0  0  0  0  0  0  0  0  0  0  0
   39.9600   22.2130   35.1610 O   0  0  0  0  0  0  0  0  0  0  0  0
   37.8910   23.3450   36.3920 C   0  0  0  0  0  3  0  0  0  0  0  0
   38.7660   23.3120   37.6680 C   0  0  0  0  0  2  0  0  0  0  0  0
   37.9560   24.4880   37.3020 C   0  0  0  0  0  2  0  0  0  0  0  0
  2  1  2  6  0  0  0
  2 20  1  0  0  0  0
  3  2  1  0  0  0  0
  3  4  1  0  0  0  0
  5  6  1  0  0  0  0
  5  2  1  0  0  0  0
  6  8  1  0  0  0  0
  6 10  1  0  0  0  0
  7  6  1  0  0  0  0
  9 15  1  0  0  0  0
 10  9  2  0  0  0  0
 11 17  1  0  0  0  0
 11 12  1  0  0  0  0
 12 13  2  0  0  0  0
 12 18  1  0  0  0  0
 13 19  1  0  0  0  0
 14 13  1  0  0  0  0
 15 16  1  0  0  0  0
 15 14  2  0  0  0  0
 16 11  2  0  0  0  0
 20 22  1  0  0  0  0
 21 26  1  0  0  0  0
 21 31  1  0  0  0  0
 22 21  2  0  0  0  0
 23 22  1  0  0  0  0
 23 24  2  0  0  0  0
 24 25  1  0  0  0  0
 25 29  1  0  0  0  0
 25 26  2  0  0  0  0
 26 30  1  0  0  0  0
 27 23  1  0  0  0  0
 28 24  1  0  0  0  0
 31 33  2  0  0  0  0
 31 34  1  0  0  0  0
 32 31  2  0  0  0  0
 34 36  1  0  0  0  0
 34 35  1  0  0  0  0
 36 35  1  0  0  0  0
M  END
>  <minimizedAffinity>
-5.06877422

$$$$

 OpenBabel03262520363D

 36 38  0  0  0  0  0  0  0  0999 V2000
   37.2430   27.7490   30.7230 O   0  0  0  0  0  0  0  0  0  0  0  0
   36.1490   26.9010   31.3650 P   0  0  2  0  0  0  0  0  0  0  0  0
   35.3560   25.9600   30.1950 O   0  0  0  0  0  0  0  0  0  0  0  0
   35.1280   25.0740   30.5890 H   0  0  0  0  0  0  0  0  0  0  0  0
   35.0310   28.0330   31.9870 O   0  0  0  0  0  0  0  0  0  0  0  0
   35.6310   29.3040   31.9570 C   0  0  0  0  0  0  0  0  0  0  0  0
   35.2530   29.8260   31.0570 H   0  0  0  0  0  0  0  0  0  0  0  0
   36.7350   29.1210   31.8920 H   0  0  0  0  0  0  0  0  0  0  0  0
   34.4220   29.7390   34.0580 C   0  0  0  0  0  3  0  0  0  0  0  0
   35.3160   30.0940   33.1730 C   0  0  0  0  0  3  0  0  0  0  0  0
   32.9340   31.4610   36.9340 C   0  0  0  0  0  0  0  0  0  0  0  0
   33.9680   32.3030   37.3300 C   0  0  0  0  0  0  0  0  0  0  0  0
   35.1670   32.2810   36.6180 C   0  0  0  0  0  0  0  0  0  0  0  0
   35.2030   31.4010   35.5640 N   0  0  0  0  0  0  0  0  0  0  0  0
   34.2110   30.6120   35.2060 C   0  0  0  0  0  0  0  0  0  0  0  0
   33.0820   30.6560   35.9040 N   0  0  0  0  0  0  0  0  0  0  0  0
   32.0460   31.5220   37.5140 H   0  0  0  0  0  0  0  0  0  0  0  0
   33.9290   32.9950   38.1630 H   0  0  0  0  0  0  0  0  0  0  0  0
   36.0340   32.8810   36.8250 H   0  0  0  0  0  0  0  0  0  0  0  0
   36.7880   25.9350   32.5790 O   0  0  0  0  0  0  0  0  0  0  0  0
   38.8020   25.7230   33.6880 C   0  0  0  0  0  0  0  0  0  0  0  0
   37.5420   26.3460   33.6580 C   0  0  0  0  0  0  0  0  0  0  0  0
   37.1620   27.2540   34.6210 C   0  0  0  0  0  0  0  0  0  0  0  0
   38.0360   27.5560   35.6370 C   0  0  0  0  0  0  0  0  0  0  0  0
   39.2570   26.9570   35.6730 C   0  0  0  0  0  0  0  0  0  0  0  0
   39.6840   26.0450   34.7360 C   0  0  0  0  0  0  0  0  0  0  0  0
   36.1760   27.6860   34.5230 H   0  0  0  0  0  0  0  0  0  0  0  0
   37.7580   28.2580   36.3940 H   0  0  0  0  0  0  0  0  0  0  0  0
   39.9680   27.1800   36.4680 H   0  0  0  0  0  0  0  0  0  0  0  0
   40.6550   25.5680   34.7640 H   0  0  0  0  0  0  0  0  0  0  0  0
   39.3560   24.5690   32.4970 S   0  0  0  0  0  0  0  0  0  0  0  0
   39.2890   25.1390   31.1310 O   0  0  0  0  0  0  0  0  0  0  0  0
   40.7960   24.1820   32.8640 O   0  0  0  0  0  0  0  0  0  0  0  0
   38.3860   23.0990   32.5500 C   0  0  0  0  0  3  0  0  0  0  0  0
   39.0220   21.9940   33.4260 C   0  0  0  0  0  2  0  0  0  0  0  0
   37.7290   22.6160   33.7640 C   0  0  0  0  0  2  0  0  0  0  0  0
  2  1  2  6  0  0  0
  2  5  1  0  0  0  0
  2 20  1  0  0  0  0
  3  4  1  0  0  0  0
  3  2  1  0  0  0  0
  6  5  1  0  0  0  0
  6 10  1  0  0  0  0
  7  6  1  0  0  0  0
  8  6  1  0  0  0  0
  9 15  1  0  0  0  0
 10  9  2  0  0  0  0
 11 12  1  0  0  0  0
 11 17  1  0  0  0  0
 12 18  1  0  0  0  0
 13 19  1  0  0  0  0
 13 12  2  0  0  0  0
 14 13  1  0  0  0  0
 15 14  2  0  0  0  0
 15 16  1  0  0  0  0
 16 11  2  0  0  0  0
 20 22  1  0  0  0  0
 21 26  1  0  0  0  0
 22 21  2  0  0  0  0
 22 23  1  0  0  0  0
 23 24  2  0  0  0  0
 24 25  1  0  0  0  0
 24 28  1  0  0  0  0
 25 29  1  0  0  0  0
 26 30  1  0  0  0  0
 26 25  2  0  0  0  0
 27 23  1  0  0  0  0
 31 34  1  0  0  0  0
 31 33  2  0  0  0  0
 31 21  1  0  0  0  0
 32 31  2  0  0  0  0
 34 35  1  0  0  0  0
 34 36  1  0  0  0  0
 35 36  1  0  0  0  0
M  END
>  <minimizedAffinity>
-5.06801558

$$$$
