
 OpenBabel03272508423D

 14 15  0  0  0  0  0  0  0  0999 V2000
   37.4780   30.1900   51.4270 C   0  0  0  0  0  0  0  0  0  0  0  0
   38.2110   30.8280   50.3980 C   0  0  0  0  0  0  0  0  0  0  0  0
   37.6690   30.8150   49.1120 C   0  0  0  0  0  0  0  0  0  0  0  0
   36.4840   30.1970   48.9340 N   0  0  0  0  0  0  0  0  0  0  0  0
   35.8070   29.5980   49.9320 C   0  0  0  0  0  0  0  0  0  0  0  0
   36.2950   29.5910   51.1680 N   0  0  0  0  0  0  0  0  0  0  0  0
   37.9030   30.2030   52.4220 H   0  0  0  0  0  0  0  0  0  0  0  0
   39.1600   31.3170   50.5660 H   0  0  0  0  0  0  0  0  0  0  0  0
   38.1960   31.2910   48.2950 H   0  0  0  0  0  0  0  0  0  0  0  0
   34.5300   28.9360   49.7130 C   0  0  0  0  0  0  0  0  0  0  0  0
   33.4820   29.2290   50.3300 O   0  0  0  0  0  0  0  0  0  0  0  0
   34.3440   27.8350   48.7230 C   0  0  0  0  0  3  0  0  0  0  0  0
   33.9500   28.1520   47.3300 C   0  0  0  0  0  2  0  0  0  0  0  0
   32.9740   27.4430   48.2910 C   0  0  0  0  0  2  0  0  0  0  0  0
  1  7  1  0  0  0  0
  2  8  1  0  0  0  0
  2  1  2  0  0  0  0
  3  2  1  0  0  0  0
  4  3  2  0  0  0  0
  4  5  1  0  0  0  0
  5  6  2  0  0  0  0
  6  1  1  0  0  0  0
  9  3  1  0  0  0  0
 10  5  1  0  0  0  0
 10 11  2  0  0  0  0
 12 10  1  0  0  0  0
 13 14  1  0  0  0  0
 13 12  1  0  0  0  0
 14 12  1  0  0  0  0
M  END
>  <minimizedAffinity>
-3.84648323

>  <minimizedRMSD>
0.943956137

$$$$
