
 OpenBabel03272509323D

 32 34  0  0  1  0  0  0  0  0999 V2000
   38.1420   26.5430   33.1430 C   0  0  2  0  0  0  0  0  0  0  0  0
   38.9610   27.2400   32.0990 C   0  0  0  0  0  0  0  0  0  0  0  0
   40.4370   26.9270   32.1980 C   0  0  0  0  0  0  0  0  0  0  0  0
   40.9690   27.2680   33.5870 C   0  0  0  0  0  0  0  0  0  0  0  0
   40.0010   26.9750   34.7000 C   0  0  0  0  0  0  0  0  0  0  0  0
   38.9940   25.9230   34.2060 C   0  0  1  0  0  0  0  0  0  0  0  0
   37.4160   27.2110   33.6810 H   0  0  0  0  0  0  0  0  0  0  0  0
   38.9130   28.3410   32.4030 H   0  0  0  0  0  0  0  0  0  0  0  0
   38.6050   27.2220   31.0870 H   0  0  0  0  0  0  0  0  0  0  0  0
   40.7170   25.9220   31.8830 H   0  0  0  0  0  0  0  0  0  0  0  0
   40.9540   27.6260   31.5050 H   0  0  0  0  0  0  0  0  0  0  0  0
   41.3580   28.2940   33.6600 H   0  0  0  0  0  0  0  0  0  0  0  0
   41.8370   26.5650   33.7500 H   0  0  0  0  0  0  0  0  0  0  0  0
   40.4720   26.5610   35.5950 H   0  0  0  0  0  0  0  0  0  0  0  0
   39.4080   27.9010   34.9250 H   0  0  0  0  0  0  0  0  0  0  0  0
   39.6530   25.2120   33.7650 H   0  0  0  0  0  0  0  0  0  0  0  0
   37.3020   25.4790   32.5360 C   0  0  0  0  0  0  0  0  0  0  0  0
   36.1700   25.9120   31.8430 C   0  0  0  0  0  0  0  0  0  0  0  0
   35.3670   24.9220   31.2600 C   0  0  0  0  0  0  0  0  0  0  0  0
   35.7300   23.6080   31.3970 N   0  0  0  0  0  0  0  0  0  0  0  0
   36.8590   23.2330   32.0900 C   0  0  0  0  0  0  0  0  0  0  0  0
   37.6180   24.1790   32.6440 N   0  0  0  0  0  0  0  0  0  0  0  0
   35.7770   26.8890   31.6520 H   0  0  0  0  0  0  0  0  0  0  0  0
   34.4690   25.1120   30.7000 H   0  0  0  0  0  0  0  0  0  0  0  0
   37.1120   22.1870   32.1750 H   0  0  0  0  0  0  0  0  0  0  0  0
   38.8140   24.2540   36.1240 C   0  0  0  0  0  0  0  0  0  0  0  0
   39.9420   23.6830   36.1430 O   0  0  0  0  0  0  0  0  0  0  0  0
   38.2950   25.2490   35.2390 N   0  0  0  0  0  0  0  0  0  0  0  0
   37.2630   25.4630   35.4270 H   0  0  0  0  0  0  0  0  0  0  0  0
   37.9540   23.7310   37.2580 C   0  0  0  0  0  3  0  0  0  0  0  0
   38.6170   23.3130   38.5400 C   0  0  0  0  0  2  0  0  0  0  0  0
   37.8890   24.6020   38.5290 C   0  0  0  0  0  2  0  0  0  0  0  0
  1  7  1  1  0  0  0
  1  6  1  0  0  0  0
  2  3  1  0  0  0  0
  2  8  1  0  0  0  0
  2  1  1  0  0  0  0
  3  4  1  0  0  0  0
  4 12  1  0  0  0  0
  4 13  1  0  0  0  0
  4  5  1  0  0  0  0
  5 15  1  0  0  0  0
  5 14  1  0  0  0  0
  6 16  1  6  0  0  0
  6  5  1  0  0  0  0
  6 28  1  0  0  0  0
  9  2  1  0  0  0  0
 10  3  1  0  0  0  0
 11  3  1  0  0  0  0
 17 22  1  0  0  0  0
 17  1  1  0  0  0  0
 18 17  2  0  0  0  0
 19 20  2  0  0  0  0
 19 18  1  0  0  0  0
 20 21  1  0  0  0  0
 21 25  1  0  0  0  0
 21 22  2  0  0  0  0
 23 18  1  0  0  0  0
 24 19  1  0  0  0  0
 26 27  2  0  0  0  0
 26 30  1  0  0  0  0
 28 29  1  0  0  0  0
 28 26  1  0  0  0  0
 30 32  1  0  0  0  0
 30 31  1  0  0  0  0
 32 31  1  0  0  0  0
M  END
>  <minimizedAffinity>
-5.0841279

$$$$

 OpenBabel03272509323D

 32 34  0  0  1  0  0  0  0  0999 V2000
   38.3600   25.9480   34.2370 C   0  0  2  0  0  0  0  0  0  0  0  0
   38.3090   27.2710   34.9370 C   0  0  0  0  0  0  0  0  0  0  0  0
   36.9810   27.9770   34.7720 C   0  0  0  0  0  0  0  0  0  0  0  0
   36.6480   28.1590   33.2940 C   0  0  0  0  0  0  0  0  0  0  0  0
   37.0660   27.0030   32.4270 C   0  0  0  0  0  0  0  0  0  0  0  0
   37.1990   25.7530   33.3130 C   0  0  1  0  0  0  0  0  0  0  0  0
   39.2810   25.7920   33.6110 H   0  0  0  0  0  0  0  0  0  0  0  0
   39.0240   27.9290   34.3340 H   0  0  0  0  0  0  0  0  0  0  0  0
   38.6780   27.3220   35.9430 H   0  0  0  0  0  0  0  0  0  0  0  0
   36.1550   27.5410   35.3320 H   0  0  0  0  0  0  0  0  0  0  0  0
   37.1200   29.0060   35.1700 H   0  0  0  0  0  0  0  0  0  0  0  0
   37.0090   29.1130   32.8840 H   0  0  0  0  0  0  0  0  0  0  0  0
   35.5200   28.1780   33.2480 H   0  0  0  0  0  0  0  0  0  0  0  0
   36.3440   26.7560   31.6450 H   0  0  0  0  0  0  0  0  0  0  0  0
   38.0870   27.2070   32.0090 H   0  0  0  0  0  0  0  0  0  0  0  0
   36.2910   25.8060   33.8660 H   0  0  0  0  0  0  0  0  0  0  0  0
   38.3730   24.8290   35.2160 C   0  0  0  0  0  0  0  0  0  0  0  0
   37.9860   25.1510   36.5180 C   0  0  0  0  0  0  0  0  0  0  0  0
   37.9870   24.1080   37.4540 C   0  0  0  0  0  0  0  0  0  0  0  0
   38.3600   22.8530   37.0480 N   0  0  0  0  0  0  0  0  0  0  0  0
   38.7330   22.5880   35.7490 C   0  0  0  0  0  0  0  0  0  0  0  0
   38.7300   23.5840   34.8640 N   0  0  0  0  0  0  0  0  0  0  0  0
   37.6670   26.0700   36.9650 H   0  0  0  0  0  0  0  0  0  0  0  0
   37.7140   24.2120   38.4890 H   0  0  0  0  0  0  0  0  0  0  0  0
   39.0190   21.5860   35.4690 H   0  0  0  0  0  0  0  0  0  0  0  0
   36.1450   24.0520   31.7340 C   0  0  0  0  0  0  0  0  0  0  0  0
   35.0090   24.5380   31.4700 O   0  0  0  0  0  0  0  0  0  0  0  0
   37.1760   24.5260   32.6040 N   0  0  0  0  0  0  0  0  0  0  0  0
   37.9890   23.8340   32.6860 H   0  0  0  0  0  0  0  0  0  0  0  0
   36.3490   22.7660   30.9550 C   0  0  0  0  0  3  0  0  0  0  0  0
   37.2790   21.7220   31.5050 C   0  0  0  0  0  2  0  0  0  0  0  0
   35.8230   21.4750   31.6120 C   0  0  0  0  0  2  0  0  0  0  0  0
  1  7  1  6  0  0  0
  1  2  1  0  0  0  0
  1 17  1  0  0  0  0
  2  9  1  0  0  0  0
  3  2  1  0  0  0  0
  3 11  1  0  0  0  0
  3 10  1  0  0  0  0
  4  3  1  0  0  0  0
  5  4  1  0  0  0  0
  5  6  1  0  0  0  0
  6 16  1  1  0  0  0
  6  1  1  0  0  0  0
  8  2  1  0  0  0  0
 12  4  1  0  0  0  0
 13  4  1  0  0  0  0
 14  5  1  0  0  0  0
 15  5  1  0  0  0  0
 17 18  1  0  0  0  0
 18 23  1  0  0  0  0
 18 19  2  0  0  0  0
 19 24  1  0  0  0  0
 20 19  1  0  0  0  0
 21 20  2  0  0  0  0
 22 17  2  0  0  0  0
 22 21  1  0  0  0  0
 25 21  1  0  0  0  0
 26 28  1  0  0  0  0
 27 26  2  0  0  0  0
 28 29  1  0  0  0  0
 28  6  1  0  0  0  0
 30 31  1  0  0  0  0
 30 32  1  0  0  0  0
 30 26  1  0  0  0  0
 31 32  1  0  0  0  0
M  END
>  <minimizedAffinity>
-4.82461309

$$$$

 OpenBabel03272509323D

 32 34  0  0  1  0  0  0  0  0999 V2000
   36.8360   22.2410   31.8190 C   0  0  2  0  0  0  0  0  0  0  0  0
   35.7250   21.5330   31.1060 C   0  0  0  0  0  0  0  0  0  0  0  0
   34.7320   20.8890   32.0480 C   0  0  0  0  0  0  0  0  0  0  0  0
   35.4370   19.9250   32.9980 C   0  0  0  0  0  0  0  0  0  0  0  0
   36.7950   20.3930   33.4450 C   0  0  0  0  0  0  0  0  0  0  0  0
   36.8640   21.9200   33.2810 C   0  0  1  0  0  0  0  0  0  0  0  0
   37.8620   21.9980   31.4310 H   0  0  0  0  0  0  0  0  0  0  0  0
   36.2400   20.6320   30.6240 H   0  0  0  0  0  0  0  0  0  0  0  0
   35.2470   22.0400   30.2900 H   0  0  0  0  0  0  0  0  0  0  0  0
   34.0790   21.5840   32.5730 H   0  0  0  0  0  0  0  0  0  0  0  0
   34.0710   20.2530   31.4210 H   0  0  0  0  0  0  0  0  0  0  0  0
   35.4790   18.8950   32.6150 H   0  0  0  0  0  0  0  0  0  0  0  0
   34.8000   19.9130   33.9300 H   0  0  0  0  0  0  0  0  0  0  0  0
   37.0090   20.1810   34.4960 H   0  0  0  0  0  0  0  0  0  0  0  0
   37.5750   19.9640   32.7620 H   0  0  0  0  0  0  0  0  0  0  0  0
   35.9400   22.2070   33.7260 H   0  0  0  0  0  0  0  0  0  0  0  0
   36.7100   23.7140   31.6660 C   0  0  0  0  0  0  0  0  0  0  0  0
   35.4660   24.1820   31.2390 C   0  0  0  0  0  0  0  0  0  0  0  0
   35.3280   25.5690   31.0930 C   0  0  0  0  0  0  0  0  0  0  0  0
   36.4000   26.3760   31.3720 N   0  0  0  0  0  0  0  0  0  0  0  0
   37.6070   25.8630   31.7920 C   0  0  0  0  0  0  0  0  0  0  0  0
   37.7330   24.5430   31.9280 N   0  0  0  0  0  0  0  0  0  0  0  0
   34.5540   23.6760   30.9980 H   0  0  0  0  0  0  0  0  0  0  0  0
   34.4290   26.0650   30.7720 H   0  0  0  0  0  0  0  0  0  0  0  0
   38.4270   26.5320   32.0020 H   0  0  0  0  0  0  0  0  0  0  0  0
   37.9820   22.6490   35.4520 C   0  0  0  0  0  0  0  0  0  0  0  0
   37.1590   22.3120   36.3510 O   0  0  0  0  0  0  0  0  0  0  0  0
   37.8910   22.5460   34.0290 N   0  0  0  0  0  0  0  0  0  0  0  0
   38.7190   23.0110   33.5340 H   0  0  0  0  0  0  0  0  0  0  0  0
   39.2240   23.2430   36.0880 C   0  0  0  0  0  3  0  0  0  0  0  0
   39.5010   22.9680   37.5390 C   0  0  0  0  0  2  0  0  0  0  0  0
   40.3130   22.2470   36.5320 C   0  0  0  0  0  2  0  0  0  0  0  0
  1  7  1  6  0  0  0
  1  6  1  0  0  0  0
  2  1  1  0  0  0  0
  2  3  1  0  0  0  0
  3 10  1  0  0  0  0
  3  4  1  0  0  0  0
  4  5  1  0  0  0  0
  4 13  1  0  0  0  0
  5 14  1  0  0  0  0
  6  5  1  0  0  0  0
  6 16  1  1  0  0  0
  6 28  1  0  0  0  0
  8  2  1  0  0  0  0
  9  2  1  0  0  0  0
 11  3  1  0  0  0  0
 12  4  1  0  0  0  0
 15  5  1  0  0  0  0
 17  1  1  0  0  0  0
 17 22  1  0  0  0  0
 18 17  2  0  0  0  0
 19 18  1  0  0  0  0
 19 20  2  0  0  0  0
 20 21  1  0  0  0  0
 21 22  2  0  0  0  0
 21 25  1  0  0  0  0
 23 18  1  0  0  0  0
 24 19  1  0  0  0  0
 26 30  1  0  0  0  0
 26 27  2  0  0  0  0
 28 26  1  0  0  0  0
 29 28  1  0  0  0  0
 30 32  1  0  0  0  0
 30 31  1  0  0  0  0
 32 31  1  0  0  0  0
M  END
>  <minimizedAffinity>
-4.6727066

$$$$

 OpenBabel03272509323D

 32 34  0  0  1  0  0  0  0  0999 V2000
   37.7420   26.6060   34.5880 C   0  0  2  0  0  0  0  0  0  0  0  0
   38.8960   27.1990   35.3370 C   0  0  0  0  0  0  0  0  0  0  0  0
   40.2350   26.6590   34.8870 C   0  0  0  0  0  0  0  0  0  0  0  0
   40.2690   25.1380   35.0020 C   0  0  0  0  0  0  0  0  0  0  0  0
   38.9670   24.4700   34.6550 C   0  0  0  0  0  0  0  0  0  0  0  0
   38.1510   25.4240   33.7660 C   0  0  1  0  0  0  0  0  0  0  0  0
   36.9010   26.2490   35.2430 H   0  0  0  0  0  0  0  0  0  0  0  0
   38.7890   26.7680   36.3910 H   0  0  0  0  0  0  0  0  0  0  0  0
   38.9100   28.2620   35.4800 H   0  0  0  0  0  0  0  0  0  0  0  0
   40.5670   27.0080   33.9110 H   0  0  0  0  0  0  0  0  0  0  0  0
   40.9850   27.0260   35.6210 H   0  0  0  0  0  0  0  0  0  0  0  0
   40.6480   24.7860   35.9720 H   0  0  0  0  0  0  0  0  0  0  0  0
   41.0010   24.8000   34.2110 H   0  0  0  0  0  0  0  0  0  0  0  0
   39.0840   23.5410   34.0920 H   0  0  0  0  0  0  0  0  0  0  0  0
   38.3690   24.3210   35.5930 H   0  0  0  0  0  0  0  0  0  0  0  0
   38.8940   25.7200   33.0620 H   0  0  0  0  0  0  0  0  0  0  0  0
   37.1220   27.6110   33.6860 C   0  0  0  0  0  0  0  0  0  0  0  0
   36.1690   28.4500   34.2670 C   0  0  0  0  0  0  0  0  0  0  0  0
   35.5760   29.4080   33.4330 C   0  0  0  0  0  0  0  0  0  0  0  0
   35.9570   29.4690   32.1180 N   0  0  0  0  0  0  0  0  0  0  0  0
   36.9040   28.6170   31.5940 C   0  0  0  0  0  0  0  0  0  0  0  0
   37.4640   27.7080   32.3920 N   0  0  0  0  0  0  0  0  0  0  0  0
   35.7880   28.5190   35.2650 H   0  0  0  0  0  0  0  0  0  0  0  0
   34.8290   30.1160   33.7460 H   0  0  0  0  0  0  0  0  0  0  0  0
   37.1770   28.6980   30.5530 H   0  0  0  0  0  0  0  0  0  0  0  0
   37.2590   23.8080   32.0080 C   0  0  0  0  0  0  0  0  0  0  0  0
   38.3000   23.3380   31.4650 O   0  0  0  0  0  0  0  0  0  0  0  0
   37.1150   24.7980   33.0290 N   0  0  0  0  0  0  0  0  0  0  0  0
   36.0910   25.0510   33.2090 H   0  0  0  0  0  0  0  0  0  0  0  0
   36.0270   23.1520   31.4150 C   0  0  0  0  0  3  0  0  0  0  0  0
   36.1010   21.7110   30.9960 C   0  0  0  0  0  2  0  0  0  0  0  0
   35.3770   22.0300   32.2480 C   0  0  0  0  0  2  0  0  0  0  0  0
  1  7  1  1  0  0  0
  1  2  1  0  0  0  0
  2  9  1  0  0  0  0
  2  8  1  0  0  0  0
  3  4  1  0  0  0  0
  3  2  1  0  0  0  0
  3 11  1  0  0  0  0
  4 12  1  0  0  0  0
  5  4  1  0  0  0  0
  5 15  1  0  0  0  0
  6 16  1  6  0  0  0
  6  1  1  0  0  0  0
  6  5  1  0  0  0  0
 10  3  1  0  0  0  0
 13  4  1  0  0  0  0
 14  5  1  0  0  0  0
 17 18  1  0  0  0  0
 17  1  1  0  0  0  0
 18 23  1  0  0  0  0
 19 24  1  0  0  0  0
 19 18  2  0  0  0  0
 20 19  1  0  0  0  0
 21 20  2  0  0  0  0
 21 22  1  0  0  0  0
 22 17  2  0  0  0  0
 25 21  1  0  0  0  0
 26 28  1  0  0  0  0
 27 26  2  0  0  0  0
 28 29  1  0  0  0  0
 28  6  1  0  0  0  0
 30 26  1  0  0  0  0
 30 32  1  0  0  0  0
 31 30  1  0  0  0  0
 31 32  1  0  0  0  0
M  END
>  <minimizedAffinity>
-4.61876488

$$$$

 OpenBabel03272509323D

 32 34  0  0  1  0  0  0  0  0999 V2000
   37.4540   25.1500   32.6460 C   0  0  2  0  0  0  0  0  0  0  0  0
   38.0020   25.8790   31.4570 C   0  0  0  0  0  0  0  0  0  0  0  0
   39.4650   26.2330   31.6020 C   0  0  0  0  0  0  0  0  0  0  0  0
   39.6980   27.0540   32.8670 C   0  0  0  0  0  0  0  0  0  0  0  0
   38.8450   26.6360   34.0320 C   0  0  0  0  0  0  0  0  0  0  0  0
   38.3940   25.1830   33.8100 C   0  0  1  0  0  0  0  0  0  0  0  0
   36.4780   25.5580   33.0270 H   0  0  0  0  0  0  0  0  0  0  0  0
   37.4870   26.9000   31.5000 H   0  0  0  0  0  0  0  0  0  0  0  0
   37.7670   25.4990   30.4810 H   0  0  0  0  0  0  0  0  0  0  0  0
   40.1520   25.3920   31.5220 H   0  0  0  0  0  0  0  0  0  0  0  0
   39.7090   26.9160   30.7590 H   0  0  0  0  0  0  0  0  0  0  0  0
   39.6310   28.1390   32.6960 H   0  0  0  0  0  0  0  0  0  0  0  0
   40.7600   26.8260   33.1730 H   0  0  0  0  0  0  0  0  0  0  0  0
   39.3680   26.6570   34.9910 H   0  0  0  0  0  0  0  0  0  0  0  0
   37.9120   27.2590   34.0480 H   0  0  0  0  0  0  0  0  0  0  0  0
   39.3180   24.7310   33.5340 H   0  0  0  0  0  0  0  0  0  0  0  0
   37.1690   23.7300   32.3130 C   0  0  0  0  0  0  0  0  0  0  0  0
   35.9900   23.4920   31.6030 C   0  0  0  0  0  0  0  0  0  0  0  0
   35.7080   22.1590   31.2770 C   0  0  0  0  0  0  0  0  0  0  0  0
   36.5860   21.1800   31.6620 N   0  0  0  0  0  0  0  0  0  0  0  0
   37.7370   21.4690   32.3600 C   0  0  0  0  0  0  0  0  0  0  0  0
   38.0010   22.7390   32.6690 N   0  0  0  0  0  0  0  0  0  0  0  0
   35.2290   24.1490   31.2350 H   0  0  0  0  0  0  0  0  0  0  0  0
   34.8370   21.8310   30.7350 H   0  0  0  0  0  0  0  0  0  0  0  0
   38.4050   20.6700   32.6450 H   0  0  0  0  0  0  0  0  0  0  0  0
   38.7570   23.9450   36.0080 C   0  0  0  0  0  0  0  0  0  0  0  0
   40.0120   23.8010   36.0780 O   0  0  0  0  0  0  0  0  0  0  0  0
   37.9480   24.5200   34.9800 N   0  0  0  0  0  0  0  0  0  0  0  0
   36.9010   24.4050   35.1750 H   0  0  0  0  0  0  0  0  0  0  0  0
   38.1050   23.3870   37.2580 C   0  0  0  0  0  3  0  0  0  0  0  0
   38.9130   23.2990   38.5220 C   0  0  0  0  0  2  0  0  0  0  0  0
   37.8980   24.3740   38.4240 C   0  0  0  0  0  2  0  0  0  0  0  0
  1  7  1  1  0  0  0
  1  6  1  0  0  0  0
  2  8  1  0  0  0  0
  2  3  1  0  0  0  0
  2  1  1  0  0  0  0
  3  4  1  0  0  0  0
  4 13  1  0  0  0  0
  4  5  1  0  0  0  0
  5 15  1  0  0  0  0
  5 14  1  0  0  0  0
  6 16  1  6  0  0  0
  6  5  1  0  0  0  0
  6 28  1  0  0  0  0
  9  2  1  0  0  0  0
 10  3  1  0  0  0  0
 11  3  1  0  0  0  0
 12  4  1  0  0  0  0
 17  1  1  0  0  0  0
 17 22  1  0  0  0  0
 18 17  2  0  0  0  0
 19 18  1  0  0  0  0
 19 20  2  0  0  0  0
 20 21  1  0  0  0  0
 21 25  1  0  0  0  0
 21 22  2  0  0  0  0
 23 18  1  0  0  0  0
 24 19  1  0  0  0  0
 26 27  2  0  0  0  0
 26 30  1  0  0  0  0
 28 29  1  0  0  0  0
 28 26  1  0  0  0  0
 30 32  1  0  0  0  0
 30 31  1  0  0  0  0
 32 31  1  0  0  0  0
M  END
>  <minimizedAffinity>
-4.56249094

$$$$

 OpenBabel03272509323D

 32 34  0  0  1  0  0  0  0  0999 V2000
   39.1830   24.5850   33.7890 C   0  0  2  0  0  0  0  0  0  0  0  0
   40.3400   25.4350   34.2160 C   0  0  0  0  0  0  0  0  0  0  0  0
   40.0910   26.9150   34.0240 C   0  0  0  0  0  0  0  0  0  0  0  0
   39.7330   27.2160   32.5710 C   0  0  0  0  0  0  0  0  0  0  0  0
   38.8860   26.1590   31.9190 C   0  0  0  0  0  0  0  0  0  0  0  0
   38.1630   25.3650   33.0200 C   0  0  1  0  0  0  0  0  0  0  0  0
   39.4650   23.7170   33.1340 H   0  0  0  0  0  0  0  0  0  0  0  0
   41.1480   25.2090   33.4390 H   0  0  0  0  0  0  0  0  0  0  0  0
   40.8040   25.2170   35.1590 H   0  0  0  0  0  0  0  0  0  0  0  0
   39.3850   27.3570   34.7240 H   0  0  0  0  0  0  0  0  0  0  0  0
   41.0640   27.4230   34.1980 H   0  0  0  0  0  0  0  0  0  0  0  0
   40.6100   27.4590   31.9530 H   0  0  0  0  0  0  0  0  0  0  0  0
   39.0840   28.1390   32.6140 H   0  0  0  0  0  0  0  0  0  0  0  0
   38.1100   26.5600   31.2620 H   0  0  0  0  0  0  0  0  0  0  0  0
   39.5530   25.4290   31.3870 H   0  0  0  0  0  0  0  0  0  0  0  0
   37.7930   26.1600   33.6240 H   0  0  0  0  0  0  0  0  0  0  0  0
   38.5130   23.9710   34.9660 C   0  0  0  0  0  0  0  0  0  0  0  0
   38.3870   24.7850   36.0930 C   0  0  0  0  0  0  0  0  0  0  0  0
   37.7540   24.2250   37.2100 C   0  0  0  0  0  0  0  0  0  0  0  0
   37.3010   22.9330   37.1380 N   0  0  0  0  0  0  0  0  0  0  0  0
   37.4490   22.1720   36.0000 C   0  0  0  0  0  0  0  0  0  0  0  0
   38.0530   22.7110   34.9400 N   0  0  0  0  0  0  0  0  0  0  0  0
   38.6800   25.7970   36.2830 H   0  0  0  0  0  0  0  0  0  0  0  0
   37.5890   24.7360   38.1430 H   0  0  0  0  0  0  0  0  0  0  0  0
   37.0780   21.1590   35.9820 H   0  0  0  0  0  0  0  0  0  0  0  0
   37.0260   23.5590   31.6270 C   0  0  0  0  0  0  0  0  0  0  0  0
   37.9570   23.0850   30.9150 O   0  0  0  0  0  0  0  0  0  0  0  0
   37.0370   24.6310   32.5710 N   0  0  0  0  0  0  0  0  0  0  0  0
   36.0580   24.8570   32.9430 H   0  0  0  0  0  0  0  0  0  0  0  0
   35.7390   22.8010   31.3610 C   0  0  0  0  0  3  0  0  0  0  0  0
   35.8140   21.3420   31.0110 C   0  0  0  0  0  2  0  0  0  0  0  0
   35.3670   21.7020   32.3760 C   0  0  0  0  0  2  0  0  0  0  0  0
  1  7  1  6  0  0  0
  1  2  1  0  0  0  0
  1 17  1  0  0  0  0
  2  9  1  0  0  0  0
  3 11  1  0  0  0  0
  3  2  1  0  0  0  0
  3 10  1  0  0  0  0
  4 13  1  0  0  0  0
  4  3  1  0  0  0  0
  5  4  1  0  0  0  0
  5  6  1  0  0  0  0
  6 16  1  1  0  0  0
  6  1  1  0  0  0  0
  8  2  1  0  0  0  0
 12  4  1  0  0  0  0
 14  5  1  0  0  0  0
 15  5  1  0  0  0  0
 17 18  1  0  0  0  0
 18 23  1  0  0  0  0
 18 19  2  0  0  0  0
 19 24  1  0  0  0  0
 20 19  1  0  0  0  0
 21 20  2  0  0  0  0
 22 17  2  0  0  0  0
 22 21  1  0  0  0  0
 25 21  1  0  0  0  0
 26 28  1  0  0  0  0
 27 26  2  0  0  0  0
 28 29  1  0  0  0  0
 28  6  1  0  0  0  0
 30 26  1  0  0  0  0
 30 32  1  0  0  0  0
 31 30  1  0  0  0  0
 31 32  1  0  0  0  0
M  END
>  <minimizedAffinity>
-4.50006628

$$$$

 OpenBabel03272509323D

 32 34  0  0  1  0  0  0  0  0999 V2000
   41.0150   26.5750   34.6250 C   0  0  2  0  0  0  0  0  0  0  0  0
   41.8440   27.1670   33.5270 C   0  0  0  0  0  0  0  0  0  0  0  0
   42.3150   26.1400   32.5210 C   0  0  0  0  0  0  0  0  0  0  0  0
   43.0910   25.0230   33.2130 C   0  0  0  0  0  0  0  0  0  0  0  0
   42.5460   24.6470   34.5630 C   0  0  0  0  0  0  0  0  0  0  0  0
   41.0710   25.0790   34.6310 C   0  0  1  0  0  0  0  0  0  0  0  0
   41.3180   26.8990   35.6580 H   0  0  0  0  0  0  0  0  0  0  0  0
   42.8130   27.4740   34.0500 H   0  0  0  0  0  0  0  0  0  0  0  0
   41.4920   28.0660   33.0590 H   0  0  0  0  0  0  0  0  0  0  0  0
   41.5410   25.7560   31.8580 H   0  0  0  0  0  0  0  0  0  0  0  0
   43.0560   26.6530   31.8700 H   0  0  0  0  0  0  0  0  0  0  0  0
   44.1730   25.2170   33.2630 H   0  0  0  0  0  0  0  0  0  0  0  0
   42.9410   24.1140   32.5620 H   0  0  0  0  0  0  0  0  0  0  0  0
   42.5660   23.5720   34.7620 H   0  0  0  0  0  0  0  0  0  0  0  0
   43.0850   25.2320   35.3540 H   0  0  0  0  0  0  0  0  0  0  0  0
   40.7140   24.7060   33.7000 H   0  0  0  0  0  0  0  0  0  0  0  0
   39.5930   26.9890   34.4990 C   0  0  0  0  0  0  0  0  0  0  0  0
   39.0620   26.9710   33.2080 C   0  0  0  0  0  0  0  0  0  0  0  0
   37.7210   27.3540   33.0700 C   0  0  0  0  0  0  0  0  0  0  0  0
   37.0170   27.7190   34.1880 N   0  0  0  0  0  0  0  0  0  0  0  0
   37.5880   27.7190   35.4410 C   0  0  0  0  0  0  0  0  0  0  0  0
   38.8640   27.3530   35.5650 N   0  0  0  0  0  0  0  0  0  0  0  0
   39.4860   26.7040   32.2620 H   0  0  0  0  0  0  0  0  0  0  0  0
   37.1850   27.3880   32.1380 H   0  0  0  0  0  0  0  0  0  0  0  0
   37.0000   28.0120   36.2960 H   0  0  0  0  0  0  0  0  0  0  0  0
   39.0680   23.7620   35.4960 C   0  0  0  0  0  0  0  0  0  0  0  0
   38.3110   23.6550   34.4890 O   0  0  0  0  0  0  0  0  0  0  0  0
   40.3180   24.4390   35.6460 N   0  0  0  0  0  0  0  0  0  0  0  0
   40.6690   24.4260   36.6580 H   0  0  0  0  0  0  0  0  0  0  0  0
   38.4660   23.0200   36.6740 C   0  0  0  0  0  3  0  0  0  0  0  0
   39.0990   23.1710   38.0280 C   0  0  0  0  0  2  0  0  0  0  0  0
   37.8260   23.8860   37.7770 C   0  0  0  0  0  2  0  0  0  0  0  0
  1  6  1  0  0  0  0
  1  7  1  1  0  0  0
  2  8  1  0  0  0  0
  2  1  1  0  0  0  0
  3  4  1  0  0  0  0
  3  2  1  0  0  0  0
  4 12  1  0  0  0  0
  4  5  1  0  0  0  0
  5  6  1  0  0  0  0
  5 14  1  0  0  0  0
  5 15  1  0  0  0  0
  6 16  1  6  0  0  0
  6 28  1  0  0  0  0
  9  2  1  0  0  0  0
 10  3  1  0  0  0  0
 11  3  1  0  0  0  0
 13  4  1  0  0  0  0
 17  1  1  0  0  0  0
 17 22  1  0  0  0  0
 18 17  2  0  0  0  0
 19 18  1  0  0  0  0
 19 20  2  0  0  0  0
 20 21  1  0  0  0  0
 21 22  2  0  0  0  0
 21 25  1  0  0  0  0
 23 18  1  0  0  0  0
 24 19  1  0  0  0  0
 26 28  1  0  0  0  0
 26 30  1  0  0  0  0
 27 26  2  0  0  0  0
 28 29  1  0  0  0  0
 30 32  1  0  0  0  0
 30 31  1  0  0  0  0
 32 31  1  0  0  0  0
M  END
>  <minimizedAffinity>
-4.49815321

$$$$

 OpenBabel03272509323D

 32 34  0  0  1  0  0  0  0  0999 V2000
   38.0360   24.9970   32.5430 C   0  0  2  0  0  0  0  0  0  0  0  0
   37.0450   25.2990   31.4610 C   0  0  0  0  0  0  0  0  0  0  0  0
   35.8770   24.3380   31.4420 C   0  0  0  0  0  0  0  0  0  0  0  0
   36.3660   22.8990   31.3110 C   0  0  0  0  0  0  0  0  0  0  0  0
   37.6380   22.6150   32.0610 C   0  0  0  0  0  0  0  0  0  0  0  0
   37.7910   23.6630   33.1760 C   0  0  1  0  0  0  0  0  0  0  0  0
   39.1060   24.9820   32.1970 H   0  0  0  0  0  0  0  0  0  0  0  0
   37.6040   25.0400   30.4970 H   0  0  0  0  0  0  0  0  0  0  0  0
   36.7390   26.3190   31.3300 H   0  0  0  0  0  0  0  0  0  0  0  0
   35.1670   24.4620   32.2580 H   0  0  0  0  0  0  0  0  0  0  0  0
   35.3150   24.5450   30.5050 H   0  0  0  0  0  0  0  0  0  0  0  0
   36.4370   22.5610   30.2670 H   0  0  0  0  0  0  0  0  0  0  0  0
   35.5730   22.2730   31.8150 H   0  0  0  0  0  0  0  0  0  0  0  0
   37.6530   21.6370   32.5470 H   0  0  0  0  0  0  0  0  0  0  0  0
   38.5110   22.7560   31.3700 H   0  0  0  0  0  0  0  0  0  0  0  0
   36.8140   23.6440   33.5990 H   0  0  0  0  0  0  0  0  0  0  0  0
   37.9940   26.0350   33.6060 C   0  0  0  0  0  0  0  0  0  0  0  0
   36.8690   26.8610   33.6110 C   0  0  0  0  0  0  0  0  0  0  0  0
   36.8100   27.8430   34.6100 C   0  0  0  0  0  0  0  0  0  0  0  0
   37.8390   27.9370   35.5090 N   0  0  0  0  0  0  0  0  0  0  0  0
   38.9280   27.0960   35.4600 C   0  0  0  0  0  0  0  0  0  0  0  0
   38.9790   26.1640   34.5080 N   0  0  0  0  0  0  0  0  0  0  0  0
   36.0000   26.8940   32.9870 H   0  0  0  0  0  0  0  0  0  0  0  0
   36.0040   28.5460   34.7320 H   0  0  0  0  0  0  0  0  0  0  0  0
   39.7180   27.2010   36.1880 H   0  0  0  0  0  0  0  0  0  0  0  0
   38.4390   22.4060   35.2960 C   0  0  0  0  0  0  0  0  0  0  0  0
   37.3710   21.8280   35.6510 O   0  0  0  0  0  0  0  0  0  0  0  0
   38.6910   23.2960   34.2070 N   0  0  0  0  0  0  0  0  0  0  0  0
   39.6840   23.6960   34.2290 H   0  0  0  0  0  0  0  0  0  0  0  0
   39.5660   22.0280   36.2380 C   0  0  0  0  0  3  0  0  0  0  0  0
   40.7410   22.9540   36.3730 C   0  0  0  0  0  2  0  0  0  0  0  0
   39.7550   22.9240   37.4770 C   0  0  0  0  0  2  0  0  0  0  0  0
  1  7  1  6  0  0  0
  1  6  1  0  0  0  0
  1 17  1  0  0  0  0
  2  1  1  0  0  0  0
  3  2  1  0  0  0  0
  3 10  1  0  0  0  0
  4  3  1  0  0  0  0
  4 13  1  0  0  0  0
  4  5  1  0  0  0  0
  5 14  1  0  0  0  0
  5  6  1  0  0  0  0
  6 16  1  1  0  0  0
  6 28  1  0  0  0  0
  8  2  1  0  0  0  0
  9  2  1  0  0  0  0
 11  3  1  0  0  0  0
 12  4  1  0  0  0  0
 15  5  1  0  0  0  0
 17 18  2  0  0  0  0
 17 22  1  0  0  0  0
 18 19  1  0  0  0  0
 19 24  1  0  0  0  0
 19 20  2  0  0  0  0
 21 20  1  0  0  0  0
 21 25  1  0  0  0  0
 22 21  2  0  0  0  0
 23 18  1  0  0  0  0
 26 27  2  0  0  0  0
 26 30  1  0  0  0  0
 28 29  1  0  0  0  0
 28 26  1  0  0  0  0
 30 31  1  0  0  0  0
 30 32  1  0  0  0  0
 31 32  1  0  0  0  0
M  END
>  <minimizedAffinity>
-4.47250223

$$$$

 OpenBabel03272509323D

 32 34  0  0  1  0  0  0  0  0999 V2000
   39.2790   25.4340   34.6920 C   0  0  2  0  0  0  0  0  0  0  0  0
   39.4140   26.8020   35.2870 C   0  0  0  0  0  0  0  0  0  0  0  0
   38.0820   27.4460   35.6010 C   0  0  0  0  0  0  0  0  0  0  0  0
   37.2050   27.5070   34.3540 C   0  0  0  0  0  0  0  0  0  0  0  0
   37.3350   26.3060   33.4580 C   0  0  0  0  0  0  0  0  0  0  0  0
   37.8690   25.1300   34.2920 C   0  0  1  0  0  0  0  0  0  0  0  0
   39.9030   25.2660   33.7730 H   0  0  0  0  0  0  0  0  0  0  0  0
   39.8080   27.4390   34.4220 H   0  0  0  0  0  0  0  0  0  0  0  0
   40.1320   26.9400   36.0730 H   0  0  0  0  0  0  0  0  0  0  0  0
   37.5570   27.0230   36.4560 H   0  0  0  0  0  0  0  0  0  0  0  0
   38.2980   28.5050   35.8610 H   0  0  0  0  0  0  0  0  0  0  0  0
   37.3270   28.4410   33.7860 H   0  0  0  0  0  0  0  0  0  0  0  0
   36.1450   27.4820   34.7400 H   0  0  0  0  0  0  0  0  0  0  0  0
   36.3880   25.9770   33.0230 H   0  0  0  0  0  0  0  0  0  0  0  0
   38.1090   26.5160   32.6720 H   0  0  0  0  0  0  0  0  0  0  0  0
   37.2350   25.1910   35.1450 H   0  0  0  0  0  0  0  0  0  0  0  0
   39.7280   24.3910   35.6520 C   0  0  0  0  0  0  0  0  0  0  0  0
   41.0230   23.9050   35.4660 C   0  0  0  0  0  0  0  0  0  0  0  0
   41.4660   22.9240   36.3640 C   0  0  0  0  0  0  0  0  0  0  0  0
   40.6200   22.5040   37.3580 N   0  0  0  0  0  0  0  0  0  0  0  0
   39.3500   23.0180   37.4990 C   0  0  0  0  0  0  0  0  0  0  0  0
   38.9350   23.9510   36.6410 N   0  0  0  0  0  0  0  0  0  0  0  0
   41.7830   24.1440   34.7510 H   0  0  0  0  0  0  0  0  0  0  0  0
   42.4370   22.4620   36.3380 H   0  0  0  0  0  0  0  0  0  0  0  0
   38.7150   22.6620   38.2950 H   0  0  0  0  0  0  0  0  0  0  0  0
   38.1710   23.3740   32.4690 C   0  0  0  0  0  0  0  0  0  0  0  0
   38.8320   23.9700   31.5720 O   0  0  0  0  0  0  0  0  0  0  0  0
   37.6550   23.8540   33.7130 N   0  0  0  0  0  0  0  0  0  0  0  0
   37.0500   23.1260   34.2110 H   0  0  0  0  0  0  0  0  0  0  0  0
   37.9430   21.9300   32.0660 C   0  0  0  0  0  3  0  0  0  0  0  0
   36.8800   21.1370   32.7730 C   0  0  0  0  0  2  0  0  0  0  0  0
   36.5920   21.6080   31.3980 C   0  0  0  0  0  2  0  0  0  0  0  0
  1  7  1  6  0  0  0
  1  2  1  0  0  0  0
  1 17  1  0  0  0  0
  2  3  1  0  0  0  0
  2  9  1  0  0  0  0
  3 11  1  0  0  0  0
  3 10  1  0  0  0  0
  4 13  1  0  0  0  0
  4  3  1  0  0  0  0
  5  6  1  0  0  0  0
  5  4  1  0  0  0  0
  6  1  1  0  0  0  0
  6 16  1  1  0  0  0
  8  2  1  0  0  0  0
 12  4  1  0  0  0  0
 14  5  1  0  0  0  0
 15  5  1  0  0  0  0
 17 22  1  0  0  0  0
 18 17  2  0  0  0  0
 18 19  1  0  0  0  0
 19 20  2  0  0  0  0
 20 21  1  0  0  0  0
 21 25  1  0  0  0  0
 22 21  2  0  0  0  0
 23 18  1  0  0  0  0
 24 19  1  0  0  0  0
 26 28  1  0  0  0  0
 27 26  2  0  0  0  0
 28 29  1  0  0  0  0
 28  6  1  0  0  0  0
 30 26  1  0  0  0  0
 30 31  1  0  0  0  0
 32 30  1  0  0  0  0
 32 31  1  0  0  0  0
M  END
>  <minimizedAffinity>
-4.43967438

$$$$
