
 OpenBabel03272509413D

 29 31  0  0  0  0  0  0  0  0999 V2000
   36.4830   28.6890   32.5190 C   0  0  0  0  0  0  0  0  0  0  0  0
   35.9730   29.7520   31.7540 C   0  0  0  0  0  0  0  0  0  0  0  0
   35.2970   30.8150   32.3440 C   0  0  0  0  0  0  0  0  0  0  0  0
   35.1090   30.8500   33.7260 C   0  0  0  0  0  0  0  0  0  0  0  0
   35.6170   29.8000   34.4510 C   0  0  0  0  0  0  0  0  0  0  0  0
   36.2870   28.7490   33.8490 C   0  0  0  0  0  0  0  0  0  0  0  0
   36.1220   29.7190   30.6820 H   0  0  0  0  0  0  0  0  0  0  0  0
   34.9160   31.6190   31.7170 H   0  0  0  0  0  0  0  0  0  0  0  0
   34.5780   31.6970   34.1420 H   0  0  0  0  0  0  0  0  0  0  0  0
   35.4350   29.8920   35.5160 H   0  0  0  0  0  0  0  0  0  0  0  0
   37.1740   27.6210   31.8230 C   0  0  0  0  0  0  0  0  0  0  0  0
   38.2950   27.9610   31.3010 O   0  0  0  0  0  0  0  0  0  0  0  0
   34.9210   24.9420   30.8560 C   0  0  0  0  0  0  0  0  0  0  0  0
   35.5580   23.7920   31.3230 C   0  0  0  0  0  0  0  0  0  0  0  0
   36.7660   23.9320   31.9750 C   0  0  0  0  0  0  0  0  0  0  0  0
   37.3010   25.1690   32.1440 N   0  0  0  0  0  0  0  0  0  0  0  0
   36.6830   26.2520   31.6930 C   0  0  0  0  0  0  0  0  0  0  0  0
   35.4940   26.1170   31.0520 N   0  0  0  0  0  0  0  0  0  0  0  0
   33.9750   24.9020   30.3390 H   0  0  0  0  0  0  0  0  0  0  0  0
   35.0300   22.8720   31.1260 H   0  0  0  0  0  0  0  0  0  0  0  0
   37.2300   23.0360   32.3210 H   0  0  0  0  0  0  0  0  0  0  0  0
   36.7420   27.7400   34.7650 C   0  0  0  0  0  3  0  0  0  0  0  0
   37.8840   27.6710   35.4130 C   0  0  0  0  0  3  0  0  0  0  0  0
   38.4610   26.7360   36.3670 C   0  0  0  0  0  0  0  0  0  0  0  0
   39.5790   26.7800   36.3320 H   0  0  0  0  0  0  0  0  0  0  0  0
   38.1580   26.9680   37.4070 H   0  0  0  0  0  0  0  0  0  0  0  0
   38.0040   25.3360   36.0530 C   0  0  0  0  0  3  0  0  0  0  0  0
   37.9240   24.3780   37.2460 C   0  0  0  0  0  2  0  0  0  0  0  0
   38.9050   24.1640   36.1550 C   0  0  0  0  0  2  0  0  0  0  0  0
  1  6  1  0  0  0  0
  2  3  1  0  0  0  0
  2  1  2  0  0  0  0
  3  4  2  0  0  0  0
  4  9  1  0  0  0  0
  4  5  1  0  0  0  0
  5 10  1  0  0  0  0
  6  5  2  0  0  0  0
  6 22  1  0  0  0  0
  7  2  1  0  0  0  0
  8  3  1  0  0  0  0
 11  1  1  0  0  0  0
 12 11  2  0  0  0  0
 13 18  2  0  0  0  0
 13 14  1  0  0  0  0
 14 15  2  0  0  0  0
 15 16  1  0  0  0  0
 15 21  1  0  0  0  0
 17 11  1  0  0  0  0
 17 16  2  0  0  0  0
 18 17  1  0  0  0  0
 19 13  1  0  0  0  0
 20 14  1  0  0  0  0
 22 23  2  0  0  0  0
 23 24  1  0  0  0  0
 24 26  1  0  0  0  0
 25 24  1  0  0  0  0
 27 29  1  0  0  0  0
 27 24  1  0  0  0  0
 27 28  1  0  0  0  0
 29 28  1  0  0  0  0
M  END
>  <minimizedAffinity>
-5.37194443

$$$$

 OpenBabel03272509413D

 29 31  0  0  0  0  0  0  0  0999 V2000
   39.1640   27.1040   32.7930 C   0  0  0  0  0  0  0  0  0  0  0  0
   40.0190   27.3480   31.7040 C   0  0  0  0  0  0  0  0  0  0  0  0
   41.3970   27.4410   31.8670 C   0  0  0  0  0  0  0  0  0  0  0  0
   41.9690   27.2920   33.1320 C   0  0  0  0  0  0  0  0  0  0  0  0
   41.1120   27.0540   34.1780 C   0  0  0  0  0  0  0  0  0  0  0  0
   39.7430   26.9640   34.0000 C   0  0  0  0  0  0  0  0  0  0  0  0
   39.5690   27.4630   30.7260 H   0  0  0  0  0  0  0  0  0  0  0  0
   42.0250   27.6320   31.0000 H   0  0  0  0  0  0  0  0  0  0  0  0
   43.0460   27.3710   33.2110 H   0  0  0  0  0  0  0  0  0  0  0  0
   41.6230   26.9490   35.1290 H   0  0  0  0  0  0  0  0  0  0  0  0
   37.7400   27.0230   32.5350 C   0  0  0  0  0  0  0  0  0  0  0  0
   37.1080   28.1310   32.6720 O   0  0  0  0  0  0  0  0  0  0  0  0
   35.1310   25.0000   31.0210 C   0  0  0  0  0  0  0  0  0  0  0  0
   35.5180   23.6920   31.3130 C   0  0  0  0  0  0  0  0  0  0  0  0
   36.6790   23.4990   32.0330 C   0  0  0  0  0  0  0  0  0  0  0  0
   37.4090   24.5710   32.4360 N   0  0  0  0  0  0  0  0  0  0  0  0
   37.0260   25.8080   32.1490 C   0  0  0  0  0  0  0  0  0  0  0  0
   35.8850   26.0010   31.4420 N   0  0  0  0  0  0  0  0  0  0  0  0
   34.2340   25.2200   30.4620 H   0  0  0  0  0  0  0  0  0  0  0  0
   34.8540   22.9300   30.9370 H   0  0  0  0  0  0  0  0  0  0  0  0
   36.9500   22.4880   32.2410 H   0  0  0  0  0  0  0  0  0  0  0  0
   39.0070   26.7170   35.2090 C   0  0  0  0  0  3  0  0  0  0  0  0
   38.6720   25.5670   35.7490 C   0  0  0  0  0  3  0  0  0  0  0  0
   37.9590   25.1730   36.9540 C   0  0  0  0  0  0  0  0  0  0  0  0
   38.3280   25.7550   37.8370 H   0  0  0  0  0  0  0  0  0  0  0  0
   36.8710   25.3630   36.8720 H   0  0  0  0  0  0  0  0  0  0  0  0
   38.1530   23.7020   37.2080 C   0  0  0  0  0  3  0  0  0  0  0  0
   38.6610   23.3280   38.6040 C   0  0  0  0  0  2  0  0  0  0  0  0
   39.4920   23.0970   37.3980 C   0  0  0  0  0  2  0  0  0  0  0  0
  1  6  1  0  0  0  0
  2  3  1  0  0  0  0
  2  1  2  0  0  0  0
  3  4  2  0  0  0  0
  4  9  1  0  0  0  0
  4  5  1  0  0  0  0
  5 10  1  0  0  0  0
  6  5  2  0  0  0  0
  6 22  1  0  0  0  0
  7  2  1  0  0  0  0
  8  3  1  0  0  0  0
 11 12  2  0  0  0  0
 11  1  1  0  0  0  0
 13 14  2  0  0  0  0
 13 18  1  0  0  0  0
 14 15  1  0  0  0  0
 15 21  1  0  0  0  0
 15 16  2  0  0  0  0
 17 16  1  0  0  0  0
 17 11  1  0  0  0  0
 18 17  2  0  0  0  0
 19 13  1  0  0  0  0
 20 14  1  0  0  0  0
 22 23  2  0  0  0  0
 23 24  1  0  0  0  0
 24 27  1  0  0  0  0
 24 25  1  0  0  0  0
 26 24  1  0  0  0  0
 27 29  1  0  0  0  0
 27 28  1  0  0  0  0
 29 28  1  0  0  0  0
M  END
>  <minimizedAffinity>
-5.3268137

$$$$

 OpenBabel03272509413D

 29 31  0  0  0  0  0  0  0  0999 V2000
   35.5980   29.9850   33.6730 C   0  0  0  0  0  0  0  0  0  0  0  0
   35.2820   30.7290   32.5230 C   0  0  0  0  0  0  0  0  0  0  0  0
   35.5800   30.2600   31.2470 C   0  0  0  0  0  0  0  0  0  0  0  0
   36.2060   29.0240   31.0800 C   0  0  0  0  0  0  0  0  0  0  0  0
   36.5030   28.3160   32.2190 C   0  0  0  0  0  0  0  0  0  0  0  0
   36.2010   28.7970   33.4810 C   0  0  0  0  0  0  0  0  0  0  0  0
   34.7970   31.6870   32.6600 H   0  0  0  0  0  0  0  0  0  0  0  0
   35.3200   30.8650   30.3830 H   0  0  0  0  0  0  0  0  0  0  0  0
   36.4170   28.6980   30.0690 H   0  0  0  0  0  0  0  0  0  0  0  0
   36.9880   27.3680   32.0150 H   0  0  0  0  0  0  0  0  0  0  0  0
   35.2530   30.5480   34.9630 C   0  0  0  0  0  0  0  0  0  0  0  0
   36.2240   31.1300   35.5680 O   0  0  0  0  0  0  0  0  0  0  0  0
   31.8900   29.3210   35.5730 C   0  0  0  0  0  0  0  0  0  0  0  0
   31.4070   30.1690   36.5700 C   0  0  0  0  0  0  0  0  0  0  0  0
   32.2350   31.1690   37.0370 C   0  0  0  0  0  0  0  0  0  0  0  0
   33.4850   31.3030   36.5240 N   0  0  0  0  0  0  0  0  0  0  0  0
   33.9290   30.4880   35.5770 C   0  0  0  0  0  0  0  0  0  0  0  0
   33.1170   29.5040   35.1150 N   0  0  0  0  0  0  0  0  0  0  0  0
   31.2940   28.5210   35.1640 H   0  0  0  0  0  0  0  0  0  0  0  0
   30.3990   29.9580   36.8920 H   0  0  0  0  0  0  0  0  0  0  0  0
   31.8390   31.8010   37.7990 H   0  0  0  0  0  0  0  0  0  0  0  0
   36.5920   27.9230   34.5530 C   0  0  0  0  0  3  0  0  0  0  0  0
   37.7840   27.7440   35.0750 C   0  0  0  0  0  3  0  0  0  0  0  0
   38.3130   26.9230   36.1540 C   0  0  0  0  0  0  0  0  0  0  0  0
   39.4290   26.9990   36.1950 H   0  0  0  0  0  0  0  0  0  0  0  0
   37.9280   27.2430   37.1430 H   0  0  0  0  0  0  0  0  0  0  0  0
   37.9160   25.4860   35.9470 C   0  0  0  0  0  3  0  0  0  0  0  0
   38.0180   24.5820   37.1790 C   0  0  0  0  0  2  0  0  0  0  0  0
   38.8950   24.3740   36.0020 C   0  0  0  0  0  2  0  0  0  0  0  0
  1 11  1  0  0  0  0
  2  7  1  0  0  0  0
  2  1  2  0  0  0  0
  3  2  1  0  0  0  0
  4  3  2  0  0  0  0
  4  5  1  0  0  0  0
  5  6  2  0  0  0  0
  6  1  1  0  0  0  0
  6 22  1  0  0  0  0
  8  3  1  0  0  0  0
  9  4  1  0  0  0  0
 10  5  1  0  0  0  0
 11 12  2  0  0  0  0
 11 17  1  0  0  0  0
 13 14  1  0  0  0  0
 14 20  1  0  0  0  0
 14 15  2  0  0  0  0
 15 21  1  0  0  0  0
 16 15  1  0  0  0  0
 17 16  2  0  0  0  0
 18 13  2  0  0  0  0
 18 17  1  0  0  0  0
 19 13  1  0  0  0  0
 22 23  2  0  0  0  0
 23 24  1  0  0  0  0
 24 25  1  0  0  0  0
 24 26  1  0  0  0  0
 27 29  1  0  0  0  0
 27 24  1  0  0  0  0
 27 28  1  0  0  0  0
 29 28  1  0  0  0  0
M  END
>  <minimizedAffinity>
-5.10590267

$$$$

 OpenBabel03272509413D

 29 31  0  0  0  0  0  0  0  0999 V2000
   38.2420   26.8640   33.4390 C   0  0  0  0  0  0  0  0  0  0  0  0
   38.9860   26.3250   32.3760 C   0  0  0  0  0  0  0  0  0  0  0  0
   38.6810   26.6180   31.0510 C   0  0  0  0  0  0  0  0  0  0  0  0
   37.6160   27.4660   30.7440 C   0  0  0  0  0  0  0  0  0  0  0  0
   36.9040   27.9800   31.8010 C   0  0  0  0  0  0  0  0  0  0  0  0
   37.2200   27.6790   33.1140 C   0  0  0  0  0  0  0  0  0  0  0  0
   39.8120   25.6690   32.6210 H   0  0  0  0  0  0  0  0  0  0  0  0
   39.2810   26.1810   30.2570 H   0  0  0  0  0  0  0  0  0  0  0  0
   37.4150   27.6670   29.7000 H   0  0  0  0  0  0  0  0  0  0  0  0
   36.0920   28.6280   31.4910 H   0  0  0  0  0  0  0  0  0  0  0  0
   38.6270   26.5060   34.7910 C   0  0  0  0  0  0  0  0  0  0  0  0
   39.3220   27.3950   35.4010 O   0  0  0  0  0  0  0  0  0  0  0  0
   38.0330   22.9390   35.1250 C   0  0  0  0  0  0  0  0  0  0  0  0
   37.6830   22.7890   36.4660 C   0  0  0  0  0  0  0  0  0  0  0  0
   37.6480   23.9140   37.2640 C   0  0  0  0  0  0  0  0  0  0  0  0
   37.9520   25.1260   36.7320 N   0  0  0  0  0  0  0  0  0  0  0  0
   38.2840   25.2520   35.4550 C   0  0  0  0  0  0  0  0  0  0  0  0
   38.3180   24.1460   34.6680 N   0  0  0  0  0  0  0  0  0  0  0  0
   38.0780   22.1000   34.4480 H   0  0  0  0  0  0  0  0  0  0  0  0
   37.4650   21.7750   36.7650 H   0  0  0  0  0  0  0  0  0  0  0  0
   37.3780   23.7680   38.2850 H   0  0  0  0  0  0  0  0  0  0  0  0
   36.3630   28.3020   34.0840 C   0  0  0  0  0  3  0  0  0  0  0  0
   35.9330   29.5440   34.1250 C   0  0  0  0  0  3  0  0  0  0  0  0
   35.0630   30.2940   35.0180 C   0  0  0  0  0  0  0  0  0  0  0  0
   34.3300   30.9040   34.4320 H   0  0  0  0  0  0  0  0  0  0  0  0
   34.4760   29.6270   35.6800 H   0  0  0  0  0  0  0  0  0  0  0  0
   35.8860   31.2030   35.8910 C   0  0  0  0  0  3  0  0  0  0  0  0
   35.1050   32.2640   36.6720 C   0  0  0  0  0  2  0  0  0  0  0  0
   36.0560   32.6460   35.6000 C   0  0  0  0  0  2  0  0  0  0  0  0
  1 11  1  0  0  0  0
  2  7  1  0  0  0  0
  2  1  2  0  0  0  0
  3  2  1  0  0  0  0
  4  3  2  0  0  0  0
  4  5  1  0  0  0  0
  5  6  2  0  0  0  0
  6  1  1  0  0  0  0
  6 22  1  0  0  0  0
  8  3  1  0  0  0  0
  9  4  1  0  0  0  0
 10  5  1  0  0  0  0
 11 12  2  0  0  0  0
 11 17  1  0  0  0  0
 13 14  1  0  0  0  0
 14 20  1  0  0  0  0
 14 15  2  0  0  0  0
 15 21  1  0  0  0  0
 16 15  1  0  0  0  0
 17 16  2  0  0  0  0
 18 13  2  0  0  0  0
 18 17  1  0  0  0  0
 19 13  1  0  0  0  0
 22 23  2  0  0  0  0
 23 24  1  0  0  0  0
 24 26  1  0  0  0  0
 24 27  1  0  0  0  0
 25 24  1  0  0  0  0
 27 28  1  0  0  0  0
 29 27  1  0  0  0  0
 29 28  1  0  0  0  0
M  END
>  <minimizedAffinity>
-5.07851887

$$$$

 OpenBabel03272509413D

 29 31  0  0  0  0  0  0  0  0999 V2000
   33.7640   30.9430   34.9330 C   0  0  0  0  0  0  0  0  0  0  0  0
   33.4110   32.0830   35.6760 C   0  0  0  0  0  0  0  0  0  0  0  0
   34.3680   32.8490   36.3330 C   0  0  0  0  0  0  0  0  0  0  0  0
   35.7180   32.4990   36.2680 C   0  0  0  0  0  0  0  0  0  0  0  0
   36.0360   31.3810   35.5350 C   0  0  0  0  0  0  0  0  0  0  0  0
   35.0730   30.6290   34.8870 C   0  0  0  0  0  0  0  0  0  0  0  0
   32.3630   32.3490   35.7230 H   0  0  0  0  0  0  0  0  0  0  0  0
   34.0550   33.7240   36.8980 H   0  0  0  0  0  0  0  0  0  0  0  0
   36.4280   33.1240   36.7930 H   0  0  0  0  0  0  0  0  0  0  0  0
   37.1000   31.1680   35.5270 H   0  0  0  0  0  0  0  0  0  0  0  0
   32.7040   30.2010   34.2800 C   0  0  0  0  0  0  0  0  0  0  0  0
   32.4590   30.5680   33.0760 O   0  0  0  0  0  0  0  0  0  0  0  0
   31.5690   27.9610   36.9040 C   0  0  0  0  0  0  0  0  0  0  0  0
   30.6350   27.1490   36.2620 C   0  0  0  0  0  0  0  0  0  0  0  0
   30.3920   27.3650   34.9210 C   0  0  0  0  0  0  0  0  0  0  0  0
   31.0560   28.3520   34.2670 N   0  0  0  0  0  0  0  0  0  0  0  0
   31.9400   29.1170   34.8930 C   0  0  0  0  0  0  0  0  0  0  0  0
   32.1830   28.9050   36.2110 N   0  0  0  0  0  0  0  0  0  0  0  0
   31.8060   27.8440   37.9500 H   0  0  0  0  0  0  0  0  0  0  0  0
   30.1770   26.4020   36.8920 H   0  0  0  0  0  0  0  0  0  0  0  0
   29.6720   26.7290   34.4560 H   0  0  0  0  0  0  0  0  0  0  0  0
   35.5910   29.4940   34.1760 C   0  0  0  0  0  3  0  0  0  0  0  0
   36.3560   28.5220   34.6220 C   0  0  0  0  0  3  0  0  0  0  0  0
   36.9300   27.3230   34.0320 C   0  0  0  0  0  0  0  0  0  0  0  0
   36.3050   26.4260   34.2760 H   0  0  0  0  0  0  0  0  0  0  0  0
   36.9850   27.3900   32.9280 H   0  0  0  0  0  0  0  0  0  0  0  0
   38.3280   27.1140   34.5520 C   0  0  0  0  0  3  0  0  0  0  0  0
   38.5420   25.8570   35.4010 C   0  0  0  0  0  2  0  0  0  0  0  0
   38.6640   27.2110   35.9920 C   0  0  0  0  0  2  0  0  0  0  0  0
  1  2  1  0  0  0  0
  2  7  1  0  0  0  0
  2  3  2  0  0  0  0
  3  8  1  0  0  0  0
  4  3  1  0  0  0  0
  4  9  1  0  0  0  0
  5  4  2  0  0  0  0
  6  1  2  0  0  0  0
  6  5  1  0  0  0  0
 10  5  1  0  0  0  0
 11 17  1  0  0  0  0
 11  1  1  0  0  0  0
 12 11  2  0  0  0  0
 13 19  1  0  0  0  0
 14 20  1  0  0  0  0
 14 13  1  0  0  0  0
 15 14  2  0  0  0  0
 16 17  2  0  0  0  0
 16 15  1  0  0  0  0
 17 18  1  0  0  0  0
 18 13  2  0  0  0  0
 21 15  1  0  0  0  0
 22 23  2  0  0  0  0
 22  6  1  0  0  0  0
 24 25  1  0  0  0  0
 24 27  1  0  0  0  0
 24 23  1  0  0  0  0
 26 24  1  0  0  0  0
 27 28  1  0  0  0  0
 27 29  1  0  0  0  0
 28 29  1  0  0  0  0
M  END
>  <minimizedAffinity>
-5.06348801

$$$$

 OpenBabel03272509413D

 29 31  0  0  0  0  0  0  0  0999 V2000
   36.5030   27.6160   32.6150 C   0  0  0  0  0  0  0  0  0  0  0  0
   35.5060   28.2820   31.8820 C   0  0  0  0  0  0  0  0  0  0  0  0
   34.7450   29.3000   32.4460 C   0  0  0  0  0  0  0  0  0  0  0  0
   34.9570   29.6880   33.7700 C   0  0  0  0  0  0  0  0  0  0  0  0
   35.9370   29.0210   34.4650 C   0  0  0  0  0  0  0  0  0  0  0  0
   36.6860   28.0100   33.8890 C   0  0  0  0  0  0  0  0  0  0  0  0
   35.3460   27.9770   30.8560 H   0  0  0  0  0  0  0  0  0  0  0  0
   33.9830   29.7910   31.8460 H   0  0  0  0  0  0  0  0  0  0  0  0
   34.3420   30.4850   34.1670 H   0  0  0  0  0  0  0  0  0  0  0  0
   36.0480   29.3730   35.4850 H   0  0  0  0  0  0  0  0  0  0  0  0
   37.2490   26.5650   31.9510 C   0  0  0  0  0  0  0  0  0  0  0  0
   38.2900   26.9680   31.3180 O   0  0  0  0  0  0  0  0  0  0  0  0
   37.5460   23.0370   32.7590 C   0  0  0  0  0  0  0  0  0  0  0  0
   36.4400   22.4620   32.1330 C   0  0  0  0  0  0  0  0  0  0  0  0
   35.5860   23.2850   31.4270 C   0  0  0  0  0  0  0  0  0  0  0  0
   35.8380   24.6180   31.3600 N   0  0  0  0  0  0  0  0  0  0  0  0
   36.8930   25.1480   31.9630 C   0  0  0  0  0  0  0  0  0  0  0  0
   37.7350   24.3410   32.6560 N   0  0  0  0  0  0  0  0  0  0  0  0
   38.2520   22.4500   33.3250 H   0  0  0  0  0  0  0  0  0  0  0  0
   36.3530   21.3950   32.2610 H   0  0  0  0  0  0  0  0  0  0  0  0
   34.7490   22.8180   30.9600 H   0  0  0  0  0  0  0  0  0  0  0  0
   37.6590   27.4250   34.7690 C   0  0  0  0  0  3  0  0  0  0  0  0
   37.5310   26.3860   35.5640 C   0  0  0  0  0  3  0  0  0  0  0  0
   38.4200   25.6850   36.4780 C   0  0  0  0  0  0  0  0  0  0  0  0
   39.3870   25.4360   35.9730 H   0  0  0  0  0  0  0  0  0  0  0  0
   38.6650   26.2970   37.3680 H   0  0  0  0  0  0  0  0  0  0  0  0
   37.7650   24.4160   36.9560 C   0  0  0  0  0  3  0  0  0  0  0  0
   38.0580   24.0210   38.4070 C   0  0  0  0  0  2  0  0  0  0  0  0
   38.5380   23.1930   37.2750 C   0  0  0  0  0  2  0  0  0  0  0  0
  1  6  1  0  0  0  0
  2  3  1  0  0  0  0
  2  1  2  0  0  0  0
  3  4  2  0  0  0  0
  4  9  1  0  0  0  0
  4  5  1  0  0  0  0
  5 10  1  0  0  0  0
  6  5  2  0  0  0  0
  6 22  1  0  0  0  0
  7  2  1  0  0  0  0
  8  3  1  0  0  0  0
 11 17  1  0  0  0  0
 11  1  1  0  0  0  0
 12 11  2  0  0  0  0
 13 19  1  0  0  0  0
 14 20  1  0  0  0  0
 14 13  2  0  0  0  0
 15 14  1  0  0  0  0
 16 15  2  0  0  0  0
 16 17  1  0  0  0  0
 17 18  2  0  0  0  0
 18 13  1  0  0  0  0
 21 15  1  0  0  0  0
 22 23  2  0  0  0  0
 23 24  1  0  0  0  0
 24 27  1  0  0  0  0
 24 26  1  0  0  0  0
 25 24  1  0  0  0  0
 27 29  1  0  0  0  0
 27 28  1  0  0  0  0
 29 28  1  0  0  0  0
M  END
>  <minimizedAffinity>
-5.05558252

$$$$

 OpenBabel03272509413D

 29 31  0  0  0  0  0  0  0  0999 V2000
   37.5850   25.7310   32.7750 C   0  0  0  0  0  0  0  0  0  0  0  0
   37.5230   27.1250   32.9460 C   0  0  0  0  0  0  0  0  0  0  0  0
   36.6340   27.9100   32.2200 C   0  0  0  0  0  0  0  0  0  0  0  0
   35.7710   27.3230   31.2930 C   0  0  0  0  0  0  0  0  0  0  0  0
   35.8510   25.9590   31.1450 C   0  0  0  0  0  0  0  0  0  0  0  0
   36.7410   25.1920   31.8750 C   0  0  0  0  0  0  0  0  0  0  0  0
   38.1950   27.5740   33.6670 H   0  0  0  0  0  0  0  0  0  0  0  0
   36.6170   28.9850   32.3810 H   0  0  0  0  0  0  0  0  0  0  0  0
   35.0950   27.9720   30.7510 H   0  0  0  0  0  0  0  0  0  0  0  0
   35.1530   25.5710   30.4100 H   0  0  0  0  0  0  0  0  0  0  0  0
   38.5420   24.9890   33.5720 C   0  0  0  0  0  0  0  0  0  0  0  0
   39.6900   24.8360   33.0220 O   0  0  0  0  0  0  0  0  0  0  0  0
   37.8000   22.4490   36.0600 C   0  0  0  0  0  0  0  0  0  0  0  0
   37.7600   23.1640   37.2570 C   0  0  0  0  0  0  0  0  0  0  0  0
   37.9860   24.5250   37.2150 C   0  0  0  0  0  0  0  0  0  0  0  0
   38.2400   25.1290   36.0260 N   0  0  0  0  0  0  0  0  0  0  0  0
   38.2760   24.4340   34.8970 C   0  0  0  0  0  0  0  0  0  0  0  0
   38.0530   23.0960   34.9350 N   0  0  0  0  0  0  0  0  0  0  0  0
   37.6320   21.3840   36.0240 H   0  0  0  0  0  0  0  0  0  0  0  0
   37.5480   22.5690   38.1310 H   0  0  0  0  0  0  0  0  0  0  0  0
   37.9490   25.0450   38.1460 H   0  0  0  0  0  0  0  0  0  0  0  0
   36.6860   23.7870   31.5810 C   0  0  0  0  0  3  0  0  0  0  0  0
   35.6840   22.9520   31.7390 C   0  0  0  0  0  3  0  0  0  0  0  0
   35.4830   21.5360   31.4730 C   0  0  0  0  0  0  0  0  0  0  0  0
   34.3910   21.2900   31.4510 H   0  0  0  0  0  0  0  0  0  0  0  0
   35.9040   21.2350   30.4930 H   0  0  0  0  0  0  0  0  0  0  0  0
   36.1590   20.7130   32.5380 C   0  0  0  0  0  3  0  0  0  0  0  0
   35.4770   19.3870   32.8880 C   0  0  0  0  0  2  0  0  0  0  0  0
   35.5580   20.4920   33.8740 C   0  0  0  0  0  2  0  0  0  0  0  0
  1  2  1  0  0  0  0
  1 11  1  0  0  0  0
  2  7  1  0  0  0  0
  3  8  1  0  0  0  0
  3  2  2  0  0  0  0
  4  3  1  0  0  0  0
  5  4  2  0  0  0  0
  5  6  1  0  0  0  0
  6  1  2  0  0  0  0
  9  4  1  0  0  0  0
 10  5  1  0  0  0  0
 11 17  1  0  0  0  0
 12 11  2  0  0  0  0
 13 14  1  0  0  0  0
 14 20  1  0  0  0  0
 15 14  2  0  0  0  0
 15 21  1  0  0  0  0
 16 15  1  0  0  0  0
 17 18  1  0  0  0  0
 17 16  2  0  0  0  0
 18 13  2  0  0  0  0
 19 13  1  0  0  0  0
 22 23  2  0  0  0  0
 22  6  1  0  0  0  0
 24 23  1  0  0  0  0
 24 27  1  0  0  0  0
 25 24  1  0  0  0  0
 26 24  1  0  0  0  0
 27 28  1  0  0  0  0
 27 29  1  0  0  0  0
 28 29  1  0  0  0  0
M  END
>  <minimizedAffinity>
-5.04025221

$$$$

 OpenBabel03272509413D

 29 31  0  0  0  0  0  0  0  0999 V2000
   36.6330   22.4240   32.1630 C   0  0  0  0  0  0  0  0  0  0  0  0
   35.5090   21.9470   31.4680 C   0  0  0  0  0  0  0  0  0  0  0  0
   34.8090   20.8240   31.8980 C   0  0  0  0  0  0  0  0  0  0  0  0
   35.2140   20.1390   33.0450 C   0  0  0  0  0  0  0  0  0  0  0  0
   36.3150   20.6260   33.7060 C   0  0  0  0  0  0  0  0  0  0  0  0
   37.0010   21.7440   33.2650 C   0  0  0  0  0  0  0  0  0  0  0  0
   35.2000   22.4840   30.5800 H   0  0  0  0  0  0  0  0  0  0  0  0
   33.9440   20.4860   31.3330 H   0  0  0  0  0  0  0  0  0  0  0  0
   34.6390   19.2710   33.3430 H   0  0  0  0  0  0  0  0  0  0  0  0
   36.5720   20.0450   34.5860 H   0  0  0  0  0  0  0  0  0  0  0  0
   37.3050   23.6010   31.6460 C   0  0  0  0  0  0  0  0  0  0  0  0
   38.2340   23.3550   30.7960 O   0  0  0  0  0  0  0  0  0  0  0  0
   35.9780   26.9620   31.2880 C   0  0  0  0  0  0  0  0  0  0  0  0
   36.3010   27.5740   32.4990 C   0  0  0  0  0  0  0  0  0  0  0  0
   36.9780   26.8330   33.4460 C   0  0  0  0  0  0  0  0  0  0  0  0
   37.3100   25.5430   33.1820 N   0  0  0  0  0  0  0  0  0  0  0  0
   36.9940   24.9770   32.0250 C   0  0  0  0  0  0  0  0  0  0  0  0
   36.3290   25.7030   31.0910 N   0  0  0  0  0  0  0  0  0  0  0  0
   35.4500   27.4860   30.5060 H   0  0  0  0  0  0  0  0  0  0  0  0
   35.9820   28.6000   32.5860 H   0  0  0  0  0  0  0  0  0  0  0  0
   37.2100   27.3260   34.3630 H   0  0  0  0  0  0  0  0  0  0  0  0
   38.1290   22.1010   34.0800 C   0  0  0  0  0  3  0  0  0  0  0  0
   38.2040   22.1910   35.3890 C   0  0  0  0  0  3  0  0  0  0  0  0
   39.2640   22.5160   36.3300 C   0  0  0  0  0  0  0  0  0  0  0  0
   39.5190   21.6260   36.9590 H   0  0  0  0  0  0  0  0  0  0  0  0
   40.1940   22.8270   35.8150 H   0  0  0  0  0  0  0  0  0  0  0  0
   38.8290   23.6490   37.2210 C   0  0  0  0  0  3  0  0  0  0  0  0
   39.0280   23.4300   38.7240 C   0  0  0  0  0  2  0  0  0  0  0  0
   37.6700   23.5410   38.1380 C   0  0  0  0  0  2  0  0  0  0  0  0
  1  6  1  0  0  0  0
  2  3  1  0  0  0  0
  2  1  2  0  0  0  0
  3  4  2  0  0  0  0
  4  9  1  0  0  0  0
  4  5  1  0  0  0  0
  5 10  1  0  0  0  0
  6  5  2  0  0  0  0
  6 22  1  0  0  0  0
  7  2  1  0  0  0  0
  8  3  1  0  0  0  0
 11 17  1  0  0  0  0
 11  1  1  0  0  0  0
 12 11  2  0  0  0  0
 13 14  1  0  0  0  0
 14 20  1  0  0  0  0
 14 15  2  0  0  0  0
 15 21  1  0  0  0  0
 16 15  1  0  0  0  0
 17 16  2  0  0  0  0
 18 13  2  0  0  0  0
 18 17  1  0  0  0  0
 19 13  1  0  0  0  0
 22 23  2  0  0  0  0
 23 24  1  0  0  0  0
 24 25  1  0  0  0  0
 24 27  1  0  0  0  0
 26 24  1  0  0  0  0
 27 29  1  0  0  0  0
 27 28  1  0  0  0  0
 29 28  1  0  0  0  0
M  END
>  <minimizedAffinity>
-4.98049927

$$$$

 OpenBabel03272509413D

 29 31  0  0  0  0  0  0  0  0999 V2000
   38.2090   25.0550   35.5450 C   0  0  0  0  0  0  0  0  0  0  0  0
   38.3080   26.2830   36.2190 C   0  0  0  0  0  0  0  0  0  0  0  0
   38.0540   27.4900   35.5760 C   0  0  0  0  0  0  0  0  0  0  0  0
   37.6910   27.5070   34.2280 C   0  0  0  0  0  0  0  0  0  0  0  0
   37.6010   26.2930   33.5920 C   0  0  0  0  0  0  0  0  0  0  0  0
   37.8560   25.1010   34.2460 C   0  0  0  0  0  0  0  0  0  0  0  0
   38.5900   26.2630   37.2640 H   0  0  0  0  0  0  0  0  0  0  0  0
   38.1420   28.4200   36.1320 H   0  0  0  0  0  0  0  0  0  0  0  0
   37.5020   28.4690   33.7680 H   0  0  0  0  0  0  0  0  0  0  0  0
   37.3140   26.3800   32.5500 H   0  0  0  0  0  0  0  0  0  0  0  0
   38.4910   23.8440   36.2910 C   0  0  0  0  0  0  0  0  0  0  0  0
   37.4650   23.3040   36.8400 O   0  0  0  0  0  0  0  0  0  0  0  0
   42.0410   23.3500   35.7030 C   0  0  0  0  0  0  0  0  0  0  0  0
   42.3700   22.2920   36.5500 C   0  0  0  0  0  0  0  0  0  0  0  0
   41.3720   21.7410   37.3270 C   0  0  0  0  0  0  0  0  0  0  0  0
   40.1100   22.2350   37.2520 N   0  0  0  0  0  0  0  0  0  0  0  0
   39.8140   23.2420   36.4430 C   0  0  0  0  0  0  0  0  0  0  0  0
   40.7930   23.7850   35.6760 N   0  0  0  0  0  0  0  0  0  0  0  0
   42.7730   23.8240   35.0680 H   0  0  0  0  0  0  0  0  0  0  0  0
   43.4060   21.9920   36.5160 H   0  0  0  0  0  0  0  0  0  0  0  0
   41.6530   20.9340   37.9650 H   0  0  0  0  0  0  0  0  0  0  0  0
   37.7180   23.9340   33.4190 C   0  0  0  0  0  3  0  0  0  0  0  0
   37.2250   23.8390   32.2050 C   0  0  0  0  0  3  0  0  0  0  0  0
   37.0430   22.7490   31.2590 C   0  0  0  0  0  0  0  0  0  0  0  0
   36.3020   23.0330   30.4690 H   0  0  0  0  0  0  0  0  0  0  0  0
   37.9870   22.4900   30.7410 H   0  0  0  0  0  0  0  0  0  0  0  0
   36.5580   21.5200   31.9800 C   0  0  0  0  0  3  0  0  0  0  0  0
   35.7440   20.5310   31.1400 C   0  0  0  0  0  2  0  0  0  0  0  0
   35.1240   21.2760   32.2620 C   0  0  0  0  0  2  0  0  0  0  0  0
  1  2  1  0  0  0  0
  1 11  1  0  0  0  0
  2  7  1  0  0  0  0
  3  8  1  0  0  0  0
  3  2  2  0  0  0  0
  4  3  1  0  0  0  0
  5  4  2  0  0  0  0
  5  6  1  0  0  0  0
  6  1  2  0  0  0  0
  9  4  1  0  0  0  0
 10  5  1  0  0  0  0
 11 17  1  0  0  0  0
 11 12  2  0  0  0  0
 13 14  1  0  0  0  0
 14 15  2  0  0  0  0
 15 21  1  0  0  0  0
 16 15  1  0  0  0  0
 17 16  2  0  0  0  0
 18 13  2  0  0  0  0
 18 17  1  0  0  0  0
 19 13  1  0  0  0  0
 20 14  1  0  0  0  0
 22  6  1  0  0  0  0
 23 22  2  0  0  0  0
 24 27  1  0  0  0  0
 24 23  1  0  0  0  0
 25 24  1  0  0  0  0
 26 24  1  0  0  0  0
 27 29  1  0  0  0  0
 28 27  1  0  0  0  0
 28 29  1  0  0  0  0
M  END
>  <minimizedAffinity>
-4.9592762

$$$$
