
 OpenBabel03272509433D

 32 34  0  0  1  0  0  0  0  0999 V2000
   37.0270   30.9200   49.0350 C   0  0  0  0  0  0  0  0  0  0  0  0
   36.7450   31.8030   50.0800 C   0  0  0  0  0  0  0  0  0  0  0  0
   37.3340   33.0560   50.1590 C   0  0  0  0  0  0  0  0  0  0  0  0
   38.2360   33.4530   49.1670 C   0  0  0  0  0  0  0  0  0  0  0  0
   38.5020   32.5800   48.1520 C   0  0  0  0  0  0  0  0  0  0  0  0
   37.8940   31.3330   48.1060 C   0  0  0  0  0  0  0  0  0  0  0  0
   36.0370   31.4630   50.8400 H   0  0  0  0  0  0  0  0  0  0  0  0
   37.0330   33.6390   51.0140 H   0  0  0  0  0  0  0  0  0  0  0  0
   38.6410   34.4350   49.3090 H   0  0  0  0  0  0  0  0  0  0  0  0
   39.2190   33.0280   47.4640 H   0  0  0  0  0  0  0  0  0  0  0  0
   36.4360   29.6010   48.9760 C   0  0  2  0  0  0  0  0  0  0  0  0
   36.9560   29.0790   48.0830 H   0  0  0  0  0  0  0  0  0  0  0  0
   33.5720   30.0830   46.7920 C   0  0  0  0  0  0  0  0  0  0  0  0
   32.8740   28.8930   46.8880 C   0  0  0  0  0  0  0  0  0  0  0  0
   33.3480   27.9280   47.7560 C   0  0  0  0  0  0  0  0  0  0  0  0
   34.4880   28.1810   48.4900 N   0  0  0  0  0  0  0  0  0  0  0  0
   35.1090   29.3340   48.3510 C   0  0  0  0  0  0  0  0  0  0  0  0
   34.6590   30.2910   47.5080 N   0  0  0  0  0  0  0  0  0  0  0  0
   33.2260   30.8670   46.1160 H   0  0  0  0  0  0  0  0  0  0  0  0
   31.9960   28.7890   46.2730 H   0  0  0  0  0  0  0  0  0  0  0  0
   32.8060   26.9960   47.8370 H   0  0  0  0  0  0  0  0  0  0  0  0
   36.8870   28.8160   49.8890 O   0  0  0  0  0  0  0  0  0  0  0  0
   36.5610   28.7740   50.8040 H   0  0  0  0  0  0  0  0  0  0  0  0
   38.2900   30.4990   46.9950 C   0  0  0  0  0  3  0  0  0  0  0  0
   39.0120   30.9350   45.9580 C   0  0  0  0  0  3  0  0  0  0  0  0
   39.5060   30.1640   44.7930 C   0  0  0  0  0  0  0  0  0  0  0  0
   38.9650   29.1930   44.6680 H   0  0  0  0  0  0  0  0  0  0  0  0
   40.5850   29.9280   44.8710 H   0  0  0  0  0  0  0  0  0  0  0  0
   39.2630   31.1160   43.2900 S   0  0  0  0  0  0  0  0  0  0  0  0
   38.0060   32.4140   43.5800 C   0  0  0  0  0  3  0  0  0  0  0  0
   36.5970   31.9810   43.4410 C   0  0  0  0  0  2  0  0  0  0  0  0
   37.1970   32.8890   42.4300 C   0  0  0  0  0  2  0  0  0  0  0  0
  1  2  1  0  0  0  0
  2  3  2  0  0  0  0
  2  7  1  0  0  0  0
  3  8  1  0  0  0  0
  4  9  1  0  0  0  0
  4  3  1  0  0  0  0
  5  4  2  0  0  0  0
  6  5  1  0  0  0  0
  6  1  2  0  0  0  0
 10  5  1  0  0  0  0
 11 12  1  6  0  0  0
 11  1  1  0  0  0  0
 11 22  1  0  0  0  0
 13 14  2  0  0  0  0
 13 18  1  0  0  0  0
 14 15  1  0  0  0  0
 15 21  1  0  0  0  0
 15 16  2  0  0  0  0
 17 16  1  0  0  0  0
 17 11  1  0  0  0  0
 18 17  2  0  0  0  0
 19 13  1  0  0  0  0
 20 14  1  0  0  0  0
 22 23  1  0  0  0  0
 24  6  1  0  0  0  0
 25 24  2  0  0  0  0
 26 28  1  0  0  0  0
 26 25  1  0  0  0  0
 27 26  1  0  0  0  0
 29 30  1  0  0  0  0
 29 26  1  0  0  0  0
 31 30  1  0  0  0  0
 32 31  1  0  0  0  0
 32 30  1  0  0  0  0
M  END
>  <minimizedAffinity>
-5.34001303

>  <minimizedRMSD>
0.637138009

$$$$
