
 OpenBabel03272510103D

 22 24  0  0  0  0  0  0  0  0999 V2000
   37.9570   31.2690   47.6980 C   0  0  0  0  0  0  0  0  0  0  0  0
   39.0340   32.0930   47.5920 C   0  0  0  0  0  0  0  0  0  0  0  0
   39.4390   32.6840   46.4110 C   0  0  0  0  0  0  0  0  0  0  0  0
   38.7350   32.4470   45.2440 C   0  0  0  0  0  0  0  0  0  0  0  0
   37.6530   31.6100   45.3860 C   0  0  0  0  0  0  0  0  0  0  0  0
   37.2740   31.0450   46.5440 N   0  0  0  0  0  0  0  0  0  0  0  0
   39.6000   32.2910   48.5000 H   0  0  0  0  0  0  0  0  0  0  0  0
   40.3010   33.3370   46.3500 H   0  0  0  0  0  0  0  0  0  0  0  0
   36.9830   31.3060   44.5930 H   0  0  0  0  0  0  0  0  0  0  0  0
   38.0370   30.9760   50.1970 C   0  0  0  0  0  0  0  0  0  0  0  0
   37.5300   30.6440   48.9430 C   0  0  0  0  0  0  0  0  0  0  0  0
   36.5660   29.6620   48.8890 C   0  0  0  0  0  0  0  0  0  0  0  0
   36.1550   29.0630   50.0440 N   0  0  0  0  0  0  0  0  0  0  0  0
   36.6830   29.4260   51.2390 C   0  0  0  0  0  0  0  0  0  0  0  0
   37.6340   30.3910   51.3300 N   0  0  0  0  0  0  0  0  0  0  0  0
   38.7930   31.7590   50.1560 H   0  0  0  0  0  0  0  0  0  0  0  0
   36.1600   29.3890   47.9260 H   0  0  0  0  0  0  0  0  0  0  0  0
   36.3910   28.9830   52.1820 H   0  0  0  0  0  0  0  0  0  0  0  0
   39.0340   32.9720   44.0070 O   0  0  0  0  0  0  0  0  0  0  0  0
   38.4890   32.6370   42.7760 C   0  0  0  0  0  3  0  0  0  0  0  0
   38.8450   33.5940   41.5900 C   0  0  0  0  0  2  0  0  0  0  0  0
   39.3250   32.1490   41.6510 C   0  0  0  0  0  2  0  0  0  0  0  0
  1 11  1  0  0  0  0
  2  1  1  0  0  0  0
  2  7  1  0  0  0  0
  3  2  2  0  0  0  0
  4  5  2  0  0  0  0
  4  3  1  0  0  0  0
  5  6  1  0  0  0  0
  6  1  2  0  0  0  0
  8  3  1  0  0  0  0
  9  5  1  0  0  0  0
 10 15  1  0  0  0  0
 11 10  2  0  0  0  0
 12 11  1  0  0  0  0
 12 13  2  0  0  0  0
 13 14  1  0  0  0  0
 14 15  2  0  0  0  0
 14 18  1  0  0  0  0
 16 10  1  0  0  0  0
 17 12  1  0  0  0  0
 19  4  1  0  0  0  0
 20 19  1  0  0  0  0
 21 22  1  0  0  0  0
 21 20  1  0  0  0  0
 22 20  1  0  0  0  0
M  END
>  <minimizedAffinity>
-4.87994766

>  <minimizedRMSD>
2.51488996

$$$$
