
 OpenBabel03272510103D

 22 24  0  0  0  0  0  0  0  0999 V2000
   37.7990   31.1120   48.4710 C   0  0  0  0  0  0  0  0  0  0  0  0
   38.3120   32.3660   48.5800 C   0  0  0  0  0  0  0  0  0  0  0  0
   39.1310   32.9490   47.6320 C   0  0  0  0  0  0  0  0  0  0  0  0
   39.4750   32.2470   46.4920 C   0  0  0  0  0  0  0  0  0  0  0  0
   38.9410   30.9820   46.4140 C   0  0  0  0  0  0  0  0  0  0  0  0
   38.1440   30.4320   47.3460 N   0  0  0  0  0  0  0  0  0  0  0  0
   38.0520   32.9350   49.4710 H   0  0  0  0  0  0  0  0  0  0  0  0
   39.5280   33.9520   47.7400 H   0  0  0  0  0  0  0  0  0  0  0  0
   39.0940   30.2820   45.6030 H   0  0  0  0  0  0  0  0  0  0  0  0
   37.3720   30.0750   50.7250 C   0  0  0  0  0  0  0  0  0  0  0  0
   36.9360   30.4960   49.4710 C   0  0  0  0  0  0  0  0  0  0  0  0
   35.6050   30.3110   49.1670 C   0  0  0  0  0  0  0  0  0  0  0  0
   34.7830   29.7340   50.0900 N   0  0  0  0  0  0  0  0  0  0  0  0
   35.2600   29.3440   51.2970 C   0  0  0  0  0  0  0  0  0  0  0  0
   36.5660   29.5100   51.6300 N   0  0  0  0  0  0  0  0  0  0  0  0
   38.4330   30.2550   50.8880 H   0  0  0  0  0  0  0  0  0  0  0  0
   35.2470   30.6310   48.2000 H   0  0  0  0  0  0  0  0  0  0  0  0
   34.6490   28.8820   52.0630 H   0  0  0  0  0  0  0  0  0  0  0  0
   40.2800   32.7110   45.4770 O   0  0  0  0  0  0  0  0  0  0  0  0
   39.9010   33.2220   44.2430 C   0  0  0  0  0  3  0  0  0  0  0  0
   39.9380   32.2140   43.0470 C   0  0  0  0  0  2  0  0  0  0  0  0
   38.6410   32.8140   43.5740 C   0  0  0  0  0  2  0  0  0  0  0  0
  1  2  1  0  0  0  0
  1 11  1  0  0  0  0
  2  7  1  0  0  0  0
  3  8  1  0  0  0  0
  3  2  2  0  0  0  0
  4  3  1  0  0  0  0
  5  4  2  0  0  0  0
  5  6  1  0  0  0  0
  6  1  2  0  0  0  0
  9  5  1  0  0  0  0
 10 16  1  0  0  0  0
 10 15  1  0  0  0  0
 11 10  2  0  0  0  0
 12 11  1  0  0  0  0
 12 13  2  0  0  0  0
 13 14  1  0  0  0  0
 14 15  2  0  0  0  0
 14 18  1  0  0  0  0
 17 12  1  0  0  0  0
 19  4  1  0  0  0  0
 20 19  1  0  0  0  0
 21 22  1  0  0  0  0
 21 20  1  0  0  0  0
 22 20  1  0  0  0  0
M  END
>  <minimizedAffinity>
-4.86578512

>  <minimizedRMSD>
1.19372499

$$$$
