
 OpenBabel03262522283D

 40 43  0  0  0  0  0  0  0  0999 V2000
   38.7570   32.8930   48.3510 C   0  0  0  0  0  0  0  0  0  0  0  0
   39.0520   32.2220   47.1560 C   0  0  0  0  0  0  0  0  0  0  0  0
   38.5370   30.9590   47.0110 C   0  0  0  0  0  0  0  0  0  0  0  0
   37.7830   30.4420   48.0210 N   0  0  0  0  0  0  0  0  0  0  0  0
   37.5300   31.0940   49.1190 C   0  0  0  0  0  0  0  0  0  0  0  0
   38.0100   32.3670   49.3400 N   0  0  0  0  0  0  0  0  0  0  0  0
   39.1060   33.8970   48.5830 H   0  0  0  0  0  0  0  0  0  0  0  0
   38.7560   30.4370   46.1020 H   0  0  0  0  0  0  0  0  0  0  0  0
   39.8150   32.8600   46.2380 O   0  0  0  0  0  0  0  0  0  0  0  0
   39.9640   32.3060   44.9770 C   0  0  0  0  0  0  0  0  0  0  0  0
   40.6610   31.1780   44.6240 C   0  0  0  0  0  0  0  0  0  0  0  0
   40.6910   30.7920   43.3300 C   0  0  0  0  0  0  0  0  0  0  0  0
   40.0280   31.5330   42.4090 C   0  0  0  0  0  0  0  0  0  0  0  0
   39.3180   32.6810   42.7660 C   0  0  0  0  0  0  0  0  0  0  0  0
   39.3060   33.0430   44.0730 N   0  0  0  0  0  0  0  0  0  0  0  0
   41.1540   30.6670   45.4510 H   0  0  0  0  0  0  0  0  0  0  0  0
   41.2510   29.8900   43.0570 H   0  0  0  0  0  0  0  0  0  0  0  0
   40.0190   31.2670   41.3530 H   0  0  0  0  0  0  0  0  0  0  0  0
   38.5870   33.4870   41.7160 C   0  0  0  0  0  0  0  0  0  0  0  0
   38.4610   34.5210   42.0710 H   0  0  0  0  0  0  0  0  0  0  0  0
   37.6300   32.9950   41.4700 H   0  0  0  0  0  0  0  0  0  0  0  0
   39.2390   33.4870   40.8280 H   0  0  0  0  0  0  0  0  0  0  0  0
   36.5070   30.1490   50.2720 S   0  0  0  0  0  0  0  0  0  0  0  0
   34.8060   30.5840   49.8260 C   0  0  0  0  0  0  0  0  0  0  0  0
   34.7680   31.6640   49.6740 H   0  0  0  0  0  0  0  0  0  0  0  0
   34.1400   30.2480   50.6560 H   0  0  0  0  0  0  0  0  0  0  0  0
   34.5570   27.8520   49.9750 F   0  0  0  0  0  0  0  0  0  0  0  0
   34.3770   28.4560   48.7660 C   0  0  0  0  0  0  0  0  0  0  0  0
   34.4800   29.8360   48.5620 C   0  0  0  0  0  0  0  0  0  0  0  0
   34.2950   30.3990   47.3420 C   0  0  0  0  0  0  0  0  0  0  0  0
   33.9900   29.5870   46.2360 C   0  0  0  0  0  0  0  0  0  0  0  0
   33.8860   28.2270   46.4180 C   0  0  0  0  0  0  0  0  0  0  0  0
   34.0760   27.6710   47.6620 C   0  0  0  0  0  0  0  0  0  0  0  0
   34.3950   31.4680   47.2870 H   0  0  0  0  0  0  0  0  0  0  0  0
   33.8570   30.1070   45.2990 H   0  0  0  0  0  0  0  0  0  0  0  0
   33.6520   27.7310   45.5040 H   0  0  0  0  0  0  0  0  0  0  0  0
   33.9570   26.3080   47.7820 O   0  0  0  0  0  0  0  0  0  0  0  0
   33.4530   25.3950   46.8800 C   0  0  0  0  0  0  0  0  0  0  0  0
   34.5560   24.4880   46.2700 C   0  0  0  0  0  0  0  0  0  0  0  0
   33.4940   23.9300   47.1130 C   0  0  0  0  0  0  0  0  0  0  0  0
  1  7  1  0  0  0  0
  1  6  1  0  0  0  0
  2  1  2  0  0  0  0
  3  2  1  0  0  0  0
  3  4  2  0  0  0  0
  4  5  1  0  0  0  0
  5  6  2  0  0  0  0
  5 23  1  0  0  0  0
  8  3  1  0  0  0  0
  9  2  1  0  0  0  0
 10  9  1  0  0  0  0
 11 10  1  0  0  0  0
 11 16  1  0  0  0  0
 12 11  2  0  0  0  0
 13 14  2  0  0  0  0
 13 12  1  0  0  0  0
 14 15  1  0  0  0  0
 15 10  2  0  0  0  0
 17 12  1  0  0  0  0
 18 13  1  0  0  0  0
 19 20  1  0  0  0  0
 19 14  1  0  0  0  0
 21 19  1  0  0  0  0
 22 19  1  0  0  0  0
 24 23  1  0  0  0  0
 24 26  1  0  0  0  0
 25 24  1  0  0  0  0
 28 27  1  0  0  0  0
 29 28  1  0  0  0  0
 29 24  1  0  0  0  0
 30 29  2  0  0  0  0
 31 32  2  0  0  0  0
 31 30  1  0  0  0  0
 32 33  1  0  0  0  0
 33 37  1  0  0  0  0
 33 28  2  0  0  0  0
 34 30  1  0  0  0  0
 35 31  1  0  0  0  0
 36 32  1  0  0  0  0
 38 40  1  0  0  0  0
 38 37  1  0  0  0  0
 39 38  1  0  0  0  0
 39 40  1  0  0  0  0
M  END
>  <minimizedAffinity>
-5.93771887

>  <minimizedRMSD>
0.297503144

$$$$
