
 OpenBabel03272509313D

 32 34  0  0  1  0  0  0  0  0999 V2000
   36.2830   30.7230   48.9600 C   0  0  2  0  0  0  0  0  0  0  0  0
   37.2160   31.5470   49.7930 C   0  0  0  0  0  0  0  0  0  0  0  0
   38.0460   30.7190   50.7480 C   0  0  0  0  0  0  0  0  0  0  0  0
   37.1490   29.8790   51.6520 C   0  0  0  0  0  0  0  0  0  0  0  0
   35.9230   29.3420   50.9670 C   0  0  0  0  0  0  0  0  0  0  0  0
   36.1840   29.3130   49.4520 C   0  0  1  0  0  0  0  0  0  0  0  0
   35.2290   31.1120   48.9270 H   0  0  0  0  0  0  0  0  0  0  0  0
   36.5210   32.1250   50.4940 H   0  0  0  0  0  0  0  0  0  0  0  0
   37.7940   32.3060   49.3000 H   0  0  0  0  0  0  0  0  0  0  0  0
   38.8330   30.1280   50.2810 H   0  0  0  0  0  0  0  0  0  0  0  0
   38.5570   31.4380   51.4260 H   0  0  0  0  0  0  0  0  0  0  0  0
   36.8880   30.3860   52.5930 H   0  0  0  0  0  0  0  0  0  0  0  0
   37.7670   28.9730   51.9190 H   0  0  0  0  0  0  0  0  0  0  0  0
   35.6670   28.3210   51.2600 H   0  0  0  0  0  0  0  0  0  0  0  0
   35.0700   30.0530   51.1290 H   0  0  0  0  0  0  0  0  0  0  0  0
   37.1470   28.8590   49.4280 H   0  0  0  0  0  0  0  0  0  0  0  0
   36.7220   30.6940   47.5410 C   0  0  0  0  0  0  0  0  0  0  0  0
   38.0620   31.0100   47.3080 C   0  0  0  0  0  0  0  0  0  0  0  0
   38.4950   30.9830   45.9750 C   0  0  0  0  0  0  0  0  0  0  0  0
   37.5990   30.6560   44.9920 N   0  0  0  0  0  0  0  0  0  0  0  0
   36.2860   30.3510   45.2760 C   0  0  0  0  0  0  0  0  0  0  0  0
   35.8790   30.3780   46.5450 N   0  0  0  0  0  0  0  0  0  0  0  0
   38.8630   31.2710   47.9690 H   0  0  0  0  0  0  0  0  0  0  0  0
   39.4970   31.2050   45.6520 H   0  0  0  0  0  0  0  0  0  0  0  0
   35.6110   30.0970   44.4740 H   0  0  0  0  0  0  0  0  0  0  0  0
   33.9060   28.3060   48.9120 C   0  0  0  0  0  0  0  0  0  0  0  0
   33.1400   28.7810   49.7990 O   0  0  0  0  0  0  0  0  0  0  0  0
   35.3140   28.4660   48.7230 N   0  0  0  0  0  0  0  0  0  0  0  0
   35.6900   27.8520   47.9300 H   0  0  0  0  0  0  0  0  0  0  0  0
   33.1080   27.4470   47.9500 C   0  0  0  0  0  3  0  0  0  0  0  0
   33.6830   27.1500   46.5930 C   0  0  0  0  0  2  0  0  0  0  0  0
   33.7030   26.0680   47.6050 C   0  0  0  0  0  2  0  0  0  0  0  0
  1  7  1  1  0  0  0
  1  6  1  0  0  0  0
  1  2  1  0  0  0  0
  2  8  1  0  0  0  0
  2  3  1  0  0  0  0
  3 11  1  0  0  0  0
  3  4  1  0  0  0  0
  4 13  1  0  0  0  0
  4 12  1  0  0  0  0
  5 15  1  0  0  0  0
  5 14  1  0  0  0  0
  5  4  1  0  0  0  0
  6 16  1  6  0  0  0
  6  5  1  0  0  0  0
  9  2  1  0  0  0  0
 10  3  1  0  0  0  0
 17  1  1  0  0  0  0
 18 17  1  0  0  0  0
 18 23  1  0  0  0  0
 19 18  2  0  0  0  0
 20 21  2  0  0  0  0
 20 19  1  0  0  0  0
 21 22  1  0  0  0  0
 22 17  2  0  0  0  0
 24 19  1  0  0  0  0
 25 21  1  0  0  0  0
 26 27  2  0  0  0  0
 28 26  1  0  0  0  0
 28  6  1  0  0  0  0
 29 28  1  0  0  0  0
 30 26  1  0  0  0  0
 31 32  1  0  0  0  0
 31 30  1  0  0  0  0
 32 30  1  0  0  0  0
M  END
>  <minimizedAffinity>
-5.67576551

>  <minimizedRMSD>
0.582185805

$$$$
