
 OpenBabel03262522043D

 33 36  0  0  1  0  0  0  0  0999 V2000
   38.8040   23.4810   36.1880 C   0  0  2  0  0  0  0  0  0  0  0  0
   38.1190   24.6560   36.8000 C   0  0  0  0  0  0  0  0  0  0  0  0
   38.0000   25.7030   35.7960 N   0  0  0  0  0  0  0  0  0  0  0  0
   37.5090   26.7160   34.9060 C   0  0  0  0  0  0  0  0  0  0  0  0
   36.4510   27.3630   34.7490 O   0  0  0  0  0  0  0  0  0  0  0  0
   38.7510   26.7880   34.1340 C   0  0  1  0  0  0  0  0  0  0  0  0
   39.3120   25.9610   35.2590 C   0  0  2  0  0  0  0  0  0  0  0  0
   39.7520   24.2510   34.8150 S   0  0  0  0  0  0  0  0  0  0  0  0
   38.5890   25.0320   37.7220 H   0  0  0  0  0  0  0  0  0  0  0  0
   37.0880   24.3460   37.0860 H   0  0  0  0  0  0  0  0  0  0  0  0
   39.3200   27.7310   34.0990 H   0  0  0  0  0  0  0  0  0  0  0  0
   40.0270   26.4540   35.9380 H   0  0  0  0  0  0  0  0  0  0  0  0
   37.9110   22.3730   35.7320 C   0  0  0  0  0  0  0  0  0  0  0  0
   36.8570   22.7640   35.7090 H   0  0  0  0  0  0  0  0  0  0  0  0
   37.9100   21.5050   36.4260 H   0  0  0  0  0  0  0  0  0  0  0  0
   38.1760   22.1020   34.6960 H   0  0  0  0  0  0  0  0  0  0  0  0
   39.8810   22.9620   37.1500 C   0  0  0  0  0  0  0  0  0  0  0  0
   39.4470   22.4320   37.9960 H   0  0  0  0  0  0  0  0  0  0  0  0
   40.4270   23.8470   37.5440 H   0  0  0  0  0  0  0  0  0  0  0  0
   40.8930   22.1050   36.4380 C   0  0  0  0  0  3  0  0  0  0  0  0
   42.3440   22.4980   36.7310 C   0  0  0  0  0  2  0  0  0  0  0  0
   41.7940   21.2030   37.2030 C   0  0  0  0  0  2  0  0  0  0  0  0
   38.7110   26.1590   32.7980 C   0  0  0  0  0  0  0  0  0  0  0  0
   39.8390   26.0760   32.2340 O   0  0  0  0  0  0  0  0  0  0  0  0
   37.4920   25.6800   32.1990 C   0  0  0  0  0  0  0  0  0  0  0  0
   37.2210   24.3230   32.2950 C   0  0  0  0  0  0  0  0  0  0  0  0
   36.0220   23.8500   31.7040 C   0  0  0  0  0  0  0  0  0  0  0  0
   35.2090   24.7600   31.0770 N   0  0  0  0  0  0  0  0  0  0  0  0
   35.5140   26.0490   31.0130 C   0  0  0  0  0  0  0  0  0  0  0  0
   36.6480   26.5160   31.5680 N   0  0  0  0  0  0  0  0  0  0  0  0
   37.9130   23.6650   32.8080 H   0  0  0  0  0  0  0  0  0  0  0  0
   35.8590   22.8020   31.8050 H   0  0  0  0  0  0  0  0  0  0  0  0
   34.7890   26.6600   30.4910 H   0  0  0  0  0  0  0  0  0  0  0  0
  1 13  1  6  0  0  0
  1  2  1  0  0  0  0
  1 17  1  0  0  0  0
  2 10  1  0  0  0  0
  2  9  1  0  0  0  0
  3  2  1  0  0  0  0
  4  3  1  0  0  0  0
  5  4  2  0  0  0  0
  6 11  1  6  0  0  0
  6  4  1  0  0  0  0
  6  7  1  0  0  0  0
  7  3  1  0  0  0  0
  7 12  1  1  0  0  0
  8  7  1  0  0  0  0
  8  1  1  0  0  0  0
 13 15  1  0  0  0  0
 14 13  1  0  0  0  0
 16 13  1  0  0  0  0
 17 19  1  0  0  0  0
 17 18  1  0  0  0  0
 20 21  1  0  0  0  0
 20 17  1  0  0  0  0
 20 22  1  0  0  0  0
 21 22  1  0  0  0  0
 23  6  1  0  0  0  0
 24 23  2  0  0  0  0
 25 26  1  0  0  0  0
 25 23  1  0  0  0  0
 26 31  1  0  0  0  0
 27 32  1  0  0  0  0
 27 26  2  0  0  0  0
 28 27  1  0  0  0  0
 29 28  2  0  0  0  0
 29 30  1  0  0  0  0
 30 25  2  0  0  0  0
 33 29  1  0  0  0  0
M  END
>  <minimizedAffinity>
-5.0062089

$$$$

 OpenBabel03262522043D

 33 36  0  0  1  0  0  0  0  0999 V2000
   36.8350   27.5580   32.3560 C   0  0  2  0  0  0  0  0  0  0  0  0
   38.2020   27.7070   31.7760 C   0  0  0  0  0  0  0  0  0  0  0  0
   39.0910   26.7530   32.4210 N   0  0  0  0  0  0  0  0  0  0  0  0
   40.0380   25.7090   32.6920 C   0  0  0  0  0  0  0  0  0  0  0  0
   40.8530   25.0200   32.0410 O   0  0  0  0  0  0  0  0  0  0  0  0
   39.7450   25.6710   34.1260 C   0  0  1  0  0  0  0  0  0  0  0  0
   38.9990   26.9470   33.8470 C   0  0  2  0  0  0  0  0  0  0  0  0
   37.1890   26.8340   34.0080 S   0  0  0  0  0  0  0  0  0  0  0  0
   38.6080   28.7290   31.8160 H   0  0  0  0  0  0  0  0  0  0  0  0
   38.1490   27.4400   30.6960 H   0  0  0  0  0  0  0  0  0  0  0  0
   40.5400   25.9030   34.8530 H   0  0  0  0  0  0  0  0  0  0  0  0
   39.4340   27.8810   34.2390 H   0  0  0  0  0  0  0  0  0  0  0  0
   35.8730   26.7430   31.5550 C   0  0  0  0  0  0  0  0  0  0  0  0
   36.4590   26.1790   30.7790 H   0  0  0  0  0  0  0  0  0  0  0  0
   35.1350   27.3650   31.0030 H   0  0  0  0  0  0  0  0  0  0  0  0
   35.4050   25.9920   32.2130 H   0  0  0  0  0  0  0  0  0  0  0  0
   36.2600   28.9470   32.6660 C   0  0  0  0  0  0  0  0  0  0  0  0
   35.4720   29.2220   31.9670 H   0  0  0  0  0  0  0  0  0  0  0  0
   37.0880   29.6800   32.5550 H   0  0  0  0  0  0  0  0  0  0  0  0
   35.7780   29.0420   34.0880 C   0  0  0  0  0  3  0  0  0  0  0  0
   35.5260   30.4790   34.5550 C   0  0  0  0  0  2  0  0  0  0  0  0
   34.4050   29.5230   34.3920 C   0  0  0  0  0  2  0  0  0  0  0  0
   38.9460   24.5160   34.5850 C   0  0  0  0  0  0  0  0  0  0  0  0
   38.3080   23.9320   33.6630 O   0  0  0  0  0  0  0  0  0  0  0  0
   38.9030   24.0970   35.9620 C   0  0  0  0  0  0  0  0  0  0  0  0
   39.9000   23.2390   36.4010 C   0  0  0  0  0  0  0  0  0  0  0  0
   39.8580   22.8240   37.7570 C   0  0  0  0  0  0  0  0  0  0  0  0
   38.8380   23.2950   38.5440 N   0  0  0  0  0  0  0  0  0  0  0  0
   37.9080   24.1140   38.0750 C   0  0  0  0  0  0  0  0  0  0  0  0
   37.9310   24.5190   36.7910 N   0  0  0  0  0  0  0  0  0  0  0  0
   40.6740   22.9100   35.7180 H   0  0  0  0  0  0  0  0  0  0  0  0
   40.6460   22.1670   38.0460 H   0  0  0  0  0  0  0  0  0  0  0  0
   37.1600   24.4130   38.7990 H   0  0  0  0  0  0  0  0  0  0  0  0
  1 13  1  6  0  0  0
  1 17  1  0  0  0  0
  1  8  1  0  0  0  0
  2  9  1  0  0  0  0
  2  1  1  0  0  0  0
  2  3  1  0  0  0  0
  3  4  1  0  0  0  0
  3  7  1  0  0  0  0
  4  6  1  0  0  0  0
  5  4  2  0  0  0  0
  6 23  1  0  0  0  0
  6 11  1  1  0  0  0
  7  8  1  0  0  0  0
  7  6  1  0  0  0  0
  7 12  1  1  0  0  0
 10  2  1  0  0  0  0
 13 16  1  0  0  0  0
 14 13  1  0  0  0  0
 15 13  1  0  0  0  0
 17 20  1  0  0  0  0
 18 17  1  0  0  0  0
 19 17  1  0  0  0  0
 20 22  1  0  0  0  0
 20 21  1  0  0  0  0
 22 21  1  0  0  0  0
 23 25  1  0  0  0  0
 24 23  2  0  0  0  0
 25 26  2  0  0  0  0
 25 30  1  0  0  0  0
 26 27  1  0  0  0  0
 27 32  1  0  0  0  0
 27 28  2  0  0  0  0
 29 28  1  0  0  0  0
 29 33  1  0  0  0  0
 30 29  2  0  0  0  0
 31 26  1  0  0  0  0
M  END
>  <minimizedAffinity>
-4.91098166

$$$$

 OpenBabel03262522043D

 33 36  0  0  1  0  0  0  0  0999 V2000
   38.8490   24.6960   34.9280 C   0  0  2  0  0  0  0  0  0  0  0  0
   39.4540   25.5370   33.8550 C   0  0  0  0  0  0  0  0  0  0  0  0
   38.8090   25.2190   32.5900 N   0  0  0  0  0  0  0  0  0  0  0  0
   38.1140   25.2860   31.3360 C   0  0  0  0  0  0  0  0  0  0  0  0
   37.7530   26.1760   30.5350 O   0  0  0  0  0  0  0  0  0  0  0  0
   37.9210   23.8380   31.2450 C   0  0  1  0  0  0  0  0  0  0  0  0
   38.9000   23.7950   32.3860 C   0  0  2  0  0  0  0  0  0  0  0  0
   38.2040   23.2590   33.9800 S   0  0  0  0  0  0  0  0  0  0  0  0
   40.5500   25.4660   33.7790 H   0  0  0  0  0  0  0  0  0  0  0  0
   39.2320   26.6040   34.0860 H   0  0  0  0  0  0  0  0  0  0  0  0
   38.3640   23.2780   30.4050 H   0  0  0  0  0  0  0  0  0  0  0  0
   39.9070   23.3980   32.1710 H   0  0  0  0  0  0  0  0  0  0  0  0
   37.8030   25.3610   35.7640 C   0  0  0  0  0  0  0  0  0  0  0  0
   37.4920   26.3070   35.2420 H   0  0  0  0  0  0  0  0  0  0  0  0
   38.1780   25.6610   36.7660 H   0  0  0  0  0  0  0  0  0  0  0  0
   36.9140   24.7110   35.8080 H   0  0  0  0  0  0  0  0  0  0  0  0
   39.9630   24.1060   35.8010 C   0  0  0  0  0  0  0  0  0  0  0  0
   40.4170   24.8610   36.4420 H   0  0  0  0  0  0  0  0  0  0  0  0
   40.7500   23.7200   35.1180 H   0  0  0  0  0  0  0  0  0  0  0  0
   39.4720   22.9370   36.6110 C   0  0  0  0  0  3  0  0  0  0  0  0
   40.5560   22.2990   37.4860 C   0  0  0  0  0  2  0  0  0  0  0  0
   39.4080   23.0150   38.0940 C   0  0  0  0  0  2  0  0  0  0  0  0
   36.5520   23.3570   31.5210 C   0  0  0  0  0  0  0  0  0  0  0  0
   35.7290   24.2760   31.7960 O   0  0  0  0  0  0  0  0  0  0  0  0
   36.1920   21.9630   31.4760 C   0  0  0  0  0  0  0  0  0  0  0  0
   35.1200   21.5530   32.2540 C   0  0  0  0  0  0  0  0  0  0  0  0
   34.7660   20.1800   32.2120 C   0  0  0  0  0  0  0  0  0  0  0  0
   35.5030   19.3490   31.4080 N   0  0  0  0  0  0  0  0  0  0  0  0
   36.5210   19.7910   30.6820 C   0  0  0  0  0  0  0  0  0  0  0  0
   36.8710   21.0900   30.7100 N   0  0  0  0  0  0  0  0  0  0  0  0
   34.5860   22.2700   32.8660 H   0  0  0  0  0  0  0  0  0  0  0  0
   33.9370   19.9150   32.8270 H   0  0  0  0  0  0  0  0  0  0  0  0
   37.0180   19.0330   30.0910 H   0  0  0  0  0  0  0  0  0  0  0  0
  1 13  1  1  0  0  0
  1 17  1  0  0  0  0
  2 10  1  0  0  0  0
  2  1  1  0  0  0  0
  3  2  1  0  0  0  0
  4  3  1  0  0  0  0
  5  4  2  0  0  0  0
  6 11  1  6  0  0  0
  6  4  1  0  0  0  0
  6 23  1  0  0  0  0
  6  7  1  0  0  0  0
  7 12  1  6  0  0  0
  7  3  1  0  0  0  0
  7  8  1  0  0  0  0
  8  1  1  0  0  0  0
  9  2  1  0  0  0  0
 13 16  1  0  0  0  0
 13 15  1  0  0  0  0
 14 13  1  0  0  0  0
 17 18  1  0  0  0  0
 17 20  1  0  0  0  0
 19 17  1  0  0  0  0
 20 21  1  0  0  0  0
 20 22  1  0  0  0  0
 21 22  1  0  0  0  0
 23 24  2  0  0  0  0
 25 23  1  0  0  0  0
 25 26  1  0  0  0  0
 26 31  1  0  0  0  0
 27 26  2  0  0  0  0
 27 32  1  0  0  0  0
 28 27  1  0  0  0  0
 29 30  1  0  0  0  0
 29 28  2  0  0  0  0
 30 25  2  0  0  0  0
 33 29  1  0  0  0  0
M  END
>  <minimizedAffinity>
-4.81453419

$$$$

 OpenBabel03262522043D

 33 36  0  0  1  0  0  0  0  0999 V2000
   37.3320   22.8590   31.2930 C   0  0  2  0  0  0  0  0  0  0  0  0
   37.2140   24.2810   30.8590 C   0  0  0  0  0  0  0  0  0  0  0  0
   37.8790   25.1260   31.8380 N   0  0  0  0  0  0  0  0  0  0  0  0
   38.7230   26.0860   32.4920 C   0  0  0  0  0  0  0  0  0  0  0  0
   39.4790   27.0220   32.1520 O   0  0  0  0  0  0  0  0  0  0  0  0
   38.4110   25.6020   33.8370 C   0  0  1  0  0  0  0  0  0  0  0  0
   37.3280   24.8280   33.1360 C   0  0  2  0  0  0  0  0  0  0  0  0
   37.5620   23.0230   33.1090 S   0  0  0  0  0  0  0  0  0  0  0  0
   36.1840   24.6180   30.6660 H   0  0  0  0  0  0  0  0  0  0  0  0
   37.7590   24.3930   29.8930 H   0  0  0  0  0  0  0  0  0  0  0  0
   37.9240   26.2740   34.5620 H   0  0  0  0  0  0  0  0  0  0  0  0
   36.2870   25.1500   33.3080 H   0  0  0  0  0  0  0  0  0  0  0  0
   38.4140   22.0650   30.6360 C   0  0  0  0  0  0  0  0  0  0  0  0
   39.1050   22.7840   30.1170 H   0  0  0  0  0  0  0  0  0  0  0  0
   38.0300   21.3750   29.8540 H   0  0  0  0  0  0  0  0  0  0  0  0
   39.0070   21.5550   31.4140 H   0  0  0  0  0  0  0  0  0  0  0  0
   35.9710   22.1670   31.1440 C   0  0  0  0  0  0  0  0  0  0  0  0
   35.8550   21.7100   30.1620 H   0  0  0  0  0  0  0  0  0  0  0  0
   35.1880   22.9490   31.2520 H   0  0  0  0  0  0  0  0  0  0  0  0
   35.7380   21.1600   32.2380 C   0  0  0  0  0  3  0  0  0  0  0  0
   34.4890   20.3000   32.0240 C   0  0  0  0  0  2  0  0  0  0  0  0
   35.8450   19.7030   31.9620 C   0  0  0  0  0  2  0  0  0  0  0  0
   39.4740   24.8150   34.4960 C   0  0  0  0  0  0  0  0  0  0  0  0
   40.5280   24.6960   33.8080 O   0  0  0  0  0  0  0  0  0  0  0  0
   39.3180   24.2400   35.8070 C   0  0  0  0  0  0  0  0  0  0  0  0
   40.2470   23.2890   36.2030 C   0  0  0  0  0  0  0  0  0  0  0  0
   40.0930   22.7210   37.4940 C   0  0  0  0  0  0  0  0  0  0  0  0
   39.0410   23.1460   38.2650 N   0  0  0  0  0  0  0  0  0  0  0  0
   38.1800   24.0590   37.8390 C   0  0  0  0  0  0  0  0  0  0  0  0
   38.3100   24.6100   36.6170 N   0  0  0  0  0  0  0  0  0  0  0  0
   41.0520   23.0040   35.5370 H   0  0  0  0  0  0  0  0  0  0  0  0
   40.8310   21.9960   37.7520 H   0  0  0  0  0  0  0  0  0  0  0  0
   37.3970   24.3070   38.5440 H   0  0  0  0  0  0  0  0  0  0  0  0
  1 13  1  6  0  0  0
  1  8  1  0  0  0  0
  2  1  1  0  0  0  0
  2  3  1  0  0  0  0
  3  4  1  0  0  0  0
  3  7  1  0  0  0  0
  4  6  1  0  0  0  0
  5  4  2  0  0  0  0
  6 23  1  0  0  0  0
  6 11  1  1  0  0  0
  7 12  1  1  0  0  0
  7  6  1  0  0  0  0
  8  7  1  0  0  0  0
  9  2  1  0  0  0  0
 10  2  1  0  0  0  0
 13 16  1  0  0  0  0
 14 13  1  0  0  0  0
 15 13  1  0  0  0  0
 17 19  1  0  0  0  0
 17  1  1  0  0  0  0
 17 20  1  0  0  0  0
 18 17  1  0  0  0  0
 21 20  1  0  0  0  0
 22 21  1  0  0  0  0
 22 20  1  0  0  0  0
 23 25  1  0  0  0  0
 24 23  2  0  0  0  0
 25 26  2  0  0  0  0
 25 30  1  0  0  0  0
 26 27  1  0  0  0  0
 27 32  1  0  0  0  0
 27 28  2  0  0  0  0
 29 28  1  0  0  0  0
 29 33  1  0  0  0  0
 30 29  2  0  0  0  0
 31 26  1  0  0  0  0
M  END
>  <minimizedAffinity>
-4.77853584

$$$$

 OpenBabel03262522043D

 33 36  0  0  1  0  0  0  0  0999 V2000
   38.7750   26.1150   34.8850 C   0  0  2  0  0  0  0  0  0  0  0  0
   39.9620   26.3660   34.0170 C   0  0  0  0  0  0  0  0  0  0  0  0
   39.5060   26.5860   32.6530 N   0  0  0  0  0  0  0  0  0  0  0  0
   39.2640   27.1260   31.3460 C   0  0  0  0  0  0  0  0  0  0  0  0
   39.7200   28.0500   30.6370 O   0  0  0  0  0  0  0  0  0  0  0  0
   38.1960   26.1750   31.0350 C   0  0  1  0  0  0  0  0  0  0  0  0
   38.6850   25.4650   32.2680 C   0  0  2  0  0  0  0  0  0  0  0  0
   37.5350   25.4900   33.6800 S   0  0  0  0  0  0  0  0  0  0  0  0
   40.7380   25.5870   34.0640 H   0  0  0  0  0  0  0  0  0  0  0  0
   40.4500   27.3060   34.3630 H   0  0  0  0  0  0  0  0  0  0  0  0
   38.3100   25.4810   30.1860 H   0  0  0  0  0  0  0  0  0  0  0  0
   39.2080   24.5060   32.1230 H   0  0  0  0  0  0  0  0  0  0  0  0
   38.2850   27.2860   35.6730 C   0  0  0  0  0  0  0  0  0  0  0  0
   38.7650   28.2120   35.2520 H   0  0  0  0  0  0  0  0  0  0  0  0
   38.5770   27.2390   36.7440 H   0  0  0  0  0  0  0  0  0  0  0  0
   37.1980   27.3900   35.5210 H   0  0  0  0  0  0  0  0  0  0  0  0
   39.0570   24.9140   35.7970 C   0  0  0  0  0  0  0  0  0  0  0  0
   40.0560   24.9590   36.2280 H   0  0  0  0  0  0  0  0  0  0  0  0
   38.9970   23.9990   35.1680 H   0  0  0  0  0  0  0  0  0  0  0  0
   38.0120   24.7760   36.8700 C   0  0  0  0  0  3  0  0  0  0  0  0
   37.4900   23.3460   37.0380 C   0  0  0  0  0  2  0  0  0  0  0  0
   38.2910   23.9950   38.1040 C   0  0  0  0  0  2  0  0  0  0  0  0
   36.8230   26.7180   31.0770 C   0  0  0  0  0  0  0  0  0  0  0  0
   35.9180   25.8420   30.9650 O   0  0  0  0  0  0  0  0  0  0  0  0
   36.5450   28.1220   31.2360 C   0  0  0  0  0  0  0  0  0  0  0  0
   36.2100   28.5690   32.5060 C   0  0  0  0  0  0  0  0  0  0  0  0
   35.9350   29.9510   32.6630 C   0  0  0  0  0  0  0  0  0  0  0  0
   36.0180   30.7560   31.5550 N   0  0  0  0  0  0  0  0  0  0  0  0
   36.3420   30.2780   30.3620 C   0  0  0  0  0  0  0  0  0  0  0  0
   36.6070   28.9690   30.1930 N   0  0  0  0  0  0  0  0  0  0  0  0
   36.1650   27.8720   33.3340 H   0  0  0  0  0  0  0  0  0  0  0  0
   35.6830   30.2450   33.6560 H   0  0  0  0  0  0  0  0  0  0  0  0
   36.3730   31.0180   29.5710 H   0  0  0  0  0  0  0  0  0  0  0  0
  1 13  1  1  0  0  0
  1 17  1  0  0  0  0
  2  9  1  0  0  0  0
  2 10  1  0  0  0  0
  2  1  1  0  0  0  0
  3  2  1  0  0  0  0
  4  3  1  0  0  0  0
  5  4  2  0  0  0  0
  6 11  1  6  0  0  0
  6 23  1  0  0  0  0
  6  4  1  0  0  0  0
  6  7  1  0  0  0  0
  7 12  1  6  0  0  0
  7  3  1  0  0  0  0
  7  8  1  0  0  0  0
  8  1  1  0  0  0  0
 13 15  1  0  0  0  0
 14 13  1  0  0  0  0
 16 13  1  0  0  0  0
 17 18  1  0  0  0  0
 17 20  1  0  0  0  0
 19 17  1  0  0  0  0
 20 21  1  0  0  0  0
 20 22  1  0  0  0  0
 21 22  1  0  0  0  0
 23 25  1  0  0  0  0
 24 23  2  0  0  0  0
 25 26  1  0  0  0  0
 26 27  2  0  0  0  0
 26 31  1  0  0  0  0
 27 32  1  0  0  0  0
 28 27  1  0  0  0  0
 29 28  2  0  0  0  0
 30 29  1  0  0  0  0
 30 25  2  0  0  0  0
 33 29  1  0  0  0  0
M  END
>  <minimizedAffinity>
-4.65679836

$$$$

 OpenBabel03262522043D

 33 36  0  0  1  0  0  0  0  0999 V2000
   38.9050   25.8880   34.8840 C   0  0  2  0  0  0  0  0  0  0  0  0
   38.8560   24.7540   33.9170 C   0  0  0  0  0  0  0  0  0  0  0  0
   38.2440   25.2180   32.6810 N   0  0  0  0  0  0  0  0  0  0  0  0
   37.9660   25.5350   31.3090 C   0  0  0  0  0  0  0  0  0  0  0  0
   38.4390   25.2450   30.1880 O   0  0  0  0  0  0  0  0  0  0  0  0
   36.8310   26.4020   31.6290 C   0  0  1  0  0  0  0  0  0  0  0  0
   36.9710   25.8110   33.0060 C   0  0  2  0  0  0  0  0  0  0  0  0
   37.5430   26.9690   34.2880 S   0  0  0  0  0  0  0  0  0  0  0  0
   38.3600   23.8470   34.2980 H   0  0  0  0  0  0  0  0  0  0  0  0
   39.9030   24.4540   33.6820 H   0  0  0  0  0  0  0  0  0  0  0  0
   35.8250   26.1460   31.2590 H   0  0  0  0  0  0  0  0  0  0  0  0
   36.1820   25.1160   33.3380 H   0  0  0  0  0  0  0  0  0  0  0  0
   40.2150   26.6010   34.9860 C   0  0  0  0  0  0  0  0  0  0  0  0
   40.8450   26.2940   34.1060 H   0  0  0  0  0  0  0  0  0  0  0  0
   40.7880   26.3240   35.8970 H   0  0  0  0  0  0  0  0  0  0  0  0
   40.0400   27.6860   34.8930 H   0  0  0  0  0  0  0  0  0  0  0  0
   38.4310   25.4040   36.2610 C   0  0  0  0  0  0  0  0  0  0  0  0
   37.4670   25.8320   36.5300 H   0  0  0  0  0  0  0  0  0  0  0  0
   39.1790   25.7470   37.0080 H   0  0  0  0  0  0  0  0  0  0  0  0
   38.3940   23.9020   36.3370 C   0  0  0  0  0  3  0  0  0  0  0  0
   38.8720   23.3440   37.6800 C   0  0  0  0  0  2  0  0  0  0  0  0
   37.4560   23.2130   37.2620 C   0  0  0  0  0  2  0  0  0  0  0  0
   37.0770   27.8520   31.4970 C   0  0  0  0  0  0  0  0  0  0  0  0
   38.2840   28.1510   31.2650 O   0  0  0  0  0  0  0  0  0  0  0  0
   36.0310   28.8340   31.6200 C   0  0  0  0  0  0  0  0  0  0  0  0
   36.1710   30.0130   30.9030 C   0  0  0  0  0  0  0  0  0  0  0  0
   35.1420   30.9810   31.0240 C   0  0  0  0  0  0  0  0  0  0  0  0
   34.0770   30.6920   31.8400 N   0  0  0  0  0  0  0  0  0  0  0  0
   33.9910   29.5490   32.5040 C   0  0  0  0  0  0  0  0  0  0  0  0
   34.9570   28.6180   32.4020 N   0  0  0  0  0  0  0  0  0  0  0  0
   37.0430   30.1690   30.2790 H   0  0  0  0  0  0  0  0  0  0  0  0
   35.2960   31.8690   30.4540 H   0  0  0  0  0  0  0  0  0  0  0  0
   33.1000   29.4450   33.1110 H   0  0  0  0  0  0  0  0  0  0  0  0
  1 13  1  1  0  0  0
  1 17  1  0  0  0  0
  2  9  1  0  0  0  0
  2  1  1  0  0  0  0
  3  7  1  0  0  0  0
  3  2  1  0  0  0  0
  4  6  1  0  0  0  0
  4  3  1  0  0  0  0
  5  4  2  0  0  0  0
  6 11  1  6  0  0  0
  6  7  1  0  0  0  0
  7 12  1  1  0  0  0
  7  8  1  0  0  0  0
  8  1  1  0  0  0  0
 10  2  1  0  0  0  0
 13 15  1  0  0  0  0
 14 13  1  0  0  0  0
 16 13  1  0  0  0  0
 17 20  1  0  0  0  0
 17 18  1  0  0  0  0
 17 19  1  0  0  0  0
 20 22  1  0  0  0  0
 20 21  1  0  0  0  0
 22 21  1  0  0  0  0
 23 25  1  0  0  0  0
 23  6  1  0  0  0  0
 24 23  2  0  0  0  0
 25 30  1  0  0  0  0
 26 27  1  0  0  0  0
 26 25  2  0  0  0  0
 27 28  2  0  0  0  0
 28 29  1  0  0  0  0
 29 33  1  0  0  0  0
 30 29  2  0  0  0  0
 31 26  1  0  0  0  0
 32 27  1  0  0  0  0
M  END
>  <minimizedAffinity>
-4.64489365

$$$$

 OpenBabel03262522043D

 33 36  0  0  1  0  0  0  0  0999 V2000
   38.3960   26.0170   35.1600 C   0  0  2  0  0  0  0  0  0  0  0  0
   38.0910   25.4220   36.4940 C   0  0  0  0  0  0  0  0  0  0  0  0
   38.7330   24.1200   36.5840 N   0  0  0  0  0  0  0  0  0  0  0  0
   39.5140   22.9880   36.9950 C   0  0  0  0  0  0  0  0  0  0  0  0
   40.1360   22.6270   38.0170 O   0  0  0  0  0  0  0  0  0  0  0  0
   39.3610   22.2860   35.7200 C   0  0  1  0  0  0  0  0  0  0  0  0
   38.3180   23.3360   35.4480 C   0  0  2  0  0  0  0  0  0  0  0  0
   38.7450   24.5280   34.1400 S   0  0  0  0  0  0  0  0  0  0  0  0
   37.0180   25.3620   36.7360 H   0  0  0  0  0  0  0  0  0  0  0  0
   38.5450   26.0750   37.2750 H   0  0  0  0  0  0  0  0  0  0  0  0
   38.8600   21.3050   35.6910 H   0  0  0  0  0  0  0  0  0  0  0  0
   37.2640   23.0100   35.4410 H   0  0  0  0  0  0  0  0  0  0  0  0
   39.5050   27.0180   35.1320 C   0  0  0  0  0  0  0  0  0  0  0  0
   40.0720   26.9350   36.0990 H   0  0  0  0  0  0  0  0  0  0  0  0
   39.1400   28.0650   35.0690 H   0  0  0  0  0  0  0  0  0  0  0  0
   40.2070   26.7510   34.3240 H   0  0  0  0  0  0  0  0  0  0  0  0
   37.1110   26.5980   34.5570 C   0  0  0  0  0  0  0  0  0  0  0  0
   36.5250   27.1400   35.2980 H   0  0  0  0  0  0  0  0  0  0  0  0
   36.4990   25.7440   34.1950 H   0  0  0  0  0  0  0  0  0  0  0  0
   37.4030   27.4650   33.3620 C   0  0  0  0  0  3  0  0  0  0  0  0
   36.4880   27.1880   32.1650 C   0  0  0  0  0  2  0  0  0  0  0  0
   36.4140   28.4750   32.8990 C   0  0  0  0  0  2  0  0  0  0  0  0
   40.5500   22.2840   34.8430 C   0  0  0  0  0  0  0  0  0  0  0  0
   40.3730   21.7030   33.7350 O   0  0  0  0  0  0  0  0  0  0  0  0
   41.7980   22.8960   35.2230 C   0  0  0  0  0  0  0  0  0  0  0  0
   42.7730   22.0750   35.7690 C   0  0  0  0  0  0  0  0  0  0  0  0
   44.0010   22.6760   36.1450 C   0  0  0  0  0  0  0  0  0  0  0  0
   44.1470   24.0250   35.9440 N   0  0  0  0  0  0  0  0  0  0  0  0
   43.1830   24.7660   35.4170 C   0  0  0  0  0  0  0  0  0  0  0  0
   42.0100   24.2140   35.0550 N   0  0  0  0  0  0  0  0  0  0  0  0
   42.5840   21.0160   35.8970 H   0  0  0  0  0  0  0  0  0  0  0  0
   44.7180   22.0040   36.5590 H   0  0  0  0  0  0  0  0  0  0  0  0
   43.4250   25.8160   35.3120 H   0  0  0  0  0  0  0  0  0  0  0  0
  1 17  1  6  0  0  0
  1  2  1  0  0  0  0
  2  3  1  0  0  0  0
  2  9  1  0  0  0  0
  2 10  1  0  0  0  0
  3  4  1  0  0  0  0
  4  5  2  0  0  0  0
  6 11  1  1  0  0  0
  6  4  1  0  0  0  0
  7 12  1  1  0  0  0
  7  6  1  0  0  0  0
  7  3  1  0  0  0  0
  8  1  1  0  0  0  0
  8  7  1  0  0  0  0
 13  1  1  0  0  0  0
 13 14  1  0  0  0  0
 15 13  1  0  0  0  0
 16 13  1  0  0  0  0
 17 18  1  0  0  0  0
 19 17  1  0  0  0  0
 20 17  1  0  0  0  0
 21 22  1  0  0  0  0
 21 20  1  0  0  0  0
 22 20  1  0  0  0  0
 23 25  1  0  0  0  0
 23  6  1  0  0  0  0
 24 23  2  0  0  0  0
 25 26  1  0  0  0  0
 26 31  1  0  0  0  0
 26 27  2  0  0  0  0
 27 32  1  0  0  0  0
 28 27  1  0  0  0  0
 29 28  2  0  0  0  0
 30 25  2  0  0  0  0
 30 29  1  0  0  0  0
 33 29  1  0  0  0  0
M  END
>  <minimizedAffinity>
-4.62843561

$$$$

 OpenBabel03262522043D

 33 36  0  0  1  0  0  0  0  0999 V2000
   37.0170   26.9670   31.9810 C   0  0  2  0  0  0  0  0  0  0  0  0
   38.2980   26.7030   31.2630 C   0  0  0  0  0  0  0  0  0  0  0  0
   39.0400   25.6830   31.9890 N   0  0  0  0  0  0  0  0  0  0  0  0
   39.7710   24.5060   32.3600 C   0  0  0  0  0  0  0  0  0  0  0  0
   40.3320   23.5530   31.7750 O   0  0  0  0  0  0  0  0  0  0  0  0
   39.6630   24.7620   33.7970 C   0  0  1  0  0  0  0  0  0  0  0  0
   39.1740   26.1160   33.3580 C   0  0  2  0  0  0  0  0  0  0  0  0
   37.4180   26.4500   33.6990 S   0  0  0  0  0  0  0  0  0  0  0  0
   38.9130   27.5970   31.0790 H   0  0  0  0  0  0  0  0  0  0  0  0
   38.0520   26.2880   30.2590 H   0  0  0  0  0  0  0  0  0  0  0  0
   40.5760   24.9170   34.3950 H   0  0  0  0  0  0  0  0  0  0  0  0
   39.8440   26.9740   33.5320 H   0  0  0  0  0  0  0  0  0  0  0  0
   35.8090   26.2790   31.4310 C   0  0  0  0  0  0  0  0  0  0  0  0
   36.1580   25.4800   30.7220 H   0  0  0  0  0  0  0  0  0  0  0  0
   35.1550   26.9590   30.8440 H   0  0  0  0  0  0  0  0  0  0  0  0
   35.2810   25.7700   32.2540 H   0  0  0  0  0  0  0  0  0  0  0  0
   36.7930   28.4810   32.0820 C   0  0  0  0  0  0  0  0  0  0  0  0
   37.7010   29.0050   32.3780 H   0  0  0  0  0  0  0  0  0  0  0  0
   36.0270   28.6510   32.8690 H   0  0  0  0  0  0  0  0  0  0  0  0
   36.2380   29.0460   30.8020 C   0  0  0  0  0  3  0  0  0  0  0  0
   36.0050   30.5590   30.8500 C   0  0  0  0  0  2  0  0  0  0  0  0
   37.0470   29.9760   29.9710 C   0  0  0  0  0  2  0  0  0  0  0  0
   38.7030   23.9110   34.5280 C   0  0  0  0  0  0  0  0  0  0  0  0
   37.8460   23.3480   33.7890 O   0  0  0  0  0  0  0  0  0  0  0  0
   38.7470   23.7380   35.9580 C   0  0  0  0  0  0  0  0  0  0  0  0
   39.7930   22.9930   36.4810 C   0  0  0  0  0  0  0  0  0  0  0  0
   39.8370   22.8210   37.8880 C   0  0  0  0  0  0  0  0  0  0  0  0
   38.8460   23.4000   38.6390 N   0  0  0  0  0  0  0  0  0  0  0  0
   37.8660   24.1040   38.0890 C   0  0  0  0  0  0  0  0  0  0  0  0
   37.8080   24.2780   36.7560 N   0  0  0  0  0  0  0  0  0  0  0  0
   40.5400   22.5660   35.8220 H   0  0  0  0  0  0  0  0  0  0  0  0
   40.6590   22.2420   38.2400 H   0  0  0  0  0  0  0  0  0  0  0  0
   37.1490   24.5080   38.7930 H   0  0  0  0  0  0  0  0  0  0  0  0
  1 13  1  6  0  0  0
  1 17  1  0  0  0  0
  1  8  1  0  0  0  0
  2  1  1  0  0  0  0
  2  3  1  0  0  0  0
  3  4  1  0  0  0  0
  3  7  1  0  0  0  0
  4  6  1  0  0  0  0
  5  4  2  0  0  0  0
  6 11  1  1  0  0  0
  6 23  1  0  0  0  0
  7 12  1  1  0  0  0
  7  8  1  0  0  0  0
  7  6  1  0  0  0  0
  9  2  1  0  0  0  0
 10  2  1  0  0  0  0
 13 16  1  0  0  0  0
 14 13  1  0  0  0  0
 15 13  1  0  0  0  0
 17 18  1  0  0  0  0
 17 19  1  0  0  0  0
 20 21  1  0  0  0  0
 20 17  1  0  0  0  0
 22 20  1  0  0  0  0
 22 21  1  0  0  0  0
 23 25  1  0  0  0  0
 24 23  2  0  0  0  0
 25 26  2  0  0  0  0
 25 30  1  0  0  0  0
 26 27  1  0  0  0  0
 27 32  1  0  0  0  0
 27 28  2  0  0  0  0
 29 28  1  0  0  0  0
 29 33  1  0  0  0  0
 30 29  2  0  0  0  0
 31 26  1  0  0  0  0
M  END
>  <minimizedAffinity>
-4.60660219

$$$$

 OpenBabel03262522043D

 33 36  0  0  1  0  0  0  0  0999 V2000
   37.4790   24.5020   32.0220 C   0  0  2  0  0  0  0  0  0  0  0  0
   37.0230   25.6350   32.8790 C   0  0  0  0  0  0  0  0  0  0  0  0
   37.9250   25.7560   34.0140 N   0  0  0  0  0  0  0  0  0  0  0  0
   38.8410   26.2390   35.0080 C   0  0  0  0  0  0  0  0  0  0  0  0
   39.2730   27.3470   35.3940 O   0  0  0  0  0  0  0  0  0  0  0  0
   39.1690   24.9030   35.5070 C   0  0  1  0  0  0  0  0  0  0  0  0
   37.9950   24.4740   34.6690 C   0  0  2  0  0  0  0  0  0  0  0  0
   38.4120   23.4610   33.2160 S   0  0  0  0  0  0  0  0  0  0  0  0
   35.9730   25.5740   33.2010 H   0  0  0  0  0  0  0  0  0  0  0  0
   37.1060   26.5730   32.2830 H   0  0  0  0  0  0  0  0  0  0  0  0
   38.9450   24.6380   36.5530 H   0  0  0  0  0  0  0  0  0  0  0  0
   37.0860   24.1520   35.2040 H   0  0  0  0  0  0  0  0  0  0  0  0
   38.2830   24.8770   30.8200 C   0  0  0  0  0  0  0  0  0  0  0  0
   38.6080   25.9460   30.9400 H   0  0  0  0  0  0  0  0  0  0  0  0
   37.6980   24.8290   29.8760 H   0  0  0  0  0  0  0  0  0  0  0  0
   39.1990   24.2630   30.7960 H   0  0  0  0  0  0  0  0  0  0  0  0
   36.2700   23.6410   31.6320 C   0  0  0  0  0  0  0  0  0  0  0  0
   36.0440   23.7180   30.5700 H   0  0  0  0  0  0  0  0  0  0  0  0
   35.3930   24.0270   32.1970 H   0  0  0  0  0  0  0  0  0  0  0  0
   36.4570   22.2050   32.0410 C   0  0  0  0  0  3  0  0  0  0  0  0
   35.1410   21.4620   32.2900 C   0  0  0  0  0  2  0  0  0  0  0  0
   36.0170   21.1000   31.1490 C   0  0  0  0  0  2  0  0  0  0  0  0
   40.4940   24.3810   35.1150 C   0  0  0  0  0  0  0  0  0  0  0  0
   41.0600   25.0470   34.2010 O   0  0  0  0  0  0  0  0  0  0  0  0
   41.0860   23.2190   35.7250 C   0  0  0  0  0  0  0  0  0  0  0  0
   40.5670   22.8010   36.9420 C   0  0  0  0  0  0  0  0  0  0  0  0
   41.1500   21.6570   37.5450 C   0  0  0  0  0  0  0  0  0  0  0  0
   42.1850   21.0390   36.8900 N   0  0  0  0  0  0  0  0  0  0  0  0
   42.6440   21.4790   35.7270 C   0  0  0  0  0  0  0  0  0  0  0  0
   42.1040   22.5630   35.1400 N   0  0  0  0  0  0  0  0  0  0  0  0
   39.7470   23.3420   37.3980 H   0  0  0  0  0  0  0  0  0  0  0  0
   40.7170   21.3760   38.4770 H   0  0  0  0  0  0  0  0  0  0  0  0
   43.4630   20.9020   35.3160 H   0  0  0  0  0  0  0  0  0  0  0  0
  1 13  1  6  0  0  0
  1  2  1  0  0  0  0
  1  8  1  0  0  0  0
  2  9  1  0  0  0  0
  2  3  1  0  0  0  0
  3  7  1  0  0  0  0
  3  4  1  0  0  0  0
  4  5  2  0  0  0  0
  4  6  1  0  0  0  0
  6 11  1  1  0  0  0
  7 12  1  1  0  0  0
  7  6  1  0  0  0  0
  8  7  1  0  0  0  0
 10  2  1  0  0  0  0
 13 14  1  0  0  0  0
 15 13  1  0  0  0  0
 16 13  1  0  0  0  0
 17  1  1  0  0  0  0
 17 20  1  0  0  0  0
 17 19  1  0  0  0  0
 18 17  1  0  0  0  0
 20 21  1  0  0  0  0
 22 20  1  0  0  0  0
 22 21  1  0  0  0  0
 23  6  1  0  0  0  0
 23 25  1  0  0  0  0
 24 23  2  0  0  0  0
 25 26  1  0  0  0  0
 26 31  1  0  0  0  0
 26 27  2  0  0  0  0
 27 32  1  0  0  0  0
 28 27  1  0  0  0  0
 29 28  2  0  0  0  0
 30 25  2  0  0  0  0
 30 29  1  0  0  0  0
 33 29  1  0  0  0  0
M  END
>  <minimizedAffinity>
-4.55796623

$$$$
