
 OpenBabel03272510043D

 31 33  0  0  0  0  0  0  0  0999 V2000
   37.2350   30.9820   44.5750 C   0  0  0  0  0  0  0  0  0  0  0  0
   36.6700   30.6630   45.7690 C   0  0  0  0  0  0  0  0  0  0  0  0
   35.4220   30.0480   45.8070 C   0  0  0  0  0  0  0  0  0  0  0  0
   34.7090   29.7430   44.6630 C   0  0  0  0  0  0  0  0  0  0  0  0
   35.2450   30.0550   43.4390 C   0  0  0  0  0  0  0  0  0  0  0  0
   36.4780   30.6590   43.4370 C   0  0  0  0  0  0  0  0  0  0  0  0
   34.9940   29.8000   46.7880 H   0  0  0  0  0  0  0  0  0  0  0  0
   33.7650   29.2740   44.7980 H   0  0  0  0  0  0  0  0  0  0  0  0
   34.6560   29.8010   42.5980 H   0  0  0  0  0  0  0  0  0  0  0  0
   36.7900   30.8570   42.4030 H   0  0  0  0  0  0  0  0  0  0  0  0
   38.7900   32.3970   48.2230 C   0  0  0  0  0  0  0  0  0  0  0  0
   38.1420   32.0620   47.0450 C   0  0  0  0  0  0  0  0  0  0  0  0
   37.3060   30.9820   47.0000 C   0  0  0  0  0  0  0  0  0  0  0  0
   37.1460   30.2750   48.1520 N   0  0  0  0  0  0  0  0  0  0  0  0
   37.7660   30.5990   49.2910 C   0  0  0  0  0  0  0  0  0  0  0  0
   38.5860   31.6560   49.3190 N   0  0  0  0  0  0  0  0  0  0  0  0
   39.4710   33.1970   48.4310 H   0  0  0  0  0  0  0  0  0  0  0  0
   38.4410   32.8170   46.3590 H   0  0  0  0  0  0  0  0  0  0  0  0
   37.4420   29.7790   50.4890 C   0  0  0  0  0  0  0  0  0  0  0  0
   37.7000   30.4540   51.6650 F   0  0  0  0  0  0  0  0  0  0  0  0
   36.0080   29.5950   50.5470 F   0  0  0  0  0  0  0  0  0  0  0  0
   37.9110   28.5530   50.5220 F   0  0  0  0  0  0  0  0  0  0  0  0
   38.7710   31.7010   44.3930 S   0  0  0  0  0  0  0  0  0  0  0  0
   38.7730   33.1070   44.8990 O   0  0  0  0  0  0  0  0  0  0  0  0
   38.6900   32.0640   42.9300 O   0  0  0  0  0  0  0  0  0  0  0  0
   40.2320   30.9280   44.0360 C   0  0  0  0  0  0  0  0  0  0  0  0
   41.0690   31.5500   43.7080 H   0  0  0  0  0  0  0  0  0  0  0  0
   40.6310   30.5560   45.0430 H   0  0  0  0  0  0  0  0  0  0  0  0
   40.0980   29.6410   43.2710 C   0  0  0  0  0  3  0  0  0  0  0  0
   41.2880   29.4040   42.3170 C   0  0  0  0  0  2  0  0  0  0  0  0
   39.8830   29.6380   41.8060 C   0  0  0  0  0  2  0  0  0  0  0  0
  1  2  1  0  0  0  0
  2  3  2  0  0  0  0
  2 13  1  0  0  0  0
  3  7  1  0  0  0  0
  4  8  1  0  0  0  0
  4  3  1  0  0  0  0
  5  4  2  0  0  0  0
  6  5  1  0  0  0  0
  6  1  2  0  0  0  0
  9  5  1  0  0  0  0
 10  6  1  0  0  0  0
 11 17  1  0  0  0  0
 11 16  1  0  0  0  0
 12 11  2  0  0  0  0
 13 12  1  0  0  0  0
 13 14  2  0  0  0  0
 14 15  1  0  0  0  0
 15 16  2  0  0  0  0
 15 19  1  0  0  0  0
 18 12  1  0  0  0  0
 19 22  1  0  0  0  0
 19 21  1  0  0  0  0
 19 20  1  0  0  0  0
 23  1  1  0  0  0  0
 23 24  2  0  0  0  0
 25 23  2  0  0  0  0
 26 23  1  0  0  0  0
 26 28  1  0  0  0  0
 27 26  1  0  0  0  0
 29 26  1  0  0  0  0
 30 29  1  0  0  0  0
 31 30  1  0  0  0  0
 31 29  1  0  0  0  0
M  END
>  <minimizedAffinity>
-5.41047144

>  <minimizedRMSD>
1.17810035

$$$$
