REMARK  Name = 
REMARK  4 active torsions:
REMARK  status: ('A' for Active; 'I' for Inactive)
REMARK    1  A    between atoms: C_1  and  C_7
REMARK    2  A    between atoms: C_5  and  C_10
REMARK    3  A    between atoms: C_10  and  N_13
REMARK    4  A    between atoms: C_11  and  C_24
REMARK                            x       y       z     vdW  Elec       q    Type
REMARK                         _______ _______ _______ _____ _____    ______ ____
ROOT
ATOM      1  C   UNL     1      37.466  31.435  49.383  0.00  0.00    +0.000 A 
ATOM      2  C   UNL     1      37.872  32.718  49.706  0.00  0.00    +0.000 A 
ATOM      3  C   UNL     1      38.693  33.317  48.764  0.00  0.00    +0.000 A 
ATOM      4  N   UNL     1      39.049  32.664  47.627  0.00  0.00    +0.000 NA
ATOM      5  C   UNL     1      38.631  31.412  47.350  0.00  0.00    +0.000 A 
ATOM      6  N   UNL     1      37.820  30.786  48.256  0.00  0.00    +0.000 NA
ATOM      7  H   UNL     1      37.542  33.164  50.632  0.00  0.00    +0.000 HD
ATOM      8  H   UNL     1      39.037  34.325  48.974  0.00  0.00    +0.000 HD
ENDROOT
BRANCH   1   9
ATOM      9  C   UNL     1      36.546  30.733  50.350  0.00  0.00    +0.000 C 
ATOM     10  C   UNL     1      36.476  29.315  50.462  0.00  0.00    +0.000 C 
ATOM     11  C   UNL     1      37.331  30.045  51.490  0.00  0.00    +0.000 C 
ATOM     12  H   UNL     1      35.709  31.383  50.717  0.00  0.00    +0.000 HD
ATOM     13  H   UNL     1      35.583  28.846  50.890  0.00  0.00    +0.000 HD
ATOM     14  H   UNL     1      37.084  28.644  49.807  0.00  0.00    +0.000 HD
ATOM     15  H   UNL     1      36.919  30.198  52.488  0.00  0.00    +0.000 HD
ATOM     16  H   UNL     1      38.416  29.992  51.414  0.00  0.00    +0.000 HD
ENDBRANCH   1   9
BRANCH   5  17
ATOM     17  C   UNL     1      38.994  30.703  46.131  0.00  0.00    +0.000 C 
ATOM     18  H   UNL     1      38.563  31.138  45.223  0.00  0.00    +0.000 HD
ATOM     19  H   UNL     1      38.744  29.635  46.202  0.00  0.00    +0.000 HD
BRANCH  17  22
ATOM     20  C   UNL     1      41.053  31.577  45.018  0.00  0.00    +0.000 C 
ATOM     21  O   UNL     1      40.407  32.264  44.153  0.00  0.00    +0.000 OA
ATOM     22  N   UNL     1      40.441  30.771  46.010  0.00  0.00    +0.000 N 
ATOM     23  H   UNL     1      41.015  30.206  46.679  0.00  0.00    +0.000 HD
BRANCH  20  24
ATOM     24  C   UNL     1      42.535  31.660  44.937  0.00  0.00    +0.000 C 
ATOM     25  C   UNL     1      43.235  32.952  45.228  0.00  0.00    +0.000 C 
ATOM     26  C   UNL     1      43.332  31.839  46.202  0.00  0.00    +0.000 C 
ENDBRANCH  20  24
ENDBRANCH  17  22
ENDBRANCH   5  17
TORSDOF 4
