
 OpenBabel03262521523D

 16 17  0  0  0  0  0  0  0  0999 V2000
   39.5740   23.0080   36.9480 C   0  0  0  0  0  0  0  0  0  0  0  0
   39.7460   23.0300   35.5600 C   0  0  0  0  0  0  0  0  0  0  0  0
   40.8410   22.2870   35.0600 C   0  0  0  0  0  0  0  0  0  0  0  0
   41.6460   21.6130   35.9170 N   0  0  0  0  0  0  0  0  0  0  0  0
   41.4210   21.6360   37.2440 C   0  0  0  0  0  0  0  0  0  0  0  0
   40.3980   22.3270   37.7300 N   0  0  0  0  0  0  0  0  0  0  0  0
   39.1650   23.5310   34.8140 H   0  0  0  0  0  0  0  0  0  0  0  0
   41.0290   22.2650   33.9760 H   0  0  0  0  0  0  0  0  0  0  0  0
   42.0600   21.1000   37.9180 H   0  0  0  0  0  0  0  0  0  0  0  0
   38.1600   23.9850   37.4490 S   0  0  0  0  0  0  0  0  0  0  0  0
   37.8050   25.1260   36.0980 C   0  0  0  0  0  0  0  0  0  0  0  0
   38.2650   24.6790   35.1910 H   0  0  0  0  0  0  0  0  0  0  0  0
   36.7140   25.2080   35.8930 H   0  0  0  0  0  0  0  0  0  0  0  0
   38.3790   26.4840   36.3200 C   0  0  0  0  0  3  0  0  0  0  0  0
   39.2850   27.0910   35.2950 C   0  0  0  0  0  2  0  0  0  0  0  0
   37.8790   27.5620   35.3800 C   0  0  0  0  0  2  0  0  0  0  0  0
  1 10  1  0  0  0  0
  1  6  1  0  0  0  0
  2  1  2  0  0  0  0
  3  2  1  0  0  0  0
  3  4  2  0  0  0  0
  4  5  1  0  0  0  0
  5  6  2  0  0  0  0
  5  9  1  0  0  0  0
  7  2  1  0  0  0  0
  8  3  1  0  0  0  0
 11 14  1  0  0  0  0
 11 10  1  0  0  0  0
 12 11  1  0  0  0  0
 13 11  1  0  0  0  0
 15 16  1  0  0  0  0
 15 14  1  0  0  0  0
 16 14  1  0  0  0  0
M  END
>  <minimizedAffinity>
-3.47453094

$$$$

 OpenBabel03262521523D

 16 17  0  0  0  0  0  0  0  0999 V2000
   38.4380   23.5060   36.0770 C   0  0  0  0  0  0  0  0  0  0  0  0
   39.5800   22.8060   36.4770 C   0  0  0  0  0  0  0  0  0  0  0  0
   39.8220   22.7630   37.8700 C   0  0  0  0  0  0  0  0  0  0  0  0
   38.9670   23.3790   38.7230 N   0  0  0  0  0  0  0  0  0  0  0  0
   37.8850   24.0360   38.2670 C   0  0  0  0  0  0  0  0  0  0  0  0
   37.6430   24.0860   36.9630 N   0  0  0  0  0  0  0  0  0  0  0  0
   40.3040   22.2940   35.8800 H   0  0  0  0  0  0  0  0  0  0  0  0
   40.7050   22.2270   38.2490 H   0  0  0  0  0  0  0  0  0  0  0  0
   37.2110   24.5210   38.9450 H   0  0  0  0  0  0  0  0  0  0  0  0
   38.2480   23.4860   34.2960 S   0  0  0  0  0  0  0  0  0  0  0  0
   38.7660   25.1060   33.6960 C   0  0  0  0  0  0  0  0  0  0  0  0
   39.2170   24.9320   32.6950 H   0  0  0  0  0  0  0  0  0  0  0  0
   37.9040   25.7920   33.5410 H   0  0  0  0  0  0  0  0  0  0  0  0
   39.7760   25.7580   34.5790 C   0  0  0  0  0  3  0  0  0  0  0  0
   40.3810   27.0680   34.1860 C   0  0  0  0  0  2  0  0  0  0  0  0
   39.3280   27.0480   35.2340 C   0  0  0  0  0  2  0  0  0  0  0  0
  1  2  2  0  0  0  0
  1  6  1  0  0  0  0
  2  3  1  0  0  0  0
  3  8  1  0  0  0  0
  3  4  2  0  0  0  0
  5  4  1  0  0  0  0
  5  9  1  0  0  0  0
  6  5  2  0  0  0  0
  7  2  1  0  0  0  0
 10  1  1  0  0  0  0
 11 10  1  0  0  0  0
 11 14  1  0  0  0  0
 12 11  1  0  0  0  0
 13 11  1  0  0  0  0
 14 16  1  0  0  0  0
 15 14  1  0  0  0  0
 15 16  1  0  0  0  0
M  END
>  <minimizedAffinity>
-3.39214253

$$$$

 OpenBabel03262521523D

 16 17  0  0  0  0  0  0  0  0999 V2000
   38.6230   22.5080   35.7870 C   0  0  0  0  0  0  0  0  0  0  0  0
   39.9030   22.2470   36.2850 C   0  0  0  0  0  0  0  0  0  0  0  0
   40.1330   22.6220   37.6290 C   0  0  0  0  0  0  0  0  0  0  0  0
   39.1380   23.1960   38.3480 N   0  0  0  0  0  0  0  0  0  0  0  0
   37.9270   23.4170   37.8050 C   0  0  0  0  0  0  0  0  0  0  0  0
   37.6950   23.0720   36.5450 N   0  0  0  0  0  0  0  0  0  0  0  0
   40.7430   21.8020   35.7930 H   0  0  0  0  0  0  0  0  0  0  0  0
   41.1220   22.4430   38.0790 H   0  0  0  0  0  0  0  0  0  0  0  0
   37.1430   23.8710   38.3780 H   0  0  0  0  0  0  0  0  0  0  0  0
   38.4650   21.9890   34.0810 S   0  0  0  0  0  0  0  0  0  0  0  0
   36.7680   21.4220   33.8600 C   0  0  0  0  0  0  0  0  0  0  0  0
   36.6780   20.4850   34.4500 H   0  0  0  0  0  0  0  0  0  0  0  0
   36.0280   22.1360   34.2840 H   0  0  0  0  0  0  0  0  0  0  0  0
   36.4320   21.1350   32.4350 C   0  0  0  0  0  3  0  0  0  0  0  0
   35.0310   20.7760   32.0530 C   0  0  0  0  0  2  0  0  0  0  0  0
   35.5250   22.1470   31.7650 C   0  0  0  0  0  2  0  0  0  0  0  0
  1  2  2  0  0  0  0
  1  6  1  0  0  0  0
  2  3  1  0  0  0  0
  3  8  1  0  0  0  0
  3  4  2  0  0  0  0
  5  4  1  0  0  0  0
  5  9  1  0  0  0  0
  6  5  2  0  0  0  0
  7  2  1  0  0  0  0
 10  1  1  0  0  0  0
 11 10  1  0  0  0  0
 11 13  1  0  0  0  0
 11 12  1  0  0  0  0
 14 11  1  0  0  0  0
 15 14  1  0  0  0  0
 16 15  1  0  0  0  0
 16 14  1  0  0  0  0
M  END
>  <minimizedAffinity>
-3.38545012

$$$$

 OpenBabel03262521523D

 16 17  0  0  0  0  0  0  0  0999 V2000
   37.2420   26.3040   33.8080 C   0  0  0  0  0  0  0  0  0  0  0  0
   36.9630   27.3110   34.7370 C   0  0  0  0  0  0  0  0  0  0  0  0
   36.2390   28.4230   34.2460 C   0  0  0  0  0  0  0  0  0  0  0  0
   35.8620   28.4610   32.9450 N   0  0  0  0  0  0  0  0  0  0  0  0
   36.1660   27.4550   32.1050 C   0  0  0  0  0  0  0  0  0  0  0  0
   36.8440   26.4040   32.5480 N   0  0  0  0  0  0  0  0  0  0  0  0
   37.2190   27.3640   35.7750 H   0  0  0  0  0  0  0  0  0  0  0  0
   35.9880   29.2480   34.9300 H   0  0  0  0  0  0  0  0  0  0  0  0
   35.8650   27.4890   31.0760 H   0  0  0  0  0  0  0  0  0  0  0  0
   38.1610   24.9610   34.5530 S   0  0  0  0  0  0  0  0  0  0  0  0
   38.2640   25.3110   36.3190 C   0  0  0  0  0  0  0  0  0  0  0  0
   39.3380   25.5010   36.5320 H   0  0  0  0  0  0  0  0  0  0  0  0
   37.7160   26.2400   36.5950 H   0  0  0  0  0  0  0  0  0  0  0  0
   37.7910   24.1770   37.1650 C   0  0  0  0  0  3  0  0  0  0  0  0
   38.7780   23.3390   37.9140 C   0  0  0  0  0  2  0  0  0  0  0  0
   37.9880   24.3540   38.6560 C   0  0  0  0  0  2  0  0  0  0  0  0
  1 10  1  0  0  0  0
  1  2  1  0  0  0  0
  2  7  1  0  0  0  0
  3  2  2  0  0  0  0
  3  8  1  0  0  0  0
  4  3  1  0  0  0  0
  5  6  1  0  0  0  0
  5  4  2  0  0  0  0
  6  1  2  0  0  0  0
  9  5  1  0  0  0  0
 10 11  1  0  0  0  0
 11 12  1  0  0  0  0
 11 13  1  0  0  0  0
 11 14  1  0  0  0  0
 14 15  1  0  0  0  0
 14 16  1  0  0  0  0
 15 16  1  0  0  0  0
M  END
>  <minimizedAffinity>
-3.38393497

$$$$

 OpenBabel03262521523D

 16 17  0  0  0  0  0  0  0  0999 V2000
   38.8600   23.9950   36.0170 C   0  0  0  0  0  0  0  0  0  0  0  0
   37.8940   24.5660   36.8510 C   0  0  0  0  0  0  0  0  0  0  0  0
   37.9560   24.1960   38.2140 C   0  0  0  0  0  0  0  0  0  0  0  0
   38.9150   23.3360   38.6360 N   0  0  0  0  0  0  0  0  0  0  0  0
   39.8150   22.8240   37.7770 C   0  0  0  0  0  0  0  0  0  0  0  0
   39.7720   23.1610   36.4950 N   0  0  0  0  0  0  0  0  0  0  0  0
   37.1060   25.2480   36.6060 H   0  0  0  0  0  0  0  0  0  0  0  0
   37.2220   24.6110   38.9210 H   0  0  0  0  0  0  0  0  0  0  0  0
   40.5730   22.1450   38.1160 H   0  0  0  0  0  0  0  0  0  0  0  0
   38.6700   24.5430   34.3230 S   0  0  0  0  0  0  0  0  0  0  0  0
   38.9100   26.3300   34.3180 C   0  0  0  0  0  0  0  0  0  0  0  0
   38.8200   26.6490   33.2580 H   0  0  0  0  0  0  0  0  0  0  0  0
   38.1110   26.8620   34.8790 H   0  0  0  0  0  0  0  0  0  0  0  0
   40.2480   26.7370   34.8390 C   0  0  0  0  0  3  0  0  0  0  0  0
   41.4680   25.9590   34.4600 C   0  0  0  0  0  2  0  0  0  0  0  0
   41.2150   27.2660   33.7990 C   0  0  0  0  0  2  0  0  0  0  0  0
  1  6  2  0  0  0  0
  1  2  1  0  0  0  0
  2  3  2  0  0  0  0
  3  4  1  0  0  0  0
  3  8  1  0  0  0  0
  5  9  1  0  0  0  0
  5  4  2  0  0  0  0
  6  5  1  0  0  0  0
  7  2  1  0  0  0  0
 10  1  1  0  0  0  0
 11 10  1  0  0  0  0
 11 14  1  0  0  0  0
 11 13  1  0  0  0  0
 12 11  1  0  0  0  0
 15 14  1  0  0  0  0
 16 15  1  0  0  0  0
 16 14  1  0  0  0  0
M  END
>  <minimizedAffinity>
-3.36055636

$$$$

 OpenBabel03262521523D

 16 17  0  0  0  0  0  0  0  0999 V2000
   37.3250   22.1240   33.7520 C   0  0  0  0  0  0  0  0  0  0  0  0
   36.3730   21.1170   33.9400 C   0  0  0  0  0  0  0  0  0  0  0  0
   35.4150   20.9710   32.9100 C   0  0  0  0  0  0  0  0  0  0  0  0
   35.4610   21.7840   31.8260 N   0  0  0  0  0  0  0  0  0  0  0  0
   36.4070   22.7340   31.7100 C   0  0  0  0  0  0  0  0  0  0  0  0
   37.3140   22.8840   32.6670 N   0  0  0  0  0  0  0  0  0  0  0  0
   36.2620   20.4350   34.7560 H   0  0  0  0  0  0  0  0  0  0  0  0
   34.6390   20.1960   32.9990 H   0  0  0  0  0  0  0  0  0  0  0  0
   36.4400   23.3740   30.8510 H   0  0  0  0  0  0  0  0  0  0  0  0
   38.4730   22.2050   35.1230 S   0  0  0  0  0  0  0  0  0  0  0  0
   38.0330   23.6610   36.0920 C   0  0  0  0  0  0  0  0  0  0  0  0
   38.9200   24.3290   36.0620 H   0  0  0  0  0  0  0  0  0  0  0  0
   37.1920   24.2290   35.6360 H   0  0  0  0  0  0  0  0  0  0  0  0
   37.7120   23.3380   37.5120 C   0  0  0  0  0  3  0  0  0  0  0  0
   38.8030   23.2910   38.5350 C   0  0  0  0  0  2  0  0  0  0  0  0
   37.9050   24.4740   38.4950 C   0  0  0  0  0  2  0  0  0  0  0  0
  1  2  1  0  0  0  0
  1 10  1  0  0  0  0
  2  7  1  0  0  0  0
  3  8  1  0  0  0  0
  3  2  2  0  0  0  0
  4  3  1  0  0  0  0
  5  4  2  0  0  0  0
  5  6  1  0  0  0  0
  6  1  2  0  0  0  0
  9  5  1  0  0  0  0
 10 11  1  0  0  0  0
 11 14  1  0  0  0  0
 12 11  1  0  0  0  0
 13 11  1  0  0  0  0
 14 16  1  0  0  0  0
 14 15  1  0  0  0  0
 16 15  1  0  0  0  0
M  END
>  <minimizedAffinity>
-3.32341552

$$$$

 OpenBabel03262521523D

 16 17  0  0  0  0  0  0  0  0999 V2000
   38.9720   24.2370   35.9840 C   0  0  0  0  0  0  0  0  0  0  0  0
   39.9070   23.2750   36.3790 C   0  0  0  0  0  0  0  0  0  0  0  0
   39.7980   22.8180   37.7130 C   0  0  0  0  0  0  0  0  0  0  0  0
   38.8270   23.3140   38.5190 N   0  0  0  0  0  0  0  0  0  0  0  0
   37.9590   24.2390   38.0720 C   0  0  0  0  0  0  0  0  0  0  0  0
   38.0470   24.6790   36.8230 N   0  0  0  0  0  0  0  0  0  0  0  0
   40.7000   22.8310   35.8160 H   0  0  0  0  0  0  0  0  0  0  0  0
   40.5050   22.0600   38.0840 H   0  0  0  0  0  0  0  0  0  0  0  0
   37.1930   24.6280   38.7120 H   0  0  0  0  0  0  0  0  0  0  0  0
   39.2200   24.7310   34.2810 S   0  0  0  0  0  0  0  0  0  0  0  0
   37.7130   25.5680   33.7520 C   0  0  0  0  0  0  0  0  0  0  0  0
   37.5170   25.2220   32.7150 H   0  0  0  0  0  0  0  0  0  0  0  0
   36.8300   25.2660   34.3590 H   0  0  0  0  0  0  0  0  0  0  0  0
   37.8420   27.0540   33.7560 C   0  0  0  0  0  3  0  0  0  0  0  0
   36.7000   27.9060   33.2990 C   0  0  0  0  0  2  0  0  0  0  0  0
   36.9640   27.7790   34.7550 C   0  0  0  0  0  2  0  0  0  0  0  0
  1  2  2  0  0  0  0
  1  6  1  0  0  0  0
  2  3  1  0  0  0  0
  3  8  1  0  0  0  0
  3  4  2  0  0  0  0
  5  4  1  0  0  0  0
  5  9  1  0  0  0  0
  6  5  2  0  0  0  0
  7  2  1  0  0  0  0
 10  1  1  0  0  0  0
 11 14  1  0  0  0  0
 11 10  1  0  0  0  0
 11 13  1  0  0  0  0
 12 11  1  0  0  0  0
 14 16  1  0  0  0  0
 15 14  1  0  0  0  0
 15 16  1  0  0  0  0
M  END
>  <minimizedAffinity>
-3.30788636

$$$$

 OpenBabel03262521523D

 16 17  0  0  0  0  0  0  0  0999 V2000
   38.2280   25.0070   35.8650 C   0  0  0  0  0  0  0  0  0  0  0  0
   38.3300   26.2830   36.4260 C   0  0  0  0  0  0  0  0  0  0  0  0
   38.7420   27.3140   35.5490 C   0  0  0  0  0  0  0  0  0  0  0  0
   39.0100   27.0270   34.2510 N   0  0  0  0  0  0  0  0  0  0  0  0
   38.8900   25.7740   33.7780 C   0  0  0  0  0  0  0  0  0  0  0  0
   38.5040   24.7950   34.5870 N   0  0  0  0  0  0  0  0  0  0  0  0
   38.1400   26.5980   37.4300 H   0  0  0  0  0  0  0  0  0  0  0  0
   38.8410   28.3410   35.9300 H   0  0  0  0  0  0  0  0  0  0  0  0
   39.1020   25.5520   32.7500 H   0  0  0  0  0  0  0  0  0  0  0  0
   37.7010   23.7990   37.0770 S   0  0  0  0  0  0  0  0  0  0  0  0
   39.1940   23.1270   37.8320 C   0  0  0  0  0  0  0  0  0  0  0  0
   39.7370   23.9950   38.2620 H   0  0  0  0  0  0  0  0  0  0  0  0
   38.9650   22.4440   38.6800 H   0  0  0  0  0  0  0  0  0  0  0  0
   40.0800   22.4340   36.8510 C   0  0  0  0  0  3  0  0  0  0  0  0
   41.4910   22.8930   36.6620 C   0  0  0  0  0  2  0  0  0  0  0  0
   41.2350   21.6610   37.4540 C   0  0  0  0  0  2  0  0  0  0  0  0
  1  2  1  0  0  0  0
  1 10  1  0  0  0  0
  2  7  1  0  0  0  0
  3  8  1  0  0  0  0
  3  2  2  0  0  0  0
  4  3  1  0  0  0  0
  5  4  2  0  0  0  0
  5  6  1  0  0  0  0
  6  1  2  0  0  0  0
  9  5  1  0  0  0  0
 10 11  1  0  0  0  0
 11 12  1  0  0  0  0
 11 13  1  0  0  0  0
 14 16  1  0  0  0  0
 14 11  1  0  0  0  0
 15 14  1  0  0  0  0
 15 16  1  0  0  0  0
M  END
>  <minimizedAffinity>
-3.29843473

$$$$

 OpenBabel03262521523D

 16 17  0  0  0  0  0  0  0  0999 V2000
   36.5450   24.1320   32.0340 C   0  0  0  0  0  0  0  0  0  0  0  0
   37.1330   25.3060   32.5140 C   0  0  0  0  0  0  0  0  0  0  0  0
   36.5360   26.5160   32.0890 C   0  0  0  0  0  0  0  0  0  0  0  0
   35.4600   26.4840   31.2660 N   0  0  0  0  0  0  0  0  0  0  0  0
   34.9440   25.3160   30.8430 C   0  0  0  0  0  0  0  0  0  0  0  0
   35.4910   24.1720   31.2320 N   0  0  0  0  0  0  0  0  0  0  0  0
   37.9770   25.4250   33.1610 H   0  0  0  0  0  0  0  0  0  0  0  0
   36.9540   27.4750   32.4330 H   0  0  0  0  0  0  0  0  0  0  0  0
   34.0920   25.2960   30.1920 H   0  0  0  0  0  0  0  0  0  0  0  0
   37.3930   22.6780   32.6430 S   0  0  0  0  0  0  0  0  0  0  0  0
   36.6120   21.2510   31.8650 C   0  0  0  0  0  0  0  0  0  0  0  0
   36.3030   21.5850   30.8510 H   0  0  0  0  0  0  0  0  0  0  0  0
   37.3250   20.4100   31.7180 H   0  0  0  0  0  0  0  0  0  0  0  0
   35.4110   20.7690   32.6070 C   0  0  0  0  0  3  0  0  0  0  0  0
   34.5450   19.7010   32.0190 C   0  0  0  0  0  2  0  0  0  0  0  0
   35.4880   19.3420   33.1090 C   0  0  0  0  0  2  0  0  0  0  0  0
  1  2  1  0  0  0  0
  1 10  1  0  0  0  0
  2  7  1  0  0  0  0
  3  8  1  0  0  0  0
  3  2  2  0  0  0  0
  4  3  1  0  0  0  0
  5  6  1  0  0  0  0
  5  4  2  0  0  0  0
  6  1  2  0  0  0  0
  9  5  1  0  0  0  0
 11 14  1  0  0  0  0
 11 10  1  0  0  0  0
 12 11  1  0  0  0  0
 13 11  1  0  0  0  0
 14 16  1  0  0  0  0
 15 14  1  0  0  0  0
 15 16  1  0  0  0  0
M  END
>  <minimizedAffinity>
-3.21915746

$$$$
