
 OpenBabel03272509573D

 40 43  0  0  0  0  0  0  0  0999 V2000
   34.9920   28.3540   49.4530 O   0  0  0  0  0  0  0  0  0  0  0  0
   37.3320   30.1770   51.5250 C   0  0  0  0  0  0  0  0  0  0  0  0
   38.0580   30.8610   50.5220 C   0  0  0  0  0  0  0  0  0  0  0  0
   37.6980   30.6540   49.2010 C   0  0  0  0  0  0  0  0  0  0  0  0
   36.6540   29.7890   48.9860 N   0  0  0  0  0  0  0  0  0  0  0  0
   35.9840   29.1540   49.9430 C   0  0  0  0  0  0  0  0  0  0  0  0
   36.3360   29.3580   51.2300 N   0  0  0  0  0  0  0  0  0  0  0  0
   37.6320   30.3570   52.5500 H   0  0  0  0  0  0  0  0  0  0  0  0
   38.8760   31.5380   50.7060 H   0  0  0  0  0  0  0  0  0  0  0  0
   38.9520   33.2590   49.0190 F   0  0  0  0  0  0  0  0  0  0  0  0
   38.9130   32.4810   47.9550 C   0  0  0  0  0  0  0  0  0  0  0  0
   38.3240   31.2640   48.0490 C   0  0  0  0  0  0  0  0  0  0  0  0
   38.3340   30.5210   46.8720 C   0  0  0  0  0  0  0  0  0  0  0  0
   38.9020   30.9990   45.7110 C   0  0  0  0  0  0  0  0  0  0  0  0
   39.4860   32.2370   45.6610 C   0  0  0  0  0  0  0  0  0  0  0  0
   39.4870   32.9790   46.8030 C   0  0  0  0  0  0  0  0  0  0  0  0
   37.9010   29.5320   46.7980 H   0  0  0  0  0  0  0  0  0  0  0  0
   38.9030   30.4100   44.8000 H   0  0  0  0  0  0  0  0  0  0  0  0
   39.9430   32.6390   44.7560 H   0  0  0  0  0  0  0  0  0  0  0  0
   39.9440   33.9550   46.7740 H   0  0  0  0  0  0  0  0  0  0  0  0
   34.4300   28.6470   48.1850 C   0  0  0  0  0  0  0  0  0  0  0  0
   33.8150   29.5510   48.2800 H   0  0  0  0  0  0  0  0  0  0  0  0
   35.2700   28.7440   47.4530 H   0  0  0  0  0  0  0  0  0  0  0  0
   33.5570   27.5200   47.7070 C   0  0  0  0  0  0  0  0  0  0  0  0
   33.8040   27.2120   46.6610 H   0  0  0  0  0  0  0  0  0  0  0  0
   33.7370   26.6340   48.3230 H   0  0  0  0  0  0  0  0  0  0  0  0
   32.1070   27.8810   47.7630 C   0  0  0  0  0  0  0  0  0  0  0  0
   31.3860   27.4680   48.8660 C   0  0  0  0  0  0  0  0  0  0  0  0
   30.0530   27.7440   49.0160 C   0  0  0  0  0  0  0  0  0  0  0  0
   29.4270   28.4340   48.0730 N   0  0  0  0  0  0  0  0  0  0  0  0
   30.1380   28.8390   46.9920 C   0  0  0  0  0  0  0  0  0  0  0  0
   31.4490   28.5770   46.8220 N   0  0  0  0  0  0  0  0  0  0  0  0
   31.8880   26.9030   49.6420 H   0  0  0  0  0  0  0  0  0  0  0  0
   29.5460   27.3810   49.9220 H   0  0  0  0  0  0  0  0  0  0  0  0
   29.4170   29.6200   45.9280 C   0  0  0  0  0  0  0  0  0  0  0  0
   28.9210   30.5100   46.3900 H   0  0  0  0  0  0  0  0  0  0  0  0
   28.6280   28.9790   45.4550 H   0  0  0  0  0  0  0  0  0  0  0  0
   30.3400   30.0750   44.8470 C   0  0  0  0  0  3  0  0  0  0  0  0
   29.6200   30.8730   43.7400 C   0  0  0  0  0  2  0  0  0  0  0  0
   30.6760   31.4840   44.6050 C   0  0  0  0  0  2  0  0  0  0  0  0
  1  6  1  0  0  0  0
  2  8  1  0  0  0  0
  3  9  1  0  0  0  0
  3  2  2  0  0  0  0
  4  3  1  0  0  0  0
  5  4  2  0  0  0  0
  5  6  1  0  0  0  0
  6  7  2  0  0  0  0
  7  2  1  0  0  0  0
 11 12  1  0  0  0  0
 11 10  1  0  0  0  0
 12  4  1  0  0  0  0
 13 12  2  0  0  0  0
 14 13  1  0  0  0  0
 15 14  2  0  0  0  0
 15 16  1  0  0  0  0
 16 11  2  0  0  0  0
 17 13  1  0  0  0  0
 18 14  1  0  0  0  0
 19 15  1  0  0  0  0
 20 16  1  0  0  0  0
 21 22  1  0  0  0  0
 21  1  1  0  0  0  0
 23 21  1  0  0  0  0
 24 27  1  0  0  0  0
 24 21  1  0  0  0  0
 24 26  1  0  0  0  0
 25 24  1  0  0  0  0
 27 28  1  0  0  0  0
 28 29  2  0  0  0  0
 28 33  1  0  0  0  0
 29 34  1  0  0  0  0
 30 29  1  0  0  0  0
 31 30  2  0  0  0  0
 32 31  1  0  0  0  0
 32 27  2  0  0  0  0
 35 36  1  0  0  0  0
 35 31  1  0  0  0  0
 37 35  1  0  0  0  0
 38 35  1  0  0  0  0
 39 40  1  0  0  0  0
 39 38  1  0  0  0  0
 40 38  1  0  0  0  0
M  END
>  <minimizedAffinity>
-6.09340239

>  <minimizedRMSD>
0.0602950677

$$$$
