
 OpenBabel03272509443D

 32 34  0  0  1  0  0  0  0  0999 V2000
   36.6610   28.5390   32.3530 C   0  0  0  0  0  0  0  0  0  0  0  0
   36.1310   29.6130   31.6360 C   0  0  0  0  0  0  0  0  0  0  0  0
   35.4220   30.6310   32.2580 C   0  0  0  0  0  0  0  0  0  0  0  0
   35.2310   30.5840   33.6420 C   0  0  0  0  0  0  0  0  0  0  0  0
   35.7550   29.5290   34.3290 C   0  0  0  0  0  0  0  0  0  0  0  0
   36.4580   28.5280   33.6740 C   0  0  0  0  0  0  0  0  0  0  0  0
   36.2980   29.6200   30.5550 H   0  0  0  0  0  0  0  0  0  0  0  0
   35.0660   31.4000   31.5920 H   0  0  0  0  0  0  0  0  0  0  0  0
   34.6730   31.4110   34.0360 H   0  0  0  0  0  0  0  0  0  0  0  0
   35.5220   29.6320   35.3900 H   0  0  0  0  0  0  0  0  0  0  0  0
   37.3710   27.4630   31.6950 C   0  0  2  0  0  0  0  0  0  0  0  0
   37.2880   27.6970   30.5640 H   0  0  0  0  0  0  0  0  0  0  0  0
   37.0070   23.8500   31.8280 C   0  0  0  0  0  0  0  0  0  0  0  0
   35.7140   23.6280   31.3910 C   0  0  0  0  0  0  0  0  0  0  0  0
   34.9680   24.7170   30.9840 C   0  0  0  0  0  0  0  0  0  0  0  0
   35.5300   25.9750   31.0270 N   0  0  0  0  0  0  0  0  0  0  0  0
   36.7670   26.1210   31.4560 C   0  0  0  0  0  0  0  0  0  0  0  0
   37.5130   25.0670   31.8560 N   0  0  0  0  0  0  0  0  0  0  0  0
   37.6250   23.0130   32.1570 H   0  0  0  0  0  0  0  0  0  0  0  0
   35.3640   22.6090   31.3960 H   0  0  0  0  0  0  0  0  0  0  0  0
   33.9570   24.5490   30.6400 H   0  0  0  0  0  0  0  0  0  0  0  0
   38.6480   27.5890   31.7790 O   0  0  0  0  0  0  0  0  0  0  0  0
   39.1900   27.3050   32.5340 H   0  0  0  0  0  0  0  0  0  0  0  0
   36.9290   27.4550   34.5190 C   0  0  0  0  0  3  0  0  0  0  0  0
   37.8910   27.5990   35.4360 C   0  0  0  0  0  3  0  0  0  0  0  0
   38.4210   26.5860   36.3780 C   0  0  0  0  0  0  0  0  0  0  0  0
   37.9820   26.6900   37.4020 H   0  0  0  0  0  0  0  0  0  0  0  0
   39.5200   26.6480   36.4890 H   0  0  0  0  0  0  0  0  0  0  0  0
   38.0240   24.9390   35.7830 S   0  0  0  0  0  0  0  0  0  0  0  0
   37.6800   23.8380   37.2040 C   0  0  0  0  0  3  0  0  0  0  0  0
   37.9750   24.4080   38.5390 C   0  0  0  0  0  2  0  0  0  0  0  0
   38.8250   23.3170   37.9920 C   0  0  0  0  0  2  0  0  0  0  0  0
  1  6  1  0  0  0  0
  2  3  1  0  0  0  0
  2  1  2  0  0  0  0
  3  4  2  0  0  0  0
  4  9  1  0  0  0  0
  4  5  1  0  0  0  0
  5 10  1  0  0  0  0
  6  5  2  0  0  0  0
  6 24  1  0  0  0  0
  7  2  1  0  0  0  0
  8  3  1  0  0  0  0
 11 12  1  6  0  0  0
 11 22  1  0  0  0  0
 11  1  1  0  0  0  0
 13 18  1  0  0  0  0
 13 19  1  0  0  0  0
 14 20  1  0  0  0  0
 14 13  2  0  0  0  0
 15 16  2  0  0  0  0
 15 14  1  0  0  0  0
 16 17  1  0  0  0  0
 17 11  1  0  0  0  0
 17 18  2  0  0  0  0
 21 15  1  0  0  0  0
 22 23  1  0  0  0  0
 24 25  2  0  0  0  0
 25 26  1  0  0  0  0
 26 28  1  0  0  0  0
 26 27  1  0  0  0  0
 29 26  1  0  0  0  0
 29 30  1  0  0  0  0
 30 32  1  0  0  0  0
 30 31  1  0  0  0  0
 32 31  1  0  0  0  0
M  END
>  <minimizedAffinity>
-5.4402771

$$$$

 OpenBabel03272509443D

 32 34  0  0  1  0  0  0  0  0999 V2000
   38.9790   26.9180   33.2290 C   0  0  0  0  0  0  0  0  0  0  0  0
   39.8560   27.3230   32.2220 C   0  0  0  0  0  0  0  0  0  0  0  0
   41.2260   27.3990   32.4310 C   0  0  0  0  0  0  0  0  0  0  0  0
   41.7470   27.0610   33.6820 C   0  0  0  0  0  0  0  0  0  0  0  0
   40.8780   26.6670   34.6570 C   0  0  0  0  0  0  0  0  0  0  0  0
   39.5130   26.6030   34.4140 C   0  0  0  0  0  0  0  0  0  0  0  0
   39.4170   27.5810   31.2550 H   0  0  0  0  0  0  0  0  0  0  0  0
   41.7910   27.7260   31.5730 H   0  0  0  0  0  0  0  0  0  0  0  0
   42.8130   27.1490   33.7520 H   0  0  0  0  0  0  0  0  0  0  0  0
   41.4300   26.4400   35.5700 H   0  0  0  0  0  0  0  0  0  0  0  0
   37.5480   26.8730   33.0170 C   0  0  2  0  0  0  0  0  0  0  0  0
   37.1110   26.4660   34.0090 H   0  0  0  0  0  0  0  0  0  0  0  0
   36.6860   23.4750   32.0600 C   0  0  0  0  0  0  0  0  0  0  0  0
   35.5690   23.6270   31.2590 C   0  0  0  0  0  0  0  0  0  0  0  0
   35.1320   24.9090   30.9860 C   0  0  0  0  0  0  0  0  0  0  0  0
   35.8160   25.9820   31.5160 N   0  0  0  0  0  0  0  0  0  0  0  0
   36.8730   25.7720   32.2730 C   0  0  0  0  0  0  0  0  0  0  0  0
   37.3160   24.5250   32.5500 N   0  0  0  0  0  0  0  0  0  0  0  0
   37.0580   22.4770   32.2960 H   0  0  0  0  0  0  0  0  0  0  0  0
   35.1020   22.7270   30.8950 H   0  0  0  0  0  0  0  0  0  0  0  0
   34.2600   25.0340   30.3590 H   0  0  0  0  0  0  0  0  0  0  0  0
   37.0020   28.0360   33.0810 O   0  0  0  0  0  0  0  0  0  0  0  0
   36.9560   28.6740   32.3490 H   0  0  0  0  0  0  0  0  0  0  0  0
   38.7060   26.2010   35.5420 C   0  0  0  0  0  3  0  0  0  0  0  0
   38.6760   24.9560   36.0290 C   0  0  0  0  0  3  0  0  0  0  0  0
   37.9240   24.4440   37.1970 C   0  0  0  0  0  0  0  0  0  0  0  0
   36.9660   23.9480   36.9000 H   0  0  0  0  0  0  0  0  0  0  0  0
   37.6650   25.2440   37.9160 H   0  0  0  0  0  0  0  0  0  0  0  0
   38.9150   23.2260   38.0690 S   0  0  0  0  0  0  0  0  0  0  0  0
   40.0680   22.4190   36.8990 C   0  0  0  0  0  3  0  0  0  0  0  0
   41.1570   21.6290   37.5180 C   0  0  0  0  0  2  0  0  0  0  0  0
   41.4680   22.9100   36.8310 C   0  0  0  0  0  2  0  0  0  0  0  0
  1  6  1  0  0  0  0
  2  3  1  0  0  0  0
  2  1  2  0  0  0  0
  3  4  2  0  0  0  0
  4  9  1  0  0  0  0
  4  5  1  0  0  0  0
  5 10  1  0  0  0  0
  6  5  2  0  0  0  0
  6 24  1  0  0  0  0
  7  2  1  0  0  0  0
  8  3  1  0  0  0  0
 11 22  1  0  0  0  0
 11  1  1  0  0  0  0
 11 12  1  1  0  0  0
 13 19  1  0  0  0  0
 13 18  1  0  0  0  0
 14 13  2  0  0  0  0
 15 14  1  0  0  0  0
 15 16  2  0  0  0  0
 16 17  1  0  0  0  0
 17 18  2  0  0  0  0
 17 11  1  0  0  0  0
 20 14  1  0  0  0  0
 21 15  1  0  0  0  0
 23 22  1  0  0  0  0
 24 25  2  0  0  0  0
 25 26  1  0  0  0  0
 26 28  1  0  0  0  0
 26 29  1  0  0  0  0
 27 26  1  0  0  0  0
 30 31  1  0  0  0  0
 30 29  1  0  0  0  0
 32 30  1  0  0  0  0
 32 31  1  0  0  0  0
M  END
>  <minimizedAffinity>
-5.23706484

$$$$

 OpenBabel03272509443D

 32 34  0  0  1  0  0  0  0  0999 V2000
   40.0360   26.9350   34.1330 C   0  0  0  0  0  0  0  0  0  0  0  0
   41.4290   26.9490   34.0430 C   0  0  0  0  0  0  0  0  0  0  0  0
   42.0830   27.2060   32.8460 C   0  0  0  0  0  0  0  0  0  0  0  0
   41.3310   27.4590   31.6960 C   0  0  0  0  0  0  0  0  0  0  0  0
   39.9700   27.4410   31.7990 C   0  0  0  0  0  0  0  0  0  0  0  0
   39.3500   27.1800   33.0120 C   0  0  0  0  0  0  0  0  0  0  0  0
   41.9890   26.7480   34.9600 H   0  0  0  0  0  0  0  0  0  0  0  0
   43.1590   27.1880   32.9110 H   0  0  0  0  0  0  0  0  0  0  0  0
   41.9180   27.6470   30.8190 H   0  0  0  0  0  0  0  0  0  0  0  0
   39.5270   27.6520   30.8250 H   0  0  0  0  0  0  0  0  0  0  0  0
   39.3590   26.6320   35.3760 C   0  0  2  0  0  0  0  0  0  0  0  0
   40.2040   26.5360   36.1610 H   0  0  0  0  0  0  0  0  0  0  0  0
   37.5850   24.0370   37.1980 C   0  0  0  0  0  0  0  0  0  0  0  0
   37.6730   22.9310   36.3750 C   0  0  0  0  0  0  0  0  0  0  0  0
   38.3990   23.0450   35.2050 C   0  0  0  0  0  0  0  0  0  0  0  0
   39.0050   24.2450   34.9010 N   0  0  0  0  0  0  0  0  0  0  0  0
   38.8820   25.2640   35.7270 C   0  0  0  0  0  0  0  0  0  0  0  0
   38.1770   25.1710   36.8770 N   0  0  0  0  0  0  0  0  0  0  0  0
   37.0190   23.9820   38.1300 H   0  0  0  0  0  0  0  0  0  0  0  0
   37.1630   22.0380   36.6970 H   0  0  0  0  0  0  0  0  0  0  0  0
   38.4730   22.1820   34.5580 H   0  0  0  0  0  0  0  0  0  0  0  0
   38.7930   27.6640   35.8940 O   0  0  0  0  0  0  0  0  0  0  0  0
   37.9130   28.0020   35.6520 H   0  0  0  0  0  0  0  0  0  0  0  0
   37.9060   27.1610   32.9720 C   0  0  0  0  0  3  0  0  0  0  0  0
   37.1950   27.1000   31.8420 C   0  0  0  0  0  3  0  0  0  0  0  0
   35.7230   27.0340   31.6850 C   0  0  0  0  0  0  0  0  0  0  0  0
   35.3330   27.8360   31.0100 H   0  0  0  0  0  0  0  0  0  0  0  0
   35.1910   27.1330   32.6500 H   0  0  0  0  0  0  0  0  0  0  0  0
   35.2610   25.4530   30.9680 S   0  0  0  0  0  0  0  0  0  0  0  0
   36.2190   24.1130   31.7640 C   0  0  0  0  0  3  0  0  0  0  0  0
   37.2270   23.4510   30.9040 C   0  0  0  0  0  2  0  0  0  0  0  0
   36.0000   22.7170   31.3090 C   0  0  0  0  0  2  0  0  0  0  0  0
  1 11  1  0  0  0  0
  2  1  1  0  0  0  0
  2  7  1  0  0  0  0
  3  8  1  0  0  0  0
  3  2  2  0  0  0  0
  4  5  2  0  0  0  0
  4  3  1  0  0  0  0
  5  6  1  0  0  0  0
  6  1  2  0  0  0  0
  9  4  1  0  0  0  0
 10  5  1  0  0  0  0
 11 17  1  0  0  0  0
 11 22  1  0  0  0  0
 11 12  1  1  0  0  0
 13 19  1  0  0  0  0
 14 20  1  0  0  0  0
 14 13  2  0  0  0  0
 15 14  1  0  0  0  0
 16 15  2  0  0  0  0
 16 17  1  0  0  0  0
 17 18  2  0  0  0  0
 18 13  1  0  0  0  0
 21 15  1  0  0  0  0
 23 22  1  0  0  0  0
 24  6  1  0  0  0  0
 25 24  2  0  0  0  0
 26 25  1  0  0  0  0
 26 28  1  0  0  0  0
 27 26  1  0  0  0  0
 29 26  1  0  0  0  0
 29 30  1  0  0  0  0
 31 32  1  0  0  0  0
 31 30  1  0  0  0  0
 32 30  1  0  0  0  0
M  END
>  <minimizedAffinity>
-5.07645559

$$$$

 OpenBabel03272509443D

 32 34  0  0  1  0  0  0  0  0999 V2000
   36.6640   21.8360   31.8670 C   0  0  0  0  0  0  0  0  0  0  0  0
   35.7500   21.0050   31.2170 C   0  0  0  0  0  0  0  0  0  0  0  0
   35.0300   20.0340   31.8990 C   0  0  0  0  0  0  0  0  0  0  0  0
   35.2210   19.8790   33.2750 C   0  0  0  0  0  0  0  0  0  0  0  0
   36.1190   20.6980   33.8960 C   0  0  0  0  0  0  0  0  0  0  0  0
   36.8220   21.6580   33.1830 C   0  0  0  0  0  0  0  0  0  0  0  0
   35.6230   21.1510   30.1420 H   0  0  0  0  0  0  0  0  0  0  0  0
   34.3580   19.4610   31.2820 H   0  0  0  0  0  0  0  0  0  0  0  0
   34.6240   19.1070   33.7170 H   0  0  0  0  0  0  0  0  0  0  0  0
   36.1590   20.4570   34.9590 H   0  0  0  0  0  0  0  0  0  0  0  0
   37.4380   22.8240   31.1460 C   0  0  2  0  0  0  0  0  0  0  0  0
   38.2630   23.1560   31.8860 H   0  0  0  0  0  0  0  0  0  0  0  0
   35.1820   25.6670   30.9760 C   0  0  0  0  0  0  0  0  0  0  0  0
   36.0200   26.7640   31.0470 C   0  0  0  0  0  0  0  0  0  0  0  0
   37.3830   26.5410   31.0920 C   0  0  0  0  0  0  0  0  0  0  0  0
   37.8560   25.2460   31.0660 N   0  0  0  0  0  0  0  0  0  0  0  0
   37.0050   24.2430   30.9990 C   0  0  0  0  0  0  0  0  0  0  0  0
   35.6690   24.4420   30.9520 N   0  0  0  0  0  0  0  0  0  0  0  0
   34.1000   25.8070   30.9380 H   0  0  0  0  0  0  0  0  0  0  0  0
   35.5560   27.7360   31.0640 H   0  0  0  0  0  0  0  0  0  0  0  0
   38.0440   27.3940   31.1460 H   0  0  0  0  0  0  0  0  0  0  0  0
   38.2230   22.2970   30.2740 O   0  0  0  0  0  0  0  0  0  0  0  0
   37.9670   22.0360   29.3740 H   0  0  0  0  0  0  0  0  0  0  0  0
   37.7610   22.4340   33.9590 C   0  0  0  0  0  3  0  0  0  0  0  0
   37.8800   22.3460   35.2880 C   0  0  0  0  0  3  0  0  0  0  0  0
   38.8290   23.0570   36.1750 C   0  0  0  0  0  0  0  0  0  0  0  0
   39.7220   23.4400   35.6190 H   0  0  0  0  0  0  0  0  0  0  0  0
   39.2080   22.4120   36.9910 H   0  0  0  0  0  0  0  0  0  0  0  0
   38.0130   24.4680   36.9280 S   0  0  0  0  0  0  0  0  0  0  0  0
   37.8300   25.8050   35.6910 C   0  0  0  0  0  3  0  0  0  0  0  0
   39.0330   26.0880   34.8750 C   0  0  0  0  0  2  0  0  0  0  0  0
   38.5810   27.0690   35.8960 C   0  0  0  0  0  2  0  0  0  0  0  0
  1  6  1  0  0  0  0
  2  1  2  0  0  0  0
  2  3  1  0  0  0  0
  3  4  2  0  0  0  0
  4  9  1  0  0  0  0
  4  5  1  0  0  0  0
  5 10  1  0  0  0  0
  6  5  2  0  0  0  0
  6 24  1  0  0  0  0
  7  2  1  0  0  0  0
  8  3  1  0  0  0  0
 11  1  1  0  0  0  0
 11 12  1  1  0  0  0
 13 14  1  0  0  0  0
 14 20  1  0  0  0  0
 14 15  2  0  0  0  0
 15 21  1  0  0  0  0
 16 15  1  0  0  0  0
 17 16  2  0  0  0  0
 17 11  1  0  0  0  0
 18 13  2  0  0  0  0
 18 17  1  0  0  0  0
 19 13  1  0  0  0  0
 22 11  1  0  0  0  0
 23 22  1  0  0  0  0
 24 25  2  0  0  0  0
 25 26  1  0  0  0  0
 26 29  1  0  0  0  0
 26 28  1  0  0  0  0
 27 26  1  0  0  0  0
 30 32  1  0  0  0  0
 30 29  1  0  0  0  0
 31 30  1  0  0  0  0
 31 32  1  0  0  0  0
M  END
>  <minimizedAffinity>
-5.04532814

$$$$

 OpenBabel03272509443D

 32 34  0  0  1  0  0  0  0  0999 V2000
   38.8200   24.3170   35.8710 C   0  0  0  0  0  0  0  0  0  0  0  0
   37.9450   25.3390   36.2450 C   0  0  0  0  0  0  0  0  0  0  0  0
   38.2030   26.6690   35.9460 C   0  0  0  0  0  0  0  0  0  0  0  0
   39.3690   27.0010   35.2510 C   0  0  0  0  0  0  0  0  0  0  0  0
   40.2140   25.9920   34.8910 C   0  0  0  0  0  0  0  0  0  0  0  0
   39.9250   24.6720   35.2070 C   0  0  0  0  0  0  0  0  0  0  0  0
   37.0430   25.0470   36.7880 H   0  0  0  0  0  0  0  0  0  0  0  0
   37.4500   27.3590   36.2920 H   0  0  0  0  0  0  0  0  0  0  0  0
   39.4850   28.0500   35.0640 H   0  0  0  0  0  0  0  0  0  0  0  0
   41.0730   26.4060   34.3610 H   0  0  0  0  0  0  0  0  0  0  0  0
   38.5640   22.9350   36.2140 C   0  0  2  0  0  0  0  0  0  0  0  0
   39.4720   22.3500   35.8000 H   0  0  0  0  0  0  0  0  0  0  0  0
   35.6790   20.8470   35.4900 C   0  0  0  0  0  0  0  0  0  0  0  0
   35.7110   20.6970   34.1160 C   0  0  0  0  0  0  0  0  0  0  0  0
   36.7640   21.2640   33.4230 C   0  0  0  0  0  0  0  0  0  0  0  0
   37.7370   21.9510   34.1170 N   0  0  0  0  0  0  0  0  0  0  0  0
   37.6480   22.0600   35.4270 C   0  0  0  0  0  0  0  0  0  0  0  0
   36.6270   21.5110   36.1220 N   0  0  0  0  0  0  0  0  0  0  0  0
   34.8620   20.4120   36.0690 H   0  0  0  0  0  0  0  0  0  0  0  0
   34.9040   20.1450   33.6640 H   0  0  0  0  0  0  0  0  0  0  0  0
   36.7950   21.1490   32.3490 H   0  0  0  0  0  0  0  0  0  0  0  0
   38.7810   22.6860   37.4570 O   0  0  0  0  0  0  0  0  0  0  0  0
   38.1490   22.8430   38.1790 H   0  0  0  0  0  0  0  0  0  0  0  0
   40.9200   23.7100   34.7940 C   0  0  0  0  0  3  0  0  0  0  0  0
   42.1730   24.0330   34.4590 C   0  0  0  0  0  3  0  0  0  0  0  0
   43.2800   23.1320   34.0640 C   0  0  0  0  0  0  0  0  0  0  0  0
   44.2560   23.4360   34.5190 H   0  0  0  0  0  0  0  0  0  0  0  0
   43.4280   23.1030   32.9670 H   0  0  0  0  0  0  0  0  0  0  0  0
   42.9240   21.4590   34.6120 S   0  0  0  0  0  0  0  0  0  0  0  0
   43.1940   21.3330   36.4180 C   0  0  0  0  0  3  0  0  0  0  0  0
   42.8880   20.0150   37.0180 C   0  0  0  0  0  2  0  0  0  0  0  0
   42.0120   21.1820   37.3030 C   0  0  0  0  0  2  0  0  0  0  0  0
  1 11  1  0  0  0  0
  1  2  1  0  0  0  0
  2  7  1  0  0  0  0
  3  2  2  0  0  0  0
  3  8  1  0  0  0  0
  4  3  1  0  0  0  0
  5  6  1  0  0  0  0
  5  4  2  0  0  0  0
  6  1  2  0  0  0  0
  9  4  1  0  0  0  0
 10  5  1  0  0  0  0
 11 12  1  6  0  0  0
 11 22  1  0  0  0  0
 13 19  1  0  0  0  0
 13 18  1  0  0  0  0
 14 13  2  0  0  0  0
 15 14  1  0  0  0  0
 15 16  2  0  0  0  0
 16 17  1  0  0  0  0
 17 18  2  0  0  0  0
 17 11  1  0  0  0  0
 20 14  1  0  0  0  0
 21 15  1  0  0  0  0
 22 23  1  0  0  0  0
 24  6  1  0  0  0  0
 25 24  2  0  0  0  0
 26 25  1  0  0  0  0
 26 27  1  0  0  0  0
 26 29  1  0  0  0  0
 28 26  1  0  0  0  0
 29 30  1  0  0  0  0
 30 31  1  0  0  0  0
 30 32  1  0  0  0  0
 31 32  1  0  0  0  0
M  END
>  <minimizedAffinity>
-5.02424908

$$$$

 OpenBabel03272509443D

 32 34  0  0  1  0  0  0  0  0999 V2000
   38.3370   27.0940   34.2750 C   0  0  0  0  0  0  0  0  0  0  0  0
   37.0910   27.5660   33.8590 C   0  0  0  0  0  0  0  0  0  0  0  0
   36.8550   27.9510   32.5470 C   0  0  0  0  0  0  0  0  0  0  0  0
   37.8900   27.8670   31.6120 C   0  0  0  0  0  0  0  0  0  0  0  0
   39.1020   27.4030   32.0330 C   0  0  0  0  0  0  0  0  0  0  0  0
   39.3030   27.0270   33.3530 C   0  0  0  0  0  0  0  0  0  0  0  0
   36.3030   27.6210   34.6140 H   0  0  0  0  0  0  0  0  0  0  0  0
   35.8520   28.2970   32.3560 H   0  0  0  0  0  0  0  0  0  0  0  0
   37.6170   28.1850   30.6250 H   0  0  0  0  0  0  0  0  0  0  0  0
   39.8020   27.3970   31.1960 H   0  0  0  0  0  0  0  0  0  0  0  0
   38.5880   26.7250   35.6520 C   0  0  2  0  0  0  0  0  0  0  0  0
   39.7050   26.4240   35.6820 H   0  0  0  0  0  0  0  0  0  0  0  0
   38.0570   23.1320   35.7620 C   0  0  0  0  0  0  0  0  0  0  0  0
   37.8780   22.8620   37.1060 C   0  0  0  0  0  0  0  0  0  0  0  0
   37.8760   23.9240   37.9900 C   0  0  0  0  0  0  0  0  0  0  0  0
   38.0510   25.2040   37.5080 N   0  0  0  0  0  0  0  0  0  0  0  0
   38.2180   25.3960   36.2150 C   0  0  0  0  0  0  0  0  0  0  0  0
   38.2220   24.3690   35.3350 N   0  0  0  0  0  0  0  0  0  0  0  0
   38.0640   22.3170   35.0360 H   0  0  0  0  0  0  0  0  0  0  0  0
   37.7510   21.8290   37.3850 H   0  0  0  0  0  0  0  0  0  0  0  0
   37.7350   23.7190   39.0420 H   0  0  0  0  0  0  0  0  0  0  0  0
   38.6890   27.7470   36.4260 O   0  0  0  0  0  0  0  0  0  0  0  0
   37.9420   28.2210   36.8300 H   0  0  0  0  0  0  0  0  0  0  0  0
   40.6420   26.5860   33.6690 C   0  0  0  0  0  3  0  0  0  0  0  0
   41.7380   27.3190   33.4480 C   0  0  0  0  0  3  0  0  0  0  0  0
   43.1450   26.9860   33.7680 C   0  0  0  0  0  0  0  0  0  0  0  0
   43.4730   27.4270   34.7420 H   0  0  0  0  0  0  0  0  0  0  0  0
   43.8500   27.3480   32.9950 H   0  0  0  0  0  0  0  0  0  0  0  0
   43.3340   25.2040   33.8880 S   0  0  0  0  0  0  0  0  0  0  0  0
   43.0330   24.6690   35.6120 C   0  0  0  0  0  3  0  0  0  0  0  0
   43.4380   23.2800   35.9300 C   0  0  0  0  0  2  0  0  0  0  0  0
   41.9960   23.6360   35.8640 C   0  0  0  0  0  2  0  0  0  0  0  0
  1 11  1  0  0  0  0
  2  1  1  0  0  0  0
  2  7  1  0  0  0  0
  3  2  2  0  0  0  0
  4  5  2  0  0  0  0
  4  3  1  0  0  0  0
  5  6  1  0  0  0  0
  6 24  1  0  0  0  0
  6  1  2  0  0  0  0
  8  3  1  0  0  0  0
  9  4  1  0  0  0  0
 10  5  1  0  0  0  0
 11 12  1  6  0  0  0
 11 17  1  0  0  0  0
 11 22  1  0  0  0  0
 13 14  1  0  0  0  0
 14 20  1  0  0  0  0
 14 15  2  0  0  0  0
 15 21  1  0  0  0  0
 16 15  1  0  0  0  0
 17 16  2  0  0  0  0
 18 13  2  0  0  0  0
 18 17  1  0  0  0  0
 19 13  1  0  0  0  0
 22 23  1  0  0  0  0
 25 24  2  0  0  0  0
 25 26  1  0  0  0  0
 26 29  1  0  0  0  0
 26 27  1  0  0  0  0
 28 26  1  0  0  0  0
 29 30  1  0  0  0  0
 30 32  1  0  0  0  0
 30 31  1  0  0  0  0
 32 31  1  0  0  0  0
M  END
>  <minimizedAffinity>
-5.00238991

$$$$

 OpenBabel03272509443D

 32 34  0  0  1  0  0  0  0  0999 V2000
   36.5610   28.3210   31.8960 C   0  0  0  0  0  0  0  0  0  0  0  0
   35.9100   29.5510   31.9950 C   0  0  0  0  0  0  0  0  0  0  0  0
   35.5300   30.0830   33.2190 C   0  0  0  0  0  0  0  0  0  0  0  0
   35.8060   29.3700   34.3900 C   0  0  0  0  0  0  0  0  0  0  0  0
   36.4430   28.1690   34.2770 C   0  0  0  0  0  0  0  0  0  0  0  0
   36.8070   27.6670   33.0360 C   0  0  0  0  0  0  0  0  0  0  0  0
   35.7080   30.0830   31.0620 H   0  0  0  0  0  0  0  0  0  0  0  0
   35.0350   31.0380   33.1580 H   0  0  0  0  0  0  0  0  0  0  0  0
   35.4780   29.8560   35.2870 H   0  0  0  0  0  0  0  0  0  0  0  0
   36.5850   27.7360   35.2680 H   0  0  0  0  0  0  0  0  0  0  0  0
   36.9240   27.7550   30.6140 C   0  0  2  0  0  0  0  0  0  0  0  0
   37.6040   26.8530   30.8670 H   0  0  0  0  0  0  0  0  0  0  0  0
   38.4470   29.6570   27.9190 C   0  0  0  0  0  0  0  0  0  0  0  0
   39.7900   29.6800   28.2430 C   0  0  0  0  0  0  0  0  0  0  0  0
   40.2020   28.9850   29.3640 C   0  0  0  0  0  0  0  0  0  0  0  0
   39.2690   28.3010   30.1150 N   0  0  0  0  0  0  0  0  0  0  0  0
   38.0020   28.3210   29.7540 C   0  0  0  0  0  0  0  0  0  0  0  0
   37.5820   28.9930   28.6590 N   0  0  0  0  0  0  0  0  0  0  0  0
   38.0870   30.1940   27.0390 H   0  0  0  0  0  0  0  0  0  0  0  0
   40.4410   30.2440   27.5960 H   0  0  0  0  0  0  0  0  0  0  0  0
   41.2520   28.9970   29.6220 H   0  0  0  0  0  0  0  0  0  0  0  0
   35.9680   27.0760   30.0850 O   0  0  0  0  0  0  0  0  0  0  0  0
   35.2380   27.4490   29.5630 H   0  0  0  0  0  0  0  0  0  0  0  0
   37.4460   26.3720   33.0610 C   0  0  0  0  0  3  0  0  0  0  0  0
   37.6710   25.6750   34.1790 C   0  0  0  0  0  3  0  0  0  0  0  0
   38.2760   24.3300   34.3170 C   0  0  0  0  0  0  0  0  0  0  0  0
   38.9250   24.0660   33.4450 H   0  0  0  0  0  0  0  0  0  0  0  0
   37.5140   23.5320   34.4090 H   0  0  0  0  0  0  0  0  0  0  0  0
   39.3010   24.2760   35.7910 S   0  0  0  0  0  0  0  0  0  0  0  0
   38.4440   23.3320   37.1030 C   0  0  0  0  0  3  0  0  0  0  0  0
   37.8450   24.1450   38.1870 C   0  0  0  0  0  2  0  0  0  0  0  0
   39.0400   23.3030   38.4620 C   0  0  0  0  0  2  0  0  0  0  0  0
  1  2  2  0  0  0  0
  1  6  1  0  0  0  0
  2  3  1  0  0  0  0
  3  4  2  0  0  0  0
  4  9  1  0  0  0  0
  5  4  1  0  0  0  0
  5 10  1  0  0  0  0
  6 24  1  0  0  0  0
  6  5  2  0  0  0  0
  7  2  1  0  0  0  0
  8  3  1  0  0  0  0
 11 12  1  1  0  0  0
 11  1  1  0  0  0  0
 13 14  2  0  0  0  0
 13 18  1  0  0  0  0
 14 15  1  0  0  0  0
 15 21  1  0  0  0  0
 15 16  2  0  0  0  0
 17 16  1  0  0  0  0
 17 11  1  0  0  0  0
 18 17  2  0  0  0  0
 19 13  1  0  0  0  0
 20 14  1  0  0  0  0
 22 11  1  0  0  0  0
 23 22  1  0  0  0  0
 24 25  2  0  0  0  0
 25 26  1  0  0  0  0
 26 28  1  0  0  0  0
 26 29  1  0  0  0  0
 27 26  1  0  0  0  0
 29 30  1  0  0  0  0
 30 31  1  0  0  0  0
 30 32  1  0  0  0  0
 31 32  1  0  0  0  0
M  END
>  <minimizedAffinity>
-4.97082806

$$$$

 OpenBabel03272509443D

 32 34  0  0  1  0  0  0  0  0999 V2000
   38.9750   26.8760   34.2250 C   0  0  0  0  0  0  0  0  0  0  0  0
   37.8760   27.0840   33.3910 C   0  0  0  0  0  0  0  0  0  0  0  0
   38.0220   27.3290   32.0340 C   0  0  0  0  0  0  0  0  0  0  0  0
   39.3050   27.3700   31.4800 C   0  0  0  0  0  0  0  0  0  0  0  0
   40.3700   27.1640   32.3070 C   0  0  0  0  0  0  0  0  0  0  0  0
   40.1860   26.9220   33.6610 C   0  0  0  0  0  0  0  0  0  0  0  0
   36.8860   27.0470   33.8550 H   0  0  0  0  0  0  0  0  0  0  0  0
   37.0950   27.4740   31.5030 H   0  0  0  0  0  0  0  0  0  0  0  0
   39.3220   27.5640   30.4260 H   0  0  0  0  0  0  0  0  0  0  0  0
   41.2960   27.2270   31.7330 H   0  0  0  0  0  0  0  0  0  0  0  0
   38.8190   26.6540   35.6470 C   0  0  2  0  0  0  0  0  0  0  0  0
   39.8780   26.3820   36.0260 H   0  0  0  0  0  0  0  0  0  0  0  0
   37.8590   23.1520   35.7710 C   0  0  0  0  0  0  0  0  0  0  0  0
   37.6520   22.9090   37.1160 C   0  0  0  0  0  0  0  0  0  0  0  0
   37.7820   23.9660   37.9960 C   0  0  0  0  0  0  0  0  0  0  0  0
   38.1080   25.2140   37.5090 N   0  0  0  0  0  0  0  0  0  0  0  0
   38.2940   25.3800   36.2160 C   0  0  0  0  0  0  0  0  0  0  0  0
   38.1700   24.3580   35.3400 N   0  0  0  0  0  0  0  0  0  0  0  0
   37.7640   22.3400   35.0480 H   0  0  0  0  0  0  0  0  0  0  0  0
   37.4030   21.9000   37.3990 H   0  0  0  0  0  0  0  0  0  0  0  0
   37.6200   23.7830   39.0490 H   0  0  0  0  0  0  0  0  0  0  0  0
   38.7030   27.7510   36.3080 O   0  0  0  0  0  0  0  0  0  0  0  0
   37.8760   28.2470   36.4300 H   0  0  0  0  0  0  0  0  0  0  0  0
   41.4010   26.7530   34.4240 C   0  0  0  0  0  3  0  0  0  0  0  0
   42.2240   25.7080   34.2920 C   0  0  0  0  0  3  0  0  0  0  0  0
   43.5070   25.4550   34.9870 C   0  0  0  0  0  0  0  0  0  0  0  0
   43.8070   26.3080   35.6450 H   0  0  0  0  0  0  0  0  0  0  0  0
   44.3410   25.2790   34.2820 H   0  0  0  0  0  0  0  0  0  0  0  0
   43.3550   23.9970   36.0260 S   0  0  0  0  0  0  0  0  0  0  0  0
   41.6200   23.4140   36.0170 C   0  0  0  0  0  3  0  0  0  0  0  0
   41.3000   22.3500   36.9970 C   0  0  0  0  0  2  0  0  0  0  0  0
   41.3370   22.0360   35.5440 C   0  0  0  0  0  2  0  0  0  0  0  0
  1 11  1  0  0  0  0
  2  7  1  0  0  0  0
  2  1  2  0  0  0  0
  3  2  1  0  0  0  0
  4  3  2  0  0  0  0
  4  5  1  0  0  0  0
  5  6  2  0  0  0  0
  6  1  1  0  0  0  0
  6 24  1  0  0  0  0
  8  3  1  0  0  0  0
  9  4  1  0  0  0  0
 10  5  1  0  0  0  0
 11 12  1  1  0  0  0
 11 17  1  0  0  0  0
 11 22  1  0  0  0  0
 13 14  1  0  0  0  0
 14 20  1  0  0  0  0
 14 15  2  0  0  0  0
 15 21  1  0  0  0  0
 16 15  1  0  0  0  0
 17 16  2  0  0  0  0
 18 13  2  0  0  0  0
 18 17  1  0  0  0  0
 19 13  1  0  0  0  0
 22 23  1  0  0  0  0
 25 24  2  0  0  0  0
 25 26  1  0  0  0  0
 26 27  1  0  0  0  0
 26 29  1  0  0  0  0
 28 26  1  0  0  0  0
 30 29  1  0  0  0  0
 30 31  1  0  0  0  0
 32 30  1  0  0  0  0
 32 31  1  0  0  0  0
M  END
>  <minimizedAffinity>
-4.92151213

$$$$

 OpenBabel03272509443D

 32 34  0  0  1  0  0  0  0  0999 V2000
   38.2530   26.6090   33.2390 C   0  0  0  0  0  0  0  0  0  0  0  0
   39.4340   26.1420   33.8180 C   0  0  0  0  0  0  0  0  0  0  0  0
   39.7910   26.4690   35.1180 C   0  0  0  0  0  0  0  0  0  0  0  0
   38.9480   27.2880   35.8740 C   0  0  0  0  0  0  0  0  0  0  0  0
   37.7970   27.7370   35.2950 C   0  0  0  0  0  0  0  0  0  0  0  0
   37.4720   27.3910   33.9910 C   0  0  0  0  0  0  0  0  0  0  0  0
   40.0720   25.5050   33.2010 H   0  0  0  0  0  0  0  0  0  0  0  0
   40.7270   26.0460   35.4450 H   0  0  0  0  0  0  0  0  0  0  0  0
   39.3030   27.4880   36.8660 H   0  0  0  0  0  0  0  0  0  0  0  0
   37.2510   28.3610   36.0030 H   0  0  0  0  0  0  0  0  0  0  0  0
   37.9020   26.2930   31.8710 C   0  0  2  0  0  0  0  0  0  0  0  0
   36.9050   26.8500   31.6810 H   0  0  0  0  0  0  0  0  0  0  0  0
   37.6360   22.8040   30.8910 C   0  0  0  0  0  0  0  0  0  0  0  0
   36.2900   22.5210   31.0250 C   0  0  0  0  0  0  0  0  0  0  0  0
   35.4420   23.5470   31.3960 C   0  0  0  0  0  0  0  0  0  0  0  0
   35.9610   24.8050   31.6180 N   0  0  0  0  0  0  0  0  0  0  0  0
   37.2540   25.0100   31.4760 C   0  0  0  0  0  0  0  0  0  0  0  0
   38.0990   24.0190   31.1120 N   0  0  0  0  0  0  0  0  0  0  0  0
   38.3340   22.0180   30.5990 H   0  0  0  0  0  0  0  0  0  0  0  0
   35.9800   21.5070   30.8310 H   0  0  0  0  0  0  0  0  0  0  0  0
   34.3870   23.3320   31.5010 H   0  0  0  0  0  0  0  0  0  0  0  0
   38.6030   26.9500   31.0160 O   0  0  0  0  0  0  0  0  0  0  0  0
   39.4900   26.6970   30.7060 H   0  0  0  0  0  0  0  0  0  0  0  0
   36.2410   27.9600   33.4940 C   0  0  0  0  0  3  0  0  0  0  0  0
   35.6340   29.0160   34.0440 C   0  0  0  0  0  3  0  0  0  0  0  0
   34.4020   29.7050   33.5970 C   0  0  0  0  0  0  0  0  0  0  0  0
   33.7000   29.0140   33.0660 H   0  0  0  0  0  0  0  0  0  0  0  0
   34.6140   30.5440   32.9080 H   0  0  0  0  0  0  0  0  0  0  0  0
   33.5310   30.3730   35.0190 S   0  0  0  0  0  0  0  0  0  0  0  0
   34.3290   31.9300   35.5530 C   0  0  0  0  0  3  0  0  0  0  0  0
   35.6840   31.7870   36.1330 C   0  0  0  0  0  2  0  0  0  0  0  0
   34.5390   32.1590   37.0050 C   0  0  0  0  0  2  0  0  0  0  0  0
  1  2  2  0  0  0  0
  1  6  1  0  0  0  0
  2  3  1  0  0  0  0
  3  8  1  0  0  0  0
  3  4  2  0  0  0  0
  4  9  1  0  0  0  0
  5  4  1  0  0  0  0
  5 10  1  0  0  0  0
  6  5  2  0  0  0  0
  7  2  1  0  0  0  0
 11 12  1  6  0  0  0
 11  1  1  0  0  0  0
 13 14  2  0  0  0  0
 13 18  1  0  0  0  0
 14 15  1  0  0  0  0
 15 21  1  0  0  0  0
 15 16  2  0  0  0  0
 17 16  1  0  0  0  0
 17 11  1  0  0  0  0
 18 17  2  0  0  0  0
 19 13  1  0  0  0  0
 20 14  1  0  0  0  0
 22 11  1  0  0  0  0
 23 22  1  0  0  0  0
 24  6  1  0  0  0  0
 24 25  2  0  0  0  0
 26 25  1  0  0  0  0
 26 29  1  0  0  0  0
 27 26  1  0  0  0  0
 28 26  1  0  0  0  0
 29 30  1  0  0  0  0
 30 31  1  0  0  0  0
 30 32  1  0  0  0  0
 31 32  1  0  0  0  0
M  END
>  <minimizedAffinity>
-4.90230942

$$$$
