
 OpenBabel03272508423D

 14 15  0  0  0  0  0  0  0  0999 V2000
   37.4400   32.1170   49.5960 C   0  0  0  0  0  0  0  0  0  0  0  0
   38.0480   32.0820   48.3190 C   0  0  0  0  0  0  0  0  0  0  0  0
   37.4860   31.2430   47.3560 C   0  0  0  0  0  0  0  0  0  0  0  0
   36.4000   30.5220   47.7050 N   0  0  0  0  0  0  0  0  0  0  0  0
   35.8420   30.5750   48.9290 C   0  0  0  0  0  0  0  0  0  0  0  0
   36.3540   31.3620   49.8690 N   0  0  0  0  0  0  0  0  0  0  0  0
   37.8810   32.7680   50.3390 H   0  0  0  0  0  0  0  0  0  0  0  0
   38.9180   32.6690   48.0630 H   0  0  0  0  0  0  0  0  0  0  0  0
   37.9180   31.1850   46.3650 H   0  0  0  0  0  0  0  0  0  0  0  0
   34.6710   29.7850   49.2800 C   0  0  0  0  0  0  0  0  0  0  0  0
   34.1780   29.7500   50.4290 O   0  0  0  0  0  0  0  0  0  0  0  0
   33.9410   28.9330   48.2970 C   0  0  0  0  0  3  0  0  0  0  0  0
   32.8440   28.0490   48.7580 C   0  0  0  0  0  2  0  0  0  0  0  0
   34.1820   27.4640   48.2580 C   0  0  0  0  0  2  0  0  0  0  0  0
  1  6  1  0  0  0  0
  1  7  1  0  0  0  0
  2  1  2  0  0  0  0
  3  4  2  0  0  0  0
  3  2  1  0  0  0  0
  4  5  1  0  0  0  0
  5 10  1  0  0  0  0
  5  6  2  0  0  0  0
  8  2  1  0  0  0  0
  9  3  1  0  0  0  0
 10 11  2  0  0  0  0
 12 13  1  0  0  0  0
 12 10  1  0  0  0  0
 14 12  1  0  0  0  0
 14 13  1  0  0  0  0
M  END
>  <minimizedAffinity>
-3.69935203

>  <minimizedRMSD>
2.27086711

$$$$
