REMARK  Name = 
REMARK  5 active torsions:
REMARK  status: ('A' for Active; 'I' for Inactive)
REMARK    1  A    between atoms: C_1  and  C_4
REMARK    2  A    between atoms: C_2  and  C_11
REMARK    3  A    between atoms: C_10  and  O_15
REMARK    4  A    between atoms: C_14  and  O_16
REMARK    5  A    between atoms: O_16  and  C_30
REMARK                            x       y       z     vdW  Elec       q    Type
REMARK                         _______ _______ _______ _____ _____    ______ ____
ROOT
ATOM      1  C   UNL     1      35.816  30.540  49.073  0.00  0.00    +0.000 C 
ATOM      2  C   UNL     1      35.904  29.117  48.840  0.00  0.00    +0.000 C 
ATOM      3  C   UNL     1      36.072  29.582  50.249  0.00  0.00    +0.000 C 
ATOM      4  H   UNL     1      34.897  31.134  49.264  0.00  0.00    +0.000 HD
ATOM      5  H   UNL     1      36.851  28.782  48.321  0.00  0.00    +0.000 HD
ATOM      6  H   UNL     1      37.080  29.543  50.695  0.00  0.00    +0.000 HD
ATOM      7  H   UNL     1      35.240  29.352  50.937  0.00  0.00    +0.000 HD
ENDROOT
BRANCH   2   9
ATOM      8  C   UNL     1      33.969  29.079  47.377  0.00  0.00    +0.000 C 
ATOM      9  C   UNL     1      34.739  28.283  48.422  0.00  0.00    +0.000 C 
ATOM     10  O   UNL     1      33.865  28.072  49.446  0.00  0.00    +0.000 OA
ATOM     11  C   UNL     1      32.578  28.144  49.002  0.00  0.00    +0.000 C 
ATOM     12  C   UNL     1      32.605  28.392  47.509  0.00  0.00    +0.000 C 
ATOM     13  H   UNL     1      33.809  30.128  47.664  0.00  0.00    +0.000 HD
ATOM     14  H   UNL     1      35.018  27.324  47.936  0.00  0.00    +0.000 HD
ATOM     15  H   UNL     1      32.110  29.037  49.462  0.00  0.00    +0.000 HD
ATOM     16  H   UNL     1      31.956  27.263  49.252  0.00  0.00    +0.000 HD
ATOM     17  H   UNL     1      32.650  27.368  47.044  0.00  0.00    +0.000 HD
BRANCH   8  18
ATOM     18  O   UNL     1      34.483  28.941  46.098  0.00  0.00    +0.000 OA
ATOM     19  H   UNL     1      34.450  29.811  45.658  0.00  0.00    +0.000 HD
ENDBRANCH   8  18
BRANCH  12  20
ATOM     20  O   UNL     1      31.590  29.175  47.040  0.00  0.00    +0.000 OA
BRANCH  20  21
ATOM     21  C   UNL     1      30.806  28.560  46.079  0.00  0.00    +0.000 C 
ATOM     22  C   UNL     1      31.047  28.747  44.639  0.00  0.00    +0.000 C 
ATOM     23  C   UNL     1      31.320  27.411  45.293  0.00  0.00    +0.000 C 
ENDBRANCH  20  21
ENDBRANCH  12  20
ENDBRANCH   2   9
BRANCH   1  24
ATOM     24  C   UNL     1      37.002  31.456  48.826  0.00  0.00    +0.000 A 
ATOM     25  C   UNL     1      37.198  32.518  49.707  0.00  0.00    +0.000 A 
ATOM     26  C   UNL     1      38.282  33.331  49.420  0.00  0.00    +0.000 A 
ATOM     27  N   UNL     1      39.084  33.090  48.347  0.00  0.00    +0.000 NA
ATOM     28  C   UNL     1      38.858  32.038  47.508  0.00  0.00    +0.000 A 
ATOM     29  N   UNL     1      37.802  31.216  47.758  0.00  0.00    +0.000 NA
ATOM     30  H   UNL     1      36.524  32.653  50.539  0.00  0.00    +0.000 HD
ATOM     31  H   UNL     1      38.475  34.176  50.084  0.00  0.00    +0.000 HD
ATOM     32  H   UNL     1      39.482  31.829  46.650  0.00  0.00    +0.000 HD
ENDBRANCH   1  24
TORSDOF 5
