
 OpenBabel03272507273D

 33 35  0  0  1  0  0  0  0  0999 V2000
   35.9100   29.1040   31.1750 C   0  0  0  0  0  0  0  0  0  0  0  0
   36.2680   28.5670   32.4280 C   0  0  0  0  0  0  0  0  0  0  0  0
   37.4960   27.9000   32.5230 C   0  0  0  0  0  0  0  0  0  0  0  0
   38.2540   27.8100   31.4260 N   0  0  0  0  0  0  0  0  0  0  0  0
   37.8870   28.3310   30.2440 C   0  0  0  0  0  0  0  0  0  0  0  0
   36.7200   28.9750   30.1230 N   0  0  0  0  0  0  0  0  0  0  0  0
   37.9010   27.3460   33.7480 N   0  0  0  0  0  0  0  0  0  0  0  0
   37.5100   27.8390   35.0750 C   0  0  0  0  0  0  0  0  0  0  0  0
   38.3650   27.1140   36.0750 C   0  0  0  0  0  0  0  0  0  0  0  0
   39.4760   26.5990   35.2500 C   0  0  0  0  0  0  0  0  0  0  0  0
   38.7520   26.2180   33.9670 C   0  0  2  0  0  0  0  0  0  0  0  0
   34.9310   29.6040   31.2170 H   0  0  0  0  0  0  0  0  0  0  0  0
   35.6720   28.6280   33.3230 H   0  0  0  0  0  0  0  0  0  0  0  0
   38.4820   28.2720   29.3420 H   0  0  0  0  0  0  0  0  0  0  0  0
   36.4500   27.5260   35.1840 H   0  0  0  0  0  0  0  0  0  0  0  0
   37.6140   28.9220   35.1090 H   0  0  0  0  0  0  0  0  0  0  0  0
   38.7850   27.9080   36.7540 H   0  0  0  0  0  0  0  0  0  0  0  0
   37.8200   26.4010   36.6920 H   0  0  0  0  0  0  0  0  0  0  0  0
   40.0150   25.7340   35.6820 H   0  0  0  0  0  0  0  0  0  0  0  0
   40.2180   27.3900   35.0620 H   0  0  0  0  0  0  0  0  0  0  0  0
   39.6850   25.8230   32.8810 C   0  0  0  0  0  0  0  0  0  0  0  0
   40.5800   24.9150   33.4300 F   0  0  0  0  0  0  0  0  0  0  0  0
   40.4090   26.8300   32.3280 F   0  0  0  0  0  0  0  0  0  0  0  0
   38.9410   25.1160   31.9520 F   0  0  0  0  0  0  0  0  0  0  0  0
   37.8490   25.0780   34.2690 C   0  0  0  0  0  0  0  0  0  0  0  0
   37.2380   24.9280   33.3530 H   0  0  0  0  0  0  0  0  0  0  0  0
   37.1120   25.4570   35.0410 H   0  0  0  0  0  0  0  0  0  0  0  0
   38.5370   24.2200   34.8510 O   0  0  0  0  0  0  0  0  0  0  0  0
   38.4250   23.4620   35.9590 C   0  0  0  0  0  0  0  0  0  0  0  0
   38.7470   22.2830   35.6610 O   0  0  0  0  0  0  0  0  0  0  0  0
   38.1690   23.0860   37.3330 C   0  0  0  0  0  3  0  0  0  0  0  0
   39.0790   23.3650   38.4600 C   0  0  0  0  0  2  0  0  0  0  0  0
   37.8990   24.2160   38.3070 C   0  0  0  0  0  2  0  0  0  0  0  0
  1 12  1  0  0  0  0
  1  2  1  0  0  0  0
  2  3  2  0  0  0  0
  2 13  1  0  0  0  0
  3  7  1  0  0  0  0
  4  3  1  0  0  0  0
  5  4  2  0  0  0  0
  6  5  1  0  0  0  0
  6  1  2  0  0  0  0
  7 11  1  0  0  0  0
  7  8  1  0  0  0  0
  8 16  1  0  0  0  0
  8 15  1  0  0  0  0
  8  9  1  0  0  0  0
  9 18  1  0  0  0  0
  9 17  1  0  0  0  0
 10 19  1  0  0  0  0
 10  9  1  0  0  0  0
 11 21  1  6  0  0  0
 11 25  1  0  0  0  0
 11 10  1  0  0  0  0
 14  5  1  0  0  0  0
 20 10  1  0  0  0  0
 21 22  1  0  0  0  0
 23 21  1  0  0  0  0
 24 21  1  0  0  0  0
 25 28  1  0  0  0  0
 25 27  1  0  0  0  0
 26 25  1  0  0  0  0
 28 29  1  0  0  0  0
 29 31  1  0  0  0  0
 30 29  2  0  0  0  0
 31 33  1  0  0  0  0
 31 32  1  0  0  0  0
 33 32  1  0  0  0  0
M  END
>  <minimizedAffinity>
-4.95994425

$$$$

 OpenBabel03272507273D

 33 35  0  0  1  0  0  0  0  0999 V2000
   38.4360   22.2380   35.6870 C   0  0  0  0  0  0  0  0  0  0  0  0
   38.7860   23.0080   34.5590 C   0  0  0  0  0  0  0  0  0  0  0  0
   38.5600   24.3900   34.6200 C   0  0  0  0  0  0  0  0  0  0  0  0
   38.0300   24.8960   35.7370 N   0  0  0  0  0  0  0  0  0  0  0  0
   37.7060   24.1370   36.7970 C   0  0  0  0  0  0  0  0  0  0  0  0
   37.9100   22.8140   36.7690 N   0  0  0  0  0  0  0  0  0  0  0  0
   38.8900   25.2040   33.5240 N   0  0  0  0  0  0  0  0  0  0  0  0
   39.9490   24.9240   32.5460 C   0  0  0  0  0  0  0  0  0  0  0  0
   40.1080   26.1660   31.7160 C   0  0  0  0  0  0  0  0  0  0  0  0
   39.4640   27.2040   32.5430 C   0  0  0  0  0  0  0  0  0  0  0  0
   38.2870   26.4380   33.1310 C   0  0  2  0  0  0  0  0  0  0  0  0
   38.6570   21.1720   35.5300 H   0  0  0  0  0  0  0  0  0  0  0  0
   39.2140   22.6200   33.6500 H   0  0  0  0  0  0  0  0  0  0  0  0
   37.2750   24.5230   37.7120 H   0  0  0  0  0  0  0  0  0  0  0  0
   39.5390   24.1000   31.9230 H   0  0  0  0  0  0  0  0  0  0  0  0
   40.8560   24.6210   33.0640 H   0  0  0  0  0  0  0  0  0  0  0  0
   41.2130   26.3830   31.6960 H   0  0  0  0  0  0  0  0  0  0  0  0
   39.7710   26.0580   30.6850 H   0  0  0  0  0  0  0  0  0  0  0  0
   39.1270   28.1010   31.9880 H   0  0  0  0  0  0  0  0  0  0  0  0
   40.1460   27.5450   33.3370 H   0  0  0  0  0  0  0  0  0  0  0  0
   37.5540   27.2200   34.1600 C   0  0  0  0  0  0  0  0  0  0  0  0
   38.4910   27.6220   35.1030 F   0  0  0  0  0  0  0  0  0  0  0  0
   36.5710   26.5540   34.8180 F   0  0  0  0  0  0  0  0  0  0  0  0
   37.1090   28.3750   33.5420 F   0  0  0  0  0  0  0  0  0  0  0  0
   37.3560   26.1040   32.0230 C   0  0  0  0  0  0  0  0  0  0  0  0
   37.9510   26.2010   31.0900 H   0  0  0  0  0  0  0  0  0  0  0  0
   36.6100   26.9560   31.9720 H   0  0  0  0  0  0  0  0  0  0  0  0
   36.7060   25.1080   32.3900 O   0  0  0  0  0  0  0  0  0  0  0  0
   36.0450   24.0960   31.7940 C   0  0  0  0  0  0  0  0  0  0  0  0
   35.2800   24.5860   30.9250 O   0  0  0  0  0  0  0  0  0  0  0  0
   35.6120   22.7520   31.4740 C   0  0  0  0  0  3  0  0  0  0  0  0
   36.5210   21.6240   31.1980 C   0  0  0  0  0  2  0  0  0  0  0  0
   35.8870   21.6850   32.5150 C   0  0  0  0  0  2  0  0  0  0  0  0
  1  6  1  0  0  0  0
  2  3  1  0  0  0  0
  2  1  2  0  0  0  0
  3  4  2  0  0  0  0
  4  5  1  0  0  0  0
  5 14  1  0  0  0  0
  6  5  2  0  0  0  0
  7  3  1  0  0  0  0
  8 16  1  0  0  0  0
  8  7  1  0  0  0  0
  9 10  1  0  0  0  0
  9  8  1  0  0  0  0
 10 11  1  0  0  0  0
 10 20  1  0  0  0  0
 11 25  1  6  0  0  0
 11  7  1  0  0  0  0
 11 21  1  0  0  0  0
 12  1  1  0  0  0  0
 13  2  1  0  0  0  0
 15  8  1  0  0  0  0
 17  9  1  0  0  0  0
 18  9  1  0  0  0  0
 19 10  1  0  0  0  0
 21 23  1  0  0  0  0
 21 22  1  0  0  0  0
 24 21  1  0  0  0  0
 25 28  1  0  0  0  0
 26 25  1  0  0  0  0
 27 25  1  0  0  0  0
 29 28  1  0  0  0  0
 30 29  2  0  0  0  0
 31 29  1  0  0  0  0
 31 33  1  0  0  0  0
 32 31  1  0  0  0  0
 32 33  1  0  0  0  0
M  END
>  <minimizedAffinity>
-4.81505251

$$$$

 OpenBabel03272507273D

 33 35  0  0  1  0  0  0  0  0999 V2000
   39.3550   22.7070   37.5030 C   0  0  0  0  0  0  0  0  0  0  0  0
   39.8080   23.3560   36.3370 C   0  0  0  0  0  0  0  0  0  0  0  0
   39.2610   24.6110   36.0370 C   0  0  0  0  0  0  0  0  0  0  0  0
   38.3470   25.1180   36.8690 N   0  0  0  0  0  0  0  0  0  0  0  0
   37.9340   24.4760   37.9740 C   0  0  0  0  0  0  0  0  0  0  0  0
   38.4390   23.2760   38.2870 N   0  0  0  0  0  0  0  0  0  0  0  0
   39.6760   25.3010   34.8860 N   0  0  0  0  0  0  0  0  0  0  0  0
   40.9950   25.1780   34.2510 C   0  0  0  0  0  0  0  0  0  0  0  0
   41.0800   26.2670   33.2200 C   0  0  0  0  0  0  0  0  0  0  0  0
   40.0150   27.2010   33.6350 C   0  0  0  0  0  0  0  0  0  0  0  0
   38.9340   26.2390   34.1060 C   0  0  2  0  0  0  0  0  0  0  0  0
   39.8500   21.7340   37.6390 H   0  0  0  0  0  0  0  0  0  0  0  0
   40.5420   22.9650   35.6530 H   0  0  0  0  0  0  0  0  0  0  0  0
   37.1960   24.8650   38.6640 H   0  0  0  0  0  0  0  0  0  0  0  0
   40.9700   24.1850   33.7530 H   0  0  0  0  0  0  0  0  0  0  0  0
   41.7740   25.2260   35.0090 H   0  0  0  0  0  0  0  0  0  0  0  0
   42.0680   26.7790   33.3950 H   0  0  0  0  0  0  0  0  0  0  0  0
   41.0680   25.9080   32.1920 H   0  0  0  0  0  0  0  0  0  0  0  0
   39.6420   27.8680   32.8330 H   0  0  0  0  0  0  0  0  0  0  0  0
   40.3600   27.8400   34.4620 H   0  0  0  0  0  0  0  0  0  0  0  0
   37.7900   26.9370   34.7500 C   0  0  0  0  0  0  0  0  0  0  0  0
   38.3100   27.6700   35.8080 F   0  0  0  0  0  0  0  0  0  0  0  0
   36.8130   26.1360   35.2460 F   0  0  0  0  0  0  0  0  0  0  0  0
   37.3210   27.8630   33.8340 F   0  0  0  0  0  0  0  0  0  0  0  0
   38.4390   25.4870   32.9240 C   0  0  0  0  0  0  0  0  0  0  0  0
   39.2670   25.5100   32.1850 H   0  0  0  0  0  0  0  0  0  0  0  0
   37.6290   26.1300   32.4600 H   0  0  0  0  0  0  0  0  0  0  0  0
   37.8590   24.4760   33.3600 O   0  0  0  0  0  0  0  0  0  0  0  0
   37.4540   23.2900   32.8660 C   0  0  0  0  0  0  0  0  0  0  0  0
   37.9540   22.3790   33.5720 O   0  0  0  0  0  0  0  0  0  0  0  0
   36.7890   22.3220   32.0190 C   0  0  0  0  0  3  0  0  0  0  0  0
   35.4010   21.8600   32.2070 C   0  0  0  0  0  2  0  0  0  0  0  0
   35.6580   22.8410   31.1530 C   0  0  0  0  0  2  0  0  0  0  0  0
  1 12  1  0  0  0  0
  1  6  1  0  0  0  0
  2  1  2  0  0  0  0
  3  2  1  0  0  0  0
  3  4  2  0  0  0  0
  4  5  1  0  0  0  0
  5  6  2  0  0  0  0
  5 14  1  0  0  0  0
  7  3  1  0  0  0  0
  8  7  1  0  0  0  0
  8 16  1  0  0  0  0
  9 17  1  0  0  0  0
  9 10  1  0  0  0  0
  9  8  1  0  0  0  0
 10 11  1  0  0  0  0
 10 20  1  0  0  0  0
 11 25  1  6  0  0  0
 11 21  1  0  0  0  0
 11  7  1  0  0  0  0
 13  2  1  0  0  0  0
 15  8  1  0  0  0  0
 18  9  1  0  0  0  0
 19 10  1  0  0  0  0
 21 23  1  0  0  0  0
 21 22  1  0  0  0  0
 24 21  1  0  0  0  0
 25 28  1  0  0  0  0
 26 25  1  0  0  0  0
 27 25  1  0  0  0  0
 29 28  1  0  0  0  0
 29 30  2  0  0  0  0
 31 32  1  0  0  0  0
 31 29  1  0  0  0  0
 33 31  1  0  0  0  0
 33 32  1  0  0  0  0
M  END
>  <minimizedAffinity>
-4.80877876

$$$$

 OpenBabel03272507273D

 33 35  0  0  1  0  0  0  0  0999 V2000
   42.6080   21.8090   36.1120 C   0  0  0  0  0  0  0  0  0  0  0  0
   42.1840   22.9790   35.4490 C   0  0  0  0  0  0  0  0  0  0  0  0
   41.0010   23.5840   35.8920 C   0  0  0  0  0  0  0  0  0  0  0  0
   40.3460   23.0230   36.9120 N   0  0  0  0  0  0  0  0  0  0  0  0
   40.7740   21.9080   37.5250 C   0  0  0  0  0  0  0  0  0  0  0  0
   41.9010   21.3060   37.1250 N   0  0  0  0  0  0  0  0  0  0  0  0
   40.5330   24.7510   35.2650 N   0  0  0  0  0  0  0  0  0  0  0  0
   41.3730   25.7520   34.5960 C   0  0  0  0  0  0  0  0  0  0  0  0
   40.4890   26.9300   34.3010 C   0  0  0  0  0  0  0  0  0  0  0  0
   39.3400   26.7170   35.2020 C   0  0  0  0  0  0  0  0  0  0  0  0
   39.1830   25.2050   35.1440 C   0  0  2  0  0  0  0  0  0  0  0  0
   43.5440   21.4220   35.6840 H   0  0  0  0  0  0  0  0  0  0  0  0
   42.6960   23.4470   34.6260 H   0  0  0  0  0  0  0  0  0  0  0  0
   40.2610   21.4330   38.3530 H   0  0  0  0  0  0  0  0  0  0  0  0
   41.6830   25.2620   33.6480 H   0  0  0  0  0  0  0  0  0  0  0  0
   42.2300   25.9900   35.2220 H   0  0  0  0  0  0  0  0  0  0  0  0
   41.0480   27.8350   34.6700 H   0  0  0  0  0  0  0  0  0  0  0  0
   40.2810   27.0750   33.2410 H   0  0  0  0  0  0  0  0  0  0  0  0
   38.4080   27.2330   34.9000 H   0  0  0  0  0  0  0  0  0  0  0  0
   39.5830   27.0470   36.2230 H   0  0  0  0  0  0  0  0  0  0  0  0
   38.1820   24.6970   36.1180 C   0  0  0  0  0  0  0  0  0  0  0  0
   37.0580   25.5010   35.9960 F   0  0  0  0  0  0  0  0  0  0  0  0
   38.5620   24.7180   37.4210 F   0  0  0  0  0  0  0  0  0  0  0  0
   37.8050   23.4380   35.6830 F   0  0  0  0  0  0  0  0  0  0  0  0
   38.7510   24.8390   33.7700 C   0  0  0  0  0  0  0  0  0  0  0  0
   38.8520   23.7340   33.7080 H   0  0  0  0  0  0  0  0  0  0  0  0
   39.5520   25.2360   33.0740 H   0  0  0  0  0  0  0  0  0  0  0  0
   37.7290   25.5060   33.5270 O   0  0  0  0  0  0  0  0  0  0  0  0
   37.1990   26.1290   32.4560 C   0  0  0  0  0  0  0  0  0  0  0  0
   36.3270   25.3750   31.9560 O   0  0  0  0  0  0  0  0  0  0  0  0
   36.9550   27.1420   31.4510 C   0  0  0  0  0  3  0  0  0  0  0  0
   37.0440   28.5950   31.6900 C   0  0  0  0  0  2  0  0  0  0  0  0
   38.1550   27.9470   30.9930 C   0  0  0  0  0  2  0  0  0  0  0  0
  1  6  1  0  0  0  0
  2  3  1  0  0  0  0
  2  1  2  0  0  0  0
  3  4  2  0  0  0  0
  4  5  1  0  0  0  0
  5 14  1  0  0  0  0
  6  5  2  0  0  0  0
  7  3  1  0  0  0  0
  8 16  1  0  0  0  0
  8  7  1  0  0  0  0
  9  8  1  0  0  0  0
  9 17  1  0  0  0  0
  9 10  1  0  0  0  0
 10 20  1  0  0  0  0
 11 25  1  6  0  0  0
 11 10  1  0  0  0  0
 11  7  1  0  0  0  0
 11 21  1  0  0  0  0
 12  1  1  0  0  0  0
 13  2  1  0  0  0  0
 15  8  1  0  0  0  0
 18  9  1  0  0  0  0
 19 10  1  0  0  0  0
 21 23  1  0  0  0  0
 22 21  1  0  0  0  0
 24 21  1  0  0  0  0
 26 25  1  0  0  0  0
 27 25  1  0  0  0  0
 28 25  1  0  0  0  0
 29 28  1  0  0  0  0
 30 29  2  0  0  0  0
 31 32  1  0  0  0  0
 31 29  1  0  0  0  0
 33 31  1  0  0  0  0
 33 32  1  0  0  0  0
M  END
>  <minimizedAffinity>
-4.79193211

$$$$

 OpenBabel03272507273D

 33 35  0  0  1  0  0  0  0  0999 V2000
   42.7360   21.9660   35.5090 C   0  0  0  0  0  0  0  0  0  0  0  0
   42.0040   23.1000   35.1010 C   0  0  0  0  0  0  0  0  0  0  0  0
   40.8630   23.4370   35.8400 C   0  0  0  0  0  0  0  0  0  0  0  0
   40.5350   22.6700   36.8840 N   0  0  0  0  0  0  0  0  0  0  0  0
   41.2510   21.5940   37.2490 C   0  0  0  0  0  0  0  0  0  0  0  0
   42.3470   21.2470   36.5630 N   0  0  0  0  0  0  0  0  0  0  0  0
   40.0970   24.5570   35.4770 N   0  0  0  0  0  0  0  0  0  0  0  0
   40.6100   25.7530   34.7970 C   0  0  0  0  0  0  0  0  0  0  0  0
   39.5120   26.7770   34.8370 C   0  0  0  0  0  0  0  0  0  0  0  0
   38.6280   26.2740   35.9060 C   0  0  0  0  0  0  0  0  0  0  0  0
   38.6990   24.7710   35.6790 C   0  0  2  0  0  0  0  0  0  0  0  0
   43.6080   21.7960   34.8610 H   0  0  0  0  0  0  0  0  0  0  0  0
   42.2510   23.7310   34.2640 H   0  0  0  0  0  0  0  0  0  0  0  0
   41.0060   20.9570   38.0890 H   0  0  0  0  0  0  0  0  0  0  0  0
   40.7840   25.4230   33.7500 H   0  0  0  0  0  0  0  0  0  0  0  0
   41.5340   26.0780   35.2730 H   0  0  0  0  0  0  0  0  0  0  0  0
   39.9900   27.7260   35.2090 H   0  0  0  0  0  0  0  0  0  0  0  0
   39.0640   26.9860   33.8660 H   0  0  0  0  0  0  0  0  0  0  0  0
   37.5840   26.6420   35.8600 H   0  0  0  0  0  0  0  0  0  0  0  0
   39.0280   26.5410   36.8960 H   0  0  0  0  0  0  0  0  0  0  0  0
   38.0190   23.9990   36.7510 C   0  0  0  0  0  0  0  0  0  0  0  0
   38.6330   24.3440   37.9470 F   0  0  0  0  0  0  0  0  0  0  0  0
   38.0790   22.6470   36.6350 F   0  0  0  0  0  0  0  0  0  0  0  0
   36.7240   24.4810   36.8300 F   0  0  0  0  0  0  0  0  0  0  0  0
   38.0470   24.4710   34.3780 C   0  0  0  0  0  0  0  0  0  0  0  0
   38.4360   25.2290   33.6650 H   0  0  0  0  0  0  0  0  0  0  0  0
   36.9540   24.7380   34.5060 H   0  0  0  0  0  0  0  0  0  0  0  0
   38.0790   23.2340   34.2380 O   0  0  0  0  0  0  0  0  0  0  0  0
   37.6240   22.3380   33.3410 C   0  0  0  0  0  0  0  0  0  0  0  0
   38.4220   21.3670   33.3190 O   0  0  0  0  0  0  0  0  0  0  0  0
   36.7840   21.7210   32.3370 C   0  0  0  0  0  3  0  0  0  0  0  0
   35.3410   21.4590   32.5010 C   0  0  0  0  0  2  0  0  0  0  0  0
   35.7400   22.6080   31.6880 C   0  0  0  0  0  2  0  0  0  0  0  0
  1  6  1  0  0  0  0
  2  1  2  0  0  0  0
  2  3  1  0  0  0  0
  3  4  2  0  0  0  0
  4  5  1  0  0  0  0
  5 14  1  0  0  0  0
  6  5  2  0  0  0  0
  7 11  1  0  0  0  0
  7  3  1  0  0  0  0
  8  9  1  0  0  0  0
  8 16  1  0  0  0  0
  8  7  1  0  0  0  0
  9 17  1  0  0  0  0
  9 10  1  0  0  0  0
 10 20  1  0  0  0  0
 11 25  1  6  0  0  0
 11 10  1  0  0  0  0
 11 21  1  0  0  0  0
 12  1  1  0  0  0  0
 13  2  1  0  0  0  0
 15  8  1  0  0  0  0
 18  9  1  0  0  0  0
 19 10  1  0  0  0  0
 21 24  1  0  0  0  0
 21 22  1  0  0  0  0
 23 21  1  0  0  0  0
 25 27  1  0  0  0  0
 26 25  1  0  0  0  0
 28 25  1  0  0  0  0
 29 28  1  0  0  0  0
 30 29  2  0  0  0  0
 31 32  1  0  0  0  0
 31 29  1  0  0  0  0
 33 31  1  0  0  0  0
 33 32  1  0  0  0  0
M  END
>  <minimizedAffinity>
-4.78763103

$$$$

 OpenBabel03272507273D

 33 35  0  0  1  0  0  0  0  0999 V2000
   37.5270   24.0350   37.0280 C   0  0  0  0  0  0  0  0  0  0  0  0
   38.3370   23.5900   35.9640 C   0  0  0  0  0  0  0  0  0  0  0  0
   39.5490   22.9660   36.2860 C   0  0  0  0  0  0  0  0  0  0  0  0
   39.8660   22.8270   37.5770 N   0  0  0  0  0  0  0  0  0  0  0  0
   39.0740   23.2610   38.5700 C   0  0  0  0  0  0  0  0  0  0  0  0
   37.9090   23.8610   38.2940 N   0  0  0  0  0  0  0  0  0  0  0  0
   40.3950   22.5050   35.2640 N   0  0  0  0  0  0  0  0  0  0  0  0
   39.9580   22.0650   33.9330 C   0  0  0  0  0  0  0  0  0  0  0  0
   41.1500   21.4300   33.2750 C   0  0  0  0  0  0  0  0  0  0  0  0
   42.0450   21.1470   34.4130 C   0  0  0  0  0  0  0  0  0  0  0  0
   41.8170   22.3680   35.2920 C   0  0  2  0  0  0  0  0  0  0  0  0
   36.6040   24.5070   36.6600 H   0  0  0  0  0  0  0  0  0  0  0  0
   38.1010   23.6930   34.9180 H   0  0  0  0  0  0  0  0  0  0  0  0
   39.3070   23.1610   39.6230 H   0  0  0  0  0  0  0  0  0  0  0  0
   39.6890   23.0060   33.4060 H   0  0  0  0  0  0  0  0  0  0  0  0
   39.1010   21.4010   34.0280 H   0  0  0  0  0  0  0  0  0  0  0  0
   40.7890   20.4430   32.8720 H   0  0  0  0  0  0  0  0  0  0  0  0
   41.5550   22.0030   32.4410 H   0  0  0  0  0  0  0  0  0  0  0  0
   43.1150   21.0330   34.1480 H   0  0  0  0  0  0  0  0  0  0  0  0
   41.7350   20.2270   34.9310 H   0  0  0  0  0  0  0  0  0  0  0  0
   42.4840   22.2520   36.6140 C   0  0  0  0  0  0  0  0  0  0  0  0
   43.8130   21.9360   36.3680 F   0  0  0  0  0  0  0  0  0  0  0  0
   41.9850   21.3040   37.4480 F   0  0  0  0  0  0  0  0  0  0  0  0
   42.4870   23.5190   37.1730 F   0  0  0  0  0  0  0  0  0  0  0  0
   42.3560   23.5560   34.5800 C   0  0  0  0  0  0  0  0  0  0  0  0
   42.3320   23.2950   33.5010 H   0  0  0  0  0  0  0  0  0  0  0  0
   43.4590   23.6010   34.8360 H   0  0  0  0  0  0  0  0  0  0  0  0
   41.8430   24.5560   35.1150 O   0  0  0  0  0  0  0  0  0  0  0  0
   41.4400   25.7790   34.7190 C   0  0  0  0  0  0  0  0  0  0  0  0
   42.4420   26.4010   34.2840 O   0  0  0  0  0  0  0  0  0  0  0  0
   40.5730   26.9070   34.4470 C   0  0  0  0  0  3  0  0  0  0  0  0
   39.2130   26.8000   33.8860 C   0  0  0  0  0  2  0  0  0  0  0  0
   39.3430   27.0440   35.3230 C   0  0  0  0  0  2  0  0  0  0  0  0
  1  6  1  0  0  0  0
  2  3  1  0  0  0  0
  2  1  2  0  0  0  0
  3  4  2  0  0  0  0
  4  5  1  0  0  0  0
  5 14  1  0  0  0  0
  6  5  2  0  0  0  0
  7 11  1  0  0  0  0
  7  3  1  0  0  0  0
  8 16  1  0  0  0  0
  8  7  1  0  0  0  0
  9  8  1  0  0  0  0
  9 10  1  0  0  0  0
 10 20  1  0  0  0  0
 10 11  1  0  0  0  0
 11 25  1  6  0  0  0
 11 21  1  0  0  0  0
 12  1  1  0  0  0  0
 13  2  1  0  0  0  0
 15  8  1  0  0  0  0
 17  9  1  0  0  0  0
 18  9  1  0  0  0  0
 19 10  1  0  0  0  0
 21 24  1  0  0  0  0
 21 23  1  0  0  0  0
 22 21  1  0  0  0  0
 25 27  1  0  0  0  0
 25 28  1  0  0  0  0
 26 25  1  0  0  0  0
 29 28  1  0  0  0  0
 30 29  2  0  0  0  0
 31 29  1  0  0  0  0
 31 33  1  0  0  0  0
 32 31  1  0  0  0  0
 32 33  1  0  0  0  0
M  END
>  <minimizedAffinity>
-4.75028276

$$$$

 OpenBabel03272507273D

 33 35  0  0  1  0  0  0  0  0999 V2000
   36.9390   26.4130   31.0740 C   0  0  0  0  0  0  0  0  0  0  0  0
   37.6520   25.1970   31.0720 C   0  0  0  0  0  0  0  0  0  0  0  0
   36.9110   24.0080   31.0410 C   0  0  0  0  0  0  0  0  0  0  0  0
   35.5780   24.0940   31.0150 N   0  0  0  0  0  0  0  0  0  0  0  0
   34.9250   25.2670   31.0180 C   0  0  0  0  0  0  0  0  0  0  0  0
   35.6050   26.4190   31.0470 N   0  0  0  0  0  0  0  0  0  0  0  0
   37.5730   22.7690   31.0380 N   0  0  0  0  0  0  0  0  0  0  0  0
   38.9140   22.5230   30.4950 C   0  0  0  0  0  0  0  0  0  0  0  0
   39.1070   21.0330   30.4780 C   0  0  0  0  0  0  0  0  0  0  0  0
   37.7280   20.5190   30.5850 C   0  0  0  0  0  0  0  0  0  0  0  0
   37.1030   21.5190   31.5470 C   0  0  2  0  0  0  0  0  0  0  0  0
   37.6180   27.2770   31.0990 H   0  0  0  0  0  0  0  0  0  0  0  0
   38.7250   25.1060   31.0930 H   0  0  0  0  0  0  0  0  0  0  0  0
   33.8470   25.3630   30.9970 H   0  0  0  0  0  0  0  0  0  0  0  0
   39.6010   22.9870   31.2350 H   0  0  0  0  0  0  0  0  0  0  0  0
   39.0060   22.9900   29.5160 H   0  0  0  0  0  0  0  0  0  0  0  0
   39.4840   20.7830   29.4470 H   0  0  0  0  0  0  0  0  0  0  0  0
   39.8390   20.6720   31.1990 H   0  0  0  0  0  0  0  0  0  0  0  0
   37.6440   19.4830   30.9680 H   0  0  0  0  0  0  0  0  0  0  0  0
   37.2260   20.5500   29.6070 H   0  0  0  0  0  0  0  0  0  0  0  0
   35.6370   21.3290   31.6970 C   0  0  0  0  0  0  0  0  0  0  0  0
   35.0700   21.5770   30.4540 F   0  0  0  0  0  0  0  0  0  0  0  0
   35.0240   22.1410   32.5960 F   0  0  0  0  0  0  0  0  0  0  0  0
   35.4330   19.9840   31.9510 F   0  0  0  0  0  0  0  0  0  0  0  0
   37.7510   21.3490   32.8740 C   0  0  0  0  0  0  0  0  0  0  0  0
   38.7160   20.8370   32.6730 H   0  0  0  0  0  0  0  0  0  0  0  0
   37.1320   20.5780   33.4280 H   0  0  0  0  0  0  0  0  0  0  0  0
   37.5910   22.4180   33.4900 O   0  0  0  0  0  0  0  0  0  0  0  0
   38.2240   23.0850   34.4750 C   0  0  0  0  0  0  0  0  0  0  0  0
   39.1390   23.7730   33.9570 O   0  0  0  0  0  0  0  0  0  0  0  0
   38.5640   23.5580   35.8000 C   0  0  0  0  0  3  0  0  0  0  0  0
   37.8290   24.6110   36.5260 C   0  0  0  0  0  2  0  0  0  0  0  0
   37.5910   23.2210   36.9130 C   0  0  0  0  0  2  0  0  0  0  0  0
  1 12  1  0  0  0  0
  2  1  1  0  0  0  0
  2 13  1  0  0  0  0
  3  2  2  0  0  0  0
  4  5  2  0  0  0  0
  4  3  1  0  0  0  0
  5  6  1  0  0  0  0
  6  1  2  0  0  0  0
  7  3  1  0  0  0  0
  7 11  1  0  0  0  0
  8  7  1  0  0  0  0
  8 15  1  0  0  0  0
  9  8  1  0  0  0  0
  9 10  1  0  0  0  0
  9 18  1  0  0  0  0
 10 19  1  0  0  0  0
 10 11  1  0  0  0  0
 11 21  1  1  0  0  0
 11 25  1  0  0  0  0
 14  5  1  0  0  0  0
 16  8  1  0  0  0  0
 17  9  1  0  0  0  0
 20 10  1  0  0  0  0
 21 24  1  0  0  0  0
 21 23  1  0  0  0  0
 22 21  1  0  0  0  0
 25 27  1  0  0  0  0
 25 28  1  0  0  0  0
 26 25  1  0  0  0  0
 28 29  1  0  0  0  0
 29 31  1  0  0  0  0
 30 29  2  0  0  0  0
 31 32  1  0  0  0  0
 31 33  1  0  0  0  0
 32 33  1  0  0  0  0
M  END
>  <minimizedAffinity>
-4.65063858

$$$$

 OpenBabel03272507273D

 33 35  0  0  1  0  0  0  0  0999 V2000
   36.9280   21.8320   32.5400 C   0  0  0  0  0  0  0  0  0  0  0  0
   37.1530   23.1730   32.1680 C   0  0  0  0  0  0  0  0  0  0  0  0
   37.7200   24.0260   33.1230 C   0  0  0  0  0  0  0  0  0  0  0  0
   38.0130   23.5240   34.3260 N   0  0  0  0  0  0  0  0  0  0  0  0
   37.7860   22.2420   34.6530 C   0  0  0  0  0  0  0  0  0  0  0  0
   37.2470   21.4020   33.7610 N   0  0  0  0  0  0  0  0  0  0  0  0
   37.9650   25.3720   32.8040 N   0  0  0  0  0  0  0  0  0  0  0  0
   38.2460   25.8900   31.4590 C   0  0  0  0  0  0  0  0  0  0  0  0
   38.6860   27.3160   31.6290 C   0  0  0  0  0  0  0  0  0  0  0  0
   39.0550   27.3820   33.0560 C   0  0  0  0  0  0  0  0  0  0  0  0
   37.9910   26.4960   33.6870 C   0  0  2  0  0  0  0  0  0  0  0  0
   36.4830   21.2550   31.7150 H   0  0  0  0  0  0  0  0  0  0  0  0
   36.9240   23.5970   31.2050 H   0  0  0  0  0  0  0  0  0  0  0  0
   38.0140   21.8110   35.6200 H   0  0  0  0  0  0  0  0  0  0  0  0
   37.2650   25.8540   30.9390 H   0  0  0  0  0  0  0  0  0  0  0  0
   38.9820   25.2560   30.9690 H   0  0  0  0  0  0  0  0  0  0  0  0
   39.6330   27.4190   31.0280 H   0  0  0  0  0  0  0  0  0  0  0  0
   37.9720   28.0490   31.2560 H   0  0  0  0  0  0  0  0  0  0  0  0
   39.0450   28.4000   33.4940 H   0  0  0  0  0  0  0  0  0  0  0  0
   40.0600   26.9640   33.2170 H   0  0  0  0  0  0  0  0  0  0  0  0
   38.2380   26.2470   35.1310 C   0  0  0  0  0  0  0  0  0  0  0  0
   39.3420   25.4090   35.2120 F   0  0  0  0  0  0  0  0  0  0  0  0
   37.2230   25.6550   35.8110 F   0  0  0  0  0  0  0  0  0  0  0  0
   38.6300   27.4540   35.6830 F   0  0  0  0  0  0  0  0  0  0  0  0
   36.6760   27.1700   33.5300 C   0  0  0  0  0  0  0  0  0  0  0  0
   35.9150   26.3640   33.5970 H   0  0  0  0  0  0  0  0  0  0  0  0
   36.6280   27.5150   32.4520 H   0  0  0  0  0  0  0  0  0  0  0  0
   36.7220   28.2080   34.2150 O   0  0  0  0  0  0  0  0  0  0  0  0
   35.9780   29.3220   34.3560 C   0  0  0  0  0  0  0  0  0  0  0  0
   34.7670   29.0000   34.2500 O   0  0  0  0  0  0  0  0  0  0  0  0
   35.6300   30.7120   34.5610 C   0  0  0  0  0  3  0  0  0  0  0  0
   34.6750   31.1950   35.5760 C   0  0  0  0  0  2  0  0  0  0  0  0
   36.1030   31.3470   35.8540 C   0  0  0  0  0  2  0  0  0  0  0  0
  1  6  1  0  0  0  0
  2  1  2  0  0  0  0
  2  3  1  0  0  0  0
  3  4  2  0  0  0  0
  4  5  1  0  0  0  0
  5 14  1  0  0  0  0
  6  5  2  0  0  0  0
  7  3  1  0  0  0  0
  7 11  1  0  0  0  0
  8  9  1  0  0  0  0
  8  7  1  0  0  0  0
  9 10  1  0  0  0  0
 10 20  1  0  0  0  0
 10 19  1  0  0  0  0
 10 11  1  0  0  0  0
 11 25  1  6  0  0  0
 11 21  1  0  0  0  0
 12  1  1  0  0  0  0
 13  2  1  0  0  0  0
 15  8  1  0  0  0  0
 16  8  1  0  0  0  0
 17  9  1  0  0  0  0
 18  9  1  0  0  0  0
 21 22  1  0  0  0  0
 21 24  1  0  0  0  0
 21 23  1  0  0  0  0
 25 26  1  0  0  0  0
 25 28  1  0  0  0  0
 27 25  1  0  0  0  0
 28 29  1  0  0  0  0
 29 31  1  0  0  0  0
 30 29  2  0  0  0  0
 31 32  1  0  0  0  0
 31 33  1  0  0  0  0
 32 33  1  0  0  0  0
M  END
>  <minimizedAffinity>
-4.64412928

$$$$

 OpenBabel03272507273D

 33 35  0  0  1  0  0  0  0  0999 V2000
   36.0630   29.3250   30.7020 C   0  0  0  0  0  0  0  0  0  0  0  0
   36.2730   28.6530   31.9240 C   0  0  0  0  0  0  0  0  0  0  0  0
   37.4990   28.0000   32.1040 C   0  0  0  0  0  0  0  0  0  0  0  0
   38.3950   28.0510   31.1140 N   0  0  0  0  0  0  0  0  0  0  0  0
   38.1670   28.6990   29.9600 C   0  0  0  0  0  0  0  0  0  0  0  0
   37.0060   29.3330   29.7590 N   0  0  0  0  0  0  0  0  0  0  0  0
   37.7590   27.3140   33.3020 N   0  0  0  0  0  0  0  0  0  0  0  0
   37.1830   27.6430   34.6120 C   0  0  0  0  0  0  0  0  0  0  0  0
   37.9250   26.8220   35.6280 C   0  0  0  0  0  0  0  0  0  0  0  0
   39.1480   26.4250   34.9050 C   0  0  0  0  0  0  0  0  0  0  0  0
   38.6090   26.1830   33.5020 C   0  0  2  0  0  0  0  0  0  0  0  0
   35.0720   29.8010   30.6710 H   0  0  0  0  0  0  0  0  0  0  0  0
   35.5640   28.6000   32.7330 H   0  0  0  0  0  0  0  0  0  0  0  0
   38.8760   28.7550   29.1440 H   0  0  0  0  0  0  0  0  0  0  0  0
   36.1280   27.3020   34.5440 H   0  0  0  0  0  0  0  0  0  0  0  0
   37.2470   28.7160   34.7820 H   0  0  0  0  0  0  0  0  0  0  0  0
   38.2280   27.5390   36.4420 H   0  0  0  0  0  0  0  0  0  0  0  0
   37.3270   26.0330   36.0830 H   0  0  0  0  0  0  0  0  0  0  0  0
   39.6550   25.5250   35.3040 H   0  0  0  0  0  0  0  0  0  0  0  0
   39.8830   27.2440   34.9070 H   0  0  0  0  0  0  0  0  0  0  0  0
   39.6880   25.9330   32.5120 C   0  0  0  0  0  0  0  0  0  0  0  0
   40.4910   27.0650   32.4950 F   0  0  0  0  0  0  0  0  0  0  0  0
   39.2780   25.7020   31.2380 F   0  0  0  0  0  0  0  0  0  0  0  0
   40.4710   24.9130   33.0240 F   0  0  0  0  0  0  0  0  0  0  0  0
   37.7120   25.0000   33.5510 C   0  0  0  0  0  0  0  0  0  0  0  0
   37.3880   24.9120   34.6100 H   0  0  0  0  0  0  0  0  0  0  0  0
   38.3750   24.0970   33.3830 H   0  0  0  0  0  0  0  0  0  0  0  0
   36.9740   25.0700   32.5510 O   0  0  0  0  0  0  0  0  0  0  0  0
   36.2210   24.2170   31.8290 C   0  0  0  0  0  0  0  0  0  0  0  0
   35.5130   24.8920   31.0390 O   0  0  0  0  0  0  0  0  0  0  0  0
   35.6590   22.9780   31.3360 C   0  0  0  0  0  3  0  0  0  0  0  0
   36.4290   21.7380   31.1200 C   0  0  0  0  0  2  0  0  0  0  0  0
   35.5930   21.8240   32.3170 C   0  0  0  0  0  2  0  0  0  0  0  0
  1  2  1  0  0  0  0
  2  3  2  0  0  0  0
  2 13  1  0  0  0  0
  3  7  1  0  0  0  0
  4  3  1  0  0  0  0
  5  4  2  0  0  0  0
  6  5  1  0  0  0  0
  6  1  2  0  0  0  0
  7 11  1  0  0  0  0
  7  8  1  0  0  0  0
  8 16  1  0  0  0  0
  8  9  1  0  0  0  0
  9 18  1  0  0  0  0
  9 17  1  0  0  0  0
 10 20  1  0  0  0  0
 10 19  1  0  0  0  0
 10  9  1  0  0  0  0
 11 21  1  6  0  0  0
 11 25  1  0  0  0  0
 11 10  1  0  0  0  0
 12  1  1  0  0  0  0
 14  5  1  0  0  0  0
 15  8  1  0  0  0  0
 21 24  1  0  0  0  0
 22 21  1  0  0  0  0
 23 21  1  0  0  0  0
 25 26  1  0  0  0  0
 27 25  1  0  0  0  0
 28 25  1  0  0  0  0
 29 28  1  0  0  0  0
 30 29  2  0  0  0  0
 31 29  1  0  0  0  0
 31 33  1  0  0  0  0
 32 31  1  0  0  0  0
 32 33  1  0  0  0  0
M  END
>  <minimizedAffinity>
-4.59013319

$$$$
