
 OpenBabel03272510313D

 26 28  0  0  0  0  0  0  0  0999 V2000
   37.3420   31.4020   49.3070 C   0  0  0  0  0  0  0  0  0  0  0  0
   38.2860   32.3970   49.4930 C   0  0  0  0  0  0  0  0  0  0  0  0
   38.8680   32.8650   48.3260 C   0  0  0  0  0  0  0  0  0  0  0  0
   38.5140   32.3610   47.1150 N   0  0  0  0  0  0  0  0  0  0  0  0
   37.5880   31.3900   46.9770 C   0  0  0  0  0  0  0  0  0  0  0  0
   36.9920   30.9000   48.1070 N   0  0  0  0  0  0  0  0  0  0  0  0
   38.5080   32.7410   50.4920 H   0  0  0  0  0  0  0  0  0  0  0  0
   39.6140   33.6470   48.4220 H   0  0  0  0  0  0  0  0  0  0  0  0
   36.6470   30.8660   50.5340 C   0  0  0  0  0  0  0  0  0  0  0  0
   35.9790   29.6080   50.5580 C   0  0  0  0  0  0  0  0  0  0  0  0
   37.3910   29.6490   51.1280 C   0  0  0  0  0  0  0  0  0  0  0  0
   36.4140   31.6580   51.2930 H   0  0  0  0  0  0  0  0  0  0  0  0
   35.2090   29.4150   51.3130 H   0  0  0  0  0  0  0  0  0  0  0  0
   35.9100   28.9630   49.6480 H   0  0  0  0  0  0  0  0  0  0  0  0
   37.5090   29.6680   52.2120 H   0  0  0  0  0  0  0  0  0  0  0  0
   38.2090   29.2120   50.5570 H   0  0  0  0  0  0  0  0  0  0  0  0
   37.1890   30.8470   45.6860 C   0  0  0  0  0  0  0  0  0  0  0  0
   36.2690   31.2880   45.2880 H   0  0  0  0  0  0  0  0  0  0  0  0
   37.1060   29.7520   45.7230 H   0  0  0  0  0  0  0  0  0  0  0  0
   38.0720   32.0590   43.6870 C   0  0  0  0  0  0  0  0  0  0  0  0
   36.9700   32.6650   43.4520 O   0  0  0  0  0  0  0  0  0  0  0  0
   38.2610   31.1390   44.7490 N   0  0  0  0  0  0  0  0  0  0  0  0
   39.1760   30.6480   44.8830 H   0  0  0  0  0  0  0  0  0  0  0  0
   39.1940   32.3690   42.7630 C   0  0  0  0  0  3  0  0  0  0  0  0
   40.2060   31.3170   42.4260 C   0  0  0  0  0  2  0  0  0  0  0  0
   39.2230   31.7330   41.3980 C   0  0  0  0  0  2  0  0  0  0  0  0
  1  2  1  0  0  0  0
  1  9  1  0  0  0  0
  2  7  1  0  0  0  0
  3  8  1  0  0  0  0
  3  2  2  0  0  0  0
  4  3  1  0  0  0  0
  5  4  2  0  0  0  0
  5  6  1  0  0  0  0
  6  1  2  0  0  0  0
  9 10  1  0  0  0  0
  9 11  1  0  0  0  0
  9 12  1  0  0  0  0
 10 11  1  0  0  0  0
 10 13  1  0  0  0  0
 11 15  1  0  0  0  0
 14 10  1  0  0  0  0
 16 11  1  0  0  0  0
 17 19  1  0  0  0  0
 17  5  1  0  0  0  0
 18 17  1  0  0  0  0
 20 22  1  0  0  0  0
 21 20  2  0  0  0  0
 22 23  1  0  0  0  0
 22 17  1  0  0  0  0
 24 20  1  0  0  0  0
 25 24  1  0  0  0  0
 26 25  1  0  0  0  0
 26 24  1  0  0  0  0
M  END
>  <minimizedAffinity>
-4.75853968

>  <minimizedRMSD>
2.67518187

$$$$
