
 OpenBabel03272508193D

 25 27  0  0  0  0  0  0  0  0999 V2000
   35.6320   30.2310   48.0150 C   0  0  0  0  0  0  0  0  0  0  0  0
   36.8940   30.6400   47.5670 C   0  0  0  0  0  0  0  0  0  0  0  0
   36.9830   30.6620   46.1960 C   0  0  0  0  0  0  0  0  0  0  0  0
   35.9570   30.3230   45.3890 N   0  0  0  0  0  0  0  0  0  0  0  0
   34.7710   29.9370   45.8460 C   0  0  0  0  0  0  0  0  0  0  0  0
   34.6040   29.8890   47.1660 N   0  0  0  0  0  0  0  0  0  0  0  0
   37.9160   30.9650   45.7370 H   0  0  0  0  0  0  0  0  0  0  0  0
   33.8880   29.6470   45.3360 H   0  0  0  0  0  0  0  0  0  0  0  0
   35.4050   30.2680   49.5230 C   0  0  0  0  0  0  0  0  0  0  0  0
   34.2730   29.6700   50.1250 C   0  0  0  0  0  0  0  0  0  0  0  0
   35.5080   28.7900   50.0630 C   0  0  0  0  0  0  0  0  0  0  0  0
   36.1430   30.8920   50.1000 H   0  0  0  0  0  0  0  0  0  0  0  0
   33.4110   29.4110   49.4410 H   0  0  0  0  0  0  0  0  0  0  0  0
   33.8810   29.9920   51.1060 H   0  0  0  0  0  0  0  0  0  0  0  0
   35.9830   28.6700   51.0430 H   0  0  0  0  0  0  0  0  0  0  0  0
   35.4280   27.9790   49.3490 H   0  0  0  0  0  0  0  0  0  0  0  0
   37.9810   30.9710   48.4820 C   0  0  0  0  0  0  0  0  0  0  0  0
   37.6020   31.1910   49.5050 H   0  0  0  0  0  0  0  0  0  0  0  0
   38.6260   30.0710   48.5810 H   0  0  0  0  0  0  0  0  0  0  0  0
   38.8160   32.1280   48.0880 C   0  0  0  0  0  0  0  0  0  0  0  0
   39.8890   31.8150   48.0800 H   0  0  0  0  0  0  0  0  0  0  0  0
   38.5970   32.3240   47.0000 H   0  0  0  0  0  0  0  0  0  0  0  0
   38.5840   33.3770   48.8390 C   0  0  0  0  0  0  0  0  0  0  0  0
   39.6900   34.4360   48.5880 C   0  0  0  0  0  0  0  0  0  0  0  0
   39.4200   33.8400   49.9570 C   0  0  0  0  0  0  0  0  0  0  0  0
  1  9  1  0  0  0  0
  2  1  1  0  0  0  0
  2 17  1  0  0  0  0
  3  2  2  0  0  0  0
  4  5  2  0  0  0  0
  4  3  1  0  0  0  0
  5  6  1  0  0  0  0
  6  1  2  0  0  0  0
  7  3  1  0  0  0  0
  8  5  1  0  0  0  0
  9 11  1  0  0  0  0
  9 12  1  0  0  0  0
  9 10  1  0  0  0  0
 10 14  1  0  0  0  0
 11 10  1  0  0  0  0
 11 15  1  0  0  0  0
 13 10  1  0  0  0  0
 16 11  1  0  0  0  0
 17 19  1  0  0  0  0
 17 18  1  0  0  0  0
 20 17  1  0  0  0  0
 20 23  1  0  0  0  0
 21 20  1  0  0  0  0
 22 20  1  0  0  0  0
 23 25  1  0  0  0  0
 24 23  1  0  0  0  0
 24 25  1  0  0  0  0
M  END
>  <minimizedAffinity>
-4.73250914

>  <minimizedRMSD>
2.24664235

$$$$
