
 OpenBabel03262521313D

 37 40  0  0  1  0  0  0  0  0999 V2000
   38.0890   27.2150   35.0910 C   0  0  1  0  0  0  0  0  0  0  0  0
   38.4930   25.8430   34.5840 C   0  0  2  0  0  0  0  0  0  0  0  0
   37.4250   25.4120   33.7780 O   0  0  0  0  0  0  0  0  0  0  0  0
   37.0510   26.5880   33.1690 C   0  0  0  0  0  0  0  0  0  0  0  0
   36.7820   27.4300   34.5290 C   0  0  2  0  0  0  0  0  0  0  0  0
   38.8020   27.9430   34.5310 H   0  0  0  0  0  0  0  0  0  0  0  0
   39.3820   25.9040   33.9380 H   0  0  0  0  0  0  0  0  0  0  0  0
   37.8330   26.9260   32.5880 H   0  0  0  0  0  0  0  0  0  0  0  0
   36.0940   26.5160   32.7090 H   0  0  0  0  0  0  0  0  0  0  0  0
   35.8890   26.8800   34.6770 H   0  0  0  0  0  0  0  0  0  0  0  0
   40.0790   23.1660   36.6840 C   0  0  0  0  0  0  0  0  0  0  0  0
   39.9300   24.0880   35.6020 C   0  0  0  0  0  0  0  0  0  0  0  0
   38.7470   24.8610   35.6450 C   0  0  0  0  0  0  0  0  0  0  0  0
   37.8240   24.7030   36.6800 N   0  0  0  0  0  0  0  0  0  0  0  0
   38.0500   23.8080   37.6570 C   0  0  0  0  0  0  0  0  0  0  0  0
   39.1580   23.0490   37.6650 N   0  0  0  0  0  0  0  0  0  0  0  0
   40.9840   22.5720   36.6570 H   0  0  0  0  0  0  0  0  0  0  0  0
   40.6750   24.1310   34.8540 H   0  0  0  0  0  0  0  0  0  0  0  0
   37.3700   23.6490   38.4780 H   0  0  0  0  0  0  0  0  0  0  0  0
   38.3140   27.4430   36.3860 O   0  0  0  0  0  0  0  0  0  0  0  0
   37.5310   27.8080   36.8490 H   0  0  0  0  0  0  0  0  0  0  0  0
   36.5830   28.7390   34.2240 O   0  0  0  0  0  0  0  0  0  0  0  0
   35.6380   30.8320   34.9340 C   0  0  1  0  0  0  0  0  0  0  0  0
   35.5230   29.3930   34.5890 C   0  0  1  0  0  0  0  0  0  0  0  0
   34.6670   29.4700   33.3010 C   0  0  0  0  0  0  0  0  0  0  0  0
   35.2640   30.5560   32.6370 O   0  0  0  0  0  0  0  0  0  0  0  0
   35.6270   31.5000   33.5900 C   0  0  0  0  0  0  0  0  0  0  0  0
   36.5780   31.0320   35.4690 H   0  0  0  0  0  0  0  0  0  0  0  0
   34.8220   28.9000   35.3000 H   0  0  0  0  0  0  0  0  0  0  0  0
   33.6200   29.7140   33.5720 H   0  0  0  0  0  0  0  0  0  0  0  0
   34.7700   28.5390   32.7560 H   0  0  0  0  0  0  0  0  0  0  0  0
   34.9630   32.3820   33.6010 H   0  0  0  0  0  0  0  0  0  0  0  0
   36.6470   31.8780   33.3060 H   0  0  0  0  0  0  0  0  0  0  0  0
   34.5690   31.2170   35.6900 O   0  0  0  0  0  0  0  0  0  0  0  0
   34.7730   31.8940   36.8420 C   0  0  0  0  0  3  0  0  0  0  0  0
   34.7220   33.4210   36.8180 C   0  0  0  0  0  2  0  0  0  0  0  0
   33.5250   32.6710   37.3150 C   0  0  0  0  0  2  0  0  0  0  0  0
  1  6  1  6  0  0  0
  1 20  1  0  0  0  0
  2  7  1  6  0  0  0
  2  1  1  0  0  0  0
  2 13  1  0  0  0  0
  3  2  1  0  0  0  0
  4  3  1  0  0  0  0
  4  5  1  0  0  0  0
  5 10  1  1  0  0  0
  5  1  1  0  0  0  0
  8  4  1  0  0  0  0
  9  4  1  0  0  0  0
 11 16  1  0  0  0  0
 12 13  1  0  0  0  0
 12 11  2  0  0  0  0
 13 14  2  0  0  0  0
 14 15  1  0  0  0  0
 15 16  2  0  0  0  0
 15 19  1  0  0  0  0
 17 11  1  0  0  0  0
 18 12  1  0  0  0  0
 20 21  1  0  0  0  0
 22  5  1  0  0  0  0
 22 24  1  0  0  0  0
 23 28  1  1  0  0  0
 23 34  1  0  0  0  0
 24 23  1  0  0  0  0
 24 29  1  1  0  0  0
 25 30  1  0  0  0  0
 25 24  1  0  0  0  0
 26 25  1  0  0  0  0
 26 27  1  0  0  0  0
 27 32  1  0  0  0  0
 27 23  1  0  0  0  0
 31 25  1  0  0  0  0
 33 27  1  0  0  0  0
 34 35  1  0  0  0  0
 35 37  1  0  0  0  0
 36 35  1  0  0  0  0
 36 37  1  0  0  0  0
M  END
>  <minimizedAffinity>
-5.08461475

$$$$

 OpenBabel03262521313D

 37 40  0  0  1  0  0  0  0  0999 V2000
   37.6950   25.6260   34.3800 C   0  0  1  0  0  0  0  0  0  0  0  0
   37.8650   25.7800   35.8800 C   0  0  2  0  0  0  0  0  0  0  0  0
   38.5800   26.9770   36.0560 O   0  0  0  0  0  0  0  0  0  0  0  0
   38.0390   27.7660   35.0660 C   0  0  0  0  0  0  0  0  0  0  0  0
   38.3700   26.7720   33.8290 C   0  0  2  0  0  0  0  0  0  0  0  0
   36.5600   25.8090   34.2050 H   0  0  0  0  0  0  0  0  0  0  0  0
   36.8920   25.9070   36.3790 H   0  0  0  0  0  0  0  0  0  0  0  0
   37.0370   27.9070   35.2630 H   0  0  0  0  0  0  0  0  0  0  0  0
   38.6280   28.6320   34.8760 H   0  0  0  0  0  0  0  0  0  0  0  0
   39.3900   27.0470   33.8980 H   0  0  0  0  0  0  0  0  0  0  0  0
   38.8640   23.0640   38.2720 C   0  0  0  0  0  0  0  0  0  0  0  0
   38.0930   24.1420   37.7370 C   0  0  0  0  0  0  0  0  0  0  0  0
   38.5830   24.6710   36.5200 C   0  0  0  0  0  0  0  0  0  0  0  0
   39.7310   24.1510   35.9230 N   0  0  0  0  0  0  0  0  0  0  0  0
   40.3930   23.1330   36.5010 C   0  0  0  0  0  0  0  0  0  0  0  0
   39.9710   22.5930   37.6570 N   0  0  0  0  0  0  0  0  0  0  0  0
   38.4940   22.6550   39.2030 H   0  0  0  0  0  0  0  0  0  0  0  0
   37.2420   24.4790   38.2640 H   0  0  0  0  0  0  0  0  0  0  0  0
   41.2840   22.6960   36.0810 H   0  0  0  0  0  0  0  0  0  0  0  0
   37.9260   24.4060   33.8930 O   0  0  0  0  0  0  0  0  0  0  0  0
   38.5320   24.4130   33.1230 H   0  0  0  0  0  0  0  0  0  0  0  0
   37.7500   27.2180   32.7050 O   0  0  0  0  0  0  0  0  0  0  0  0
   36.2800   29.0840   32.3350 C   0  0  1  0  0  0  0  0  0  0  0  0
   36.5320   27.6690   32.7040 C   0  0  1  0  0  0  0  0  0  0  0  0
   35.8610   26.9350   31.5180 C   0  0  0  0  0  0  0  0  0  0  0  0
   36.2870   27.7180   30.4320 O   0  0  0  0  0  0  0  0  0  0  0  0
   36.3020   29.0470   30.8350 C   0  0  0  0  0  0  0  0  0  0  0  0
   37.0730   29.7370   32.7280 H   0  0  0  0  0  0  0  0  0  0  0  0
   35.8690   27.3860   33.5530 H   0  0  0  0  0  0  0  0  0  0  0  0
   34.7590   26.9950   31.6270 H   0  0  0  0  0  0  0  0  0  0  0  0
   36.2390   25.9190   31.4750 H   0  0  0  0  0  0  0  0  0  0  0  0
   35.4640   29.6350   30.4200 H   0  0  0  0  0  0  0  0  0  0  0  0
   37.2420   29.5050   30.4220 H   0  0  0  0  0  0  0  0  0  0  0  0
   35.0610   29.4780   32.8060 O   0  0  0  0  0  0  0  0  0  0  0  0
   34.8470   29.5370   34.1400 C   0  0  0  0  0  3  0  0  0  0  0  0
   35.5510   30.6220   34.9520 C   0  0  0  0  0  2  0  0  0  0  0  0
   34.1150   30.8250   34.5770 C   0  0  0  0  0  2  0  0  0  0  0  0
  1  6  1  6  0  0  0
  1  2  1  0  0  0  0
  2  3  1  0  0  0  0
  2  7  1  1  0  0  0
  2 13  1  0  0  0  0
  4  8  1  0  0  0  0
  4  3  1  0  0  0  0
  5 10  1  6  0  0  0
  5  1  1  0  0  0  0
  5  4  1  0  0  0  0
  9  4  1  0  0  0  0
 11 17  1  0  0  0  0
 12 18  1  0  0  0  0
 12 11  1  0  0  0  0
 13 12  2  0  0  0  0
 14 15  2  0  0  0  0
 14 13  1  0  0  0  0
 15 16  1  0  0  0  0
 16 11  2  0  0  0  0
 19 15  1  0  0  0  0
 20  1  1  0  0  0  0
 21 20  1  0  0  0  0
 22  5  1  0  0  0  0
 23 24  1  0  0  0  0
 23 28  1  1  0  0  0
 23 34  1  0  0  0  0
 24 22  1  0  0  0  0
 24 29  1  1  0  0  0
 25 30  1  0  0  0  0
 25 24  1  0  0  0  0
 26 27  1  0  0  0  0
 26 25  1  0  0  0  0
 27 23  1  0  0  0  0
 31 25  1  0  0  0  0
 32 27  1  0  0  0  0
 33 27  1  0  0  0  0
 34 35  1  0  0  0  0
 35 37  1  0  0  0  0
 35 36  1  0  0  0  0
 37 36  1  0  0  0  0
M  END
>  <minimizedAffinity>
-4.90835714

$$$$

 OpenBabel03262521313D

 37 40  0  0  1  0  0  0  0  0999 V2000
   38.0600   27.2210   35.1090 C   0  0  1  0  0  0  0  0  0  0  0  0
   38.4800   25.8610   34.5830 C   0  0  2  0  0  0  0  0  0  0  0  0
   37.4080   25.4180   33.7900 O   0  0  0  0  0  0  0  0  0  0  0  0
   37.0040   26.5920   33.1960 C   0  0  0  0  0  0  0  0  0  0  0  0
   36.7420   27.4180   34.5670 C   0  0  2  0  0  0  0  0  0  0  0  0
   38.7520   27.9660   34.5440 H   0  0  0  0  0  0  0  0  0  0  0  0
   39.3580   25.9430   33.9250 H   0  0  0  0  0  0  0  0  0  0  0  0
   37.7720   26.9490   32.6070 H   0  0  0  0  0  0  0  0  0  0  0  0
   36.0420   26.5070   32.7500 H   0  0  0  0  0  0  0  0  0  0  0  0
   35.8600   26.8510   34.7240 H   0  0  0  0  0  0  0  0  0  0  0  0
   40.1460   23.1970   36.6400 C   0  0  0  0  0  0  0  0  0  0  0  0
   39.9650   24.1260   35.5680 C   0  0  0  0  0  0  0  0  0  0  0  0
   38.7660   24.8740   35.6320 C   0  0  0  0  0  0  0  0  0  0  0  0
   37.8600   24.6880   36.6760 N   0  0  0  0  0  0  0  0  0  0  0  0
   38.1150   23.7890   37.6420 C   0  0  0  0  0  0  0  0  0  0  0  0
   39.2390   23.0520   37.6300 N   0  0  0  0  0  0  0  0  0  0  0  0
   41.0620   22.6230   36.5960 H   0  0  0  0  0  0  0  0  0  0  0  0
   40.7000   24.1920   34.8120 H   0  0  0  0  0  0  0  0  0  0  0  0
   37.4480   23.6070   38.4690 H   0  0  0  0  0  0  0  0  0  0  0  0
   38.3000   27.4410   36.4020 O   0  0  0  0  0  0  0  0  0  0  0  0
   37.5180   27.7890   36.8790 H   0  0  0  0  0  0  0  0  0  0  0  0
   36.5150   28.7260   34.2770 O   0  0  0  0  0  0  0  0  0  0  0  0
   34.9280   30.4330   34.8630 C   0  0  1  0  0  0  0  0  0  0  0  0
   35.3240   29.2150   34.1140 C   0  0  1  0  0  0  0  0  0  0  0  0
   35.3360   29.7560   32.6630 C   0  0  0  0  0  0  0  0  0  0  0  0
   35.9620   31.0020   32.8390 O   0  0  0  0  0  0  0  0  0  0  0  0
   35.5280   31.5390   34.0450 C   0  0  0  0  0  0  0  0  0  0  0  0
   35.3460   30.4190   35.8800 H   0  0  0  0  0  0  0  0  0  0  0  0
   34.4660   28.5050   34.0860 H   0  0  0  0  0  0  0  0  0  0  0  0
   34.2920   29.8950   32.3160 H   0  0  0  0  0  0  0  0  0  0  0  0
   35.9140   29.0810   32.0420 H   0  0  0  0  0  0  0  0  0  0  0  0
   34.8060   32.3640   33.9180 H   0  0  0  0  0  0  0  0  0  0  0  0
   36.4300   31.9850   34.5480 H   0  0  0  0  0  0  0  0  0  0  0  0
   33.5670   30.5300   34.9080 O   0  0  0  0  0  0  0  0  0  0  0  0
   32.8340   29.4730   35.3250 C   0  0  0  0  0  3  0  0  0  0  0  0
   31.7180   29.7050   36.3410 C   0  0  0  0  0  2  0  0  0  0  0  0
   31.3540   29.5580   34.8960 C   0  0  0  0  0  2  0  0  0  0  0  0
  1  6  1  6  0  0  0
  1 20  1  0  0  0  0
  2  7  1  6  0  0  0
  2  1  1  0  0  0  0
  2 13  1  0  0  0  0
  3  2  1  0  0  0  0
  4  3  1  0  0  0  0
  4  5  1  0  0  0  0
  5 10  1  1  0  0  0
  5  1  1  0  0  0  0
  8  4  1  0  0  0  0
  9  4  1  0  0  0  0
 11 16  1  0  0  0  0
 12 13  1  0  0  0  0
 12 11  2  0  0  0  0
 13 14  2  0  0  0  0
 14 15  1  0  0  0  0
 15 19  1  0  0  0  0
 16 15  2  0  0  0  0
 17 11  1  0  0  0  0
 18 12  1  0  0  0  0
 20 21  1  0  0  0  0
 22  5  1  0  0  0  0
 23 34  1  0  0  0  0
 23 28  1  1  0  0  0
 24 29  1  1  0  0  0
 24 22  1  0  0  0  0
 24 23  1  0  0  0  0
 25 26  1  0  0  0  0
 25 24  1  0  0  0  0
 26 27  1  0  0  0  0
 27 33  1  0  0  0  0
 27 23  1  0  0  0  0
 30 25  1  0  0  0  0
 31 25  1  0  0  0  0
 32 27  1  0  0  0  0
 34 35  1  0  0  0  0
 35 36  1  0  0  0  0
 37 35  1  0  0  0  0
 37 36  1  0  0  0  0
M  END
>  <minimizedAffinity>
-4.83786058

$$$$

 OpenBabel03262521313D

 37 40  0  0  1  0  0  0  0  0999 V2000
   37.6760   23.2060   32.2810 C   0  0  1  0  0  0  0  0  0  0  0  0
   36.9270   22.5860   31.1150 C   0  0  2  0  0  0  0  0  0  0  0  0
   35.8160   23.4180   30.8980 O   0  0  0  0  0  0  0  0  0  0  0  0
   36.3540   24.6610   31.1390 C   0  0  0  0  0  0  0  0  0  0  0  0
   36.8830   24.3520   32.6400 C   0  0  2  0  0  0  0  0  0  0  0  0
   38.6470   23.6270   31.7980 H   0  0  0  0  0  0  0  0  0  0  0  0
   37.5330   22.6080   30.1970 H   0  0  0  0  0  0  0  0  0  0  0  0
   37.0910   24.8460   30.4410 H   0  0  0  0  0  0  0  0  0  0  0  0
   35.6050   25.4060   31.2700 H   0  0  0  0  0  0  0  0  0  0  0  0
   35.8830   24.3940   32.9870 H   0  0  0  0  0  0  0  0  0  0  0  0
   34.8270   19.6020   32.0010 C   0  0  0  0  0  0  0  0  0  0  0  0
   35.1600   20.9780   31.8030 C   0  0  0  0  0  0  0  0  0  0  0  0
   36.4800   21.2080   31.3540 C   0  0  0  0  0  0  0  0  0  0  0  0
   37.3570   20.1460   31.1330 N   0  0  0  0  0  0  0  0  0  0  0  0
   36.9560   18.8810   31.3470 C   0  0  0  0  0  0  0  0  0  0  0  0
   35.7110   18.6060   31.7730 N   0  0  0  0  0  0  0  0  0  0  0  0
   33.8170   19.4200   32.3440 H   0  0  0  0  0  0  0  0  0  0  0  0
   34.4340   21.7190   32.0070 H   0  0  0  0  0  0  0  0  0  0  0  0
   37.5940   18.0260   31.1910 H   0  0  0  0  0  0  0  0  0  0  0  0
   38.0980   22.3550   33.2170 O   0  0  0  0  0  0  0  0  0  0  0  0
   37.8570   22.6380   34.1230 H   0  0  0  0  0  0  0  0  0  0  0  0
   37.6630   25.3780   33.0710 O   0  0  0  0  0  0  0  0  0  0  0  0
   38.8450   25.1820   35.1550 C   0  0  1  0  0  0  0  0  0  0  0  0
   37.7450   25.7240   34.3200 C   0  0  1  0  0  0  0  0  0  0  0  0
   38.1290   27.2230   34.2700 C   0  0  0  0  0  0  0  0  0  0  0  0
   39.5180   27.1450   34.0680 O   0  0  0  0  0  0  0  0  0  0  0  0
   40.0030   26.0680   34.8000 C   0  0  0  0  0  0  0  0  0  0  0  0
   39.0530   24.1330   34.8940 H   0  0  0  0  0  0  0  0  0  0  0  0
   36.8060   25.7490   34.9190 H   0  0  0  0  0  0  0  0  0  0  0  0
   37.9090   27.6900   35.2500 H   0  0  0  0  0  0  0  0  0  0  0  0
   37.6120   27.6900   33.4390 H   0  0  0  0  0  0  0  0  0  0  0  0
   40.5510   26.3730   35.7090 H   0  0  0  0  0  0  0  0  0  0  0  0
   40.7480   25.5360   34.1470 H   0  0  0  0  0  0  0  0  0  0  0  0
   38.5230   25.2890   36.4770 O   0  0  0  0  0  0  0  0  0  0  0  0
   37.9310   24.2500   37.1080 C   0  0  0  0  0  3  0  0  0  0  0  0
   38.7780   23.3620   38.0190 C   0  0  0  0  0  2  0  0  0  0  0  0
   37.9080   24.4100   38.6430 C   0  0  0  0  0  2  0  0  0  0  0  0
  1  6  1  6  0  0  0
  1  5  1  0  0  0  0
  1 20  1  0  0  0  0
  2  7  1  6  0  0  0
  2 13  1  0  0  0  0
  2  1  1  0  0  0  0
  3  2  1  0  0  0  0
  3  4  1  0  0  0  0
  4  9  1  0  0  0  0
  4  5  1  0  0  0  0
  5 10  1  1  0  0  0
  5 22  1  0  0  0  0
  8  4  1  0  0  0  0
 11 17  1  0  0  0  0
 12 11  1  0  0  0  0
 12 18  1  0  0  0  0
 13 12  2  0  0  0  0
 14 15  2  0  0  0  0
 14 13  1  0  0  0  0
 15 16  1  0  0  0  0
 16 11  2  0  0  0  0
 19 15  1  0  0  0  0
 20 21  1  0  0  0  0
 22 24  1  0  0  0  0
 23 28  1  6  0  0  0
 23 34  1  0  0  0  0
 24 29  1  1  0  0  0
 24 23  1  0  0  0  0
 25 24  1  0  0  0  0
 25 30  1  0  0  0  0
 26 25  1  0  0  0  0
 26 27  1  0  0  0  0
 27 23  1  0  0  0  0
 27 32  1  0  0  0  0
 31 25  1  0  0  0  0
 33 27  1  0  0  0  0
 34 35  1  0  0  0  0
 35 36  1  0  0  0  0
 35 37  1  0  0  0  0
 36 37  1  0  0  0  0
M  END
>  <minimizedAffinity>
-4.78557301

$$$$

 OpenBabel03262521313D

 37 40  0  0  1  0  0  0  0  0999 V2000
   37.2390   26.0540   34.4980 C   0  0  1  0  0  0  0  0  0  0  0  0
   37.0740   25.8110   33.0090 C   0  0  2  0  0  0  0  0  0  0  0  0
   38.1740   25.0230   32.6340 O   0  0  0  0  0  0  0  0  0  0  0  0
   38.3080   24.2010   33.7300 C   0  0  0  0  0  0  0  0  0  0  0  0
   38.4650   25.3800   34.8330 C   0  0  2  0  0  0  0  0  0  0  0  0
   36.3870   25.4260   34.9810 H   0  0  0  0  0  0  0  0  0  0  0  0
   36.1670   25.2230   32.8000 H   0  0  0  0  0  0  0  0  0  0  0  0
   37.4580   23.6240   33.8190 H   0  0  0  0  0  0  0  0  0  0  0  0
   39.2470   23.6990   33.7430 H   0  0  0  0  0  0  0  0  0  0  0  0
   39.4480   25.5600   34.4800 H   0  0  0  0  0  0  0  0  0  0  0  0
   37.9860   28.5430   30.6000 C   0  0  0  0  0  0  0  0  0  0  0  0
   38.1230   27.3290   31.3420 C   0  0  0  0  0  0  0  0  0  0  0  0
   37.0380   27.0370   32.2010 C   0  0  0  0  0  0  0  0  0  0  0  0
   35.9410   27.8940   32.2870 N   0  0  0  0  0  0  0  0  0  0  0  0
   35.9000   29.0170   31.5490 C   0  0  0  0  0  0  0  0  0  0  0  0
   36.9030   29.3410   30.7160 N   0  0  0  0  0  0  0  0  0  0  0  0
   38.8120   28.7710   29.9400 H   0  0  0  0  0  0  0  0  0  0  0  0
   38.9960   26.7460   31.2220 H   0  0  0  0  0  0  0  0  0  0  0  0
   35.0750   29.7110   31.5790 H   0  0  0  0  0  0  0  0  0  0  0  0
   37.0200   27.3040   34.9090 O   0  0  0  0  0  0  0  0  0  0  0  0
   37.7390   27.6470   35.4800 H   0  0  0  0  0  0  0  0  0  0  0  0
   38.4130   24.8480   36.0810 O   0  0  0  0  0  0  0  0  0  0  0  0
   39.6920   23.2750   37.3740 C   0  0  1  0  0  0  0  0  0  0  0  0
   38.6900   23.6040   36.3290 C   0  0  1  0  0  0  0  0  0  0  0  0
   37.3990   23.0540   36.9810 C   0  0  0  0  0  0  0  0  0  0  0  0
   37.5550   23.4850   38.3100 O   0  0  0  0  0  0  0  0  0  0  0  0
   38.9000   23.3840   38.6430 C   0  0  0  0  0  0  0  0  0  0  0  0
   40.5220   23.9970   37.3600 H   0  0  0  0  0  0  0  0  0  0  0  0
   38.8210   22.9150   35.4640 H   0  0  0  0  0  0  0  0  0  0  0  0
   37.4080   21.9460   36.9330 H   0  0  0  0  0  0  0  0  0  0  0  0
   36.5410   23.5030   36.4930 H   0  0  0  0  0  0  0  0  0  0  0  0
   39.1180   22.5330   39.3110 H   0  0  0  0  0  0  0  0  0  0  0  0
   39.1650   24.3130   39.2200 H   0  0  0  0  0  0  0  0  0  0  0  0
   40.1600   22.0070   37.1870 O   0  0  0  0  0  0  0  0  0  0  0  0
   41.2320   21.8000   36.3870 C   0  0  0  0  0  3  0  0  0  0  0  0
   42.5800   22.3920   36.7950 C   0  0  0  0  0  2  0  0  0  0  0  0
   42.3260   20.9390   37.0550 C   0  0  0  0  0  2  0  0  0  0  0  0
  1  5  1  0  0  0  0
  1 20  1  0  0  0  0
  1  6  1  1  0  0  0
  2  7  1  6  0  0  0
  2  1  1  0  0  0  0
  3  2  1  0  0  0  0
  3  4  1  0  0  0  0
  4  9  1  0  0  0  0
  4  8  1  0  0  0  0
  4  5  1  0  0  0  0
  5 10  1  6  0  0  0
  5 22  1  0  0  0  0
 11 16  2  0  0  0  0
 11 12  1  0  0  0  0
 12 13  2  0  0  0  0
 13 14  1  0  0  0  0
 13  2  1  0  0  0  0
 15 19  1  0  0  0  0
 15 14  2  0  0  0  0
 16 15  1  0  0  0  0
 17 11  1  0  0  0  0
 18 12  1  0  0  0  0
 20 21  1  0  0  0  0
 22 24  1  0  0  0  0
 23 28  1  6  0  0  0
 23 27  1  0  0  0  0
 24 29  1  6  0  0  0
 24 25  1  0  0  0  0
 24 23  1  0  0  0  0
 25 26  1  0  0  0  0
 26 27  1  0  0  0  0
 27 33  1  0  0  0  0
 27 32  1  0  0  0  0
 30 25  1  0  0  0  0
 31 25  1  0  0  0  0
 34 23  1  0  0  0  0
 35 36  1  0  0  0  0
 35 37  1  0  0  0  0
 35 34  1  0  0  0  0
 36 37  1  0  0  0  0
M  END
>  <minimizedAffinity>
-4.7293973

$$$$

 OpenBabel03262521313D

 37 40  0  0  1  0  0  0  0  0999 V2000
   38.5900   25.9580   34.3570 C   0  0  1  0  0  0  0  0  0  0  0  0
   38.8490   24.4740   34.5450 C   0  0  2  0  0  0  0  0  0  0  0  0
   37.8050   23.8230   33.8660 O   0  0  0  0  0  0  0  0  0  0  0  0
   37.6430   24.6360   32.7680 C   0  0  0  0  0  0  0  0  0  0  0  0
   37.3760   26.0100   33.5870 C   0  0  2  0  0  0  0  0  0  0  0  0
   39.4390   26.3020   33.6400 H   0  0  0  0  0  0  0  0  0  0  0  0
   39.7900   24.1700   34.0600 H   0  0  0  0  0  0  0  0  0  0  0  0
   38.5100   24.6170   32.2090 H   0  0  0  0  0  0  0  0  0  0  0  0
   36.7280   24.4480   32.2590 H   0  0  0  0  0  0  0  0  0  0  0  0
   36.4080   25.6580   33.8350 H   0  0  0  0  0  0  0  0  0  0  0  0
   39.8860   22.8810   37.7830 C   0  0  0  0  0  0  0  0  0  0  0  0
   39.9520   23.2420   36.4010 C   0  0  0  0  0  0  0  0  0  0  0  0
   38.8790   24.0430   35.9480 C   0  0  0  0  0  0  0  0  0  0  0  0
   37.8560   24.4280   36.8140 N   0  0  0  0  0  0  0  0  0  0  0  0
   37.8770   24.0400   38.1010 C   0  0  0  0  0  0  0  0  0  0  0  0
   38.8740   23.2790   38.5840 N   0  0  0  0  0  0  0  0  0  0  0  0
   40.7050   22.2690   38.1350 H   0  0  0  0  0  0  0  0  0  0  0  0
   40.7610   22.8950   35.8150 H   0  0  0  0  0  0  0  0  0  0  0  0
   37.1120   24.3100   38.8110 H   0  0  0  0  0  0  0  0  0  0  0  0
   38.7330   26.7130   35.4470 O   0  0  0  0  0  0  0  0  0  0  0  0
   37.9700   27.3080   35.5990 H   0  0  0  0  0  0  0  0  0  0  0  0
   37.3790   27.0630   32.7280 O   0  0  0  0  0  0  0  0  0  0  0  0
   36.2840   29.1300   32.1740 C   0  0  1  0  0  0  0  0  0  0  0  0
   36.2930   27.6550   32.3350 C   0  0  1  0  0  0  0  0  0  0  0  0
   36.1280   27.2010   30.8640 C   0  0  0  0  0  0  0  0  0  0  0  0
   36.9990   28.0840   30.2040 O   0  0  0  0  0  0  0  0  0  0  0  0
   36.9150   29.3230   30.8260 C   0  0  0  0  0  0  0  0  0  0  0  0
   36.8790   29.6120   32.9640 H   0  0  0  0  0  0  0  0  0  0  0  0
   35.3270   27.3280   32.7840 H   0  0  0  0  0  0  0  0  0  0  0  0
   35.0830   27.3790   30.5410 H   0  0  0  0  0  0  0  0  0  0  0  0
   36.4390   26.1650   30.7800 H   0  0  0  0  0  0  0  0  0  0  0  0
   36.3500   30.0670   30.2370 H   0  0  0  0  0  0  0  0  0  0  0  0
   37.9640   29.7200   30.9110 H   0  0  0  0  0  0  0  0  0  0  0  0
   35.0010   29.5930   32.1950 O   0  0  0  0  0  0  0  0  0  0  0  0
   34.2120   29.3320   33.2620 C   0  0  0  0  0  3  0  0  0  0  0  0
   33.3070   30.4400   33.7990 C   0  0  0  0  0  2  0  0  0  0  0  0
   32.7060   29.3820   32.9250 C   0  0  0  0  0  2  0  0  0  0  0  0
  1  6  1  6  0  0  0
  1  2  1  0  0  0  0
  1 20  1  0  0  0  0
  2  7  1  6  0  0  0
  2 13  1  0  0  0  0
  3  2  1  0  0  0  0
  4  5  1  0  0  0  0
  4  3  1  0  0  0  0
  5 10  1  1  0  0  0
  5  1  1  0  0  0  0
  8  4  1  0  0  0  0
  9  4  1  0  0  0  0
 11 17  1  0  0  0  0
 11 16  1  0  0  0  0
 12 11  2  0  0  0  0
 13 12  1  0  0  0  0
 13 14  2  0  0  0  0
 14 15  1  0  0  0  0
 15 16  2  0  0  0  0
 15 19  1  0  0  0  0
 18 12  1  0  0  0  0
 20 21  1  0  0  0  0
 22  5  1  0  0  0  0
 23 34  1  0  0  0  0
 23 24  1  0  0  0  0
 23 28  1  1  0  0  0
 24 22  1  0  0  0  0
 24 29  1  1  0  0  0
 25 24  1  0  0  0  0
 26 27  1  0  0  0  0
 26 25  1  0  0  0  0
 27 33  1  0  0  0  0
 27 23  1  0  0  0  0
 30 25  1  0  0  0  0
 31 25  1  0  0  0  0
 32 27  1  0  0  0  0
 34 35  1  0  0  0  0
 35 36  1  0  0  0  0
 37 35  1  0  0  0  0
 37 36  1  0  0  0  0
M  END
>  <minimizedAffinity>
-4.71626616

$$$$

 OpenBabel03262521313D

 37 40  0  0  1  0  0  0  0  0999 V2000
   37.9130   23.4760   32.2540 C   0  0  1  0  0  0  0  0  0  0  0  0
   36.7750   23.1680   31.2970 C   0  0  2  0  0  0  0  0  0  0  0  0
   35.7410   24.0520   31.6480 O   0  0  0  0  0  0  0  0  0  0  0  0
   36.4470   25.1900   31.9620 C   0  0  0  0  0  0  0  0  0  0  0  0
   37.3920   24.5200   33.0970 C   0  0  2  0  0  0  0  0  0  0  0  0
   38.7170   23.9800   31.5820 H   0  0  0  0  0  0  0  0  0  0  0  0
   37.0580   23.3960   30.2580 H   0  0  0  0  0  0  0  0  0  0  0  0
   36.9390   25.5200   31.1180 H   0  0  0  0  0  0  0  0  0  0  0  0
   35.8560   25.8970   32.4940 H   0  0  0  0  0  0  0  0  0  0  0  0
   36.5630   24.4990   33.7560 H   0  0  0  0  0  0  0  0  0  0  0  0
   34.7650   20.1090   32.1320 C   0  0  0  0  0  0  0  0  0  0  0  0
   35.1500   21.4860   32.1390 C   0  0  0  0  0  0  0  0  0  0  0  0
   36.2940   21.7830   31.3630 C   0  0  0  0  0  0  0  0  0  0  0  0
   36.9640   20.7810   30.6620 N   0  0  0  0  0  0  0  0  0  0  0  0
   36.5280   19.5100   30.7150 C   0  0  0  0  0  0  0  0  0  0  0  0
   35.4460   19.1730   31.4360 N   0  0  0  0  0  0  0  0  0  0  0  0
   33.8890   19.8760   32.7240 H   0  0  0  0  0  0  0  0  0  0  0  0
   34.5890   22.1760   32.7100 H   0  0  0  0  0  0  0  0  0  0  0  0
   37.0100   18.7000   30.1910 H   0  0  0  0  0  0  0  0  0  0  0  0
   38.5240   22.4170   32.7870 O   0  0  0  0  0  0  0  0  0  0  0  0
   38.6120   22.4810   33.7610 H   0  0  0  0  0  0  0  0  0  0  0  0
   38.3650   25.3960   33.4580 O   0  0  0  0  0  0  0  0  0  0  0  0
   37.4580   27.0730   34.9220 C   0  0  1  0  0  0  0  0  0  0  0  0
   38.1360   26.6560   33.6690 C   0  0  1  0  0  0  0  0  0  0  0  0
   39.5430   27.2650   33.8840 C   0  0  0  0  0  0  0  0  0  0  0  0
   39.7760   26.9500   35.2340 O   0  0  0  0  0  0  0  0  0  0  0  0
   38.5760   27.0770   35.9220 C   0  0  0  0  0  0  0  0  0  0  0  0
   36.6760   26.3520   35.2020 H   0  0  0  0  0  0  0  0  0  0  0  0
   37.7500   27.2670   32.8210 H   0  0  0  0  0  0  0  0  0  0  0  0
   39.4910   28.3630   33.7480 H   0  0  0  0  0  0  0  0  0  0  0  0
   40.2420   26.7760   33.2140 H   0  0  0  0  0  0  0  0  0  0  0  0
   38.5310   27.9840   36.5510 H   0  0  0  0  0  0  0  0  0  0  0  0
   38.5070   26.2020   36.6260 H   0  0  0  0  0  0  0  0  0  0  0  0
   36.9220   28.3190   34.7690 O   0  0  0  0  0  0  0  0  0  0  0  0
   35.9250   28.5140   33.8760 C   0  0  0  0  0  3  0  0  0  0  0  0
   34.7090   29.3380   34.2960 C   0  0  0  0  0  2  0  0  0  0  0  0
   35.7670   29.9930   33.4610 C   0  0  0  0  0  2  0  0  0  0  0  0
  1  6  1  6  0  0  0
  1 20  1  0  0  0  0
  1  5  1  0  0  0  0
  2  7  1  6  0  0  0
  2 13  1  0  0  0  0
  2  3  1  0  0  0  0
  2  1  1  0  0  0  0
  3  4  1  0  0  0  0
  4  9  1  0  0  0  0
  4  5  1  0  0  0  0
  5 22  1  0  0  0  0
  5 10  1  1  0  0  0
  8  4  1  0  0  0  0
 11 12  1  0  0  0  0
 11 17  1  0  0  0  0
 12 18  1  0  0  0  0
 13 12  2  0  0  0  0
 14 15  2  0  0  0  0
 14 13  1  0  0  0  0
 15 16  1  0  0  0  0
 16 11  2  0  0  0  0
 19 15  1  0  0  0  0
 20 21  1  0  0  0  0
 22 24  1  0  0  0  0
 23 28  1  1  0  0  0
 23 27  1  0  0  0  0
 24 29  1  6  0  0  0
 24 25  1  0  0  0  0
 24 23  1  0  0  0  0
 25 26  1  0  0  0  0
 26 27  1  0  0  0  0
 27 32  1  0  0  0  0
 27 33  1  0  0  0  0
 30 25  1  0  0  0  0
 31 25  1  0  0  0  0
 34 23  1  0  0  0  0
 35 36  1  0  0  0  0
 35 34  1  0  0  0  0
 37 35  1  0  0  0  0
 37 36  1  0  0  0  0
M  END
>  <minimizedAffinity>
-4.61691236

$$$$

 OpenBabel03262521313D

 37 40  0  0  1  0  0  0  0  0999 V2000
   37.8480   26.0980   33.9480 C   0  0  1  0  0  0  0  0  0  0  0  0
   37.8180   27.5970   34.1870 C   0  0  2  0  0  0  0  0  0  0  0  0
   37.7710   27.7530   35.5830 O   0  0  0  0  0  0  0  0  0  0  0  0
   38.5950   26.7320   36.0000 C   0  0  0  0  0  0  0  0  0  0  0  0
   37.7910   25.5280   35.2680 C   0  0  2  0  0  0  0  0  0  0  0  0
   38.9250   25.8970   33.5600 H   0  0  0  0  0  0  0  0  0  0  0  0
   38.7460   28.0730   33.8380 H   0  0  0  0  0  0  0  0  0  0  0  0
   39.5470   26.9060   35.6440 H   0  0  0  0  0  0  0  0  0  0  0  0
   38.4890   26.5290   37.0390 H   0  0  0  0  0  0  0  0  0  0  0  0
   37.0300   25.6100   36.0020 H   0  0  0  0  0  0  0  0  0  0  0  0
   34.6110   29.4870   33.6960 C   0  0  0  0  0  0  0  0  0  0  0  0
   35.6760   28.8420   34.3980 C   0  0  0  0  0  0  0  0  0  0  0  0
   36.6750   28.2800   33.5690 C   0  0  0  0  0  0  0  0  0  0  0  0
   36.5870   28.3700   32.1800 N   0  0  0  0  0  0  0  0  0  0  0  0
   35.5450   28.9970   31.6070 C   0  0  0  0  0  0  0  0  0  0  0  0
   34.5690   29.5490   32.3470 N   0  0  0  0  0  0  0  0  0  0  0  0
   33.8440   29.9190   34.3250 H   0  0  0  0  0  0  0  0  0  0  0  0
   35.6540   28.8120   35.4540 H   0  0  0  0  0  0  0  0  0  0  0  0
   35.4310   29.0940   30.5390 H   0  0  0  0  0  0  0  0  0  0  0  0
   37.0440   25.6500   32.9820 O   0  0  0  0  0  0  0  0  0  0  0  0
   36.4940   24.8910   33.2690 H   0  0  0  0  0  0  0  0  0  0  0  0
   38.5150   24.3820   35.3450 O   0  0  0  0  0  0  0  0  0  0  0  0
   37.8610   22.4860   34.0190 C   0  0  1  0  0  0  0  0  0  0  0  0
   37.9720   23.2030   35.3140 C   0  0  1  0  0  0  0  0  0  0  0  0
   38.9880   22.3020   36.0580 C   0  0  0  0  0  0  0  0  0  0  0  0
   39.9210   22.0390   35.0410 O   0  0  0  0  0  0  0  0  0  0  0  0
   39.2300   21.8960   33.8440 C   0  0  0  0  0  0  0  0  0  0  0  0
   37.6230   23.1860   33.2050 H   0  0  0  0  0  0  0  0  0  0  0  0
   37.0430   23.0380   35.9060 H   0  0  0  0  0  0  0  0  0  0  0  0
   38.4850   21.3650   36.3710 H   0  0  0  0  0  0  0  0  0  0  0  0
   39.4140   22.8620   36.8830 H   0  0  0  0  0  0  0  0  0  0  0  0
   39.1590   20.8470   33.5070 H   0  0  0  0  0  0  0  0  0  0  0  0
   39.8200   22.4410   33.0570 H   0  0  0  0  0  0  0  0  0  0  0  0
   36.9070   21.5140   34.1050 O   0  0  0  0  0  0  0  0  0  0  0  0
   36.5740   20.8030   33.0040 C   0  0  0  0  0  3  0  0  0  0  0  0
   35.5500   19.6770   33.1360 C   0  0  0  0  0  2  0  0  0  0  0  0
   35.1000   20.9950   32.5850 C   0  0  0  0  0  2  0  0  0  0  0  0
  1  6  1  6  0  0  0
  1  2  1  0  0  0  0
  1  5  1  0  0  0  0
  2  7  1  6  0  0  0
  2  3  1  0  0  0  0
  3  4  1  0  0  0  0
  4  9  1  0  0  0  0
  5 22  1  0  0  0  0
  5  4  1  0  0  0  0
  5 10  1  1  0  0  0
  8  4  1  0  0  0  0
 11 17  1  0  0  0  0
 11 12  1  0  0  0  0
 12 18  1  0  0  0  0
 13  2  1  0  0  0  0
 13 12  2  0  0  0  0
 14 13  1  0  0  0  0
 15 14  2  0  0  0  0
 15 16  1  0  0  0  0
 16 11  2  0  0  0  0
 19 15  1  0  0  0  0
 20 21  1  0  0  0  0
 20  1  1  0  0  0  0
 23 28  1  6  0  0  0
 23 34  1  0  0  0  0
 23 24  1  0  0  0  0
 24 22  1  0  0  0  0
 24 29  1  1  0  0  0
 24 25  1  0  0  0  0
 25 30  1  0  0  0  0
 25 31  1  0  0  0  0
 26 25  1  0  0  0  0
 27 23  1  0  0  0  0
 27 26  1  0  0  0  0
 32 27  1  0  0  0  0
 33 27  1  0  0  0  0
 35 36  1  0  0  0  0
 35 34  1  0  0  0  0
 37 35  1  0  0  0  0
 37 36  1  0  0  0  0
M  END
>  <minimizedAffinity>
-4.6062851

$$$$

 OpenBabel03262521313D

 37 40  0  0  1  0  0  0  0  0999 V2000
   36.7590   28.5690   32.3860 C   0  0  1  0  0  0  0  0  0  0  0  0
   37.1530   27.8660   31.0990 C   0  0  2  0  0  0  0  0  0  0  0  0
   36.5020   28.5700   30.0730 O   0  0  0  0  0  0  0  0  0  0  0  0
   36.6000   29.8660   30.5260 C   0  0  0  0  0  0  0  0  0  0  0  0
   35.8770   29.6220   31.9570 C   0  0  2  0  0  0  0  0  0  0  0  0
   37.7380   29.0920   32.7310 H   0  0  0  0  0  0  0  0  0  0  0  0
   38.2350   27.9510   30.9160 H   0  0  0  0  0  0  0  0  0  0  0  0
   37.5960   30.1280   30.5740 H   0  0  0  0  0  0  0  0  0  0  0  0
   35.9440   30.5250   30.0070 H   0  0  0  0  0  0  0  0  0  0  0  0
   34.9440   29.5560   31.4590 H   0  0  0  0  0  0  0  0  0  0  0  0
   37.3110   24.1200   30.8930 C   0  0  0  0  0  0  0  0  0  0  0  0
   37.7870   25.4680   30.9280 C   0  0  0  0  0  0  0  0  0  0  0  0
   36.7750   26.4480   31.0500 C   0  0  0  0  0  0  0  0  0  0  0  0
   35.4310   26.0850   31.1250 N   0  0  0  0  0  0  0  0  0  0  0  0
   35.0760   24.7890   31.0830 C   0  0  0  0  0  0  0  0  0  0  0  0
   35.9970   23.8170   30.9690 N   0  0  0  0  0  0  0  0  0  0  0  0
   38.0810   23.3660   30.8010 H   0  0  0  0  0  0  0  0  0  0  0  0
   38.8250   25.6510   30.8530 H   0  0  0  0  0  0  0  0  0  0  0  0
   34.0520   24.4560   31.1380 H   0  0  0  0  0  0  0  0  0  0  0  0
   36.4180   27.7720   33.4000 O   0  0  0  0  0  0  0  0  0  0  0  0
   35.5700   28.0300   33.8160 H   0  0  0  0  0  0  0  0  0  0  0  0
   36.0140   30.7290   32.7330 O   0  0  0  0  0  0  0  0  0  0  0  0
   34.8890   30.6340   34.8560 C   0  0  1  0  0  0  0  0  0  0  0  0
   35.0590   31.1820   33.4870 C   0  0  1  0  0  0  0  0  0  0  0  0
   35.4910   32.6340   33.8070 C   0  0  0  0  0  0  0  0  0  0  0  0
   36.3970   32.4270   34.8610 O   0  0  0  0  0  0  0  0  0  0  0  0
   35.9160   31.3870   35.6480 C   0  0  0  0  0  0  0  0  0  0  0  0
   35.0900   29.5530   34.8710 H   0  0  0  0  0  0  0  0  0  0  0  0
   34.0570   31.3380   33.0260 H   0  0  0  0  0  0  0  0  0  0  0  0
   34.6110   33.2070   34.1640 H   0  0  0  0  0  0  0  0  0  0  0  0
   35.9620   33.0620   32.9290 H   0  0  0  0  0  0  0  0  0  0  0  0
   35.4900   31.7310   36.6070 H   0  0  0  0  0  0  0  0  0  0  0  0
   36.7970   30.7390   35.9090 H   0  0  0  0  0  0  0  0  0  0  0  0
   33.6260   30.8900   35.3060 O   0  0  0  0  0  0  0  0  0  0  0  0
   33.4420   31.3160   36.5760 C   0  0  0  0  0  3  0  0  0  0  0  0
   32.1640   32.0800   36.9200 C   0  0  0  0  0  2  0  0  0  0  0  0
   32.2510   30.6270   37.2770 C   0  0  0  0  0  2  0  0  0  0  0  0
  1  6  1  1  0  0  0
  1 20  1  0  0  0  0
  2  7  1  6  0  0  0
  2  1  1  0  0  0  0
  3  4  1  0  0  0  0
  3  2  1  0  0  0  0
  4  8  1  0  0  0  0
  4  5  1  0  0  0  0
  5 10  1  6  0  0  0
  5  1  1  0  0  0  0
  5 22  1  0  0  0  0
  9  4  1  0  0  0  0
 11 12  2  0  0  0  0
 11 16  1  0  0  0  0
 12 13  1  0  0  0  0
 13  2  1  0  0  0  0
 13 14  2  0  0  0  0
 15 14  1  0  0  0  0
 15 19  1  0  0  0  0
 16 15  2  0  0  0  0
 17 11  1  0  0  0  0
 18 12  1  0  0  0  0
 20 21  1  0  0  0  0
 22 24  1  0  0  0  0
 23 28  1  1  0  0  0
 23 34  1  0  0  0  0
 23 27  1  0  0  0  0
 24 29  1  6  0  0  0
 24 25  1  0  0  0  0
 24 23  1  0  0  0  0
 25 30  1  0  0  0  0
 25 26  1  0  0  0  0
 26 27  1  0  0  0  0
 27 33  1  0  0  0  0
 27 32  1  0  0  0  0
 31 25  1  0  0  0  0
 34 35  1  0  0  0  0
 35 36  1  0  0  0  0
 35 37  1  0  0  0  0
 36 37  1  0  0  0  0
M  END
>  <minimizedAffinity>
-4.56652355

$$$$
