REMARK  Name = 
REMARK  7 active torsions:
REMARK  status: ('A' for Active; 'I' for Inactive)
REMARK    1  A    between atoms: C_1  and  C_7
REMARK    2  A    between atoms: C_6  and  C_15
REMARK    3  A    between atoms: C_7  and  O_8
REMARK    4  A    between atoms: C_7  and  C_13
REMARK    5  A    between atoms: C_16  and  C_17
REMARK    6  A    between atoms: C_17  and  S_18
REMARK    7  A    between atoms: S_18  and  C_32
REMARK                            x       y       z     vdW  Elec       q    Type
REMARK                         _______ _______ _______ _____ _____    ______ ____
ROOT
ATOM      1  C   UNL     1      37.080  30.949  49.028  0.00  0.00    +0.000 A 
ATOM      2  C   UNL     1      36.812  31.879  50.034  0.00  0.00    +0.000 A 
ATOM      3  C   UNL     1      37.426  33.123  50.064  0.00  0.00    +0.000 A 
ATOM      4  C   UNL     1      38.339  33.460  49.061  0.00  0.00    +0.000 A 
ATOM      5  C   UNL     1      38.591  32.541  48.084  0.00  0.00    +0.000 A 
ATOM      6  C   UNL     1      37.959  31.306  48.086  0.00  0.00    +0.000 A 
ATOM      7  H   UNL     1      36.094  31.585  50.804  0.00  0.00    +0.000 HD
ATOM      8  H   UNL     1      37.133  33.746  50.893  0.00  0.00    +0.000 HD
ATOM      9  H   UNL     1      38.763  34.439  49.164  0.00  0.00    +0.000 HD
ATOM     10  H   UNL     1      39.320  32.946  47.381  0.00  0.00    +0.000 HD
ENDROOT
BRANCH   1  11
ATOM     11  C   UNL     1      36.463  29.640  49.020  0.00  0.00    +0.000 C 
ATOM     12  H   UNL     1      37.004  29.059  48.178  0.00  0.00    +0.000 HD
BRANCH  11  17
ATOM     13  C   UNL     1      33.614  30.147  46.822  0.00  0.00    +0.000 A 
ATOM     14  C   UNL     1      32.955  28.932  46.843  0.00  0.00    +0.000 A 
ATOM     15  C   UNL     1      33.449  27.937  47.665  0.00  0.00    +0.000 A 
ATOM     16  N   UNL     1      34.570  28.186  48.428  0.00  0.00    +0.000 NA
ATOM     17  C   UNL     1      35.154  29.365  48.362  0.00  0.00    +0.000 A 
ATOM     18  N   UNL     1      34.684  30.351  47.565  0.00  0.00    +0.000 NA
ATOM     19  H   UNL     1      33.251  30.955  46.185  0.00  0.00    +0.000 HD
ATOM     20  H   UNL     1      32.089  28.833  46.210  0.00  0.00    +0.000 HD
ATOM     21  H   UNL     1      32.937  26.985  47.687  0.00  0.00    +0.000 HD
ENDBRANCH  11  17
BRANCH  11  22
ATOM     22  O   UNL     1      36.863  28.899  49.992  0.00  0.00    +0.000 OA
ATOM     23  H   UNL     1      36.503  28.916  50.895  0.00  0.00    +0.000 HD
ENDBRANCH  11  22
ENDBRANCH   1  11
BRANCH   6  24
ATOM     24  C   UNL     1      38.342  30.419  47.012  0.00  0.00    +0.000 C 
ATOM     25  C   UNL     1      38.825  30.838  45.838  0.00  0.00    +0.000 C 
BRANCH  25  26
ATOM     26  C   UNL     1      39.285  30.023  44.690  0.00  0.00    +0.000 C 
ATOM     27  H   UNL     1      38.662  29.105  44.546  0.00  0.00    +0.000 HD
ATOM     28  H   UNL     1      40.334  29.689  44.803  0.00  0.00    +0.000 HD
BRANCH  26  29
ATOM     29  S   UNL     1      39.180  30.990  43.180  0.00  0.00    +0.000 S 
BRANCH  29  30
ATOM     30  C   UNL     1      37.426  31.347  42.799  0.00  0.00    +0.000 C 
ATOM     31  C   UNL     1      36.454  30.326  43.255  0.00  0.00    +0.000 C 
ATOM     32  C   UNL     1      36.728  30.495  41.804  0.00  0.00    +0.000 C 
ENDBRANCH  29  30
ENDBRANCH  26  29
ENDBRANCH  25  26
ENDBRANCH   6  24
TORSDOF 7
