
     RDKit          3D

 18 19  0  0  0  0  0  0  0  0999 V2000
   37.3302   30.2346   51.4178 C   0  0  0  0  0  0  0  0  0  0  0  0
   38.0803   30.7385   50.3521 C   0  0  0  0  0  0  0  0  0  0  0  0
   37.7014   30.3759   49.0501 C   0  0  0  0  0  0  0  0  0  0  0  0
   36.6123   29.5440   48.8901 N   0  0  0  0  0  0  0  0  0  0  0  0
   35.9173   29.0823   49.9665 C   0  0  0  0  0  0  0  0  0  0  0  0
   36.2841   29.4326   51.2147 N   0  0  0  0  0  0  0  0  0  0  0  0
   34.8664   28.2670   49.5978 O   0  0  0  0  0  0  0  0  0  0  0  0
   37.6326   30.5214   52.4143 H   0  0  0  0  0  0  0  0  0  0  0  0
   38.9399   31.3935   50.4507 H   0  0  0  0  0  0  0  0  0  0  0  0
   38.2422   30.7344   48.2001 H   0  0  0  0  0  0  0  0  0  0  0  0
   34.0556   27.7148   50.6209 C   0  0  0  0  0  0  0  0  0  0  0  0
   32.8717   28.4553   51.1155 C   0  0  0  0  0  0  0  0  0  0  0  0
   34.1304   28.5188   51.9158 C   0  0  0  0  0  0  0  0  0  0  0  0
   34.0018   26.6015   50.6904 H   0  0  0  0  0  0  0  0  0  0  0  0
   32.5843   29.3537   50.5568 H   0  0  0  0  0  0  0  0  0  0  0  0
   32.0481   27.8608   51.5750 H   0  0  0  0  0  0  0  0  0  0  0  0
   34.2656   27.8756   52.8259 H   0  0  0  0  0  0  0  0  0  0  0  0
   34.7446   29.4295   51.9597 H   0  0  0  0  0  0  0  0  0  0  0  0
  2  1  2  0
  3  2  1  0
  4  3  2  0
  4  5  1  0
  5  6  2  0
  6  1  1  0
  7  5  1  0
  1  8  1  0
  2  9  1  0
  3 10  1  0
 11 12  1  0
 12 13  1  0
 13 11  1  0
 11 14  1  0
 12 15  1  0
 12 16  1  0
 13 17  1  0
 13 18  1  0
  7 11  1  0
M  ISO  3   8  14   9  14  10  14
M  END
>  <DihAtoms>  (1) 
4,6,10,11

>  <DihDeg>  (1) 
-151.0529990157183

$$$$
