
 OpenBabel03272509433D

 32 34  0  0  1  0  0  0  0  0999 V2000
   37.0480   30.9280   49.0500 C   0  0  0  0  0  0  0  0  0  0  0  0
   36.7720   31.8190   50.0880 C   0  0  0  0  0  0  0  0  0  0  0  0
   37.3600   33.0740   50.1530 C   0  0  0  0  0  0  0  0  0  0  0  0
   38.2560   33.4620   49.1530 C   0  0  0  0  0  0  0  0  0  0  0  0
   38.5160   32.5810   48.1440 C   0  0  0  0  0  0  0  0  0  0  0  0
   37.9100   31.3340   48.1120 C   0  0  0  0  0  0  0  0  0  0  0  0
   36.0680   31.4860   50.8550 H   0  0  0  0  0  0  0  0  0  0  0  0
   37.0630   33.6640   51.0050 H   0  0  0  0  0  0  0  0  0  0  0  0
   38.6610   34.4460   49.2840 H   0  0  0  0  0  0  0  0  0  0  0  0
   39.2300   33.0240   47.4480 H   0  0  0  0  0  0  0  0  0  0  0  0
   36.4580   29.6080   49.0050 C   0  0  2  0  0  0  0  0  0  0  0  0
   36.9570   29.0870   48.1000 H   0  0  0  0  0  0  0  0  0  0  0  0
   33.5990   30.0030   46.7960 C   0  0  0  0  0  0  0  0  0  0  0  0
   32.8550   28.8570   47.0050 C   0  0  0  0  0  0  0  0  0  0  0  0
   33.2950   27.9580   47.9570 C   0  0  0  0  0  0  0  0  0  0  0  0
   34.4500   28.2300   48.6590 N   0  0  0  0  0  0  0  0  0  0  0  0
   35.1160   29.3390   48.4130 C   0  0  0  0  0  0  0  0  0  0  0  0
   34.6990   30.2320   47.4860 N   0  0  0  0  0  0  0  0  0  0  0  0
   33.2800   30.7350   46.0520 H   0  0  0  0  0  0  0  0  0  0  0  0
   31.9680   28.7330   46.4050 H   0  0  0  0  0  0  0  0  0  0  0  0
   32.7170   27.0600   48.1250 H   0  0  0  0  0  0  0  0  0  0  0  0
   36.9310   28.8240   49.9070 O   0  0  0  0  0  0  0  0  0  0  0  0
   36.6280   28.7820   50.8300 H   0  0  0  0  0  0  0  0  0  0  0  0
   38.3000   30.4910   47.0050 C   0  0  0  0  0  3  0  0  0  0  0  0
   38.9780   30.9280   45.9400 C   0  0  0  0  0  3  0  0  0  0  0  0
   39.4620   30.1500   44.7760 C   0  0  0  0  0  0  0  0  0  0  0  0
   39.1000   29.0920   44.7940 H   0  0  0  0  0  0  0  0  0  0  0  0
   40.5670   30.1140   44.7230 H   0  0  0  0  0  0  0  0  0  0  0  0
   38.8670   30.9000   43.2560 S   0  0  0  0  0  0  0  0  0  0  0  0
   37.5370   32.0970   43.6410 C   0  0  0  0  0  3  0  0  0  0  0  0
   36.1560   31.5750   43.5220 C   0  0  0  0  0  2  0  0  0  0  0  0
   36.6630   32.5650   42.5370 C   0  0  0  0  0  2  0  0  0  0  0  0
  1  2  1  0  0  0  0
  2  3  2  0  0  0  0
  2  7  1  0  0  0  0
  3  8  1  0  0  0  0
  4  9  1  0  0  0  0
  4  3  1  0  0  0  0
  5  4  2  0  0  0  0
  6  5  1  0  0  0  0
  6  1  2  0  0  0  0
 10  5  1  0  0  0  0
 11 12  1  6  0  0  0
 11  1  1  0  0  0  0
 11 22  1  0  0  0  0
 13 14  2  0  0  0  0
 13 18  1  0  0  0  0
 14 15  1  0  0  0  0
 15 21  1  0  0  0  0
 15 16  2  0  0  0  0
 17 16  1  0  0  0  0
 17 11  1  0  0  0  0
 18 17  2  0  0  0  0
 19 13  1  0  0  0  0
 20 14  1  0  0  0  0
 22 23  1  0  0  0  0
 24  6  1  0  0  0  0
 25 24  2  0  0  0  0
 26 27  1  0  0  0  0
 26 25  1  0  0  0  0
 28 26  1  0  0  0  0
 29 30  1  0  0  0  0
 29 26  1  0  0  0  0
 31 30  1  0  0  0  0
 32 31  1  0  0  0  0
 32 30  1  0  0  0  0
M  END
>  <minimizedAffinity>
-5.26638365

>  <minimizedRMSD>
0.604682326

$$$$
