
 OpenBabel03272510043D

 31 33  0  0  0  0  0  0  0  0999 V2000
   35.9010   30.3840   45.3970 C   0  0  0  0  0  0  0  0  0  0  0  0
   35.6000   30.1800   46.7070 C   0  0  0  0  0  0  0  0  0  0  0  0
   34.3400   29.7130   47.0680 C   0  0  0  0  0  0  0  0  0  0  0  0
   33.3530   29.4430   46.1390 C   0  0  0  0  0  0  0  0  0  0  0  0
   33.6180   29.6410   44.8070 C   0  0  0  0  0  0  0  0  0  0  0  0
   34.8710   30.1010   44.4860 C   0  0  0  0  0  0  0  0  0  0  0  0
   34.1290   29.5550   48.1350 H   0  0  0  0  0  0  0  0  0  0  0  0
   32.4240   29.0900   46.5150 H   0  0  0  0  0  0  0  0  0  0  0  0
   32.8270   29.4210   44.1410 H   0  0  0  0  0  0  0  0  0  0  0  0
   34.9520   30.2200   43.3970 H   0  0  0  0  0  0  0  0  0  0  0  0
   38.3910   31.7690   48.4980 C   0  0  0  0  0  0  0  0  0  0  0  0
   37.4570   31.4610   47.5230 C   0  0  0  0  0  0  0  0  0  0  0  0
   36.5330   30.4750   47.7370 C   0  0  0  0  0  0  0  0  0  0  0  0
   36.5810   29.8350   48.9370 N   0  0  0  0  0  0  0  0  0  0  0  0
   37.4790   30.1330   49.8820 C   0  0  0  0  0  0  0  0  0  0  0  0
   38.3790   31.0960   49.6560 N   0  0  0  0  0  0  0  0  0  0  0  0
   39.1750   32.4990   48.4950 H   0  0  0  0  0  0  0  0  0  0  0  0
   37.6580   32.1520   46.7410 H   0  0  0  0  0  0  0  0  0  0  0  0
   37.3670   29.3990   51.1710 C   0  0  0  0  0  0  0  0  0  0  0  0
   37.6850   30.1980   52.2510 F   0  0  0  0  0  0  0  0  0  0  0  0
   35.9720   29.0980   51.4100 F   0  0  0  0  0  0  0  0  0  0  0  0
   37.9530   28.2260   51.2460 F   0  0  0  0  0  0  0  0  0  0  0  0
   37.4160   30.9150   44.8250 S   0  0  0  0  0  0  0  0  0  0  0  0
   37.5440   32.4010   44.9310 O   0  0  0  0  0  0  0  0  0  0  0  0
   37.1300   30.8910   43.3420 O   0  0  0  0  0  0  0  0  0  0  0  0
   38.7800   29.9720   44.4940 C   0  0  0  0  0  0  0  0  0  0  0  0
   39.5450   29.8940   45.2700 H   0  0  0  0  0  0  0  0  0  0  0  0
   38.4000   28.8930   44.4650 H   0  0  0  0  0  0  0  0  0  0  0  0
   39.3390   30.1320   43.1070 C   0  0  0  0  0  3  0  0  0  0  0  0
   40.8640   29.8990   43.0640 C   0  0  0  0  0  2  0  0  0  0  0  0
   40.2500   31.2500   42.7710 C   0  0  0  0  0  2  0  0  0  0  0  0
  1  2  1  0  0  0  0
  2  3  2  0  0  0  0
  2 13  1  0  0  0  0
  3  7  1  0  0  0  0
  4  8  1  0  0  0  0
  4  3  1  0  0  0  0
  5  4  2  0  0  0  0
  6  5  1  0  0  0  0
  6  1  2  0  0  0  0
  9  5  1  0  0  0  0
 10  6  1  0  0  0  0
 11 16  1  0  0  0  0
 12 13  1  0  0  0  0
 12 11  2  0  0  0  0
 13 14  2  0  0  0  0
 14 15  1  0  0  0  0
 15 19  1  0  0  0  0
 16 15  2  0  0  0  0
 17 11  1  0  0  0  0
 18 12  1  0  0  0  0
 19 22  1  0  0  0  0
 19 21  1  0  0  0  0
 19 20  1  0  0  0  0
 23 24  2  0  0  0  0
 23  1  1  0  0  0  0
 25 23  2  0  0  0  0
 26 23  1  0  0  0  0
 26 27  1  0  0  0  0
 28 26  1  0  0  0  0
 29 26  1  0  0  0  0
 30 29  1  0  0  0  0
 31 30  1  0  0  0  0
 31 29  1  0  0  0  0
M  END
>  <minimizedAffinity>
-5.54543304

>  <minimizedRMSD>
2.15795422

$$$$
