
 OpenBabel03272506153D

 22 24  0  0  0  0  0  0  0  0999 V2000
   39.4280   22.5400   36.0370 C   0  0  0  0  0  0  0  0  0  0  0  0
   39.3400   22.6410   37.4380 C   0  0  0  0  0  0  0  0  0  0  0  0
   38.6670   23.7600   37.9840 C   0  0  0  0  0  0  0  0  0  0  0  0
   38.1480   24.6650   37.1150 N   0  0  0  0  0  0  0  0  0  0  0  0
   38.2600   24.5200   35.7710 C   0  0  0  0  0  0  0  0  0  0  0  0
   38.8930   23.4710   35.2330 N   0  0  0  0  0  0  0  0  0  0  0  0
   37.7130   25.4750   34.8720 N   0  0  0  0  0  0  0  0  0  0  0  0
   37.5150   26.7340   35.2870 C   0  0  0  0  0  0  0  0  0  0  0  0
   36.9800   27.5860   34.3430 C   0  0  0  0  0  0  0  0  0  0  0  0
   36.6560   27.2130   33.0520 C   0  0  0  0  0  0  0  0  0  0  0  0
   36.1700   28.0160   32.2190 O   0  0  0  0  0  0  0  0  0  0  0  0
   36.8730   25.9190   32.6740 N   0  0  0  0  0  0  0  0  0  0  0  0
   37.3990   25.0950   33.6110 C   0  0  0  0  0  0  0  0  0  0  0  0
   37.6200   23.8790   33.3030 O   0  0  0  0  0  0  0  0  0  0  0  0
   39.9540   21.6660   35.6850 H   0  0  0  0  0  0  0  0  0  0  0  0
   39.7580   21.9150   38.1260 H   0  0  0  0  0  0  0  0  0  0  0  0
   38.5700   23.8870   39.0560 H   0  0  0  0  0  0  0  0  0  0  0  0
   37.7610   27.0550   36.2930 H   0  0  0  0  0  0  0  0  0  0  0  0
   36.7900   28.6190   34.5960 H   0  0  0  0  0  0  0  0  0  0  0  0
   36.5760   25.4190   31.3630 C   0  0  0  0  0  3  0  0  0  0  0  0
   35.1940   25.4700   30.7950 C   0  0  0  0  0  2  0  0  0  0  0  0
   35.8610   24.1310   31.1700 C   0  0  0  0  0  2  0  0  0  0  0  0
  1  2  1  0  0  0  0
  2  3  2  0  0  0  0
  2 16  1  0  0  0  0
  3 17  1  0  0  0  0
  4  3  1  0  0  0  0
  5  4  2  0  0  0  0
  6  5  1  0  0  0  0
  6  1  2  0  0  0  0
  7  8  1  0  0  0  0
  7  5  1  0  0  0  0
  8 18  1  0  0  0  0
  9 19  1  0  0  0  0
  9  8  2  0  0  0  0
 10  9  1  0  0  0  0
 11 10  2  0  0  0  0
 12 10  1  0  0  0  0
 12 13  1  0  0  0  0
 13  7  1  0  0  0  0
 14 13  2  0  0  0  0
 15  1  1  0  0  0  0
 20 12  1  0  0  0  0
 21 22  1  0  0  0  0
 21 20  1  0  0  0  0
 22 20  1  0  0  0  0
M  END
>  <minimizedAffinity>
-4.80671835

$$$$

 OpenBabel03272506153D

 22 24  0  0  0  0  0  0  0  0999 V2000
   38.1190   24.4890   38.3270 C   0  0  0  0  0  0  0  0  0  0  0  0
   38.9250   23.3620   38.5680 C   0  0  0  0  0  0  0  0  0  0  0  0
   39.4420   22.6620   37.4530 C   0  0  0  0  0  0  0  0  0  0  0  0
   39.1240   23.1290   36.2170 N   0  0  0  0  0  0  0  0  0  0  0  0
   38.3430   24.2220   36.0390 C   0  0  0  0  0  0  0  0  0  0  0  0
   37.8420   24.8990   37.0790 N   0  0  0  0  0  0  0  0  0  0  0  0
   38.0170   24.7010   34.7410 N   0  0  0  0  0  0  0  0  0  0  0  0
   38.0480   23.8570   33.7010 C   0  0  0  0  0  0  0  0  0  0  0  0
   37.7180   24.4140   32.4830 C   0  0  0  0  0  0  0  0  0  0  0  0
   37.3730   25.7410   32.3010 C   0  0  0  0  0  0  0  0  0  0  0  0
   37.0770   26.2140   31.1770 O   0  0  0  0  0  0  0  0  0  0  0  0
   37.3560   26.5640   33.3900 N   0  0  0  0  0  0  0  0  0  0  0  0
   37.6830   26.0020   34.5780 C   0  0  0  0  0  0  0  0  0  0  0  0
   37.6800   26.7320   35.6220 O   0  0  0  0  0  0  0  0  0  0  0  0
   37.7550   24.9770   39.2190 H   0  0  0  0  0  0  0  0  0  0  0  0
   39.1740   22.9940   39.5570 H   0  0  0  0  0  0  0  0  0  0  0  0
   40.0690   21.7870   37.5800 H   0  0  0  0  0  0  0  0  0  0  0  0
   38.3140   22.8110   33.8130 H   0  0  0  0  0  0  0  0  0  0  0  0
   37.7170   23.8020   31.5920 H   0  0  0  0  0  0  0  0  0  0  0  0
   37.0150   27.9550   33.3230 C   0  0  0  0  0  3  0  0  0  0  0  0
   35.9500   28.5470   34.1890 C   0  0  0  0  0  2  0  0  0  0  0  0
   35.7650   28.4150   32.6640 C   0  0  0  0  0  2  0  0  0  0  0  0
  1  2  1  0  0  0  0
  1 15  1  0  0  0  0
  2 16  1  0  0  0  0
  3 17  1  0  0  0  0
  3  2  2  0  0  0  0
  4  3  1  0  0  0  0
  5  4  2  0  0  0  0
  5  6  1  0  0  0  0
  6  1  2  0  0  0  0
  7  5  1  0  0  0  0
  8 18  1  0  0  0  0
  8  7  1  0  0  0  0
  9  8  2  0  0  0  0
 10  9  1  0  0  0  0
 10 12  1  0  0  0  0
 11 10  2  0  0  0  0
 12 13  1  0  0  0  0
 13  7  1  0  0  0  0
 13 14  2  0  0  0  0
 19  9  1  0  0  0  0
 20 12  1  0  0  0  0
 20 21  1  0  0  0  0
 22 20  1  0  0  0  0
 22 21  1  0  0  0  0
M  END
>  <minimizedAffinity>
-4.64640141

$$$$

 OpenBabel03272506153D

 22 24  0  0  0  0  0  0  0  0999 V2000
   38.0790   26.9100   32.6660 C   0  0  0  0  0  0  0  0  0  0  0  0
   37.0930   27.8130   33.1040 C   0  0  0  0  0  0  0  0  0  0  0  0
   36.6490   27.7170   34.4440 C   0  0  0  0  0  0  0  0  0  0  0  0
   37.2080   26.7530   35.2210 N   0  0  0  0  0  0  0  0  0  0  0  0
   38.1560   25.9060   34.7500 C   0  0  0  0  0  0  0  0  0  0  0  0
   38.5900   25.9790   33.4860 N   0  0  0  0  0  0  0  0  0  0  0  0
   38.7330   24.9020   35.5730 N   0  0  0  0  0  0  0  0  0  0  0  0
   38.0510   24.4470   36.6340 C   0  0  0  0  0  0  0  0  0  0  0  0
   38.6930   23.4750   37.3710 C   0  0  0  0  0  0  0  0  0  0  0  0
   39.9480   22.9750   37.0760 C   0  0  0  0  0  0  0  0  0  0  0  0
   40.5020   22.0880   37.7700 O   0  0  0  0  0  0  0  0  0  0  0  0
   40.6060   23.4680   35.9870 N   0  0  0  0  0  0  0  0  0  0  0  0
   39.9630   24.4230   35.2730 C   0  0  0  0  0  0  0  0  0  0  0  0
   40.5380   24.9120   34.2470 O   0  0  0  0  0  0  0  0  0  0  0  0
   38.3720   27.0350   31.6350 H   0  0  0  0  0  0  0  0  0  0  0  0
   36.6510   28.5800   32.4780 H   0  0  0  0  0  0  0  0  0  0  0  0
   35.8930   28.3870   34.8350 H   0  0  0  0  0  0  0  0  0  0  0  0
   37.0660   24.8200   36.8890 H   0  0  0  0  0  0  0  0  0  0  0  0
   38.2130   23.0530   38.2430 H   0  0  0  0  0  0  0  0  0  0  0  0
   41.9090   23.0270   35.5840 C   0  0  0  0  0  3  0  0  0  0  0  0
   42.8520   22.3740   36.5430 C   0  0  0  0  0  2  0  0  0  0  0  0
   43.1340   23.7760   35.9670 C   0  0  0  0  0  2  0  0  0  0  0  0
  1  2  2  0  0  0  0
  1  6  1  0  0  0  0
  2  3  1  0  0  0  0
  3 17  1  0  0  0  0
  3  4  2  0  0  0  0
  5  4  1  0  0  0  0
  5  7  1  0  0  0  0
  6  5  2  0  0  0  0
  7  8  1  0  0  0  0
  8 18  1  0  0  0  0
  8  9  2  0  0  0  0
  9 19  1  0  0  0  0
 10  9  1  0  0  0  0
 10 11  2  0  0  0  0
 12 10  1  0  0  0  0
 13  7  1  0  0  0  0
 13 12  1  0  0  0  0
 14 13  2  0  0  0  0
 15  1  1  0  0  0  0
 16  2  1  0  0  0  0
 20 22  1  0  0  0  0
 20 12  1  0  0  0  0
 20 21  1  0  0  0  0
 22 21  1  0  0  0  0
M  END
>  <minimizedAffinity>
-4.57735729

$$$$

 OpenBabel03272506153D

 22 24  0  0  0  0  0  0  0  0999 V2000
   36.5900   28.0220   32.8220 C   0  0  0  0  0  0  0  0  0  0  0  0
   35.8800   27.8050   31.6260 C   0  0  0  0  0  0  0  0  0  0  0  0
   35.8030   26.4820   31.1280 C   0  0  0  0  0  0  0  0  0  0  0  0
   36.4220   25.5070   31.8430 N   0  0  0  0  0  0  0  0  0  0  0  0
   37.0930   25.7700   32.9910 C   0  0  0  0  0  0  0  0  0  0  0  0
   37.1790   27.0130   33.4800 N   0  0  0  0  0  0  0  0  0  0  0  0
   37.7360   24.7400   33.7300 N   0  0  0  0  0  0  0  0  0  0  0  0
   38.1140   23.6170   33.1030 C   0  0  0  0  0  0  0  0  0  0  0  0
   38.7290   22.6770   33.9030 C   0  0  0  0  0  0  0  0  0  0  0  0
   38.9610   22.8380   35.2570 C   0  0  0  0  0  0  0  0  0  0  0  0
   39.5250   21.9600   35.9550 O   0  0  0  0  0  0  0  0  0  0  0  0
   38.5580   23.9980   35.8530 N   0  0  0  0  0  0  0  0  0  0  0  0
   37.9560   24.9110   35.0550 C   0  0  0  0  0  0  0  0  0  0  0  0
   37.5640   26.0100   35.5670 O   0  0  0  0  0  0  0  0  0  0  0  0
   36.6120   29.0520   33.1470 H   0  0  0  0  0  0  0  0  0  0  0  0
   35.3890   28.5890   31.0610 H   0  0  0  0  0  0  0  0  0  0  0  0
   35.2700   26.2580   30.2130 H   0  0  0  0  0  0  0  0  0  0  0  0
   37.9460   23.4630   32.0430 H   0  0  0  0  0  0  0  0  0  0  0  0
   39.0650   21.7430   33.4770 H   0  0  0  0  0  0  0  0  0  0  0  0
   38.7450   24.2760   37.2470 C   0  0  0  0  0  3  0  0  0  0  0  0
   39.0720   23.1970   38.2290 C   0  0  0  0  0  2  0  0  0  0  0  0
   37.7110   23.9220   38.2530 C   0  0  0  0  0  2  0  0  0  0  0  0
  1 15  1  0  0  0  0
  1  6  1  0  0  0  0
  2  1  2  0  0  0  0
  3  2  1  0  0  0  0
  3  4  2  0  0  0  0
  4  5  1  0  0  0  0
  5  6  2  0  0  0  0
  5  7  1  0  0  0  0
  7 13  1  0  0  0  0
  8  7  1  0  0  0  0
  8  9  2  0  0  0  0
  9 10  1  0  0  0  0
 10 12  1  0  0  0  0
 10 11  2  0  0  0  0
 12 20  1  0  0  0  0
 13 14  2  0  0  0  0
 13 12  1  0  0  0  0
 16  2  1  0  0  0  0
 17  3  1  0  0  0  0
 18  8  1  0  0  0  0
 19  9  1  0  0  0  0
 20 21  1  0  0  0  0
 20 22  1  0  0  0  0
 21 22  1  0  0  0  0
M  END
>  <minimizedAffinity>
-4.55379772

$$$$

 OpenBabel03272506153D

 22 24  0  0  0  0  0  0  0  0999 V2000
   40.4650   25.2210   34.8780 C   0  0  0  0  0  0  0  0  0  0  0  0
   40.4170   26.6260   34.8290 C   0  0  0  0  0  0  0  0  0  0  0  0
   39.4210   27.2310   34.0260 C   0  0  0  0  0  0  0  0  0  0  0  0
   38.5740   26.4100   33.3530 N   0  0  0  0  0  0  0  0  0  0  0  0
   38.6630   25.0590   33.4350 C   0  0  0  0  0  0  0  0  0  0  0  0
   39.5970   24.4660   34.1880 N   0  0  0  0  0  0  0  0  0  0  0  0
   37.7700   24.2100   32.7260 N   0  0  0  0  0  0  0  0  0  0  0  0
   37.1630   24.6670   31.6220 C   0  0  0  0  0  0  0  0  0  0  0  0
   36.3160   23.7710   31.0050 C   0  0  0  0  0  0  0  0  0  0  0  0
   36.0800   22.4850   31.4550 C   0  0  0  0  0  0  0  0  0  0  0  0
   35.3020   21.6950   30.8670 O   0  0  0  0  0  0  0  0  0  0  0  0
   36.7200   22.0630   32.5840 N   0  0  0  0  0  0  0  0  0  0  0  0
   37.5480   22.9540   33.1790 C   0  0  0  0  0  0  0  0  0  0  0  0
   38.1680   22.6040   34.2360 O   0  0  0  0  0  0  0  0  0  0  0  0
   41.2470   24.8230   35.5070 H   0  0  0  0  0  0  0  0  0  0  0  0
   41.0970   27.2760   35.3680 H   0  0  0  0  0  0  0  0  0  0  0  0
   39.3380   28.3090   33.9520 H   0  0  0  0  0  0  0  0  0  0  0  0
   37.3290   25.6700   31.2450 H   0  0  0  0  0  0  0  0  0  0  0  0
   35.7870   24.0590   30.1080 H   0  0  0  0  0  0  0  0  0  0  0  0
   36.5540   20.7530   33.1440 C   0  0  0  0  0  3  0  0  0  0  0  0
   35.3250   19.9400   32.8930 C   0  0  0  0  0  2  0  0  0  0  0  0
   35.6400   20.5110   34.2910 C   0  0  0  0  0  2  0  0  0  0  0  0
  1 15  1  0  0  0  0
  2  1  1  0  0  0  0
  2 16  1  0  0  0  0
  3  2  2  0  0  0  0
  4  5  2  0  0  0  0
  4  3  1  0  0  0  0
  5  6  1  0  0  0  0
  6  1  2  0  0  0  0
  7 13  1  0  0  0  0
  7  5  1  0  0  0  0
  8  7  1  0  0  0  0
  9 10  1  0  0  0  0
  9  8  2  0  0  0  0
 10 12  1  0  0  0  0
 11 10  2  0  0  0  0
 12 20  1  0  0  0  0
 12 13  1  0  0  0  0
 13 14  2  0  0  0  0
 17  3  1  0  0  0  0
 18  8  1  0  0  0  0
 19  9  1  0  0  0  0
 20 22  1  0  0  0  0
 21 20  1  0  0  0  0
 21 22  1  0  0  0  0
M  END
>  <minimizedAffinity>
-4.42122316

$$$$

 OpenBabel03272506153D

 22 24  0  0  0  0  0  0  0  0999 V2000
   35.5190   19.7690   33.1550 C   0  0  0  0  0  0  0  0  0  0  0  0
   35.6050   19.4690   31.7830 C   0  0  0  0  0  0  0  0  0  0  0  0
   36.3660   20.3310   30.9590 C   0  0  0  0  0  0  0  0  0  0  0  0
   36.9670   21.3950   31.5510 N   0  0  0  0  0  0  0  0  0  0  0  0
   36.8530   21.6400   32.8800 C   0  0  0  0  0  0  0  0  0  0  0  0
   36.1380   20.8390   33.6780 N   0  0  0  0  0  0  0  0  0  0  0  0
   37.4870   22.7570   33.4880 N   0  0  0  0  0  0  0  0  0  0  0  0
   37.7880   23.8300   32.7430 C   0  0  0  0  0  0  0  0  0  0  0  0
   38.4010   24.8630   33.4210 C   0  0  0  0  0  0  0  0  0  0  0  0
   38.7020   24.8380   34.7710 C   0  0  0  0  0  0  0  0  0  0  0  0
   39.2600   25.7970   35.3560 O   0  0  0  0  0  0  0  0  0  0  0  0
   38.3780   23.7240   35.4890 N   0  0  0  0  0  0  0  0  0  0  0  0
   37.7770   22.7180   34.8090 C   0  0  0  0  0  0  0  0  0  0  0  0
   37.4550   21.6590   35.4400 O   0  0  0  0  0  0  0  0  0  0  0  0
   34.9230   19.0750   33.7270 H   0  0  0  0  0  0  0  0  0  0  0  0
   35.1220   18.6170   31.3170 H   0  0  0  0  0  0  0  0  0  0  0  0
   36.4670   20.1470   29.8960 H   0  0  0  0  0  0  0  0  0  0  0  0
   37.5630   23.8790   31.6830 H   0  0  0  0  0  0  0  0  0  0  0  0
   38.6760   25.7650   32.8950 H   0  0  0  0  0  0  0  0  0  0  0  0
   38.6410   23.5840   36.8920 C   0  0  0  0  0  3  0  0  0  0  0  0
   37.5670   23.2090   37.8620 C   0  0  0  0  0  2  0  0  0  0  0  0
   38.2020   24.6150   37.8690 C   0  0  0  0  0  2  0  0  0  0  0  0
  1  6  1  0  0  0  0
  1 15  1  0  0  0  0
  2  1  2  0  0  0  0
  3  4  2  0  0  0  0
  3  2  1  0  0  0  0
  4  5  1  0  0  0  0
  5  7  1  0  0  0  0
  5  6  2  0  0  0  0
  7 13  1  0  0  0  0
  8  9  2  0  0  0  0
  8  7  1  0  0  0  0
  9 10  1  0  0  0  0
 10 11  2  0  0  0  0
 10 12  1  0  0  0  0
 12 20  1  0  0  0  0
 13 14  2  0  0  0  0
 13 12  1  0  0  0  0
 16  2  1  0  0  0  0
 17  3  1  0  0  0  0
 18  8  1  0  0  0  0
 19  9  1  0  0  0  0
 20 21  1  0  0  0  0
 20 22  1  0  0  0  0
 21 22  1  0  0  0  0
M  END
>  <minimizedAffinity>
-4.3536644

$$$$

 OpenBabel03272506153D

 22 24  0  0  0  0  0  0  0  0999 V2000
   38.1940   21.4930   31.0450 C   0  0  0  0  0  0  0  0  0  0  0  0
   37.3330   20.3840   30.9410 C   0  0  0  0  0  0  0  0  0  0  0  0
   36.5750   20.0210   32.0800 C   0  0  0  0  0  0  0  0  0  0  0  0
   36.7300   20.7700   33.2020 N   0  0  0  0  0  0  0  0  0  0  0  0
   37.5740   21.8310   33.2490 C   0  0  0  0  0  0  0  0  0  0  0  0
   38.3010   22.1920   32.1850 N   0  0  0  0  0  0  0  0  0  0  0  0
   37.7280   22.6080   34.4290 N   0  0  0  0  0  0  0  0  0  0  0  0
   37.4460   22.0600   35.6200 C   0  0  0  0  0  0  0  0  0  0  0  0
   37.6250   22.8920   36.7050 C   0  0  0  0  0  0  0  0  0  0  0  0
   38.0620   24.2010   36.6200 C   0  0  0  0  0  0  0  0  0  0  0  0
   38.2140   24.9290   37.6310 O   0  0  0  0  0  0  0  0  0  0  0  0
   38.3360   24.7160   35.3860 N   0  0  0  0  0  0  0  0  0  0  0  0
   38.1550   23.8880   34.3310 C   0  0  0  0  0  0  0  0  0  0  0  0
   38.3990   24.3260   33.1590 O   0  0  0  0  0  0  0  0  0  0  0  0
   38.7430   21.7170   30.1430 H   0  0  0  0  0  0  0  0  0  0  0  0
   37.2140   19.7900   30.0430 H   0  0  0  0  0  0  0  0  0  0  0  0
   35.8960   19.1770   32.0560 H   0  0  0  0  0  0  0  0  0  0  0  0
   37.1030   21.0360   35.7180 H   0  0  0  0  0  0  0  0  0  0  0  0
   37.4210   22.5280   37.7030 H   0  0  0  0  0  0  0  0  0  0  0  0
   38.7940   26.0590   35.1750 C   0  0  0  0  0  3  0  0  0  0  0  0
   38.4000   27.1780   36.0840 C   0  0  0  0  0  2  0  0  0  0  0  0
   37.8950   27.1070   34.6290 C   0  0  0  0  0  2  0  0  0  0  0  0
  1  6  1  0  0  0  0
  2  1  2  0  0  0  0
  2  3  1  0  0  0  0
  3  4  2  0  0  0  0
  4  5  1  0  0  0  0
  5  7  1  0  0  0  0
  6  5  2  0  0  0  0
  7  8  1  0  0  0  0
  8 18  1  0  0  0  0
  8  9  2  0  0  0  0
  9 19  1  0  0  0  0
 10  9  1  0  0  0  0
 10 11  2  0  0  0  0
 12 10  1  0  0  0  0
 13  7  1  0  0  0  0
 13 12  1  0  0  0  0
 14 13  2  0  0  0  0
 15  1  1  0  0  0  0
 16  2  1  0  0  0  0
 17  3  1  0  0  0  0
 20 12  1  0  0  0  0
 20 21  1  0  0  0  0
 22 20  1  0  0  0  0
 22 21  1  0  0  0  0
M  END
>  <minimizedAffinity>
-4.3473835

$$$$

 OpenBabel03272506153D

 22 24  0  0  0  0  0  0  0  0999 V2000
   37.8770   27.4230   32.9640 C   0  0  0  0  0  0  0  0  0  0  0  0
   38.3080   27.4340   31.6250 C   0  0  0  0  0  0  0  0  0  0  0  0
   39.2650   26.4720   31.2260 C   0  0  0  0  0  0  0  0  0  0  0  0
   39.7050   25.5970   32.1670 N   0  0  0  0  0  0  0  0  0  0  0  0
   39.2560   25.6290   33.4470 C   0  0  0  0  0  0  0  0  0  0  0  0
   38.3510   26.5310   33.8460 N   0  0  0  0  0  0  0  0  0  0  0  0
   39.7240   24.7080   34.4230 N   0  0  0  0  0  0  0  0  0  0  0  0
   40.9220   24.1300   34.2630 C   0  0  0  0  0  0  0  0  0  0  0  0
   41.2880   23.2520   35.2610 C   0  0  0  0  0  0  0  0  0  0  0  0
   40.5090   22.9590   36.3650 C   0  0  0  0  0  0  0  0  0  0  0  0
   40.8750   22.1540   37.2560 O   0  0  0  0  0  0  0  0  0  0  0  0
   39.2950   23.5710   36.4860 N   0  0  0  0  0  0  0  0  0  0  0  0
   38.9500   24.4300   35.4980 C   0  0  0  0  0  0  0  0  0  0  0  0
   37.8250   25.0260   35.5690 O   0  0  0  0  0  0  0  0  0  0  0  0
   37.1480   28.1830   33.2040 H   0  0  0  0  0  0  0  0  0  0  0  0
   37.9530   28.1360   30.8780 H   0  0  0  0  0  0  0  0  0  0  0  0
   39.6320   26.4340   30.2070 H   0  0  0  0  0  0  0  0  0  0  0  0
   41.5550   24.3410   33.4080 H   0  0  0  0  0  0  0  0  0  0  0  0
   42.2400   22.7430   35.2090 H   0  0  0  0  0  0  0  0  0  0  0  0
   38.4030   23.3450   37.5850 C   0  0  0  0  0  3  0  0  0  0  0  0
   37.8720   24.4710   38.4140 C   0  0  0  0  0  2  0  0  0  0  0  0
   38.8670   23.4450   38.9930 C   0  0  0  0  0  2  0  0  0  0  0  0
  1 15  1  0  0  0  0
  1  6  1  0  0  0  0
  2  1  2  0  0  0  0
  3  2  1  0  0  0  0
  3  4  2  0  0  0  0
  4  5  1  0  0  0  0
  5  6  2  0  0  0  0
  5  7  1  0  0  0  0
  7 13  1  0  0  0  0
  8  7  1  0  0  0  0
  8  9  2  0  0  0  0
  9 10  1  0  0  0  0
 10 12  1  0  0  0  0
 10 11  2  0  0  0  0
 12 20  1  0  0  0  0
 13 14  2  0  0  0  0
 13 12  1  0  0  0  0
 16  2  1  0  0  0  0
 17  3  1  0  0  0  0
 18  8  1  0  0  0  0
 19  9  1  0  0  0  0
 20 21  1  0  0  0  0
 20 22  1  0  0  0  0
 21 22  1  0  0  0  0
M  END
>  <minimizedAffinity>
-4.26219988

$$$$

 OpenBabel03272506153D

 22 24  0  0  0  0  0  0  0  0999 V2000
   40.9020   22.8620   36.2070 C   0  0  0  0  0  0  0  0  0  0  0  0
   40.4150   22.4600   37.4650 C   0  0  0  0  0  0  0  0  0  0  0  0
   39.2220   23.0550   37.9390 C   0  0  0  0  0  0  0  0  0  0  0  0
   38.6240   23.9800   37.1440 N   0  0  0  0  0  0  0  0  0  0  0  0
   39.1350   24.3320   35.9380 C   0  0  0  0  0  0  0  0  0  0  0  0
   40.2620   23.7820   35.4700 N   0  0  0  0  0  0  0  0  0  0  0  0
   38.5000   25.3010   35.1150 N   0  0  0  0  0  0  0  0  0  0  0  0
   37.6980   26.2180   35.6750 C   0  0  0  0  0  0  0  0  0  0  0  0
   37.1280   27.1140   34.7950 C   0  0  0  0  0  0  0  0  0  0  0  0
   37.3390   27.1060   33.4280 C   0  0  0  0  0  0  0  0  0  0  0  0
   36.8030   27.9380   32.6580 O   0  0  0  0  0  0  0  0  0  0  0  0
   38.1620   26.1530   32.9030 N   0  0  0  0  0  0  0  0  0  0  0  0
   38.7150   25.2800   33.7790 C   0  0  0  0  0  0  0  0  0  0  0  0
   39.4910   24.3740   33.3330 O   0  0  0  0  0  0  0  0  0  0  0  0
   41.8140   22.3710   35.9050 H   0  0  0  0  0  0  0  0  0  0  0  0
   40.8980   21.7210   38.0950 H   0  0  0  0  0  0  0  0  0  0  0  0
   38.8020   22.7830   38.9000 H   0  0  0  0  0  0  0  0  0  0  0  0
   37.5150   26.2490   36.7430 H   0  0  0  0  0  0  0  0  0  0  0  0
   36.4690   27.8870   35.1640 H   0  0  0  0  0  0  0  0  0  0  0  0
   38.4550   26.0470   31.5030 C   0  0  0  0  0  3  0  0  0  0  0  0
   39.8320   26.2730   30.9660 C   0  0  0  0  0  2  0  0  0  0  0  0
   38.6790   27.2530   30.6650 C   0  0  0  0  0  2  0  0  0  0  0  0
  1  2  1  0  0  0  0
  2  3  2  0  0  0  0
  2 16  1  0  0  0  0
  3 17  1  0  0  0  0
  4  3  1  0  0  0  0
  5  4  2  0  0  0  0
  6  5  1  0  0  0  0
  6  1  2  0  0  0  0
  7  8  1  0  0  0  0
  7  5  1  0  0  0  0
  8 18  1  0  0  0  0
  9 19  1  0  0  0  0
  9  8  2  0  0  0  0
 10  9  1  0  0  0  0
 11 10  2  0  0  0  0
 12 10  1  0  0  0  0
 12 13  1  0  0  0  0
 13  7  1  0  0  0  0
 14 13  2  0  0  0  0
 15  1  1  0  0  0  0
 20 12  1  0  0  0  0
 21 20  1  0  0  0  0
 22 21  1  0  0  0  0
 22 20  1  0  0  0  0
M  END
>  <minimizedAffinity>
-4.25711727

$$$$
