
 OpenBabel03272507223D

 37 41  0  0  1  0  0  0  0  0999 V2000
   38.1800   24.4720   34.9730 C   0  0  0  0  0  0  0  0  0  0  0  0
   38.6380   23.6900   33.9390 C   0  0  0  0  0  0  0  0  0  0  0  0
   38.4570   24.2240   32.6590 C   0  0  0  0  0  0  0  0  0  0  0  0
   37.8640   25.4410   32.4930 N   0  0  0  0  0  0  0  0  0  0  0  0
   37.4240   26.1850   33.5340 C   0  0  0  0  0  0  0  0  0  0  0  0
   37.5910   25.6840   34.7870 N   0  0  0  0  0  0  0  0  0  0  0  0
   39.1030   22.7410   34.0260 H   0  0  0  0  0  0  0  0  0  0  0  0
   38.7950   23.6540   31.8210 H   0  0  0  0  0  0  0  0  0  0  0  0
   36.6250   27.9380   32.0480 C   0  0  0  0  0  0  0  0  0  0  0  0
   36.7860   27.4890   33.3390 C   0  0  0  0  0  0  0  0  0  0  0  0
   36.3510   28.2720   34.3930 C   0  0  0  0  0  0  0  0  0  0  0  0
   35.7510   29.5050   34.2180 C   0  0  0  0  0  0  0  0  0  0  0  0
   35.2550   30.4420   35.0560 N   0  0  0  0  0  0  0  0  0  0  0  0
   34.8020   31.4360   34.2560 C   0  0  0  0  0  0  0  0  0  0  0  0
   35.0090   31.1330   32.9650 N   0  0  0  0  0  0  0  0  0  0  0  0
   35.6070   29.9220   32.8940 C   0  0  0  0  0  0  0  0  0  0  0  0
   36.0280   29.1660   31.8310 C   0  0  0  0  0  0  0  0  0  0  0  0
   36.9630   27.3290   31.2200 H   0  0  0  0  0  0  0  0  0  0  0  0
   36.4860   27.9060   35.4090 H   0  0  0  0  0  0  0  0  0  0  0  0
   35.2330   30.3900   36.0990 H   0  0  0  0  0  0  0  0  0  0  0  0
   34.3400   32.3430   34.6220 H   0  0  0  0  0  0  0  0  0  0  0  0
   35.9070   29.5060   30.8100 H   0  0  0  0  0  0  0  0  0  0  0  0
   38.3420   23.9270   36.3750 C   0  0  1  0  0  0  0  0  0  0  0  0
   37.6660   22.7200   36.7890 C   0  0  2  0  0  0  0  0  0  0  0  0
   39.1570   22.6390   36.3900 C   0  0  2  0  0  0  0  0  0  0  0  0
   38.5480   24.7310   37.1190 H   0  0  0  0  0  0  0  0  0  0  0  0
   37.7530   22.3720   37.8790 H   0  0  0  0  0  0  0  0  0  0  0  0
   39.3260   22.1100   35.4530 H   0  0  0  0  0  0  0  0  0  0  0  0
   40.2350   22.5950   37.4150 C   0  0  0  0  0  3  0  0  0  0  0  0
   41.2560   21.5220   37.4330 C   0  0  0  0  0  2  0  0  0  0  0  0
   41.6170   22.8640   36.8400 C   0  0  0  0  0  2  0  0  0  0  0  0
   36.8430   22.0840   35.9260 O   0  0  0  0  0  0  0  0  0  0  0  0
   35.9150   21.1330   35.9530 C   0  0  0  0  0  0  0  0  0  0  0  0
   35.6630   20.5970   34.8290 O   0  0  0  0  0  0  0  0  0  0  0  0
   35.3640   20.8630   37.1810 N   0  0  0  0  0  0  0  0  0  0  0  0
   34.9340   21.5260   37.8610 H   0  0  0  0  0  0  0  0  0  0  0  0
   35.4500   19.8310   37.3340 H   0  0  0  0  0  0  0  0  0  0  0  0
  1 23  1  0  0  0  0
  2  7  1  0  0  0  0
  2  1  2  0  0  0  0
  3  2  1  0  0  0  0
  4  3  2  0  0  0  0
  4  5  1  0  0  0  0
  5  6  2  0  0  0  0
  6  1  1  0  0  0  0
  8  3  1  0  0  0  0
  9 10  1  0  0  0  0
 10  5  1  0  0  0  0
 10 11  2  0  0  0  0
 11 19  1  0  0  0  0
 12 11  1  0  0  0  0
 12 13  1  0  0  0  0
 13 20  1  0  0  0  0
 14 21  1  0  0  0  0
 14 13  1  0  0  0  0
 15 14  2  0  0  0  0
 16 15  1  0  0  0  0
 16 12  2  0  0  0  0
 17  9  2  0  0  0  0
 17 16  1  0  0  0  0
 18  9  1  0  0  0  0
 22 17  1  0  0  0  0
 23 25  1  0  0  0  0
 23 24  1  0  0  0  0
 23 26  1  1  0  0  0
 24 27  1  1  0  0  0
 25 28  1  6  0  0  0
 25 24  1  0  0  0  0
 25 29  1  0  0  0  0
 29 30  1  0  0  0  0
 31 29  1  0  0  0  0
 31 30  1  0  0  0  0
 32 33  1  0  0  0  0
 32 24  1  0  0  0  0
 33 35  1  0  0  0  0
 34 33  2  0  0  0  0
 35 37  1  0  0  0  0
 35 36  1  0  0  0  0
M  END
>  <minimizedAffinity>
-6.0654645

$$$$

 OpenBabel03272507223D

 37 41  0  0  1  0  0  0  0  0999 V2000
   39.2630   24.3970   34.5030 C   0  0  0  0  0  0  0  0  0  0  0  0
   40.4960   24.8640   34.8970 C   0  0  0  0  0  0  0  0  0  0  0  0
   40.6640   26.2500   34.8200 C   0  0  0  0  0  0  0  0  0  0  0  0
   39.6490   27.0480   34.3790 N   0  0  0  0  0  0  0  0  0  0  0  0
   38.4470   26.5550   33.9980 C   0  0  0  0  0  0  0  0  0  0  0  0
   38.2640   25.2090   34.0660 N   0  0  0  0  0  0  0  0  0  0  0  0
   41.3080   24.2780   35.2440 H   0  0  0  0  0  0  0  0  0  0  0  0
   41.6040   26.6620   35.1150 H   0  0  0  0  0  0  0  0  0  0  0  0
   37.1750   27.5250   32.1660 C   0  0  0  0  0  0  0  0  0  0  0  0
   37.3680   27.4240   33.5260 C   0  0  0  0  0  0  0  0  0  0  0  0
   36.5520   28.1370   34.3850 C   0  0  0  0  0  0  0  0  0  0  0  0
   35.5330   28.9610   33.9480 C   0  0  0  0  0  0  0  0  0  0  0  0
   34.6220   29.7470   34.5630 N   0  0  0  0  0  0  0  0  0  0  0  0
   33.8960   30.3050   33.5660 C   0  0  0  0  0  0  0  0  0  0  0  0
   34.3370   29.8850   32.3700 N   0  0  0  0  0  0  0  0  0  0  0  0
   35.3710   29.0340   32.5630 C   0  0  0  0  0  0  0  0  0  0  0  0
   36.1650   28.3390   31.6880 C   0  0  0  0  0  0  0  0  0  0  0  0
   37.8090   26.9700   31.4890 H   0  0  0  0  0  0  0  0  0  0  0  0
   36.7160   28.0480   35.4580 H   0  0  0  0  0  0  0  0  0  0  0  0
   34.5160   29.8800   35.5940 H   0  0  0  0  0  0  0  0  0  0  0  0
   33.0760   30.9930   33.7270 H   0  0  0  0  0  0  0  0  0  0  0  0
   36.0230   28.4090   30.6160 H   0  0  0  0  0  0  0  0  0  0  0  0
   39.0430   22.9010   34.5570 C   0  0  1  0  0  0  0  0  0  0  0  0
   38.4260   22.2780   35.7040 C   0  0  2  0  0  0  0  0  0  0  0  0
   37.5650   22.5430   34.4470 C   0  0  2  0  0  0  0  0  0  0  0  0
   39.8020   22.3420   33.9630 H   0  0  0  0  0  0  0  0  0  0  0  0
   38.3370   21.1350   35.7450 H   0  0  0  0  0  0  0  0  0  0  0  0
   36.8200   23.3240   34.5890 H   0  0  0  0  0  0  0  0  0  0  0  0
   37.2570   21.4600   33.4750 C   0  0  0  0  0  3  0  0  0  0  0  0
   35.9600   20.7440   33.4840 C   0  0  0  0  0  2  0  0  0  0  0  0
   36.1800   21.8460   32.4730 C   0  0  0  0  0  2  0  0  0  0  0  0
   38.0710   23.0350   36.7670 O   0  0  0  0  0  0  0  0  0  0  0  0
   38.5490   23.3540   37.9650 C   0  0  0  0  0  0  0  0  0  0  0  0
   37.9260   24.2870   38.5610 O   0  0  0  0  0  0  0  0  0  0  0  0
   39.6400   22.6370   38.3890 N   0  0  0  0  0  0  0  0  0  0  0  0
   40.5440   22.4720   37.8950 H   0  0  0  0  0  0  0  0  0  0  0  0
   39.4080   22.2610   39.3390 H   0  0  0  0  0  0  0  0  0  0  0  0
  1 23  1  0  0  0  0
  1  2  1  0  0  0  0
  2  7  1  0  0  0  0
  3  2  2  0  0  0  0
  3  8  1  0  0  0  0
  4  3  1  0  0  0  0
  5  6  1  0  0  0  0
  5  4  2  0  0  0  0
  6  1  2  0  0  0  0
  9 10  1  0  0  0  0
 10  5  1  0  0  0  0
 10 11  2  0  0  0  0
 11 19  1  0  0  0  0
 12 11  1  0  0  0  0
 12 13  1  0  0  0  0
 13 20  1  0  0  0  0
 14 21  1  0  0  0  0
 14 13  1  0  0  0  0
 15 16  1  0  0  0  0
 15 14  2  0  0  0  0
 16 12  2  0  0  0  0
 17  9  2  0  0  0  0
 17 16  1  0  0  0  0
 18  9  1  0  0  0  0
 22 17  1  0  0  0  0
 23 26  1  6  0  0  0
 23 24  1  0  0  0  0
 24 27  1  1  0  0  0
 24 32  1  0  0  0  0
 25 23  1  0  0  0  0
 25 28  1  1  0  0  0
 25 24  1  0  0  0  0
 29 30  1  0  0  0  0
 29 25  1  0  0  0  0
 31 29  1  0  0  0  0
 31 30  1  0  0  0  0
 32 33  1  0  0  0  0
 33 35  1  0  0  0  0
 33 34  2  0  0  0  0
 35 37  1  0  0  0  0
 36 35  1  0  0  0  0
M  END
>  <minimizedAffinity>
-6.0030365

$$$$

 OpenBabel03272507223D

 37 41  0  0  1  0  0  0  0  0999 V2000
   37.5420   26.5450   33.7890 C   0  0  0  0  0  0  0  0  0  0  0  0
   37.8970   26.7040   32.4700 C   0  0  0  0  0  0  0  0  0  0  0  0
   37.3870   27.8480   31.8470 C   0  0  0  0  0  0  0  0  0  0  0  0
   36.5960   28.7190   32.5370 N   0  0  0  0  0  0  0  0  0  0  0  0
   36.2650   28.5310   33.8360 C   0  0  0  0  0  0  0  0  0  0  0  0
   36.7520   27.4250   34.4600 N   0  0  0  0  0  0  0  0  0  0  0  0
   38.5070   26.0520   31.8990 H   0  0  0  0  0  0  0  0  0  0  0  0
   37.6340   28.0170   30.8220 H   0  0  0  0  0  0  0  0  0  0  0  0
   34.0500   29.3340   34.4390 C   0  0  0  0  0  0  0  0  0  0  0  0
   35.4140   29.4750   34.5630 C   0  0  0  0  0  0  0  0  0  0  0  0
   35.9260   30.4870   35.3540 C   0  0  0  0  0  0  0  0  0  0  0  0
   35.1290   31.3830   36.0420 C   0  0  0  0  0  0  0  0  0  0  0  0
   35.3740   32.4340   36.8560 N   0  0  0  0  0  0  0  0  0  0  0  0
   34.1550   32.9060   37.2080 C   0  0  0  0  0  0  0  0  0  0  0  0
   33.1830   32.1780   36.6360 N   0  0  0  0  0  0  0  0  0  0  0  0
   33.7530   31.2040   35.8890 C   0  0  0  0  0  0  0  0  0  0  0  0
   33.2180   30.2100   35.1120 C   0  0  0  0  0  0  0  0  0  0  0  0
   33.6430   28.5440   33.8230 H   0  0  0  0  0  0  0  0  0  0  0  0
   37.0060   30.5870   35.4430 H   0  0  0  0  0  0  0  0  0  0  0  0
   36.3130   32.7900   37.1410 H   0  0  0  0  0  0  0  0  0  0  0  0
   34.0020   33.7540   37.8630 H   0  0  0  0  0  0  0  0  0  0  0  0
   32.1470   30.0870   35.0070 H   0  0  0  0  0  0  0  0  0  0  0  0
   38.0600   25.3130   34.4990 C   0  0  1  0  0  0  0  0  0  0  0  0
   39.4030   25.2650   35.0250 C   0  0  2  0  0  0  0  0  0  0  0  0
   38.2340   25.5520   35.9940 C   0  0  2  0  0  0  0  0  0  0  0  0
   37.5740   24.3800   34.1320 H   0  0  0  0  0  0  0  0  0  0  0  0
   39.7900   24.2920   35.4940 H   0  0  0  0  0  0  0  0  0  0  0  0
   38.2240   26.5740   36.3700 H   0  0  0  0  0  0  0  0  0  0  0  0
   37.6670   24.4880   36.8650 C   0  0  0  0  0  3  0  0  0  0  0  0
   38.5290   23.6080   37.6890 C   0  0  0  0  0  2  0  0  0  0  0  0
   37.8350   24.7780   38.3490 C   0  0  0  0  0  2  0  0  0  0  0  0
   40.2300   26.3210   34.8510 O   0  0  0  0  0  0  0  0  0  0  0  0
   41.4230   26.5750   34.3240 C   0  0  0  0  0  0  0  0  0  0  0  0
   42.3790   25.8890   34.8040 O   0  0  0  0  0  0  0  0  0  0  0  0
   41.4560   27.5340   33.3430 N   0  0  0  0  0  0  0  0  0  0  0  0
   41.0820   28.5070   33.3700 H   0  0  0  0  0  0  0  0  0  0  0  0
   41.9420   27.1100   32.5180 H   0  0  0  0  0  0  0  0  0  0  0  0
  1  6  1  0  0  0  0
  1 23  1  0  0  0  0
  2  1  2  0  0  0  0
  3  2  1  0  0  0  0
  3  4  2  0  0  0  0
  4  5  1  0  0  0  0
  5  6  2  0  0  0  0
  5 10  1  0  0  0  0
  7  2  1  0  0  0  0
  8  3  1  0  0  0  0
  9 10  2  0  0  0  0
  9 17  1  0  0  0  0
 10 11  1  0  0  0  0
 11 19  1  0  0  0  0
 11 12  2  0  0  0  0
 12 13  1  0  0  0  0
 13 20  1  0  0  0  0
 13 14  1  0  0  0  0
 14 21  1  0  0  0  0
 15 14  2  0  0  0  0
 16 12  1  0  0  0  0
 16 15  1  0  0  0  0
 17 16  2  0  0  0  0
 18  9  1  0  0  0  0
 22 17  1  0  0  0  0
 23 26  1  6  0  0  0
 23 24  1  0  0  0  0
 23 25  1  0  0  0  0
 24 27  1  1  0  0  0
 24 25  1  0  0  0  0
 25 28  1  1  0  0  0
 25 29  1  0  0  0  0
 29 30  1  0  0  0  0
 29 31  1  0  0  0  0
 30 31  1  0  0  0  0
 32 24  1  0  0  0  0
 33 34  2  0  0  0  0
 33 32  1  0  0  0  0
 35 36  1  0  0  0  0
 35 33  1  0  0  0  0
 37 35  1  0  0  0  0
M  END
>  <minimizedAffinity>
-5.81345701

$$$$

 OpenBabel03272507223D

 37 41  0  0  1  0  0  0  0  0999 V2000
   35.7380   29.5300   32.4030 C   0  0  0  0  0  0  0  0  0  0  0  0
   35.9410   29.3910   31.0500 C   0  0  0  0  0  0  0  0  0  0  0  0
   36.6920   28.2750   30.6680 C   0  0  0  0  0  0  0  0  0  0  0  0
   37.1710   27.4080   31.6060 N   0  0  0  0  0  0  0  0  0  0  0  0
   36.9530   27.5740   32.9320 C   0  0  0  0  0  0  0  0  0  0  0  0
   36.2240   28.6540   33.3230 N   0  0  0  0  0  0  0  0  0  0  0  0
   35.5870   30.0410   30.2910 H   0  0  0  0  0  0  0  0  0  0  0  0
   36.8780   28.1230   29.6280 H   0  0  0  0  0  0  0  0  0  0  0  0
   37.7600   27.1250   35.1820 C   0  0  0  0  0  0  0  0  0  0  0  0
   37.4750   26.6360   33.9270 C   0  0  0  0  0  0  0  0  0  0  0  0
   37.6900   25.2980   33.6510 C   0  0  0  0  0  0  0  0  0  0  0  0
   38.1850   24.4060   34.5840 C   0  0  0  0  0  0  0  0  0  0  0  0
   38.4810   23.0880   34.5670 N   0  0  0  0  0  0  0  0  0  0  0  0
   38.9370   22.8060   35.8100 C   0  0  0  0  0  0  0  0  0  0  0  0
   38.9270   23.9080   36.5770 N   0  0  0  0  0  0  0  0  0  0  0  0
   38.4590   24.9430   35.8430 C   0  0  0  0  0  0  0  0  0  0  0  0
   38.2550   26.2650   36.1440 C   0  0  0  0  0  0  0  0  0  0  0  0
   37.5920   28.1700   35.4040 H   0  0  0  0  0  0  0  0  0  0  0  0
   37.4610   24.9250   32.6550 H   0  0  0  0  0  0  0  0  0  0  0  0
   38.3730   22.4400   33.7550 H   0  0  0  0  0  0  0  0  0  0  0  0
   39.2610   21.8230   36.1270 H   0  0  0  0  0  0  0  0  0  0  0  0
   38.4740   26.6620   37.1270 H   0  0  0  0  0  0  0  0  0  0  0  0
   34.9420   30.7320   32.8620 C   0  0  1  0  0  0  0  0  0  0  0  0
   33.5650   30.6030   33.2740 C   0  0  2  0  0  0  0  0  0  0  0  0
   34.6620   30.6870   34.3600 C   0  0  2  0  0  0  0  0  0  0  0  0
   35.2920   31.6760   32.3830 H   0  0  0  0  0  0  0  0  0  0  0  0
   32.9680   31.5430   33.5480 H   0  0  0  0  0  0  0  0  0  0  0  0
   34.8120   29.7520   34.8970 H   0  0  0  0  0  0  0  0  0  0  0  0
   34.9420   31.9560   35.0830 C   0  0  0  0  0  3  0  0  0  0  0  0
   34.8600   32.0510   36.5600 C   0  0  0  0  0  2  0  0  0  0  0  0
   36.2170   31.9030   35.9110 C   0  0  0  0  0  2  0  0  0  0  0  0
   32.9590   29.3950   33.2150 O   0  0  0  0  0  0  0  0  0  0  0  0
   31.7390   28.8860   33.3500 C   0  0  0  0  0  0  0  0  0  0  0  0
   30.9720   29.5290   34.1340 O   0  0  0  0  0  0  0  0  0  0  0  0
   31.4780   27.7480   32.6300 N   0  0  0  0  0  0  0  0  0  0  0  0
   32.0200   26.8580   32.5990 H   0  0  0  0  0  0  0  0  0  0  0  0
   30.6010   27.9250   32.0860 H   0  0  0  0  0  0  0  0  0  0  0  0
  1 23  1  0  0  0  0
  1  6  1  0  0  0  0
  2  1  2  0  0  0  0
  3  2  1  0  0  0  0
  3  4  2  0  0  0  0
  4  5  1  0  0  0  0
  5  6  2  0  0  0  0
  5 10  1  0  0  0  0
  7  2  1  0  0  0  0
  8  3  1  0  0  0  0
  9 18  1  0  0  0  0
  9 17  1  0  0  0  0
 10  9  2  0  0  0  0
 11 10  1  0  0  0  0
 11 12  2  0  0  0  0
 12 16  1  0  0  0  0
 13 12  1  0  0  0  0
 13 14  1  0  0  0  0
 14 21  1  0  0  0  0
 14 15  2  0  0  0  0
 16 17  2  0  0  0  0
 16 15  1  0  0  0  0
 17 22  1  0  0  0  0
 19 11  1  0  0  0  0
 20 13  1  0  0  0  0
 23 26  1  6  0  0  0
 23 24  1  0  0  0  0
 23 25  1  0  0  0  0
 24 27  1  6  0  0  0
 24 25  1  0  0  0  0
 25 28  1  1  0  0  0
 25 29  1  0  0  0  0
 29 31  1  0  0  0  0
 29 30  1  0  0  0  0
 31 30  1  0  0  0  0
 32 24  1  0  0  0  0
 32 33  1  0  0  0  0
 33 34  2  0  0  0  0
 35 33  1  0  0  0  0
 36 35  1  0  0  0  0
 37 35  1  0  0  0  0
M  END
>  <minimizedAffinity>
-5.79685545

$$$$

 OpenBabel03272507223D

 37 41  0  0  1  0  0  0  0  0999 V2000
   37.2610   28.1140   31.6080 C   0  0  0  0  0  0  0  0  0  0  0  0
   37.4760   28.8980   30.4970 C   0  0  0  0  0  0  0  0  0  0  0  0
   36.8220   30.1340   30.5010 C   0  0  0  0  0  0  0  0  0  0  0  0
   36.0340   30.4990   31.5530 N   0  0  0  0  0  0  0  0  0  0  0  0
   35.8430   29.7020   32.6310 C   0  0  0  0  0  0  0  0  0  0  0  0
   36.4710   28.4960   32.6470 N   0  0  0  0  0  0  0  0  0  0  0  0
   38.0790   28.6510   29.6610 H   0  0  0  0  0  0  0  0  0  0  0  0
   36.9570   30.7790   29.6610 H   0  0  0  0  0  0  0  0  0  0  0  0
   33.7530   29.5190   33.8610 C   0  0  0  0  0  0  0  0  0  0  0  0
   34.9930   30.1070   33.7520 C   0  0  0  0  0  0  0  0  0  0  0  0
   35.3870   31.0460   34.6880 C   0  0  0  0  0  0  0  0  0  0  0  0
   34.5900   31.4350   35.7480 C   0  0  0  0  0  0  0  0  0  0  0  0
   34.7340   32.3100   36.7680 N   0  0  0  0  0  0  0  0  0  0  0  0
   33.5810   32.2320   37.4730 C   0  0  0  0  0  0  0  0  0  0  0  0
   32.7450   31.3430   36.9140 N   0  0  0  0  0  0  0  0  0  0  0  0
   33.3420   30.8150   35.8210 C   0  0  0  0  0  0  0  0  0  0  0  0
   32.9250   29.8810   34.9080 C   0  0  0  0  0  0  0  0  0  0  0  0
   33.4390   28.7840   33.1330 H   0  0  0  0  0  0  0  0  0  0  0  0
   36.3700   31.5030   34.5890 H   0  0  0  0  0  0  0  0  0  0  0  0
   35.5690   32.9090   36.9560 H   0  0  0  0  0  0  0  0  0  0  0  0
   33.3770   32.8140   38.3620 H   0  0  0  0  0  0  0  0  0  0  0  0
   31.9530   29.4100   34.9820 H   0  0  0  0  0  0  0  0  0  0  0  0
   37.9380   26.7620   31.6400 C   0  0  1  0  0  0  0  0  0  0  0  0
   38.3360   26.1560   32.8880 C   0  0  2  0  0  0  0  0  0  0  0  0
   37.0260   25.6850   32.2160 C   0  0  2  0  0  0  0  0  0  0  0  0
   38.5270   26.5640   30.7140 H   0  0  0  0  0  0  0  0  0  0  0  0
   38.9110   25.1630   32.8740 H   0  0  0  0  0  0  0  0  0  0  0  0
   36.1300   25.9870   32.7560 H   0  0  0  0  0  0  0  0  0  0  0  0
   36.9670   24.4290   31.4220 C   0  0  0  0  0  3  0  0  0  0  0  0
   36.5340   23.1440   32.0200 C   0  0  0  0  0  2  0  0  0  0  0  0
   35.5480   23.9340   31.1910 C   0  0  0  0  0  2  0  0  0  0  0  0
   38.1360   26.8200   34.0490 O   0  0  0  0  0  0  0  0  0  0  0  0
   38.1970   26.5820   35.3550 C   0  0  0  0  0  0  0  0  0  0  0  0
   37.7590   25.4440   35.7140 O   0  0  0  0  0  0  0  0  0  0  0  0
   38.7190   27.5890   36.1270 N   0  0  0  0  0  0  0  0  0  0  0  0
   38.4440   28.5950   36.1600 H   0  0  0  0  0  0  0  0  0  0  0  0
   39.4790   27.1650   36.7090 H   0  0  0  0  0  0  0  0  0  0  0  0
  1 23  1  0  0  0  0
  1  6  1  0  0  0  0
  2  3  1  0  0  0  0
  2  1  2  0  0  0  0
  3  4  2  0  0  0  0
  4  5  1  0  0  0  0
  5  6  2  0  0  0  0
  5 10  1  0  0  0  0
  7  2  1  0  0  0  0
  8  3  1  0  0  0  0
  9 17  1  0  0  0  0
 10  9  2  0  0  0  0
 10 11  1  0  0  0  0
 11 12  2  0  0  0  0
 12 16  1  0  0  0  0
 12 13  1  0  0  0  0
 13 20  1  0  0  0  0
 13 14  1  0  0  0  0
 14 21  1  0  0  0  0
 15 14  2  0  0  0  0
 16 15  1  0  0  0  0
 17 22  1  0  0  0  0
 17 16  2  0  0  0  0
 18  9  1  0  0  0  0
 19 11  1  0  0  0  0
 23 26  1  6  0  0  0
 23 25  1  0  0  0  0
 23 24  1  0  0  0  0
 24 27  1  6  0  0  0
 24 32  1  0  0  0  0
 25 28  1  1  0  0  0
 25 24  1  0  0  0  0
 29 30  1  0  0  0  0
 29 25  1  0  0  0  0
 31 29  1  0  0  0  0
 31 30  1  0  0  0  0
 32 33  1  0  0  0  0
 33 34  2  0  0  0  0
 33 35  1  0  0  0  0
 35 36  1  0  0  0  0
 35 37  1  0  0  0  0
M  END
>  <minimizedAffinity>
-5.61362314

$$$$

 OpenBabel03272507223D

 37 41  0  0  1  0  0  0  0  0999 V2000
   37.3440   25.7460   33.4290 C   0  0  0  0  0  0  0  0  0  0  0  0
   37.1550   27.0040   33.9530 C   0  0  0  0  0  0  0  0  0  0  0  0
   38.0130   27.3490   35.0020 C   0  0  0  0  0  0  0  0  0  0  0  0
   38.9580   26.4710   35.4440 N   0  0  0  0  0  0  0  0  0  0  0  0
   39.1170   25.2390   34.9050 C   0  0  0  0  0  0  0  0  0  0  0  0
   38.2930   24.8840   33.8830 N   0  0  0  0  0  0  0  0  0  0  0  0
   36.4340   27.7140   33.6390 H   0  0  0  0  0  0  0  0  0  0  0  0
   37.9060   28.3160   35.4440 H   0  0  0  0  0  0  0  0  0  0  0  0
   41.4040   24.4130   34.8690 C   0  0  0  0  0  0  0  0  0  0  0  0
   40.1350   24.3060   35.3910 C   0  0  0  0  0  0  0  0  0  0  0  0
   39.8670   23.3360   36.3390 C   0  0  0  0  0  0  0  0  0  0  0  0
   40.8210   22.4490   36.8020 C   0  0  0  0  0  0  0  0  0  0  0  0
   40.8160   21.4360   37.6950 N   0  0  0  0  0  0  0  0  0  0  0  0
   42.0810   20.9510   37.6970 C   0  0  0  0  0  0  0  0  0  0  0  0
   42.8490   21.6360   36.8350 N   0  0  0  0  0  0  0  0  0  0  0  0
   42.0940   22.5930   36.2470 C   0  0  0  0  0  0  0  0  0  0  0  0
   42.3880   23.5460   35.3060 C   0  0  0  0  0  0  0  0  0  0  0  0
   41.6200   25.1700   34.1280 H   0  0  0  0  0  0  0  0  0  0  0  0
   38.8590   23.2620   36.7430 H   0  0  0  0  0  0  0  0  0  0  0  0
   39.9980   21.1100   38.2570 H   0  0  0  0  0  0  0  0  0  0  0  0
   42.4100   20.1250   38.3130 H   0  0  0  0  0  0  0  0  0  0  0  0
   43.3820   23.6410   34.8880 H   0  0  0  0  0  0  0  0  0  0  0  0
   36.4290   25.3240   32.3010 C   0  0  1  0  0  0  0  0  0  0  0  0
   36.9110   25.2280   30.9440 C   0  0  2  0  0  0  0  0  0  0  0  0
   36.7760   23.9350   31.7790 C   0  0  2  0  0  0  0  0  0  0  0  0
   35.3670   25.6040   32.4930 H   0  0  0  0  0  0  0  0  0  0  0  0
   36.1760   24.9750   30.1000 H   0  0  0  0  0  0  0  0  0  0  0  0
   37.7330   23.4930   32.0510 H   0  0  0  0  0  0  0  0  0  0  0  0
   35.6120   23.0230   31.6150 C   0  0  0  0  0  3  0  0  0  0  0  0
   35.7430   21.6930   30.9750 C   0  0  0  0  0  2  0  0  0  0  0  0
   35.7030   21.7770   32.4840 C   0  0  0  0  0  2  0  0  0  0  0  0
   38.1930   25.5550   30.6640 O   0  0  0  0  0  0  0  0  0  0  0  0
   38.8890   26.6240   30.2900 C   0  0  0  0  0  0  0  0  0  0  0  0
   39.7370   27.0370   31.1420 O   0  0  0  0  0  0  0  0  0  0  0  0
   38.5970   27.1290   29.0480 N   0  0  0  0  0  0  0  0  0  0  0  0
   37.6690   27.3960   28.6550 H   0  0  0  0  0  0  0  0  0  0  0  0
   39.5040   27.2060   28.5290 H   0  0  0  0  0  0  0  0  0  0  0  0
  1  6  2  0  0  0  0
  1  2  1  0  0  0  0
  2  3  2  0  0  0  0
  3  4  1  0  0  0  0
  3  8  1  0  0  0  0
  5 10  1  0  0  0  0
  5  4  2  0  0  0  0
  6  5  1  0  0  0  0
  7  2  1  0  0  0  0
  9 17  2  0  0  0  0
  9 10  1  0  0  0  0
 10 11  2  0  0  0  0
 11 19  1  0  0  0  0
 11 12  1  0  0  0  0
 12 13  1  0  0  0  0
 13 14  1  0  0  0  0
 13 20  1  0  0  0  0
 14 21  1  0  0  0  0
 15 14  2  0  0  0  0
 16 12  2  0  0  0  0
 16 15  1  0  0  0  0
 17 16  1  0  0  0  0
 18  9  1  0  0  0  0
 22 17  1  0  0  0  0
 23 26  1  1  0  0  0
 23  1  1  0  0  0  0
 24 27  1  6  0  0  0
 24 25  1  0  0  0  0
 24 23  1  0  0  0  0
 25 28  1  1  0  0  0
 25 23  1  0  0  0  0
 29 25  1  0  0  0  0
 29 31  1  0  0  0  0
 30 29  1  0  0  0  0
 30 31  1  0  0  0  0
 32 24  1  0  0  0  0
 33 32  1  0  0  0  0
 33 34  2  0  0  0  0
 35 33  1  0  0  0  0
 36 35  1  0  0  0  0
 37 35  1  0  0  0  0
M  END
>  <minimizedAffinity>
-5.59027195

$$$$

 OpenBabel03272507223D

 37 41  0  0  1  0  0  0  0  0999 V2000
   38.1910   24.4860   33.7210 C   0  0  0  0  0  0  0  0  0  0  0  0
   38.4480   23.9460   32.4810 C   0  0  0  0  0  0  0  0  0  0  0  0
   38.0260   24.7170   31.3940 C   0  0  0  0  0  0  0  0  0  0  0  0
   37.4070   25.9160   31.5920 N   0  0  0  0  0  0  0  0  0  0  0  0
   37.1680   26.4180   32.8270 C   0  0  0  0  0  0  0  0  0  0  0  0
   37.5720   25.6830   33.8980 N   0  0  0  0  0  0  0  0  0  0  0  0
   38.9260   23.0210   32.2850 H   0  0  0  0  0  0  0  0  0  0  0  0
   38.2030   24.3420   30.4090 H   0  0  0  0  0  0  0  0  0  0  0  0
   36.4060   28.1880   34.3100 C   0  0  0  0  0  0  0  0  0  0  0  0
   36.5000   27.7050   33.0240 C   0  0  0  0  0  0  0  0  0  0  0  0
   35.9670   28.4380   31.9790 C   0  0  0  0  0  0  0  0  0  0  0  0
   35.3330   29.6540   32.1570 C   0  0  0  0  0  0  0  0  0  0  0  0
   34.7400   30.5410   31.3280 N   0  0  0  0  0  0  0  0  0  0  0  0
   34.3020   31.5420   32.1280 C   0  0  0  0  0  0  0  0  0  0  0  0
   34.6080   31.2900   33.4100 N   0  0  0  0  0  0  0  0  0  0  0  0
   35.2600   30.1070   33.4760 C   0  0  0  0  0  0  0  0  0  0  0  0
   35.7790   29.4010   34.5300 C   0  0  0  0  0  0  0  0  0  0  0  0
   36.8210   27.6200   35.1310 H   0  0  0  0  0  0  0  0  0  0  0  0
   36.0480   28.0440   30.9680 H   0  0  0  0  0  0  0  0  0  0  0  0
   34.6510   30.4540   30.2910 H   0  0  0  0  0  0  0  0  0  0  0  0
   33.7780   32.4180   31.7670 H   0  0  0  0  0  0  0  0  0  0  0  0
   35.7130   29.7690   35.5460 H   0  0  0  0  0  0  0  0  0  0  0  0
   38.6180   23.6780   34.9260 C   0  0  1  0  0  0  0  0  0  0  0  0
   39.8760   23.9320   35.5870 C   0  0  2  0  0  0  0  0  0  0  0  0
   38.5810   24.5070   36.2050 C   0  0  2  0  0  0  0  0  0  0  0  0
   38.1970   22.6460   34.9130 H   0  0  0  0  0  0  0  0  0  0  0  0
   40.2040   23.2560   36.4550 H   0  0  0  0  0  0  0  0  0  0  0  0
   38.5100   25.5910   36.1290 H   0  0  0  0  0  0  0  0  0  0  0  0
   37.9100   23.8470   37.3560 C   0  0  0  0  0  3  0  0  0  0  0  0
   38.6560   23.4410   38.5710 C   0  0  0  0  0  2  0  0  0  0  0  0
   37.8550   24.7230   38.5980 C   0  0  0  0  0  2  0  0  0  0  0  0
   40.7080   24.8810   35.1020 O   0  0  0  0  0  0  0  0  0  0  0  0
   42.0140   25.1170   35.0280 C   0  0  0  0  0  0  0  0  0  0  0  0
   42.7550   24.1020   35.2170 O   0  0  0  0  0  0  0  0  0  0  0  0
   42.3780   26.4130   34.7610 N   0  0  0  0  0  0  0  0  0  0  0  0
   42.0840   27.2860   35.2500 H   0  0  0  0  0  0  0  0  0  0  0  0
   43.0320   26.3840   33.9430 H   0  0  0  0  0  0  0  0  0  0  0  0
  1  6  1  0  0  0  0
  1 23  1  0  0  0  0
  2  1  2  0  0  0  0
  3  4  2  0  0  0  0
  3  2  1  0  0  0  0
  4  5  1  0  0  0  0
  5 10  1  0  0  0  0
  5  6  2  0  0  0  0
  7  2  1  0  0  0  0
  8  3  1  0  0  0  0
  9 17  1  0  0  0  0
  9 18  1  0  0  0  0
 10  9  2  0  0  0  0
 11 12  2  0  0  0  0
 11 10  1  0  0  0  0
 12 16  1  0  0  0  0
 13 14  1  0  0  0  0
 13 12  1  0  0  0  0
 14 15  2  0  0  0  0
 15 16  1  0  0  0  0
 16 17  2  0  0  0  0
 17 22  1  0  0  0  0
 19 11  1  0  0  0  0
 20 13  1  0  0  0  0
 21 14  1  0  0  0  0
 23 26  1  1  0  0  0
 23 24  1  0  0  0  0
 23 25  1  0  0  0  0
 24 25  1  0  0  0  0
 24 27  1  1  0  0  0
 25 28  1  6  0  0  0
 25 29  1  0  0  0  0
 29 30  1  0  0  0  0
 29 31  1  0  0  0  0
 30 31  1  0  0  0  0
 32 24  1  0  0  0  0
 33 32  1  0  0  0  0
 33 34  2  0  0  0  0
 35 33  1  0  0  0  0
 35 36  1  0  0  0  0
 37 35  1  0  0  0  0
M  END
>  <minimizedAffinity>
-5.58900881

$$$$

 OpenBabel03272507223D

 37 41  0  0  1  0  0  0  0  0999 V2000
   39.7600   23.3540   35.1620 C   0  0  0  0  0  0  0  0  0  0  0  0
   39.4450   22.1950   34.4920 C   0  0  0  0  0  0  0  0  0  0  0  0
   38.4600   22.3210   33.5070 C   0  0  0  0  0  0  0  0  0  0  0  0
   37.8780   23.5290   33.2600 N   0  0  0  0  0  0  0  0  0  0  0  0
   38.2110   24.6520   33.9390 C   0  0  0  0  0  0  0  0  0  0  0  0
   39.1670   24.5500   34.9010 N   0  0  0  0  0  0  0  0  0  0  0  0
   39.8730   21.2390   34.6540 H   0  0  0  0  0  0  0  0  0  0  0  0
   38.1800   21.4490   32.9580 H   0  0  0  0  0  0  0  0  0  0  0  0
   37.2510   26.7390   34.7380 C   0  0  0  0  0  0  0  0  0  0  0  0
   37.5750   25.9420   33.6640 C   0  0  0  0  0  0  0  0  0  0  0  0
   37.2920   26.3760   32.3820 C   0  0  0  0  0  0  0  0  0  0  0  0
   36.6900   27.5910   32.1130 C   0  0  0  0  0  0  0  0  0  0  0  0
   36.3130   28.2300   30.9830 N   0  0  0  0  0  0  0  0  0  0  0  0
   35.7700   29.4000   31.3970 C   0  0  0  0  0  0  0  0  0  0  0  0
   35.8060   29.4890   32.7350 N   0  0  0  0  0  0  0  0  0  0  0  0
   36.3790   28.3680   33.2300 C   0  0  0  0  0  0  0  0  0  0  0  0
   36.6480   27.9630   34.5120 C   0  0  0  0  0  0  0  0  0  0  0  0
   37.4700   26.4050   35.7430 H   0  0  0  0  0  0  0  0  0  0  0  0
   37.5530   25.7350   31.5410 H   0  0  0  0  0  0  0  0  0  0  0  0
   36.4260   27.8780   30.0070 H   0  0  0  0  0  0  0  0  0  0  0  0
   35.3680   30.1490   30.7270 H   0  0  0  0  0  0  0  0  0  0  0  0
   36.3990   28.5800   35.3660 H   0  0  0  0  0  0  0  0  0  0  0  0
   40.8110   23.2610   36.2460 C   0  0  1  0  0  0  0  0  0  0  0  0
   40.4550   22.9220   37.6030 C   0  0  2  0  0  0  0  0  0  0  0  0
   41.0400   21.8210   36.6900 C   0  0  2  0  0  0  0  0  0  0  0  0
   41.6780   23.9340   36.0510 H   0  0  0  0  0  0  0  0  0  0  0  0
   41.2640   22.9290   38.4170 H   0  0  0  0  0  0  0  0  0  0  0  0
   40.3130   21.0600   36.4090 H   0  0  0  0  0  0  0  0  0  0  0  0
   42.4690   21.4160   36.7780 C   0  0  0  0  0  3  0  0  0  0  0  0
   42.8740   20.0710   37.2470 C   0  0  0  0  0  2  0  0  0  0  0  0
   42.8510   20.3500   35.7620 C   0  0  0  0  0  2  0  0  0  0  0  0
   39.1570   22.7200   37.9250 O   0  0  0  0  0  0  0  0  0  0  0  0
   38.0310   23.4200   38.0020 C   0  0  0  0  0  0  0  0  0  0  0  0
   37.0610   22.9540   37.3260 O   0  0  0  0  0  0  0  0  0  0  0  0
   38.0700   24.5400   38.7950 N   0  0  0  0  0  0  0  0  0  0  0  0
   38.7490   25.3310   38.7720 H   0  0  0  0  0  0  0  0  0  0  0  0
   37.2670   24.4690   39.4630 H   0  0  0  0  0  0  0  0  0  0  0  0
  1 23  1  0  0  0  0
  2  7  1  0  0  0  0
  2  1  2  0  0  0  0
  3  2  1  0  0  0  0
  4  3  2  0  0  0  0
  4  5  1  0  0  0  0
  5  6  2  0  0  0  0
  6  1  1  0  0  0  0
  8  3  1  0  0  0  0
  9 18  1  0  0  0  0
 10  5  1  0  0  0  0
 10  9  2  0  0  0  0
 11 10  1  0  0  0  0
 12 11  2  0  0  0  0
 12 16  1  0  0  0  0
 13 14  1  0  0  0  0
 13 12  1  0  0  0  0
 14 15  2  0  0  0  0
 15 16  1  0  0  0  0
 16 17  2  0  0  0  0
 17  9  1  0  0  0  0
 17 22  1  0  0  0  0
 19 11  1  0  0  0  0
 20 13  1  0  0  0  0
 21 14  1  0  0  0  0
 23 26  1  6  0  0  0
 23 25  1  0  0  0  0
 23 24  1  0  0  0  0
 24 32  1  0  0  0  0
 24 27  1  1  0  0  0
 25 28  1  6  0  0  0
 25 29  1  0  0  0  0
 25 24  1  0  0  0  0
 29 30  1  0  0  0  0
 31 29  1  0  0  0  0
 31 30  1  0  0  0  0
 32 33  1  0  0  0  0
 33 35  1  0  0  0  0
 34 33  2  0  0  0  0
 35 37  1  0  0  0  0
 36 35  1  0  0  0  0
M  END
>  <minimizedAffinity>
-5.57759476

$$$$

 OpenBabel03272507223D

 37 41  0  0  1  0  0  0  0  0999 V2000
   37.0130   26.5070   31.3950 C   0  0  0  0  0  0  0  0  0  0  0  0
   38.1180   26.9720   30.7190 C   0  0  0  0  0  0  0  0  0  0  0  0
   38.9300   25.9850   30.1510 C   0  0  0  0  0  0  0  0  0  0  0  0
   38.6120   24.6650   30.2810 N   0  0  0  0  0  0  0  0  0  0  0  0
   37.5170   24.2420   30.9540 C   0  0  0  0  0  0  0  0  0  0  0  0
   36.7140   25.1860   31.5130 N   0  0  0  0  0  0  0  0  0  0  0  0
   38.4000   27.9860   30.5960 H   0  0  0  0  0  0  0  0  0  0  0  0
   39.8020   26.2950   29.6160 H   0  0  0  0  0  0  0  0  0  0  0  0
   38.1280   21.9060   30.6670 C   0  0  0  0  0  0  0  0  0  0  0  0
   37.1890   22.8210   31.0860 C   0  0  0  0  0  0  0  0  0  0  0  0
   35.9870   22.3770   31.6070 C   0  0  0  0  0  0  0  0  0  0  0  0
   35.6700   21.0380   31.7330 C   0  0  0  0  0  0  0  0  0  0  0  0
   34.5940   20.3610   32.1920 N   0  0  0  0  0  0  0  0  0  0  0  0
   34.9040   19.0510   32.0440 C   0  0  0  0  0  0  0  0  0  0  0  0
   36.1280   18.9140   31.5100 N   0  0  0  0  0  0  0  0  0  0  0  0
   36.6490   20.1440   31.2980 C   0  0  0  0  0  0  0  0  0  0  0  0
   37.8490   20.5560   30.7780 C   0  0  0  0  0  0  0  0  0  0  0  0
   39.0700   22.2470   30.2600 H   0  0  0  0  0  0  0  0  0  0  0  0
   35.2540   23.1120   31.9330 H   0  0  0  0  0  0  0  0  0  0  0  0
   33.7180   20.7790   32.5780 H   0  0  0  0  0  0  0  0  0  0  0  0
   34.2450   18.2390   32.3220 H   0  0  0  0  0  0  0  0  0  0  0  0
   38.5960   19.8460   30.4450 H   0  0  0  0  0  0  0  0  0  0  0  0
   36.1140   27.5400   32.0380 C   0  0  1  0  0  0  0  0  0  0  0  0
   36.4160   28.0860   33.3400 C   0  0  2  0  0  0  0  0  0  0  0  0
   36.7720   28.9140   32.0840 C   0  0  2  0  0  0  0  0  0  0  0  0
   35.0530   27.4350   31.7130 H   0  0  0  0  0  0  0  0  0  0  0  0
   35.6770   28.8130   33.8310 H   0  0  0  0  0  0  0  0  0  0  0  0
   37.8430   28.9920   31.9060 H   0  0  0  0  0  0  0  0  0  0  0  0
   35.9090   30.0340   31.6210 C   0  0  0  0  0  3  0  0  0  0  0  0
   36.1360   31.4310   32.0600 C   0  0  0  0  0  2  0  0  0  0  0  0
   36.6310   31.0020   30.6980 C   0  0  0  0  0  2  0  0  0  0  0  0
   37.5000   27.6430   34.0170 O   0  0  0  0  0  0  0  0  0  0  0  0
   37.7770   27.0480   35.1720 C   0  0  0  0  0  0  0  0  0  0  0  0
   37.3840   25.8430   35.2630 O   0  0  0  0  0  0  0  0  0  0  0  0
   38.4430   27.8120   36.0980 N   0  0  0  0  0  0  0  0  0  0  0  0
   38.1970   28.7580   36.4600 H   0  0  0  0  0  0  0  0  0  0  0  0
   39.2820   27.2630   36.3990 H   0  0  0  0  0  0  0  0  0  0  0  0
  1  6  1  0  0  0  0
  1 23  1  0  0  0  0
  2  1  2  0  0  0  0
  3  4  2  0  0  0  0
  3  2  1  0  0  0  0
  4  5  1  0  0  0  0
  5 10  1  0  0  0  0
  5  6  2  0  0  0  0
  7  2  1  0  0  0  0
  8  3  1  0  0  0  0
  9 17  2  0  0  0  0
  9 10  1  0  0  0  0
 10 11  2  0  0  0  0
 11 12  1  0  0  0  0
 11 19  1  0  0  0  0
 12 13  1  0  0  0  0
 13 20  1  0  0  0  0
 14 13  1  0  0  0  0
 14 21  1  0  0  0  0
 15 14  2  0  0  0  0
 16 15  1  0  0  0  0
 16 12  2  0  0  0  0
 17 16  1  0  0  0  0
 18  9  1  0  0  0  0
 22 17  1  0  0  0  0
 23 26  1  6  0  0  0
 23 25  1  0  0  0  0
 23 24  1  0  0  0  0
 24 27  1  1  0  0  0
 24 32  1  0  0  0  0
 25 28  1  6  0  0  0
 25 24  1  0  0  0  0
 29 30  1  0  0  0  0
 29 25  1  0  0  0  0
 31 29  1  0  0  0  0
 31 30  1  0  0  0  0
 32 33  1  0  0  0  0
 33 34  2  0  0  0  0
 33 35  1  0  0  0  0
 35 37  1  0  0  0  0
 35 36  1  0  0  0  0
M  END
>  <minimizedAffinity>
-5.46944141

$$$$
