
 OpenBabel03272506073D

 24 26  0  0  0  0  0  0  0  0999 V2000
   35.5730   30.2470   49.8670 C   0  0  0  0  0  0  0  0  0  0  0  0
   35.7890   30.2060   50.9640 H   0  0  0  0  0  0  0  0  0  0  0  0
   34.6060   30.7500   49.6820 H   0  0  0  0  0  0  0  0  0  0  0  0
   38.0230   32.9920   49.3080 C   0  0  0  0  0  0  0  0  0  0  0  0
   38.7470   32.5360   48.1980 C   0  0  0  0  0  0  0  0  0  0  0  0
   38.3840   31.2960   47.6610 C   0  0  0  0  0  0  0  0  0  0  0  0
   37.3650   30.6070   48.2310 N   0  0  0  0  0  0  0  0  0  0  0  0
   36.6990   31.0950   49.3020 C   0  0  0  0  0  0  0  0  0  0  0  0
   37.0110   32.2740   49.8480 N   0  0  0  0  0  0  0  0  0  0  0  0
   38.2850   33.9540   49.7440 H   0  0  0  0  0  0  0  0  0  0  0  0
   39.5480   33.1220   47.7830 H   0  0  0  0  0  0  0  0  0  0  0  0
   38.9320   30.9300   46.8070 H   0  0  0  0  0  0  0  0  0  0  0  0
   35.5610   28.9140   49.2000 C   0  0  0  0  0  0  0  0  0  0  0  0
   35.7420   28.1320   49.9620 H   0  0  0  0  0  0  0  0  0  0  0  0
   36.3790   28.8490   48.4570 H   0  0  0  0  0  0  0  0  0  0  0  0
   34.2480   28.6650   48.5070 C   0  0  0  0  0  0  0  0  0  0  0  0
   34.0680   29.1690   47.1650 C   0  0  0  0  0  0  0  0  0  0  0  0
   32.4190   28.6410   46.8100 S   0  0  0  0  0  0  0  0  0  0  0  0
   32.1760   27.8210   48.4820 C   0  0  0  0  0  0  0  0  0  0  0  0
   33.2260   28.0250   49.0150 N   0  0  0  0  0  0  0  0  0  0  0  0
   34.7930   29.7160   46.5910 H   0  0  0  0  0  0  0  0  0  0  0  0
   30.9240   27.1260   48.8940 C   0  0  0  0  0  0  0  0  0  0  0  0
   29.6070   27.6390   48.4520 C   0  0  0  0  0  0  0  0  0  0  0  0
   30.0060   27.9140   49.8490 C   0  0  0  0  0  0  0  0  0  0  0  0
  1  2  1  0  0  0  0
  3  1  1  0  0  0  0
  4 10  1  0  0  0  0
  4  9  1  0  0  0  0
  5  4  2  0  0  0  0
  6  5  1  0  0  0  0
  6  7  2  0  0  0  0
  7  8  1  0  0  0  0
  8  9  2  0  0  0  0
  8  1  1  0  0  0  0
 11  5  1  0  0  0  0
 12  6  1  0  0  0  0
 13  1  1  0  0  0  0
 13 14  1  0  0  0  0
 15 13  1  0  0  0  0
 16 20  1  0  0  0  0
 16 13  1  0  0  0  0
 17 16  2  0  0  0  0
 18 17  1  0  0  0  0
 18 19  1  0  0  0  0
 19 22  1  0  0  0  0
 19 20  2  0  0  0  0
 21 17  1  0  0  0  0
 22 24  1  0  0  0  0
 23 22  1  0  0  0  0
 23 24  1  0  0  0  0
M  END
>  <minimizedAffinity>
-4.7903223

>  <minimizedRMSD>
0.825392962

$$$$
