
 OpenBabel03272507073D

 33 37  0  0  0  0  0  0  0  0999 V2000
   38.5870   32.5670   48.6630 C   0  0  0  0  0  0  0  0  0  0  0  0
   39.1500   32.6850   47.3800 C   0  0  0  0  0  0  0  0  0  0  0  0
   38.5730   31.8880   46.3690 C   0  0  0  0  0  0  0  0  0  0  0  0
   37.5350   31.0660   46.6610 N   0  0  0  0  0  0  0  0  0  0  0  0
   37.0380   31.0020   47.9260 C   0  0  0  0  0  0  0  0  0  0  0  0
   37.5510   31.7380   48.9220 N   0  0  0  0  0  0  0  0  0  0  0  0
   39.0210   33.1680   49.4260 H   0  0  0  0  0  0  0  0  0  0  0  0
   39.9600   33.3160   47.1200 H   0  0  0  0  0  0  0  0  0  0  0  0
   35.9920   29.1890   49.2150 C   0  0  0  0  0  0  0  0  0  0  0  0
   35.9120   30.0890   48.1670 C   0  0  0  0  0  0  0  0  0  0  0  0
   34.7990   30.1220   47.3770 C   0  0  0  0  0  0  0  0  0  0  0  0
   33.7430   29.2740   47.5950 C   0  0  0  0  0  0  0  0  0  0  0  0
   32.5490   29.1090   46.9690 N   0  0  0  0  0  0  0  0  0  0  0  0
   31.9470   28.1090   47.6630 C   0  0  0  0  0  0  0  0  0  0  0  0
   32.7250   27.6820   48.6600 N   0  0  0  0  0  0  0  0  0  0  0  0
   33.8680   28.3940   48.6510 C   0  0  0  0  0  0  0  0  0  0  0  0
   34.9520   28.3190   49.4680 C   0  0  0  0  0  0  0  0  0  0  0  0
   36.8560   29.1170   49.8800 H   0  0  0  0  0  0  0  0  0  0  0  0
   34.7490   30.8270   46.5670 H   0  0  0  0  0  0  0  0  0  0  0  0
   32.2080   29.6550   46.1360 H   0  0  0  0  0  0  0  0  0  0  0  0
   30.9520   27.7680   47.3640 H   0  0  0  0  0  0  0  0  0  0  0  0
   35.0190   27.6180   50.2860 H   0  0  0  0  0  0  0  0  0  0  0  0
   39.0290   31.8840   44.9920 C   0  0  0  0  0  0  0  0  0  0  0  0
   38.7290   32.8590   44.0780 C   0  0  0  0  0  0  0  0  0  0  0  0
   39.1510   32.8780   42.7630 C   0  0  0  0  0  0  0  0  0  0  0  0
   39.9150   31.8510   42.3660 N   0  0  0  0  0  0  0  0  0  0  0  0
   40.2290   30.8860   43.2190 C   0  0  0  0  0  0  0  0  0  0  0  0
   39.8070   30.9030   44.4690 N   0  0  0  0  0  0  0  0  0  0  0  0
   38.1050   33.7020   44.3920 H   0  0  0  0  0  0  0  0  0  0  0  0
   38.8600   33.6950   42.1130 H   0  0  0  0  0  0  0  0  0  0  0  0
   41.0820   29.7090   42.8350 C   0  0  0  0  0  0  0  0  0  0  0  0
   41.2720   29.5340   41.2960 C   0  0  0  0  0  0  0  0  0  0  0  0
   40.4720   28.5700   42.1210 C   0  0  0  0  0  0  0  0  0  0  0  0
  1  6  1  0  0  0  0
  1  7  1  0  0  0  0
  2  1  2  0  0  0  0
  3  4  2  0  0  0  0
  3  2  1  0  0  0  0
  4  5  1  0  0  0  0
  5 10  1  0  0  0  0
  5  6  2  0  0  0  0
  8  2  1  0  0  0  0
  9 17  1  0  0  0  0
  9 18  1  0  0  0  0
 10  9  2  0  0  0  0
 11 12  2  0  0  0  0
 11 10  1  0  0  0  0
 12 16  1  0  0  0  0
 13 12  1  0  0  0  0
 13 14  1  0  0  0  0
 14 15  2  0  0  0  0
 16 15  1  0  0  0  0
 16 17  2  0  0  0  0
 17 22  1  0  0  0  0
 19 11  1  0  0  0  0
 20 13  1  0  0  0  0
 21 14  1  0  0  0  0
 23  3  1  0  0  0  0
 24 29  1  0  0  0  0
 24 23  2  0  0  0  0
 25 24  1  0  0  0  0
 26 25  2  0  0  0  0
 26 27  1  0  0  0  0
 27 28  2  0  0  0  0
 28 23  1  0  0  0  0
 30 25  1  0  0  0  0
 31 27  1  0  0  0  0
 32 33  1  0  0  0  0
 32 31  1  0  0  0  0
 33 31  1  0  0  0  0
M  END
>  <minimizedAffinity>
-6.71832705

>  <minimizedRMSD>
0.936509609

$$$$
