REMARK  Name = 
REMARK  3 active torsions:
REMARK  status: ('A' for Active; 'I' for Inactive)
REMARK    1  A    between atoms: C_2  and  N_13
REMARK    2  A    between atoms: C_3  and  C_7
REMARK    3  A    between atoms: C_17  and  C_32
REMARK                            x       y       z     vdW  Elec       q    Type
REMARK                         _______ _______ _______ _____ _____    ______ ____
ROOT
ATOM      1  C   UNL     1      34.940  30.126  47.588  0.00  0.00    +0.000 A 
ATOM      2  C   UNL     1      36.224  30.716  47.415  0.00  0.00    +0.000 A 
ATOM      3  C   UNL     1      36.771  30.672  46.123  0.00  0.00    +0.000 A 
ATOM      4  N   UNL     1      36.059  30.082  45.127  0.00  0.00    +0.000 NA
ATOM      5  C   UNL     1      34.847  29.536  45.337  0.00  0.00    +0.000 A 
ATOM      6  N   UNL     1      34.295  29.561  46.562  0.00  0.00    +0.000 NA
ATOM      7  H   UNL     1      34.452  30.114  48.529  0.00  0.00    +0.000 HD
ATOM      8  H   UNL     1      34.338  29.082  44.493  0.00  0.00    +0.000 HD
ENDROOT
BRANCH   2   9
ATOM      9  N   UNL     1      36.806  31.281  48.577  0.00  0.00    +0.000 N 
ATOM     10  C   UNL     1      37.574  32.478  48.935  0.00  0.00    +0.000 C 
ATOM     11  C   UNL     1      38.737  31.884  49.715  0.00  0.00    +0.000 C 
ATOM     12  C   UNL     1      38.142  30.676  50.420  0.00  0.00    +0.000 C 
ATOM     13  C   UNL     1      36.721  30.627  49.871  0.00  0.00    +0.000 C 
ATOM     14  H   UNL     1      38.033  32.965  48.049  0.00  0.00    +0.000 HD
ATOM     15  H   UNL     1      37.010  33.238  49.458  0.00  0.00    +0.000 HD
ATOM     16  H   UNL     1      39.489  31.509  48.986  0.00  0.00    +0.000 HD
ATOM     17  H   UNL     1      39.144  32.563  50.476  0.00  0.00    +0.000 HD
ATOM     18  H   UNL     1      38.133  30.769  51.511  0.00  0.00    +0.000 HD
ATOM     19  H   UNL     1      38.698  29.745  50.153  0.00  0.00    +0.000 HD
ATOM     20  H   UNL     1      36.374  29.579  49.814  0.00  0.00    +0.000 HD
BRANCH  13  21
ATOM     21  C   UNL     1      35.856  31.330  50.860  0.00  0.00    +0.000 C 
ATOM     22  C   UNL     1      34.923  30.369  51.610  0.00  0.00    +0.000 C 
ATOM     23  C   UNL     1      34.374  31.419  50.697  0.00  0.00    +0.000 C 
ENDBRANCH  13  21
ENDBRANCH   2   9
BRANCH   3  24
ATOM     24  C   UNL     1      38.057  31.234  45.829  0.00  0.00    +0.000 A 
ATOM     25  C   UNL     1      38.121  32.447  45.198  0.00  0.00    +0.000 A 
ATOM     26  C   UNL     1      39.302  33.078  44.869  0.00  0.00    +0.000 A 
ATOM     27  C   UNL     1      40.483  32.405  45.216  0.00  0.00    +0.000 A 
ATOM     28  C   UNL     1      40.504  31.170  45.858  0.00  0.00    +0.000 A 
ATOM     29  C   UNL     1      39.252  30.614  46.149  0.00  0.00    +0.000 A 
ATOM     30  H   UNL     1      37.201  32.979  44.924  0.00  0.00    +0.000 HD
ATOM     31  H   UNL     1      39.340  34.033  44.372  0.00  0.00    +0.000 HD
ATOM     32  H   UNL     1      41.425  32.877  44.970  0.00  0.00    +0.000 HD
ATOM     33  H   UNL     1      41.429  30.689  46.106  0.00  0.00    +0.000 HD
ATOM     34  H   UNL     1      39.197  29.659  46.645  0.00  0.00    +0.000 HD
ENDBRANCH   3  24
TORSDOF 3
