
 OpenBabel03272510083D

 38 42  0  0  0  0  0  0  0  0999 V2000
   35.6150   28.4240   48.9100 C   0  0  0  0  0  0  0  0  0  0  0  0
   35.6500   29.8130   48.6120 C   0  0  0  0  0  0  0  0  0  0  0  0
   34.4000   30.4770   48.3710 C   0  0  0  0  0  0  0  0  0  0  0  0
   33.2480   29.7650   48.4250 N   0  0  0  0  0  0  0  0  0  0  0  0
   33.2890   28.4330   48.7090 C   0  0  0  0  0  0  0  0  0  0  0  0
   34.4430   27.7780   48.9480 N   0  0  0  0  0  0  0  0  0  0  0  0
   32.0320   27.7180   48.7080 N   0  0  0  0  0  0  0  0  0  0  0  0
   30.9500   28.0040   49.5970 C   0  0  0  0  0  0  0  0  0  0  0  0
   29.8210   27.1570   49.0910 C   0  0  0  0  0  0  0  0  0  0  0  0
   30.2340   26.6660   47.7110 C   0  0  0  0  0  0  0  0  0  0  0  0
   31.7020   26.6070   47.7910 C   0  0  0  0  0  0  0  0  0  0  0  0
   36.5870   27.9890   49.0890 H   0  0  0  0  0  0  0  0  0  0  0  0
   34.3450   31.5160   48.1490 H   0  0  0  0  0  0  0  0  0  0  0  0
   31.1740   27.8720   50.6710 H   0  0  0  0  0  0  0  0  0  0  0  0
   30.6230   29.0700   49.4250 H   0  0  0  0  0  0  0  0  0  0  0  0
   29.7510   26.2590   49.7390 H   0  0  0  0  0  0  0  0  0  0  0  0
   28.8510   27.6690   49.0830 H   0  0  0  0  0  0  0  0  0  0  0  0
   29.7260   25.7120   47.4600 H   0  0  0  0  0  0  0  0  0  0  0  0
   29.9520   27.4450   46.9660 H   0  0  0  0  0  0  0  0  0  0  0  0
   32.0980   25.6730   48.2370 H   0  0  0  0  0  0  0  0  0  0  0  0
   32.1730   26.8140   46.8020 H   0  0  0  0  0  0  0  0  0  0  0  0
   36.7800   30.6610   48.5440 C   0  0  0  0  0  0  0  0  0  0  0  0
   37.2930   31.0440   49.7300 N   0  0  0  0  0  0  0  0  0  0  0  0
   38.3260   31.9110   49.7540 C   0  0  0  0  0  0  0  0  0  0  0  0
   38.9130   32.4500   48.6440 N   0  0  0  0  0  0  0  0  0  0  0  0
   38.4120   32.0760   47.4470 C   0  0  0  0  0  0  0  0  0  0  0  0
   38.9150   32.5810   46.2600 C   0  0  0  0  0  0  0  0  0  0  0  0
   38.3560   32.1900   45.0330 C   0  0  0  0  0  0  0  0  0  0  0  0
   37.2930   31.2870   45.0310 C   0  0  0  0  0  0  0  0  0  0  0  0
   36.8250   30.8090   46.2210 C   0  0  0  0  0  0  0  0  0  0  0  0
   37.3680   31.1970   47.4120 C   0  0  0  0  0  0  0  0  0  0  0  0
   38.7480   32.2250   50.7040 H   0  0  0  0  0  0  0  0  0  0  0  0
   39.7380   33.2690   46.3920 H   0  0  0  0  0  0  0  0  0  0  0  0
   38.8450   32.6640   44.2140 H   0  0  0  0  0  0  0  0  0  0  0  0
   37.0530   31.1720   43.9890 H   0  0  0  0  0  0  0  0  0  0  0  0
   35.7340   29.7910   45.9900 C   0  0  0  0  0  3  0  0  0  0  0  0
   35.7030   29.0960   44.5700 C   0  0  0  0  0  2  0  0  0  0  0  0
   34.6850   29.9950   45.0330 C   0  0  0  0  0  2  0  0  0  0  0  0
  1  6  1  0  0  0  0
  1 12  1  0  0  0  0
  2  1  2  0  0  0  0
  3  4  2  0  0  0  0
  3  2  1  0  0  0  0
  4  5  1  0  0  0  0
  5  6  2  0  0  0  0
  7  5  1  0  0  0  0
  7  8  1  0  0  0  0
  8 14  1  0  0  0  0
  9  8  1  0  0  0  0
  9 16  1  0  0  0  0
 10 11  1  0  0  0  0
 10  9  1  0  0  0  0
 11 20  1  0  0  0  0
 11  7  1  0  0  0  0
 13  3  1  0  0  0  0
 15  8  1  0  0  0  0
 17  9  1  0  0  0  0
 18 10  1  0  0  0  0
 19 10  1  0  0  0  0
 21 11  1  0  0  0  0
 22  2  1  0  0  0  0
 22 23  1  0  0  0  0
 23 24  2  0  0  0  0
 24 32  1  0  0  0  0
 25 24  1  0  0  0  0
 26 25  2  0  0  0  0
 27 33  1  0  0  0  0
 27 26  1  0  0  0  0
 28 27  2  0  0  0  0
 29 28  1  0  0  0  0
 29 30  2  0  0  0  0
 30 31  1  0  0  0  0
 31 26  1  0  0  0  0
 31 22  2  0  0  0  0
 34 28  1  0  0  0  0
 35 29  1  0  0  0  0
 36 30  1  0  0  0  0
 37 38  1  0  0  0  0
 37 36  1  0  0  0  0
 38 36  1  0  0  0  0
M  END
>  <minimizedAffinity>
-4.91594028

>  <minimizedRMSD>
1.20281804

$$$$
