
 OpenBabel03272510273D

 39 43  0  0  1  0  0  0  0  0999 V2000
   36.1380   30.2200   46.8740 C   0  0  0  0  0  0  0  0  0  0  0  0
   37.0430   30.7490   47.7920 C   0  0  0  0  0  0  0  0  0  0  0  0
   38.0560   31.6150   47.3860 C   0  0  0  0  0  0  0  0  0  0  0  0
   38.1120   31.9190   46.0290 C   0  0  0  0  0  0  0  0  0  0  0  0
   38.9990   32.7350   45.3900 N   0  0  0  0  0  0  0  0  0  0  0  0
   38.6600   32.7220   44.0910 C   0  0  0  0  0  0  0  0  0  0  0  0
   37.6140   31.9390   43.9120 N   0  0  0  0  0  0  0  0  0  0  0  0
   37.2370   31.4170   45.0900 C   0  0  0  0  0  0  0  0  0  0  0  0
   36.2290   30.5490   45.5320 C   0  0  0  0  0  0  0  0  0  0  0  0
   35.3450   29.5510   47.1420 H   0  0  0  0  0  0  0  0  0  0  0  0
   38.7460   32.0150   48.1000 H   0  0  0  0  0  0  0  0  0  0  0  0
   39.7720   33.2530   45.8300 H   0  0  0  0  0  0  0  0  0  0  0  0
   35.5390   30.1510   44.7990 H   0  0  0  0  0  0  0  0  0  0  0  0
   37.5470   30.1880   51.4720 C   0  0  0  0  0  0  0  0  0  0  0  0
   37.8150   30.6120   50.1810 C   0  0  0  0  0  0  0  0  0  0  0  0
   36.8850   30.3610   49.1770 C   0  0  0  0  0  0  0  0  0  0  0  0
   35.7460   29.6990   49.5360 N   0  0  0  0  0  0  0  0  0  0  0  0
   35.4950   29.2910   50.7930 C   0  0  0  0  0  0  0  0  0  0  0  0
   36.3750   29.5310   51.7380 N   0  0  0  0  0  0  0  0  0  0  0  0
   38.2620   30.3790   52.2630 H   0  0  0  0  0  0  0  0  0  0  0  0
   38.7240   31.1390   49.9050 H   0  0  0  0  0  0  0  0  0  0  0  0
   34.5640   28.7620   51.0260 H   0  0  0  0  0  0  0  0  0  0  0  0
   39.3610   33.4570   43.1330 O   0  0  0  0  0  0  0  0  0  0  0  0
   38.9750   31.5810   41.8650 N   0  0  0  0  0  0  0  0  0  0  0  0
   39.2310   32.9960   41.7980 C   0  0  1  0  0  0  0  0  0  0  0  0
   38.1500   33.6860   41.1070 C   0  0  0  0  0  0  0  0  0  0  0  0
   38.0900   33.2120   39.7850 O   0  0  0  0  0  0  0  0  0  0  0  0
   37.9650   31.8600   39.6520 C   0  0  0  0  0  0  0  0  0  0  0  0
   38.9470   31.0970   40.5160 C   0  0  1  0  0  0  0  0  0  0  0  0
   38.3200   31.2090   42.5070 H   0  0  0  0  0  0  0  0  0  0  0  0
   40.1870   33.1470   41.2730 H   0  0  0  0  0  0  0  0  0  0  0  0
   37.1370   33.6920   41.4110 H   0  0  0  0  0  0  0  0  0  0  0  0
   38.4580   34.7670   40.9810 H   0  0  0  0  0  0  0  0  0  0  0  0
   38.2250   31.6040   38.6090 H   0  0  0  0  0  0  0  0  0  0  0  0
   36.9200   31.5650   39.9230 H   0  0  0  0  0  0  0  0  0  0  0  0
   38.6260   30.0430   40.5360 H   0  0  0  0  0  0  0  0  0  0  0  0
   40.3110   31.1530   39.8690 C   0  0  0  0  0  3  0  0  0  0  0  0
   41.4010   30.2830   40.4050 C   0  0  0  0  0  2  0  0  0  0  0  0
   40.7710   29.9240   39.1080 C   0  0  0  0  0  2  0  0  0  0  0  0
  1 10  1  0  0  0  0
  1  2  1  0  0  0  0
  2 16  1  0  0  0  0
  3  2  2  0  0  0  0
  3 11  1  0  0  0  0
  4  3  1  0  0  0  0
  5 12  1  0  0  0  0
  5  4  1  0  0  0  0
  6  5  1  0  0  0  0
  7  6  2  0  0  0  0
  7  8  1  0  0  0  0
  8  9  1  0  0  0  0
  8  4  2  0  0  0  0
  9  1  2  0  0  0  0
 13  9  1  0  0  0  0
 14 19  1  0  0  0  0
 14 20  1  0  0  0  0
 15 14  2  0  0  0  0
 16 17  2  0  0  0  0
 16 15  1  0  0  0  0
 17 18  1  0  0  0  0
 18 22  1  0  0  0  0
 18 19  2  0  0  0  0
 21 15  1  0  0  0  0
 23  6  1  0  0  0  0
 24 30  1  0  0  0  0
 25 31  1  6  0  0  0
 25 24  1  0  0  0  0
 25 23  1  0  0  0  0
 26 32  1  0  0  0  0
 26 25  1  0  0  0  0
 27 26  1  0  0  0  0
 28 27  1  0  0  0  0
 28 35  1  0  0  0  0
 28 29  1  0  0  0  0
 29 36  1  1  0  0  0
 29 24  1  0  0  0  0
 33 26  1  0  0  0  0
 34 28  1  0  0  0  0
 37 38  1  0  0  0  0
 37 29  1  0  0  0  0
 39 37  1  0  0  0  0
 39 38  1  0  0  0  0
M  END
>  <minimizedAffinity>
-5.58404684

>  <minimizedRMSD>
0.632915556

$$$$
