
 OpenBabel03272502423D

 22 24  0  0  0  0  0  0  0  0999 V2000
   37.0730   28.9950   50.3900 Cl  0  0  0  0  0  0  0  0  0  0  0  0
   35.7520   29.1080   49.2690 C   0  0  0  0  0  0  0  0  0  0  0  0
   35.7330   30.1230   48.3560 C   0  0  0  0  0  0  0  0  0  0  0  0
   34.7030   30.2550   47.4440 C   0  0  0  0  0  0  0  0  0  0  0  0
   33.6560   29.3470   47.4370 C   0  0  0  0  0  0  0  0  0  0  0  0
   33.6600   28.3060   48.3600 C   0  0  0  0  0  0  0  0  0  0  0  0
   32.4000   27.0930   48.4590 Cl  0  0  0  0  0  0  0  0  0  0  0  0
   34.7210   28.2170   49.2580 C   0  0  0  0  0  0  0  0  0  0  0  0
   34.7060   31.0670   46.7290 H   0  0  0  0  0  0  0  0  0  0  0  0
   32.8170   29.4030   46.7400 H   0  0  0  0  0  0  0  0  0  0  0  0
   34.7440   27.4150   49.9850 H   0  0  0  0  0  0  0  0  0  0  0  0
   38.1040   32.7210   49.3910 C   0  0  0  0  0  0  0  0  0  0  0  0
   38.8680   32.9370   48.2340 C   0  0  0  0  0  0  0  0  0  0  0  0
   38.5460   32.1650   47.0900 C   0  0  0  0  0  0  0  0  0  0  0  0
   37.5280   31.2820   47.2060 N   0  0  0  0  0  0  0  0  0  0  0  0
   36.8070   31.0940   48.3300 C   0  0  0  0  0  0  0  0  0  0  0  0
   37.1070   31.8260   49.4290 N   0  0  0  0  0  0  0  0  0  0  0  0
   38.4020   33.3450   50.2320 H   0  0  0  0  0  0  0  0  0  0  0  0
   39.6670   33.6260   48.1340 H   0  0  0  0  0  0  0  0  0  0  0  0
   39.2530   32.2680   45.7870 C   0  0  0  0  0  0  0  0  0  0  0  0
   40.5430   31.4730   45.6300 C   0  0  0  0  0  0  0  0  0  0  0  0
   40.5240   32.9860   45.6690 C   0  0  0  0  0  0  0  0  0  0  0  0
  2  1  1  0  0  0  0
  3  2  2  0  0  0  0
  4  3  1  0  0  0  0
  5  4  2  0  0  0  0
  5  6  1  0  0  0  0
  6  7  1  0  0  0  0
  6  8  2  0  0  0  0
  8  2  1  0  0  0  0
  8 11  1  0  0  0  0
  9  4  1  0  0  0  0
 10  5  1  0  0  0  0
 12 17  1  0  0  0  0
 12 18  1  0  0  0  0
 13 12  2  0  0  0  0
 14 15  2  0  0  0  0
 14 13  1  0  0  0  0
 15 16  1  0  0  0  0
 16  3  1  0  0  0  0
 16 17  2  0  0  0  0
 19 13  1  0  0  0  0
 20 14  1  0  0  0  0
 21 22  1  0  0  0  0
 21 20  1  0  0  0  0
 22 20  1  0  0  0  0
M  END
>  <minimizedAffinity>
-6.22583103

>  <minimizedRMSD>
0.596382916

$$$$
