
 OpenBabel03272500523D

 39 44  0  0  1  0  0  0  0  0999 V2000
   37.6800   26.1350   35.6430 C   0  0  1  0  0  0  0  0  0  0  0  0
   38.4780   27.4760   35.8310 C   0  0  0  0  0  0  0  0  0  0  0  0
   38.2980   26.8070   34.5010 C   0  0  2  0  0  0  0  0  0  0  0  0
   36.5800   26.2320   35.7450 H   0  0  0  0  0  0  0  0  0  0  0  0
   37.8580   28.3410   36.0610 H   0  0  0  0  0  0  0  0  0  0  0  0
   39.4640   27.3730   36.3430 H   0  0  0  0  0  0  0  0  0  0  0  0
   39.2300   26.3890   34.0720 H   0  0  0  0  0  0  0  0  0  0  0  0
   39.6730   23.2570   36.4650 C   0  0  0  0  0  0  0  0  0  0  0  0
   38.6840   23.1700   37.4450 C   0  0  0  0  0  0  0  0  0  0  0  0
   37.7980   24.2520   37.2600 C   0  0  0  0  0  0  0  0  0  0  0  0
   38.2660   24.9390   36.2060 N   0  0  0  0  0  0  0  0  0  0  0  0
   39.3460   24.3300   35.7780 N   0  0  0  0  0  0  0  0  0  0  0  0
   38.6070   22.4040   38.2180 H   0  0  0  0  0  0  0  0  0  0  0  0
   36.9330   24.4350   37.8810 H   0  0  0  0  0  0  0  0  0  0  0  0
   41.3290   21.6620   37.4780 C   0  0  0  0  0  0  0  0  0  0  0  0
   40.7470   22.3160   36.3470 C   0  0  0  0  0  0  0  0  0  0  0  0
   41.2690   22.0050   35.1100 C   0  0  0  0  0  0  0  0  0  0  0  0
   42.2940   21.1030   35.0400 N   0  0  0  0  0  0  0  0  0  0  0  0
   42.8070   20.5140   36.1290 C   0  0  0  0  0  0  0  0  0  0  0  0
   42.3240   20.7910   37.3740 N   0  0  0  0  0  0  0  0  0  0  0  0
   40.8840   21.9400   38.4300 H   0  0  0  0  0  0  0  0  0  0  0  0
   40.9100   22.4360   34.1910 H   0  0  0  0  0  0  0  0  0  0  0  0
   43.6120   19.8260   35.9140 H   0  0  0  0  0  0  0  0  0  0  0  0
   37.4280   27.4680   33.4700 C   0  0  0  0  0  0  0  0  0  0  0  0
   37.6110   27.3800   32.0980 C   0  0  0  0  0  0  0  0  0  0  0  0
   36.6180   28.0960   31.5040 N   0  0  0  0  0  0  0  0  0  0  0  0
   35.8250   28.6240   32.4700 C   0  0  0  0  0  0  0  0  0  0  0  0
   36.3240   28.2380   33.6620 N   0  0  0  0  0  0  0  0  0  0  0  0
   38.3930   26.8450   31.6000 H   0  0  0  0  0  0  0  0  0  0  0  0
   36.5010   28.2080   30.4810 H   0  0  0  0  0  0  0  0  0  0  0  0
   34.6170   29.4770   32.2710 C   0  0  0  0  0  0  0  0  0  0  0  0
   34.6550   30.6180   31.4620 C   0  0  0  0  0  0  0  0  0  0  0  0
   32.9470   31.2690   31.5680 S   0  0  0  0  0  0  0  0  0  0  0  0
   32.4620   29.8430   32.7240 C   0  0  0  0  0  0  0  0  0  0  0  0
   33.4340   29.2820   32.7980 N   0  0  0  0  0  0  0  0  0  0  0  0
   35.5280   30.9840   30.9180 H   0  0  0  0  0  0  0  0  0  0  0  0
   31.0910   29.5590   33.3740 C   0  0  0  0  0  3  0  0  0  0  0  0
   31.0870   28.4470   34.3460 C   0  0  0  0  0  2  0  0  0  0  0  0
   30.9610   29.8710   34.8170 C   0  0  0  0  0  2  0  0  0  0  0  0
  1  4  1  1  0  0  0
  1  2  1  0  0  0  0
  1 11  1  0  0  0  0
  2  5  1  0  0  0  0
  2  6  1  0  0  0  0
  3  7  1  6  0  0  0
  3  1  1  0  0  0  0
  3  2  1  0  0  0  0
  8  9  1  0  0  0  0
  9 13  1  0  0  0  0
 10  9  2  0  0  0  0
 10 14  1  0  0  0  0
 11 10  1  0  0  0  0
 12 11  1  0  0  0  0
 12  8  2  0  0  0  0
 15 21  1  0  0  0  0
 16  8  1  0  0  0  0
 16 15  2  0  0  0  0
 17 16  1  0  0  0  0
 18 17  2  0  0  0  0
 18 19  1  0  0  0  0
 19 20  2  0  0  0  0
 20 15  1  0  0  0  0
 22 17  1  0  0  0  0
 23 19  1  0  0  0  0
 24 28  1  0  0  0  0
 24  3  1  0  0  0  0
 25 24  2  0  0  0  0
 26 25  1  0  0  0  0
 26 27  1  0  0  0  0
 27 28  2  0  0  0  0
 29 25  1  0  0  0  0
 30 26  1  0  0  0  0
 31 27  1  0  0  0  0
 31 35  1  0  0  0  0
 32 33  1  0  0  0  0
 32 31  2  0  0  0  0
 33 34  1  0  0  0  0
 34 35  2  0  0  0  0
 34 37  1  0  0  0  0
 36 32  1  0  0  0  0
 37 38  1  0  0  0  0
 37 39  1  0  0  0  0
 38 39  1  0  0  0  0
M  END
>  <minimizedAffinity>
-5.94345045

$$$$

 OpenBabel03272500523D

 39 44  0  0  1  0  0  0  0  0999 V2000
   37.7400   26.1940   35.9120 C   0  0  1  0  0  0  0  0  0  0  0  0
   38.7280   27.4020   35.7260 C   0  0  0  0  0  0  0  0  0  0  0  0
   38.0350   26.7250   34.5820 C   0  0  2  0  0  0  0  0  0  0  0  0
   36.7580   26.4620   36.3500 H   0  0  0  0  0  0  0  0  0  0  0  0
   38.3390   28.3590   36.0710 H   0  0  0  0  0  0  0  0  0  0  0  0
   39.8030   27.1670   35.9050 H   0  0  0  0  0  0  0  0  0  0  0  0
   38.7110   26.1550   33.9140 H   0  0  0  0  0  0  0  0  0  0  0  0
   39.6960   23.2230   36.4420 C   0  0  0  0  0  0  0  0  0  0  0  0
   38.7100   23.0570   37.4150 C   0  0  0  0  0  0  0  0  0  0  0  0
   37.8400   24.1640   37.3400 C   0  0  0  0  0  0  0  0  0  0  0  0
   38.3120   24.9410   36.3540 N   0  0  0  0  0  0  0  0  0  0  0  0
   39.3810   24.3620   35.8640 N   0  0  0  0  0  0  0  0  0  0  0  0
   38.6270   22.2210   38.1110 H   0  0  0  0  0  0  0  0  0  0  0  0
   36.9800   24.2970   37.9810 H   0  0  0  0  0  0  0  0  0  0  0  0
   41.4030   21.5910   37.2990 C   0  0  0  0  0  0  0  0  0  0  0  0
   40.7560   22.2840   36.2280 C   0  0  0  0  0  0  0  0  0  0  0  0
   41.2000   22.0110   34.9520 C   0  0  0  0  0  0  0  0  0  0  0  0
   42.2140   21.1090   34.7900 N   0  0  0  0  0  0  0  0  0  0  0  0
   42.7900   20.4830   35.8250 C   0  0  0  0  0  0  0  0  0  0  0  0
   42.3850   20.7200   37.1070 N   0  0  0  0  0  0  0  0  0  0  0  0
   41.0180   21.8400   38.2850 H   0  0  0  0  0  0  0  0  0  0  0  0
   40.7880   22.4730   34.0710 H   0  0  0  0  0  0  0  0  0  0  0  0
   43.5760   19.8000   35.5390 H   0  0  0  0  0  0  0  0  0  0  0  0
   36.9730   27.4760   33.8310 C   0  0  0  0  0  0  0  0  0  0  0  0
   36.6480   27.2770   32.4980 C   0  0  0  0  0  0  0  0  0  0  0  0
   35.6330   28.1310   32.1900 N   0  0  0  0  0  0  0  0  0  0  0  0
   35.3220   28.8530   33.2960 C   0  0  0  0  0  0  0  0  0  0  0  0
   36.1410   28.4490   34.2900 N   0  0  0  0  0  0  0  0  0  0  0  0
   37.1120   26.5780   31.8340 H   0  0  0  0  0  0  0  0  0  0  0  0
   35.1850   28.2050   31.2600 H   0  0  0  0  0  0  0  0  0  0  0  0
   34.2690   29.9040   33.4150 C   0  0  0  0  0  0  0  0  0  0  0  0
   33.6290   30.4250   32.2840 C   0  0  0  0  0  0  0  0  0  0  0  0
   32.4600   31.6470   32.9860 S   0  0  0  0  0  0  0  0  0  0  0  0
   33.0560   31.2280   34.7390 C   0  0  0  0  0  0  0  0  0  0  0  0
   33.8320   30.4420   34.5250 N   0  0  0  0  0  0  0  0  0  0  0  0
   33.8240   30.1320   31.2510 H   0  0  0  0  0  0  0  0  0  0  0  0
   32.5810   31.8250   36.0820 C   0  0  0  0  0  3  0  0  0  0  0  0
   32.5100   30.8600   37.1970 C   0  0  0  0  0  2  0  0  0  0  0  0
   33.5890   31.9080   37.1660 C   0  0  0  0  0  2  0  0  0  0  0  0
  1  4  1  1  0  0  0
  1 11  1  0  0  0  0
  2  6  1  0  0  0  0
  2  1  1  0  0  0  0
  2  5  1  0  0  0  0
  3  7  1  6  0  0  0
  3  2  1  0  0  0  0
  3  1  1  0  0  0  0
  8  9  1  0  0  0  0
  9 13  1  0  0  0  0
 10  9  2  0  0  0  0
 10 14  1  0  0  0  0
 11 10  1  0  0  0  0
 12 11  1  0  0  0  0
 12  8  2  0  0  0  0
 15 21  1  0  0  0  0
 16  8  1  0  0  0  0
 16 15  2  0  0  0  0
 17 16  1  0  0  0  0
 18 17  2  0  0  0  0
 18 19  1  0  0  0  0
 19 20  2  0  0  0  0
 20 15  1  0  0  0  0
 22 17  1  0  0  0  0
 23 19  1  0  0  0  0
 24 28  1  0  0  0  0
 24  3  1  0  0  0  0
 25 24  2  0  0  0  0
 26 25  1  0  0  0  0
 26 27  1  0  0  0  0
 27 31  1  0  0  0  0
 27 28  2  0  0  0  0
 29 25  1  0  0  0  0
 30 26  1  0  0  0  0
 31 35  1  0  0  0  0
 32 33  1  0  0  0  0
 32 31  2  0  0  0  0
 33 34  1  0  0  0  0
 34 37  1  0  0  0  0
 35 34  2  0  0  0  0
 36 32  1  0  0  0  0
 37 39  1  0  0  0  0
 37 38  1  0  0  0  0
 39 38  1  0  0  0  0
M  END
>  <minimizedAffinity>
-5.88261938

$$$$

 OpenBabel03272500523D

 39 44  0  0  1  0  0  0  0  0999 V2000
   34.9000   29.6360   34.5900 C   0  0  1  0  0  0  0  0  0  0  0  0
   34.5830   29.7400   33.0540 C   0  0  0  0  0  0  0  0  0  0  0  0
   35.9520   29.4530   33.5920 C   0  0  2  0  0  0  0  0  0  0  0  0
   34.5140   28.7220   35.0830 H   0  0  0  0  0  0  0  0  0  0  0  0
   34.0010   28.9090   32.6580 H   0  0  0  0  0  0  0  0  0  0  0  0
   34.3670   30.7690   32.6830 H   0  0  0  0  0  0  0  0  0  0  0  0
   36.6850   30.2680   33.4280 H   0  0  0  0  0  0  0  0  0  0  0  0
   33.9060   32.5600   36.4320 C   0  0  0  0  0  0  0  0  0  0  0  0
   35.2950   32.6730   36.5060 C   0  0  0  0  0  0  0  0  0  0  0  0
   35.8520   31.5770   35.8150 C   0  0  0  0  0  0  0  0  0  0  0  0
   34.8140   30.8580   35.3610 N   0  0  0  0  0  0  0  0  0  0  0  0
   33.7130   31.4600   35.7380 N   0  0  0  0  0  0  0  0  0  0  0  0
   35.8510   33.4660   37.0070 H   0  0  0  0  0  0  0  0  0  0  0  0
   36.9150   31.4090   35.7110 H   0  0  0  0  0  0  0  0  0  0  0  0
   31.5990   33.4950   36.7800 C   0  0  0  0  0  0  0  0  0  0  0  0
   33.0080   33.5060   37.0260 C   0  0  0  0  0  0  0  0  0  0  0  0
   33.4850   34.4820   37.8740 C   0  0  0  0  0  0  0  0  0  0  0  0
   32.5960   35.3650   38.4200 N   0  0  0  0  0  0  0  0  0  0  0  0
   31.2830   35.3160   38.1610 C   0  0  0  0  0  0  0  0  0  0  0  0
   30.7640   34.3680   37.3270 N   0  0  0  0  0  0  0  0  0  0  0  0
   31.2720   32.7080   36.1050 H   0  0  0  0  0  0  0  0  0  0  0  0
   34.5250   34.5860   38.1310 H   0  0  0  0  0  0  0  0  0  0  0  0
   30.7090   36.0800   38.6650 H   0  0  0  0  0  0  0  0  0  0  0  0
   36.5430   28.0890   33.3800 C   0  0  0  0  0  0  0  0  0  0  0  0
   36.8080   27.5180   32.1440 C   0  0  0  0  0  0  0  0  0  0  0  0
   37.3510   26.2900   32.3650 N   0  0  0  0  0  0  0  0  0  0  0  0
   37.4300   26.0840   33.7040 C   0  0  0  0  0  0  0  0  0  0  0  0
   36.9370   27.1820   34.3140 N   0  0  0  0  0  0  0  0  0  0  0  0
   36.6190   27.9660   31.1900 H   0  0  0  0  0  0  0  0  0  0  0  0
   37.6490   25.6330   31.6230 H   0  0  0  0  0  0  0  0  0  0  0  0
   37.9630   24.8740   34.3960 C   0  0  0  0  0  0  0  0  0  0  0  0
   38.7620   23.9430   33.7240 C   0  0  0  0  0  0  0  0  0  0  0  0
   39.1280   22.6930   35.0100 S   0  0  0  0  0  0  0  0  0  0  0  0
   38.1050   23.6750   36.2730 C   0  0  0  0  0  0  0  0  0  0  0  0
   37.7630   24.5450   35.6480 N   0  0  0  0  0  0  0  0  0  0  0  0
   39.0650   24.0030   32.6770 H   0  0  0  0  0  0  0  0  0  0  0  0
   37.8350   23.3410   37.7560 C   0  0  0  0  0  3  0  0  0  0  0  0
   39.0310   23.3590   38.6210 C   0  0  0  0  0  2  0  0  0  0  0  0
   37.9990   24.4480   38.7280 C   0  0  0  0  0  2  0  0  0  0  0  0
  1  4  1  1  0  0  0
  1 11  1  0  0  0  0
  2  3  1  0  0  0  0
  2  1  1  0  0  0  0
  3  7  1  6  0  0  0
  3  1  1  0  0  0  0
  5  2  1  0  0  0  0
  6  2  1  0  0  0  0
  8  9  1  0  0  0  0
  8 16  1  0  0  0  0
  9 13  1  0  0  0  0
 10  9  2  0  0  0  0
 11 12  1  0  0  0  0
 11 10  1  0  0  0  0
 12  8  2  0  0  0  0
 14 10  1  0  0  0  0
 15 16  2  0  0  0  0
 15 20  1  0  0  0  0
 16 17  1  0  0  0  0
 17 22  1  0  0  0  0
 17 18  2  0  0  0  0
 19 18  1  0  0  0  0
 19 23  1  0  0  0  0
 20 19  2  0  0  0  0
 21 15  1  0  0  0  0
 24  3  1  0  0  0  0
 24 28  1  0  0  0  0
 25 26  1  0  0  0  0
 25 24  2  0  0  0  0
 26 27  1  0  0  0  0
 27 28  2  0  0  0  0
 27 31  1  0  0  0  0
 29 25  1  0  0  0  0
 30 26  1  0  0  0  0
 31 35  1  0  0  0  0
 32 31  2  0  0  0  0
 32 33  1  0  0  0  0
 33 34  1  0  0  0  0
 34 37  1  0  0  0  0
 35 34  2  0  0  0  0
 36 32  1  0  0  0  0
 37 38  1  0  0  0  0
 37 39  1  0  0  0  0
 38 39  1  0  0  0  0
M  END
>  <minimizedAffinity>
-5.87844515

$$$$

 OpenBabel03272500523D

 39 44  0  0  1  0  0  0  0  0999 V2000
   34.9050   29.7930   33.3490 C   0  0  1  0  0  0  0  0  0  0  0  0
   35.2480   30.4380   31.9570 C   0  0  0  0  0  0  0  0  0  0  0  0
   36.1450   29.4580   32.6520 C   0  0  2  0  0  0  0  0  0  0  0  0
   34.0960   29.0360   33.3220 H   0  0  0  0  0  0  0  0  0  0  0  0
   34.6350   30.0800   31.1320 H   0  0  0  0  0  0  0  0  0  0  0  0
   35.5230   31.5180   31.9900 H   0  0  0  0  0  0  0  0  0  0  0  0
   37.0990   29.8900   33.0130 H   0  0  0  0  0  0  0  0  0  0  0  0
   34.2170   32.1910   35.9390 C   0  0  0  0  0  0  0  0  0  0  0  0
   35.4810   31.7490   36.3300 C   0  0  0  0  0  0  0  0  0  0  0  0
   35.9060   30.7810   35.3970 C   0  0  0  0  0  0  0  0  0  0  0  0
   34.9150   30.6710   34.4980 N   0  0  0  0  0  0  0  0  0  0  0  0
   33.9630   31.5010   34.8490 N   0  0  0  0  0  0  0  0  0  0  0  0
   36.0420   32.0900   37.2010 H   0  0  0  0  0  0  0  0  0  0  0  0
   36.8550   30.2670   35.4530 H   0  0  0  0  0  0  0  0  0  0  0  0
   34.0730   34.0450   37.6280 C   0  0  0  0  0  0  0  0  0  0  0  0
   33.4730   33.1820   36.6590 C   0  0  0  0  0  0  0  0  0  0  0  0
   32.1220   33.3390   36.4360 C   0  0  0  0  0  0  0  0  0  0  0  0
   31.4490   34.2950   37.1430 N   0  0  0  0  0  0  0  0  0  0  0  0
   32.0540   35.0830   38.0420 C   0  0  0  0  0  0  0  0  0  0  0  0
   33.3890   34.9640   38.2980 N   0  0  0  0  0  0  0  0  0  0  0  0
   35.1390   33.8830   37.7690 H   0  0  0  0  0  0  0  0  0  0  0  0
   31.5660   32.7450   35.7300 H   0  0  0  0  0  0  0  0  0  0  0  0
   31.3910   35.7890   38.5200 H   0  0  0  0  0  0  0  0  0  0  0  0
   36.3160   28.0870   32.0610 C   0  0  0  0  0  0  0  0  0  0  0  0
   36.3460   27.8020   30.7040 C   0  0  0  0  0  0  0  0  0  0  0  0
   36.5310   26.4610   30.5690 N   0  0  0  0  0  0  0  0  0  0  0  0
   36.6170   25.9070   31.8050 C   0  0  0  0  0  0  0  0  0  0  0  0
   36.4850   26.9020   32.7060 N   0  0  0  0  0  0  0  0  0  0  0  0
   36.2420   28.5120   29.9090 H   0  0  0  0  0  0  0  0  0  0  0  0
   36.5940   25.9610   29.6640 H   0  0  0  0  0  0  0  0  0  0  0  0
   36.8220   24.4650   32.1300 C   0  0  0  0  0  0  0  0  0  0  0  0
   37.7780   24.0580   33.0670 C   0  0  0  0  0  0  0  0  0  0  0  0
   37.6110   22.2350   33.0760 S   0  0  0  0  0  0  0  0  0  0  0  0
   36.2350   22.3420   31.7720 C   0  0  0  0  0  0  0  0  0  0  0  0
   36.1730   23.4530   31.6110 N   0  0  0  0  0  0  0  0  0  0  0  0
   38.4390   24.7190   33.6300 H   0  0  0  0  0  0  0  0  0  0  0  0
   35.4350   21.1910   31.1250 C   0  0  0  0  0  3  0  0  0  0  0  0
   35.9810   19.8420   31.3760 C   0  0  0  0  0  2  0  0  0  0  0  0
   34.7090   20.2850   32.0470 C   0  0  0  0  0  2  0  0  0  0  0  0
  1  4  1  6  0  0  0
  1 11  1  0  0  0  0
  2  6  1  0  0  0  0
  2  3  1  0  0  0  0
  2  1  1  0  0  0  0
  3  7  1  1  0  0  0
  3  1  1  0  0  0  0
  5  2  1  0  0  0  0
  8  9  1  0  0  0  0
  8 16  1  0  0  0  0
  9 13  1  0  0  0  0
 10 14  1  0  0  0  0
 10  9  2  0  0  0  0
 11 12  1  0  0  0  0
 11 10  1  0  0  0  0
 12  8  2  0  0  0  0
 15 21  1  0  0  0  0
 15 20  1  0  0  0  0
 16 15  2  0  0  0  0
 17 16  1  0  0  0  0
 17 18  2  0  0  0  0
 18 19  1  0  0  0  0
 19 20  2  0  0  0  0
 19 23  1  0  0  0  0
 22 17  1  0  0  0  0
 24  3  1  0  0  0  0
 24 28  1  0  0  0  0
 25 24  2  0  0  0  0
 26 25  1  0  0  0  0
 26 27  1  0  0  0  0
 27 31  1  0  0  0  0
 27 28  2  0  0  0  0
 29 25  1  0  0  0  0
 30 26  1  0  0  0  0
 31 32  2  0  0  0  0
 32 33  1  0  0  0  0
 32 36  1  0  0  0  0
 34 33  1  0  0  0  0
 35 34  2  0  0  0  0
 35 31  1  0  0  0  0
 37 38  1  0  0  0  0
 37 34  1  0  0  0  0
 37 39  1  0  0  0  0
 38 39  1  0  0  0  0
M  END
>  <minimizedAffinity>
-5.70011139

$$$$

 OpenBabel03272500523D

 39 44  0  0  1  0  0  0  0  0999 V2000
   36.9570   27.0720   32.8140 C   0  0  1  0  0  0  0  0  0  0  0  0
   38.5010   27.2010   32.5470 C   0  0  0  0  0  0  0  0  0  0  0  0
   37.9300   26.5640   33.7790 C   0  0  2  0  0  0  0  0  0  0  0  0
   36.4390   26.3210   32.1840 H   0  0  0  0  0  0  0  0  0  0  0  0
   38.8770   26.5510   31.7590 H   0  0  0  0  0  0  0  0  0  0  0  0
   38.9120   28.2340   32.6310 H   0  0  0  0  0  0  0  0  0  0  0  0
   38.1110   27.1340   34.7120 H   0  0  0  0  0  0  0  0  0  0  0  0
   35.2420   29.9100   34.2060 C   0  0  0  0  0  0  0  0  0  0  0  0
   35.1360   30.1910   32.8430 C   0  0  0  0  0  0  0  0  0  0  0  0
   35.7730   29.1490   32.1380 C   0  0  0  0  0  0  0  0  0  0  0  0
   36.2320   28.2970   33.0680 N   0  0  0  0  0  0  0  0  0  0  0  0
   35.9030   28.7740   34.2450 N   0  0  0  0  0  0  0  0  0  0  0  0
   34.6480   31.0600   32.4000 H   0  0  0  0  0  0  0  0  0  0  0  0
   35.8430   29.1070   31.0600 H   0  0  0  0  0  0  0  0  0  0  0  0
   35.5230   31.5930   36.0500 C   0  0  0  0  0  0  0  0  0  0  0  0
   34.7040   30.7580   35.2270 C   0  0  0  0  0  0  0  0  0  0  0  0
   33.3450   30.7960   35.4570 C   0  0  0  0  0  0  0  0  0  0  0  0
   32.8710   31.6170   36.4410 N   0  0  0  0  0  0  0  0  0  0  0  0
   33.6780   32.3840   37.1880 C   0  0  0  0  0  0  0  0  0  0  0  0
   35.0290   32.3800   36.9970 N   0  0  0  0  0  0  0  0  0  0  0  0
   36.5860   31.5270   35.8310 H   0  0  0  0  0  0  0  0  0  0  0  0
   32.6340   30.2100   34.9000 H   0  0  0  0  0  0  0  0  0  0  0  0
   33.1570   32.9780   37.9240 H   0  0  0  0  0  0  0  0  0  0  0  0
   38.0850   25.0810   33.9660 C   0  0  0  0  0  0  0  0  0  0  0  0
   38.2180   24.4410   35.1880 C   0  0  0  0  0  0  0  0  0  0  0  0
   38.3170   23.1060   34.9460 N   0  0  0  0  0  0  0  0  0  0  0  0
   38.2480   22.9010   33.6060 C   0  0  0  0  0  0  0  0  0  0  0  0
   38.1070   24.1070   33.0170 N   0  0  0  0  0  0  0  0  0  0  0  0
   38.2390   24.9150   36.1480 H   0  0  0  0  0  0  0  0  0  0  0  0
   38.4270   22.3790   35.6750 H   0  0  0  0  0  0  0  0  0  0  0  0
   38.3120   21.5910   32.8940 C   0  0  0  0  0  0  0  0  0  0  0  0
   39.5370   21.0030   32.5580 C   0  0  0  0  0  0  0  0  0  0  0  0
   39.0460   19.4510   31.7220 S   0  0  0  0  0  0  0  0  0  0  0  0
   37.2140   19.8780   31.9800 C   0  0  0  0  0  0  0  0  0  0  0  0
   37.2920   20.8640   32.5140 N   0  0  0  0  0  0  0  0  0  0  0  0
   40.5230   21.4210   32.7720 H   0  0  0  0  0  0  0  0  0  0  0  0
   35.9710   19.0650   31.5560 C   0  0  0  0  0  3  0  0  0  0  0  0
   35.3240   18.3120   32.6490 C   0  0  0  0  0  2  0  0  0  0  0  0
   34.6630   19.5340   32.0710 C   0  0  0  0  0  2  0  0  0  0  0  0
  1  4  1  6  0  0  0
  1 11  1  0  0  0  0
  1  3  1  0  0  0  0
  2  6  1  0  0  0  0
  2  1  1  0  0  0  0
  2  3  1  0  0  0  0
  3 24  1  0  0  0  0
  3  7  1  1  0  0  0
  5  2  1  0  0  0  0
  8 12  2  0  0  0  0
  8 16  1  0  0  0  0
  9  8  1  0  0  0  0
 10  9  2  0  0  0  0
 10 11  1  0  0  0  0
 11 12  1  0  0  0  0
 13  9  1  0  0  0  0
 14 10  1  0  0  0  0
 15 20  1  0  0  0  0
 16 17  1  0  0  0  0
 16 15  2  0  0  0  0
 17 18  2  0  0  0  0
 18 19  1  0  0  0  0
 19 23  1  0  0  0  0
 20 19  2  0  0  0  0
 21 15  1  0  0  0  0
 22 17  1  0  0  0  0
 24 25  2  0  0  0  0
 25 29  1  0  0  0  0
 26 25  1  0  0  0  0
 26 30  1  0  0  0  0
 27 26  1  0  0  0  0
 28 27  2  0  0  0  0
 28 24  1  0  0  0  0
 31 27  1  0  0  0  0
 32 36  1  0  0  0  0
 32 31  2  0  0  0  0
 33 34  1  0  0  0  0
 33 32  1  0  0  0  0
 34 35  2  0  0  0  0
 35 31  1  0  0  0  0
 37 34  1  0  0  0  0
 37 39  1  0  0  0  0
 37 38  1  0  0  0  0
 39 38  1  0  0  0  0
M  END
>  <minimizedAffinity>
-5.67403698

$$$$

 OpenBabel03272500523D

 39 44  0  0  1  0  0  0  0  0999 V2000
   35.1170   29.3100   34.7890 C   0  0  1  0  0  0  0  0  0  0  0  0
   35.1640   29.2050   33.2220 C   0  0  0  0  0  0  0  0  0  0  0  0
   36.3550   28.9550   34.0980 C   0  0  2  0  0  0  0  0  0  0  0  0
   34.5730   28.4860   35.2930 H   0  0  0  0  0  0  0  0  0  0  0  0
   34.6360   28.3450   32.8120 H   0  0  0  0  0  0  0  0  0  0  0  0
   35.1030   30.1770   32.6800 H   0  0  0  0  0  0  0  0  0  0  0  0
   37.1560   29.7150   34.0040 H   0  0  0  0  0  0  0  0  0  0  0  0
   33.9070   32.3700   36.2390 C   0  0  0  0  0  0  0  0  0  0  0  0
   35.2630   32.6690   36.1090 C   0  0  0  0  0  0  0  0  0  0  0  0
   35.8990   31.5450   35.5420 C   0  0  0  0  0  0  0  0  0  0  0  0
   34.9360   30.6300   35.3530 N   0  0  0  0  0  0  0  0  0  0  0  0
   33.8040   31.1470   35.7670 N   0  0  0  0  0  0  0  0  0  0  0  0
   35.7480   33.6030   36.3960 H   0  0  0  0  0  0  0  0  0  0  0  0
   36.9570   31.4960   35.3280 H   0  0  0  0  0  0  0  0  0  0  0  0
   33.3210   34.4000   37.5980 C   0  0  0  0  0  0  0  0  0  0  0  0
   32.9480   33.2870   36.7820 C   0  0  0  0  0  0  0  0  0  0  0  0
   31.6040   33.1200   36.5300 C   0  0  0  0  0  0  0  0  0  0  0  0
   30.7220   34.0160   37.0670 N   0  0  0  0  0  0  0  0  0  0  0  0
   31.1170   35.0460   37.8270 C   0  0  0  0  0  0  0  0  0  0  0  0
   32.4380   35.2510   38.1040 N   0  0  0  0  0  0  0  0  0  0  0  0
   34.3910   34.4890   37.7680 H   0  0  0  0  0  0  0  0  0  0  0  0
   31.2090   32.3180   35.9300 H   0  0  0  0  0  0  0  0  0  0  0  0
   30.3050   35.6660   38.1780 H   0  0  0  0  0  0  0  0  0  0  0  0
   36.8920   27.5560   34.2090 C   0  0  0  0  0  0  0  0  0  0  0  0
   36.9960   26.6570   33.1590 C   0  0  0  0  0  0  0  0  0  0  0  0
   37.5400   25.5100   33.6510 N   0  0  0  0  0  0  0  0  0  0  0  0
   37.7750   25.6760   34.9770 C   0  0  0  0  0  0  0  0  0  0  0  0
   37.3790   26.9220   35.3080 N   0  0  0  0  0  0  0  0  0  0  0  0
   36.7020   26.8350   32.1450 H   0  0  0  0  0  0  0  0  0  0  0  0
   37.7350   24.6610   33.0920 H   0  0  0  0  0  0  0  0  0  0  0  0
   38.3660   24.6760   35.9150 C   0  0  0  0  0  0  0  0  0  0  0  0
   37.8260   24.4640   37.1890 C   0  0  0  0  0  0  0  0  0  0  0  0
   38.9080   23.1670   37.8950 S   0  0  0  0  0  0  0  0  0  0  0  0
   39.9330   23.1350   36.2980 C   0  0  0  0  0  0  0  0  0  0  0  0
   39.4040   23.9130   35.6820 N   0  0  0  0  0  0  0  0  0  0  0  0
   36.9600   24.9800   37.6070 H   0  0  0  0  0  0  0  0  0  0  0  0
   41.1620   22.2610   35.9640 C   0  0  0  0  0  3  0  0  0  0  0  0
   42.4260   22.7130   36.5800 C   0  0  0  0  0  2  0  0  0  0  0  0
   41.7390   21.4710   37.0780 C   0  0  0  0  0  2  0  0  0  0  0  0
  1  4  1  1  0  0  0
  1 11  1  0  0  0  0
  2  3  1  0  0  0  0
  2  1  1  0  0  0  0
  3  7  1  6  0  0  0
  3 24  1  0  0  0  0
  3  1  1  0  0  0  0
  5  2  1  0  0  0  0
  6  2  1  0  0  0  0
  8 16  1  0  0  0  0
  9  8  1  0  0  0  0
  9 13  1  0  0  0  0
 10  9  2  0  0  0  0
 11 10  1  0  0  0  0
 11 12  1  0  0  0  0
 12  8  2  0  0  0  0
 14 10  1  0  0  0  0
 15 21  1  0  0  0  0
 15 20  1  0  0  0  0
 16 15  2  0  0  0  0
 17 16  1  0  0  0  0
 17 18  2  0  0  0  0
 18 19  1  0  0  0  0
 19 20  2  0  0  0  0
 19 23  1  0  0  0  0
 22 17  1  0  0  0  0
 24 28  1  0  0  0  0
 25 26  1  0  0  0  0
 25 24  2  0  0  0  0
 26 27  1  0  0  0  0
 27 28  2  0  0  0  0
 27 31  1  0  0  0  0
 29 25  1  0  0  0  0
 30 26  1  0  0  0  0
 31 32  2  0  0  0  0
 32 36  1  0  0  0  0
 32 33  1  0  0  0  0
 34 33  1  0  0  0  0
 35 31  1  0  0  0  0
 35 34  2  0  0  0  0
 37 34  1  0  0  0  0
 37 38  1  0  0  0  0
 37 39  1  0  0  0  0
 38 39  1  0  0  0  0
M  END
>  <minimizedAffinity>
-5.50150537

$$$$

 OpenBabel03272500523D

 39 44  0  0  1  0  0  0  0  0999 V2000
   36.8430   26.5630   32.2150 C   0  0  1  0  0  0  0  0  0  0  0  0
   37.8810   27.2840   31.2800 C   0  0  0  0  0  0  0  0  0  0  0  0
   36.4530   27.7210   31.4130 C   0  0  2  0  0  0  0  0  0  0  0  0
   36.9980   26.7360   33.2990 H   0  0  0  0  0  0  0  0  0  0  0  0
   38.6450   27.8520   31.8080 H   0  0  0  0  0  0  0  0  0  0  0  0
   38.1740   26.7130   30.3680 H   0  0  0  0  0  0  0  0  0  0  0  0
   35.8420   27.5630   30.5020 H   0  0  0  0  0  0  0  0  0  0  0  0
   36.5320   23.0380   31.5810 C   0  0  0  0  0  0  0  0  0  0  0  0
   35.3220   23.4980   31.0600 C   0  0  0  0  0  0  0  0  0  0  0  0
   35.2840   24.8970   31.2340 C   0  0  0  0  0  0  0  0  0  0  0  0
   36.4370   25.2280   31.8360 N   0  0  0  0  0  0  0  0  0  0  0  0
   37.1260   24.1270   32.0160 N   0  0  0  0  0  0  0  0  0  0  0  0
   34.5440   22.8870   30.6010 H   0  0  0  0  0  0  0  0  0  0  0  0
   34.4580   25.5190   30.9210 H   0  0  0  0  0  0  0  0  0  0  0  0
   36.0900   20.6280   31.0240 C   0  0  0  0  0  0  0  0  0  0  0  0
   36.9160   21.6570   31.5750 C   0  0  0  0  0  0  0  0  0  0  0  0
   38.1210   21.2660   32.1170 C   0  0  0  0  0  0  0  0  0  0  0  0
   38.4500   19.9400   32.0930 N   0  0  0  0  0  0  0  0  0  0  0  0
   37.6440   19.0090   31.5640 C   0  0  0  0  0  0  0  0  0  0  0  0
   36.4400   19.3480   31.0170 N   0  0  0  0  0  0  0  0  0  0  0  0
   35.1510   20.9860   30.6100 H   0  0  0  0  0  0  0  0  0  0  0  0
   38.8220   21.9530   32.5590 H   0  0  0  0  0  0  0  0  0  0  0  0
   38.0400   18.0060   31.6190 H   0  0  0  0  0  0  0  0  0  0  0  0
   36.1550   29.0280   32.0920 C   0  0  0  0  0  0  0  0  0  0  0  0
   36.2750   30.2770   31.5030 C   0  0  0  0  0  0  0  0  0  0  0  0
   35.9030   31.2050   32.4270 N   0  0  0  0  0  0  0  0  0  0  0  0
   35.5550   30.5630   33.5710 C   0  0  0  0  0  0  0  0  0  0  0  0
   35.7110   29.2400   33.3600 N   0  0  0  0  0  0  0  0  0  0  0  0
   36.6020   30.4740   30.5030 H   0  0  0  0  0  0  0  0  0  0  0  0
   35.8920   32.2280   32.2670 H   0  0  0  0  0  0  0  0  0  0  0  0
   35.0820   31.1880   34.8420 C   0  0  0  0  0  0  0  0  0  0  0  0
   35.8270   32.1820   35.4870 C   0  0  0  0  0  0  0  0  0  0  0  0
   34.8120   32.5840   36.9560 S   0  0  0  0  0  0  0  0  0  0  0  0
   33.5170   31.2990   36.4290 C   0  0  0  0  0  0  0  0  0  0  0  0
   33.9750   30.9040   35.4800 N   0  0  0  0  0  0  0  0  0  0  0  0
   36.7820   32.5850   35.1440 H   0  0  0  0  0  0  0  0  0  0  0  0
   32.1980   30.9210   37.1360 C   0  0  0  0  0  3  0  0  0  0  0  0
   31.0770   30.6090   36.2260 C   0  0  0  0  0  2  0  0  0  0  0  0
   31.7530   29.5130   37.0040 C   0  0  0  0  0  2  0  0  0  0  0  0
  1  4  1  1  0  0  0
  2  3  1  0  0  0  0
  2  5  1  0  0  0  0
  2  1  1  0  0  0  0
  3  7  1  6  0  0  0
  3 24  1  0  0  0  0
  3  1  1  0  0  0  0
  6  2  1  0  0  0  0
  8 12  2  0  0  0  0
  9 10  2  0  0  0  0
  9  8  1  0  0  0  0
 10 11  1  0  0  0  0
 11 12  1  0  0  0  0
 11  1  1  0  0  0  0
 13  9  1  0  0  0  0
 14 10  1  0  0  0  0
 15 16  1  0  0  0  0
 16  8  1  0  0  0  0
 16 17  2  0  0  0  0
 17 22  1  0  0  0  0
 18 17  1  0  0  0  0
 19 23  1  0  0  0  0
 19 18  2  0  0  0  0
 20 15  2  0  0  0  0
 20 19  1  0  0  0  0
 21 15  1  0  0  0  0
 24 28  1  0  0  0  0
 25 24  2  0  0  0  0
 25 26  1  0  0  0  0
 26 27  1  0  0  0  0
 27 31  1  0  0  0  0
 28 27  2  0  0  0  0
 29 25  1  0  0  0  0
 30 26  1  0  0  0  0
 31 35  1  0  0  0  0
 31 32  2  0  0  0  0
 32 33  1  0  0  0  0
 34 33  1  0  0  0  0
 34 37  1  0  0  0  0
 35 34  2  0  0  0  0
 36 32  1  0  0  0  0
 38 39  1  0  0  0  0
 38 37  1  0  0  0  0
 39 37  1  0  0  0  0
M  END
>  <minimizedAffinity>
-5.46491718

$$$$

 OpenBabel03272500523D

 39 44  0  0  1  0  0  0  0  0999 V2000
   37.2510   25.7400   31.6190 C   0  0  1  0  0  0  0  0  0  0  0  0
   35.7500   25.7270   31.1530 C   0  0  0  0  0  0  0  0  0  0  0  0
   36.3510   26.8400   31.9590 C   0  0  2  0  0  0  0  0  0  0  0  0
   37.9860   25.9270   30.8110 H   0  0  0  0  0  0  0  0  0  0  0  0
   35.6100   25.8820   30.0840 H   0  0  0  0  0  0  0  0  0  0  0  0
   35.0970   24.9910   31.6770 H   0  0  0  0  0  0  0  0  0  0  0  0
   35.9600   26.9150   32.9930 H   0  0  0  0  0  0  0  0  0  0  0  0
   38.1510   23.9270   34.5910 C   0  0  0  0  0  0  0  0  0  0  0  0
   38.2270   22.9090   33.6400 C   0  0  0  0  0  0  0  0  0  0  0  0
   37.8950   23.4660   32.3870 C   0  0  0  0  0  0  0  0  0  0  0  0
   37.6360   24.7630   32.6150 N   0  0  0  0  0  0  0  0  0  0  0  0
   37.7960   24.9850   33.8970 N   0  0  0  0  0  0  0  0  0  0  0  0
   38.4940   21.8680   33.8280 H   0  0  0  0  0  0  0  0  0  0  0  0
   37.8720   22.9030   31.4650 H   0  0  0  0  0  0  0  0  0  0  0  0
   37.5970   24.2540   37.0200 C   0  0  0  0  0  0  0  0  0  0  0  0
   38.4260   23.7230   35.9830 C   0  0  0  0  0  0  0  0  0  0  0  0
   39.5260   22.9920   36.3770 C   0  0  0  0  0  0  0  0  0  0  0  0
   39.7540   22.8210   37.7130 N   0  0  0  0  0  0  0  0  0  0  0  0
   38.9480   23.3370   38.6510 C   0  0  0  0  0  0  0  0  0  0  0  0
   37.8470   24.0680   38.3100 N   0  0  0  0  0  0  0  0  0  0  0  0
   36.7430   24.8220   36.6600 H   0  0  0  0  0  0  0  0  0  0  0  0
   40.2190   22.5460   35.6840 H   0  0  0  0  0  0  0  0  0  0  0  0
   39.2580   23.1180   39.6620 H   0  0  0  0  0  0  0  0  0  0  0  0
   36.5420   28.1810   31.3110 C   0  0  0  0  0  0  0  0  0  0  0  0
   36.8070   28.3860   29.9650 C   0  0  0  0  0  0  0  0  0  0  0  0
   36.8980   29.7290   29.7630 N   0  0  0  0  0  0  0  0  0  0  0  0
   36.6960   30.3610   30.9470 C   0  0  0  0  0  0  0  0  0  0  0  0
   36.4810   29.4140   31.8830 N   0  0  0  0  0  0  0  0  0  0  0  0
   36.9190   27.6240   29.2220 H   0  0  0  0  0  0  0  0  0  0  0  0
   37.0900   30.1780   28.8500 H   0  0  0  0  0  0  0  0  0  0  0  0
   36.7050   31.8340   31.1910 C   0  0  0  0  0  0  0  0  0  0  0  0
   36.7810   32.7470   30.1330 C   0  0  0  0  0  0  0  0  0  0  0  0
   36.7570   34.3720   30.9750 S   0  0  0  0  0  0  0  0  0  0  0  0
   36.6440   33.5100   32.6630 C   0  0  0  0  0  0  0  0  0  0  0  0
   36.6460   32.4280   32.3560 N   0  0  0  0  0  0  0  0  0  0  0  0
   36.8390   32.4900   29.0730 H   0  0  0  0  0  0  0  0  0  0  0  0
   36.5710   34.1520   34.0650 C   0  0  0  0  0  3  0  0  0  0  0  0
   36.7300   33.2050   35.1870 C   0  0  0  0  0  2  0  0  0  0  0  0
   37.8280   34.1780   34.8510 C   0  0  0  0  0  2  0  0  0  0  0  0
  1  4  1  6  0  0  0
  1  3  1  0  0  0  0
  1 11  1  0  0  0  0
  2  1  1  0  0  0  0
  2  6  1  0  0  0  0
  2  3  1  0  0  0  0
  3  7  1  1  0  0  0
  5  2  1  0  0  0  0
  8 16  1  0  0  0  0
  9 13  1  0  0  0  0
  9  8  1  0  0  0  0
 10 11  1  0  0  0  0
 10  9  2  0  0  0  0
 11 12  1  0  0  0  0
 12  8  2  0  0  0  0
 14 10  1  0  0  0  0
 15 20  1  0  0  0  0
 16 17  1  0  0  0  0
 16 15  2  0  0  0  0
 17 18  2  0  0  0  0
 18 19  1  0  0  0  0
 19 23  1  0  0  0  0
 20 19  2  0  0  0  0
 21 15  1  0  0  0  0
 22 17  1  0  0  0  0
 24 28  1  0  0  0  0
 24  3  1  0  0  0  0
 25 24  2  0  0  0  0
 26 25  1  0  0  0  0
 26 27  1  0  0  0  0
 27 31  1  0  0  0  0
 27 28  2  0  0  0  0
 29 25  1  0  0  0  0
 30 26  1  0  0  0  0
 31 35  1  0  0  0  0
 32 33  1  0  0  0  0
 32 31  2  0  0  0  0
 33 34  1  0  0  0  0
 34 37  1  0  0  0  0
 35 34  2  0  0  0  0
 36 32  1  0  0  0  0
 37 39  1  0  0  0  0
 37 38  1  0  0  0  0
 39 38  1  0  0  0  0
M  END
>  <minimizedAffinity>
-5.42827749

$$$$

 OpenBabel03272500523D

 39 44  0  0  1  0  0  0  0  0999 V2000
   37.6810   26.0870   35.7390 C   0  0  1  0  0  0  0  0  0  0  0  0
   38.4910   27.4340   35.7620 C   0  0  0  0  0  0  0  0  0  0  0  0
   38.1700   26.6900   34.5010 C   0  0  2  0  0  0  0  0  0  0  0  0
   36.5990   26.1930   35.9530 H   0  0  0  0  0  0  0  0  0  0  0  0
   37.8970   28.3120   36.0080 H   0  0  0  0  0  0  0  0  0  0  0  0
   39.5260   27.3580   36.1700 H   0  0  0  0  0  0  0  0  0  0  0  0
   39.0520   26.2450   33.9980 H   0  0  0  0  0  0  0  0  0  0  0  0
   39.7490   23.2440   36.4960 C   0  0  0  0  0  0  0  0  0  0  0  0
   38.8920   23.2360   37.5970 C   0  0  0  0  0  0  0  0  0  0  0  0
   37.9950   24.3150   37.4520 C   0  0  0  0  0  0  0  0  0  0  0  0
   38.3290   24.9230   36.3030 N   0  0  0  0  0  0  0  0  0  0  0  0
   39.3430   24.2730   35.7850 N   0  0  0  0  0  0  0  0  0  0  0  0
   38.9110   22.5240   38.4230 H   0  0  0  0  0  0  0  0  0  0  0  0
   37.2170   24.5490   38.1630 H   0  0  0  0  0  0  0  0  0  0  0  0
   41.3030   21.9360   35.0160 C   0  0  0  0  0  0  0  0  0  0  0  0
   40.7960   22.2840   36.3070 C   0  0  0  0  0  0  0  0  0  0  0  0
   41.3600   21.6460   37.3910 C   0  0  0  0  0  0  0  0  0  0  0  0
   42.3560   20.7360   37.1690 N   0  0  0  0  0  0  0  0  0  0  0  0
   42.8000   20.4430   35.9400 C   0  0  0  0  0  0  0  0  0  0  0  0
   42.2720   21.0480   34.8360 N   0  0  0  0  0  0  0  0  0  0  0  0
   40.8260   22.4650   34.1940 H   0  0  0  0  0  0  0  0  0  0  0  0
   41.0580   21.8280   38.4080 H   0  0  0  0  0  0  0  0  0  0  0  0
   43.5890   19.7050   35.9250 H   0  0  0  0  0  0  0  0  0  0  0  0
   37.1920   27.2930   33.5330 C   0  0  0  0  0  0  0  0  0  0  0  0
   37.0450   26.9140   32.2070 C   0  0  0  0  0  0  0  0  0  0  0  0
   36.0550   27.6760   31.6680 N   0  0  0  0  0  0  0  0  0  0  0  0
   35.5850   28.5170   32.6240 C   0  0  0  0  0  0  0  0  0  0  0  0
   36.2810   28.2780   33.7540 N   0  0  0  0  0  0  0  0  0  0  0  0
   37.6100   26.1570   31.7020 H   0  0  0  0  0  0  0  0  0  0  0  0
   35.7270   27.6120   30.6880 H   0  0  0  0  0  0  0  0  0  0  0  0
   34.4960   29.5260   32.4730 C   0  0  0  0  0  0  0  0  0  0  0  0
   33.1810   29.2430   32.8570 C   0  0  0  0  0  0  0  0  0  0  0  0
   32.2830   30.7880   32.4650 S   0  0  0  0  0  0  0  0  0  0  0  0
   33.8900   31.5750   31.8290 C   0  0  0  0  0  0  0  0  0  0  0  0
   34.6220   30.7370   31.9900 N   0  0  0  0  0  0  0  0  0  0  0  0
   32.8320   28.3010   33.2860 H   0  0  0  0  0  0  0  0  0  0  0  0
   34.1010   32.9920   31.2520 C   0  0  0  0  0  3  0  0  0  0  0  0
   35.2570   33.1210   30.3420 C   0  0  0  0  0  2  0  0  0  0  0  0
   33.8540   33.1610   29.8000 C   0  0  0  0  0  2  0  0  0  0  0  0
  1  2  1  0  0  0  0
  1  4  1  1  0  0  0
  1 11  1  0  0  0  0
  2  5  1  0  0  0  0
  2  6  1  0  0  0  0
  3  7  1  6  0  0  0
  3  1  1  0  0  0  0
  3  2  1  0  0  0  0
  8  9  1  0  0  0  0
  9 13  1  0  0  0  0
 10  9  2  0  0  0  0
 10 14  1  0  0  0  0
 11 10  1  0  0  0  0
 12 11  1  0  0  0  0
 12  8  2  0  0  0  0
 15 16  1  0  0  0  0
 16  8  1  0  0  0  0
 16 17  2  0  0  0  0
 17 22  1  0  0  0  0
 18 17  1  0  0  0  0
 19 18  2  0  0  0  0
 20 15  2  0  0  0  0
 20 19  1  0  0  0  0
 21 15  1  0  0  0  0
 23 19  1  0  0  0  0
 24 28  1  0  0  0  0
 24  3  1  0  0  0  0
 25 24  2  0  0  0  0
 26 25  1  0  0  0  0
 26 27  1  0  0  0  0
 27 28  2  0  0  0  0
 29 25  1  0  0  0  0
 30 26  1  0  0  0  0
 31 27  1  0  0  0  0
 31 32  2  0  0  0  0
 32 36  1  0  0  0  0
 33 32  1  0  0  0  0
 34 35  2  0  0  0  0
 34 33  1  0  0  0  0
 35 31  1  0  0  0  0
 37 34  1  0  0  0  0
 38 37  1  0  0  0  0
 39 38  1  0  0  0  0
 39 37  1  0  0  0  0
M  END
>  <minimizedAffinity>
-5.40926504

$$$$
