
 OpenBabel03262520173D

 12 13  0  0  0  0  0  0  0  0999 V2000
   37.5380   30.3420   51.1910 C   0  0  0  0  0  0  0  0  0  0  0  0
   37.8980   31.1490   50.0950 C   0  0  0  0  0  0  0  0  0  0  0  0
   37.3520   30.8400   48.8370 C   0  0  0  0  0  0  0  0  0  0  0  0
   36.5050   29.7700   48.7670 N   0  0  0  0  0  0  0  0  0  0  0  0
   36.1850   29.0210   49.8430 C   0  0  0  0  0  0  0  0  0  0  0  0
   36.7040   29.3070   51.0620 N   0  0  0  0  0  0  0  0  0  0  0  0
   37.9520   30.5710   52.1670 H   0  0  0  0  0  0  0  0  0  0  0  0
   38.5860   31.9950   50.2310 H   0  0  0  0  0  0  0  0  0  0  0  0
   35.4910   28.2080   49.5840 H   0  0  0  0  0  0  0  0  0  0  0  0
   37.6880   31.6420   47.6600 C   0  0  0  0  0  3  0  0  0  0  0  0
   38.9340   32.3940   47.5190 C   0  0  0  0  0  2  0  0  0  0  0  0
   38.8220   31.0400   46.8180 C   0  0  0  0  0  2  0  0  0  0  0  0
  1  7  1  0  0  0  0
  2  8  1  0  0  0  0
  2  1  2  0  0  0  0
  3  2  1  0  0  0  0
  4  3  2  0  0  0  0
  4  5  1  0  0  0  0
  5  6  2  0  0  0  0
  6  1  1  0  0  0  0
  9  5  1  0  0  0  0
 10  3  1  0  0  0  0
 11 10  1  0  0  0  0
 12 11  1  0  0  0  0
 12 10  1  0  0  0  0
M  END
>  <minimizedAffinity>
-3.74920893

>  <minimizedRMSD>
0.918384612

$$$$
