
 OpenBabel03272509043D

 27 29  0  0  0  0  0  0  0  0999 V2000
   33.2550   27.3430   48.1480 C   0  0  0  0  0  0  0  0  0  0  0  0
   32.5290   28.0450   47.6610 H   0  0  0  0  0  0  0  0  0  0  0  0
   32.7900   26.8670   49.0270 H   0  0  0  0  0  0  0  0  0  0  0  0
   33.6830   26.3480   47.1110 C   0  0  0  0  0  0  0  0  0  0  0  0
   33.9400   25.0210   47.3320 C   0  0  0  0  0  0  0  0  0  0  0  0
   34.3270   24.2030   46.2960 C   0  0  0  0  0  0  0  0  0  0  0  0
   34.4700   24.6860   45.0030 C   0  0  0  0  0  0  0  0  0  0  0  0
   34.2150   26.0090   44.7740 C   0  0  0  0  0  0  0  0  0  0  0  0
   33.8270   26.8370   45.8010 C   0  0  0  0  0  0  0  0  0  0  0  0
   33.8020   24.7370   48.3660 H   0  0  0  0  0  0  0  0  0  0  0  0
   34.5030   23.1670   46.5910 H   0  0  0  0  0  0  0  0  0  0  0  0
   34.7770   23.9380   44.2920 H   0  0  0  0  0  0  0  0  0  0  0  0
   34.3360   26.3600   43.7500 H   0  0  0  0  0  0  0  0  0  0  0  0
   33.6500   27.8790   45.5040 H   0  0  0  0  0  0  0  0  0  0  0  0
   34.5810   28.5990   49.8360 C   0  0  0  0  0  3  0  0  0  0  0  0
   34.3690   28.1700   48.6230 C   0  0  0  0  0  3  0  0  0  0  0  0
   37.4780   30.1690   51.4500 C   0  0  0  0  0  0  0  0  0  0  0  0
   37.9440   30.9950   50.3890 C   0  0  0  0  0  0  0  0  0  0  0  0
   37.2570   30.9920   49.1580 C   0  0  0  0  0  0  0  0  0  0  0  0
   36.1730   30.1780   49.0770 N   0  0  0  0  0  0  0  0  0  0  0  0
   35.7620   29.4170   50.0870 C   0  0  0  0  0  0  0  0  0  0  0  0
   36.4090   29.4130   51.2580 N   0  0  0  0  0  0  0  0  0  0  0  0
   38.0470   30.2160   52.3680 H   0  0  0  0  0  0  0  0  0  0  0  0
   38.8000   31.6020   50.5350 H   0  0  0  0  0  0  0  0  0  0  0  0
   37.7100   31.8380   48.0340 C   0  0  0  0  0  3  0  0  0  0  0  0
   38.8410   32.8250   48.2810 C   0  0  0  0  0  2  0  0  0  0  0  0
   39.0120   31.6350   47.3990 C   0  0  0  0  0  2  0  0  0  0  0  0
  1 16  1  0  0  0  0
  1  3  1  0  0  0  0
  2  1  1  0  0  0  0
  4  5  1  0  0  0  0
  4  1  1  0  0  0  0
  5 10  1  0  0  0  0
  6 11  1  0  0  0  0
  6  5  2  0  0  0  0
  7  6  1  0  0  0  0
  8  7  2  0  0  0  0
  8  9  1  0  0  0  0
  9  4  2  0  0  0  0
 12  7  1  0  0  0  0
 13  8  1  0  0  0  0
 14  9  1  0  0  0  0
 15 21  1  0  0  0  0
 16 15  2  0  0  0  0
 17 23  1  0  0  0  0
 18 24  1  0  0  0  0
 18 17  2  0  0  0  0
 19 18  1  0  0  0  0
 20 19  2  0  0  0  0
 20 21  1  0  0  0  0
 21 22  2  0  0  0  0
 22 17  1  0  0  0  0
 25 26  1  0  0  0  0
 25 19  1  0  0  0  0
 27 25  1  0  0  0  0
 27 26  1  0  0  0  0
M  END
>  <minimizedAffinity>
-5.4144249

>  <minimizedRMSD>
0.77959615

$$$$
