
 OpenBabel03272506593D

 22 24  0  0  0  0  0  0  0  0999 V2000
   40.2640   23.2070   36.0140 C   0  0  0  0  0  0  0  0  0  0  0  0
   39.7840   22.7950   37.2470 C   0  0  0  0  0  0  0  0  0  0  0  0
   38.5610   23.3660   37.6210 C   0  0  0  0  0  0  0  0  0  0  0  0
   37.9350   24.2510   36.8040 N   0  0  0  0  0  0  0  0  0  0  0  0
   38.4590   24.6010   35.6290 C   0  0  0  0  0  0  0  0  0  0  0  0
   39.6460   24.0930   35.1840 N   0  0  0  0  0  0  0  0  0  0  0  0
   41.2030   22.7860   35.6970 H   0  0  0  0  0  0  0  0  0  0  0  0
   38.1500   23.0640   38.5890 H   0  0  0  0  0  0  0  0  0  0  0  0
   37.7990   25.5510   34.7360 C   0  0  0  0  0  0  0  0  0  0  0  0
   37.4690   26.8150   35.1400 C   0  0  0  0  0  0  0  0  0  0  0  0
   36.8500   27.7790   34.3790 C   0  0  0  0  0  0  0  0  0  0  0  0
   36.5460   27.4130   33.1040 N   0  0  0  0  0  0  0  0  0  0  0  0
   36.8570   26.1700   32.6680 C   0  0  0  0  0  0  0  0  0  0  0  0
   37.4690   25.2500   33.4540 N   0  0  0  0  0  0  0  0  0  0  0  0
   37.7190   27.0860   36.1570 H   0  0  0  0  0  0  0  0  0  0  0  0
   36.6250   28.7650   34.7880 H   0  0  0  0  0  0  0  0  0  0  0  0
   36.4890   25.8540   31.2620 C   0  0  0  0  0  3  0  0  0  0  0  0
   36.2660   24.4840   30.8070 C   0  0  0  0  0  2  0  0  0  0  0  0
   35.0730   25.3200   31.1480 C   0  0  0  0  0  2  0  0  0  0  0  0
   40.5110   21.8710   38.0210 N   0  0  0  0  0  0  0  0  0  0  0  0
   40.7630   22.4720   38.8440 H   0  0  0  0  0  0  0  0  0  0  0  0
   40.5560   20.9430   37.5460 H   0  0  0  0  0  0  0  0  0  0  0  0
  1  2  1  0  0  0  0
  2  3  2  0  0  0  0
  2 20  1  0  0  0  0
  3  8  1  0  0  0  0
  4  3  1  0  0  0  0
  5  4  2  0  0  0  0
  6  5  1  0  0  0  0
  6  1  2  0  0  0  0
  7  1  1  0  0  0  0
  9 10  1  0  0  0  0
  9  5  1  0  0  0  0
 10 15  1  0  0  0  0
 11 16  1  0  0  0  0
 11 10  2  0  0  0  0
 12 11  1  0  0  0  0
 13 12  2  0  0  0  0
 13 14  1  0  0  0  0
 14  9  2  0  0  0  0
 17 13  1  0  0  0  0
 18 19  1  0  0  0  0
 18 17  1  0  0  0  0
 19 17  1  0  0  0  0
 20 21  1  0  0  0  0
 22 20  1  0  0  0  0
M  END
>  <minimizedAffinity>
-4.98223257

$$$$

 OpenBabel03272506593D

 22 24  0  0  0  0  0  0  0  0999 V2000
   39.9070   23.5480   35.9670 C   0  0  0  0  0  0  0  0  0  0  0  0
   39.3860   23.1980   37.2020 C   0  0  0  0  0  0  0  0  0  0  0  0
   38.1840   23.8350   37.5330 C   0  0  0  0  0  0  0  0  0  0  0  0
   37.6140   24.7210   36.6760 N   0  0  0  0  0  0  0  0  0  0  0  0
   38.1760   25.0100   35.5010 C   0  0  0  0  0  0  0  0  0  0  0  0
   39.3470   24.4340   35.0970 N   0  0  0  0  0  0  0  0  0  0  0  0
   40.8330   23.0740   35.6820 H   0  0  0  0  0  0  0  0  0  0  0  0
   37.7410   23.5840   38.5010 H   0  0  0  0  0  0  0  0  0  0  0  0
   37.5780   25.9580   34.5660 C   0  0  0  0  0  0  0  0  0  0  0  0
   37.4800   25.6930   33.2280 C   0  0  0  0  0  0  0  0  0  0  0  0
   36.9360   26.5160   32.2700 C   0  0  0  0  0  0  0  0  0  0  0  0
   36.4550   27.7050   32.7250 N   0  0  0  0  0  0  0  0  0  0  0  0
   36.5340   28.0040   34.0430 C   0  0  0  0  0  0  0  0  0  0  0  0
   37.0800   27.1600   34.9530 N   0  0  0  0  0  0  0  0  0  0  0  0
   37.8680   24.7420   32.8870 H   0  0  0  0  0  0  0  0  0  0  0  0
   36.9010   26.2190   31.2210 H   0  0  0  0  0  0  0  0  0  0  0  0
   35.9850   29.3240   34.4520 C   0  0  0  0  0  3  0  0  0  0  0  0
   35.3050   30.2080   33.5080 C   0  0  0  0  0  2  0  0  0  0  0  0
   34.4680   29.3520   34.4070 C   0  0  0  0  0  2  0  0  0  0  0  0
   40.0550   22.2670   38.0190 N   0  0  0  0  0  0  0  0  0  0  0  0
   40.3200   22.8820   38.8270 H   0  0  0  0  0  0  0  0  0  0  0  0
   40.0660   21.3230   37.5740 H   0  0  0  0  0  0  0  0  0  0  0  0
  1  2  1  0  0  0  0
  2  3  2  0  0  0  0
  2 20  1  0  0  0  0
  3  8  1  0  0  0  0
  4  3  1  0  0  0  0
  5  4  2  0  0  0  0
  6  5  1  0  0  0  0
  6  1  2  0  0  0  0
  7  1  1  0  0  0  0
  9 14  1  0  0  0  0
  9  5  1  0  0  0  0
 10  9  2  0  0  0  0
 11 12  2  0  0  0  0
 11 10  1  0  0  0  0
 12 13  1  0  0  0  0
 13 17  1  0  0  0  0
 13 14  2  0  0  0  0
 15 10  1  0  0  0  0
 16 11  1  0  0  0  0
 18 19  1  0  0  0  0
 18 17  1  0  0  0  0
 19 17  1  0  0  0  0
 20 21  1  0  0  0  0
 22 20  1  0  0  0  0
M  END
>  <minimizedAffinity>
-4.69694376

$$$$

 OpenBabel03272506593D

 22 24  0  0  0  0  0  0  0  0999 V2000
   39.0460   23.1180   37.5660 C   0  0  0  0  0  0  0  0  0  0  0  0
   40.2420   22.5620   37.1420 C   0  0  0  0  0  0  0  0  0  0  0  0
   40.7650   23.1230   35.9700 C   0  0  0  0  0  0  0  0  0  0  0  0
   40.1130   24.1310   35.3360 N   0  0  0  0  0  0  0  0  0  0  0  0
   38.9620   24.6160   35.8050 C   0  0  0  0  0  0  0  0  0  0  0  0
   38.3800   24.1290   36.9420 N   0  0  0  0  0  0  0  0  0  0  0  0
   38.6160   22.7080   38.4660 H   0  0  0  0  0  0  0  0  0  0  0  0
   41.7090   22.7100   35.6030 H   0  0  0  0  0  0  0  0  0  0  0  0
   38.2460   25.7000   35.1380 C   0  0  0  0  0  0  0  0  0  0  0  0
   38.0570   26.9160   35.7330 C   0  0  0  0  0  0  0  0  0  0  0  0
   37.4010   27.9970   35.1920 C   0  0  0  0  0  0  0  0  0  0  0  0
   36.9000   27.8100   33.9400 N   0  0  0  0  0  0  0  0  0  0  0  0
   37.0670   26.6190   33.3180 C   0  0  0  0  0  0  0  0  0  0  0  0
   37.7220   25.5800   33.8920 N   0  0  0  0  0  0  0  0  0  0  0  0
   38.4630   27.0450   36.7280 H   0  0  0  0  0  0  0  0  0  0  0  0
   37.2990   28.9320   35.7430 H   0  0  0  0  0  0  0  0  0  0  0  0
   36.4870   26.5020   31.9540 C   0  0  0  0  0  3  0  0  0  0  0  0
   36.2080   27.6730   31.1260 C   0  0  0  0  0  2  0  0  0  0  0  0
   37.4730   26.9140   30.8760 C   0  0  0  0  0  2  0  0  0  0  0  0
   40.8400   21.5170   37.8710 N   0  0  0  0  0  0  0  0  0  0  0  0
   40.7690   20.7360   37.1730 H   0  0  0  0  0  0  0  0  0  0  0  0
   41.1410   21.8470   38.8140 H   0  0  0  0  0  0  0  0  0  0  0  0
  1  7  1  0  0  0  0
  2  1  1  0  0  0  0
  2 20  1  0  0  0  0
  3  2  2  0  0  0  0
  4  5  2  0  0  0  0
  4  3  1  0  0  0  0
  5  6  1  0  0  0  0
  6  1  2  0  0  0  0
  8  3  1  0  0  0  0
  9 10  1  0  0  0  0
  9  5  1  0  0  0  0
 10 15  1  0  0  0  0
 11 10  2  0  0  0  0
 11 16  1  0  0  0  0
 12 11  1  0  0  0  0
 13 14  1  0  0  0  0
 13 12  2  0  0  0  0
 14  9  2  0  0  0  0
 17 13  1  0  0  0  0
 18 17  1  0  0  0  0
 19 18  1  0  0  0  0
 19 17  1  0  0  0  0
 20 22  1  0  0  0  0
 21 20  1  0  0  0  0
M  END
>  <minimizedAffinity>
-4.66555834

$$$$

 OpenBabel03272506593D

 22 24  0  0  0  0  0  0  0  0999 V2000
   37.7720   24.2580   37.4480 C   0  0  0  0  0  0  0  0  0  0  0  0
   38.7830   23.3560   37.7390 C   0  0  0  0  0  0  0  0  0  0  0  0
   39.6700   23.1100   36.6850 C   0  0  0  0  0  0  0  0  0  0  0  0
   39.5100   23.7320   35.4890 N   0  0  0  0  0  0  0  0  0  0  0  0
   38.5110   24.5900   35.2810 C   0  0  0  0  0  0  0  0  0  0  0  0
   37.5990   24.8900   36.2540 N   0  0  0  0  0  0  0  0  0  0  0  0
   37.0720   24.4700   38.2390 H   0  0  0  0  0  0  0  0  0  0  0  0
   40.4820   22.4020   36.8770 H   0  0  0  0  0  0  0  0  0  0  0  0
   38.3230   25.2690   34.0020 C   0  0  0  0  0  0  0  0  0  0  0  0
   38.9750   26.4320   33.6980 C   0  0  0  0  0  0  0  0  0  0  0  0
   38.8670   27.1460   32.5260 C   0  0  0  0  0  0  0  0  0  0  0  0
   38.0220   26.6210   31.5970 N   0  0  0  0  0  0  0  0  0  0  0  0
   37.3600   25.4700   31.8620 C   0  0  0  0  0  0  0  0  0  0  0  0
   37.4970   24.8000   33.0330 N   0  0  0  0  0  0  0  0  0  0  0  0
   39.6410   26.8330   34.4490 H   0  0  0  0  0  0  0  0  0  0  0  0
   39.4280   28.0680   32.3710 H   0  0  0  0  0  0  0  0  0  0  0  0
   36.4580   24.9690   30.7910 C   0  0  0  0  0  3  0  0  0  0  0  0
   35.4440   23.9480   31.0460 C   0  0  0  0  0  2  0  0  0  0  0  0
   35.0150   25.3810   31.0190 C   0  0  0  0  0  2  0  0  0  0  0  0
   38.8620   22.7630   39.0140 N   0  0  0  0  0  0  0  0  0  0  0  0
   38.6760   21.7600   38.7670 H   0  0  0  0  0  0  0  0  0  0  0  0
   39.0690   23.4790   39.7440 H   0  0  0  0  0  0  0  0  0  0  0  0
  1  2  1  0  0  0  0
  1  7  1  0  0  0  0
  2 20  1  0  0  0  0
  3  8  1  0  0  0  0
  3  2  2  0  0  0  0
  4  3  1  0  0  0  0
  5  4  2  0  0  0  0
  5  6  1  0  0  0  0
  6  1  2  0  0  0  0
  9  5  1  0  0  0  0
 10  9  1  0  0  0  0
 10 15  1  0  0  0  0
 11 10  2  0  0  0  0
 12 13  2  0  0  0  0
 12 11  1  0  0  0  0
 13 14  1  0  0  0  0
 14  9  2  0  0  0  0
 16 11  1  0  0  0  0
 17 19  1  0  0  0  0
 17 18  1  0  0  0  0
 17 13  1  0  0  0  0
 19 18  1  0  0  0  0
 20 22  1  0  0  0  0
 21 20  1  0  0  0  0
M  END
>  <minimizedAffinity>
-4.62794685

$$$$

 OpenBabel03272506593D

 22 24  0  0  0  0  0  0  0  0999 V2000
   38.2810   27.4330   31.3550 C   0  0  0  0  0  0  0  0  0  0  0  0
   37.0090   27.1900   30.8620 C   0  0  0  0  0  0  0  0  0  0  0  0
   36.3160   26.1610   31.5110 C   0  0  0  0  0  0  0  0  0  0  0  0
   36.8890   25.4840   32.5380 N   0  0  0  0  0  0  0  0  0  0  0  0
   38.1210   25.7740   32.9590 C   0  0  0  0  0  0  0  0  0  0  0  0
   38.8690   26.7620   32.3850 N   0  0  0  0  0  0  0  0  0  0  0  0
   38.8410   28.2200   30.8770 H   0  0  0  0  0  0  0  0  0  0  0  0
   35.3070   25.9400   31.1490 H   0  0  0  0  0  0  0  0  0  0  0  0
   38.7540   25.0570   34.0630 C   0  0  0  0  0  0  0  0  0  0  0  0
   40.0850   24.7450   34.0540 C   0  0  0  0  0  0  0  0  0  0  0  0
   40.7730   24.0760   35.0400 C   0  0  0  0  0  0  0  0  0  0  0  0
   40.0320   23.6990   36.1180 N   0  0  0  0  0  0  0  0  0  0  0  0
   38.7110   23.9900   36.1620 C   0  0  0  0  0  0  0  0  0  0  0  0
   38.0740   24.6520   35.1650 N   0  0  0  0  0  0  0  0  0  0  0  0
   40.6570   25.0540   33.1890 H   0  0  0  0  0  0  0  0  0  0  0  0
   41.8400   23.8710   34.9470 H   0  0  0  0  0  0  0  0  0  0  0  0
   37.9790   23.5400   37.3750 C   0  0  0  0  0  3  0  0  0  0  0  0
   38.6540   23.3170   38.6520 C   0  0  0  0  0  2  0  0  0  0  0  0
   37.9340   24.6130   38.4470 C   0  0  0  0  0  2  0  0  0  0  0  0
   36.5040   27.9500   29.7900 N   0  0  0  0  0  0  0  0  0  0  0  0
   36.4250   27.2070   29.0530 H   0  0  0  0  0  0  0  0  0  0  0  0
   36.3820   28.9480   30.0680 H   0  0  0  0  0  0  0  0  0  0  0  0
  1  6  1  0  0  0  0
  2  1  2  0  0  0  0
  2  3  1  0  0  0  0
  3  4  2  0  0  0  0
  4  5  1  0  0  0  0
  5  9  1  0  0  0  0
  6  5  2  0  0  0  0
  7  1  1  0  0  0  0
  8  3  1  0  0  0  0
  9 14  1  0  0  0  0
 10  9  2  0  0  0  0
 10 11  1  0  0  0  0
 11 12  2  0  0  0  0
 12 13  1  0  0  0  0
 13 17  1  0  0  0  0
 14 13  2  0  0  0  0
 15 10  1  0  0  0  0
 16 11  1  0  0  0  0
 17 19  1  0  0  0  0
 17 18  1  0  0  0  0
 19 18  1  0  0  0  0
 20 22  1  0  0  0  0
 20  2  1  0  0  0  0
 21 20  1  0  0  0  0
M  END
>  <minimizedAffinity>
-4.54260445

$$$$

 OpenBabel03272506593D

 22 24  0  0  0  0  0  0  0  0999 V2000
   37.0250   27.4710   34.3950 C   0  0  0  0  0  0  0  0  0  0  0  0
   36.8780   27.0790   33.0740 C   0  0  0  0  0  0  0  0  0  0  0  0
   37.2730   25.7630   32.8060 C   0  0  0  0  0  0  0  0  0  0  0  0
   37.7570   24.9720   33.7970 N   0  0  0  0  0  0  0  0  0  0  0  0
   37.8710   25.4200   35.0480 C   0  0  0  0  0  0  0  0  0  0  0  0
   37.5090   26.6890   35.4000 N   0  0  0  0  0  0  0  0  0  0  0  0
   36.7300   28.4790   34.6350 H   0  0  0  0  0  0  0  0  0  0  0  0
   37.1710   25.4170   31.7730 H   0  0  0  0  0  0  0  0  0  0  0  0
   38.3890   24.5840   36.1280 C   0  0  0  0  0  0  0  0  0  0  0  0
   37.8910   24.6530   37.4000 C   0  0  0  0  0  0  0  0  0  0  0  0
   38.3080   23.9120   38.4810 C   0  0  0  0  0  0  0  0  0  0  0  0
   39.3160   23.0310   38.2340 N   0  0  0  0  0  0  0  0  0  0  0  0
   39.8340   22.9340   36.9870 C   0  0  0  0  0  0  0  0  0  0  0  0
   39.3910   23.6860   35.9490 N   0  0  0  0  0  0  0  0  0  0  0  0
   37.0910   25.3600   37.5760 H   0  0  0  0  0  0  0  0  0  0  0  0
   37.8500   24.0360   39.4630 H   0  0  0  0  0  0  0  0  0  0  0  0
   40.9310   21.9470   36.8060 C   0  0  0  0  0  3  0  0  0  0  0  0
   41.6980   21.8570   35.5650 C   0  0  0  0  0  2  0  0  0  0  0  0
   42.2910   22.6140   36.7120 C   0  0  0  0  0  2  0  0  0  0  0  0
   36.3650   27.9770   32.1190 N   0  0  0  0  0  0  0  0  0  0  0  0
   37.2050   28.0950   31.5010 H   0  0  0  0  0  0  0  0  0  0  0  0
   35.3710   28.2150   32.3290 H   0  0  0  0  0  0  0  0  0  0  0  0
  1  7  1  0  0  0  0
  1  6  1  0  0  0  0
  2  1  2  0  0  0  0
  3  2  1  0  0  0  0
  3  4  2  0  0  0  0
  4  5  1  0  0  0  0
  5  6  2  0  0  0  0
  5  9  1  0  0  0  0
  8  3  1  0  0  0  0
  9 10  1  0  0  0  0
 10 15  1  0  0  0  0
 10 11  2  0  0  0  0
 11 16  1  0  0  0  0
 12 11  1  0  0  0  0
 13 12  2  0  0  0  0
 14  9  2  0  0  0  0
 14 13  1  0  0  0  0
 17 13  1  0  0  0  0
 18 19  1  0  0  0  0
 18 17  1  0  0  0  0
 19 17  1  0  0  0  0
 20 22  1  0  0  0  0
 20  2  1  0  0  0  0
 21 20  1  0  0  0  0
M  END
>  <minimizedAffinity>
-4.50778389

$$$$

 OpenBabel03272506593D

 22 24  0  0  0  0  0  0  0  0999 V2000
   38.1240   24.4990   37.2080 C   0  0  0  0  0  0  0  0  0  0  0  0
   38.7110   23.2560   37.3870 C   0  0  0  0  0  0  0  0  0  0  0  0
   39.0030   22.5700   36.2020 C   0  0  0  0  0  0  0  0  0  0  0  0
   38.7140   23.1220   34.9960 N   0  0  0  0  0  0  0  0  0  0  0  0
   38.1460   24.3260   34.9010 C   0  0  0  0  0  0  0  0  0  0  0  0
   37.8280   25.0650   36.0050 N   0  0  0  0  0  0  0  0  0  0  0  0
   37.8860   25.0530   38.1010 H   0  0  0  0  0  0  0  0  0  0  0  0
   39.4680   21.5850   36.3020 H   0  0  0  0  0  0  0  0  0  0  0  0
   37.8290   24.9360   33.6130 C   0  0  0  0  0  0  0  0  0  0  0  0
   37.7330   24.1970   32.4660 C   0  0  0  0  0  0  0  0  0  0  0  0
   37.4400   24.6750   31.2100 C   0  0  0  0  0  0  0  0  0  0  0  0
   37.2290   26.0170   31.1280 N   0  0  0  0  0  0  0  0  0  0  0  0
   37.3150   26.7810   32.2430 C   0  0  0  0  0  0  0  0  0  0  0  0
   37.6080   26.2670   33.4620 N   0  0  0  0  0  0  0  0  0  0  0  0
   37.9040   23.1320   32.5520 H   0  0  0  0  0  0  0  0  0  0  0  0
   37.3850   24.0080   30.3490 H   0  0  0  0  0  0  0  0  0  0  0  0
   37.0710   28.2370   32.0620 C   0  0  0  0  0  3  0  0  0  0  0  0
   36.3350   28.7640   30.9150 C   0  0  0  0  0  2  0  0  0  0  0  0
   35.6030   28.5930   32.2100 C   0  0  0  0  0  2  0  0  0  0  0  0
   38.9700   22.7720   38.6830 N   0  0  0  0  0  0  0  0  0  0  0  0
   38.3190   21.9490   38.7100 H   0  0  0  0  0  0  0  0  0  0  0  0
   39.6870   23.3600   39.1620 H   0  0  0  0  0  0  0  0  0  0  0  0
  1  2  1  0  0  0  0
  1  7  1  0  0  0  0
  2 20  1  0  0  0  0
  3  8  1  0  0  0  0
  3  2  2  0  0  0  0
  4  3  1  0  0  0  0
  5  4  2  0  0  0  0
  5  6  1  0  0  0  0
  6  1  2  0  0  0  0
  9  5  1  0  0  0  0
 10 15  1  0  0  0  0
 10  9  2  0  0  0  0
 11 10  1  0  0  0  0
 12 11  2  0  0  0  0
 12 13  1  0  0  0  0
 13 14  2  0  0  0  0
 14  9  1  0  0  0  0
 16 11  1  0  0  0  0
 17 19  1  0  0  0  0
 17 13  1  0  0  0  0
 18 17  1  0  0  0  0
 18 19  1  0  0  0  0
 20 21  1  0  0  0  0
 20 22  1  0  0  0  0
M  END
>  <minimizedAffinity>
-4.49122381

$$$$

 OpenBabel03272506593D

 22 24  0  0  0  0  0  0  0  0999 V2000
   36.9570   20.3220   30.7310 C   0  0  0  0  0  0  0  0  0  0  0  0
   35.9450   19.5240   31.2420 C   0  0  0  0  0  0  0  0  0  0  0  0
   34.9660   20.2130   31.9680 C   0  0  0  0  0  0  0  0  0  0  0  0
   35.0470   21.5580   32.1310 N   0  0  0  0  0  0  0  0  0  0  0  0
   36.0530   22.2620   31.6100 C   0  0  0  0  0  0  0  0  0  0  0  0
   37.0510   21.6720   30.8870 N   0  0  0  0  0  0  0  0  0  0  0  0
   37.7270   19.8210   30.1670 H   0  0  0  0  0  0  0  0  0  0  0  0
   34.1500   19.6170   32.3870 H   0  0  0  0  0  0  0  0  0  0  0  0
   36.1570   23.7090   31.7740 C   0  0  0  0  0  0  0  0  0  0  0  0
   35.4050   24.5770   31.0330 C   0  0  0  0  0  0  0  0  0  0  0  0
   35.4280   25.9510   31.1120 C   0  0  0  0  0  0  0  0  0  0  0  0
   36.2930   26.4690   32.0250 N   0  0  0  0  0  0  0  0  0  0  0  0
   37.0550   25.6410   32.7780 C   0  0  0  0  0  0  0  0  0  0  0  0
   36.9990   24.2910   32.6660 N   0  0  0  0  0  0  0  0  0  0  0  0
   34.7230   24.1450   30.3120 H   0  0  0  0  0  0  0  0  0  0  0  0
   34.7890   26.5650   30.4770 H   0  0  0  0  0  0  0  0  0  0  0  0
   37.9720   26.2930   33.7500 C   0  0  0  0  0  3  0  0  0  0  0  0
   37.5900   27.4900   34.4960 C   0  0  0  0  0  2  0  0  0  0  0  0
   37.4780   26.1630   35.1790 C   0  0  0  0  0  2  0  0  0  0  0  0
   35.9520   18.1350   31.0170 N   0  0  0  0  0  0  0  0  0  0  0  0
   36.0850   17.7860   31.9970 H   0  0  0  0  0  0  0  0  0  0  0  0
   35.8290   17.9230   30.0020 H   0  0  0  0  0  0  0  0  0  0  0  0
  1  6  2  0  0  0  0
  1  2  1  0  0  0  0
  2  3  2  0  0  0  0
  3  4  1  0  0  0  0
  3  8  1  0  0  0  0
  5  9  1  0  0  0  0
  5  4  2  0  0  0  0
  6  5  1  0  0  0  0
  7  1  1  0  0  0  0
  9 14  1  0  0  0  0
 10 11  1  0  0  0  0
 10  9  2  0  0  0  0
 11 12  2  0  0  0  0
 12 13  1  0  0  0  0
 13 17  1  0  0  0  0
 14 13  2  0  0  0  0
 15 10  1  0  0  0  0
 16 11  1  0  0  0  0
 17 18  1  0  0  0  0
 17 19  1  0  0  0  0
 18 19  1  0  0  0  0
 20  2  1  0  0  0  0
 20 21  1  0  0  0  0
 22 20  1  0  0  0  0
M  END
>  <minimizedAffinity>
-4.45736456

$$$$

 OpenBabel03272506593D

 22 24  0  0  0  0  0  0  0  0999 V2000
   38.2360   24.2060   37.4910 C   0  0  0  0  0  0  0  0  0  0  0  0
   39.2420   23.2940   37.2160 C   0  0  0  0  0  0  0  0  0  0  0  0
   39.7750   23.3820   35.9240 C   0  0  0  0  0  0  0  0  0  0  0  0
   39.3080   24.3060   35.0460 N   0  0  0  0  0  0  0  0  0  0  0  0
   38.3340   25.1540   35.3830 C   0  0  0  0  0  0  0  0  0  0  0  0
   37.7570   25.1390   36.6220 N   0  0  0  0  0  0  0  0  0  0  0  0
   37.8050   24.1640   38.4780 H   0  0  0  0  0  0  0  0  0  0  0  0
   40.5720   22.6780   35.6690 H   0  0  0  0  0  0  0  0  0  0  0  0
   37.8190   26.1550   34.4540 C   0  0  0  0  0  0  0  0  0  0  0  0
   36.9960   27.1670   34.8630 C   0  0  0  0  0  0  0  0  0  0  0  0
   36.4600   28.1550   34.0690 C   0  0  0  0  0  0  0  0  0  0  0  0
   36.7990   28.0960   32.7520 N   0  0  0  0  0  0  0  0  0  0  0  0
   37.6120   27.1080   32.3100 C   0  0  0  0  0  0  0  0  0  0  0  0
   38.1170   26.1540   33.1290 N   0  0  0  0  0  0  0  0  0  0  0  0
   36.7390   27.1970   35.9130 H   0  0  0  0  0  0  0  0  0  0  0  0
   35.8110   28.9260   34.4860 H   0  0  0  0  0  0  0  0  0  0  0  0
   37.9300   27.1190   30.8570 C   0  0  0  0  0  3  0  0  0  0  0  0
   37.9590   28.3550   30.0780 C   0  0  0  0  0  2  0  0  0  0  0  0
   39.2580   27.7940   30.5670 C   0  0  0  0  0  2  0  0  0  0  0  0
   39.6560   22.3730   38.1960 N   0  0  0  0  0  0  0  0  0  0  0  0
   39.3580   21.4730   37.7470 H   0  0  0  0  0  0  0  0  0  0  0  0
   40.1000   22.8640   39.0030 H   0  0  0  0  0  0  0  0  0  0  0  0
  1  7  1  0  0  0  0
  2  1  1  0  0  0  0
  2 20  1  0  0  0  0
  3  2  2  0  0  0  0
  4  5  2  0  0  0  0
  4  3  1  0  0  0  0
  5  6  1  0  0  0  0
  6  1  2  0  0  0  0
  8  3  1  0  0  0  0
  9 10  1  0  0  0  0
  9  5  1  0  0  0  0
 10 15  1  0  0  0  0
 11 16  1  0  0  0  0
 11 10  2  0  0  0  0
 12 11  1  0  0  0  0
 13 12  2  0  0  0  0
 13 14  1  0  0  0  0
 14  9  2  0  0  0  0
 17 13  1  0  0  0  0
 18 19  1  0  0  0  0
 18 17  1  0  0  0  0
 19 17  1  0  0  0  0
 20 22  1  0  0  0  0
 21 20  1  0  0  0  0
M  END
>  <minimizedAffinity>
-4.40185213

$$$$
