
 OpenBabel03272501123D

 19 21  0  0  1  0  0  0  0  0999 V2000
   39.2040   25.3230   34.7210 C   0  0  1  0  0  0  0  0  0  0  0  0
   38.6970   26.6930   34.6780 C   0  0  1  0  0  0  0  0  0  0  0  0
   40.1700   26.4900   34.8530 C   0  0  0  0  0  0  0  0  0  0  0  0
   39.4600   24.6820   33.8560 H   0  0  0  0  0  0  0  0  0  0  0  0
   38.1540   27.0180   35.6070 H   0  0  0  0  0  0  0  0  0  0  0  0
   40.8160   26.7240   33.9960 H   0  0  0  0  0  0  0  0  0  0  0  0
   40.6240   26.6990   35.8360 H   0  0  0  0  0  0  0  0  0  0  0  0
   39.0920   24.5170   35.9940 C   0  0  0  0  0  0  0  0  0  0  0  0
   38.0560   24.8630   36.8800 C   0  0  0  0  0  0  0  0  0  0  0  0
   37.9900   24.1260   38.0500 C   0  0  0  0  0  0  0  0  0  0  0  0
   38.8990   23.1260   38.2920 N   0  0  0  0  0  0  0  0  0  0  0  0
   39.8800   22.8280   37.4090 C   0  0  0  0  0  0  0  0  0  0  0  0
   39.9750   23.5320   36.2490 N   0  0  0  0  0  0  0  0  0  0  0  0
   37.3790   25.6640   36.6190 H   0  0  0  0  0  0  0  0  0  0  0  0
   37.2090   24.3550   38.7640 H   0  0  0  0  0  0  0  0  0  0  0  0
   40.5710   22.0320   37.6470 H   0  0  0  0  0  0  0  0  0  0  0  0
   38.1360   27.2000   33.3950 C   0  0  0  0  0  3  0  0  0  0  0  0
   36.8980   26.5270   32.8340 C   0  0  0  0  0  2  0  0  0  0  0  0
   36.7440   27.8320   33.5020 C   0  0  0  0  0  2  0  0  0  0  0  0
  1  4  1  6  0  0  0
  1  3  1  0  0  0  0
  1  8  1  0  0  0  0
  2  1  1  0  0  0  0
  2  3  1  0  0  0  0
  2  5  1  1  0  0  0
  3  7  1  0  0  0  0
  6  3  1  0  0  0  0
  8 13  2  0  0  0  0
  8  9  1  0  0  0  0
  9 10  2  0  0  0  0
 10 11  1  0  0  0  0
 10 15  1  0  0  0  0
 12 16  1  0  0  0  0
 12 11  2  0  0  0  0
 13 12  1  0  0  0  0
 14  9  1  0  0  0  0
 17 19  1  0  0  0  0
 17  2  1  0  0  0  0
 18 17  1  0  0  0  0
 18 19  1  0  0  0  0
M  END
>  <minimizedAffinity>
-3.82174587

$$$$

 OpenBabel03272501123D

 19 21  0  0  1  0  0  0  0  0999 V2000
   37.4090   26.5950   35.3240 C   0  0  1  0  0  0  0  0  0  0  0  0
   38.3410   25.5230   35.6650 C   0  0  1  0  0  0  0  0  0  0  0  0
   38.8760   26.9160   35.5600 C   0  0  0  0  0  0  0  0  0  0  0  0
   36.7550   27.1530   36.0200 H   0  0  0  0  0  0  0  0  0  0  0  0
   38.6120   24.8500   34.8050 H   0  0  0  0  0  0  0  0  0  0  0  0
   39.1490   27.4230   36.4960 H   0  0  0  0  0  0  0  0  0  0  0  0
   39.5120   27.1810   34.6980 H   0  0  0  0  0  0  0  0  0  0  0  0
   36.9950   26.8060   33.8860 C   0  0  0  0  0  0  0  0  0  0  0  0
   36.5190   28.0820   33.5380 C   0  0  0  0  0  0  0  0  0  0  0  0
   36.1240   28.2420   32.2210 C   0  0  0  0  0  0  0  0  0  0  0  0
   36.2070   27.1920   31.3390 N   0  0  0  0  0  0  0  0  0  0  0  0
   36.6720   25.9800   31.7200 C   0  0  0  0  0  0  0  0  0  0  0  0
   37.0690   25.7870   33.0060 N   0  0  0  0  0  0  0  0  0  0  0  0
   36.4820   28.8590   34.2890 H   0  0  0  0  0  0  0  0  0  0  0  0
   35.7490   29.2080   31.9040 H   0  0  0  0  0  0  0  0  0  0  0  0
   36.7170   25.1860   30.9870 H   0  0  0  0  0  0  0  0  0  0  0  0
   38.1930   24.8500   36.9850 C   0  0  0  0  0  3  0  0  0  0  0  0
   37.4740   23.5150   37.0370 C   0  0  0  0  0  2  0  0  0  0  0  0
   38.9470   23.5220   37.1230 C   0  0  0  0  0  2  0  0  0  0  0  0
  1  3  1  0  0  0  0
  1  2  1  0  0  0  0
  1  4  1  1  0  0  0
  2  5  1  6  0  0  0
  2 17  1  0  0  0  0
  3  2  1  0  0  0  0
  3  6  1  0  0  0  0
  7  3  1  0  0  0  0
  8  1  1  0  0  0  0
  9  8  1  0  0  0  0
  9 14  1  0  0  0  0
 10  9  2  0  0  0  0
 11 12  2  0  0  0  0
 11 10  1  0  0  0  0
 12 13  1  0  0  0  0
 13  8  2  0  0  0  0
 15 10  1  0  0  0  0
 16 12  1  0  0  0  0
 17 18  1  0  0  0  0
 17 19  1  0  0  0  0
 18 19  1  0  0  0  0
M  END
>  <minimizedAffinity>
-3.80258727

$$$$

 OpenBabel03272501123D

 19 21  0  0  1  0  0  0  0  0999 V2000
   39.1500   25.4780   34.7270 C   0  0  1  0  0  0  0  0  0  0  0  0
   38.5860   26.8240   34.6660 C   0  0  1  0  0  0  0  0  0  0  0  0
   40.0580   26.6850   34.8970 C   0  0  0  0  0  0  0  0  0  0  0  0
   39.4660   24.8510   33.8720 H   0  0  0  0  0  0  0  0  0  0  0  0
   37.9940   27.1230   35.5750 H   0  0  0  0  0  0  0  0  0  0  0  0
   40.7250   26.9510   34.0650 H   0  0  0  0  0  0  0  0  0  0  0  0
   40.4650   26.9120   35.8960 H   0  0  0  0  0  0  0  0  0  0  0  0
   39.0260   24.6640   35.9940 C   0  0  0  0  0  0  0  0  0  0  0  0
   39.8970   23.5710   36.1390 C   0  0  0  0  0  0  0  0  0  0  0  0
   39.7470   22.8270   37.2980 C   0  0  0  0  0  0  0  0  0  0  0  0
   38.7920   23.1700   38.2230 N   0  0  0  0  0  0  0  0  0  0  0  0
   37.9740   24.2330   38.0400 C   0  0  0  0  0  0  0  0  0  0  0  0
   38.0940   24.9850   36.9140 N   0  0  0  0  0  0  0  0  0  0  0  0
   40.6240   23.3630   35.3660 H   0  0  0  0  0  0  0  0  0  0  0  0
   40.3960   21.9740   37.4560 H   0  0  0  0  0  0  0  0  0  0  0  0
   37.2390   24.4600   38.7980 H   0  0  0  0  0  0  0  0  0  0  0  0
   38.0510   27.3100   33.3640 C   0  0  0  0  0  3  0  0  0  0  0  0
   36.8710   26.5800   32.7520 C   0  0  0  0  0  2  0  0  0  0  0  0
   36.6260   27.8730   33.4180 C   0  0  0  0  0  2  0  0  0  0  0  0
  1  4  1  6  0  0  0
  1  3  1  0  0  0  0
  1  8  1  0  0  0  0
  2  1  1  0  0  0  0
  2  3  1  0  0  0  0
  2  5  1  1  0  0  0
  3  7  1  0  0  0  0
  6  3  1  0  0  0  0
  8  9  2  0  0  0  0
  8 13  1  0  0  0  0
  9 10  1  0  0  0  0
 10 15  1  0  0  0  0
 10 11  2  0  0  0  0
 12 11  1  0  0  0  0
 12 16  1  0  0  0  0
 13 12  2  0  0  0  0
 14  9  1  0  0  0  0
 17 19  1  0  0  0  0
 17  2  1  0  0  0  0
 18 17  1  0  0  0  0
 18 19  1  0  0  0  0
M  END
>  <minimizedAffinity>
-3.77765965

$$$$

 OpenBabel03272501123D

 19 21  0  0  1  0  0  0  0  0999 V2000
   38.4510   21.7870   34.4320 C   0  0  1  0  0  0  0  0  0  0  0  0
   37.1550   21.9660   33.7810 C   0  0  1  0  0  0  0  0  0  0  0  0
   38.2660   22.8970   33.4090 C   0  0  0  0  0  0  0  0  0  0  0  0
   39.2550   21.0890   34.1310 H   0  0  0  0  0  0  0  0  0  0  0  0
   36.3620   22.4200   34.4380 H   0  0  0  0  0  0  0  0  0  0  0  0
   38.7220   22.7660   32.4180 H   0  0  0  0  0  0  0  0  0  0  0  0
   38.2250   23.9430   33.7560 H   0  0  0  0  0  0  0  0  0  0  0  0
   38.6730   22.3190   35.8290 C   0  0  0  0  0  0  0  0  0  0  0  0
   39.9730   22.2120   36.3540 C   0  0  0  0  0  0  0  0  0  0  0  0
   40.1440   22.6840   37.6440 C   0  0  0  0  0  0  0  0  0  0  0  0
   39.0840   23.2170   38.3350 N   0  0  0  0  0  0  0  0  0  0  0  0
   37.8490   23.3000   37.7870 C   0  0  0  0  0  0  0  0  0  0  0  0
   37.6450   22.8460   36.5220 N   0  0  0  0  0  0  0  0  0  0  0  0
   40.7570   21.7790   35.7490 H   0  0  0  0  0  0  0  0  0  0  0  0
   41.1280   22.6240   38.0930 H   0  0  0  0  0  0  0  0  0  0  0  0
   37.0480   23.7280   38.3730 H   0  0  0  0  0  0  0  0  0  0  0  0
   36.6830   20.9120   32.8410 C   0  0  0  0  0  3  0  0  0  0  0  0
   35.5490   20.0070   33.2820 C   0  0  0  0  0  2  0  0  0  0  0  0
   35.2500   21.0930   32.3300 C   0  0  0  0  0  2  0  0  0  0  0  0
  1  4  1  6  0  0  0
  1  8  1  0  0  0  0
  2  1  1  0  0  0  0
  2  5  1  1  0  0  0
  3  7  1  0  0  0  0
  3  2  1  0  0  0  0
  3  1  1  0  0  0  0
  6  3  1  0  0  0  0
  8  9  2  0  0  0  0
  8 13  1  0  0  0  0
  9 10  1  0  0  0  0
 10 15  1  0  0  0  0
 10 11  2  0  0  0  0
 12 11  1  0  0  0  0
 12 16  1  0  0  0  0
 13 12  2  0  0  0  0
 14  9  1  0  0  0  0
 17 18  1  0  0  0  0
 17  2  1  0  0  0  0
 19 17  1  0  0  0  0
 19 18  1  0  0  0  0
M  END
>  <minimizedAffinity>
-3.69853187

$$$$

 OpenBabel03272501123D

 19 21  0  0  1  0  0  0  0  0999 V2000
   37.4310   26.6910   35.2940 C   0  0  1  0  0  0  0  0  0  0  0  0
   38.3780   25.6320   35.6320 C   0  0  1  0  0  0  0  0  0  0  0  0
   38.8910   27.0350   35.5420 C   0  0  0  0  0  0  0  0  0  0  0  0
   36.7640   27.2330   35.9910 H   0  0  0  0  0  0  0  0  0  0  0  0
   38.6650   24.9700   34.7680 H   0  0  0  0  0  0  0  0  0  0  0  0
   39.1500   27.5380   36.4840 H   0  0  0  0  0  0  0  0  0  0  0  0
   39.5270   27.3170   34.6860 H   0  0  0  0  0  0  0  0  0  0  0  0
   37.0210   26.9070   33.8550 C   0  0  0  0  0  0  0  0  0  0  0  0
   37.1030   25.7980   32.9950 C   0  0  0  0  0  0  0  0  0  0  0  0
   36.7460   26.0270   31.6770 C   0  0  0  0  0  0  0  0  0  0  0  0
   36.3420   27.2770   31.2750 N   0  0  0  0  0  0  0  0  0  0  0  0
   36.2790   28.3150   32.1400 C   0  0  0  0  0  0  0  0  0  0  0  0
   36.6220   28.1260   33.4420 N   0  0  0  0  0  0  0  0  0  0  0  0
   37.4310   24.8450   33.3860 H   0  0  0  0  0  0  0  0  0  0  0  0
   36.7920   25.2030   30.9760 H   0  0  0  0  0  0  0  0  0  0  0  0
   35.9550   29.2790   31.7740 H   0  0  0  0  0  0  0  0  0  0  0  0
   38.2340   24.9450   36.9450 C   0  0  0  0  0  3  0  0  0  0  0  0
   37.4600   23.6420   36.9970 C   0  0  0  0  0  2  0  0  0  0  0  0
   38.9330   23.5850   37.0460 C   0  0  0  0  0  2  0  0  0  0  0  0
  1  3  1  0  0  0  0
  1  2  1  0  0  0  0
  1  4  1  1  0  0  0
  2  5  1  6  0  0  0
  2 17  1  0  0  0  0
  3  2  1  0  0  0  0
  3  6  1  0  0  0  0
  7  3  1  0  0  0  0
  8  1  1  0  0  0  0
  9 14  1  0  0  0  0
  9  8  2  0  0  0  0
 10  9  1  0  0  0  0
 11 10  2  0  0  0  0
 11 12  1  0  0  0  0
 12 13  2  0  0  0  0
 13  8  1  0  0  0  0
 15 10  1  0  0  0  0
 16 12  1  0  0  0  0
 17 18  1  0  0  0  0
 17 19  1  0  0  0  0
 18 19  1  0  0  0  0
M  END
>  <minimizedAffinity>
-3.67282152

$$$$

 OpenBabel03272501123D

 19 21  0  0  1  0  0  0  0  0999 V2000
   35.8920   29.2330   34.1480 C   0  0  1  0  0  0  0  0  0  0  0  0
   35.4260   30.5820   34.4620 C   0  0  1  0  0  0  0  0  0  0  0  0
   34.4210   29.4730   34.4470 C   0  0  0  0  0  0  0  0  0  0  0  0
   36.3340   28.5030   34.8520 H   0  0  0  0  0  0  0  0  0  0  0  0
   35.3750   31.2750   33.5780 H   0  0  0  0  0  0  0  0  0  0  0  0
   34.0290   29.1350   35.4160 H   0  0  0  0  0  0  0  0  0  0  0  0
   33.6920   29.4250   33.6200 H   0  0  0  0  0  0  0  0  0  0  0  0
   36.1340   28.8340   32.7110 C   0  0  0  0  0  0  0  0  0  0  0  0
   36.3320   29.8730   31.7850 C   0  0  0  0  0  0  0  0  0  0  0  0
   36.5270   29.4820   30.4710 C   0  0  0  0  0  0  0  0  0  0  0  0
   36.5200   28.1500   30.1340 N   0  0  0  0  0  0  0  0  0  0  0  0
   36.3250   27.1850   31.0620 C   0  0  0  0  0  0  0  0  0  0  0  0
   36.1300   27.5320   32.3620 N   0  0  0  0  0  0  0  0  0  0  0  0
   36.3230   30.8980   32.1250 H   0  0  0  0  0  0  0  0  0  0  0  0
   36.6840   30.2460   29.7190 H   0  0  0  0  0  0  0  0  0  0  0  0
   36.3280   26.1510   30.7460 H   0  0  0  0  0  0  0  0  0  0  0  0
   35.8690   31.2050   35.7400 C   0  0  0  0  0  3  0  0  0  0  0  0
   36.4510   32.6050   35.6970 C   0  0  0  0  0  2  0  0  0  0  0  0
   35.0650   32.4350   36.1750 C   0  0  0  0  0  2  0  0  0  0  0  0
  1  3  1  0  0  0  0
  1  2  1  0  0  0  0
  1  4  1  1  0  0  0
  2  5  1  6  0  0  0
  2 17  1  0  0  0  0
  3  2  1  0  0  0  0
  3  6  1  0  0  0  0
  7  3  1  0  0  0  0
  8  1  1  0  0  0  0
  9 14  1  0  0  0  0
  9  8  2  0  0  0  0
 10  9  1  0  0  0  0
 11 10  2  0  0  0  0
 11 12  1  0  0  0  0
 12 13  2  0  0  0  0
 13  8  1  0  0  0  0
 15 10  1  0  0  0  0
 16 12  1  0  0  0  0
 17 19  1  0  0  0  0
 18 17  1  0  0  0  0
 18 19  1  0  0  0  0
M  END
>  <minimizedAffinity>
-3.65665174

$$$$

 OpenBabel03272501123D

 19 21  0  0  1  0  0  0  0  0999 V2000
   36.9450   22.5580   32.1280 C   0  0  1  0  0  0  0  0  0  0  0  0
   36.3240   21.4300   31.4360 C   0  0  1  0  0  0  0  0  0  0  0  0
   37.6260   21.9500   30.9120 C   0  0  0  0  0  0  0  0  0  0  0  0
   37.5960   22.5120   33.0210 H   0  0  0  0  0  0  0  0  0  0  0  0
   35.4250   21.7010   30.8160 H   0  0  0  0  0  0  0  0  0  0  0  0
   38.5180   21.3300   31.0760 H   0  0  0  0  0  0  0  0  0  0  0  0
   37.6320   22.5140   29.9640 H   0  0  0  0  0  0  0  0  0  0  0  0
   36.4520   23.9630   31.8730 C   0  0  0  0  0  0  0  0  0  0  0  0
   37.1170   25.0050   32.5430 C   0  0  0  0  0  0  0  0  0  0  0  0
   36.6300   26.2800   32.3110 C   0  0  0  0  0  0  0  0  0  0  0  0
   35.5610   26.4730   31.4710 N   0  0  0  0  0  0  0  0  0  0  0  0
   34.9520   25.4380   30.8480 C   0  0  0  0  0  0  0  0  0  0  0  0
   35.4030   24.1720   31.0520 N   0  0  0  0  0  0  0  0  0  0  0  0
   37.9520   24.7740   33.1890 H   0  0  0  0  0  0  0  0  0  0  0  0
   37.1100   27.1170   32.8040 H   0  0  0  0  0  0  0  0  0  0  0  0
   34.1130   25.6430   30.1970 H   0  0  0  0  0  0  0  0  0  0  0  0
   36.2440   20.1220   32.1440 C   0  0  0  0  0  3  0  0  0  0  0  0
   35.3460   20.0150   33.3620 C   0  0  0  0  0  2  0  0  0  0  0  0
   34.8730   19.4390   32.0900 C   0  0  0  0  0  2  0  0  0  0  0  0
  1  4  1  1  0  0  0
  2  5  1  6  0  0  0
  2  1  1  0  0  0  0
  2 17  1  0  0  0  0
  3  6  1  0  0  0  0
  3  2  1  0  0  0  0
  3  1  1  0  0  0  0
  7  3  1  0  0  0  0
  8  1  1  0  0  0  0
  8  9  1  0  0  0  0
  9 14  1  0  0  0  0
 10  9  2  0  0  0  0
 10 15  1  0  0  0  0
 11 10  1  0  0  0  0
 12 13  1  0  0  0  0
 12 11  2  0  0  0  0
 13  8  2  0  0  0  0
 16 12  1  0  0  0  0
 17 18  1  0  0  0  0
 19 17  1  0  0  0  0
 19 18  1  0  0  0  0
M  END
>  <minimizedAffinity>
-3.60987306

$$$$

 OpenBabel03272501123D

 19 21  0  0  1  0  0  0  0  0999 V2000
   37.7590   26.8780   32.7510 C   0  0  1  0  0  0  0  0  0  0  0  0
   39.2010   26.6430   32.7760 C   0  0  1  0  0  0  0  0  0  0  0  0
   38.6510   27.5370   31.7100 C   0  0  0  0  0  0  0  0  0  0  0  0
   37.1990   27.6300   33.3380 H   0  0  0  0  0  0  0  0  0  0  0  0
   39.5130   25.6220   32.4190 H   0  0  0  0  0  0  0  0  0  0  0  0
   38.8470   28.6140   31.8050 H   0  0  0  0  0  0  0  0  0  0  0  0
   38.6200   27.1710   30.6700 H   0  0  0  0  0  0  0  0  0  0  0  0
   36.8370   25.8430   32.1500 C   0  0  0  0  0  0  0  0  0  0  0  0
   37.1660   24.4930   32.3650 C   0  0  0  0  0  0  0  0  0  0  0  0
   36.3180   23.5650   31.7850 C   0  0  0  0  0  0  0  0  0  0  0  0
   35.2330   23.9780   31.0510 N   0  0  0  0  0  0  0  0  0  0  0  0
   34.9560   25.2910   30.8710 C   0  0  0  0  0  0  0  0  0  0  0  0
   35.7670   26.2300   31.4270 N   0  0  0  0  0  0  0  0  0  0  0  0
   38.0370   24.2450   32.9540 H   0  0  0  0  0  0  0  0  0  0  0  0
   36.5290   22.5110   31.9220 H   0  0  0  0  0  0  0  0  0  0  0  0
   34.0900   25.5640   30.2850 H   0  0  0  0  0  0  0  0  0  0  0  0
   39.9890   27.1920   33.9150 C   0  0  0  0  0  3  0  0  0  0  0  0
   39.4940   26.9330   35.3250 C   0  0  0  0  0  2  0  0  0  0  0  0
   40.6330   26.1410   34.8240 C   0  0  0  0  0  2  0  0  0  0  0  0
  1  2  1  0  0  0  0
  1  4  1  1  0  0  0
  2  5  1  6  0  0  0
  2 17  1  0  0  0  0
  3  6  1  0  0  0  0
  3  1  1  0  0  0  0
  3  2  1  0  0  0  0
  7  3  1  0  0  0  0
  8  9  1  0  0  0  0
  8  1  1  0  0  0  0
  9 14  1  0  0  0  0
 10 15  1  0  0  0  0
 10  9  2  0  0  0  0
 11 10  1  0  0  0  0
 12 11  2  0  0  0  0
 12 13  1  0  0  0  0
 13  8  2  0  0  0  0
 16 12  1  0  0  0  0
 17 19  1  0  0  0  0
 17 18  1  0  0  0  0
 19 18  1  0  0  0  0
M  END
>  <minimizedAffinity>
-3.56187129

$$$$

 OpenBabel03272501123D

 19 21  0  0  1  0  0  0  0  0999 V2000
   37.6680   27.2440   32.7020 C   0  0  1  0  0  0  0  0  0  0  0  0
   37.2050   26.6590   33.9580 C   0  0  1  0  0  0  0  0  0  0  0  0
   36.9250   25.9170   32.6890 C   0  0  0  0  0  0  0  0  0  0  0  0
   38.6750   27.1480   32.2560 H   0  0  0  0  0  0  0  0  0  0  0  0
   36.3120   27.1710   34.4110 H   0  0  0  0  0  0  0  0  0  0  0  0
   37.5050   25.0030   32.5010 H   0  0  0  0  0  0  0  0  0  0  0  0
   35.8910   25.8870   32.3060 H   0  0  0  0  0  0  0  0  0  0  0  0
   36.8770   28.3560   32.0520 C   0  0  0  0  0  0  0  0  0  0  0  0
   37.3220   28.8070   30.7970 C   0  0  0  0  0  0  0  0  0  0  0  0
   36.5950   29.8420   30.2340 C   0  0  0  0  0  0  0  0  0  0  0  0
   35.5130   30.3700   30.8950 N   0  0  0  0  0  0  0  0  0  0  0  0
   35.1220   29.9030   32.1030 C   0  0  0  0  0  0  0  0  0  0  0  0
   35.8120   28.8870   32.6850 N   0  0  0  0  0  0  0  0  0  0  0  0
   38.1830   28.3420   30.3390 H   0  0  0  0  0  0  0  0  0  0  0  0
   36.8980   30.2240   29.2670 H   0  0  0  0  0  0  0  0  0  0  0  0
   34.2630   30.3530   32.5820 H   0  0  0  0  0  0  0  0  0  0  0  0
   38.2240   26.1700   34.9290 C   0  0  0  0  0  3  0  0  0  0  0  0
   39.4730   27.0030   35.1440 C   0  0  0  0  0  2  0  0  0  0  0  0
   38.4130   27.0510   36.1680 C   0  0  0  0  0  2  0  0  0  0  0  0
  1  4  1  6  0  0  0
  1  2  1  0  0  0  0
  2  5  1  1  0  0  0
  2 17  1  0  0  0  0
  3  1  1  0  0  0  0
  3  2  1  0  0  0  0
  6  3  1  0  0  0  0
  7  3  1  0  0  0  0
  8 13  1  0  0  0  0
  8  1  1  0  0  0  0
  9  8  2  0  0  0  0
 10  9  1  0  0  0  0
 10 11  2  0  0  0  0
 11 12  1  0  0  0  0
 12 16  1  0  0  0  0
 12 13  2  0  0  0  0
 14  9  1  0  0  0  0
 15 10  1  0  0  0  0
 17 18  1  0  0  0  0
 17 19  1  0  0  0  0
 18 19  1  0  0  0  0
M  END
>  <minimizedAffinity>
-3.5324924

$$$$
