
 OpenBabel03262520173D

 12 13  0  0  0  0  0  0  0  0999 V2000
   37.3380   30.3110   51.2350 C   0  0  0  0  0  0  0  0  0  0  0  0
   38.1580   30.9410   50.2790 C   0  0  0  0  0  0  0  0  0  0  0  0
   37.9360   30.6510   48.9210 C   0  0  0  0  0  0  0  0  0  0  0  0
   36.9320   29.7720   48.6240 N   0  0  0  0  0  0  0  0  0  0  0  0
   36.1680   29.1900   49.5710 C   0  0  0  0  0  0  0  0  0  0  0  0
   36.3710   29.4600   50.8840 N   0  0  0  0  0  0  0  0  0  0  0  0
   37.5000   30.5270   52.2850 H   0  0  0  0  0  0  0  0  0  0  0  0
   38.9460   31.6370   50.5970 H   0  0  0  0  0  0  0  0  0  0  0  0
   35.4170   28.5160   49.1340 H   0  0  0  0  0  0  0  0  0  0  0  0
   38.7560   31.2740   47.8810 C   0  0  0  0  0  3  0  0  0  0  0  0
   38.7700   30.8350   46.4870 C   0  0  0  0  0  2  0  0  0  0  0  0
   37.9340   32.0610   46.8510 C   0  0  0  0  0  2  0  0  0  0  0  0
  1  7  1  0  0  0  0
  2  8  1  0  0  0  0
  2  1  2  0  0  0  0
  3  2  1  0  0  0  0
  4  3  2  0  0  0  0
  4  5  1  0  0  0  0
  5  6  2  0  0  0  0
  6  1  1  0  0  0  0
  9  5  1  0  0  0  0
 10  3  1  0  0  0  0
 11 12  1  0  0  0  0
 11 10  1  0  0  0  0
 12 10  1  0  0  0  0
M  END
>  <minimizedAffinity>
-3.68897676

>  <minimizedRMSD>
0.691503167

$$$$
