
 OpenBabel03272502403D

 34 37  0  0  1  0  0  0  0  0999 V2000
   36.6810   27.1860   31.6320 N   0  0  0  0  0  0  0  0  0  0  0  0
   36.6910   27.9290   30.3820 C   0  0  0  0  0  0  0  0  0  0  0  0
   36.1810   29.2810   30.7840 C   0  0  0  0  0  0  0  0  0  0  0  0
   35.7000   29.1000   32.2980 C   0  0  1  0  0  0  0  0  0  0  0  0
   36.7170   28.1470   32.7530 C   0  0  0  0  0  0  0  0  0  0  0  0
   35.8980   27.4830   29.7160 H   0  0  0  0  0  0  0  0  0  0  0  0
   37.6590   27.9480   29.8840 H   0  0  0  0  0  0  0  0  0  0  0  0
   37.0560   29.9560   30.9050 H   0  0  0  0  0  0  0  0  0  0  0  0
   35.3630   29.6770   30.1920 H   0  0  0  0  0  0  0  0  0  0  0  0
   34.7180   28.6830   32.0640 H   0  0  0  0  0  0  0  0  0  0  0  0
   36.4130   27.6270   33.6840 H   0  0  0  0  0  0  0  0  0  0  0  0
   37.7410   28.5680   32.8430 H   0  0  0  0  0  0  0  0  0  0  0  0
   34.9910   29.4130   35.0280 F   0  0  0  0  0  0  0  0  0  0  0  0
   35.4230   30.4480   34.2750 C   0  0  0  0  0  0  0  0  0  0  0  0
   35.7200   30.4180   32.9380 C   0  0  0  0  0  0  0  0  0  0  0  0
   36.1210   31.6150   32.3160 C   0  0  0  0  0  0  0  0  0  0  0  0
   36.2220   32.7970   33.0180 C   0  0  0  0  0  0  0  0  0  0  0  0
   35.9160   32.8020   34.3790 C   0  0  0  0  0  0  0  0  0  0  0  0
   35.5130   31.6110   35.0010 C   0  0  0  0  0  0  0  0  0  0  0  0
   36.3280   31.4760   31.2640 H   0  0  0  0  0  0  0  0  0  0  0  0
   36.5400   33.6590   32.4490 H   0  0  0  0  0  0  0  0  0  0  0  0
   36.0060   33.7490   34.8950 H   0  0  0  0  0  0  0  0  0  0  0  0
   35.2300   31.7780   36.4440 C   0  0  0  0  0  3  0  0  0  0  0  0
   33.8180   31.7690   36.9310 C   0  0  0  0  0  2  0  0  0  0  0  0
   34.7500   33.0180   37.0510 C   0  0  0  0  0  2  0  0  0  0  0  0
   36.6360   25.7860   31.7880 C   0  0  0  0  0  0  0  0  0  0  0  0
   35.6340   25.1210   31.0670 C   0  0  0  0  0  0  0  0  0  0  0  0
   35.5330   23.7250   31.1870 C   0  0  0  0  0  0  0  0  0  0  0  0
   36.4470   23.1060   32.0200 N   0  0  0  0  0  0  0  0  0  0  0  0
   37.3930   23.7860   32.6920 C   0  0  0  0  0  0  0  0  0  0  0  0
   37.4840   25.1240   32.5720 N   0  0  0  0  0  0  0  0  0  0  0  0
   34.9030   25.5510   30.4100 H   0  0  0  0  0  0  0  0  0  0  0  0
   34.7850   23.1640   30.6600 H   0  0  0  0  0  0  0  0  0  0  0  0
   38.0490   23.1940   33.3120 H   0  0  0  0  0  0  0  0  0  0  0  0
  1 26  1  0  0  0  0
  1  5  1  0  0  0  0
  2  3  1  0  0  0  0
  2  1  1  0  0  0  0
  3  8  1  0  0  0  0
  3  4  1  0  0  0  0
  4 10  1  1  0  0  0
  4  5  1  0  0  0  0
  4 15  1  0  0  0  0
  5 12  1  0  0  0  0
  5 11  1  0  0  0  0
  6  2  1  0  0  0  0
  7  2  1  0  0  0  0
  9  3  1  0  0  0  0
 14 19  1  0  0  0  0
 14 13  1  0  0  0  0
 15 14  2  0  0  0  0
 16 15  1  0  0  0  0
 16 17  2  0  0  0  0
 17 18  1  0  0  0  0
 18 22  1  0  0  0  0
 18 19  2  0  0  0  0
 19 23  1  0  0  0  0
 20 16  1  0  0  0  0
 21 17  1  0  0  0  0
 23 24  1  0  0  0  0
 23 25  1  0  0  0  0
 24 25  1  0  0  0  0
 26 31  1  0  0  0  0
 27 28  1  0  0  0  0
 27 26  2  0  0  0  0
 28 29  2  0  0  0  0
 29 30  1  0  0  0  0
 30 34  1  0  0  0  0
 31 30  2  0  0  0  0
 32 27  1  0  0  0  0
 33 28  1  0  0  0  0
M  END
>  <minimizedAffinity>
-5.50461102

$$$$

 OpenBabel03272502403D

 34 37  0  0  1  0  0  0  0  0999 V2000
   39.0190   26.8710   32.8030 N   0  0  0  0  0  0  0  0  0  0  0  0
   40.3030   27.2400   33.3780 C   0  0  0  0  0  0  0  0  0  0  0  0
   40.2470   26.6430   34.7510 C   0  0  0  0  0  0  0  0  0  0  0  0
   38.7410   26.1300   34.9100 C   0  0  1  0  0  0  0  0  0  0  0  0
   38.4940   25.6980   33.5310 C   0  0  0  0  0  0  0  0  0  0  0  0
   40.3000   28.3580   33.5240 H   0  0  0  0  0  0  0  0  0  0  0  0
   41.1600   26.9220   32.7870 H   0  0  0  0  0  0  0  0  0  0  0  0
   40.8100   25.6840   34.7320 H   0  0  0  0  0  0  0  0  0  0  0  0
   40.4880   27.3100   35.5720 H   0  0  0  0  0  0  0  0  0  0  0  0
   38.3150   27.0930   35.1990 H   0  0  0  0  0  0  0  0  0  0  0  0
   37.4120   25.5930   33.3150 H   0  0  0  0  0  0  0  0  0  0  0  0
   39.0580   24.7920   33.2200 H   0  0  0  0  0  0  0  0  0  0  0  0
   40.2900   23.7730   34.5950 F   0  0  0  0  0  0  0  0  0  0  0  0
   39.5630   24.0100   35.7080 C   0  0  0  0  0  0  0  0  0  0  0  0
   38.7290   25.0750   35.9280 C   0  0  0  0  0  0  0  0  0  0  0  0
   38.0210   25.1300   37.1430 C   0  0  0  0  0  0  0  0  0  0  0  0
   38.1520   24.1470   38.1010 C   0  0  0  0  0  0  0  0  0  0  0  0
   39.0070   23.0720   37.8550 C   0  0  0  0  0  0  0  0  0  0  0  0
   39.7120   23.0150   36.6430 C   0  0  0  0  0  0  0  0  0  0  0  0
   37.3950   26.0080   37.2090 H   0  0  0  0  0  0  0  0  0  0  0  0
   37.5660   24.2830   39.0000 H   0  0  0  0  0  0  0  0  0  0  0  0
   39.0810   22.3220   38.6300 H   0  0  0  0  0  0  0  0  0  0  0  0
   40.5800   21.8200   36.5350 C   0  0  0  0  0  3  0  0  0  0  0  0
   41.5020   21.4670   37.6550 C   0  0  0  0  0  2  0  0  0  0  0  0
   42.0080   21.8660   36.2310 C   0  0  0  0  0  2  0  0  0  0  0  0
   38.3500   27.5080   31.7380 C   0  0  0  0  0  0  0  0  0  0  0  0
   37.0520   27.9610   32.0120 C   0  0  0  0  0  0  0  0  0  0  0  0
   36.3310   28.5970   30.9870 C   0  0  0  0  0  0  0  0  0  0  0  0
   36.9710   28.7280   29.7680 N   0  0  0  0  0  0  0  0  0  0  0  0
   38.2190   28.2770   29.5520 C   0  0  0  0  0  0  0  0  0  0  0  0
   38.9040   27.6690   30.5390 N   0  0  0  0  0  0  0  0  0  0  0  0
   36.5120   27.8850   32.9360 H   0  0  0  0  0  0  0  0  0  0  0  0
   35.3340   28.9630   31.1390 H   0  0  0  0  0  0  0  0  0  0  0  0
   38.6130   28.4360   28.5590 H   0  0  0  0  0  0  0  0  0  0  0  0
  1  2  1  0  0  0  0
  1  5  1  0  0  0  0
  2  6  1  0  0  0  0
  2  3  1  0  0  0  0
  3  4  1  0  0  0  0
  3  9  1  0  0  0  0
  4 10  1  1  0  0  0
  4 15  1  0  0  0  0
  5  4  1  0  0  0  0
  7  2  1  0  0  0  0
  8  3  1  0  0  0  0
 11  5  1  0  0  0  0
 12  5  1  0  0  0  0
 13 14  1  0  0  0  0
 14 15  2  0  0  0  0
 14 19  1  0  0  0  0
 15 16  1  0  0  0  0
 16 20  1  0  0  0  0
 16 17  2  0  0  0  0
 17 21  1  0  0  0  0
 18 17  1  0  0  0  0
 18 22  1  0  0  0  0
 19 18  2  0  0  0  0
 23 19  1  0  0  0  0
 23 24  1  0  0  0  0
 25 23  1  0  0  0  0
 25 24  1  0  0  0  0
 26 27  1  0  0  0  0
 26  1  1  0  0  0  0
 27 32  1  0  0  0  0
 28 33  1  0  0  0  0
 28 27  2  0  0  0  0
 29 28  1  0  0  0  0
 30 29  2  0  0  0  0
 30 31  1  0  0  0  0
 31 26  2  0  0  0  0
 34 30  1  0  0  0  0
M  END
>  <minimizedAffinity>
-5.40394449

$$$$

 OpenBabel03272502403D

 34 37  0  0  1  0  0  0  0  0999 V2000
   36.8290   26.8440   33.5360 N   0  0  0  0  0  0  0  0  0  0  0  0
   37.0040   25.7280   32.6200 C   0  0  0  0  0  0  0  0  0  0  0  0
   37.8760   24.7840   33.3930 C   0  0  0  0  0  0  0  0  0  0  0  0
   38.3130   25.6080   34.6920 C   0  0  1  0  0  0  0  0  0  0  0  0
   37.0800   26.3700   34.9120 C   0  0  0  0  0  0  0  0  0  0  0  0
   37.6310   26.0930   31.7570 H   0  0  0  0  0  0  0  0  0  0  0  0
   36.0710   25.2890   32.2720 H   0  0  0  0  0  0  0  0  0  0  0  0
   37.2240   23.9980   33.8350 H   0  0  0  0  0  0  0  0  0  0  0  0
   38.7620   24.4240   32.8810 H   0  0  0  0  0  0  0  0  0  0  0  0
   39.1380   26.1480   34.2210 H   0  0  0  0  0  0  0  0  0  0  0  0
   37.2440   27.2460   35.5720 H   0  0  0  0  0  0  0  0  0  0  0  0
   36.2150   25.7630   35.2550 H   0  0  0  0  0  0  0  0  0  0  0  0
   40.7830   24.2130   34.6140 F   0  0  0  0  0  0  0  0  0  0  0  0
   39.9140   24.0770   35.6390 C   0  0  0  0  0  0  0  0  0  0  0  0
   38.6710   24.6450   35.7380 C   0  0  0  0  0  0  0  0  0  0  0  0
   37.8910   24.3530   36.8720 C   0  0  0  0  0  0  0  0  0  0  0  0
   38.3500   23.5190   37.8700 C   0  0  0  0  0  0  0  0  0  0  0  0
   39.6190   22.9530   37.7480 C   0  0  0  0  0  0  0  0  0  0  0  0
   40.3980   23.2410   36.6170 C   0  0  0  0  0  0  0  0  0  0  0  0
   36.9330   24.8520   36.8450 H   0  0  0  0  0  0  0  0  0  0  0  0
   37.6750   23.3600   38.6990 H   0  0  0  0  0  0  0  0  0  0  0  0
   39.9420   22.3040   38.5500 H   0  0  0  0  0  0  0  0  0  0  0  0
   41.7170   22.5710   36.6370 C   0  0  0  0  0  3  0  0  0  0  0  0
   41.9810   21.4210   35.7200 C   0  0  0  0  0  2  0  0  0  0  0  0
   41.9770   21.2840   37.2780 C   0  0  0  0  0  2  0  0  0  0  0  0
   36.4860   28.1700   33.2040 C   0  0  0  0  0  0  0  0  0  0  0  0
   35.9300   28.9370   34.2390 C   0  0  0  0  0  0  0  0  0  0  0  0
   35.5600   30.2640   33.9670 C   0  0  0  0  0  0  0  0  0  0  0  0
   35.7780   30.7190   32.6800 N   0  0  0  0  0  0  0  0  0  0  0  0
   36.3160   29.9460   31.7190 C   0  0  0  0  0  0  0  0  0  0  0  0
   36.6690   28.6740   31.9860 N   0  0  0  0  0  0  0  0  0  0  0  0
   35.7400   28.6340   35.2500 H   0  0  0  0  0  0  0  0  0  0  0  0
   35.1290   30.8970   34.7190 H   0  0  0  0  0  0  0  0  0  0  0  0
   36.4380   30.4110   30.7520 H   0  0  0  0  0  0  0  0  0  0  0  0
  1  5  1  0  0  0  0
  2  3  1  0  0  0  0
  2  1  1  0  0  0  0
  3  8  1  0  0  0  0
  3  4  1  0  0  0  0
  4 10  1  6  0  0  0
  4  5  1  0  0  0  0
  4 15  1  0  0  0  0
  5 12  1  0  0  0  0
  5 11  1  0  0  0  0
  6  2  1  0  0  0  0
  7  2  1  0  0  0  0
  9  3  1  0  0  0  0
 13 14  1  0  0  0  0
 14 15  2  0  0  0  0
 14 19  1  0  0  0  0
 15 16  1  0  0  0  0
 16 17  2  0  0  0  0
 17 21  1  0  0  0  0
 18 17  1  0  0  0  0
 18 22  1  0  0  0  0
 19 23  1  0  0  0  0
 19 18  2  0  0  0  0
 20 16  1  0  0  0  0
 23 25  1  0  0  0  0
 24 23  1  0  0  0  0
 24 25  1  0  0  0  0
 26  1  1  0  0  0  0
 26 27  1  0  0  0  0
 27 32  1  0  0  0  0
 28 27  2  0  0  0  0
 28 33  1  0  0  0  0
 29 28  1  0  0  0  0
 30 31  1  0  0  0  0
 30 29  2  0  0  0  0
 31 26  2  0  0  0  0
 34 30  1  0  0  0  0
M  END
>  <minimizedAffinity>
-5.37360048

$$$$

 OpenBabel03272502403D

 34 37  0  0  1  0  0  0  0  0999 V2000
   38.4850   24.8670   34.6300 N   0  0  0  0  0  0  0  0  0  0  0  0
   38.3900   24.2010   33.3410 C   0  0  0  0  0  0  0  0  0  0  0  0
   37.6110   25.1740   32.5090 C   0  0  0  0  0  0  0  0  0  0  0  0
   37.1250   26.2930   33.5420 C   0  0  1  0  0  0  0  0  0  0  0  0
   38.2930   26.3170   34.4280 C   0  0  0  0  0  0  0  0  0  0  0  0
   37.7240   23.3010   33.4720 H   0  0  0  0  0  0  0  0  0  0  0  0
   39.3520   23.9200   32.9150 H   0  0  0  0  0  0  0  0  0  0  0  0
   38.3320   25.7450   31.8830 H   0  0  0  0  0  0  0  0  0  0  0  0
   36.7520   24.7720   31.9830 H   0  0  0  0  0  0  0  0  0  0  0  0
   36.2520   25.7480   33.9090 H   0  0  0  0  0  0  0  0  0  0  0  0
   38.0670   26.7910   35.4040 H   0  0  0  0  0  0  0  0  0  0  0  0
   39.2110   26.7490   33.9730 H   0  0  0  0  0  0  0  0  0  0  0  0
   35.5750   28.3940   34.6550 F   0  0  0  0  0  0  0  0  0  0  0  0
   36.1600   28.4980   33.4420 C   0  0  0  0  0  0  0  0  0  0  0  0
   36.8620   27.5220   32.7870 C   0  0  0  0  0  0  0  0  0  0  0  0
   37.3670   27.8070   31.5050 C   0  0  0  0  0  0  0  0  0  0  0  0
   37.1700   29.0340   30.9070 C   0  0  0  0  0  0  0  0  0  0  0  0
   36.4510   30.0130   31.5940 C   0  0  0  0  0  0  0  0  0  0  0  0
   35.9460   29.7290   32.8720 C   0  0  0  0  0  0  0  0  0  0  0  0
   37.9020   26.9690   31.0820 H   0  0  0  0  0  0  0  0  0  0  0  0
   37.5990   29.1530   29.9220 H   0  0  0  0  0  0  0  0  0  0  0  0
   36.3170   30.9610   31.0910 H   0  0  0  0  0  0  0  0  0  0  0  0
   35.2140   30.8680   33.4700 C   0  0  0  0  0  3  0  0  0  0  0  0
   35.6910   32.2650   33.2370 C   0  0  0  0  0  2  0  0  0  0  0  0
   35.6580   31.6020   34.6530 C   0  0  0  0  0  2  0  0  0  0  0  0
   38.7120   24.2640   35.8830 C   0  0  0  0  0  0  0  0  0  0  0  0
   37.8360   24.6400   36.9120 C   0  0  0  0  0  0  0  0  0  0  0  0
   38.0160   24.0790   38.1870 C   0  0  0  0  0  0  0  0  0  0  0  0
   39.0600   23.1840   38.3300 N   0  0  0  0  0  0  0  0  0  0  0  0
   39.8760   22.8530   37.3130 C   0  0  0  0  0  0  0  0  0  0  0  0
   39.6970   23.3940   36.0930 N   0  0  0  0  0  0  0  0  0  0  0  0
   37.0140   25.3270   36.8550 H   0  0  0  0  0  0  0  0  0  0  0  0
   37.3770   24.3300   39.0120 H   0  0  0  0  0  0  0  0  0  0  0  0
   40.6560   22.1440   37.5450 H   0  0  0  0  0  0  0  0  0  0  0  0
  1 26  1  0  0  0  0
  2  6  1  0  0  0  0
  2  1  1  0  0  0  0
  3  2  1  0  0  0  0
  3  4  1  0  0  0  0
  4 10  1  1  0  0  0
  4  5  1  0  0  0  0
  5  1  1  0  0  0  0
  5 11  1  0  0  0  0
  7  2  1  0  0  0  0
  8  3  1  0  0  0  0
  9  3  1  0  0  0  0
 12  5  1  0  0  0  0
 14 13  1  0  0  0  0
 15 14  2  0  0  0  0
 15  4  1  0  0  0  0
 16 15  1  0  0  0  0
 17 16  2  0  0  0  0
 17 18  1  0  0  0  0
 18 19  2  0  0  0  0
 19 14  1  0  0  0  0
 19 23  1  0  0  0  0
 20 16  1  0  0  0  0
 21 17  1  0  0  0  0
 22 18  1  0  0  0  0
 23 25  1  0  0  0  0
 24 23  1  0  0  0  0
 24 25  1  0  0  0  0
 26 31  2  0  0  0  0
 26 27  1  0  0  0  0
 27 28  2  0  0  0  0
 28 29  1  0  0  0  0
 28 33  1  0  0  0  0
 30 34  1  0  0  0  0
 30 29  2  0  0  0  0
 31 30  1  0  0  0  0
 32 27  1  0  0  0  0
M  END
>  <minimizedAffinity>
-5.37225389

$$$$

 OpenBabel03272502403D

 34 37  0  0  1  0  0  0  0  0999 V2000
   38.3360   24.8690   34.6300 N   0  0  0  0  0  0  0  0  0  0  0  0
   37.8760   24.2380   33.4030 C   0  0  0  0  0  0  0  0  0  0  0  0
   37.1100   25.3330   32.7230 C   0  0  0  0  0  0  0  0  0  0  0  0
   37.0290   26.5060   33.8070 C   0  0  1  0  0  0  0  0  0  0  0  0
   38.3420   26.3330   34.4370 C   0  0  0  0  0  0  0  0  0  0  0  0
   37.1150   23.4570   33.6880 H   0  0  0  0  0  0  0  0  0  0  0  0
   38.6730   23.8100   32.7980 H   0  0  0  0  0  0  0  0  0  0  0  0
   37.7700   25.7860   31.9510 H   0  0  0  0  0  0  0  0  0  0  0  0
   36.1080   25.0800   32.3920 H   0  0  0  0  0  0  0  0  0  0  0  0
   36.1740   26.1050   34.3550 H   0  0  0  0  0  0  0  0  0  0  0  0
   38.3970   26.8280   35.4270 H   0  0  0  0  0  0  0  0  0  0  0  0
   39.2050   26.6150   33.7960 H   0  0  0  0  0  0  0  0  0  0  0  0
   38.5480   27.1510   31.4980 F   0  0  0  0  0  0  0  0  0  0  0  0
   37.5590   27.9500   31.9530 C   0  0  0  0  0  0  0  0  0  0  0  0
   36.8190   27.7680   33.0910 C   0  0  0  0  0  0  0  0  0  0  0  0
   35.8520   28.7340   33.4220 C   0  0  0  0  0  0  0  0  0  0  0  0
   35.6380   29.8430   32.6310 C   0  0  0  0  0  0  0  0  0  0  0  0
   36.4030   30.0070   31.4750 C   0  0  0  0  0  0  0  0  0  0  0  0
   37.3690   29.0450   31.1450 C   0  0  0  0  0  0  0  0  0  0  0  0
   35.3300   28.4910   34.3360 H   0  0  0  0  0  0  0  0  0  0  0  0
   34.8710   30.5250   32.9710 H   0  0  0  0  0  0  0  0  0  0  0  0
   36.2060   30.8900   30.8820 H   0  0  0  0  0  0  0  0  0  0  0  0
   38.0920   29.3580   29.8920 C   0  0  0  0  0  3  0  0  0  0  0  0
   37.4880   30.2970   28.8990 C   0  0  0  0  0  2  0  0  0  0  0  0
   37.7600   28.7890   28.5870 C   0  0  0  0  0  2  0  0  0  0  0  0
   38.7140   24.2250   35.8260 C   0  0  0  0  0  0  0  0  0  0  0  0
   37.9050   24.4810   36.9420 C   0  0  0  0  0  0  0  0  0  0  0  0
   38.2350   23.8750   38.1650 C   0  0  0  0  0  0  0  0  0  0  0  0
   39.3500   23.0570   38.1720 N   0  0  0  0  0  0  0  0  0  0  0  0
   40.0970   22.8400   37.0750 C   0  0  0  0  0  0  0  0  0  0  0  0
   39.7740   23.4250   35.9050 N   0  0  0  0  0  0  0  0  0  0  0  0
   37.0320   25.1040   36.9900 H   0  0  0  0  0  0  0  0  0  0  0  0
   37.6520   24.0350   39.0520 H   0  0  0  0  0  0  0  0  0  0  0  0
   40.9440   22.1830   37.2030 H   0  0  0  0  0  0  0  0  0  0  0  0
  1 26  1  0  0  0  0
  2  6  1  0  0  0  0
  2  1  1  0  0  0  0
  3  2  1  0  0  0  0
  3  4  1  0  0  0  0
  4 10  1  1  0  0  0
  4  5  1  0  0  0  0
  5  1  1  0  0  0  0
  5 11  1  0  0  0  0
  7  2  1  0  0  0  0
  8  3  1  0  0  0  0
  9  3  1  0  0  0  0
 12  5  1  0  0  0  0
 13 14  1  0  0  0  0
 14 15  1  0  0  0  0
 15 16  2  0  0  0  0
 15  4  1  0  0  0  0
 16 20  1  0  0  0  0
 17 21  1  0  0  0  0
 17 16  1  0  0  0  0
 18 17  2  0  0  0  0
 19 18  1  0  0  0  0
 19 14  2  0  0  0  0
 22 18  1  0  0  0  0
 23 19  1  0  0  0  0
 24 23  1  0  0  0  0
 25 24  1  0  0  0  0
 25 23  1  0  0  0  0
 26 31  2  0  0  0  0
 26 27  1  0  0  0  0
 27 32  1  0  0  0  0
 27 28  2  0  0  0  0
 28 29  1  0  0  0  0
 28 33  1  0  0  0  0
 30 34  1  0  0  0  0
 30 29  2  0  0  0  0
 31 30  1  0  0  0  0
M  END
>  <minimizedAffinity>
-5.32543087

$$$$

 OpenBabel03272502403D

 34 37  0  0  1  0  0  0  0  0999 V2000
   36.7700   28.1480   32.0970 N   0  0  0  0  0  0  0  0  0  0  0  0
   37.1380   27.3440   33.2510 C   0  0  0  0  0  0  0  0  0  0  0  0
   36.5270   28.0930   34.3980 C   0  0  0  0  0  0  0  0  0  0  0  0
   36.0060   29.4620   33.7570 C   0  0  1  0  0  0  0  0  0  0  0  0
   35.5870   28.9610   32.4450 C   0  0  0  0  0  0  0  0  0  0  0  0
   38.2550   27.4320   33.3830 H   0  0  0  0  0  0  0  0  0  0  0  0
   36.8300   26.3030   33.1840 H   0  0  0  0  0  0  0  0  0  0  0  0
   35.5710   27.5910   34.6640 H   0  0  0  0  0  0  0  0  0  0  0  0
   37.1880   28.3130   35.2300 H   0  0  0  0  0  0  0  0  0  0  0  0
   36.9650   29.9840   33.7920 H   0  0  0  0  0  0  0  0  0  0  0  0
   35.4790   29.7780   31.7020 H   0  0  0  0  0  0  0  0  0  0  0  0
   34.6870   28.3110   32.4620 H   0  0  0  0  0  0  0  0  0  0  0  0
   36.5430   31.4610   35.6990 F   0  0  0  0  0  0  0  0  0  0  0  0
   35.2960   30.9950   35.4740 C   0  0  0  0  0  0  0  0  0  0  0  0
   34.9420   29.9860   34.6180 C   0  0  0  0  0  0  0  0  0  0  0  0
   33.5870   29.6120   34.5490 C   0  0  0  0  0  0  0  0  0  0  0  0
   32.6250   30.2350   35.3150 C   0  0  0  0  0  0  0  0  0  0  0  0
   33.0090   31.2600   36.1800 C   0  0  0  0  0  0  0  0  0  0  0  0
   34.3600   31.6330   36.2520 C   0  0  0  0  0  0  0  0  0  0  0  0
   33.4220   28.8100   33.8440 H   0  0  0  0  0  0  0  0  0  0  0  0
   31.6130   29.8750   35.1870 H   0  0  0  0  0  0  0  0  0  0  0  0
   32.2260   31.7230   36.7650 H   0  0  0  0  0  0  0  0  0  0  0  0
   34.6060   32.7360   37.2080 C   0  0  0  0  0  3  0  0  0  0  0  0
   33.4980   33.6730   37.5630 C   0  0  0  0  0  2  0  0  0  0  0  0
   34.7960   34.1330   36.8220 C   0  0  0  0  0  2  0  0  0  0  0  0
   37.4130   28.1790   30.8430 C   0  0  0  0  0  0  0  0  0  0  0  0
   38.5440   27.3590   30.7140 C   0  0  0  0  0  0  0  0  0  0  0  0
   39.2330   27.3530   29.4900 C   0  0  0  0  0  0  0  0  0  0  0  0
   38.7340   28.1690   28.4920 N   0  0  0  0  0  0  0  0  0  0  0  0
   37.6450   28.9400   28.6620 C   0  0  0  0  0  0  0  0  0  0  0  0
   36.9880   28.9400   29.8380 N   0  0  0  0  0  0  0  0  0  0  0  0
   38.9710   26.7100   31.4530 H   0  0  0  0  0  0  0  0  0  0  0  0
   40.1050   26.7460   29.3340 H   0  0  0  0  0  0  0  0  0  0  0  0
   37.3500   29.5350   27.8110 H   0  0  0  0  0  0  0  0  0  0  0  0
  1  5  1  0  0  0  0
  1  2  1  0  0  0  0
  2  6  1  0  0  0  0
  2  3  1  0  0  0  0
  3  8  1  0  0  0  0
  3  9  1  0  0  0  0
  4 10  1  6  0  0  0
  4  3  1  0  0  0  0
  4 15  1  0  0  0  0
  5 12  1  0  0  0  0
  5  4  1  0  0  0  0
  7  2  1  0  0  0  0
 11  5  1  0  0  0  0
 14 13  1  0  0  0  0
 14 19  1  0  0  0  0
 15 14  2  0  0  0  0
 16 15  1  0  0  0  0
 16 17  2  0  0  0  0
 17 18  1  0  0  0  0
 18 19  2  0  0  0  0
 18 22  1  0  0  0  0
 19 23  1  0  0  0  0
 20 16  1  0  0  0  0
 21 17  1  0  0  0  0
 23 24  1  0  0  0  0
 25 23  1  0  0  0  0
 25 24  1  0  0  0  0
 26  1  1  0  0  0  0
 27 26  1  0  0  0  0
 27 32  1  0  0  0  0
 28 27  2  0  0  0  0
 29 30  2  0  0  0  0
 29 28  1  0  0  0  0
 30 31  1  0  0  0  0
 31 26  2  0  0  0  0
 33 28  1  0  0  0  0
 34 30  1  0  0  0  0
M  END
>  <minimizedAffinity>
-5.31904745

$$$$

 OpenBabel03272502403D

 34 37  0  0  1  0  0  0  0  0999 V2000
   36.6040   27.6580   32.7850 N   0  0  0  0  0  0  0  0  0  0  0  0
   36.6960   28.7320   31.8080 C   0  0  0  0  0  0  0  0  0  0  0  0
   35.9300   29.8470   32.4530 C   0  0  0  0  0  0  0  0  0  0  0  0
   35.2510   29.1830   33.7390 C   0  0  1  0  0  0  0  0  0  0  0  0
   36.3170   28.2460   34.1080 C   0  0  0  0  0  0  0  0  0  0  0  0
   36.0950   28.4220   30.9060 H   0  0  0  0  0  0  0  0  0  0  0  0
   37.7160   28.9930   31.5310 H   0  0  0  0  0  0  0  0  0  0  0  0
   36.6620   30.5420   32.9190 H   0  0  0  0  0  0  0  0  0  0  0  0
   35.1640   30.3140   31.8440 H   0  0  0  0  0  0  0  0  0  0  0  0
   34.3930   28.7550   33.2160 H   0  0  0  0  0  0  0  0  0  0  0  0
   35.9540   27.4480   34.7870 H   0  0  0  0  0  0  0  0  0  0  0  0
   37.2390   28.7240   34.5050 H   0  0  0  0  0  0  0  0  0  0  0  0
   32.5870   29.8210   34.4790 F   0  0  0  0  0  0  0  0  0  0  0  0
   33.6530   30.4320   35.0380 C   0  0  0  0  0  0  0  0  0  0  0  0
   34.9690   30.2510   34.7030 C   0  0  0  0  0  0  0  0  0  0  0  0
   35.9420   31.0110   35.3770 C   0  0  0  0  0  0  0  0  0  0  0  0
   35.5990   31.9200   36.3550 C   0  0  0  0  0  0  0  0  0  0  0  0
   34.2530   32.0870   36.6810 C   0  0  0  0  0  0  0  0  0  0  0  0
   33.2810   31.3310   36.0080 C   0  0  0  0  0  0  0  0  0  0  0  0
   36.9420   30.7880   35.0330 H   0  0  0  0  0  0  0  0  0  0  0  0
   36.4210   32.4520   36.8140 H   0  0  0  0  0  0  0  0  0  0  0  0
   34.0250   32.8100   37.4520 H   0  0  0  0  0  0  0  0  0  0  0  0
   31.9040   31.6180   36.4690 C   0  0  0  0  0  3  0  0  0  0  0  0
   30.9360   32.2860   35.5480 C   0  0  0  0  0  2  0  0  0  0  0  0
   31.4320   32.9390   36.8800 C   0  0  0  0  0  2  0  0  0  0  0  0
   36.7500   26.2760   32.5450 C   0  0  0  0  0  0  0  0  0  0  0  0
   35.9860   25.7530   31.4910 C   0  0  0  0  0  0  0  0  0  0  0  0
   36.0820   24.3810   31.2080 C   0  0  0  0  0  0  0  0  0  0  0  0
   36.9370   23.6410   32.0040 N   0  0  0  0  0  0  0  0  0  0  0  0
   37.6510   24.1870   33.0040 C   0  0  0  0  0  0  0  0  0  0  0  0
   37.5550   25.5040   33.2700 N   0  0  0  0  0  0  0  0  0  0  0  0
   35.3100   26.2810   30.8460 H   0  0  0  0  0  0  0  0  0  0  0  0
   35.5200   23.9260   30.4140 H   0  0  0  0  0  0  0  0  0  0  0  0
   38.2840   23.5090   33.5560 H   0  0  0  0  0  0  0  0  0  0  0  0
  1  5  1  0  0  0  0
  2  3  1  0  0  0  0
  2  1  1  0  0  0  0
  3  8  1  0  0  0  0
  3  4  1  0  0  0  0
  4 10  1  6  0  0  0
  4  5  1  0  0  0  0
  4 15  1  0  0  0  0
  5 12  1  0  0  0  0
  5 11  1  0  0  0  0
  6  2  1  0  0  0  0
  7  2  1  0  0  0  0
  9  3  1  0  0  0  0
 13 14  1  0  0  0  0
 14 19  1  0  0  0  0
 15 14  2  0  0  0  0
 15 16  1  0  0  0  0
 16 17  2  0  0  0  0
 17 18  1  0  0  0  0
 17 21  1  0  0  0  0
 18 22  1  0  0  0  0
 19 23  1  0  0  0  0
 19 18  2  0  0  0  0
 20 16  1  0  0  0  0
 23 25  1  0  0  0  0
 24 23  1  0  0  0  0
 24 25  1  0  0  0  0
 26  1  1  0  0  0  0
 26 31  1  0  0  0  0
 27 26  2  0  0  0  0
 28 27  1  0  0  0  0
 28 29  2  0  0  0  0
 29 30  1  0  0  0  0
 30 31  2  0  0  0  0
 30 34  1  0  0  0  0
 32 27  1  0  0  0  0
 33 28  1  0  0  0  0
M  END
>  <minimizedAffinity>
-5.27430439

$$$$

 OpenBabel03272502403D

 34 37  0  0  1  0  0  0  0  0999 V2000
   38.5140   24.1680   34.6360 N   0  0  0  0  0  0  0  0  0  0  0  0
   37.8650   23.3390   33.6330 C   0  0  0  0  0  0  0  0  0  0  0  0
   37.4420   24.3310   32.5910 C   0  0  0  0  0  0  0  0  0  0  0  0
   37.7310   25.7590   33.2490 C   0  0  1  0  0  0  0  0  0  0  0  0
   38.9470   25.4290   33.9990 C   0  0  0  0  0  0  0  0  0  0  0  0
   36.9130   22.9400   34.0870 H   0  0  0  0  0  0  0  0  0  0  0  0
   38.4890   22.5320   33.2530 H   0  0  0  0  0  0  0  0  0  0  0  0
   38.1910   24.3060   31.7690 H   0  0  0  0  0  0  0  0  0  0  0  0
   36.4040   24.2820   32.2790 H   0  0  0  0  0  0  0  0  0  0  0  0
   36.8070   25.8150   33.8270 H   0  0  0  0  0  0  0  0  0  0  0  0
   39.1650   26.1760   34.7890 H   0  0  0  0  0  0  0  0  0  0  0  0
   39.8420   25.2340   33.3710 H   0  0  0  0  0  0  0  0  0  0  0  0
   35.8300   27.8280   32.8520 F   0  0  0  0  0  0  0  0  0  0  0  0
   36.9490   27.7280   32.1020 C   0  0  0  0  0  0  0  0  0  0  0  0
   37.8880   26.7320   32.1640 C   0  0  0  0  0  0  0  0  0  0  0  0
   38.9730   26.7800   31.2690 C   0  0  0  0  0  0  0  0  0  0  0  0
   39.1060   27.7960   30.3470 C   0  0  0  0  0  0  0  0  0  0  0  0
   38.1370   28.8000   30.3030 C   0  0  0  0  0  0  0  0  0  0  0  0
   37.0540   28.7530   31.1940 C   0  0  0  0  0  0  0  0  0  0  0  0
   39.6490   25.9480   31.4050 H   0  0  0  0  0  0  0  0  0  0  0  0
   39.9750   27.7420   29.7070 H   0  0  0  0  0  0  0  0  0  0  0  0
   38.2760   29.5790   29.5660 H   0  0  0  0  0  0  0  0  0  0  0  0
   36.1190   29.8880   31.0270 C   0  0  0  0  0  3  0  0  0  0  0  0
   36.5980   31.1630   30.4140 C   0  0  0  0  0  2  0  0  0  0  0  0
   36.0930   31.0670   31.8900 C   0  0  0  0  0  2  0  0  0  0  0  0
   38.7090   23.8590   35.9970 C   0  0  0  0  0  0  0  0  0  0  0  0
   37.7880   24.4250   36.8920 C   0  0  0  0  0  0  0  0  0  0  0  0
   37.9340   24.1600   38.2630 C   0  0  0  0  0  0  0  0  0  0  0  0
   38.9920   23.3480   38.6300 N   0  0  0  0  0  0  0  0  0  0  0  0
   39.8500   22.8280   37.7350 C   0  0  0  0  0  0  0  0  0  0  0  0
   39.7040   23.0850   36.4210 N   0  0  0  0  0  0  0  0  0  0  0  0
   36.9540   25.0580   36.6600 H   0  0  0  0  0  0  0  0  0  0  0  0
   37.2600   24.5660   38.9930 H   0  0  0  0  0  0  0  0  0  0  0  0
   40.6370   22.2090   38.1410 H   0  0  0  0  0  0  0  0  0  0  0  0
  1 26  1  0  0  0  0
  2  6  1  0  0  0  0
  2  1  1  0  0  0  0
  3  4  1  0  0  0  0
  3  2  1  0  0  0  0
  4 10  1  1  0  0  0
  4  5  1  0  0  0  0
  5  1  1  0  0  0  0
  5 11  1  0  0  0  0
  7  2  1  0  0  0  0
  8  3  1  0  0  0  0
  9  3  1  0  0  0  0
 12  5  1  0  0  0  0
 14 15  1  0  0  0  0
 14 13  1  0  0  0  0
 15  4  1  0  0  0  0
 16 20  1  0  0  0  0
 16 15  2  0  0  0  0
 17 16  1  0  0  0  0
 18 17  2  0  0  0  0
 18 19  1  0  0  0  0
 19 14  2  0  0  0  0
 21 17  1  0  0  0  0
 22 18  1  0  0  0  0
 23 19  1  0  0  0  0
 23 25  1  0  0  0  0
 24 23  1  0  0  0  0
 24 25  1  0  0  0  0
 26 31  2  0  0  0  0
 26 27  1  0  0  0  0
 27 28  2  0  0  0  0
 28 29  1  0  0  0  0
 28 33  1  0  0  0  0
 30 34  1  0  0  0  0
 30 29  2  0  0  0  0
 31 30  1  0  0  0  0
 32 27  1  0  0  0  0
M  END
>  <minimizedAffinity>
-5.12985373

$$$$

 OpenBabel03272502403D

 34 37  0  0  1  0  0  0  0  0999 V2000
   36.7260   28.4210   32.0560 N   0  0  0  0  0  0  0  0  0  0  0  0
   36.7690   27.4080   33.0990 C   0  0  0  0  0  0  0  0  0  0  0  0
   36.3820   28.1690   34.3310 C   0  0  0  0  0  0  0  0  0  0  0  0
   36.3530   29.7000   33.8700 C   0  0  1  0  0  0  0  0  0  0  0  0
   35.8520   29.5240   32.5040 C   0  0  0  0  0  0  0  0  0  0  0  0
   37.8490   27.1140   33.2420 H   0  0  0  0  0  0  0  0  0  0  0  0
   36.1470   26.5380   32.8980 H   0  0  0  0  0  0  0  0  0  0  0  0
   35.3050   27.9750   34.5300 H   0  0  0  0  0  0  0  0  0  0  0  0
   37.0420   28.0630   35.1850 H   0  0  0  0  0  0  0  0  0  0  0  0
   37.4260   29.8770   33.9720 H   0  0  0  0  0  0  0  0  0  0  0  0
   36.0420   30.4150   31.8720 H   0  0  0  0  0  0  0  0  0  0  0  0
   34.7910   29.2010   32.4370 H   0  0  0  0  0  0  0  0  0  0  0  0
   33.5490   29.2660   33.8760 F   0  0  0  0  0  0  0  0  0  0  0  0
   34.1480   30.0980   34.7550 C   0  0  0  0  0  0  0  0  0  0  0  0
   35.4760   30.4320   34.7890 C   0  0  0  0  0  0  0  0  0  0  0  0
   35.9090   31.3510   35.7620 C   0  0  0  0  0  0  0  0  0  0  0  0
   35.0330   31.9130   36.6670 C   0  0  0  0  0  0  0  0  0  0  0  0
   33.6850   31.5570   36.6130 C   0  0  0  0  0  0  0  0  0  0  0  0
   33.2510   30.6420   35.6430 C   0  0  0  0  0  0  0  0  0  0  0  0
   36.9710   31.5410   35.6980 H   0  0  0  0  0  0  0  0  0  0  0  0
   35.4660   32.6070   37.3740 H   0  0  0  0  0  0  0  0  0  0  0  0
   33.0300   32.0200   37.3390 H   0  0  0  0  0  0  0  0  0  0  0  0
   31.7990   30.3640   35.7180 C   0  0  0  0  0  3  0  0  0  0  0  0
   30.9210   31.2220   36.5680 C   0  0  0  0  0  2  0  0  0  0  0  0
   31.1460   29.6990   36.8430 C   0  0  0  0  0  2  0  0  0  0  0  0
   37.3980   28.3950   30.8170 C   0  0  0  0  0  0  0  0  0  0  0  0
   38.5550   27.6030   30.7650 C   0  0  0  0  0  0  0  0  0  0  0  0
   39.2740   27.5420   29.5590 C   0  0  0  0  0  0  0  0  0  0  0  0
   38.7750   28.2790   28.5010 N   0  0  0  0  0  0  0  0  0  0  0  0
   37.6600   29.0250   28.5990 C   0  0  0  0  0  0  0  0  0  0  0  0
   36.9750   29.0780   29.7570 N   0  0  0  0  0  0  0  0  0  0  0  0
   38.9830   27.0140   31.5530 H   0  0  0  0  0  0  0  0  0  0  0  0
   40.1660   26.9540   29.4610 H   0  0  0  0  0  0  0  0  0  0  0  0
   37.3680   29.5570   27.7060 H   0  0  0  0  0  0  0  0  0  0  0  0
  1  5  1  0  0  0  0
  1  2  1  0  0  0  0
  2  6  1  0  0  0  0
  2  3  1  0  0  0  0
  3  8  1  0  0  0  0
  3  9  1  0  0  0  0
  4 10  1  6  0  0  0
  4  3  1  0  0  0  0
  4 15  1  0  0  0  0
  5  4  1  0  0  0  0
  7  2  1  0  0  0  0
 11  5  1  0  0  0  0
 12  5  1  0  0  0  0
 13 14  1  0  0  0  0
 14 15  2  0  0  0  0
 14 19  1  0  0  0  0
 15 16  1  0  0  0  0
 16 17  2  0  0  0  0
 17 21  1  0  0  0  0
 18 17  1  0  0  0  0
 18 22  1  0  0  0  0
 19 23  1  0  0  0  0
 19 18  2  0  0  0  0
 20 16  1  0  0  0  0
 23 24  1  0  0  0  0
 23 25  1  0  0  0  0
 24 25  1  0  0  0  0
 26  1  1  0  0  0  0
 27 26  1  0  0  0  0
 27 32  1  0  0  0  0
 28 27  2  0  0  0  0
 29 30  2  0  0  0  0
 29 28  1  0  0  0  0
 30 31  1  0  0  0  0
 31 26  2  0  0  0  0
 33 28  1  0  0  0  0
 34 30  1  0  0  0  0
M  END
>  <minimizedAffinity>
-5.07586527

$$$$
