
     RDKit          3D

 35 38  0  0  0  0  0  0  0  0999 V2000
   37.3122   29.3358   51.0246 Br  0  0  0  0  0  0  0  0  0  0  0  0
   35.9650   29.3301   49.6780 C   0  0  0  0  0  0  0  0  0  0  0  0
   35.9899   30.2550   48.6375 C   0  0  0  0  0  0  0  0  0  0  0  0
   34.9847   30.1883   47.7046 C   0  0  0  0  0  0  0  0  0  0  0  0
   33.9659   29.2647   47.7453 C   0  0  0  0  0  0  0  0  0  0  0  0
   33.9665   28.3648   48.7828 C   0  0  0  0  0  0  0  0  0  0  0  0
   34.9574   28.4091   49.7269 C   0  0  0  0  0  0  0  0  0  0  0  0
   37.9908   33.1967   49.4646 C   0  0  0  0  0  0  0  0  0  0  0  0
   39.0228   33.1791   48.4801 C   0  0  0  0  0  0  0  0  0  0  0  0
   39.0051   32.1527   47.5530 C   0  0  0  0  0  0  0  0  0  0  0  0
   38.0169   31.2001   47.6044 N   0  0  0  0  0  0  0  0  0  0  0  0
   37.0538   31.2528   48.5565 C   0  0  0  0  0  0  0  0  0  0  0  0
   37.0475   32.2504   49.4796 N   0  0  0  0  0  0  0  0  0  0  0  0
   32.8996   29.1956   46.7539 C   0  0  0  0  0  0  0  0  0  0  0  0
   32.2550   28.0451   46.3712 C   0  0  0  0  0  0  0  0  0  0  0  0
   31.2442   28.0280   45.4220 C   0  0  0  0  0  0  0  0  0  0  0  0
   30.8739   29.1726   44.8495 N   0  0  0  0  0  0  0  0  0  0  0  0
   31.4991   30.3212   45.2143 C   0  0  0  0  0  0  0  0  0  0  0  0
   32.4646   30.3059   46.1271 N   0  0  0  0  0  0  0  0  0  0  0  0
   35.0126   30.9112   46.8998 H   0  0  0  0  0  0  0  0  0  0  0  0
   33.1832   27.6206   48.8533 H   0  0  0  0  0  0  0  0  0  0  0  0
   34.9306   27.6869   50.5321 H   0  0  0  0  0  0  0  0  0  0  0  0
   37.9370   33.9623   50.2190 H   0  0  0  0  0  0  0  0  0  0  0  0
   39.7579   33.9487   48.4979 H   0  0  0  0  0  0  0  0  0  0  0  0
   39.7517   32.0951   46.7996 H   0  0  0  0  0  0  0  0  0  0  0  0
   32.5588   27.1087   46.8404 H   0  0  0  0  0  0  0  0  0  0  0  0
   30.8046   27.0564   45.1975 H   0  0  0  0  0  0  0  0  0  0  0  0
   31.1087   31.6233   44.5921 C   0  0  0  0  0  0  0  0  0  0  0  0
   29.6730   31.9302   44.3702 C   0  0  0  0  0  0  0  0  0  0  0  0
   30.5518   31.6613   43.2031 C   0  0  0  0  0  0  0  0  0  0  0  0
   31.7123   32.4575   44.9979 H   0  0  0  0  0  0  0  0  0  0  0  0
   29.3359   32.9809   44.4859 H   0  0  0  0  0  0  0  0  0  0  0  0
   28.8776   31.1792   44.5970 H   0  0  0  0  0  0  0  0  0  0  0  0
   30.4274   30.7102   42.6647 H   0  0  0  0  0  0  0  0  0  0  0  0
   30.9583   32.5140   42.5884 H   0  0  0  0  0  0  0  0  0  0  0  0
  2  7  2  0
  2  1  1  0
  3  2  1  0
  4  5  1  0
  4  3  2  0
  5  6  2  0
  6  7  1  0
  8 13  2  0
  9  8  1  0
 10 11  1  0
 10  9  2  0
 11 12  2  0
 12  3  1  0
 12 13  1  0
 14  5  1  0
 15 14  2  0
 16 15  1  0
 17 18  1  0
 17 16  2  0
 18 19  2  0
 19 14  1  0
  4 20  1  0
  6 21  1  0
  7 22  1  0
  8 23  1  0
  9 24  1  0
 10 25  1  0
 15 26  1  0
 16 27  1  0
 28 29  1  0
 29 30  1  0
 30 28  1  0
 28 31  1  0
 29 32  1  0
 29 33  1  0
 30 34  1  0
 30 35  1  0
 18 28  1  0
M  ISO  8  20  14  21  14  22  14  23  14  24  14  25  14  26  14  27  14
M  END
>  <DihAtoms>  (1) 
16,17,27,28

>  <DihDeg>  (1) 
-138.31806485541784

$$$$
