
 OpenBabel03272507513D

 22 24  0  0  0  0  0  0  0  0999 V2000
   39.2080   23.3140   34.9710 N   0  0  0  0  0  0  0  0  0  0  0  0
   40.5540   23.4840   34.9180 C   0  0  0  0  0  0  0  0  0  0  0  0
   41.3560   22.8480   35.8750 C   0  0  0  0  0  0  0  0  0  0  0  0
   40.6540   22.0970   36.7910 C   0  0  0  0  0  0  0  0  0  0  0  0
   41.4010   21.5280   37.6500 O   0  0  0  0  0  0  0  0  0  0  0  0
   39.3310   21.9200   36.8550 N   0  0  0  0  0  0  0  0  0  0  0  0
   38.6080   22.5560   35.9100 C   0  0  0  0  0  0  0  0  0  0  0  0
   37.3650   22.3990   35.9570 O   0  0  0  0  0  0  0  0  0  0  0  0
   41.0140   24.0960   34.1560 H   0  0  0  0  0  0  0  0  0  0  0  0
   42.4100   22.9550   35.8700 H   0  0  0  0  0  0  0  0  0  0  0  0
   38.9100   21.3290   37.5930 H   0  0  0  0  0  0  0  0  0  0  0  0
   37.9380   25.2720   34.3020 C   0  0  0  0  0  0  0  0  0  0  0  0
   38.3470   23.9440   34.0200 C   0  0  0  0  0  0  0  0  0  0  0  0
   37.8830   23.3600   32.8500 C   0  0  0  0  0  0  0  0  0  0  0  0
   37.0700   24.0690   32.0350 N   0  0  0  0  0  0  0  0  0  0  0  0
   36.6900   25.3270   32.3130 C   0  0  0  0  0  0  0  0  0  0  0  0
   37.1210   25.9260   33.4380 N   0  0  0  0  0  0  0  0  0  0  0  0
   38.2170   22.3440   32.6710 H   0  0  0  0  0  0  0  0  0  0  0  0
   36.0330   25.8130   31.5920 H   0  0  0  0  0  0  0  0  0  0  0  0
   38.3800   25.9910   35.5310 C   0  0  0  0  0  3  0  0  0  0  0  0
   38.0970   27.4420   35.6310 C   0  0  0  0  0  2  0  0  0  0  0  0
   39.4840   26.9940   35.3320 C   0  0  0  0  0  2  0  0  0  0  0  0
  1  7  1  0  0  0  0
  2  1  1  0  0  0  0
  2  3  2  0  0  0  0
  3  4  1  0  0  0  0
  4  6  1  0  0  0  0
  4  5  2  0  0  0  0
  6 11  1  0  0  0  0
  7  8  2  0  0  0  0
  7  6  1  0  0  0  0
  9  2  1  0  0  0  0
 10  3  1  0  0  0  0
 12 20  1  0  0  0  0
 13 12  1  0  0  0  0
 13  1  1  0  0  0  0
 14 13  2  0  0  0  0
 15 16  2  0  0  0  0
 15 14  1  0  0  0  0
 16 17  1  0  0  0  0
 17 12  2  0  0  0  0
 18 14  1  0  0  0  0
 19 16  1  0  0  0  0
 20 21  1  0  0  0  0
 22 20  1  0  0  0  0
 22 21  1  0  0  0  0
M  END
>  <minimizedAffinity>
-4.92569351

$$$$

 OpenBabel03272507513D

 22 24  0  0  0  0  0  0  0  0999 V2000
   38.7850   25.4880   35.1750 N   0  0  0  0  0  0  0  0  0  0  0  0
   38.8180   26.6840   35.8190 C   0  0  0  0  0  0  0  0  0  0  0  0
   37.9390   27.6960   35.4110 C   0  0  0  0  0  0  0  0  0  0  0  0
   37.1150   27.3430   34.3660 C   0  0  0  0  0  0  0  0  0  0  0  0
   36.3260   28.2770   34.0130 O   0  0  0  0  0  0  0  0  0  0  0  0
   37.0720   26.1720   33.7240 N   0  0  0  0  0  0  0  0  0  0  0  0
   37.9400   25.2340   34.1570 C   0  0  0  0  0  0  0  0  0  0  0  0
   37.9110   24.1290   33.5650 O   0  0  0  0  0  0  0  0  0  0  0  0
   39.5040   26.8660   36.6330 H   0  0  0  0  0  0  0  0  0  0  0  0
   37.9320   28.6430   35.8860 H   0  0  0  0  0  0  0  0  0  0  0  0
   36.4060   26.0180   32.9470 H   0  0  0  0  0  0  0  0  0  0  0  0
   39.2380   23.5810   36.6080 C   0  0  0  0  0  0  0  0  0  0  0  0
   39.6630   24.4250   35.5500 C   0  0  0  0  0  0  0  0  0  0  0  0
   40.8920   24.1560   34.9630 C   0  0  0  0  0  0  0  0  0  0  0  0
   41.6270   23.1150   35.4150 N   0  0  0  0  0  0  0  0  0  0  0  0
   41.2120   22.3230   36.4180 C   0  0  0  0  0  0  0  0  0  0  0  0
   40.0260   22.5520   37.0110 N   0  0  0  0  0  0  0  0  0  0  0  0
   41.1810   24.8230   34.1590 H   0  0  0  0  0  0  0  0  0  0  0  0
   41.8770   21.5100   36.7090 H   0  0  0  0  0  0  0  0  0  0  0  0
   37.9360   23.7830   37.3050 C   0  0  0  0  0  3  0  0  0  0  0  0
   37.9410   24.5200   38.5910 C   0  0  0  0  0  2  0  0  0  0  0  0
   37.7770   23.0410   38.6040 C   0  0  0  0  0  2  0  0  0  0  0  0
  1 13  1  0  0  0  0
  1  2  1  0  0  0  0
  2  9  1  0  0  0  0
  3  2  2  0  0  0  0
  3 10  1  0  0  0  0
  4  3  1  0  0  0  0
  5  4  2  0  0  0  0
  6  7  1  0  0  0  0
  6  4  1  0  0  0  0
  7  1  1  0  0  0  0
  8  7  2  0  0  0  0
 11  6  1  0  0  0  0
 12 17  1  0  0  0  0
 12 20  1  0  0  0  0
 13 12  2  0  0  0  0
 14 15  2  0  0  0  0
 14 13  1  0  0  0  0
 15 16  1  0  0  0  0
 16 19  1  0  0  0  0
 16 17  2  0  0  0  0
 18 14  1  0  0  0  0
 20 21  1  0  0  0  0
 20 22  1  0  0  0  0
 21 22  1  0  0  0  0
M  END
>  <minimizedAffinity>
-4.68638754

$$$$

 OpenBabel03272507513D

 22 24  0  0  0  0  0  0  0  0999 V2000
   39.6550   23.8580   36.0910 N   0  0  0  0  0  0  0  0  0  0  0  0
   40.9350   23.6700   35.6780 C   0  0  0  0  0  0  0  0  0  0  0  0
   41.7200   22.7040   36.3210 C   0  0  0  0  0  0  0  0  0  0  0  0
   41.0720   22.0340   37.3350 C   0  0  0  0  0  0  0  0  0  0  0  0
   41.8030   21.1610   37.9050 O   0  0  0  0  0  0  0  0  0  0  0  0
   39.8150   22.2070   37.7520 N   0  0  0  0  0  0  0  0  0  0  0  0
   39.1060   23.1510   37.0980 C   0  0  0  0  0  0  0  0  0  0  0  0
   37.9240   23.3250   37.4780 O   0  0  0  0  0  0  0  0  0  0  0  0
   41.3550   24.2490   34.8680 H   0  0  0  0  0  0  0  0  0  0  0  0
   42.7220   22.5260   36.0300 H   0  0  0  0  0  0  0  0  0  0  0  0
   39.4310   21.6420   38.5300 H   0  0  0  0  0  0  0  0  0  0  0  0
   38.2190   24.4780   34.2340 C   0  0  0  0  0  0  0  0  0  0  0  0
   38.8150   24.8340   35.4710 C   0  0  0  0  0  0  0  0  0  0  0  0
   38.5400   26.0950   35.9810 C   0  0  0  0  0  0  0  0  0  0  0  0
   37.7260   26.9240   35.2900 N   0  0  0  0  0  0  0  0  0  0  0  0
   37.1670   26.5740   34.1190 C   0  0  0  0  0  0  0  0  0  0  0  0
   37.4110   25.3600   33.5940 N   0  0  0  0  0  0  0  0  0  0  0  0
   39.0150   26.3290   36.9270 H   0  0  0  0  0  0  0  0  0  0  0  0
   36.5260   27.3140   33.6400 H   0  0  0  0  0  0  0  0  0  0  0  0
   38.4500   23.1480   33.6000 C   0  0  0  0  0  3  0  0  0  0  0  0
   37.4720   22.6780   32.5910 C   0  0  0  0  0  2  0  0  0  0  0  0
   37.4510   22.0810   33.9540 C   0  0  0  0  0  2  0  0  0  0  0  0
  1  7  1  0  0  0  0
  2  1  1  0  0  0  0
  2  3  2  0  0  0  0
  3  4  1  0  0  0  0
  4  6  1  0  0  0  0
  4  5  2  0  0  0  0
  6 11  1  0  0  0  0
  7  8  2  0  0  0  0
  7  6  1  0  0  0  0
  9  2  1  0  0  0  0
 10  3  1  0  0  0  0
 12 13  1  0  0  0  0
 13 14  2  0  0  0  0
 13  1  1  0  0  0  0
 14 18  1  0  0  0  0
 15 14  1  0  0  0  0
 16 15  2  0  0  0  0
 17 16  1  0  0  0  0
 17 12  2  0  0  0  0
 19 16  1  0  0  0  0
 20 22  1  0  0  0  0
 20 12  1  0  0  0  0
 21 20  1  0  0  0  0
 21 22  1  0  0  0  0
M  END
>  <minimizedAffinity>
-4.61327934

$$$$

 OpenBabel03272507513D

 22 24  0  0  0  0  0  0  0  0999 V2000
   38.6150   23.1400   35.5110 N   0  0  0  0  0  0  0  0  0  0  0  0
   38.1690   22.3320   34.5150 C   0  0  0  0  0  0  0  0  0  0  0  0
   37.0710   21.4950   34.7620 C   0  0  0  0  0  0  0  0  0  0  0  0
   36.5580   21.5980   36.0350 C   0  0  0  0  0  0  0  0  0  0  0  0
   35.5630   20.8300   36.2370 O   0  0  0  0  0  0  0  0  0  0  0  0
   36.9850   22.3880   37.0240 N   0  0  0  0  0  0  0  0  0  0  0  0
   38.0450   23.1710   36.7320 C   0  0  0  0  0  0  0  0  0  0  0  0
   38.4580   23.9180   37.6500 O   0  0  0  0  0  0  0  0  0  0  0  0
   38.6410   22.3230   33.5440 H   0  0  0  0  0  0  0  0  0  0  0  0
   36.6920   20.8500   34.0130 H   0  0  0  0  0  0  0  0  0  0  0  0
   36.5190   22.3810   37.9480 H   0  0  0  0  0  0  0  0  0  0  0  0
   41.0220   23.4570   35.5150 C   0  0  0  0  0  0  0  0  0  0  0  0
   39.7320   24.0090   35.3120 C   0  0  0  0  0  0  0  0  0  0  0  0
   39.6520   25.3430   34.9370 C   0  0  0  0  0  0  0  0  0  0  0  0
   40.7910   26.0550   34.7820 N   0  0  0  0  0  0  0  0  0  0  0  0
   42.0070   25.5200   34.9780 C   0  0  0  0  0  0  0  0  0  0  0  0
   42.1240   24.2300   35.3410 N   0  0  0  0  0  0  0  0  0  0  0  0
   38.6490   25.7270   34.7920 H   0  0  0  0  0  0  0  0  0  0  0  0
   42.8630   26.1770   34.8270 H   0  0  0  0  0  0  0  0  0  0  0  0
   41.2190   22.0350   35.9190 C   0  0  0  0  0  3  0  0  0  0  0  0
   41.2750   21.7230   37.3670 C   0  0  0  0  0  2  0  0  0  0  0  0
   42.5360   21.7260   36.5760 C   0  0  0  0  0  2  0  0  0  0  0  0
  1  7  1  0  0  0  0
  2  3  2  0  0  0  0
  2  1  1  0  0  0  0
  3  4  1  0  0  0  0
  4  5  2  0  0  0  0
  4  6  1  0  0  0  0
  6 11  1  0  0  0  0
  7  6  1  0  0  0  0
  7  8  2  0  0  0  0
  9  2  1  0  0  0  0
 10  3  1  0  0  0  0
 12 20  1  0  0  0  0
 13  1  1  0  0  0  0
 13 12  2  0  0  0  0
 14 13  1  0  0  0  0
 15 14  2  0  0  0  0
 15 16  1  0  0  0  0
 16 17  2  0  0  0  0
 17 12  1  0  0  0  0
 18 14  1  0  0  0  0
 19 16  1  0  0  0  0
 20 22  1  0  0  0  0
 20 21  1  0  0  0  0
 22 21  1  0  0  0  0
M  END
>  <minimizedAffinity>
-4.41297674

$$$$

 OpenBabel03272507513D

 22 24  0  0  0  0  0  0  0  0999 V2000
   39.1590   23.0440   35.4040 N   0  0  0  0  0  0  0  0  0  0  0  0
   38.5640   22.4900   34.3160 C   0  0  0  0  0  0  0  0  0  0  0  0
   37.3940   21.7390   34.4930 C   0  0  0  0  0  0  0  0  0  0  0  0
   36.9720   21.6510   35.8000 C   0  0  0  0  0  0  0  0  0  0  0  0
   35.9080   20.9660   35.9380 O   0  0  0  0  0  0  0  0  0  0  0  0
   37.5450   22.1910   36.8790 N   0  0  0  0  0  0  0  0  0  0  0  0
   38.6700   22.9020   36.6510 C   0  0  0  0  0  0  0  0  0  0  0  0
   39.2200   23.4150   37.6540 O   0  0  0  0  0  0  0  0  0  0  0  0
   38.9740   22.6170   33.3250 H   0  0  0  0  0  0  0  0  0  0  0  0
   36.8990   21.2900   33.6710 H   0  0  0  0  0  0  0  0  0  0  0  0
   37.1360   22.0570   37.8210 H   0  0  0  0  0  0  0  0  0  0  0  0
   40.2050   25.2020   35.0240 C   0  0  0  0  0  0  0  0  0  0  0  0
   40.3560   23.8150   35.2770 C   0  0  0  0  0  0  0  0  0  0  0  0
   41.6460   23.3140   35.3820 C   0  0  0  0  0  0  0  0  0  0  0  0
   42.6950   24.1560   35.2400 N   0  0  0  0  0  0  0  0  0  0  0  0
   42.5380   25.4680   35.0010 C   0  0  0  0  0  0  0  0  0  0  0  0
   41.3020   25.9900   34.8930 N   0  0  0  0  0  0  0  0  0  0  0  0
   41.7190   22.2500   35.5750 H   0  0  0  0  0  0  0  0  0  0  0  0
   43.4460   26.0620   34.9030 H   0  0  0  0  0  0  0  0  0  0  0  0
   38.8640   25.8400   34.8930 C   0  0  0  0  0  3  0  0  0  0  0  0
   38.7870   27.3190   34.9400 C   0  0  0  0  0  2  0  0  0  0  0  0
   38.3550   26.5330   36.1270 C   0  0  0  0  0  2  0  0  0  0  0  0
  1  7  1  0  0  0  0
  2  3  2  0  0  0  0
  2  1  1  0  0  0  0
  3  4  1  0  0  0  0
  4  5  2  0  0  0  0
  4  6  1  0  0  0  0
  6 11  1  0  0  0  0
  7  6  1  0  0  0  0
  7  8  2  0  0  0  0
  9  2  1  0  0  0  0
 10  3  1  0  0  0  0
 12 13  1  0  0  0  0
 13 14  2  0  0  0  0
 13  1  1  0  0  0  0
 14 18  1  0  0  0  0
 15 14  1  0  0  0  0
 16 15  2  0  0  0  0
 17 16  1  0  0  0  0
 17 12  2  0  0  0  0
 19 16  1  0  0  0  0
 20 21  1  0  0  0  0
 20 12  1  0  0  0  0
 20 22  1  0  0  0  0
 21 22  1  0  0  0  0
M  END
>  <minimizedAffinity>
-4.41154003

$$$$

 OpenBabel03272507513D

 22 24  0  0  0  0  0  0  0  0999 V2000
   37.8270   26.4180   31.3160 N   0  0  0  0  0  0  0  0  0  0  0  0
   38.9470   27.0020   30.8180 C   0  0  0  0  0  0  0  0  0  0  0  0
   38.8140   28.0370   29.8820 C   0  0  0  0  0  0  0  0  0  0  0  0
   37.5100   28.3480   29.5670 C   0  0  0  0  0  0  0  0  0  0  0  0
   37.4120   29.2900   28.7160 O   0  0  0  0  0  0  0  0  0  0  0  0
   36.3990   27.7840   30.0480 N   0  0  0  0  0  0  0  0  0  0  0  0
   36.5870   26.7930   30.9450 C   0  0  0  0  0  0  0  0  0  0  0  0
   35.5530   26.2530   31.4060 O   0  0  0  0  0  0  0  0  0  0  0  0
   39.9320   26.6860   31.1290 H   0  0  0  0  0  0  0  0  0  0  0  0
   39.6620   28.5180   29.4690 H   0  0  0  0  0  0  0  0  0  0  0  0
   35.4650   28.1020   29.7370 H   0  0  0  0  0  0  0  0  0  0  0  0
   38.0740   25.7250   33.6290 C   0  0  0  0  0  0  0  0  0  0  0  0
   37.9090   25.3580   32.2690 C   0  0  0  0  0  0  0  0  0  0  0  0
   37.8420   24.0040   31.9700 C   0  0  0  0  0  0  0  0  0  0  0  0
   37.9350   23.1000   32.9710 N   0  0  0  0  0  0  0  0  0  0  0  0
   38.0900   23.4620   34.2560 C   0  0  0  0  0  0  0  0  0  0  0  0
   38.1590   24.7650   34.5840 N   0  0  0  0  0  0  0  0  0  0  0  0
   37.7170   23.7640   30.9200 H   0  0  0  0  0  0  0  0  0  0  0  0
   38.1540   22.6580   34.9880 H   0  0  0  0  0  0  0  0  0  0  0  0
   38.1580   27.1510   34.0580 C   0  0  0  0  0  3  0  0  0  0  0  0
   38.0230   27.4540   35.5020 C   0  0  0  0  0  2  0  0  0  0  0  0
   36.8820   27.7420   34.5910 C   0  0  0  0  0  2  0  0  0  0  0  0
  1 13  1  0  0  0  0
  2  9  1  0  0  0  0
  2  1  1  0  0  0  0
  3  2  2  0  0  0  0
  4  3  1  0  0  0  0
  4  6  1  0  0  0  0
  5  4  2  0  0  0  0
  6  7  1  0  0  0  0
  7  1  1  0  0  0  0
  7  8  2  0  0  0  0
 10  3  1  0  0  0  0
 11  6  1  0  0  0  0
 12 20  1  0  0  0  0
 12 17  1  0  0  0  0
 13 12  2  0  0  0  0
 14 13  1  0  0  0  0
 14 15  2  0  0  0  0
 15 16  1  0  0  0  0
 16 17  2  0  0  0  0
 16 19  1  0  0  0  0
 18 14  1  0  0  0  0
 20 22  1  0  0  0  0
 20 21  1  0  0  0  0
 22 21  1  0  0  0  0
M  END
>  <minimizedAffinity>
-4.37305927

$$$$

 OpenBabel03272507513D

 22 24  0  0  0  0  0  0  0  0999 V2000
   34.7640   29.5140   32.1890 N   0  0  0  0  0  0  0  0  0  0  0  0
   35.5840   28.4360   32.0920 C   0  0  0  0  0  0  0  0  0  0  0  0
   36.5450   28.4040   31.0710 C   0  0  0  0  0  0  0  0  0  0  0  0
   36.5390   29.5150   30.2570 C   0  0  0  0  0  0  0  0  0  0  0  0
   37.4180   29.4650   29.3380 O   0  0  0  0  0  0  0  0  0  0  0  0
   35.7400   30.5820   30.3400 N   0  0  0  0  0  0  0  0  0  0  0  0
   34.8340   30.5580   31.3410 C   0  0  0  0  0  0  0  0  0  0  0  0
   34.0760   31.5530   31.4320 O   0  0  0  0  0  0  0  0  0  0  0  0
   35.5110   27.6090   32.7830 H   0  0  0  0  0  0  0  0  0  0  0  0
   37.2030   27.5830   30.9610 H   0  0  0  0  0  0  0  0  0  0  0  0
   35.8270   31.3640   29.6680 H   0  0  0  0  0  0  0  0  0  0  0  0
   34.1650   30.1310   34.4590 C   0  0  0  0  0  0  0  0  0  0  0  0
   33.7670   29.5920   33.2090 C   0  0  0  0  0  0  0  0  0  0  0  0
   32.4470   29.1850   33.0730 C   0  0  0  0  0  0  0  0  0  0  0  0
   31.6030   29.3140   34.1220 N   0  0  0  0  0  0  0  0  0  0  0  0
   31.9940   29.8260   35.3010 C   0  0  0  0  0  0  0  0  0  0  0  0
   33.2650   30.2330   35.4700 N   0  0  0  0  0  0  0  0  0  0  0  0
   32.1820   28.7780   32.1030 H   0  0  0  0  0  0  0  0  0  0  0  0
   31.2390   29.8890   36.0840 H   0  0  0  0  0  0  0  0  0  0  0  0
   35.5590   30.5980   34.7100 C   0  0  0  0  0  3  0  0  0  0  0  0
   35.8150   31.4060   35.9260 C   0  0  0  0  0  2  0  0  0  0  0  0
   35.7720   32.0830   34.6010 C   0  0  0  0  0  2  0  0  0  0  0  0
  1 13  1  0  0  0  0
  2  1  1  0  0  0  0
  2  9  1  0  0  0  0
  3  2  2  0  0  0  0
  4  6  1  0  0  0  0
  4  3  1  0  0  0  0
  5  4  2  0  0  0  0
  6  7  1  0  0  0  0
  7  8  2  0  0  0  0
  7  1  1  0  0  0  0
 10  3  1  0  0  0  0
 11  6  1  0  0  0  0
 12 20  1  0  0  0  0
 12 17  1  0  0  0  0
 13 12  2  0  0  0  0
 14 13  1  0  0  0  0
 14 15  2  0  0  0  0
 15 16  1  0  0  0  0
 16 17  2  0  0  0  0
 16 19  1  0  0  0  0
 18 14  1  0  0  0  0
 20 21  1  0  0  0  0
 22 20  1  0  0  0  0
 22 21  1  0  0  0  0
M  END
>  <minimizedAffinity>
-4.34616137

$$$$

 OpenBabel03272507513D

 22 24  0  0  0  0  0  0  0  0999 V2000
   38.0390   25.9890   31.8560 N   0  0  0  0  0  0  0  0  0  0  0  0
   37.4880   24.7800   32.1350 C   0  0  0  0  0  0  0  0  0  0  0  0
   36.1990   24.4970   31.6610 C   0  0  0  0  0  0  0  0  0  0  0  0
   35.6250   25.5200   30.9410 C   0  0  0  0  0  0  0  0  0  0  0  0
   34.4560   25.2420   30.5210 O   0  0  0  0  0  0  0  0  0  0  0  0
   36.1540   26.7140   30.6580 N   0  0  0  0  0  0  0  0  0  0  0  0
   37.3960   26.9330   31.1400 C   0  0  0  0  0  0  0  0  0  0  0  0
   37.9070   28.0480   30.8820 O   0  0  0  0  0  0  0  0  0  0  0  0
   38.0210   24.0380   32.7110 H   0  0  0  0  0  0  0  0  0  0  0  0
   35.7330   23.5670   31.8570 H   0  0  0  0  0  0  0  0  0  0  0  0
   35.6270   27.4110   30.1040 H   0  0  0  0  0  0  0  0  0  0  0  0
   39.4490   26.8720   33.6250 C   0  0  0  0  0  0  0  0  0  0  0  0
   39.3480   26.3280   32.3190 C   0  0  0  0  0  0  0  0  0  0  0  0
   40.5200   26.1670   31.5940 C   0  0  0  0  0  0  0  0  0  0  0  0
   41.6980   26.5290   32.1510 N   0  0  0  0  0  0  0  0  0  0  0  0
   41.7790   27.0430   33.3900 C   0  0  0  0  0  0  0  0  0  0  0  0
   40.6640   27.2140   34.1230 N   0  0  0  0  0  0  0  0  0  0  0  0
   40.4010   25.7490   30.6000 H   0  0  0  0  0  0  0  0  0  0  0  0
   42.7750   27.3040   33.7490 H   0  0  0  0  0  0  0  0  0  0  0  0
   38.2510   27.0860   34.4860 C   0  0  0  0  0  3  0  0  0  0  0  0
   38.4690   27.3970   35.9190 C   0  0  0  0  0  2  0  0  0  0  0  0
   38.0120   26.0340   35.5340 C   0  0  0  0  0  2  0  0  0  0  0  0
  1  2  1  0  0  0  0
  1 13  1  0  0  0  0
  2  9  1  0  0  0  0
  3 10  1  0  0  0  0
  3  2  2  0  0  0  0
  4  3  1  0  0  0  0
  5  4  2  0  0  0  0
  6  4  1  0  0  0  0
  6  7  1  0  0  0  0
  7  1  1  0  0  0  0
  8  7  2  0  0  0  0
 11  6  1  0  0  0  0
 12 17  1  0  0  0  0
 12 20  1  0  0  0  0
 13 12  2  0  0  0  0
 14 15  2  0  0  0  0
 14 13  1  0  0  0  0
 15 16  1  0  0  0  0
 16 19  1  0  0  0  0
 16 17  2  0  0  0  0
 18 14  1  0  0  0  0
 20 22  1  0  0  0  0
 20 21  1  0  0  0  0
 22 21  1  0  0  0  0
M  END
>  <minimizedAffinity>
-4.33925056

$$$$

 OpenBabel03272507513D

 22 24  0  0  0  0  0  0  0  0999 V2000
   35.6940   28.1320   31.5460 N   0  0  0  0  0  0  0  0  0  0  0  0
   34.8260   28.7570   32.3820 C   0  0  0  0  0  0  0  0  0  0  0  0
   34.5810   30.1260   32.2040 C   0  0  0  0  0  0  0  0  0  0  0  0
   35.2790   30.6930   31.1620 C   0  0  0  0  0  0  0  0  0  0  0  0
   35.0420   31.9360   31.0190 O   0  0  0  0  0  0  0  0  0  0  0  0
   36.1350   30.0910   30.3310 N   0  0  0  0  0  0  0  0  0  0  0  0
   36.3330   28.7740   30.5490 C   0  0  0  0  0  0  0  0  0  0  0  0
   37.1340   28.1950   29.7770 O   0  0  0  0  0  0  0  0  0  0  0  0
   34.3250   28.2230   33.1750 H   0  0  0  0  0  0  0  0  0  0  0  0
   33.9120   30.6520   32.8350 H   0  0  0  0  0  0  0  0  0  0  0  0
   36.6050   30.6220   29.5770 H   0  0  0  0  0  0  0  0  0  0  0  0
   36.9920   26.3790   32.6140 C   0  0  0  0  0  0  0  0  0  0  0  0
   35.9800   26.7390   31.6870 C   0  0  0  0  0  0  0  0  0  0  0  0
   35.3490   25.7170   30.9920 C   0  0  0  0  0  0  0  0  0  0  0  0
   35.7160   24.4360   31.2210 N   0  0  0  0  0  0  0  0  0  0  0  0
   36.6760   24.1090   32.1020 C   0  0  0  0  0  0  0  0  0  0  0  0
   37.3100   25.0720   32.7950 N   0  0  0  0  0  0  0  0  0  0  0  0
   34.5820   26.0320   30.2930 H   0  0  0  0  0  0  0  0  0  0  0  0
   36.9000   23.0480   32.2140 H   0  0  0  0  0  0  0  0  0  0  0  0
   37.7310   27.3990   33.4110 C   0  0  0  0  0  3  0  0  0  0  0  0
   38.5970   26.9260   34.5170 C   0  0  0  0  0  2  0  0  0  0  0  0
   37.2850   27.5510   34.8390 C   0  0  0  0  0  2  0  0  0  0  0  0
  1 13  1  0  0  0  0
  1  2  1  0  0  0  0
  2  9  1  0  0  0  0
  3  2  2  0  0  0  0
  3 10  1  0  0  0  0
  4  3  1  0  0  0  0
  5  4  2  0  0  0  0
  6  7  1  0  0  0  0
  6  4  1  0  0  0  0
  7  1  1  0  0  0  0
  8  7  2  0  0  0  0
 11  6  1  0  0  0  0
 12 17  1  0  0  0  0
 12 20  1  0  0  0  0
 13 12  2  0  0  0  0
 14 15  2  0  0  0  0
 14 13  1  0  0  0  0
 15 16  1  0  0  0  0
 16 19  1  0  0  0  0
 16 17  2  0  0  0  0
 18 14  1  0  0  0  0
 20 21  1  0  0  0  0
 20 22  1  0  0  0  0
 21 22  1  0  0  0  0
M  END
>  <minimizedAffinity>
-4.33131361

$$$$
