
 OpenBabel03262520283D

 14 15  0  0  0  0  0  0  0  0999 V2000
   37.3580   30.3030   51.4230 C   0  0  0  0  0  0  0  0  0  0  0  0
   38.1640   30.8510   50.4080 C   0  0  0  0  0  0  0  0  0  0  0  0
   37.8600   30.4720   49.0880 C   0  0  0  0  0  0  0  0  0  0  0  0
   36.8300   29.6190   48.8680 N   0  0  0  0  0  0  0  0  0  0  0  0
   36.0890   29.1240   49.8760 C   0  0  0  0  0  0  0  0  0  0  0  0
   36.3490   29.4620   51.1390 N   0  0  0  0  0  0  0  0  0  0  0  0
   38.6710   31.0220   48.0600 N   0  0  0  0  0  0  0  0  0  0  0  0
   37.5580   30.5710   52.4680 H   0  0  0  0  0  0  0  0  0  0  0  0
   38.9650   31.5250   50.6820 H   0  0  0  0  0  0  0  0  0  0  0  0
   38.8540   32.0640   48.0010 H   0  0  0  0  0  0  0  0  0  0  0  0
   39.1730   30.5290   47.2660 H   0  0  0  0  0  0  0  0  0  0  0  0
   34.9660   28.1900   49.5880 C   0  0  0  0  0  0  0  0  0  0  0  0
   33.6190   28.8840   49.3070 C   0  0  0  0  0  0  0  0  0  0  0  0
   34.3580   28.1260   48.2460 C   0  0  0  0  0  0  0  0  0  0  0  0
  1  8  1  0  0  0  0
  2  9  1  0  0  0  0
  2  1  2  0  0  0  0
  3  2  1  0  0  0  0
  4  3  2  0  0  0  0
  4  5  1  0  0  0  0
  5  6  2  0  0  0  0
  6  1  1  0  0  0  0
  7  3  1  0  0  0  0
 10  7  1  0  0  0  0
 11  7  1  0  0  0  0
 12  5  1  0  0  0  0
 13 12  1  0  0  0  0
 14 13  1  0  0  0  0
 14 12  1  0  0  0  0
M  END
>  <minimizedAffinity>
-4.38090372

>  <minimizedRMSD>
0.212098241

$$$$
