
 OpenBabel03272509053D

 27 29  0  0  0  0  0  0  0  0999 V2000
   33.2440   27.4580   48.0750 C   0  0  0  0  0  0  0  0  0  0  0  0
   32.5170   28.1500   47.5740 H   0  0  0  0  0  0  0  0  0  0  0  0
   32.7780   26.9950   48.9590 H   0  0  0  0  0  0  0  0  0  0  0  0
   33.6780   26.4480   47.0550 C   0  0  0  0  0  0  0  0  0  0  0  0
   33.9300   25.1230   47.2960 C   0  0  0  0  0  0  0  0  0  0  0  0
   34.3230   24.2900   46.2750 C   0  0  0  0  0  0  0  0  0  0  0  0
   34.4790   24.7550   44.9770 C   0  0  0  0  0  0  0  0  0  0  0  0
   34.2300   26.0760   44.7280 C   0  0  0  0  0  0  0  0  0  0  0  0
   33.8360   26.9190   45.7400 C   0  0  0  0  0  0  0  0  0  0  0  0
   33.7820   24.8540   48.3330 H   0  0  0  0  0  0  0  0  0  0  0  0
   34.4940   23.2580   46.5860 H   0  0  0  0  0  0  0  0  0  0  0  0
   34.7910   23.9970   44.2790 H   0  0  0  0  0  0  0  0  0  0  0  0
   34.3610   26.4120   43.7010 H   0  0  0  0  0  0  0  0  0  0  0  0
   33.6640   27.9570   45.4270 H   0  0  0  0  0  0  0  0  0  0  0  0
   34.8410   28.3740   49.7460 C   0  0  0  0  0  3  0  0  0  0  0  0
   34.3540   28.2960   48.5400 C   0  0  0  0  0  3  0  0  0  0  0  0
   37.5400   30.2540   51.3710 C   0  0  0  0  0  0  0  0  0  0  0  0
   38.0200   31.0160   50.2690 C   0  0  0  0  0  0  0  0  0  0  0  0
   37.4090   30.8650   49.0070 C   0  0  0  0  0  0  0  0  0  0  0  0
   36.3810   29.9800   48.9390 N   0  0  0  0  0  0  0  0  0  0  0  0
   35.9550   29.2830   49.9890 C   0  0  0  0  0  0  0  0  0  0  0  0
   36.5300   29.4200   51.1890 N   0  0  0  0  0  0  0  0  0  0  0  0
   38.0500   30.4150   52.3110 H   0  0  0  0  0  0  0  0  0  0  0  0
   38.8290   31.6860   50.4070 H   0  0  0  0  0  0  0  0  0  0  0  0
   37.8790   31.6390   47.8390 C   0  0  0  0  0  3  0  0  0  0  0  0
   38.8770   30.9850   46.8930 C   0  0  0  0  0  2  0  0  0  0  0  0
   37.4780   31.2900   46.4770 C   0  0  0  0  0  2  0  0  0  0  0  0
  1 16  1  0  0  0  0
  1  3  1  0  0  0  0
  2  1  1  0  0  0  0
  4  5  1  0  0  0  0
  4  1  1  0  0  0  0
  5 10  1  0  0  0  0
  6 11  1  0  0  0  0
  6  5  2  0  0  0  0
  7  6  1  0  0  0  0
  8  7  2  0  0  0  0
  8  9  1  0  0  0  0
  9  4  2  0  0  0  0
 12  7  1  0  0  0  0
 13  8  1  0  0  0  0
 14  9  1  0  0  0  0
 15 21  1  0  0  0  0
 16 15  2  0  0  0  0
 17 23  1  0  0  0  0
 18 24  1  0  0  0  0
 18 17  2  0  0  0  0
 19 18  1  0  0  0  0
 20 19  2  0  0  0  0
 20 21  1  0  0  0  0
 21 22  2  0  0  0  0
 22 17  1  0  0  0  0
 25 19  1  0  0  0  0
 26 25  1  0  0  0  0
 27 26  1  0  0  0  0
 27 25  1  0  0  0  0
M  END
>  <minimizedAffinity>
-5.24484539

>  <minimizedRMSD>
0.470464855

$$$$
