
     RDKit          3D

 19 20  0  0  0  0  0  0  0  0999 V2000
   36.6315   29.7619   51.2732 C   0  0  0  0  0  0  0  0  0  0  0  0
   37.3748   30.1138   50.1367 C   0  0  0  0  0  0  0  0  0  0  0  0
   36.8042   29.7942   48.8798 C   0  0  0  0  0  0  0  0  0  0  0  0
   35.5918   29.1765   48.8431 N   0  0  0  0  0  0  0  0  0  0  0  0
   34.9335   28.8677   49.9692 C   0  0  0  0  0  0  0  0  0  0  0  0
   35.4194   29.1434   51.1969 N   0  0  0  0  0  0  0  0  0  0  0  0
   38.6328   30.7564   50.2461 N   0  0  0  0  0  0  0  0  0  0  0  0
   37.1087   30.0265   52.2091 H   0  0  0  0  0  0  0  0  0  0  0  0
   37.3305   30.0412   47.9835 H   0  0  0  0  0  0  0  0  0  0  0  0
   38.9736   31.5556   49.6838 H   0  0  0  0  0  0  0  0  0  0  0  0
   39.2810   30.3710   50.9811 H   0  0  0  0  0  0  0  0  0  0  0  0
   33.6104   28.1932   49.9166 C   0  0  0  0  0  0  0  0  0  0  0  0
   33.6093   26.8626   49.1391 C   0  0  0  0  0  0  0  0  0  0  0  0
   32.8663   28.1076   48.6371 C   0  0  0  0  0  0  0  0  0  0  0  0
   32.9931   28.1922   50.8599 H   0  0  0  0  0  0  0  0  0  0  0  0
   34.5063   26.5974   48.5654 H   0  0  0  0  0  0  0  0  0  0  0  0
   32.9611   26.0508   49.5482 H   0  0  0  0  0  0  0  0  0  0  0  0
   33.3230   28.6626   47.7843 H   0  0  0  0  0  0  0  0  0  0  0  0
   31.7686   28.0922   48.6074 H   0  0  0  0  0  0  0  0  0  0  0  0
  2  7  1  0
  2  1  2  0
  3  2  1  0
  4  3  2  0
  4  5  1  0
  5  6  2  0
  6  1  1  0
  1  8  1  0
  3  9  1  0
  7 10  1  0
  7 11  1  0
 12 13  1  0
 13 14  1  0
 14 12  1  0
 12 15  1  0
 13 16  1  0
 13 17  1  0
 14 18  1  0
 14 19  1  0
  5 12  1  0
M  ISO  2   8  14   9  14
M  END
>  <DihAtoms>  (1) 
3,4,11,12

>  <DihDeg>  (1) 
-138.71219213262495

$$$$
