
 OpenBabel03272508013D

 15 16  0  0  0  0  0  0  0  0999 V2000
   37.5790   30.9730   49.2290 C   0  0  0  0  0  0  0  0  0  0  0  0
   38.1460   32.2300   49.5820 C   0  0  0  0  0  0  0  0  0  0  0  0
   38.8950   32.8990   48.6030 C   0  0  0  0  0  0  0  0  0  0  0  0
   39.0320   32.3050   47.3820 N   0  0  0  0  0  0  0  0  0  0  0  0
   38.4800   31.1110   47.0830 C   0  0  0  0  0  0  0  0  0  0  0  0
   37.7630   30.4580   48.0020 N   0  0  0  0  0  0  0  0  0  0  0  0
   38.0100   32.6540   50.5500 H   0  0  0  0  0  0  0  0  0  0  0  0
   38.6170   30.6770   46.0960 H   0  0  0  0  0  0  0  0  0  0  0  0
   39.4980   34.2090   48.9370 C   0  0  0  0  0  0  0  0  0  0  0  0
   40.0040   34.0760   50.2120 F   0  0  0  0  0  0  0  0  0  0  0  0
   40.5220   34.5540   48.0840 F   0  0  0  0  0  0  0  0  0  0  0  0
   38.5560   35.2320   48.9430 F   0  0  0  0  0  0  0  0  0  0  0  0
   36.7870   30.2750   50.2790 C   0  0  0  0  0  0  0  0  0  0  0  0
   37.2530   30.1290   51.6530 C   0  0  0  0  0  0  0  0  0  0  0  0
   37.4290   28.9680   50.7210 C   0  0  0  0  0  0  0  0  0  0  0  0
  1  2  1  0  0  0  0
  1 13  1  0  0  0  0
  2  7  1  0  0  0  0
  3  9  1  0  0  0  0
  3  2  2  0  0  0  0
  4  3  1  0  0  0  0
  5  4  2  0  0  0  0
  5  6  1  0  0  0  0
  6  1  2  0  0  0  0
  8  5  1  0  0  0  0
  9 12  1  0  0  0  0
  9 10  1  0  0  0  0
 11  9  1  0  0  0  0
 13 15  1  0  0  0  0
 13 14  1  0  0  0  0
 15 14  1  0  0  0  0
M  END
>  <minimizedAffinity>
-5.03616858

>  <minimizedRMSD>
3.06020927

$$$$
