
 OpenBabel03272500403D

 19 21  0  0  1  0  0  0  0  0999 V2000
   37.2160   27.1940   32.9280 C   0  0  1  0  0  0  0  0  0  0  0  0
   36.4100   28.2820   33.4760 C   0  0  0  0  0  0  0  0  0  0  0  0
   36.9270   27.2250   34.4180 C   0  0  2  0  0  0  0  0  0  0  0  0
   38.2560   27.4030   32.6250 H   0  0  0  0  0  0  0  0  0  0  0  0
   36.7680   29.3130   33.5120 H   0  0  0  0  0  0  0  0  0  0  0  0
   35.2980   28.1760   33.3140 H   0  0  0  0  0  0  0  0  0  0  0  0
   36.2650   26.4690   34.8550 H   0  0  0  0  0  0  0  0  0  0  0  0
   36.5580   26.0410   32.2150 C   0  0  0  0  0  0  0  0  0  0  0  0
   37.1230   24.7680   32.3830 C   0  0  0  0  0  0  0  0  0  0  0  0
   36.5060   23.7380   31.6880 C   0  0  0  0  0  0  0  0  0  0  0  0
   35.4150   23.9880   30.8960 N   0  0  0  0  0  0  0  0  0  0  0  0
   34.9030   25.2480   30.7660 C   0  0  0  0  0  0  0  0  0  0  0  0
   35.4870   26.2810   31.4350 N   0  0  0  0  0  0  0  0  0  0  0  0
   37.9790   24.6590   33.0230 H   0  0  0  0  0  0  0  0  0  0  0  0
   36.9140   22.7490   31.7970 H   0  0  0  0  0  0  0  0  0  0  0  0
   34.0430   25.3670   30.1230 H   0  0  0  0  0  0  0  0  0  0  0  0
   38.0910   27.7010   35.2550 C   0  0  0  0  0  3  0  0  0  0  0  0
   39.3550   26.9360   35.2970 C   0  0  0  0  0  2  0  0  0  0  0  0
   38.4300   26.8910   36.4730 C   0  0  0  0  0  2  0  0  0  0  0  0
  1  4  1  6  0  0  0
  1  2  1  0  0  0  0
  1  3  1  0  0  0  0
  2  5  1  0  0  0  0
  2  3  1  0  0  0  0
  3  7  1  1  0  0  0
  3 17  1  0  0  0  0
  6  2  1  0  0  0  0
  8  9  1  0  0  0  0
  8  1  1  0  0  0  0
  9 14  1  0  0  0  0
 10 15  1  0  0  0  0
 10  9  2  0  0  0  0
 11 10  1  0  0  0  0
 12 11  2  0  0  0  0
 12 13  1  0  0  0  0
 13  8  2  0  0  0  0
 16 12  1  0  0  0  0
 17 18  1  0  0  0  0
 17 19  1  0  0  0  0
 18 19  1  0  0  0  0
M  END
>  <minimizedAffinity>
-3.98869348

$$$$

 OpenBabel03272500403D

 19 21  0  0  1  0  0  0  0  0999 V2000
   38.5370   25.9160   35.2360 C   0  0  1  0  0  0  0  0  0  0  0  0
   38.5200   27.3340   35.5880 C   0  0  0  0  0  0  0  0  0  0  0  0
   39.8000   26.7390   35.0580 C   0  0  2  0  0  0  0  0  0  0  0  0
   38.0280   25.5910   34.3130 H   0  0  0  0  0  0  0  0  0  0  0  0
   37.9460   28.0690   35.0210 H   0  0  0  0  0  0  0  0  0  0  0  0
   38.5970   27.5480   36.6930 H   0  0  0  0  0  0  0  0  0  0  0  0
   40.6610   26.5530   35.7080 H   0  0  0  0  0  0  0  0  0  0  0  0
   38.6550   24.8640   36.3090 C   0  0  0  0  0  0  0  0  0  0  0  0
   37.9080   25.0490   37.4820 C   0  0  0  0  0  0  0  0  0  0  0  0
   38.0660   24.0740   38.4560 C   0  0  0  0  0  0  0  0  0  0  0  0
   38.9060   23.0110   38.2490 N   0  0  0  0  0  0  0  0  0  0  0  0
   39.6110   22.8780   37.0870 C   0  0  0  0  0  0  0  0  0  0  0  0
   39.4800   23.8180   36.1110 N   0  0  0  0  0  0  0  0  0  0  0  0
   37.2730   25.9110   37.5640 H   0  0  0  0  0  0  0  0  0  0  0  0
   37.5060   24.1870   39.3680 H   0  0  0  0  0  0  0  0  0  0  0  0
   40.2550   22.0140   36.9960 H   0  0  0  0  0  0  0  0  0  0  0  0
   40.0780   27.1250   33.6240 C   0  0  0  0  0  3  0  0  0  0  0  0
   40.8690   26.2410   32.7430 C   0  0  0  0  0  2  0  0  0  0  0  0
   41.4940   27.4900   33.2800 C   0  0  0  0  0  2  0  0  0  0  0  0
  1  4  1  6  0  0  0
  1  2  1  0  0  0  0
  1  8  1  0  0  0  0
  2  6  1  0  0  0  0
  3  1  1  0  0  0  0
  3  2  1  0  0  0  0
  3  7  1  1  0  0  0
  5  2  1  0  0  0  0
  8  9  1  0  0  0  0
  9 14  1  0  0  0  0
  9 10  2  0  0  0  0
 10 15  1  0  0  0  0
 11 10  1  0  0  0  0
 12 11  2  0  0  0  0
 13  8  2  0  0  0  0
 13 12  1  0  0  0  0
 16 12  1  0  0  0  0
 17  3  1  0  0  0  0
 18 19  1  0  0  0  0
 18 17  1  0  0  0  0
 19 17  1  0  0  0  0
M  END
>  <minimizedAffinity>
-3.95152903

$$$$

 OpenBabel03272500403D

 19 21  0  0  1  0  0  0  0  0999 V2000
   38.4790   25.9540   35.2750 C   0  0  1  0  0  0  0  0  0  0  0  0
   38.4660   27.3810   35.5840 C   0  0  0  0  0  0  0  0  0  0  0  0
   39.7420   26.7680   35.0680 C   0  0  2  0  0  0  0  0  0  0  0  0
   37.9650   25.6020   34.3640 H   0  0  0  0  0  0  0  0  0  0  0  0
   37.8920   28.1010   34.9970 H   0  0  0  0  0  0  0  0  0  0  0  0
   38.5470   27.6290   36.6820 H   0  0  0  0  0  0  0  0  0  0  0  0
   40.6060   26.5990   35.7200 H   0  0  0  0  0  0  0  0  0  0  0  0
   38.5970   24.9340   36.3790 C   0  0  0  0  0  0  0  0  0  0  0  0
   39.3830   23.7980   36.1300 C   0  0  0  0  0  0  0  0  0  0  0  0
   39.4430   22.8710   37.1600 C   0  0  0  0  0  0  0  0  0  0  0  0
   38.7650   23.0860   38.3320 N   0  0  0  0  0  0  0  0  0  0  0  0
   38.0140   24.2100   38.5230 C   0  0  0  0  0  0  0  0  0  0  0  0
   37.9330   25.1400   37.5320 N   0  0  0  0  0  0  0  0  0  0  0  0
   39.8810   23.7080   35.1830 H   0  0  0  0  0  0  0  0  0  0  0  0
   40.0390   21.9890   37.0010 H   0  0  0  0  0  0  0  0  0  0  0  0
   37.5070   24.3090   39.4730 H   0  0  0  0  0  0  0  0  0  0  0  0
   40.0170   27.1100   33.6220 C   0  0  0  0  0  3  0  0  0  0  0  0
   40.8150   26.2050   32.7690 C   0  0  0  0  0  2  0  0  0  0  0  0
   41.4290   27.4770   33.2650 C   0  0  0  0  0  2  0  0  0  0  0  0
  1  4  1  6  0  0  0
  1  2  1  0  0  0  0
  1  8  1  0  0  0  0
  2  6  1  0  0  0  0
  3  1  1  0  0  0  0
  3  2  1  0  0  0  0
  3  7  1  1  0  0  0
  5  2  1  0  0  0  0
  8 13  1  0  0  0  0
  9  8  2  0  0  0  0
  9 10  1  0  0  0  0
 10 11  2  0  0  0  0
 11 12  1  0  0  0  0
 12 16  1  0  0  0  0
 13 12  2  0  0  0  0
 14  9  1  0  0  0  0
 15 10  1  0  0  0  0
 17  3  1  0  0  0  0
 18 19  1  0  0  0  0
 18 17  1  0  0  0  0
 19 17  1  0  0  0  0
M  END
>  <minimizedAffinity>
-3.93643045

$$$$

 OpenBabel03272500403D

 19 21  0  0  1  0  0  0  0  0999 V2000
   38.3870   26.1410   34.7450 C   0  0  1  0  0  0  0  0  0  0  0  0
   38.4350   26.9880   35.9350 C   0  0  0  0  0  0  0  0  0  0  0  0
   37.6800   25.6860   36.0080 C   0  0  2  0  0  0  0  0  0  0  0  0
   39.2900   25.5780   34.4570 H   0  0  0  0  0  0  0  0  0  0  0  0
   39.3560   27.1550   36.4950 H   0  0  0  0  0  0  0  0  0  0  0  0
   37.7290   27.8680   35.9180 H   0  0  0  0  0  0  0  0  0  0  0  0
   36.5850   25.6540   36.0320 H   0  0  0  0  0  0  0  0  0  0  0  0
   37.4430   26.4650   33.6150 C   0  0  0  0  0  0  0  0  0  0  0  0
   36.9610   27.7790   33.5300 C   0  0  0  0  0  0  0  0  0  0  0  0
   36.0730   28.0290   32.4930 C   0  0  0  0  0  0  0  0  0  0  0  0
   35.7150   27.0290   31.6260 N   0  0  0  0  0  0  0  0  0  0  0  0
   36.2150   25.7640   31.7530 C   0  0  0  0  0  0  0  0  0  0  0  0
   37.0880   25.4860   32.7610 N   0  0  0  0  0  0  0  0  0  0  0  0
   37.2920   28.5020   34.2510 H   0  0  0  0  0  0  0  0  0  0  0  0
   35.6850   29.0280   32.4000 H   0  0  0  0  0  0  0  0  0  0  0  0
   35.8850   25.0290   31.0330 H   0  0  0  0  0  0  0  0  0  0  0  0
   38.4260   24.6160   36.7720 C   0  0  0  0  0  3  0  0  0  0  0  0
   37.8110   23.2960   37.0200 C   0  0  0  0  0  2  0  0  0  0  0  0
   37.9170   24.2790   38.1440 C   0  0  0  0  0  2  0  0  0  0  0  0
  1  4  1  6  0  0  0
  1  2  1  0  0  0  0
  1  3  1  0  0  0  0
  2  3  1  0  0  0  0
  2  5  1  0  0  0  0
  3  7  1  1  0  0  0
  3 17  1  0  0  0  0
  6  2  1  0  0  0  0
  8  1  1  0  0  0  0
  9  8  1  0  0  0  0
  9 14  1  0  0  0  0
 10  9  2  0  0  0  0
 11 12  2  0  0  0  0
 11 10  1  0  0  0  0
 12 13  1  0  0  0  0
 13  8  2  0  0  0  0
 15 10  1  0  0  0  0
 16 12  1  0  0  0  0
 17 18  1  0  0  0  0
 17 19  1  0  0  0  0
 18 19  1  0  0  0  0
M  END
>  <minimizedAffinity>
-3.8938899

$$$$

 OpenBabel03272500403D

 19 21  0  0  1  0  0  0  0  0999 V2000
   37.9190   25.9110   35.5400 C   0  0  1  0  0  0  0  0  0  0  0  0
   38.2190   27.3110   35.8250 C   0  0  0  0  0  0  0  0  0  0  0  0
   38.9950   26.6160   34.7360 C   0  0  2  0  0  0  0  0  0  0  0  0
   36.9870   25.6650   35.0030 H   0  0  0  0  0  0  0  0  0  0  0  0
   37.5130   28.1150   35.6100 H   0  0  0  0  0  0  0  0  0  0  0  0
   38.8600   27.4810   36.7380 H   0  0  0  0  0  0  0  0  0  0  0  0
   40.0440   26.3290   34.8690 H   0  0  0  0  0  0  0  0  0  0  0  0
   38.4550   24.8170   36.4280 C   0  0  0  0  0  0  0  0  0  0  0  0
   39.4030   23.9420   35.8780 C   0  0  0  0  0  0  0  0  0  0  0  0
   39.8500   22.9330   36.7180 C   0  0  0  0  0  0  0  0  0  0  0  0
   39.3730   22.8310   38.0000 N   0  0  0  0  0  0  0  0  0  0  0  0
   38.4500   23.7110   38.4880 C   0  0  0  0  0  0  0  0  0  0  0  0
   37.9900   24.7120   37.6880 N   0  0  0  0  0  0  0  0  0  0  0  0
   39.7230   24.0920   34.8640 H   0  0  0  0  0  0  0  0  0  0  0  0
   40.5790   22.2450   36.3270 H   0  0  0  0  0  0  0  0  0  0  0  0
   38.1200   23.5660   39.5070 H   0  0  0  0  0  0  0  0  0  0  0  0
   38.5530   27.0210   33.3490 C   0  0  0  0  0  3  0  0  0  0  0  0
   38.6960   26.0930   32.2080 C   0  0  0  0  0  2  0  0  0  0  0  0
   39.6330   27.2540   32.3310 C   0  0  0  0  0  2  0  0  0  0  0  0
  1  4  1  6  0  0  0
  1  2  1  0  0  0  0
  1  8  1  0  0  0  0
  2  6  1  0  0  0  0
  3  7  1  1  0  0  0
  3  1  1  0  0  0  0
  3  2  1  0  0  0  0
  5  2  1  0  0  0  0
  8 13  1  0  0  0  0
  9  8  2  0  0  0  0
  9 10  1  0  0  0  0
 10 11  2  0  0  0  0
 11 12  1  0  0  0  0
 12 16  1  0  0  0  0
 13 12  2  0  0  0  0
 14  9  1  0  0  0  0
 15 10  1  0  0  0  0
 17  3  1  0  0  0  0
 18 19  1  0  0  0  0
 18 17  1  0  0  0  0
 19 17  1  0  0  0  0
M  END
>  <minimizedAffinity>
-3.7975781

$$$$

 OpenBabel03272500403D

 19 21  0  0  1  0  0  0  0  0999 V2000
   38.3430   23.7310   36.0440 C   0  0  1  0  0  0  0  0  0  0  0  0
   37.8400   24.3940   37.2450 C   0  0  0  0  0  0  0  0  0  0  0  0
   38.6000   25.2150   36.2350 C   0  0  2  0  0  0  0  0  0  0  0  0
   37.6290   23.4540   35.2500 H   0  0  0  0  0  0  0  0  0  0  0  0
   36.7740   24.5410   37.4260 H   0  0  0  0  0  0  0  0  0  0  0  0
   38.4550   24.2190   38.1740 H   0  0  0  0  0  0  0  0  0  0  0  0
   39.6190   25.5660   36.4270 H   0  0  0  0  0  0  0  0  0  0  0  0
   39.5960   22.8950   36.1000 C   0  0  0  0  0  0  0  0  0  0  0  0
   40.0570   22.5030   37.3660 C   0  0  0  0  0  0  0  0  0  0  0  0
   41.2280   21.7600   37.3770 C   0  0  0  0  0  0  0  0  0  0  0  0
   41.8650   21.4460   36.2050 N   0  0  0  0  0  0  0  0  0  0  0  0
   41.3740   21.8530   34.9970 C   0  0  0  0  0  0  0  0  0  0  0  0
   40.2270   22.5850   34.9510 N   0  0  0  0  0  0  0  0  0  0  0  0
   39.4970   22.7920   38.2360 H   0  0  0  0  0  0  0  0  0  0  0  0
   41.6070   21.4420   38.3320 H   0  0  0  0  0  0  0  0  0  0  0  0
   41.9330   21.5680   34.1160 H   0  0  0  0  0  0  0  0  0  0  0  0
   37.7020   26.1000   35.4020 C   0  0  0  0  0  3  0  0  0  0  0  0
   38.2410   26.8590   34.2540 C   0  0  0  0  0  2  0  0  0  0  0  0
   37.9090   27.5830   35.5210 C   0  0  0  0  0  2  0  0  0  0  0  0
  1  4  1  6  0  0  0
  1  8  1  0  0  0  0
  1  3  1  0  0  0  0
  1  2  1  0  0  0  0
  2  5  1  0  0  0  0
  2  6  1  0  0  0  0
  3  7  1  1  0  0  0
  3  2  1  0  0  0  0
  8  9  1  0  0  0  0
  9 10  2  0  0  0  0
  9 14  1  0  0  0  0
 10 15  1  0  0  0  0
 11 10  1  0  0  0  0
 12 11  2  0  0  0  0
 13 12  1  0  0  0  0
 13  8  2  0  0  0  0
 16 12  1  0  0  0  0
 17 19  1  0  0  0  0
 17  3  1  0  0  0  0
 18 17  1  0  0  0  0
 18 19  1  0  0  0  0
M  END
>  <minimizedAffinity>
-3.6171236

$$$$

 OpenBabel03272500403D

 19 21  0  0  1  0  0  0  0  0999 V2000
   35.7870   30.9380   35.2780 C   0  0  1  0  0  0  0  0  0  0  0  0
   36.3060   32.2720   35.5690 C   0  0  0  0  0  0  0  0  0  0  0  0
   34.8160   32.0520   35.6220 C   0  0  2  0  0  0  0  0  0  0  0  0
   35.9110   30.1430   36.0320 H   0  0  0  0  0  0  0  0  0  0  0  0
   36.8910   32.4880   36.4650 H   0  0  0  0  0  0  0  0  0  0  0  0
   36.5970   32.8750   34.6610 H   0  0  0  0  0  0  0  0  0  0  0  0
   34.1470   32.4430   34.8470 H   0  0  0  0  0  0  0  0  0  0  0  0
   35.6680   30.4590   33.8530 C   0  0  0  0  0  0  0  0  0  0  0  0
   35.3520   29.1070   33.6490 C   0  0  0  0  0  0  0  0  0  0  0  0
   35.2800   28.6990   32.3250 C   0  0  0  0  0  0  0  0  0  0  0  0
   35.5090   29.5900   31.3080 N   0  0  0  0  0  0  0  0  0  0  0  0
   35.8130   30.8970   31.5620 C   0  0  0  0  0  0  0  0  0  0  0  0
   35.8930   31.3290   32.8500 N   0  0  0  0  0  0  0  0  0  0  0  0
   35.1890   28.4760   34.5030 H   0  0  0  0  0  0  0  0  0  0  0  0
   35.0390   27.6680   32.1340 H   0  0  0  0  0  0  0  0  0  0  0  0
   35.9810   31.5390   30.7080 H   0  0  0  0  0  0  0  0  0  0  0  0
   34.2820   31.9800   37.0330 C   0  0  0  0  0  3  0  0  0  0  0  0
   32.9310   31.4450   37.3050 C   0  0  0  0  0  2  0  0  0  0  0  0
   33.1660   32.9210   37.3880 C   0  0  0  0  0  2  0  0  0  0  0  0
  1  2  1  0  0  0  0
  1  3  1  0  0  0  0
  1  4  1  1  0  0  0
  2  3  1  0  0  0  0
  2  5  1  0  0  0  0
  3  7  1  6  0  0  0
  3 17  1  0  0  0  0
  6  2  1  0  0  0  0
  8  1  1  0  0  0  0
  9  8  1  0  0  0  0
  9 14  1  0  0  0  0
 10  9  2  0  0  0  0
 11 12  2  0  0  0  0
 11 10  1  0  0  0  0
 12 13  1  0  0  0  0
 13  8  2  0  0  0  0
 15 10  1  0  0  0  0
 16 12  1  0  0  0  0
 17 18  1  0  0  0  0
 17 19  1  0  0  0  0
 18 19  1  0  0  0  0
M  END
>  <minimizedAffinity>
-3.55008149

$$$$

 OpenBabel03272500403D

 19 21  0  0  1  0  0  0  0  0999 V2000
   35.9630   29.4340   32.7680 C   0  0  1  0  0  0  0  0  0  0  0  0
   34.6110   29.9110   32.4850 C   0  0  0  0  0  0  0  0  0  0  0  0
   35.0540   29.8140   33.9220 C   0  0  2  0  0  0  0  0  0  0  0  0
   36.8150   30.1060   32.5710 H   0  0  0  0  0  0  0  0  0  0  0  0
   34.4200   30.8710   32.0020 H   0  0  0  0  0  0  0  0  0  0  0  0
   33.8670   29.1010   32.2320 H   0  0  0  0  0  0  0  0  0  0  0  0
   34.6770   29.0330   34.5910 H   0  0  0  0  0  0  0  0  0  0  0  0
   36.2800   27.9620   32.7150 C   0  0  0  0  0  0  0  0  0  0  0  0
   37.1380   27.4490   33.7000 C   0  0  0  0  0  0  0  0  0  0  0  0
   37.4280   26.0960   33.6000 C   0  0  0  0  0  0  0  0  0  0  0  0
   36.8910   25.3410   32.5900 N   0  0  0  0  0  0  0  0  0  0  0  0
   36.0600   25.8900   31.6550 C   0  0  0  0  0  0  0  0  0  0  0  0
   35.7560   27.2150   31.7250 N   0  0  0  0  0  0  0  0  0  0  0  0
   37.5160   28.1100   34.4570 H   0  0  0  0  0  0  0  0  0  0  0  0
   38.0820   25.6710   34.3410 H   0  0  0  0  0  0  0  0  0  0  0  0
   35.6760   25.2310   30.8890 H   0  0  0  0  0  0  0  0  0  0  0  0
   35.3730   31.1600   34.5310 C   0  0  0  0  0  3  0  0  0  0  0  0
   36.0700   31.2570   35.8310 C   0  0  0  0  0  2  0  0  0  0  0  0
   34.6040   31.5500   35.7610 C   0  0  0  0  0  2  0  0  0  0  0  0
  1  4  1  6  0  0  0
  1  3  1  0  0  0  0
  2  1  1  0  0  0  0
  2  3  1  0  0  0  0
  3 17  1  0  0  0  0
  3  7  1  1  0  0  0
  5  2  1  0  0  0  0
  6  2  1  0  0  0  0
  8  1  1  0  0  0  0
  8  9  1  0  0  0  0
  9 14  1  0  0  0  0
 10  9  2  0  0  0  0
 10 15  1  0  0  0  0
 11 10  1  0  0  0  0
 12 13  1  0  0  0  0
 12 11  2  0  0  0  0
 13  8  2  0  0  0  0
 16 12  1  0  0  0  0
 17 19  1  0  0  0  0
 17 18  1  0  0  0  0
 19 18  1  0  0  0  0
M  END
>  <minimizedAffinity>
-3.49564314

$$$$

 OpenBabel03272500403D

 19 21  0  0  1  0  0  0  0  0999 V2000
   37.6460   25.6810   32.5100 C   0  0  1  0  0  0  0  0  0  0  0  0
   36.7080   26.7980   32.5950 C   0  0  0  0  0  0  0  0  0  0  0  0
   37.3450   26.2940   33.8650 C   0  0  2  0  0  0  0  0  0  0  0  0
   38.6540   25.8640   32.1010 H   0  0  0  0  0  0  0  0  0  0  0  0
   36.9350   27.7840   32.1860 H   0  0  0  0  0  0  0  0  0  0  0  0
   35.6190   26.5060   32.5410 H   0  0  0  0  0  0  0  0  0  0  0  0
   36.7790   25.7170   34.6040 H   0  0  0  0  0  0  0  0  0  0  0  0
   37.1410   24.2680   32.3660 C   0  0  0  0  0  0  0  0  0  0  0  0
   36.0550   24.0530   31.5040 C   0  0  0  0  0  0  0  0  0  0  0  0
   35.6020   22.7450   31.4220 C   0  0  0  0  0  0  0  0  0  0  0  0
   36.2040   21.7520   32.1500 N   0  0  0  0  0  0  0  0  0  0  0  0
   37.2600   22.0150   32.9760 C   0  0  0  0  0  0  0  0  0  0  0  0
   37.7280   23.2890   33.0800 N   0  0  0  0  0  0  0  0  0  0  0  0
   35.6420   24.8880   30.9700 H   0  0  0  0  0  0  0  0  0  0  0  0
   34.7710   22.5460   30.7680 H   0  0  0  0  0  0  0  0  0  0  0  0
   37.6810   21.1800   33.5190 H   0  0  0  0  0  0  0  0  0  0  0  0
   38.4360   27.2050   34.3770 C   0  0  0  0  0  3  0  0  0  0  0  0
   39.5680   26.6650   35.1590 C   0  0  0  0  0  2  0  0  0  0  0  0
   38.4910   27.4330   35.8610 C   0  0  0  0  0  2  0  0  0  0  0  0
  1  4  1  6  0  0  0
  1  2  1  0  0  0  0
  1  3  1  0  0  0  0
  2  3  1  0  0  0  0
  3 17  1  0  0  0  0
  3  7  1  1  0  0  0
  5  2  1  0  0  0  0
  6  2  1  0  0  0  0
  8  1  1  0  0  0  0
  8 13  1  0  0  0  0
  9  8  2  0  0  0  0
 10  9  1  0  0  0  0
 10 11  2  0  0  0  0
 11 12  1  0  0  0  0
 12 13  2  0  0  0  0
 12 16  1  0  0  0  0
 14  9  1  0  0  0  0
 15 10  1  0  0  0  0
 17 18  1  0  0  0  0
 17 19  1  0  0  0  0
 18 19  1  0  0  0  0
M  END
>  <minimizedAffinity>
-3.49546003

$$$$
