
 OpenBabel03272507083D

 33 37  0  0  0  0  0  0  0  0999 V2000
   36.7230   28.3890   31.6690 C   0  0  0  0  0  0  0  0  0  0  0  0
   37.5150   27.3680   32.2240 C   0  0  0  0  0  0  0  0  0  0  0  0
   37.4520   27.2200   33.6250 C   0  0  0  0  0  0  0  0  0  0  0  0
   36.6600   28.0390   34.3600 N   0  0  0  0  0  0  0  0  0  0  0  0
   35.9190   29.0090   33.7570 C   0  0  0  0  0  0  0  0  0  0  0  0
   35.9440   29.1900   32.4290 N   0  0  0  0  0  0  0  0  0  0  0  0
   36.7700   28.5010   30.6120 H   0  0  0  0  0  0  0  0  0  0  0  0
   38.1430   26.7120   31.6780 H   0  0  0  0  0  0  0  0  0  0  0  0
   33.7190   29.6340   34.6580 C   0  0  0  0  0  0  0  0  0  0  0  0
   35.0840   29.8580   34.6180 C   0  0  0  0  0  0  0  0  0  0  0  0
   35.6360   30.8550   35.3700 C   0  0  0  0  0  0  0  0  0  0  0  0
   34.8640   31.6520   36.1770 C   0  0  0  0  0  0  0  0  0  0  0  0
   35.1610   32.6860   37.0060 N   0  0  0  0  0  0  0  0  0  0  0  0
   33.9580   33.0530   37.5200 C   0  0  0  0  0  0  0  0  0  0  0  0
   32.9770   32.2880   37.0350 N   0  0  0  0  0  0  0  0  0  0  0  0
   33.5090   31.3910   36.1850 C   0  0  0  0  0  0  0  0  0  0  0  0
   32.9080   30.4130   35.4560 C   0  0  0  0  0  0  0  0  0  0  0  0
   33.2220   28.8530   34.0780 H   0  0  0  0  0  0  0  0  0  0  0  0
   36.6990   31.0180   35.3310 H   0  0  0  0  0  0  0  0  0  0  0  0
   36.1200   33.0820   37.1810 H   0  0  0  0  0  0  0  0  0  0  0  0
   33.9060   33.8810   38.2320 H   0  0  0  0  0  0  0  0  0  0  0  0
   31.8440   30.2350   35.4840 H   0  0  0  0  0  0  0  0  0  0  0  0
   38.2010   26.2200   34.3610 C   0  0  0  0  0  0  0  0  0  0  0  0
   39.4760   25.8280   34.0500 C   0  0  0  0  0  0  0  0  0  0  0  0
   40.2110   24.8800   34.7350 C   0  0  0  0  0  0  0  0  0  0  0  0
   39.6110   24.3070   35.7880 N   0  0  0  0  0  0  0  0  0  0  0  0
   38.3770   24.6580   36.1240 C   0  0  0  0  0  0  0  0  0  0  0  0
   37.7070   25.5700   35.4440 N   0  0  0  0  0  0  0  0  0  0  0  0
   39.9750   26.2890   33.1910 H   0  0  0  0  0  0  0  0  0  0  0  0
   41.2150   24.6350   34.4110 H   0  0  0  0  0  0  0  0  0  0  0  0
   37.6520   24.0530   37.2940 C   0  0  0  0  0  3  0  0  0  0  0  0
   37.9670   24.7340   38.6620 C   0  0  0  0  0  2  0  0  0  0  0  0
   38.4170   23.3400   38.3360 C   0  0  0  0  0  2  0  0  0  0  0  0
  1  2  2  0  0  0  0
  1  6  1  0  0  0  0
  2  3  1  0  0  0  0
  3  4  2  0  0  0  0
  3 23  1  0  0  0  0
  5  4  1  0  0  0  0
  5 10  1  0  0  0  0
  6  5  2  0  0  0  0
  7  1  1  0  0  0  0
  8  2  1  0  0  0  0
  9 17  1  0  0  0  0
 10  9  2  0  0  0  0
 10 11  1  0  0  0  0
 11 12  2  0  0  0  0
 12 16  1  0  0  0  0
 12 13  1  0  0  0  0
 13 20  1  0  0  0  0
 13 14  1  0  0  0  0
 14 21  1  0  0  0  0
 15 14  2  0  0  0  0
 16 15  1  0  0  0  0
 17 22  1  0  0  0  0
 17 16  2  0  0  0  0
 18  9  1  0  0  0  0
 19 11  1  0  0  0  0
 23 28  1  0  0  0  0
 24 23  2  0  0  0  0
 24 25  1  0  0  0  0
 25 26  2  0  0  0  0
 26 27  1  0  0  0  0
 27 31  1  0  0  0  0
 28 27  2  0  0  0  0
 29 24  1  0  0  0  0
 30 25  1  0  0  0  0
 31 33  1  0  0  0  0
 31 32  1  0  0  0  0
 33 32  1  0  0  0  0
M  END
>  <minimizedAffinity>
-6.34939098

$$$$

 OpenBabel03272507083D

 33 37  0  0  0  0  0  0  0  0999 V2000
   37.2400   27.6700   31.7810 C   0  0  0  0  0  0  0  0  0  0  0  0
   36.3910   28.6700   32.2880 C   0  0  0  0  0  0  0  0  0  0  0  0
   36.1230   28.6190   33.6710 C   0  0  0  0  0  0  0  0  0  0  0  0
   36.6730   27.6440   34.4350 N   0  0  0  0  0  0  0  0  0  0  0  0
   37.4870   26.7060   33.8790 C   0  0  0  0  0  0  0  0  0  0  0  0
   37.7730   26.7100   32.5690 N   0  0  0  0  0  0  0  0  0  0  0  0
   37.4430   27.7070   30.7370 H   0  0  0  0  0  0  0  0  0  0  0  0
   35.9460   29.4450   31.7180 H   0  0  0  0  0  0  0  0  0  0  0  0
   38.9760   24.7880   34.2620 C   0  0  0  0  0  0  0  0  0  0  0  0
   38.0470   25.6790   34.7690 C   0  0  0  0  0  0  0  0  0  0  0  0
   37.6650   25.5990   36.0770 C   0  0  0  0  0  0  0  0  0  0  0  0
   38.1830   24.6440   36.9150 C   0  0  0  0  0  0  0  0  0  0  0  0
   37.9750   24.3580   38.2260 N   0  0  0  0  0  0  0  0  0  0  0  0
   38.7880   23.2970   38.4660 C   0  0  0  0  0  0  0  0  0  0  0  0
   39.4600   22.9500   37.3660 N   0  0  0  0  0  0  0  0  0  0  0  0
   39.1060   23.7770   36.3650 C   0  0  0  0  0  0  0  0  0  0  0  0
   39.5210   23.8120   35.0700 C   0  0  0  0  0  0  0  0  0  0  0  0
   39.3190   24.8040   33.2240 H   0  0  0  0  0  0  0  0  0  0  0  0
   36.9430   26.2990   36.4590 H   0  0  0  0  0  0  0  0  0  0  0  0
   37.3210   24.8680   38.8740 H   0  0  0  0  0  0  0  0  0  0  0  0
   38.8180   22.8550   39.4660 H   0  0  0  0  0  0  0  0  0  0  0  0
   40.2440   23.1190   34.6710 H   0  0  0  0  0  0  0  0  0  0  0  0
   35.2710   29.5700   34.3590 C   0  0  0  0  0  0  0  0  0  0  0  0
   33.9180   29.4200   34.5150 C   0  0  0  0  0  0  0  0  0  0  0  0
   33.0850   30.3100   35.1650 C   0  0  0  0  0  0  0  0  0  0  0  0
   33.6660   31.4030   35.6810 N   0  0  0  0  0  0  0  0  0  0  0  0
   34.9720   31.5860   35.5530 C   0  0  0  0  0  0  0  0  0  0  0  0
   35.7350   30.7130   34.9240 N   0  0  0  0  0  0  0  0  0  0  0  0
   33.4340   28.5320   34.0970 H   0  0  0  0  0  0  0  0  0  0  0  0
   32.0230   30.1050   35.2370 H   0  0  0  0  0  0  0  0  0  0  0  0
   35.6810   32.7900   36.1090 C   0  0  0  0  0  3  0  0  0  0  0  0
   35.5330   34.0760   35.2380 C   0  0  0  0  0  2  0  0  0  0  0  0
   36.8380   33.3520   35.3860 C   0  0  0  0  0  2  0  0  0  0  0  0
  1  2  2  0  0  0  0
  1  6  1  0  0  0  0
  2  3  1  0  0  0  0
  3 23  1  0  0  0  0
  3  4  2  0  0  0  0
  5  4  1  0  0  0  0
  5 10  1  0  0  0  0
  6  5  2  0  0  0  0
  7  1  1  0  0  0  0
  8  2  1  0  0  0  0
  9 10  2  0  0  0  0
  9 17  1  0  0  0  0
 10 11  1  0  0  0  0
 11 19  1  0  0  0  0
 11 12  2  0  0  0  0
 12 13  1  0  0  0  0
 13 14  1  0  0  0  0
 13 20  1  0  0  0  0
 14 21  1  0  0  0  0
 15 14  2  0  0  0  0
 16 12  1  0  0  0  0
 16 15  1  0  0  0  0
 17 16  2  0  0  0  0
 18  9  1  0  0  0  0
 22 17  1  0  0  0  0
 23 24  2  0  0  0  0
 23 28  1  0  0  0  0
 24 25  1  0  0  0  0
 25 30  1  0  0  0  0
 25 26  2  0  0  0  0
 27 26  1  0  0  0  0
 27 31  1  0  0  0  0
 28 27  2  0  0  0  0
 29 24  1  0  0  0  0
 32 33  1  0  0  0  0
 32 31  1  0  0  0  0
 33 31  1  0  0  0  0
M  END
>  <minimizedAffinity>
-6.03767967

$$$$

 OpenBabel03272507083D

 33 37  0  0  0  0  0  0  0  0999 V2000
   38.2810   23.8130   38.3410 C   0  0  0  0  0  0  0  0  0  0  0  0
   37.7030   24.6510   37.3700 C   0  0  0  0  0  0  0  0  0  0  0  0
   38.2820   24.6090   36.0840 C   0  0  0  0  0  0  0  0  0  0  0  0
   39.3360   23.7930   35.8390 N   0  0  0  0  0  0  0  0  0  0  0  0
   39.8460   23.0060   36.8270 C   0  0  0  0  0  0  0  0  0  0  0  0
   39.3320   23.0100   38.0650 N   0  0  0  0  0  0  0  0  0  0  0  0
   37.8450   23.8440   39.3100 H   0  0  0  0  0  0  0  0  0  0  0  0
   36.8810   25.3000   37.5290 H   0  0  0  0  0  0  0  0  0  0  0  0
   41.5840   22.2840   35.2460 C   0  0  0  0  0  0  0  0  0  0  0  0
   40.9880   22.1470   36.4870 C   0  0  0  0  0  0  0  0  0  0  0  0
   41.4620   21.2240   37.3750 C   0  0  0  0  0  0  0  0  0  0  0  0
   42.5290   20.4190   37.0670 C   0  0  0  0  0  0  0  0  0  0  0  0
   43.1780   19.4460   37.7570 N   0  0  0  0  0  0  0  0  0  0  0  0
   44.1480   19.0270   36.9040 C   0  0  0  0  0  0  0  0  0  0  0  0
   44.0990   19.7030   35.7540 N   0  0  0  0  0  0  0  0  0  0  0  0
   43.0910   20.5910   35.8190 C   0  0  0  0  0  0  0  0  0  0  0  0
   42.6580   21.4930   34.8960 C   0  0  0  0  0  0  0  0  0  0  0  0
   41.2480   23.0030   34.4950 H   0  0  0  0  0  0  0  0  0  0  0  0
   40.9910   21.1290   38.3370 H   0  0  0  0  0  0  0  0  0  0  0  0
   42.9490   19.1210   38.7310 H   0  0  0  0  0  0  0  0  0  0  0  0
   44.8320   18.2320   37.2130 H   0  0  0  0  0  0  0  0  0  0  0  0
   43.1200   21.6030   33.9280 H   0  0  0  0  0  0  0  0  0  0  0  0
   37.8130   25.4060   34.9670 C   0  0  0  0  0  0  0  0  0  0  0  0
   37.6130   26.7610   35.0160 C   0  0  0  0  0  0  0  0  0  0  0  0
   37.1690   27.5410   33.9670 C   0  0  0  0  0  0  0  0  0  0  0  0
   36.9190   26.9050   32.8140 N   0  0  0  0  0  0  0  0  0  0  0  0
   37.0990   25.5950   32.7230 C   0  0  0  0  0  0  0  0  0  0  0  0
   37.5260   24.8820   33.7490 N   0  0  0  0  0  0  0  0  0  0  0  0
   37.8140   27.2900   35.9530 H   0  0  0  0  0  0  0  0  0  0  0  0
   37.0400   28.6090   34.1030 H   0  0  0  0  0  0  0  0  0  0  0  0
   36.8370   24.8250   31.4580 C   0  0  0  0  0  3  0  0  0  0  0  0
   35.3250   24.6620   31.1130 C   0  0  0  0  0  2  0  0  0  0  0  0
   36.1810   23.5050   31.5320 C   0  0  0  0  0  2  0  0  0  0  0  0
  1  7  1  0  0  0  0
  2  8  1  0  0  0  0
  2  1  2  0  0  0  0
  3  2  1  0  0  0  0
  4  3  2  0  0  0  0
  4  5  1  0  0  0  0
  5  6  2  0  0  0  0
  6  1  1  0  0  0  0
  9 10  1  0  0  0  0
 10  5  1  0  0  0  0
 10 11  2  0  0  0  0
 11 19  1  0  0  0  0
 12 11  1  0  0  0  0
 12 13  1  0  0  0  0
 13 20  1  0  0  0  0
 14 21  1  0  0  0  0
 14 13  1  0  0  0  0
 15 16  1  0  0  0  0
 15 14  2  0  0  0  0
 16 12  2  0  0  0  0
 17  9  2  0  0  0  0
 17 16  1  0  0  0  0
 18  9  1  0  0  0  0
 22 17  1  0  0  0  0
 23 24  1  0  0  0  0
 23  3  1  0  0  0  0
 24 29  1  0  0  0  0
 25 30  1  0  0  0  0
 25 24  2  0  0  0  0
 26 25  1  0  0  0  0
 27 26  2  0  0  0  0
 27 28  1  0  0  0  0
 28 23  2  0  0  0  0
 31 33  1  0  0  0  0
 31 27  1  0  0  0  0
 32 31  1  0  0  0  0
 32 33  1  0  0  0  0
M  END
>  <minimizedAffinity>
-6.00437355

$$$$

 OpenBabel03272507083D

 33 37  0  0  0  0  0  0  0  0999 V2000
   37.0190   27.9200   31.8790 C   0  0  0  0  0  0  0  0  0  0  0  0
   36.2470   28.9300   32.4800 C   0  0  0  0  0  0  0  0  0  0  0  0
   36.0690   28.8330   33.8750 C   0  0  0  0  0  0  0  0  0  0  0  0
   36.6270   27.8070   34.5620 N   0  0  0  0  0  0  0  0  0  0  0  0
   37.3640   26.8620   33.9160 C   0  0  0  0  0  0  0  0  0  0  0  0
   37.5630   26.9090   32.5920 N   0  0  0  0  0  0  0  0  0  0  0  0
   37.1540   27.9930   30.8260 H   0  0  0  0  0  0  0  0  0  0  0  0
   35.7980   29.7450   31.9720 H   0  0  0  0  0  0  0  0  0  0  0  0
   38.7750   24.8600   34.1190 C   0  0  0  0  0  0  0  0  0  0  0  0
   37.9390   25.7790   34.7270 C   0  0  0  0  0  0  0  0  0  0  0  0
   37.6590   25.6730   36.0590 C   0  0  0  0  0  0  0  0  0  0  0  0
   38.1910   24.6650   36.8220 C   0  0  0  0  0  0  0  0  0  0  0  0
   38.0740   24.3450   38.1370 N   0  0  0  0  0  0  0  0  0  0  0  0
   38.8470   23.2370   38.2770 C   0  0  0  0  0  0  0  0  0  0  0  0
   39.4090   22.8950   37.1160 N   0  0  0  0  0  0  0  0  0  0  0  0
   39.0200   23.7730   36.1730 C   0  0  0  0  0  0  0  0  0  0  0  0
   39.3320   23.8320   34.8510 C   0  0  0  0  0  0  0  0  0  0  0  0
   39.0350   24.8940   33.0580 H   0  0  0  0  0  0  0  0  0  0  0  0
   37.0080   26.3940   36.5190 H   0  0  0  0  0  0  0  0  0  0  0  0
   37.5020   24.8650   38.8510 H   0  0  0  0  0  0  0  0  0  0  0  0
   38.9330   22.7610   39.2580 H   0  0  0  0  0  0  0  0  0  0  0  0
   39.9830   23.1170   34.3730 H   0  0  0  0  0  0  0  0  0  0  0  0
   35.3030   29.7870   34.6550 C   0  0  0  0  0  0  0  0  0  0  0  0
   35.8460   30.8600   35.3110 C   0  0  0  0  0  0  0  0  0  0  0  0
   35.1390   31.7810   36.0580 C   0  0  0  0  0  0  0  0  0  0  0  0
   33.8140   31.5940   36.1370 N   0  0  0  0  0  0  0  0  0  0  0  0
   33.2480   30.5690   35.5180 C   0  0  0  0  0  0  0  0  0  0  0  0
   33.9570   29.7090   34.8110 N   0  0  0  0  0  0  0  0  0  0  0  0
   36.9270   31.0210   35.2530 H   0  0  0  0  0  0  0  0  0  0  0  0
   35.6590   32.5990   36.5420 H   0  0  0  0  0  0  0  0  0  0  0  0
   31.7670   30.3060   35.5680 C   0  0  0  0  0  3  0  0  0  0  0  0
   31.3010   29.5210   36.8320 C   0  0  0  0  0  2  0  0  0  0  0  0
   31.2690   28.9220   35.4580 C   0  0  0  0  0  2  0  0  0  0  0  0
  1  2  2  0  0  0  0
  1  6  1  0  0  0  0
  2  3  1  0  0  0  0
  3  4  2  0  0  0  0
  3 23  1  0  0  0  0
  5  4  1  0  0  0  0
  5 10  1  0  0  0  0
  6  5  2  0  0  0  0
  7  1  1  0  0  0  0
  8  2  1  0  0  0  0
  9 10  2  0  0  0  0
  9 17  1  0  0  0  0
 10 11  1  0  0  0  0
 11 19  1  0  0  0  0
 11 12  2  0  0  0  0
 12 13  1  0  0  0  0
 13 14  1  0  0  0  0
 13 20  1  0  0  0  0
 14 21  1  0  0  0  0
 15 14  2  0  0  0  0
 16 12  1  0  0  0  0
 16 15  1  0  0  0  0
 17 16  2  0  0  0  0
 18  9  1  0  0  0  0
 22 17  1  0  0  0  0
 23 28  2  0  0  0  0
 23 24  1  0  0  0  0
 24 25  2  0  0  0  0
 25 26  1  0  0  0  0
 25 30  1  0  0  0  0
 27 31  1  0  0  0  0
 27 26  2  0  0  0  0
 28 27  1  0  0  0  0
 29 24  1  0  0  0  0
 31 32  1  0  0  0  0
 33 31  1  0  0  0  0
 33 32  1  0  0  0  0
M  END
>  <minimizedAffinity>
-5.98699427

$$$$

 OpenBabel03272507083D

 33 37  0  0  0  0  0  0  0  0999 V2000
   35.8140   24.7530   31.1370 C   0  0  0  0  0  0  0  0  0  0  0  0
   36.6870   24.1620   32.0690 C   0  0  0  0  0  0  0  0  0  0  0  0
   37.3720   25.0440   32.9300 C   0  0  0  0  0  0  0  0  0  0  0  0
   37.1720   26.3810   32.8320 N   0  0  0  0  0  0  0  0  0  0  0  0
   36.3120   26.8870   31.9060 C   0  0  0  0  0  0  0  0  0  0  0  0
   35.6370   26.0910   31.0650 N   0  0  0  0  0  0  0  0  0  0  0  0
   35.2970   24.0890   30.4880 H   0  0  0  0  0  0  0  0  0  0  0  0
   36.8640   23.1220   32.1710 H   0  0  0  0  0  0  0  0  0  0  0  0
   35.8330   29.0220   33.0250 C   0  0  0  0  0  0  0  0  0  0  0  0
   36.1470   28.3460   31.8590 C   0  0  0  0  0  0  0  0  0  0  0  0
   36.2990   29.0340   30.6890 C   0  0  0  0  0  0  0  0  0  0  0  0
   36.1470   30.3960   30.6370 C   0  0  0  0  0  0  0  0  0  0  0  0
   36.2430   31.2950   29.6230 N   0  0  0  0  0  0  0  0  0  0  0  0
   35.9820   32.4890   30.2160 C   0  0  0  0  0  0  0  0  0  0  0  0
   35.7390   32.3350   31.5190 N   0  0  0  0  0  0  0  0  0  0  0  0
   35.8350   31.0270   31.8230 C   0  0  0  0  0  0  0  0  0  0  0  0
   35.6720   30.3920   33.0150 C   0  0  0  0  0  0  0  0  0  0  0  0
   35.6990   28.5260   33.9890 H   0  0  0  0  0  0  0  0  0  0  0  0
   36.5440   28.4960   29.7900 H   0  0  0  0  0  0  0  0  0  0  0  0
   36.4710   31.0740   28.6200 H   0  0  0  0  0  0  0  0  0  0  0  0
   35.9930   33.4030   29.6150 H   0  0  0  0  0  0  0  0  0  0  0  0
   35.4270   30.9150   33.9260 H   0  0  0  0  0  0  0  0  0  0  0  0
   38.3070   24.6070   33.9480 C   0  0  0  0  0  0  0  0  0  0  0  0
   39.6680   24.5920   33.7900 C   0  0  0  0  0  0  0  0  0  0  0  0
   40.5790   24.1810   34.7430 C   0  0  0  0  0  0  0  0  0  0  0  0
   40.0730   23.7670   35.9130 N   0  0  0  0  0  0  0  0  0  0  0  0
   38.7620   23.7650   36.1080 C   0  0  0  0  0  0  0  0  0  0  0  0
   37.9220   24.1660   35.1720 N   0  0  0  0  0  0  0  0  0  0  0  0
   40.0910   24.9280   32.8380 H   0  0  0  0  0  0  0  0  0  0  0  0
   41.6400   24.2060   34.5240 H   0  0  0  0  0  0  0  0  0  0  0  0
   38.1340   23.3120   37.3970 C   0  0  0  0  0  3  0  0  0  0  0  0
   37.9450   24.4490   38.4490 C   0  0  0  0  0  2  0  0  0  0  0  0
   38.9290   23.3330   38.6410 C   0  0  0  0  0  2  0  0  0  0  0  0
  1  2  1  0  0  0  0
  2  8  1  0  0  0  0
  2  3  2  0  0  0  0
  3 23  1  0  0  0  0
  4  3  1  0  0  0  0
  5  4  2  0  0  0  0
  6  1  2  0  0  0  0
  6  5  1  0  0  0  0
  7  1  1  0  0  0  0
  9 18  1  0  0  0  0
 10  5  1  0  0  0  0
 10  9  2  0  0  0  0
 11 10  1  0  0  0  0
 12 11  2  0  0  0  0
 12 16  1  0  0  0  0
 13 14  1  0  0  0  0
 13 12  1  0  0  0  0
 14 15  2  0  0  0  0
 15 16  1  0  0  0  0
 16 17  2  0  0  0  0
 17  9  1  0  0  0  0
 17 22  1  0  0  0  0
 19 11  1  0  0  0  0
 20 13  1  0  0  0  0
 21 14  1  0  0  0  0
 23 28  1  0  0  0  0
 24 23  2  0  0  0  0
 24 25  1  0  0  0  0
 25 26  2  0  0  0  0
 26 27  1  0  0  0  0
 27 31  1  0  0  0  0
 28 27  2  0  0  0  0
 29 24  1  0  0  0  0
 30 25  1  0  0  0  0
 31 32  1  0  0  0  0
 31 33  1  0  0  0  0
 32 33  1  0  0  0  0
M  END
>  <minimizedAffinity>
-5.90677357

$$$$

 OpenBabel03272507083D

 33 37  0  0  0  0  0  0  0  0999 V2000
   39.3040   25.4600   32.0060 C   0  0  0  0  0  0  0  0  0  0  0  0
   39.4960   24.7250   33.1900 C   0  0  0  0  0  0  0  0  0  0  0  0
   38.7460   25.1380   34.3100 C   0  0  0  0  0  0  0  0  0  0  0  0
   37.8980   26.1910   34.2100 N   0  0  0  0  0  0  0  0  0  0  0  0
   37.7610   26.8590   33.0320 C   0  0  0  0  0  0  0  0  0  0  0  0
   38.4510   26.5060   31.9390 N   0  0  0  0  0  0  0  0  0  0  0  0
   39.8700   25.1490   31.1610 H   0  0  0  0  0  0  0  0  0  0  0  0
   40.1500   23.8980   33.3000 H   0  0  0  0  0  0  0  0  0  0  0  0
   36.2380   28.4090   34.1800 C   0  0  0  0  0  0  0  0  0  0  0  0
   36.8230   27.9900   32.9990 C   0  0  0  0  0  0  0  0  0  0  0  0
   36.5280   28.6250   31.8270 C   0  0  0  0  0  0  0  0  0  0  0  0
   35.6550   29.6810   31.7870 C   0  0  0  0  0  0  0  0  0  0  0  0
   35.2040   30.4660   30.7740 N   0  0  0  0  0  0  0  0  0  0  0  0
   34.3560   31.3360   31.3830 C   0  0  0  0  0  0  0  0  0  0  0  0
   34.2900   31.1010   32.6950 N   0  0  0  0  0  0  0  0  0  0  0  0
   35.0960   30.0640   32.9890 C   0  0  0  0  0  0  0  0  0  0  0  0
   35.3540   29.4680   34.1840 C   0  0  0  0  0  0  0  0  0  0  0  0
   36.4360   27.9400   35.1470 H   0  0  0  0  0  0  0  0  0  0  0  0
   36.9910   28.2890   30.9150 H   0  0  0  0  0  0  0  0  0  0  0  0
   35.4750   30.3840   29.7610 H   0  0  0  0  0  0  0  0  0  0  0  0
   33.8430   32.0950   30.7860 H   0  0  0  0  0  0  0  0  0  0  0  0
   34.9000   29.7920   35.1070 H   0  0  0  0  0  0  0  0  0  0  0  0
   38.8200   24.4940   35.6080 C   0  0  0  0  0  0  0  0  0  0  0  0
   37.9870   24.7770   36.6580 C   0  0  0  0  0  0  0  0  0  0  0  0
   38.0370   24.1770   37.9010 C   0  0  0  0  0  0  0  0  0  0  0  0
   38.9840   23.2460   38.0770 N   0  0  0  0  0  0  0  0  0  0  0  0
   39.8120   22.9420   37.0870 C   0  0  0  0  0  0  0  0  0  0  0  0
   39.7320   23.5370   35.9120 N   0  0  0  0  0  0  0  0  0  0  0  0
   37.2100   25.5360   36.5240 H   0  0  0  0  0  0  0  0  0  0  0  0
   37.3320   24.4690   38.6710 H   0  0  0  0  0  0  0  0  0  0  0  0
   40.8940   21.9070   37.2230 C   0  0  0  0  0  3  0  0  0  0  0  0
   42.3340   22.4520   36.9720 C   0  0  0  0  0  2  0  0  0  0  0  0
   41.6620   21.4960   36.0310 C   0  0  0  0  0  2  0  0  0  0  0  0
  1  2  1  0  0  0  0
  2  8  1  0  0  0  0
  2  3  2  0  0  0  0
  3 23  1  0  0  0  0
  4  3  1  0  0  0  0
  5  4  2  0  0  0  0
  6  1  2  0  0  0  0
  6  5  1  0  0  0  0
  7  1  1  0  0  0  0
  9 17  1  0  0  0  0
  9 18  1  0  0  0  0
 10  5  1  0  0  0  0
 10  9  2  0  0  0  0
 11 10  1  0  0  0  0
 12 11  2  0  0  0  0
 12 16  1  0  0  0  0
 13 14  1  0  0  0  0
 13 12  1  0  0  0  0
 14 15  2  0  0  0  0
 15 16  1  0  0  0  0
 16 17  2  0  0  0  0
 17 22  1  0  0  0  0
 19 11  1  0  0  0  0
 20 13  1  0  0  0  0
 21 14  1  0  0  0  0
 23 28  2  0  0  0  0
 23 24  1  0  0  0  0
 24 25  2  0  0  0  0
 25 26  1  0  0  0  0
 25 30  1  0  0  0  0
 27 31  1  0  0  0  0
 27 26  2  0  0  0  0
 28 27  1  0  0  0  0
 29 24  1  0  0  0  0
 32 31  1  0  0  0  0
 33 32  1  0  0  0  0
 33 31  1  0  0  0  0
M  END
>  <minimizedAffinity>
-5.87400866

$$$$

 OpenBabel03272507083D

 33 37  0  0  0  0  0  0  0  0999 V2000
   37.0110   28.9210   31.1440 C   0  0  0  0  0  0  0  0  0  0  0  0
   37.4490   27.6100   31.4070 C   0  0  0  0  0  0  0  0  0  0  0  0
   37.0750   27.0650   32.6520 C   0  0  0  0  0  0  0  0  0  0  0  0
   36.3340   27.7960   33.5200 N   0  0  0  0  0  0  0  0  0  0  0  0
   35.9430   29.0600   33.2010 C   0  0  0  0  0  0  0  0  0  0  0  0
   36.2720   29.6250   32.0310 N   0  0  0  0  0  0  0  0  0  0  0  0
   37.2920   29.3330   30.2050 H   0  0  0  0  0  0  0  0  0  0  0  0
   38.0280   27.0130   30.7510 H   0  0  0  0  0  0  0  0  0  0  0  0
   33.7850   29.5320   34.2800 C   0  0  0  0  0  0  0  0  0  0  0  0
   35.1410   29.7930   34.1910 C   0  0  0  0  0  0  0  0  0  0  0  0
   35.7150   30.7170   35.0160 C   0  0  0  0  0  0  0  0  0  0  0  0
   34.9750   31.4050   35.9440 C   0  0  0  0  0  0  0  0  0  0  0  0
   35.2970   32.3520   36.8620 N   0  0  0  0  0  0  0  0  0  0  0  0
   34.1180   32.6330   37.4750 C   0  0  0  0  0  0  0  0  0  0  0  0
   33.1260   31.9000   36.9640 N   0  0  0  0  0  0  0  0  0  0  0  0
   33.6270   31.1120   35.9960 C   0  0  0  0  0  0  0  0  0  0  0  0
   33.0040   30.2020   35.1990 C   0  0  0  0  0  0  0  0  0  0  0  0
   33.2720   28.8050   33.6460 H   0  0  0  0  0  0  0  0  0  0  0  0
   36.7710   30.9090   34.9380 H   0  0  0  0  0  0  0  0  0  0  0  0
   36.2570   32.7510   37.0270 H   0  0  0  0  0  0  0  0  0  0  0  0
   34.0900   33.3790   38.2740 H   0  0  0  0  0  0  0  0  0  0  0  0
   31.9480   29.9960   35.2640 H   0  0  0  0  0  0  0  0  0  0  0  0
   37.4400   25.7300   33.0860 C   0  0  0  0  0  0  0  0  0  0  0  0
   37.3890   24.6180   32.2870 C   0  0  0  0  0  0  0  0  0  0  0  0
   37.7320   23.3380   32.6760 C   0  0  0  0  0  0  0  0  0  0  0  0
   38.1470   23.1900   33.9420 N   0  0  0  0  0  0  0  0  0  0  0  0
   38.2110   24.2390   34.7490 C   0  0  0  0  0  0  0  0  0  0  0  0
   37.8750   25.4490   34.3400 N   0  0  0  0  0  0  0  0  0  0  0  0
   37.0520   24.7290   31.2520 H   0  0  0  0  0  0  0  0  0  0  0  0
   37.6580   22.5200   31.9700 H   0  0  0  0  0  0  0  0  0  0  0  0
   38.6680   24.1380   36.1780 C   0  0  0  0  0  3  0  0  0  0  0  0
   37.6340   23.4660   37.1330 C   0  0  0  0  0  2  0  0  0  0  0  0
   37.9790   24.9220   37.2210 C   0  0  0  0  0  2  0  0  0  0  0  0
  1  2  2  0  0  0  0
  1  6  1  0  0  0  0
  2  3  1  0  0  0  0
  3 23  1  0  0  0  0
  3  4  2  0  0  0  0
  5  4  1  0  0  0  0
  5 10  1  0  0  0  0
  6  5  2  0  0  0  0
  7  1  1  0  0  0  0
  8  2  1  0  0  0  0
  9 17  1  0  0  0  0
 10  9  2  0  0  0  0
 10 11  1  0  0  0  0
 11 12  2  0  0  0  0
 12 16  1  0  0  0  0
 12 13  1  0  0  0  0
 13 20  1  0  0  0  0
 13 14  1  0  0  0  0
 14 21  1  0  0  0  0
 15 14  2  0  0  0  0
 16 15  1  0  0  0  0
 17 22  1  0  0  0  0
 17 16  2  0  0  0  0
 18  9  1  0  0  0  0
 19 11  1  0  0  0  0
 23 28  1  0  0  0  0
 24 25  1  0  0  0  0
 24 23  2  0  0  0  0
 25 26  2  0  0  0  0
 26 27  1  0  0  0  0
 27 31  1  0  0  0  0
 28 27  2  0  0  0  0
 29 24  1  0  0  0  0
 30 25  1  0  0  0  0
 31 32  1  0  0  0  0
 31 33  1  0  0  0  0
 32 33  1  0  0  0  0
M  END
>  <minimizedAffinity>
-5.86018467

$$$$

 OpenBabel03272507083D

 33 37  0  0  0  0  0  0  0  0999 V2000
   37.0170   29.2610   30.9590 C   0  0  0  0  0  0  0  0  0  0  0  0
   37.3470   27.8980   31.0670 C   0  0  0  0  0  0  0  0  0  0  0  0
   36.8800   27.2310   32.2180 C   0  0  0  0  0  0  0  0  0  0  0  0
   36.1570   27.9030   33.1460 N   0  0  0  0  0  0  0  0  0  0  0  0
   35.8730   29.2240   32.9790 C   0  0  0  0  0  0  0  0  0  0  0  0
   36.2940   29.9030   31.9030 N   0  0  0  0  0  0  0  0  0  0  0  0
   37.3690   29.7640   30.0900 H   0  0  0  0  0  0  0  0  0  0  0  0
   37.9090   27.3440   30.3590 H   0  0  0  0  0  0  0  0  0  0  0  0
   33.7330   29.6070   34.1250 C   0  0  0  0  0  0  0  0  0  0  0  0
   35.0840   29.8870   34.0270 C   0  0  0  0  0  0  0  0  0  0  0  0
   35.6650   30.7660   34.8940 C   0  0  0  0  0  0  0  0  0  0  0  0
   34.9360   31.3890   35.8760 C   0  0  0  0  0  0  0  0  0  0  0  0
   35.2680   32.2830   36.8430 N   0  0  0  0  0  0  0  0  0  0  0  0
   34.0980   32.5130   37.4940 C   0  0  0  0  0  0  0  0  0  0  0  0
   33.1040   31.8010   36.9600 N   0  0  0  0  0  0  0  0  0  0  0  0
   33.5930   31.0780   35.9360 C   0  0  0  0  0  0  0  0  0  0  0  0
   32.9640   30.2110   35.0980 C   0  0  0  0  0  0  0  0  0  0  0  0
   33.2140   28.9130   33.4590 H   0  0  0  0  0  0  0  0  0  0  0  0
   36.7170   30.9750   34.8080 H   0  0  0  0  0  0  0  0  0  0  0  0
   36.2260   32.6810   37.0130 H   0  0  0  0  0  0  0  0  0  0  0  0
   34.0790   33.2100   38.3370 H   0  0  0  0  0  0  0  0  0  0  0  0
   31.9100   29.9900   35.1710 H   0  0  0  0  0  0  0  0  0  0  0  0
   37.1280   25.8280   32.4890 C   0  0  0  0  0  0  0  0  0  0  0  0
   38.0580   25.3690   33.3850 C   0  0  0  0  0  0  0  0  0  0  0  0
   38.3120   24.0390   33.6610 C   0  0  0  0  0  0  0  0  0  0  0  0
   37.5790   23.1400   32.9900 N   0  0  0  0  0  0  0  0  0  0  0  0
   36.6690   23.5420   32.1150 C   0  0  0  0  0  0  0  0  0  0  0  0
   36.4540   24.8220   31.8780 N   0  0  0  0  0  0  0  0  0  0  0  0
   38.6610   26.0950   33.9370 H   0  0  0  0  0  0  0  0  0  0  0  0
   39.0710   23.7730   34.3880 H   0  0  0  0  0  0  0  0  0  0  0  0
   35.8160   22.5820   31.3320 C   0  0  0  0  0  3  0  0  0  0  0  0
   35.0580   21.5390   32.2100 C   0  0  0  0  0  2  0  0  0  0  0  0
   36.1790   21.1510   31.2920 C   0  0  0  0  0  2  0  0  0  0  0  0
  1  2  2  0  0  0  0
  1  6  1  0  0  0  0
  2  3  1  0  0  0  0
  3 23  1  0  0  0  0
  3  4  2  0  0  0  0
  5  4  1  0  0  0  0
  5 10  1  0  0  0  0
  6  5  2  0  0  0  0
  7  1  1  0  0  0  0
  8  2  1  0  0  0  0
  9 17  1  0  0  0  0
 10  9  2  0  0  0  0
 10 11  1  0  0  0  0
 11 12  2  0  0  0  0
 12 16  1  0  0  0  0
 12 13  1  0  0  0  0
 13 20  1  0  0  0  0
 13 14  1  0  0  0  0
 14 21  1  0  0  0  0
 15 14  2  0  0  0  0
 16 15  1  0  0  0  0
 17 22  1  0  0  0  0
 17 16  2  0  0  0  0
 18  9  1  0  0  0  0
 19 11  1  0  0  0  0
 23 24  1  0  0  0  0
 24 25  2  0  0  0  0
 24 29  1  0  0  0  0
 25 30  1  0  0  0  0
 26 25  1  0  0  0  0
 27 26  2  0  0  0  0
 28 27  1  0  0  0  0
 28 23  2  0  0  0  0
 31 27  1  0  0  0  0
 31 32  1  0  0  0  0
 33 31  1  0  0  0  0
 33 32  1  0  0  0  0
M  END
>  <minimizedAffinity>
-5.85126162

$$$$

 OpenBabel03272507083D

 33 37  0  0  0  0  0  0  0  0999 V2000
   35.7480   23.6640   31.4240 C   0  0  0  0  0  0  0  0  0  0  0  0
   35.4870   25.0020   31.0780 C   0  0  0  0  0  0  0  0  0  0  0  0
   36.2900   25.9780   31.7050 C   0  0  0  0  0  0  0  0  0  0  0  0
   37.2480   25.6040   32.5870 N   0  0  0  0  0  0  0  0  0  0  0  0
   37.4480   24.2890   32.8770 C   0  0  0  0  0  0  0  0  0  0  0  0
   36.7120   23.3240   32.3080 N   0  0  0  0  0  0  0  0  0  0  0  0
   35.1430   22.9280   30.9510 H   0  0  0  0  0  0  0  0  0  0  0  0
   34.7470   25.3260   30.3930 H   0  0  0  0  0  0  0  0  0  0  0  0
   39.8070   24.3410   33.5660 C   0  0  0  0  0  0  0  0  0  0  0  0
   38.5050   23.9600   33.8430 C   0  0  0  0  0  0  0  0  0  0  0  0
   38.2190   23.2900   34.9980 C   0  0  0  0  0  0  0  0  0  0  0  0
   39.2000   22.9790   35.9050 C   0  0  0  0  0  0  0  0  0  0  0  0
   39.1790   22.3360   37.1010 N   0  0  0  0  0  0  0  0  0  0  0  0
   40.4750   22.3500   37.5060 C   0  0  0  0  0  0  0  0  0  0  0  0
   41.2500   22.9670   36.6120 N   0  0  0  0  0  0  0  0  0  0  0  0
   40.4820   23.3790   35.5870 C   0  0  0  0  0  0  0  0  0  0  0  0
   40.8230   24.0470   34.4520 C   0  0  0  0  0  0  0  0  0  0  0  0
   40.0950   24.8770   32.6590 H   0  0  0  0  0  0  0  0  0  0  0  0
   37.2040   23.0010   35.2010 H   0  0  0  0  0  0  0  0  0  0  0  0
   38.3280   21.9330   37.5700 H   0  0  0  0  0  0  0  0  0  0  0  0
   40.7470   21.8880   38.4590 H   0  0  0  0  0  0  0  0  0  0  0  0
   41.8360   24.3460   34.2320 H   0  0  0  0  0  0  0  0  0  0  0  0
   36.1570   27.4020   31.4650 C   0  0  0  0  0  0  0  0  0  0  0  0
   36.6900   28.0550   30.3850 C   0  0  0  0  0  0  0  0  0  0  0  0
   36.5770   29.4090   30.1340 C   0  0  0  0  0  0  0  0  0  0  0  0
   35.8850   30.1260   31.0310 N   0  0  0  0  0  0  0  0  0  0  0  0
   35.3530   29.5330   32.0900 C   0  0  0  0  0  0  0  0  0  0  0  0
   35.4820   28.2360   32.2960 N   0  0  0  0  0  0  0  0  0  0  0  0
   37.2570   27.4780   29.6470 H   0  0  0  0  0  0  0  0  0  0  0  0
   37.0350   29.8350   29.2500 H   0  0  0  0  0  0  0  0  0  0  0  0
   34.5660   30.2830   33.1300 C   0  0  0  0  0  3  0  0  0  0  0  0
   35.4390   30.9070   34.2630 C   0  0  0  0  0  2  0  0  0  0  0  0
   34.5020   29.7620   34.5090 C   0  0  0  0  0  2  0  0  0  0  0  0
  1  6  1  0  0  0  0
  2  1  2  0  0  0  0
  2  3  1  0  0  0  0
  3  4  2  0  0  0  0
  4  5  1  0  0  0  0
  5 10  1  0  0  0  0
  6  5  2  0  0  0  0
  7  1  1  0  0  0  0
  8  2  1  0  0  0  0
  9 10  2  0  0  0  0
  9 17  1  0  0  0  0
 10 11  1  0  0  0  0
 11 19  1  0  0  0  0
 11 12  2  0  0  0  0
 12 13  1  0  0  0  0
 13 14  1  0  0  0  0
 13 20  1  0  0  0  0
 14 21  1  0  0  0  0
 15 14  2  0  0  0  0
 16 12  1  0  0  0  0
 16 15  1  0  0  0  0
 17 16  2  0  0  0  0
 18  9  1  0  0  0  0
 22 17  1  0  0  0  0
 23  3  1  0  0  0  0
 23 28  1  0  0  0  0
 24 23  2  0  0  0  0
 25 24  1  0  0  0  0
 25 26  2  0  0  0  0
 26 27  1  0  0  0  0
 27 28  2  0  0  0  0
 27 31  1  0  0  0  0
 29 24  1  0  0  0  0
 30 25  1  0  0  0  0
 31 32  1  0  0  0  0
 31 33  1  0  0  0  0
 32 33  1  0  0  0  0
M  END
>  <minimizedAffinity>
-5.80020428

$$$$
