
 OpenBabel03272509473D

 19 20  0  0  0  0  0  0  0  0999 V2000
   34.7430   28.3150   49.7540 O   0  0  0  0  0  0  0  0  0  0  0  0
   37.3340   30.2240   51.4100 C   0  0  0  0  0  0  0  0  0  0  0  0
   38.0520   30.6610   50.3000 C   0  0  0  0  0  0  0  0  0  0  0  0
   37.6180   30.2840   49.0320 C   0  0  0  0  0  0  0  0  0  0  0  0
   36.4940   29.4940   48.9830 N   0  0  0  0  0  0  0  0  0  0  0  0
   35.8260   29.0910   50.0640 C   0  0  0  0  0  0  0  0  0  0  0  0
   36.2500   29.4590   51.2940 N   0  0  0  0  0  0  0  0  0  0  0  0
   37.6170   30.4810   52.4320 H   0  0  0  0  0  0  0  0  0  0  0  0
   38.9280   31.2830   50.4510 H   0  0  0  0  0  0  0  0  0  0  0  0
   38.1500   30.6040   48.1530 H   0  0  0  0  0  0  0  0  0  0  0  0
   34.2200   28.3920   48.4310 C   0  0  0  0  0  0  0  0  0  0  0  0
   33.3360   29.0520   48.3950 H   0  0  0  0  0  0  0  0  0  0  0  0
   34.9650   28.8380   47.7410 H   0  0  0  0  0  0  0  0  0  0  0  0
   33.8820   27.0080   47.9410 C   0  0  0  0  0  0  0  0  0  0  0  0
   34.7870   26.4400   47.7310 H   0  0  0  0  0  0  0  0  0  0  0  0
   33.1950   26.5210   48.6500 H   0  0  0  0  0  0  0  0  0  0  0  0
   33.1440   27.1960   46.6140 C   0  0  0  0  0  3  0  0  0  0  0  0
   33.8870   27.0050   45.3490 C   0  0  0  0  0  2  0  0  0  0  0  0
   32.9230   25.9460   45.7770 C   0  0  0  0  0  2  0  0  0  0  0  0
  1  6  1  0  0  0  0
  2  8  1  0  0  0  0
  3  9  1  0  0  0  0
  3  2  2  0  0  0  0
  4  3  1  0  0  0  0
  5  4  2  0  0  0  0
  5  6  1  0  0  0  0
  6  7  2  0  0  0  0
  7  2  1  0  0  0  0
 10  4  1  0  0  0  0
 11  1  1  0  0  0  0
 12 11  1  0  0  0  0
 13 11  1  0  0  0  0
 14 11  1  0  0  0  0
 14 16  1  0  0  0  0
 15 14  1  0  0  0  0
 17 14  1  0  0  0  0
 18 19  1  0  0  0  0
 18 17  1  0  0  0  0
 19 17  1  0  0  0  0
M  END
>  <minimizedAffinity>
-3.53248858

>  <minimizedRMSD>
0.0783033818

$$$$
