
 OpenBabel03272502043D

 32 35  0  0  0  0  0  0  0  0999 V2000
   33.9080   30.2130   48.0620 F   0  0  0  0  0  0  0  0  0  0  0  0
   34.4860   29.9440   46.8570 C   0  0  0  0  0  0  0  0  0  0  0  0
   33.7520   29.4670   45.7850 C   0  0  0  0  0  0  0  0  0  0  0  0
   34.3900   29.2690   44.5740 C   0  0  0  0  0  0  0  0  0  0  0  0
   35.7550   29.5520   44.4360 C   0  0  0  0  0  0  0  0  0  0  0  0
   36.4220   30.0260   45.5460 C   0  0  0  0  0  0  0  0  0  0  0  0
   35.8340   30.2270   46.7510 C   0  0  0  0  0  0  0  0  0  0  0  0
   33.6900   28.8850   43.8170 H   0  0  0  0  0  0  0  0  0  0  0  0
   36.0550   29.3380   43.4390 H   0  0  0  0  0  0  0  0  0  0  0  0
   37.3900   30.1980   45.1700 H   0  0  0  0  0  0  0  0  0  0  0  0
   38.1460   32.2660   46.1910 Br  0  0  0  0  0  0  0  0  0  0  0  0
   37.6470   31.6070   47.9010 C   0  0  0  0  0  0  0  0  0  0  0  0
   36.6240   30.6750   47.8850 C   0  0  0  0  0  0  0  0  0  0  0  0
   36.2370   30.0740   49.0890 C   0  0  0  0  0  0  0  0  0  0  0  0
   36.8610   30.4100   50.2460 C   0  0  0  0  0  0  0  0  0  0  0  0
   37.8780   31.3510   50.2130 C   0  0  0  0  0  0  0  0  0  0  0  0
   38.2940   31.9740   49.0270 C   0  0  0  0  0  0  0  0  0  0  0  0
   35.5250   29.3730   49.4580 H   0  0  0  0  0  0  0  0  0  0  0  0
   36.7620   30.1130   51.2680 H   0  0  0  0  0  0  0  0  0  0  0  0
   38.4840   31.7380   51.0540 H   0  0  0  0  0  0  0  0  0  0  0  0
   39.3730   32.9880   48.9230 C   0  0  0  0  0  0  0  0  0  0  0  0
   39.6210   33.9050   50.0880 C   0  0  0  0  0  0  0  0  0  0  0  0
   39.0480   34.4120   48.7950 C   0  0  0  0  0  0  0  0  0  0  0  0
   32.0160   28.0150   46.5630 C   0  0  0  0  0  0  0  0  0  0  0  0
   32.3570   29.2530   46.0260 C   0  0  0  0  0  0  0  0  0  0  0  0
   31.3310   30.1430   45.8000 C   0  0  0  0  0  0  0  0  0  0  0  0
   30.0540   29.7910   46.1020 N   0  0  0  0  0  0  0  0  0  0  0  0
   29.7570   28.6070   46.6110 C   0  0  0  0  0  0  0  0  0  0  0  0
   30.7250   27.7180   46.8440 N   0  0  0  0  0  0  0  0  0  0  0  0
   32.6960   27.1890   46.8060 H   0  0  0  0  0  0  0  0  0  0  0  0
   31.6230   31.0860   45.3870 H   0  0  0  0  0  0  0  0  0  0  0  0
   28.6960   28.4720   46.7990 H   0  0  0  0  0  0  0  0  0  0  0  0
  2  1  1  0  0  0  0
  3 25  1  0  0  0  0
  3  2  2  0  0  0  0
  4  3  1  0  0  0  0
  5  4  2  0  0  0  0
  5  6  1  0  0  0  0
  6  7  2  0  0  0  0
  7  2  1  0  0  0  0
  7 13  1  0  0  0  0
  8  4  1  0  0  0  0
  9  5  1  0  0  0  0
 10  6  1  0  0  0  0
 11 12  1  0  0  0  0
 12 17  1  0  0  0  0
 13 12  2  0  0  0  0
 13 14  1  0  0  0  0
 14 18  1  0  0  0  0
 14 15  2  0  0  0  0
 15 19  1  0  0  0  0
 16 15  1  0  0  0  0
 16 20  1  0  0  0  0
 17 16  2  0  0  0  0
 21 17  1  0  0  0  0
 21 22  1  0  0  0  0
 23 21  1  0  0  0  0
 23 22  1  0  0  0  0
 24 30  1  0  0  0  0
 24 29  1  0  0  0  0
 25 24  2  0  0  0  0
 26 25  1  0  0  0  0
 26 27  2  0  0  0  0
 27 28  1  0  0  0  0
 28 32  1  0  0  0  0
 28 29  2  0  0  0  0
 31 26  1  0  0  0  0
M  END
>  <minimizedAffinity>
-5.31077385

>  <minimizedRMSD>
3.20874214

$$$$
