
 OpenBabel03272510273D

 39 43  0  0  1  0  0  0  0  0999 V2000
   36.1380   30.2210   46.8740 C   0  0  0  0  0  0  0  0  0  0  0  0
   37.0430   30.7490   47.7920 C   0  0  0  0  0  0  0  0  0  0  0  0
   38.0560   31.6150   47.3870 C   0  0  0  0  0  0  0  0  0  0  0  0
   38.1130   31.9190   46.0300 C   0  0  0  0  0  0  0  0  0  0  0  0
   39.0000   32.7350   45.3910 N   0  0  0  0  0  0  0  0  0  0  0  0
   38.6620   32.7230   44.0920 C   0  0  0  0  0  0  0  0  0  0  0  0
   37.6160   31.9400   43.9120 N   0  0  0  0  0  0  0  0  0  0  0  0
   37.2380   31.4180   45.0910 C   0  0  0  0  0  0  0  0  0  0  0  0
   36.2300   30.5490   45.5320 C   0  0  0  0  0  0  0  0  0  0  0  0
   35.3450   29.5510   47.1420 H   0  0  0  0  0  0  0  0  0  0  0  0
   38.7460   32.0150   48.1010 H   0  0  0  0  0  0  0  0  0  0  0  0
   39.7730   33.2530   45.8320 H   0  0  0  0  0  0  0  0  0  0  0  0
   35.5400   30.1520   44.7990 H   0  0  0  0  0  0  0  0  0  0  0  0
   37.5470   30.1880   51.4730 C   0  0  0  0  0  0  0  0  0  0  0  0
   37.8140   30.6120   50.1810 C   0  0  0  0  0  0  0  0  0  0  0  0
   36.8850   30.3610   49.1780 C   0  0  0  0  0  0  0  0  0  0  0  0
   35.7460   29.6990   49.5360 N   0  0  0  0  0  0  0  0  0  0  0  0
   35.4940   29.2900   50.7930 C   0  0  0  0  0  0  0  0  0  0  0  0
   36.3750   29.5310   51.7380 N   0  0  0  0  0  0  0  0  0  0  0  0
   38.2610   30.3790   52.2630 H   0  0  0  0  0  0  0  0  0  0  0  0
   38.7230   31.1390   49.9060 H   0  0  0  0  0  0  0  0  0  0  0  0
   34.5640   28.7620   51.0250 H   0  0  0  0  0  0  0  0  0  0  0  0
   39.3620   33.4570   43.1350 O   0  0  0  0  0  0  0  0  0  0  0  0
   38.9750   31.5830   41.8650 N   0  0  0  0  0  0  0  0  0  0  0  0
   39.2330   32.9970   41.7990 C   0  0  1  0  0  0  0  0  0  0  0  0
   38.1520   33.6880   41.1080 C   0  0  0  0  0  0  0  0  0  0  0  0
   38.0930   33.2150   39.7860 O   0  0  0  0  0  0  0  0  0  0  0  0
   37.9660   31.8630   39.6530 C   0  0  0  0  0  0  0  0  0  0  0  0
   38.9480   31.0990   40.5160 C   0  0  1  0  0  0  0  0  0  0  0  0
   38.3200   31.2110   42.5070 H   0  0  0  0  0  0  0  0  0  0  0  0
   40.1890   33.1470   41.2740 H   0  0  0  0  0  0  0  0  0  0  0  0
   37.1400   33.6960   41.4120 H   0  0  0  0  0  0  0  0  0  0  0  0
   38.4610   34.7700   40.9830 H   0  0  0  0  0  0  0  0  0  0  0  0
   38.2260   31.6070   38.6100 H   0  0  0  0  0  0  0  0  0  0  0  0
   36.9210   31.5690   39.9230 H   0  0  0  0  0  0  0  0  0  0  0  0
   38.6250   30.0450   40.5360 H   0  0  0  0  0  0  0  0  0  0  0  0
   40.3110   31.1540   39.8700 C   0  0  0  0  0  3  0  0  0  0  0  0
   41.4010   30.2840   40.4050 C   0  0  0  0  0  2  0  0  0  0  0  0
   40.7710   29.9240   39.1090 C   0  0  0  0  0  2  0  0  0  0  0  0
  1 10  1  0  0  0  0
  1  2  1  0  0  0  0
  2 16  1  0  0  0  0
  3  2  2  0  0  0  0
  3 11  1  0  0  0  0
  4  3  1  0  0  0  0
  5 12  1  0  0  0  0
  5  4  1  0  0  0  0
  6  5  1  0  0  0  0
  7  6  2  0  0  0  0
  7  8  1  0  0  0  0
  8  9  1  0  0  0  0
  8  4  2  0  0  0  0
  9  1  2  0  0  0  0
 13  9  1  0  0  0  0
 14 19  1  0  0  0  0
 14 20  1  0  0  0  0
 15 14  2  0  0  0  0
 16 17  2  0  0  0  0
 16 15  1  0  0  0  0
 17 18  1  0  0  0  0
 18 22  1  0  0  0  0
 18 19  2  0  0  0  0
 21 15  1  0  0  0  0
 23  6  1  0  0  0  0
 24 30  1  0  0  0  0
 25 31  1  6  0  0  0
 25 24  1  0  0  0  0
 25 23  1  0  0  0  0
 26 32  1  0  0  0  0
 26 25  1  0  0  0  0
 27 26  1  0  0  0  0
 28 27  1  0  0  0  0
 28 35  1  0  0  0  0
 28 29  1  0  0  0  0
 29 36  1  1  0  0  0
 29 24  1  0  0  0  0
 33 26  1  0  0  0  0
 34 28  1  0  0  0  0
 37 38  1  0  0  0  0
 37 29  1  0  0  0  0
 39 37  1  0  0  0  0
 39 38  1  0  0  0  0
M  END
>  <minimizedAffinity>
-5.58139086

>  <minimizedRMSD>
0.825442851

$$$$
