REMARK  Name = 
REMARK  4 active torsions:
REMARK  status: ('A' for Active; 'I' for Inactive)
REMARK    1  A    between atoms: C_5  and  O_7
REMARK    2  A    between atoms: O_7  and  C_8
REMARK    3  A    between atoms: C_8  and  C_9
REMARK    4  A    between atoms: C_9  and  C_17
REMARK                            x       y       z     vdW  Elec       q    Type
REMARK                         _______ _______ _______ _____ _____    ______ ____
ROOT
ATOM      1  O   UNL     1      34.760  28.291  49.744  0.00  0.00    +0.000 OA
ENDROOT
BRANCH   1   6
ATOM      2  C   UNL     1      37.325  30.223  51.413  0.00  0.00    +0.000 A 
ATOM      3  C   UNL     1      38.043  30.668  50.307  0.00  0.00    +0.000 A 
ATOM      4  C   UNL     1      37.618  30.288  49.037  0.00  0.00    +0.000 A 
ATOM      5  N   UNL     1      36.502  29.488  48.982  0.00  0.00    +0.000 NA
ATOM      6  C   UNL     1      35.834  29.077  50.060  0.00  0.00    +0.000 A 
ATOM      7  N   UNL     1      36.249  29.448  51.292  0.00  0.00    +0.000 NA
ATOM      8  H   UNL     1      37.601  30.482  52.437  0.00  0.00    +0.000 HD
ATOM      9  H   UNL     1      38.913  31.299  50.462  0.00  0.00    +0.000 HD
ATOM     10  H   UNL     1      38.151  30.615  48.160  0.00  0.00    +0.000 HD
ENDBRANCH   1   6
BRANCH   1  11
ATOM     11  C   UNL     1      34.206  28.406  48.437  0.00  0.00    +0.000 C 
ATOM     12  H   UNL     1      33.339  29.089  48.435  0.00  0.00    +0.000 HD
ATOM     13  H   UNL     1      34.945  28.846  47.736  0.00  0.00    +0.000 HD
BRANCH  11  14
ATOM     14  C   UNL     1      33.819  27.041  47.931  0.00  0.00    +0.000 C 
ATOM     15  H   UNL     1      34.697  26.405  47.823  0.00  0.00    +0.000 HD
ATOM     16  H   UNL     1      33.029  26.618  48.570  0.00  0.00    +0.000 HD
BRANCH  14  17
ATOM     17  C   UNL     1      33.238  27.256  46.532  0.00  0.00    +0.000 C 
ATOM     18  C   UNL     1      32.200  26.324  46.039  0.00  0.00    +0.000 C 
ATOM     19  C   UNL     1      31.784  27.697  46.460  0.00  0.00    +0.000 C 
ENDBRANCH  14  17
ENDBRANCH  11  14
ENDBRANCH   1  11
TORSDOF 4
