
 OpenBabel03272509013D

 25 27  0  0  0  0  0  0  0  0999 V2000
   38.0670   23.1780   33.5130 Cl  0  0  0  0  0  0  0  0  0  0  0  0
   37.0720   24.2490   32.5840 C   0  0  0  0  0  0  0  0  0  0  0  0
   36.1240   23.7290   31.7290 C   0  0  0  0  0  0  0  0  0  0  0  0
   35.3140   24.5440   30.9730 C   0  0  0  0  0  0  0  0  0  0  0  0
   35.4210   25.9080   31.0440 C   0  0  0  0  0  0  0  0  0  0  0  0
   36.3650   26.4680   31.8950 C   0  0  0  0  0  0  0  0  0  0  0  0
   36.6110   28.1940   32.0790 Cl  0  0  0  0  0  0  0  0  0  0  0  0
   37.1580   25.6180   32.6360 C   0  0  0  0  0  0  0  0  0  0  0  0
   34.5570   24.1350   30.2900 H   0  0  0  0  0  0  0  0  0  0  0  0
   34.8360   26.6130   30.4960 H   0  0  0  0  0  0  0  0  0  0  0  0
   36.6320   20.2450   30.7040 C   0  0  0  0  0  0  0  0  0  0  0  0
   35.6750   19.5550   31.4290 C   0  0  0  0  0  0  0  0  0  0  0  0
   34.8350   20.3150   32.2920 C   0  0  0  0  0  0  0  0  0  0  0  0
   35.0400   21.6540   32.3360 N   0  0  0  0  0  0  0  0  0  0  0  0
   35.9800   22.2940   31.6180 C   0  0  0  0  0  0  0  0  0  0  0  0
   36.7680   21.5650   30.8050 N   0  0  0  0  0  0  0  0  0  0  0  0
   37.2490   19.6020   30.0560 H   0  0  0  0  0  0  0  0  0  0  0  0
   35.5300   18.4730   31.3750 H   0  0  0  0  0  0  0  0  0  0  0  0
   34.0910   19.8190   32.8640 H   0  0  0  0  0  0  0  0  0  0  0  0
   38.1840   26.2030   33.5550 C   0  0  0  0  0  0  0  0  0  0  0  0
   38.7010   27.0370   33.0610 H   0  0  0  0  0  0  0  0  0  0  0  0
   38.9750   25.4140   33.7250 H   0  0  0  0  0  0  0  0  0  0  0  0
   37.6340   26.5290   34.9020 C   0  0  0  0  0  3  0  0  0  0  0  0
   38.3570   25.7750   36.0450 C   0  0  0  0  0  2  0  0  0  0  0  0
   38.3380   27.2940   35.9320 C   0  0  0  0  0  2  0  0  0  0  0  0
  2  8  1  0  0  0  0
  2  1  1  0  0  0  0
  3  2  2  0  0  0  0
  4  5  2  0  0  0  0
  4  3  1  0  0  0  0
  5  6  1  0  0  0  0
  6  7  1  0  0  0  0
  6  8  2  0  0  0  0
  8 20  1  0  0  0  0
  9  4  1  0  0  0  0
 10  5  1  0  0  0  0
 11 16  2  0  0  0  0
 11 12  1  0  0  0  0
 12 13  2  0  0  0  0
 13 14  1  0  0  0  0
 13 19  1  0  0  0  0
 15  3  1  0  0  0  0
 15 14  2  0  0  0  0
 16 15  1  0  0  0  0
 17 11  1  0  0  0  0
 18 12  1  0  0  0  0
 20 22  1  0  0  0  0
 20 23  1  0  0  0  0
 21 20  1  0  0  0  0
 23 25  1  0  0  0  0
 23 24  1  0  0  0  0
 25 24  1  0  0  0  0
M  END
>  <minimizedAffinity>
-5.05723238

$$$$

 OpenBabel03272509013D

 25 27  0  0  0  0  0  0  0  0999 V2000
   38.2120   23.1210   33.3420 Cl  0  0  0  0  0  0  0  0  0  0  0  0
   37.1650   24.1990   32.4820 C   0  0  0  0  0  0  0  0  0  0  0  0
   36.1380   23.6870   31.7190 C   0  0  0  0  0  0  0  0  0  0  0  0
   35.2840   24.5090   31.0200 C   0  0  0  0  0  0  0  0  0  0  0  0
   35.4260   25.8710   31.0580 C   0  0  0  0  0  0  0  0  0  0  0  0
   36.4490   26.4230   31.8170 C   0  0  0  0  0  0  0  0  0  0  0  0
   36.7460   28.1460   31.9500 Cl  0  0  0  0  0  0  0  0  0  0  0  0
   37.2840   25.5670   32.5030 C   0  0  0  0  0  0  0  0  0  0  0  0
   34.4640   24.1060   30.4100 H   0  0  0  0  0  0  0  0  0  0  0  0
   34.8110   26.5810   30.5500 H   0  0  0  0  0  0  0  0  0  0  0  0
   34.8770   20.2990   32.3350 C   0  0  0  0  0  0  0  0  0  0  0  0
   35.6330   19.5160   31.4790 C   0  0  0  0  0  0  0  0  0  0  0  0
   36.6010   20.1770   30.6700 C   0  0  0  0  0  0  0  0  0  0  0  0
   36.7050   21.5230   30.8030 N   0  0  0  0  0  0  0  0  0  0  0  0
   35.9550   22.2550   31.6450 C   0  0  0  0  0  0  0  0  0  0  0  0
   35.0430   21.6180   32.4040 N   0  0  0  0  0  0  0  0  0  0  0  0
   34.1470   19.7300   32.9310 H   0  0  0  0  0  0  0  0  0  0  0  0
   35.5290   18.4320   31.3910 H   0  0  0  0  0  0  0  0  0  0  0  0
   37.1970   19.6080   30.0020 H   0  0  0  0  0  0  0  0  0  0  0  0
   38.3960   26.1430   33.3220 C   0  0  0  0  0  0  0  0  0  0  0  0
   38.7930   27.0460   32.8380 H   0  0  0  0  0  0  0  0  0  0  0  0
   39.2450   25.3960   33.3140 H   0  0  0  0  0  0  0  0  0  0  0  0
   38.0250   26.3230   34.7550 C   0  0  0  0  0  3  0  0  0  0  0  0
   39.0960   27.0960   35.5610 C   0  0  0  0  0  2  0  0  0  0  0  0
   37.6710   27.6000   35.3750 C   0  0  0  0  0  2  0  0  0  0  0  0
  2  8  1  0  0  0  0
  2  1  1  0  0  0  0
  3  2  2  0  0  0  0
  4  5  2  0  0  0  0
  4  3  1  0  0  0  0
  5  6  1  0  0  0  0
  6  7  1  0  0  0  0
  6  8  2  0  0  0  0
  8 20  1  0  0  0  0
  9  4  1  0  0  0  0
 10  5  1  0  0  0  0
 11 16  1  0  0  0  0
 11 17  1  0  0  0  0
 12 11  2  0  0  0  0
 13 14  2  0  0  0  0
 13 12  1  0  0  0  0
 14 15  1  0  0  0  0
 15  3  1  0  0  0  0
 15 16  2  0  0  0  0
 18 12  1  0  0  0  0
 19 13  1  0  0  0  0
 20 23  1  0  0  0  0
 21 20  1  0  0  0  0
 22 20  1  0  0  0  0
 23 25  1  0  0  0  0
 23 24  1  0  0  0  0
 25 24  1  0  0  0  0
M  END
>  <minimizedAffinity>
-5.0441165

$$$$

 OpenBabel03272509013D

 25 27  0  0  0  0  0  0  0  0999 V2000
   38.3520   21.8950   34.7620 Cl  0  0  0  0  0  0  0  0  0  0  0  0
   38.0260   23.5110   34.2320 C   0  0  0  0  0  0  0  0  0  0  0  0
   37.4380   23.7190   33.0030 C   0  0  0  0  0  0  0  0  0  0  0  0
   37.1630   24.9870   32.5440 C   0  0  0  0  0  0  0  0  0  0  0  0
   37.4640   26.0910   33.2960 C   0  0  0  0  0  0  0  0  0  0  0  0
   38.0580   25.9200   34.5390 C   0  0  0  0  0  0  0  0  0  0  0  0
   38.5010   27.2440   35.6000 Cl  0  0  0  0  0  0  0  0  0  0  0  0
   38.3180   24.6350   34.9640 C   0  0  0  0  0  0  0  0  0  0  0  0
   36.6940   25.1580   31.5660 H   0  0  0  0  0  0  0  0  0  0  0  0
   37.2860   27.1070   33.0190 H   0  0  0  0  0  0  0  0  0  0  0  0
   37.6990   20.9850   30.5730 C   0  0  0  0  0  0  0  0  0  0  0  0
   36.4390   20.4110   30.6000 C   0  0  0  0  0  0  0  0  0  0  0  0
   35.4780   20.9850   31.4810 C   0  0  0  0  0  0  0  0  0  0  0  0
   35.8730   22.0480   32.2230 N   0  0  0  0  0  0  0  0  0  0  0  0
   37.1070   22.5830   32.1730 C   0  0  0  0  0  0  0  0  0  0  0  0
   38.0060   22.0310   31.3360 N   0  0  0  0  0  0  0  0  0  0  0  0
   38.3950   20.4970   29.8740 H   0  0  0  0  0  0  0  0  0  0  0  0
   36.1450   19.5530   29.9910 H   0  0  0  0  0  0  0  0  0  0  0  0
   34.5020   20.5700   31.5290 H   0  0  0  0  0  0  0  0  0  0  0  0
   38.9620   24.4300   36.3000 C   0  0  0  0  0  0  0  0  0  0  0  0
   39.6190   25.2790   36.5360 H   0  0  0  0  0  0  0  0  0  0  0  0
   39.6440   23.5330   36.2130 H   0  0  0  0  0  0  0  0  0  0  0  0
   37.9790   24.0950   37.3700 C   0  0  0  0  0  3  0  0  0  0  0  0
   38.6300   23.3910   38.5850 C   0  0  0  0  0  2  0  0  0  0  0  0
   37.9200   24.7350   38.6840 C   0  0  0  0  0  2  0  0  0  0  0  0
  2  1  1  0  0  0  0
  2  8  1  0  0  0  0
  3  2  2  0  0  0  0
  4  3  1  0  0  0  0
  4  5  2  0  0  0  0
  5  6  1  0  0  0  0
  6  8  2  0  0  0  0
  6  7  1  0  0  0  0
  8 20  1  0  0  0  0
  9  4  1  0  0  0  0
 10  5  1  0  0  0  0
 11 12  2  0  0  0  0
 11 16  1  0  0  0  0
 12 13  1  0  0  0  0
 13 19  1  0  0  0  0
 13 14  2  0  0  0  0
 15 14  1  0  0  0  0
 15  3  1  0  0  0  0
 16 15  2  0  0  0  0
 17 11  1  0  0  0  0
 18 12  1  0  0  0  0
 20 21  1  0  0  0  0
 20 23  1  0  0  0  0
 22 20  1  0  0  0  0
 23 24  1  0  0  0  0
 23 25  1  0  0  0  0
 24 25  1  0  0  0  0
M  END
>  <minimizedAffinity>
-4.7926774

$$$$

 OpenBabel03272509013D

 25 27  0  0  0  0  0  0  0  0999 V2000
   38.7350   23.5720   33.1720 Cl  0  0  0  0  0  0  0  0  0  0  0  0
   38.3590   25.0750   33.9450 C   0  0  0  0  0  0  0  0  0  0  0  0
   38.8150   25.3170   35.2240 C   0  0  0  0  0  0  0  0  0  0  0  0
   38.5380   26.4980   35.8730 C   0  0  0  0  0  0  0  0  0  0  0  0
   37.7980   27.4790   35.2700 C   0  0  0  0  0  0  0  0  0  0  0  0
   37.3220   27.2720   33.9820 C   0  0  0  0  0  0  0  0  0  0  0  0
   36.3600   28.4390   33.0960 Cl  0  0  0  0  0  0  0  0  0  0  0  0
   37.6200   26.0760   33.3640 C   0  0  0  0  0  0  0  0  0  0  0  0
   38.8990   26.6960   36.8920 H   0  0  0  0  0  0  0  0  0  0  0  0
   37.5370   28.4220   35.6980 H   0  0  0  0  0  0  0  0  0  0  0  0
   39.8000   22.6340   37.5200 C   0  0  0  0  0  0  0  0  0  0  0  0
   41.1180   22.3850   37.1750 C   0  0  0  0  0  0  0  0  0  0  0  0
   41.6770   23.1650   36.1230 C   0  0  0  0  0  0  0  0  0  0  0  0
   40.8730   24.0900   35.5420 N   0  0  0  0  0  0  0  0  0  0  0  0
   39.5960   24.3070   35.9010 C   0  0  0  0  0  0  0  0  0  0  0  0
   39.0790   23.5630   36.8980 N   0  0  0  0  0  0  0  0  0  0  0  0
   39.4270   21.9990   38.3390 H   0  0  0  0  0  0  0  0  0  0  0  0
   41.7450   21.6330   37.6600 H   0  0  0  0  0  0  0  0  0  0  0  0
   42.6840   23.0000   35.8320 H   0  0  0  0  0  0  0  0  0  0  0  0
   37.1120   25.8310   31.9780 C   0  0  0  0  0  0  0  0  0  0  0  0
   37.9270   25.4730   31.3350 H   0  0  0  0  0  0  0  0  0  0  0  0
   36.8030   26.8290   31.5490 H   0  0  0  0  0  0  0  0  0  0  0  0
   35.8880   24.9790   31.9530 C   0  0  0  0  0  3  0  0  0  0  0  0
   34.9640   25.2880   30.7510 C   0  0  0  0  0  2  0  0  0  0  0  0
   35.6170   23.9300   30.9700 C   0  0  0  0  0  2  0  0  0  0  0  0
  1  2  1  0  0  0  0
  2  3  1  0  0  0  0
  3  4  2  0  0  0  0
  3 15  1  0  0  0  0
  4  9  1  0  0  0  0
  5 10  1  0  0  0  0
  5  4  1  0  0  0  0
  6  5  2  0  0  0  0
  7  6  1  0  0  0  0
  8  2  2  0  0  0  0
  8  6  1  0  0  0  0
 11 17  1  0  0  0  0
 12 11  1  0  0  0  0
 12 18  1  0  0  0  0
 13 12  2  0  0  0  0
 14 15  2  0  0  0  0
 14 13  1  0  0  0  0
 15 16  1  0  0  0  0
 16 11  2  0  0  0  0
 19 13  1  0  0  0  0
 20  8  1  0  0  0  0
 21 20  1  0  0  0  0
 22 20  1  0  0  0  0
 23 20  1  0  0  0  0
 24 25  1  0  0  0  0
 24 23  1  0  0  0  0
 25 23  1  0  0  0  0
M  END
>  <minimizedAffinity>
-4.76062059

$$$$

 OpenBabel03272509013D

 25 27  0  0  0  0  0  0  0  0999 V2000
   38.2320   27.1310   36.0070 Cl  0  0  0  0  0  0  0  0  0  0  0  0
   37.7580   26.2720   34.5790 C   0  0  0  0  0  0  0  0  0  0  0  0
   37.9760   24.9140   34.4970 C   0  0  0  0  0  0  0  0  0  0  0  0
   37.6150   24.1950   33.3810 C   0  0  0  0  0  0  0  0  0  0  0  0
   37.0220   24.8060   32.3080 C   0  0  0  0  0  0  0  0  0  0  0  0
   36.7860   26.1730   32.3550 C   0  0  0  0  0  0  0  0  0  0  0  0
   36.0420   27.0810   31.0530 Cl  0  0  0  0  0  0  0  0  0  0  0  0
   37.1630   26.8600   33.4900 C   0  0  0  0  0  0  0  0  0  0  0  0
   37.7860   23.1120   33.3110 H   0  0  0  0  0  0  0  0  0  0  0  0
   36.7100   24.3270   31.4060 H   0  0  0  0  0  0  0  0  0  0  0  0
   40.4510   23.1610   36.5570 C   0  0  0  0  0  0  0  0  0  0  0  0
   39.7710   22.9190   37.7390 C   0  0  0  0  0  0  0  0  0  0  0  0
   38.4240   23.3750   37.8230 C   0  0  0  0  0  0  0  0  0  0  0  0
   37.9150   24.0090   36.7380 N   0  0  0  0  0  0  0  0  0  0  0  0
   38.6040   24.2280   35.6040 C   0  0  0  0  0  0  0  0  0  0  0  0
   39.8770   23.7930   35.5370 N   0  0  0  0  0  0  0  0  0  0  0  0
   41.4870   22.7860   36.5550 H   0  0  0  0  0  0  0  0  0  0  0  0
   40.2050   22.4050   38.6000 H   0  0  0  0  0  0  0  0  0  0  0  0
   37.8730   23.2070   38.7140 H   0  0  0  0  0  0  0  0  0  0  0  0
   36.9220   28.3350   33.5570 C   0  0  0  0  0  0  0  0  0  0  0  0
   37.0130   28.7790   32.5570 H   0  0  0  0  0  0  0  0  0  0  0  0
   37.7580   28.7880   34.1680 H   0  0  0  0  0  0  0  0  0  0  0  0
   35.6590   28.6820   34.2720 C   0  0  0  0  0  3  0  0  0  0  0  0
   35.5990   30.1690   34.6970 C   0  0  0  0  0  2  0  0  0  0  0  0
   34.6010   29.5370   33.7360 C   0  0  0  0  0  2  0  0  0  0  0  0
  2  1  1  0  0  0  0
  3  2  1  0  0  0  0
  3 15  1  0  0  0  0
  4  3  2  0  0  0  0
  5  6  2  0  0  0  0
  5  4  1  0  0  0  0
  6  8  1  0  0  0  0
  7  6  1  0  0  0  0
  8 20  1  0  0  0  0
  8  2  2  0  0  0  0
  9  4  1  0  0  0  0
 10  5  1  0  0  0  0
 11 12  1  0  0  0  0
 12 13  2  0  0  0  0
 12 18  1  0  0  0  0
 13 19  1  0  0  0  0
 14 13  1  0  0  0  0
 15 14  2  0  0  0  0
 16 15  1  0  0  0  0
 16 11  2  0  0  0  0
 17 11  1  0  0  0  0
 20 22  1  0  0  0  0
 20 23  1  0  0  0  0
 21 20  1  0  0  0  0
 23 24  1  0  0  0  0
 25 23  1  0  0  0  0
 25 24  1  0  0  0  0
M  END
>  <minimizedAffinity>
-4.74429226

$$$$

 OpenBabel03272509013D

 25 27  0  0  0  0  0  0  0  0999 V2000
   38.5800   24.7180   33.9110 Cl  0  0  0  0  0  0  0  0  0  0  0  0
   37.6770   23.2580   33.6840 C   0  0  0  0  0  0  0  0  0  0  0  0
   37.6840   22.2920   34.6670 C   0  0  0  0  0  0  0  0  0  0  0  0
   36.9800   21.1180   34.5250 C   0  0  0  0  0  0  0  0  0  0  0  0
   36.2440   20.8680   33.3980 C   0  0  0  0  0  0  0  0  0  0  0  0
   36.2120   21.8180   32.3860 C   0  0  0  0  0  0  0  0  0  0  0  0
   35.3170   21.6240   30.8920 Cl  0  0  0  0  0  0  0  0  0  0  0  0
   36.9310   22.9810   32.5650 C   0  0  0  0  0  0  0  0  0  0  0  0
   36.9830   20.3450   35.3050 H   0  0  0  0  0  0  0  0  0  0  0  0
   35.6690   19.9880   33.2060 H   0  0  0  0  0  0  0  0  0  0  0  0
   40.4350   22.3050   37.0910 C   0  0  0  0  0  0  0  0  0  0  0  0
   39.8910   22.9460   38.1900 C   0  0  0  0  0  0  0  0  0  0  0  0
   38.5390   23.3840   38.0880 C   0  0  0  0  0  0  0  0  0  0  0  0
   37.8930   23.1380   36.9220 N   0  0  0  0  0  0  0  0  0  0  0  0
   38.4520   22.5110   35.8710 C   0  0  0  0  0  0  0  0  0  0  0  0
   39.7310   22.1020   35.9800 N   0  0  0  0  0  0  0  0  0  0  0  0
   41.4820   21.9910   37.2320 H   0  0  0  0  0  0  0  0  0  0  0  0
   40.4330   23.1330   39.1200 H   0  0  0  0  0  0  0  0  0  0  0  0
   38.0890   23.8810   38.9120 H   0  0  0  0  0  0  0  0  0  0  0  0
   36.9140   24.0160   31.4830 C   0  0  0  0  0  0  0  0  0  0  0  0
   36.9040   23.5310   30.4980 H   0  0  0  0  0  0  0  0  0  0  0  0
   37.8920   24.5780   31.5370 H   0  0  0  0  0  0  0  0  0  0  0  0
   35.8440   25.0370   31.6780 C   0  0  0  0  0  3  0  0  0  0  0  0
   36.0330   26.2830   30.7800 C   0  0  0  0  0  2  0  0  0  0  0  0
   34.8160   25.3720   30.6930 C   0  0  0  0  0  2  0  0  0  0  0  0
  2  1  1  0  0  0  0
  2  3  1  0  0  0  0
  3 15  1  0  0  0  0
  4  3  2  0  0  0  0
  4  9  1  0  0  0  0
  5  4  1  0  0  0  0
  6  8  1  0  0  0  0
  6  5  2  0  0  0  0
  7  6  1  0  0  0  0
  8  2  2  0  0  0  0
 10  5  1  0  0  0  0
 11 17  1  0  0  0  0
 11 12  1  0  0  0  0
 12 18  1  0  0  0  0
 13 12  2  0  0  0  0
 13 19  1  0  0  0  0
 14 13  1  0  0  0  0
 15 16  1  0  0  0  0
 15 14  2  0  0  0  0
 16 11  2  0  0  0  0
 20 22  1  0  0  0  0
 20 23  1  0  0  0  0
 20  8  1  0  0  0  0
 21 20  1  0  0  0  0
 24 23  1  0  0  0  0
 25 24  1  0  0  0  0
 25 23  1  0  0  0  0
M  END
>  <minimizedAffinity>
-4.55845642

$$$$

 OpenBabel03272509013D

 25 27  0  0  0  0  0  0  0  0999 V2000
   37.8570   23.2860   33.7430 Cl  0  0  0  0  0  0  0  0  0  0  0  0
   38.7760   24.7530   33.6860 C   0  0  0  0  0  0  0  0  0  0  0  0
   39.3210   25.2610   34.8460 C   0  0  0  0  0  0  0  0  0  0  0  0
   40.0570   26.4230   34.8440 C   0  0  0  0  0  0  0  0  0  0  0  0
   40.2750   27.1190   33.6860 C   0  0  0  0  0  0  0  0  0  0  0  0
   39.7410   26.6390   32.4980 C   0  0  0  0  0  0  0  0  0  0  0  0
   39.9380   27.4320   30.9460 Cl  0  0  0  0  0  0  0  0  0  0  0  0
   39.0090   25.4710   32.5390 C   0  0  0  0  0  0  0  0  0  0  0  0
   40.4930   26.8320   35.7660 H   0  0  0  0  0  0  0  0  0  0  0  0
   40.8320   28.0260   33.5930 H   0  0  0  0  0  0  0  0  0  0  0  0
   37.9200   24.2470   38.0790 C   0  0  0  0  0  0  0  0  0  0  0  0
   38.7410   23.2040   38.4710 C   0  0  0  0  0  0  0  0  0  0  0  0
   39.8050   22.8440   37.5950 C   0  0  0  0  0  0  0  0  0  0  0  0
   39.9280   23.5520   36.4450 N   0  0  0  0  0  0  0  0  0  0  0  0
   39.1110   24.5610   36.0940 C   0  0  0  0  0  0  0  0  0  0  0  0
   38.1100   24.8920   36.9310 N   0  0  0  0  0  0  0  0  0  0  0  0
   37.1180   24.4760   38.7980 H   0  0  0  0  0  0  0  0  0  0  0  0
   38.6210   22.6480   39.4050 H   0  0  0  0  0  0  0  0  0  0  0  0
   40.4540   22.0480   37.8630 H   0  0  0  0  0  0  0  0  0  0  0  0
   38.4220   24.9390   31.2700 C   0  0  0  0  0  0  0  0  0  0  0  0
   38.3730   23.8420   31.3070 H   0  0  0  0  0  0  0  0  0  0  0  0
   39.1420   25.1830   30.4340 H   0  0  0  0  0  0  0  0  0  0  0  0
   37.1360   25.6010   30.9070 C   0  0  0  0  0  3  0  0  0  0  0  0
   35.9190   24.6490   31.0120 C   0  0  0  0  0  2  0  0  0  0  0  0
   36.0600   25.9150   31.8480 C   0  0  0  0  0  2  0  0  0  0  0  0
  2  1  1  0  0  0  0
  2  3  1  0  0  0  0
  3 15  1  0  0  0  0
  4  3  2  0  0  0  0
  4  9  1  0  0  0  0
  5  4  1  0  0  0  0
  6  8  1  0  0  0  0
  6  5  2  0  0  0  0
  7  6  1  0  0  0  0
  8  2  2  0  0  0  0
 10  5  1  0  0  0  0
 11 12  1  0  0  0  0
 11 17  1  0  0  0  0
 12 18  1  0  0  0  0
 13 19  1  0  0  0  0
 13 12  2  0  0  0  0
 14 13  1  0  0  0  0
 15 14  2  0  0  0  0
 15 16  1  0  0  0  0
 16 11  2  0  0  0  0
 20 21  1  0  0  0  0
 20  8  1  0  0  0  0
 22 20  1  0  0  0  0
 23 24  1  0  0  0  0
 23 20  1  0  0  0  0
 23 25  1  0  0  0  0
 24 25  1  0  0  0  0
M  END
>  <minimizedAffinity>
-4.49441862

$$$$

 OpenBabel03272509013D

 25 27  0  0  0  0  0  0  0  0999 V2000
   37.8710   23.2740   33.7280 Cl  0  0  0  0  0  0  0  0  0  0  0  0
   38.7810   24.7460   33.6720 C   0  0  0  0  0  0  0  0  0  0  0  0
   39.3350   25.2480   34.8300 C   0  0  0  0  0  0  0  0  0  0  0  0
   40.0650   26.4150   34.8300 C   0  0  0  0  0  0  0  0  0  0  0  0
   40.2660   27.1210   33.6740 C   0  0  0  0  0  0  0  0  0  0  0  0
   39.7230   26.6460   32.4880 C   0  0  0  0  0  0  0  0  0  0  0  0
   39.8990   27.4520   30.9410 Cl  0  0  0  0  0  0  0  0  0  0  0  0
   38.9990   25.4740   32.5290 C   0  0  0  0  0  0  0  0  0  0  0  0
   40.5090   26.8200   35.7490 H   0  0  0  0  0  0  0  0  0  0  0  0
   40.8170   28.0320   33.5820 H   0  0  0  0  0  0  0  0  0  0  0  0
   39.7570   22.8590   37.5790 C   0  0  0  0  0  0  0  0  0  0  0  0
   38.7460   23.2030   38.4600 C   0  0  0  0  0  0  0  0  0  0  0  0
   37.8990   24.2880   38.0930 C   0  0  0  0  0  0  0  0  0  0  0  0
   38.1510   24.8980   36.9090 N   0  0  0  0  0  0  0  0  0  0  0  0
   39.1430   24.5380   36.0750 C   0  0  0  0  0  0  0  0  0  0  0  0
   39.9360   23.5110   36.4330 N   0  0  0  0  0  0  0  0  0  0  0  0
   40.3760   22.0140   37.9200 H   0  0  0  0  0  0  0  0  0  0  0  0
   38.5640   22.6940   39.4100 H   0  0  0  0  0  0  0  0  0  0  0  0
   37.1150   24.5790   38.7460 H   0  0  0  0  0  0  0  0  0  0  0  0
   38.4010   24.9480   31.2610 C   0  0  0  0  0  0  0  0  0  0  0  0
   38.3460   23.8520   31.2970 H   0  0  0  0  0  0  0  0  0  0  0  0
   39.1180   25.1900   30.4230 H   0  0  0  0  0  0  0  0  0  0  0  0
   37.1160   25.6180   30.9070 C   0  0  0  0  0  3  0  0  0  0  0  0
   35.8950   24.6730   31.0160 C   0  0  0  0  0  2  0  0  0  0  0  0
   36.0480   25.9360   31.8550 C   0  0  0  0  0  2  0  0  0  0  0  0
  2  1  1  0  0  0  0
  2  3  1  0  0  0  0
  3 15  1  0  0  0  0
  4  3  2  0  0  0  0
  4  9  1  0  0  0  0
  5  4  1  0  0  0  0
  6  8  1  0  0  0  0
  6  5  2  0  0  0  0
  7  6  1  0  0  0  0
  8  2  2  0  0  0  0
 10  5  1  0  0  0  0
 11 17  1  0  0  0  0
 11 12  1  0  0  0  0
 12 18  1  0  0  0  0
 13 12  2  0  0  0  0
 13 19  1  0  0  0  0
 14 13  1  0  0  0  0
 15 16  1  0  0  0  0
 15 14  2  0  0  0  0
 16 11  2  0  0  0  0
 20 21  1  0  0  0  0
 20  8  1  0  0  0  0
 22 20  1  0  0  0  0
 23 24  1  0  0  0  0
 23 20  1  0  0  0  0
 23 25  1  0  0  0  0
 24 25  1  0  0  0  0
M  END
>  <minimizedAffinity>
-4.48749828

$$$$

 OpenBabel03272509013D

 25 27  0  0  0  0  0  0  0  0999 V2000
   38.4060   24.0720   32.9110 Cl  0  0  0  0  0  0  0  0  0  0  0  0
   38.1530   25.4690   33.9020 C   0  0  0  0  0  0  0  0  0  0  0  0
   38.8230   25.5840   35.1010 C   0  0  0  0  0  0  0  0  0  0  0  0
   38.6500   26.6780   35.9180 C   0  0  0  0  0  0  0  0  0  0  0  0
   37.8030   27.6950   35.5670 C   0  0  0  0  0  0  0  0  0  0  0  0
   37.1110   27.6130   34.3660 C   0  0  0  0  0  0  0  0  0  0  0  0
   35.9920   28.8390   33.7980 Cl  0  0  0  0  0  0  0  0  0  0  0  0
   37.3100   26.5020   33.5740 C   0  0  0  0  0  0  0  0  0  0  0  0
   39.1820   26.7750   36.8740 H   0  0  0  0  0  0  0  0  0  0  0  0
   37.6090   28.5770   36.1370 H   0  0  0  0  0  0  0  0  0  0  0  0
   41.8420   23.5450   35.5150 C   0  0  0  0  0  0  0  0  0  0  0  0
   41.4170   22.5040   36.3220 C   0  0  0  0  0  0  0  0  0  0  0  0
   40.0530   22.5090   36.7310 C   0  0  0  0  0  0  0  0  0  0  0  0
   39.2790   23.5340   36.2990 N   0  0  0  0  0  0  0  0  0  0  0  0
   39.7240   24.5320   35.5140 C   0  0  0  0  0  0  0  0  0  0  0  0
   41.0160   24.5160   35.1330 N   0  0  0  0  0  0  0  0  0  0  0  0
   42.9050   23.4850   35.2330 H   0  0  0  0  0  0  0  0  0  0  0  0
   42.0620   21.6880   36.6570 H   0  0  0  0  0  0  0  0  0  0  0  0
   39.6930   21.7260   37.3520 H   0  0  0  0  0  0  0  0  0  0  0  0
   36.5690   26.3940   32.2790 C   0  0  0  0  0  0  0  0  0  0  0  0
   35.6070   26.9190   32.3490 H   0  0  0  0  0  0  0  0  0  0  0  0
   36.3110   25.3040   32.1270 H   0  0  0  0  0  0  0  0  0  0  0  0
   37.4010   26.7840   31.1040 C   0  0  0  0  0  3  0  0  0  0  0  0
   36.7950   27.9640   30.3050 C   0  0  0  0  0  2  0  0  0  0  0  0
   38.1550   28.0330   30.9890 C   0  0  0  0  0  2  0  0  0  0  0  0
  1  2  1  0  0  0  0
  2  3  1  0  0  0  0
  3 15  1  0  0  0  0
  3  4  2  0  0  0  0
  4  9  1  0  0  0  0
  5  4  1  0  0  0  0
  5 10  1  0  0  0  0
  6  5  2  0  0  0  0
  7  6  1  0  0  0  0
  8  2  2  0  0  0  0
  8  6  1  0  0  0  0
 11 12  1  0  0  0  0
 12 18  1  0  0  0  0
 12 13  2  0  0  0  0
 13 19  1  0  0  0  0
 14 13  1  0  0  0  0
 15 14  2  0  0  0  0
 16 15  1  0  0  0  0
 16 11  2  0  0  0  0
 17 11  1  0  0  0  0
 20 21  1  0  0  0  0
 20  8  1  0  0  0  0
 22 20  1  0  0  0  0
 23 20  1  0  0  0  0
 24 25  1  0  0  0  0
 24 23  1  0  0  0  0
 25 23  1  0  0  0  0
M  END
>  <minimizedAffinity>
-4.47422028

$$$$
