
 OpenBabel03272501173D

 29 32  0  0  1  0  0  0  0  0999 V2000
   37.2930   26.8550   35.1030 C   0  0  1  0  0  0  0  0  0  0  0  0
   38.1470   25.7950   35.5360 C   0  0  1  0  0  0  0  0  0  0  0  0
   38.5470   27.1930   35.9360 C   0  0  0  0  0  0  0  0  0  0  0  0
   36.3440   27.0900   35.6720 H   0  0  0  0  0  0  0  0  0  0  0  0
   38.8160   25.3250   34.7530 H   0  0  0  0  0  0  0  0  0  0  0  0
   39.4140   27.6370   35.4300 H   0  0  0  0  0  0  0  0  0  0  0  0
   38.4030   27.3830   37.0140 H   0  0  0  0  0  0  0  0  0  0  0  0
   37.3870   27.4300   33.7020 C   0  0  0  0  0  0  0  0  0  0  0  0
   36.4040   28.3460   33.3680 C   0  0  0  0  0  0  0  0  0  0  0  0
   36.4910   28.8510   32.0510 C   0  0  0  0  0  0  0  0  0  0  0  0
   37.4730   28.4430   31.2230 N   0  0  0  0  0  0  0  0  0  0  0  0
   38.4240   27.5320   31.6030 C   0  0  0  0  0  0  0  0  0  0  0  0
   38.3760   27.0160   32.8740 N   0  0  0  0  0  0  0  0  0  0  0  0
   35.6490   28.6280   34.0790 H   0  0  0  0  0  0  0  0  0  0  0  0
   35.7440   29.5700   31.7450 H   0  0  0  0  0  0  0  0  0  0  0  0
   39.2000   27.2190   30.9250 H   0  0  0  0  0  0  0  0  0  0  0  0
   37.6460   24.7980   36.5310 C   0  0  0  0  0  0  0  0  0  0  0  0
   36.7530   24.2500   36.2160 H   0  0  0  0  0  0  0  0  0  0  0  0
   37.3940   25.3590   37.4750 H   0  0  0  0  0  0  0  0  0  0  0  0
   38.6980   23.8260   36.9470 C   0  0  0  0  0  0  0  0  0  0  0  0
   38.7740   23.3200   38.2330 C   0  0  0  0  0  0  0  0  0  0  0  0
   39.7940   22.4690   38.3750 N   0  0  0  0  0  0  0  0  0  0  0  0
   40.3760   22.4390   37.1480 C   0  0  0  0  0  0  0  0  0  0  0  0
   39.7150   23.2550   36.2940 N   0  0  0  0  0  0  0  0  0  0  0  0
   38.1110   23.5550   39.0570 H   0  0  0  0  0  0  0  0  0  0  0  0
   40.0760   21.9490   39.2380 H   0  0  0  0  0  0  0  0  0  0  0  0
   41.5680   21.6080   36.8470 C   0  0  0  0  0  3  0  0  0  0  0  0
   42.2120   21.6120   35.5280 C   0  0  0  0  0  2  0  0  0  0  0  0
   42.8180   22.4600   36.5900 C   0  0  0  0  0  2  0  0  0  0  0  0
  1  2  1  0  0  0  0
  1  4  1  1  0  0  0
  1  3  1  0  0  0  0
  2  5  1  6  0  0  0
  2  3  1  0  0  0  0
  2 17  1  0  0  0  0
  3  7  1  0  0  0  0
  6  3  1  0  0  0  0
  8  1  1  0  0  0  0
  9  8  1  0  0  0  0
  9 14  1  0  0  0  0
 10  9  2  0  0  0  0
 11 12  2  0  0  0  0
 11 10  1  0  0  0  0
 12 13  1  0  0  0  0
 13  8  2  0  0  0  0
 15 10  1  0  0  0  0
 16 12  1  0  0  0  0
 17 20  1  0  0  0  0
 17 19  1  0  0  0  0
 18 17  1  0  0  0  0
 20 21  2  0  0  0  0
 21 22  1  0  0  0  0
 21 25  1  0  0  0  0
 22 26  1  0  0  0  0
 23 22  1  0  0  0  0
 24 20  1  0  0  0  0
 24 23  2  0  0  0  0
 27 23  1  0  0  0  0
 28 29  1  0  0  0  0
 28 27  1  0  0  0  0
 29 27  1  0  0  0  0
M  END
>  <minimizedAffinity>
-5.32626534

$$$$

 OpenBabel03272501173D

 29 32  0  0  1  0  0  0  0  0999 V2000
   38.8950   25.6310   34.7180 C   0  0  1  0  0  0  0  0  0  0  0  0
   37.7520   26.4270   34.4000 C   0  0  1  0  0  0  0  0  0  0  0  0
   38.8630   27.1090   35.1590 C   0  0  0  0  0  0  0  0  0  0  0  0
   39.6960   25.4490   33.9410 H   0  0  0  0  0  0  0  0  0  0  0  0
   36.8160   26.2430   35.0100 H   0  0  0  0  0  0  0  0  0  0  0  0
   38.6860   27.3420   36.2160 H   0  0  0  0  0  0  0  0  0  0  0  0
   39.4160   27.8350   34.5370 H   0  0  0  0  0  0  0  0  0  0  0  0
   38.9060   24.6970   35.9140 C   0  0  0  0  0  0  0  0  0  0  0  0
   39.9600   23.7990   35.9580 C   0  0  0  0  0  0  0  0  0  0  0  0
   39.9400   22.9200   37.0640 C   0  0  0  0  0  0  0  0  0  0  0  0
   38.9520   22.9890   37.9780 N   0  0  0  0  0  0  0  0  0  0  0  0
   37.9290   23.8970   37.8880 C   0  0  0  0  0  0  0  0  0  0  0  0
   37.9110   24.7710   36.8290 N   0  0  0  0  0  0  0  0  0  0  0  0
   40.7160   23.7990   35.1940 H   0  0  0  0  0  0  0  0  0  0  0  0
   40.7440   22.2010   37.1410 H   0  0  0  0  0  0  0  0  0  0  0  0
   37.1500   23.9350   38.6290 H   0  0  0  0  0  0  0  0  0  0  0  0
   37.4490   26.7520   32.9730 C   0  0  0  0  0  0  0  0  0  0  0  0
   38.3200   27.0400   32.3770 H   0  0  0  0  0  0  0  0  0  0  0  0
   36.7240   27.6140   32.9700 H   0  0  0  0  0  0  0  0  0  0  0  0
   36.7200   25.6520   32.2780 C   0  0  0  0  0  0  0  0  0  0  0  0
   35.6370   25.8880   31.4480 C   0  0  0  0  0  0  0  0  0  0  0  0
   35.1450   24.7550   30.9370 N   0  0  0  0  0  0  0  0  0  0  0  0
   35.9350   23.7830   31.4600 C   0  0  0  0  0  0  0  0  0  0  0  0
   36.8790   24.3240   32.2640 N   0  0  0  0  0  0  0  0  0  0  0  0
   35.2070   26.8530   31.2100 H   0  0  0  0  0  0  0  0  0  0  0  0
   34.3330   24.6500   30.2850 H   0  0  0  0  0  0  0  0  0  0  0  0
   35.7420   22.3430   31.1550 C   0  0  0  0  0  3  0  0  0  0  0  0
   36.4830   21.2880   31.8550 C   0  0  0  0  0  2  0  0  0  0  0  0
   35.1020   21.5830   32.3240 C   0  0  0  0  0  2  0  0  0  0  0  0
  1  4  1  6  0  0  0
  1  3  1  0  0  0  0
  1  8  1  0  0  0  0
  2  1  1  0  0  0  0
  2  5  1  1  0  0  0
  2  3  1  0  0  0  0
  3  6  1  0  0  0  0
  7  3  1  0  0  0  0
  8  9  2  0  0  0  0
  8 13  1  0  0  0  0
  9 10  1  0  0  0  0
 10 15  1  0  0  0  0
 10 11  2  0  0  0  0
 12 11  1  0  0  0  0
 12 16  1  0  0  0  0
 13 12  2  0  0  0  0
 14  9  1  0  0  0  0
 17  2  1  0  0  0  0
 18 17  1  0  0  0  0
 19 17  1  0  0  0  0
 20 17  1  0  0  0  0
 21 20  2  0  0  0  0
 22 21  1  0  0  0  0
 22 23  1  0  0  0  0
 23 24  2  0  0  0  0
 24 20  1  0  0  0  0
 25 21  1  0  0  0  0
 26 22  1  0  0  0  0
 27 23  1  0  0  0  0
 27 28  1  0  0  0  0
 27 29  1  0  0  0  0
 28 29  1  0  0  0  0
M  END
>  <minimizedAffinity>
-4.99397421

$$$$

 OpenBabel03272501173D

 29 32  0  0  1  0  0  0  0  0999 V2000
   38.6000   25.5940   34.9590 C   0  0  1  0  0  0  0  0  0  0  0  0
   37.6500   26.6600   34.9260 C   0  0  1  0  0  0  0  0  0  0  0  0
   39.0720   27.0300   35.2650 C   0  0  0  0  0  0  0  0  0  0  0  0
   39.0540   25.2060   33.9990 H   0  0  0  0  0  0  0  0  0  0  0  0
   36.9300   26.7310   35.7970 H   0  0  0  0  0  0  0  0  0  0  0  0
   39.2910   27.3050   36.3050 H   0  0  0  0  0  0  0  0  0  0  0  0
   39.5710   27.5840   34.4510 H   0  0  0  0  0  0  0  0  0  0  0  0
   38.7430   24.6940   36.1730 C   0  0  0  0  0  0  0  0  0  0  0  0
   39.7050   23.7030   36.0680 C   0  0  0  0  0  0  0  0  0  0  0  0
   39.8070   22.8580   37.1960 C   0  0  0  0  0  0  0  0  0  0  0  0
   39.0080   23.0430   38.2660 N   0  0  0  0  0  0  0  0  0  0  0  0
   38.0700   24.0400   38.3200 C   0  0  0  0  0  0  0  0  0  0  0  0
   37.9390   24.8840   37.2450 N   0  0  0  0  0  0  0  0  0  0  0  0
   40.3090   23.6120   35.1830 H   0  0  0  0  0  0  0  0  0  0  0  0
   40.5450   22.0680   37.1600 H   0  0  0  0  0  0  0  0  0  0  0  0
   37.4420   24.1700   39.1840 H   0  0  0  0  0  0  0  0  0  0  0  0
   37.0160   27.0490   33.6290 C   0  0  0  0  0  0  0  0  0  0  0  0
   36.3130   26.3130   33.2280 H   0  0  0  0  0  0  0  0  0  0  0  0
   37.8430   27.1850   32.8760 H   0  0  0  0  0  0  0  0  0  0  0  0
   36.3510   28.3810   33.6940 C   0  0  0  0  0  0  0  0  0  0  0  0
   35.8360   29.0090   32.5730 C   0  0  0  0  0  0  0  0  0  0  0  0
   35.2880   30.1910   32.8710 N   0  0  0  0  0  0  0  0  0  0  0  0
   35.4630   30.3110   34.2120 C   0  0  0  0  0  0  0  0  0  0  0  0
   36.1010   29.2240   34.7030 N   0  0  0  0  0  0  0  0  0  0  0  0
   35.8500   28.6290   31.5590 H   0  0  0  0  0  0  0  0  0  0  0  0
   34.8310   30.8660   32.2150 H   0  0  0  0  0  0  0  0  0  0  0  0
   34.9980   31.4940   34.9780 C   0  0  0  0  0  3  0  0  0  0  0  0
   35.3750   31.7180   36.3790 C   0  0  0  0  0  2  0  0  0  0  0  0
   36.1500   32.4430   35.3360 C   0  0  0  0  0  2  0  0  0  0  0  0
  1  4  1  6  0  0  0
  1  3  1  0  0  0  0
  1  8  1  0  0  0  0
  2  1  1  0  0  0  0
  2  3  1  0  0  0  0
  2  5  1  1  0  0  0
  3  6  1  0  0  0  0
  7  3  1  0  0  0  0
  8 13  1  0  0  0  0
  9  8  2  0  0  0  0
  9 10  1  0  0  0  0
 10 11  2  0  0  0  0
 11 12  1  0  0  0  0
 12 16  1  0  0  0  0
 13 12  2  0  0  0  0
 14  9  1  0  0  0  0
 15 10  1  0  0  0  0
 17 20  1  0  0  0  0
 17  2  1  0  0  0  0
 18 17  1  0  0  0  0
 19 17  1  0  0  0  0
 20 24  1  0  0  0  0
 21 22  1  0  0  0  0
 21 20  2  0  0  0  0
 22 23  1  0  0  0  0
 23 24  2  0  0  0  0
 23 27  1  0  0  0  0
 25 21  1  0  0  0  0
 26 22  1  0  0  0  0
 27 29  1  0  0  0  0
 27 28  1  0  0  0  0
 29 28  1  0  0  0  0
M  END
>  <minimizedAffinity>
-4.96739388

$$$$

 OpenBabel03272501173D

 29 32  0  0  1  0  0  0  0  0999 V2000
   35.7730   30.2340   34.2700 C   0  0  1  0  0  0  0  0  0  0  0  0
   35.5160   28.8900   33.8560 C   0  0  1  0  0  0  0  0  0  0  0  0
   34.9630   29.9860   32.9800 C   0  0  0  0  0  0  0  0  0  0  0  0
   36.7690   30.7180   34.0460 H   0  0  0  0  0  0  0  0  0  0  0  0
   34.7310   28.3170   34.4370 H   0  0  0  0  0  0  0  0  0  0  0  0
   33.8780   30.1500   32.9960 H   0  0  0  0  0  0  0  0  0  0  0  0
   35.5010   30.0730   32.0200 H   0  0  0  0  0  0  0  0  0  0  0  0
   34.9270   30.9130   35.3320 C   0  0  0  0  0  0  0  0  0  0  0  0
   35.5750   31.8840   36.0760 C   0  0  0  0  0  0  0  0  0  0  0  0
   34.7820   32.4880   37.0770 C   0  0  0  0  0  0  0  0  0  0  0  0
   33.4990   32.1140   37.2540 N   0  0  0  0  0  0  0  0  0  0  0  0
   32.9030   31.1450   36.4890 C   0  0  0  0  0  0  0  0  0  0  0  0
   33.6390   30.5330   35.5050 N   0  0  0  0  0  0  0  0  0  0  0  0
   36.6030   32.1340   35.8810 H   0  0  0  0  0  0  0  0  0  0  0  0
   35.2460   33.2520   37.6850 H   0  0  0  0  0  0  0  0  0  0  0  0
   31.8770   30.8620   36.6480 H   0  0  0  0  0  0  0  0  0  0  0  0
   36.6510   28.0200   33.4190 C   0  0  0  0  0  0  0  0  0  0  0  0
   37.4380   28.5420   32.8660 H   0  0  0  0  0  0  0  0  0  0  0  0
   36.2250   27.2230   32.7470 H   0  0  0  0  0  0  0  0  0  0  0  0
   37.2610   27.2650   34.5500 C   0  0  0  0  0  0  0  0  0  0  0  0
   38.0090   27.8840   35.5380 C   0  0  0  0  0  0  0  0  0  0  0  0
   38.4540   27.0110   36.4460 N   0  0  0  0  0  0  0  0  0  0  0  0
   37.9780   25.8130   36.0190 C   0  0  0  0  0  0  0  0  0  0  0  0
   37.2620   25.9690   34.8820 N   0  0  0  0  0  0  0  0  0  0  0  0
   38.2310   28.9410   35.6090 H   0  0  0  0  0  0  0  0  0  0  0  0
   39.0390   27.2120   37.2910 H   0  0  0  0  0  0  0  0  0  0  0  0
   38.2380   24.5430   36.7430 C   0  0  0  0  0  3  0  0  0  0  0  0
   37.9990   23.2310   36.1310 C   0  0  0  0  0  2  0  0  0  0  0  0
   39.3940   23.7480   36.1200 C   0  0  0  0  0  2  0  0  0  0  0  0
  1  4  1  6  0  0  0
  1  8  1  0  0  0  0
  2  1  1  0  0  0  0
  2  5  1  1  0  0  0
  3  6  1  0  0  0  0
  3  2  1  0  0  0  0
  3  1  1  0  0  0  0
  7  3  1  0  0  0  0
  8 13  2  0  0  0  0
  8  9  1  0  0  0  0
  9 10  2  0  0  0  0
 10 11  1  0  0  0  0
 10 15  1  0  0  0  0
 12 16  1  0  0  0  0
 12 11  2  0  0  0  0
 13 12  1  0  0  0  0
 14  9  1  0  0  0  0
 17  2  1  0  0  0  0
 17 20  1  0  0  0  0
 18 17  1  0  0  0  0
 19 17  1  0  0  0  0
 20 24  1  0  0  0  0
 20 21  2  0  0  0  0
 21 25  1  0  0  0  0
 21 22  1  0  0  0  0
 22 26  1  0  0  0  0
 23 22  1  0  0  0  0
 23 27  1  0  0  0  0
 24 23  2  0  0  0  0
 28 27  1  0  0  0  0
 29 28  1  0  0  0  0
 29 27  1  0  0  0  0
M  END
>  <minimizedAffinity>
-4.81544495

$$$$

 OpenBabel03272501173D

 29 32  0  0  1  0  0  0  0  0999 V2000
   37.6250   26.4590   35.2210 C   0  0  1  0  0  0  0  0  0  0  0  0
   38.9260   25.9130   34.9920 C   0  0  1  0  0  0  0  0  0  0  0  0
   38.8650   27.2490   35.6880 C   0  0  0  0  0  0  0  0  0  0  0  0
   37.0060   26.1050   36.0980 H   0  0  0  0  0  0  0  0  0  0  0  0
   39.3190   25.9570   33.9300 H   0  0  0  0  0  0  0  0  0  0  0  0
   39.1760   28.1330   35.1170 H   0  0  0  0  0  0  0  0  0  0  0  0
   39.1360   27.1820   36.7570 H   0  0  0  0  0  0  0  0  0  0  0  0
   36.8720   27.2030   34.1340 C   0  0  0  0  0  0  0  0  0  0  0  0
   36.8960   26.6110   32.8820 C   0  0  0  0  0  0  0  0  0  0  0  0
   36.2130   27.3300   31.8770 C   0  0  0  0  0  0  0  0  0  0  0  0
   35.6000   28.4970   32.1630 N   0  0  0  0  0  0  0  0  0  0  0  0
   35.6060   29.0410   33.4200 C   0  0  0  0  0  0  0  0  0  0  0  0
   36.2590   28.3740   34.4270 N   0  0  0  0  0  0  0  0  0  0  0  0
   37.4050   25.6770   32.7240 H   0  0  0  0  0  0  0  0  0  0  0  0
   36.2040   26.9070   30.8820 H   0  0  0  0  0  0  0  0  0  0  0  0
   35.1110   29.9740   33.6270 H   0  0  0  0  0  0  0  0  0  0  0  0
   39.3410   24.6650   35.7020 C   0  0  0  0  0  0  0  0  0  0  0  0
   39.3710   24.7500   36.7920 H   0  0  0  0  0  0  0  0  0  0  0  0
   40.3770   24.4020   35.3450 H   0  0  0  0  0  0  0  0  0  0  0  0
   38.5090   23.4860   35.3220 C   0  0  0  0  0  0  0  0  0  0  0  0
   37.8770   22.6910   36.2620 C   0  0  0  0  0  0  0  0  0  0  0  0
   37.1900   21.6970   35.6930 N   0  0  0  0  0  0  0  0  0  0  0  0
   37.3950   21.8690   34.3620 C   0  0  0  0  0  0  0  0  0  0  0  0
   38.1880   22.9440   34.1430 N   0  0  0  0  0  0  0  0  0  0  0  0
   37.9050   22.8190   37.3370 H   0  0  0  0  0  0  0  0  0  0  0  0
   36.6250   20.9560   36.1700 H   0  0  0  0  0  0  0  0  0  0  0  0
   36.8070   20.9710   33.3370 C   0  0  0  0  0  3  0  0  0  0  0  0
   35.5300   20.2780   33.5430 C   0  0  0  0  0  2  0  0  0  0  0  0
   35.5060   21.5360   32.7500 C   0  0  0  0  0  2  0  0  0  0  0  0
  1  3  1  0  0  0  0
  1  4  1  1  0  0  0
  2  5  1  6  0  0  0
  2  1  1  0  0  0  0
  2  3  1  0  0  0  0
  2 17  1  0  0  0  0
  3  7  1  0  0  0  0
  6  3  1  0  0  0  0
  8 13  1  0  0  0  0
  8  1  1  0  0  0  0
  9  8  2  0  0  0  0
 10 11  2  0  0  0  0
 10  9  1  0  0  0  0
 11 12  1  0  0  0  0
 12 16  1  0  0  0  0
 12 13  2  0  0  0  0
 14  9  1  0  0  0  0
 15 10  1  0  0  0  0
 17 18  1  0  0  0  0
 19 17  1  0  0  0  0
 20 17  1  0  0  0  0
 20 21  2  0  0  0  0
 21 25  1  0  0  0  0
 22 26  1  0  0  0  0
 22 21  1  0  0  0  0
 23 22  1  0  0  0  0
 24 23  2  0  0  0  0
 24 20  1  0  0  0  0
 27 28  1  0  0  0  0
 27 23  1  0  0  0  0
 29 27  1  0  0  0  0
 29 28  1  0  0  0  0
M  END
>  <minimizedAffinity>
-4.77834415

$$$$

 OpenBabel03272501173D

 29 32  0  0  1  0  0  0  0  0999 V2000
   38.4520   25.7290   34.9590 C   0  0  1  0  0  0  0  0  0  0  0  0
   37.7160   26.9040   35.3020 C   0  0  1  0  0  0  0  0  0  0  0  0
   39.2150   27.0480   35.2040 C   0  0  0  0  0  0  0  0  0  0  0  0
   38.5300   25.4010   33.8800 H   0  0  0  0  0  0  0  0  0  0  0  0
   37.3110   26.9640   36.3590 H   0  0  0  0  0  0  0  0  0  0  0  0
   39.7750   27.1700   36.1390 H   0  0  0  0  0  0  0  0  0  0  0  0
   39.5270   27.6250   34.3160 H   0  0  0  0  0  0  0  0  0  0  0  0
   38.8090   24.6820   35.9980 C   0  0  0  0  0  0  0  0  0  0  0  0
   37.9870   24.6450   37.1110 C   0  0  0  0  0  0  0  0  0  0  0  0
   38.3490   23.6830   38.0810 C   0  0  0  0  0  0  0  0  0  0  0  0
   39.4200   22.8870   37.8900 N   0  0  0  0  0  0  0  0  0  0  0  0
   40.2040   22.9640   36.7690 C   0  0  0  0  0  0  0  0  0  0  0  0
   39.8860   23.8850   35.8010 N   0  0  0  0  0  0  0  0  0  0  0  0
   37.1480   25.3110   37.1990 H   0  0  0  0  0  0  0  0  0  0  0  0
   37.7360   23.6170   38.9690 H   0  0  0  0  0  0  0  0  0  0  0  0
   41.0550   22.3180   36.6370 H   0  0  0  0  0  0  0  0  0  0  0  0
   36.7920   27.5190   34.3010 C   0  0  0  0  0  0  0  0  0  0  0  0
   36.6490   28.5980   34.4160 H   0  0  0  0  0  0  0  0  0  0  0  0
   35.7890   27.0210   34.4170 H   0  0  0  0  0  0  0  0  0  0  0  0
   37.1930   27.2230   32.8960 C   0  0  0  0  0  0  0  0  0  0  0  0
   36.5740   26.2430   32.1380 C   0  0  0  0  0  0  0  0  0  0  0  0
   37.0980   26.1560   30.9120 N   0  0  0  0  0  0  0  0  0  0  0  0
   38.0710   27.1040   30.8970 C   0  0  0  0  0  0  0  0  0  0  0  0
   38.1250   27.7420   32.0890 N   0  0  0  0  0  0  0  0  0  0  0  0
   35.7620   25.6010   32.4560 H   0  0  0  0  0  0  0  0  0  0  0  0
   36.8180   25.5030   30.1440 H   0  0  0  0  0  0  0  0  0  0  0  0
   38.9240   27.3580   29.7090 C   0  0  0  0  0  3  0  0  0  0  0  0
   40.1820   28.1070   29.7950 C   0  0  0  0  0  2  0  0  0  0  0  0
   40.2680   26.6220   29.7920 C   0  0  0  0  0  2  0  0  0  0  0  0
  1  4  1  6  0  0  0
  1  3  1  0  0  0  0
  1  2  1  0  0  0  0
  1  8  1  0  0  0  0
  2  5  1  1  0  0  0
  3  2  1  0  0  0  0
  3  6  1  0  0  0  0
  7  3  1  0  0  0  0
  8  9  1  0  0  0  0
  9 14  1  0  0  0  0
  9 10  2  0  0  0  0
 10 15  1  0  0  0  0
 11 10  1  0  0  0  0
 12 11  2  0  0  0  0
 13  8  2  0  0  0  0
 13 12  1  0  0  0  0
 16 12  1  0  0  0  0
 17 18  1  0  0  0  0
 17 19  1  0  0  0  0
 17  2  1  0  0  0  0
 20 17  1  0  0  0  0
 21 25  1  0  0  0  0
 21 20  2  0  0  0  0
 22 21  1  0  0  0  0
 23 22  1  0  0  0  0
 23 24  2  0  0  0  0
 24 20  1  0  0  0  0
 26 22  1  0  0  0  0
 27 29  1  0  0  0  0
 27 28  1  0  0  0  0
 27 23  1  0  0  0  0
 29 28  1  0  0  0  0
M  END
>  <minimizedAffinity>
-4.59214783

$$$$

 OpenBabel03272501173D

 29 32  0  0  1  0  0  0  0  0999 V2000
   35.6860   30.1990   34.6570 C   0  0  1  0  0  0  0  0  0  0  0  0
   35.5880   29.0390   33.8280 C   0  0  1  0  0  0  0  0  0  0  0  0
   35.4300   30.3750   33.1450 C   0  0  0  0  0  0  0  0  0  0  0  0
   36.7000   30.6020   34.9530 H   0  0  0  0  0  0  0  0  0  0  0  0
   34.6310   28.4370   33.9020 H   0  0  0  0  0  0  0  0  0  0  0  0
   34.4250   30.6560   32.8080 H   0  0  0  0  0  0  0  0  0  0  0  0
   36.2970   30.6310   32.5110 H   0  0  0  0  0  0  0  0  0  0  0  0
   34.5090   30.6910   35.4780 C   0  0  0  0  0  0  0  0  0  0  0  0
   34.7850   31.7320   36.3480 C   0  0  0  0  0  0  0  0  0  0  0  0
   33.6850   32.1610   37.1230 C   0  0  0  0  0  0  0  0  0  0  0  0
   32.4800   31.5700   36.9910 N   0  0  0  0  0  0  0  0  0  0  0  0
   32.2590   30.5400   36.1140 C   0  0  0  0  0  0  0  0  0  0  0  0
   33.3020   30.0940   35.3410 N   0  0  0  0  0  0  0  0  0  0  0  0
   35.7710   32.1580   36.4020 H   0  0  0  0  0  0  0  0  0  0  0  0
   33.8530   32.9730   37.8180 H   0  0  0  0  0  0  0  0  0  0  0  0
   31.2890   30.0830   36.0250 H   0  0  0  0  0  0  0  0  0  0  0  0
   36.7900   28.1750   33.6160 C   0  0  0  0  0  0  0  0  0  0  0  0
   37.1960   27.7290   34.5280 H   0  0  0  0  0  0  0  0  0  0  0  0
   37.5910   28.8190   33.1560 H   0  0  0  0  0  0  0  0  0  0  0  0
   36.5520   27.1030   32.6070 C   0  0  0  0  0  0  0  0  0  0  0  0
   35.8340   27.3230   31.4440 C   0  0  0  0  0  0  0  0  0  0  0  0
   35.7500   26.2210   30.6940 N   0  0  0  0  0  0  0  0  0  0  0  0
   36.4300   25.2830   31.4020 C   0  0  0  0  0  0  0  0  0  0  0  0
   36.9100   25.8150   32.5490 N   0  0  0  0  0  0  0  0  0  0  0  0
   35.3790   28.2560   31.1360 H   0  0  0  0  0  0  0  0  0  0  0  0
   35.2660   26.1120   29.7720 H   0  0  0  0  0  0  0  0  0  0  0  0
   36.5910   23.8840   30.9310 C   0  0  0  0  0  3  0  0  0  0  0  0
   36.9960   22.7970   31.8300 C   0  0  0  0  0  2  0  0  0  0  0  0
   35.5440   22.9430   31.5410 C   0  0  0  0  0  2  0  0  0  0  0  0
  1  4  1  1  0  0  0
  1  8  1  0  0  0  0
  2  5  1  1  0  0  0
  2  1  1  0  0  0  0
  3  2  1  0  0  0  0
  3  1  1  0  0  0  0
  6  3  1  0  0  0  0
  7  3  1  0  0  0  0
  8  9  1  0  0  0  0
  9 14  1  0  0  0  0
  9 10  2  0  0  0  0
 10 15  1  0  0  0  0
 11 10  1  0  0  0  0
 12 11  2  0  0  0  0
 13  8  2  0  0  0  0
 13 12  1  0  0  0  0
 16 12  1  0  0  0  0
 17  2  1  0  0  0  0
 17 18  1  0  0  0  0
 19 17  1  0  0  0  0
 20 17  1  0  0  0  0
 21 20  2  0  0  0  0
 22 23  1  0  0  0  0
 22 21  1  0  0  0  0
 23 24  2  0  0  0  0
 24 20  1  0  0  0  0
 25 21  1  0  0  0  0
 26 22  1  0  0  0  0
 27 23  1  0  0  0  0
 27 29  1  0  0  0  0
 27 28  1  0  0  0  0
 29 28  1  0  0  0  0
M  END
>  <minimizedAffinity>
-4.58441782

$$$$

 OpenBabel03272501173D

 29 32  0  0  1  0  0  0  0  0999 V2000
   39.7580   27.1720   34.0980 C   0  0  1  0  0  0  0  0  0  0  0  0
   38.4980   26.4990   34.0770 C   0  0  1  0  0  0  0  0  0  0  0  0
   38.8720   27.1950   35.3610 C   0  0  0  0  0  0  0  0  0  0  0  0
   39.8600   28.2040   33.6460 H   0  0  0  0  0  0  0  0  0  0  0  0
   38.5220   25.3680   34.1350 H   0  0  0  0  0  0  0  0  0  0  0  0
   39.1520   26.5670   36.2160 H   0  0  0  0  0  0  0  0  0  0  0  0
   38.2700   28.1030   35.5410 H   0  0  0  0  0  0  0  0  0  0  0  0
   41.0550   26.4240   34.3450 C   0  0  0  0  0  0  0  0  0  0  0  0
   42.2060   27.0800   33.9430 C   0  0  0  0  0  0  0  0  0  0  0  0
   43.4020   26.3600   34.1570 C   0  0  0  0  0  0  0  0  0  0  0  0
   43.3730   25.1320   34.7130 N   0  0  0  0  0  0  0  0  0  0  0  0
   42.2050   24.5250   35.0940 C   0  0  0  0  0  0  0  0  0  0  0  0
   41.0200   25.1920   34.9050 N   0  0  0  0  0  0  0  0  0  0  0  0
   42.1560   28.0620   33.5050 H   0  0  0  0  0  0  0  0  0  0  0  0
   44.3270   26.8320   33.8570 H   0  0  0  0  0  0  0  0  0  0  0  0
   42.2040   23.5440   35.5370 H   0  0  0  0  0  0  0  0  0  0  0  0
   37.4040   27.0010   33.1900 C   0  0  0  0  0  0  0  0  0  0  0  0
   37.6930   27.8280   32.5340 H   0  0  0  0  0  0  0  0  0  0  0  0
   36.5690   27.3600   33.8550 H   0  0  0  0  0  0  0  0  0  0  0  0
   36.7870   25.9170   32.3730 C   0  0  0  0  0  0  0  0  0  0  0  0
   35.8690   26.1750   31.3700 C   0  0  0  0  0  0  0  0  0  0  0  0
   35.4520   25.0540   30.7740 N   0  0  0  0  0  0  0  0  0  0  0  0
   36.1230   24.0650   31.4190 C   0  0  0  0  0  0  0  0  0  0  0  0
   36.9230   24.5870   32.3780 N   0  0  0  0  0  0  0  0  0  0  0  0
   35.5030   27.1490   31.0670 H   0  0  0  0  0  0  0  0  0  0  0  0
   34.7640   24.9650   29.9910 H   0  0  0  0  0  0  0  0  0  0  0  0
   35.9610   22.6300   31.0760 C   0  0  0  0  0  3  0  0  0  0  0  0
   36.6280   21.5640   31.8320 C   0  0  0  0  0  2  0  0  0  0  0  0
   35.2080   21.8550   32.1660 C   0  0  0  0  0  2  0  0  0  0  0  0
  1  4  1  6  0  0  0
  1  8  1  0  0  0  0
  1  3  1  0  0  0  0
  2  1  1  0  0  0  0
  2  5  1  1  0  0  0
  2  3  1  0  0  0  0
  3  7  1  0  0  0  0
  3  6  1  0  0  0  0
  8 13  1  0  0  0  0
  9 10  1  0  0  0  0
  9  8  2  0  0  0  0
 10 11  2  0  0  0  0
 11 12  1  0  0  0  0
 12 16  1  0  0  0  0
 13 12  2  0  0  0  0
 14  9  1  0  0  0  0
 15 10  1  0  0  0  0
 17 19  1  0  0  0  0
 17  2  1  0  0  0  0
 18 17  1  0  0  0  0
 20 24  1  0  0  0  0
 20 17  1  0  0  0  0
 21 20  2  0  0  0  0
 22 21  1  0  0  0  0
 22 23  1  0  0  0  0
 23 24  2  0  0  0  0
 25 21  1  0  0  0  0
 26 22  1  0  0  0  0
 27 23  1  0  0  0  0
 27 28  1  0  0  0  0
 27 29  1  0  0  0  0
 28 29  1  0  0  0  0
M  END
>  <minimizedAffinity>
-4.48936558

$$$$

 OpenBabel03272501173D

 29 32  0  0  1  0  0  0  0  0999 V2000
   36.8920   28.3120   32.3640 C   0  0  1  0  0  0  0  0  0  0  0  0
   37.1540   27.2170   33.2440 C   0  0  1  0  0  0  0  0  0  0  0  0
   36.3760   26.9070   31.9900 C   0  0  0  0  0  0  0  0  0  0  0  0
   37.6870   28.6660   31.6430 H   0  0  0  0  0  0  0  0  0  0  0  0
   36.5420   27.1680   34.1960 H   0  0  0  0  0  0  0  0  0  0  0  0
   35.3060   26.6900   32.0970 H   0  0  0  0  0  0  0  0  0  0  0  0
   36.9670   26.3300   31.2570 H   0  0  0  0  0  0  0  0  0  0  0  0
   35.7440   29.2740   32.6130 C   0  0  0  0  0  0  0  0  0  0  0  0
   35.3850   29.4420   33.9390 C   0  0  0  0  0  0  0  0  0  0  0  0
   34.2990   30.3200   34.1500 C   0  0  0  0  0  0  0  0  0  0  0  0
   33.6920   30.9240   33.1090 N   0  0  0  0  0  0  0  0  0  0  0  0
   34.0870   30.7240   31.8120 C   0  0  0  0  0  0  0  0  0  0  0  0
   35.1390   29.8780   31.5620 N   0  0  0  0  0  0  0  0  0  0  0  0
   35.9140   28.9280   34.7220 H   0  0  0  0  0  0  0  0  0  0  0  0
   33.9820   30.4820   35.1710 H   0  0  0  0  0  0  0  0  0  0  0  0
   33.5880   31.2170   30.9950 H   0  0  0  0  0  0  0  0  0  0  0  0
   38.5590   26.7480   33.4440 C   0  0  0  0  0  0  0  0  0  0  0  0
   39.2890   27.5480   33.5980 H   0  0  0  0  0  0  0  0  0  0  0  0
   38.8590   26.1770   32.5210 H   0  0  0  0  0  0  0  0  0  0  0  0
   38.6780   25.7540   34.5500 C   0  0  0  0  0  0  0  0  0  0  0  0
   39.8080   24.9760   34.7300 C   0  0  0  0  0  0  0  0  0  0  0  0
   39.6890   24.1590   35.7800 N   0  0  0  0  0  0  0  0  0  0  0  0
   38.4530   24.4280   36.2740 C   0  0  0  0  0  0  0  0  0  0  0  0
   37.8490   25.3850   35.5320 N   0  0  0  0  0  0  0  0  0  0  0  0
   40.7040   24.9920   34.1210 H   0  0  0  0  0  0  0  0  0  0  0  0
   40.3920   23.4700   36.1360 H   0  0  0  0  0  0  0  0  0  0  0  0
   37.8960   23.7360   37.4630 C   0  0  0  0  0  3  0  0  0  0  0  0
   38.7310   23.3520   38.6070 C   0  0  0  0  0  2  0  0  0  0  0  0
   37.9500   24.6130   38.7210 C   0  0  0  0  0  2  0  0  0  0  0  0
  1  4  1  6  0  0  0
  1  8  1  0  0  0  0
  1  2  1  0  0  0  0
  2 17  1  0  0  0  0
  2  5  1  1  0  0  0
  3  6  1  0  0  0  0
  3  1  1  0  0  0  0
  3  2  1  0  0  0  0
  7  3  1  0  0  0  0
  8  9  1  0  0  0  0
  9 10  2  0  0  0  0
  9 14  1  0  0  0  0
 10 15  1  0  0  0  0
 11 10  1  0  0  0  0
 12 11  2  0  0  0  0
 13 12  1  0  0  0  0
 13  8  2  0  0  0  0
 16 12  1  0  0  0  0
 17 18  1  0  0  0  0
 17 20  1  0  0  0  0
 19 17  1  0  0  0  0
 20 21  2  0  0  0  0
 20 24  1  0  0  0  0
 21 22  1  0  0  0  0
 22 26  1  0  0  0  0
 22 23  1  0  0  0  0
 23 27  1  0  0  0  0
 24 23  2  0  0  0  0
 25 21  1  0  0  0  0
 27 28  1  0  0  0  0
 27 29  1  0  0  0  0
 28 29  1  0  0  0  0
M  END
>  <minimizedAffinity>
-4.46647978

$$$$
