
 OpenBabel03272509473D

 19 20  0  0  0  0  0  0  0  0999 V2000
   34.7550   28.2860   49.8410 O   0  0  0  0  0  0  0  0  0  0  0  0
   37.3660   30.2530   51.3930 C   0  0  0  0  0  0  0  0  0  0  0  0
   38.0500   30.6760   50.2570 C   0  0  0  0  0  0  0  0  0  0  0  0
   37.5880   30.2710   49.0080 C   0  0  0  0  0  0  0  0  0  0  0  0
   36.4720   29.4690   49.0030 N   0  0  0  0  0  0  0  0  0  0  0  0
   35.8370   29.0790   50.1080 C   0  0  0  0  0  0  0  0  0  0  0  0
   36.2880   29.4750   51.3200 N   0  0  0  0  0  0  0  0  0  0  0  0
   37.6720   30.5330   52.4030 H   0  0  0  0  0  0  0  0  0  0  0  0
   38.9230   31.3110   50.3730 H   0  0  0  0  0  0  0  0  0  0  0  0
   38.0940   30.5800   48.1090 H   0  0  0  0  0  0  0  0  0  0  0  0
   34.0510   28.5000   48.6210 C   0  0  0  0  0  0  0  0  0  0  0  0
   33.0950   29.0200   48.8040 H   0  0  0  0  0  0  0  0  0  0  0  0
   34.6340   29.1580   47.9440 H   0  0  0  0  0  0  0  0  0  0  0  0
   33.8250   27.1810   47.9300 C   0  0  0  0  0  0  0  0  0  0  0  0
   34.7700   26.6690   47.7540 H   0  0  0  0  0  0  0  0  0  0  0  0
   33.0870   26.5890   48.4920 H   0  0  0  0  0  0  0  0  0  0  0  0
   33.2270   27.5160   46.5620 C   0  0  0  0  0  3  0  0  0  0  0  0
   34.0360   28.2900   45.5970 C   0  0  0  0  0  2  0  0  0  0  0  0
   33.8520   26.8260   45.3600 C   0  0  0  0  0  2  0  0  0  0  0  0
  1  6  1  0  0  0  0
  2  8  1  0  0  0  0
  3  9  1  0  0  0  0
  3  2  2  0  0  0  0
  4  3  1  0  0  0  0
  5  4  2  0  0  0  0
  5  6  1  0  0  0  0
  6  7  2  0  0  0  0
  7  2  1  0  0  0  0
 10  4  1  0  0  0  0
 11 12  1  0  0  0  0
 11  1  1  0  0  0  0
 13 11  1  0  0  0  0
 14 16  1  0  0  0  0
 14 11  1  0  0  0  0
 15 14  1  0  0  0  0
 17 14  1  0  0  0  0
 18 17  1  0  0  0  0
 19 18  1  0  0  0  0
 19 17  1  0  0  0  0
M  END
>  <minimizedAffinity>
-3.60906768

>  <minimizedRMSD>
0.147107109

$$$$
