
 OpenBabel03272502523D

 21 23  0  0  0  0  0  0  0  0999 V2000
   37.5260   31.2700   49.5230 C   0  0  0  0  0  0  0  0  0  0  0  0
   37.8980   30.7280   50.7460 C   0  0  0  0  0  0  0  0  0  0  0  0
   37.1070   29.7890   51.3830 C   0  0  0  0  0  0  0  0  0  0  0  0
   35.9490   29.4340   50.7320 C   0  0  0  0  0  0  0  0  0  0  0  0
   35.5570   29.9610   49.5090 C   0  0  0  0  0  0  0  0  0  0  0  0
   36.3900   30.8840   48.9420 N   0  0  0  0  0  0  0  0  0  0  0  0
   38.8080   31.0440   51.2000 H   0  0  0  0  0  0  0  0  0  0  0  0
   37.4020   29.3740   52.3330 H   0  0  0  0  0  0  0  0  0  0  0  0
   35.2850   28.7030   51.1780 H   0  0  0  0  0  0  0  0  0  0  0  0
   39.5650   34.2590   48.9760 C   0  0  0  0  0  0  0  0  0  0  0  0
   40.0300   34.1010   47.6720 C   0  0  0  0  0  0  0  0  0  0  0  0
   39.6310   32.9440   46.9740 C   0  0  0  0  0  0  0  0  0  0  0  0
   38.8190   32.0670   47.6330 N   0  0  0  0  0  0  0  0  0  0  0  0
   38.3910   32.2530   48.8920 C   0  0  0  0  0  0  0  0  0  0  0  0
   38.7750   33.3500   49.5430 N   0  0  0  0  0  0  0  0  0  0  0  0
   39.9090   35.1660   49.4510 H   0  0  0  0  0  0  0  0  0  0  0  0
   40.6720   34.7670   47.1110 H   0  0  0  0  0  0  0  0  0  0  0  0
   39.8980   32.6660   45.9600 H   0  0  0  0  0  0  0  0  0  0  0  0
   34.2850   29.5320   48.8550 C   0  0  0  0  0  0  0  0  0  0  0  0
   34.3520   28.4310   47.8230 C   0  0  0  0  0  0  0  0  0  0  0  0
   33.6920   28.2250   49.1410 C   0  0  0  0  0  0  0  0  0  0  0  0
  1  2  1  0  0  0  0
  2  7  1  0  0  0  0
  2  3  2  0  0  0  0
  3  8  1  0  0  0  0
  4  9  1  0  0  0  0
  4  3  1  0  0  0  0
  5  4  2  0  0  0  0
  6  5  1  0  0  0  0
  6  1  2  0  0  0  0
 10 16  1  0  0  0  0
 10 15  1  0  0  0  0
 11 10  2  0  0  0  0
 12 13  2  0  0  0  0
 12 11  1  0  0  0  0
 13 14  1  0  0  0  0
 14  1  1  0  0  0  0
 14 15  2  0  0  0  0
 17 11  1  0  0  0  0
 18 12  1  0  0  0  0
 19 21  1  0  0  0  0
 19  5  1  0  0  0  0
 20 19  1  0  0  0  0
 20 21  1  0  0  0  0
M  END
>  <minimizedAffinity>
-5.54171038

>  <minimizedRMSD>
2.35726357

$$$$
