
 OpenBabel03272509133D

 34 37  0  0  1  0  0  0  0  0999 V2000
   35.1470   29.9730   46.6230 C   0  0  0  0  0  0  0  0  0  0  0  0
   36.4300   30.5860   46.6880 C   0  0  0  0  0  0  0  0  0  0  0  0
   37.1320   30.7120   45.4790 C   0  0  0  0  0  0  0  0  0  0  0  0
   36.5590   30.2540   44.3350 N   0  0  0  0  0  0  0  0  0  0  0  0
   35.3420   29.6810   44.3210 C   0  0  0  0  0  0  0  0  0  0  0  0
   34.6440   29.5430   45.4610 N   0  0  0  0  0  0  0  0  0  0  0  0
   34.5480   29.8360   47.4870 H   0  0  0  0  0  0  0  0  0  0  0  0
   34.9490   29.3380   43.3690 H   0  0  0  0  0  0  0  0  0  0  0  0
   36.8540   30.9970   47.9760 N   0  0  0  0  0  0  0  0  0  0  0  0
   37.3370   32.2220   48.6210 C   0  0  0  0  0  0  0  0  0  0  0  0
   38.5870   31.7310   49.3350 C   0  0  0  0  0  0  0  0  0  0  0  0
   38.2560   30.3030   49.7370 C   0  0  0  0  0  0  0  0  0  0  0  0
   36.8900   30.0770   49.1000 C   0  0  1  0  0  0  0  0  0  0  0  0
   37.6950   32.9730   47.8850 H   0  0  0  0  0  0  0  0  0  0  0  0
   36.6110   32.7170   49.2520 H   0  0  0  0  0  0  0  0  0  0  0  0
   39.4150   31.6870   48.5940 H   0  0  0  0  0  0  0  0  0  0  0  0
   38.8220   32.3010   50.2440 H   0  0  0  0  0  0  0  0  0  0  0  0
   38.2080   30.1560   50.8210 H   0  0  0  0  0  0  0  0  0  0  0  0
   39.0060   29.5880   49.3200 H   0  0  0  0  0  0  0  0  0  0  0  0
   36.7810   29.0170   48.8060 H   0  0  0  0  0  0  0  0  0  0  0  0
   35.8750   30.3550   50.1550 C   0  0  0  0  0  3  0  0  0  0  0  0
   35.1100   29.0930   50.5770 C   0  0  0  0  0  2  0  0  0  0  0  0
   34.4090   30.2280   49.8990 C   0  0  0  0  0  2  0  0  0  0  0  0
   38.4330   31.3130   45.4210 C   0  0  0  0  0  0  0  0  0  0  0  0
   38.5430   32.6170   45.0200 C   0  0  0  0  0  0  0  0  0  0  0  0
   39.7410   33.2930   44.9300 C   0  0  0  0  0  0  0  0  0  0  0  0
   40.8910   32.5660   45.2750 C   0  0  0  0  0  0  0  0  0  0  0  0
   40.8650   31.2380   45.6910 C   0  0  0  0  0  0  0  0  0  0  0  0
   39.5980   30.6430   45.7500 C   0  0  0  0  0  0  0  0  0  0  0  0
   37.6480   33.1920   44.7490 H   0  0  0  0  0  0  0  0  0  0  0  0
   39.8160   34.3190   44.6130 H   0  0  0  0  0  0  0  0  0  0  0  0
   41.8460   33.0710   45.2130 H   0  0  0  0  0  0  0  0  0  0  0  0
   41.7670   30.7180   45.9460 H   0  0  0  0  0  0  0  0  0  0  0  0
   39.5070   29.6170   46.0650 H   0  0  0  0  0  0  0  0  0  0  0  0
  1  2  1  0  0  0  0
  1  7  1  0  0  0  0
  2  9  1  0  0  0  0
  3  2  2  0  0  0  0
  4  3  1  0  0  0  0
  5  4  2  0  0  0  0
  5  6  1  0  0  0  0
  6  1  2  0  0  0  0
  8  5  1  0  0  0  0
  9 10  1  0  0  0  0
  9 13  1  0  0  0  0
 10 15  1  0  0  0  0
 10 11  1  0  0  0  0
 11 12  1  0  0  0  0
 11 17  1  0  0  0  0
 12 18  1  0  0  0  0
 13 20  1  6  0  0  0
 13 12  1  0  0  0  0
 13 21  1  0  0  0  0
 14 10  1  0  0  0  0
 16 11  1  0  0  0  0
 19 12  1  0  0  0  0
 21 22  1  0  0  0  0
 23 21  1  0  0  0  0
 23 22  1  0  0  0  0
 24  3  1  0  0  0  0
 24 29  1  0  0  0  0
 25 24  2  0  0  0  0
 26 25  1  0  0  0  0
 26 27  2  0  0  0  0
 27 28  1  0  0  0  0
 28 29  2  0  0  0  0
 28 33  1  0  0  0  0
 29 34  1  0  0  0  0
 30 25  1  0  0  0  0
 31 26  1  0  0  0  0
 32 27  1  0  0  0  0
M  END
>  <minimizedAffinity>
-5.99920511

>  <minimizedRMSD>
0.895578146

$$$$
