
 OpenBabel03272509003D

 22 24  0  0  0  0  0  0  0  0999 V2000
   35.8750   20.9390   35.8620 Cl  0  0  0  0  0  0  0  0  0  0  0  0
   36.7830   21.4510   34.4630 C   0  0  0  0  0  0  0  0  0  0  0  0
   37.8900   22.2420   34.6310 C   0  0  0  0  0  0  0  0  0  0  0  0
   38.6230   22.6630   33.5580 C   0  0  0  0  0  0  0  0  0  0  0  0
   38.2560   22.2940   32.2670 C   0  0  0  0  0  0  0  0  0  0  0  0
   37.1340   21.4920   32.0750 C   0  0  0  0  0  0  0  0  0  0  0  0
   36.5930   21.0010   30.4890 Cl  0  0  0  0  0  0  0  0  0  0  0  0
   36.4120   21.0800   33.1950 C   0  0  0  0  0  0  0  0  0  0  0  0
   39.4990   23.2810   33.6060 H   0  0  0  0  0  0  0  0  0  0  0  0
   38.8070   22.6070   31.4000 H   0  0  0  0  0  0  0  0  0  0  0  0
   37.9060   23.7280   37.9810 C   0  0  0  0  0  0  0  0  0  0  0  0
   39.1530   23.3340   38.4990 C   0  0  0  0  0  0  0  0  0  0  0  0
   39.9670   22.5550   37.6640 C   0  0  0  0  0  0  0  0  0  0  0  0
   39.5140   22.2300   36.4290 N   0  0  0  0  0  0  0  0  0  0  0  0
   38.2900   22.6370   35.9670 C   0  0  0  0  0  0  0  0  0  0  0  0
   37.4840   23.3890   36.7490 N   0  0  0  0  0  0  0  0  0  0  0  0
   37.3210   24.3240   38.6630 H   0  0  0  0  0  0  0  0  0  0  0  0
   39.4940   23.6030   39.4800 H   0  0  0  0  0  0  0  0  0  0  0  0
   40.9360   22.2020   37.9600 H   0  0  0  0  0  0  0  0  0  0  0  0
   35.1920   20.2310   33.1460 C   0  0  0  0  0  3  0  0  0  0  0  0
   35.5670   18.7480   33.0280 C   0  0  0  0  0  2  0  0  0  0  0  0
   34.7420   19.4670   31.9980 C   0  0  0  0  0  2  0  0  0  0  0  0
  2  3  1  0  0  0  0
  2  1  1  0  0  0  0
  3 15  1  0  0  0  0
  4  9  1  0  0  0  0
  4  3  2  0  0  0  0
  5  4  1  0  0  0  0
  6  5  2  0  0  0  0
  6  8  1  0  0  0  0
  7  6  1  0  0  0  0
  8  2  2  0  0  0  0
 10  5  1  0  0  0  0
 11 12  1  0  0  0  0
 11 17  1  0  0  0  0
 12 18  1  0  0  0  0
 13 19  1  0  0  0  0
 13 12  2  0  0  0  0
 14 13  1  0  0  0  0
 15 14  2  0  0  0  0
 15 16  1  0  0  0  0
 16 11  2  0  0  0  0
 20  8  1  0  0  0  0
 21 20  1  0  0  0  0
 22 21  1  0  0  0  0
 22 20  1  0  0  0  0
M  END
>  <minimizedAffinity>
-5.1118331

$$$$

 OpenBabel03272509003D

 22 24  0  0  0  0  0  0  0  0999 V2000
   37.9540   23.6260   33.5240 Cl  0  0  0  0  0  0  0  0  0  0  0  0
   37.8630   25.2320   34.1990 C   0  0  0  0  0  0  0  0  0  0  0  0
   38.4930   25.4990   35.3880 C   0  0  0  0  0  0  0  0  0  0  0  0
   38.4400   26.7450   35.9460 C   0  0  0  0  0  0  0  0  0  0  0  0
   37.7430   27.7700   35.3160 C   0  0  0  0  0  0  0  0  0  0  0  0
   37.0960   27.5190   34.1080 C   0  0  0  0  0  0  0  0  0  0  0  0
   36.1820   28.7420   33.2620 Cl  0  0  0  0  0  0  0  0  0  0  0  0
   37.1730   26.2360   33.5670 C   0  0  0  0  0  0  0  0  0  0  0  0
   38.9050   27.0320   36.8700 H   0  0  0  0  0  0  0  0  0  0  0  0
   37.6790   28.7610   35.7250 H   0  0  0  0  0  0  0  0  0  0  0  0
   41.0540   23.0280   36.2600 C   0  0  0  0  0  0  0  0  0  0  0  0
   40.5380   22.4310   37.4240 C   0  0  0  0  0  0  0  0  0  0  0  0
   39.3010   22.9050   37.8830 C   0  0  0  0  0  0  0  0  0  0  0  0
   38.6830   23.8940   37.1920 N   0  0  0  0  0  0  0  0  0  0  0  0
   39.2260   24.4460   36.0620 C   0  0  0  0  0  0  0  0  0  0  0  0
   40.4170   24.0080   35.5950 N   0  0  0  0  0  0  0  0  0  0  0  0
   42.0060   22.6260   35.9520 H   0  0  0  0  0  0  0  0  0  0  0  0
   41.0430   21.6480   37.9580 H   0  0  0  0  0  0  0  0  0  0  0  0
   38.8180   22.5190   38.7600 H   0  0  0  0  0  0  0  0  0  0  0  0
   36.5290   25.8170   32.2950 C   0  0  0  0  0  3  0  0  0  0  0  0
   37.4570   26.0850   31.1020 C   0  0  0  0  0  2  0  0  0  0  0  0
   36.0960   26.7090   31.2350 C   0  0  0  0  0  2  0  0  0  0  0  0
  1  2  1  0  0  0  0
  2  3  1  0  0  0  0
  3  4  2  0  0  0  0
  3 15  1  0  0  0  0
  4  9  1  0  0  0  0
  5 10  1  0  0  0  0
  5  4  1  0  0  0  0
  6  5  2  0  0  0  0
  7  6  1  0  0  0  0
  8  6  1  0  0  0  0
  8  2  2  0  0  0  0
 11 12  1  0  0  0  0
 12 13  2  0  0  0  0
 12 18  1  0  0  0  0
 13 19  1  0  0  0  0
 14 13  1  0  0  0  0
 15 14  2  0  0  0  0
 16 15  1  0  0  0  0
 16 11  2  0  0  0  0
 17 11  1  0  0  0  0
 20  8  1  0  0  0  0
 21 22  1  0  0  0  0
 21 20  1  0  0  0  0
 22 20  1  0  0  0  0
M  END
>  <minimizedAffinity>
-4.82835627

$$$$

 OpenBabel03272509003D

 22 24  0  0  0  0  0  0  0  0999 V2000
   38.0760   22.9940   33.7070 Cl  0  0  0  0  0  0  0  0  0  0  0  0
   37.1610   24.1370   32.7590 C   0  0  0  0  0  0  0  0  0  0  0  0
   36.2670   23.6770   31.8270 C   0  0  0  0  0  0  0  0  0  0  0  0
   35.5360   24.5440   31.0660 C   0  0  0  0  0  0  0  0  0  0  0  0
   35.6860   25.9180   31.2230 C   0  0  0  0  0  0  0  0  0  0  0  0
   36.5890   26.4060   32.1640 C   0  0  0  0  0  0  0  0  0  0  0  0
   36.8550   28.1140   32.4110 Cl  0  0  0  0  0  0  0  0  0  0  0  0
   37.3170   25.4910   32.9240 C   0  0  0  0  0  0  0  0  0  0  0  0
   34.8190   24.2630   30.3180 H   0  0  0  0  0  0  0  0  0  0  0  0
   35.1290   26.6290   30.6420 H   0  0  0  0  0  0  0  0  0  0  0  0
   36.7060   20.2160   30.7070 C   0  0  0  0  0  0  0  0  0  0  0  0
   35.6750   19.5310   31.3740 C   0  0  0  0  0  0  0  0  0  0  0  0
   34.8430   20.2950   32.2060 C   0  0  0  0  0  0  0  0  0  0  0  0
   35.0760   21.6250   32.3180 N   0  0  0  0  0  0  0  0  0  0  0  0
   36.0940   22.2490   31.6470 C   0  0  0  0  0  0  0  0  0  0  0  0
   36.9120   21.5380   30.8380 N   0  0  0  0  0  0  0  0  0  0  0  0
   37.3140   19.5820   30.0820 H   0  0  0  0  0  0  0  0  0  0  0  0
   35.5070   18.4760   31.2720 H   0  0  0  0  0  0  0  0  0  0  0  0
   34.0280   19.8720   32.7610 H   0  0  0  0  0  0  0  0  0  0  0  0
   38.3200   25.8620   33.9570 C   0  0  0  0  0  3  0  0  0  0  0  0
   37.6520   26.0240   35.3300 C   0  0  0  0  0  2  0  0  0  0  0  0
   38.3920   27.1380   34.6440 C   0  0  0  0  0  2  0  0  0  0  0  0
  2  8  1  0  0  0  0
  2  1  1  0  0  0  0
  3  2  2  0  0  0  0
  4  5  2  0  0  0  0
  4  3  1  0  0  0  0
  5  6  1  0  0  0  0
  6  7  1  0  0  0  0
  6  8  2  0  0  0  0
  8 20  1  0  0  0  0
  9  4  1  0  0  0  0
 10  5  1  0  0  0  0
 11 16  2  0  0  0  0
 11 12  1  0  0  0  0
 12 13  2  0  0  0  0
 13 14  1  0  0  0  0
 13 19  1  0  0  0  0
 15  3  1  0  0  0  0
 15 14  2  0  0  0  0
 16 15  1  0  0  0  0
 17 11  1  0  0  0  0
 18 12  1  0  0  0  0
 20 22  1  0  0  0  0
 20 21  1  0  0  0  0
 22 21  1  0  0  0  0
M  END
>  <minimizedAffinity>
-4.6471467

$$$$

 OpenBabel03272509003D

 22 24  0  0  0  0  0  0  0  0999 V2000
   38.1800   23.8660   35.5380 Cl  0  0  0  0  0  0  0  0  0  0  0  0
   39.7940   24.4900   35.3190 C   0  0  0  0  0  0  0  0  0  0  0  0
   39.9660   25.7390   34.7780 C   0  0  0  0  0  0  0  0  0  0  0  0
   41.2160   26.2570   34.5890 C   0  0  0  0  0  0  0  0  0  0  0  0
   42.3430   25.5240   34.9460 C   0  0  0  0  0  0  0  0  0  0  0  0
   42.1910   24.2540   35.4960 C   0  0  0  0  0  0  0  0  0  0  0  0
   43.5510   23.2580   35.9510 Cl  0  0  0  0  0  0  0  0  0  0  0  0
   40.8990   23.7580   35.6750 C   0  0  0  0  0  0  0  0  0  0  0  0
   41.4330   27.2230   34.1730 H   0  0  0  0  0  0  0  0  0  0  0  0
   43.3410   25.8990   34.8120 H   0  0  0  0  0  0  0  0  0  0  0  0
   37.0700   27.9800   34.8990 C   0  0  0  0  0  0  0  0  0  0  0  0
   36.6040   27.9720   33.5710 C   0  0  0  0  0  0  0  0  0  0  0  0
   37.3140   27.1790   32.6570 C   0  0  0  0  0  0  0  0  0  0  0  0
   38.3880   26.4800   33.0950 N   0  0  0  0  0  0  0  0  0  0  0  0
   38.8060   26.5200   34.4000 C   0  0  0  0  0  0  0  0  0  0  0  0
   38.1410   27.2750   35.3040 N   0  0  0  0  0  0  0  0  0  0  0  0
   36.4890   28.6040   35.5580 H   0  0  0  0  0  0  0  0  0  0  0  0
   35.7500   28.5320   33.2440 H   0  0  0  0  0  0  0  0  0  0  0  0
   37.0430   27.1010   31.6220 H   0  0  0  0  0  0  0  0  0  0  0  0
   40.5800   22.4210   36.2400 C   0  0  0  0  0  3  0  0  0  0  0  0
   40.3670   22.5100   37.7580 C   0  0  0  0  0  2  0  0  0  0  0  0
   41.4340   21.6560   37.1300 C   0  0  0  0  0  2  0  0  0  0  0  0
  2  1  1  0  0  0  0
  2  8  1  0  0  0  0
  3  2  2  0  0  0  0
  4  3  1  0  0  0  0
  4  5  2  0  0  0  0
  5  6  1  0  0  0  0
  6  8  2  0  0  0  0
  6  7  1  0  0  0  0
  8 20  1  0  0  0  0
  9  4  1  0  0  0  0
 10  5  1  0  0  0  0
 11 16  1  0  0  0  0
 11 17  1  0  0  0  0
 12 11  2  0  0  0  0
 13 14  2  0  0  0  0
 13 12  1  0  0  0  0
 14 15  1  0  0  0  0
 15  3  1  0  0  0  0
 15 16  2  0  0  0  0
 18 12  1  0  0  0  0
 19 13  1  0  0  0  0
 20 22  1  0  0  0  0
 20 21  1  0  0  0  0
 22 21  1  0  0  0  0
M  END
>  <minimizedAffinity>
-4.53753662

$$$$

 OpenBabel03272509003D

 22 24  0  0  0  0  0  0  0  0999 V2000
   38.9590   26.7310   35.4960 Cl  0  0  0  0  0  0  0  0  0  0  0  0
   38.2000   25.7190   34.2940 C   0  0  0  0  0  0  0  0  0  0  0  0
   38.3320   24.3570   34.3790 C   0  0  0  0  0  0  0  0  0  0  0  0
   37.7530   23.5350   33.4540 C   0  0  0  0  0  0  0  0  0  0  0  0
   37.0140   24.0690   32.4030 C   0  0  0  0  0  0  0  0  0  0  0  0
   36.8680   25.4500   32.2980 C   0  0  0  0  0  0  0  0  0  0  0  0
   35.9770   26.2030   31.0000 Cl  0  0  0  0  0  0  0  0  0  0  0  0
   37.4720   26.2570   33.2620 C   0  0  0  0  0  0  0  0  0  0  0  0
   37.8100   22.4630   33.4510 H   0  0  0  0  0  0  0  0  0  0  0  0
   36.5460   23.4550   31.6570 H   0  0  0  0  0  0  0  0  0  0  0  0
   39.2910   23.0040   37.6460 C   0  0  0  0  0  0  0  0  0  0  0  0
   40.6480   22.6750   37.4700 C   0  0  0  0  0  0  0  0  0  0  0  0
   41.2020   22.9350   36.2080 C   0  0  0  0  0  0  0  0  0  0  0  0
   40.4150   23.4760   35.2480 N   0  0  0  0  0  0  0  0  0  0  0  0
   39.0970   23.7790   35.4660 C   0  0  0  0  0  0  0  0  0  0  0  0
   38.5350   23.5410   36.6730 N   0  0  0  0  0  0  0  0  0  0  0  0
   38.9160   22.7840   38.6330 H   0  0  0  0  0  0  0  0  0  0  0  0
   41.2550   22.2470   38.2450 H   0  0  0  0  0  0  0  0  0  0  0  0
   42.2260   22.7230   35.9680 H   0  0  0  0  0  0  0  0  0  0  0  0
   37.4110   27.7420   33.2770 C   0  0  0  0  0  3  0  0  0  0  0  0
   36.2440   28.2290   34.1470 C   0  0  0  0  0  2  0  0  0  0  0  0
   36.3610   28.5490   32.6830 C   0  0  0  0  0  2  0  0  0  0  0  0
  2  3  1  0  0  0  0
  2  1  1  0  0  0  0
  3 15  1  0  0  0  0
  4  3  2  0  0  0  0
  5  4  1  0  0  0  0
  6  5  2  0  0  0  0
  6  8  1  0  0  0  0
  7  6  1  0  0  0  0
  8 20  1  0  0  0  0
  8  2  2  0  0  0  0
  9  4  1  0  0  0  0
 10  5  1  0  0  0  0
 11 17  1  0  0  0  0
 12 11  1  0  0  0  0
 12 18  1  0  0  0  0
 13 12  2  0  0  0  0
 14 15  2  0  0  0  0
 14 13  1  0  0  0  0
 15 16  1  0  0  0  0
 16 11  2  0  0  0  0
 19 13  1  0  0  0  0
 20 21  1  0  0  0  0
 22 20  1  0  0  0  0
 22 21  1  0  0  0  0
M  END
>  <minimizedAffinity>
-4.51778936

$$$$

 OpenBabel03272509003D

 22 24  0  0  0  0  0  0  0  0999 V2000
   35.1730   30.9550   32.0170 Cl  0  0  0  0  0  0  0  0  0  0  0  0
   35.9530   29.5100   32.6050 C   0  0  0  0  0  0  0  0  0  0  0  0
   35.9040   29.2150   33.9430 C   0  0  0  0  0  0  0  0  0  0  0  0
   36.5060   28.0920   34.4380 C   0  0  0  0  0  0  0  0  0  0  0  0
   37.1840   27.2240   33.5880 C   0  0  0  0  0  0  0  0  0  0  0  0
   37.2460   27.5060   32.2260 C   0  0  0  0  0  0  0  0  0  0  0  0
   38.0930   26.4820   31.0940 Cl  0  0  0  0  0  0  0  0  0  0  0  0
   36.6180   28.6600   31.7560 C   0  0  0  0  0  0  0  0  0  0  0  0
   36.5120   27.7930   35.4690 H   0  0  0  0  0  0  0  0  0  0  0  0
   37.6690   26.3330   33.9410 H   0  0  0  0  0  0  0  0  0  0  0  0
   33.2620   30.8900   35.8510 C   0  0  0  0  0  0  0  0  0  0  0  0
   33.9670   31.8520   36.5960 C   0  0  0  0  0  0  0  0  0  0  0  0
   35.3580   31.8970   36.4150 C   0  0  0  0  0  0  0  0  0  0  0  0
   35.9320   31.0270   35.5500 N   0  0  0  0  0  0  0  0  0  0  0  0
   35.2030   30.1050   34.8460 C   0  0  0  0  0  0  0  0  0  0  0  0
   33.8610   30.0390   34.9990 N   0  0  0  0  0  0  0  0  0  0  0  0
   32.1980   30.8990   36.0270 H   0  0  0  0  0  0  0  0  0  0  0  0
   33.4930   32.5340   37.2760 H   0  0  0  0  0  0  0  0  0  0  0  0
   35.9900   32.5920   36.9330 H   0  0  0  0  0  0  0  0  0  0  0  0
   36.6060   29.0950   30.3350 C   0  0  0  0  0  3  0  0  0  0  0  0
   38.0350   29.3370   29.8290 C   0  0  0  0  0  2  0  0  0  0  0  0
   36.9820   30.4100   29.8520 C   0  0  0  0  0  2  0  0  0  0  0  0
  1  2  1  0  0  0  0
  2  3  1  0  0  0  0
  3  4  2  0  0  0  0
  3 15  1  0  0  0  0
  4  9  1  0  0  0  0
  5 10  1  0  0  0  0
  5  4  1  0  0  0  0
  6  5  2  0  0  0  0
  7  6  1  0  0  0  0
  8  6  1  0  0  0  0
  8  2  2  0  0  0  0
 11 17  1  0  0  0  0
 11 12  1  0  0  0  0
 12 18  1  0  0  0  0
 13 12  2  0  0  0  0
 13 19  1  0  0  0  0
 14 13  1  0  0  0  0
 15 16  1  0  0  0  0
 15 14  2  0  0  0  0
 16 11  2  0  0  0  0
 20  8  1  0  0  0  0
 21 22  1  0  0  0  0
 21 20  1  0  0  0  0
 22 20  1  0  0  0  0
M  END
>  <minimizedAffinity>
-4.48880529

$$$$

 OpenBabel03272509003D

 22 24  0  0  0  0  0  0  0  0999 V2000
   36.3430   28.0970   34.5580 Cl  0  0  0  0  0  0  0  0  0  0  0  0
   36.2060   29.0420   33.0990 C   0  0  0  0  0  0  0  0  0  0  0  0
   35.6090   30.2760   33.1490 C   0  0  0  0  0  0  0  0  0  0  0  0
   35.4830   31.0410   32.0240 C   0  0  0  0  0  0  0  0  0  0  0  0
   35.9600   30.5800   30.8010 C   0  0  0  0  0  0  0  0  0  0  0  0
   36.5690   29.3300   30.7290 C   0  0  0  0  0  0  0  0  0  0  0  0
   37.1760   28.6670   29.2320 Cl  0  0  0  0  0  0  0  0  0  0  0  0
   36.6820   28.5770   31.8980 C   0  0  0  0  0  0  0  0  0  0  0  0
   35.0300   32.0140   31.9810 H   0  0  0  0  0  0  0  0  0  0  0  0
   35.8780   31.1540   29.8970 H   0  0  0  0  0  0  0  0  0  0  0  0
   35.3720   31.9250   36.4120 C   0  0  0  0  0  0  0  0  0  0  0  0
   34.0420   31.6810   36.7970 C   0  0  0  0  0  0  0  0  0  0  0  0
   33.2510   30.9420   35.9050 C   0  0  0  0  0  0  0  0  0  0  0  0
   33.8020   30.5130   34.7450 N   0  0  0  0  0  0  0  0  0  0  0  0
   35.1050   30.7760   34.4120 C   0  0  0  0  0  0  0  0  0  0  0  0
   35.8920   31.4850   35.2520 N   0  0  0  0  0  0  0  0  0  0  0  0
   35.9350   32.4960   37.1330 H   0  0  0  0  0  0  0  0  0  0  0  0
   33.6230   32.0290   37.7220 H   0  0  0  0  0  0  0  0  0  0  0  0
   32.2240   30.6990   36.1010 H   0  0  0  0  0  0  0  0  0  0  0  0
   37.2970   27.2260   31.9750 C   0  0  0  0  0  3  0  0  0  0  0  0
   38.8050   27.3310   32.2430 C   0  0  0  0  0  2  0  0  0  0  0  0
   38.2360   26.6720   31.0170 C   0  0  0  0  0  2  0  0  0  0  0  0
  2  3  1  0  0  0  0
  2  1  1  0  0  0  0
  3 15  1  0  0  0  0
  4  3  2  0  0  0  0
  5  4  1  0  0  0  0
  6  5  2  0  0  0  0
  6  8  1  0  0  0  0
  7  6  1  0  0  0  0
  8 20  1  0  0  0  0
  8  2  2  0  0  0  0
  9  4  1  0  0  0  0
 10  5  1  0  0  0  0
 11 12  1  0  0  0  0
 11 17  1  0  0  0  0
 12 18  1  0  0  0  0
 13 19  1  0  0  0  0
 13 12  2  0  0  0  0
 14 13  1  0  0  0  0
 15 14  2  0  0  0  0
 15 16  1  0  0  0  0
 16 11  2  0  0  0  0
 20 21  1  0  0  0  0
 22 20  1  0  0  0  0
 22 21  1  0  0  0  0
M  END
>  <minimizedAffinity>
-4.37953043

$$$$

 OpenBabel03272509003D

 22 24  0  0  0  0  0  0  0  0999 V2000
   38.1980   24.0010   32.7830 Cl  0  0  0  0  0  0  0  0  0  0  0  0
   38.2540   25.0220   34.1960 C   0  0  0  0  0  0  0  0  0  0  0  0
   38.4130   26.3750   34.0440 C   0  0  0  0  0  0  0  0  0  0  0  0
   38.4650   27.2030   35.1300 C   0  0  0  0  0  0  0  0  0  0  0  0
   38.3560   26.6850   36.4160 C   0  0  0  0  0  0  0  0  0  0  0  0
   38.1940   25.3130   36.5920 C   0  0  0  0  0  0  0  0  0  0  0  0
   38.0710   24.5780   38.1710 Cl  0  0  0  0  0  0  0  0  0  0  0  0
   38.1450   24.4990   35.4610 C   0  0  0  0  0  0  0  0  0  0  0  0
   38.5870   28.2690   35.0940 H   0  0  0  0  0  0  0  0  0  0  0  0
   38.3920   27.3050   37.2920 H   0  0  0  0  0  0  0  0  0  0  0  0
   39.7780   27.5970   30.8710 C   0  0  0  0  0  0  0  0  0  0  0  0
   38.6330   28.0200   30.1720 C   0  0  0  0  0  0  0  0  0  0  0  0
   37.4020   27.8690   30.8270 C   0  0  0  0  0  0  0  0  0  0  0  0
   37.3850   27.3350   32.0720 N   0  0  0  0  0  0  0  0  0  0  0  0
   38.5280   26.9360   32.7130 C   0  0  0  0  0  0  0  0  0  0  0  0
   39.7300   27.0690   32.1070 N   0  0  0  0  0  0  0  0  0  0  0  0
   40.6970   27.7350   30.3220 H   0  0  0  0  0  0  0  0  0  0  0  0
   38.6670   28.4420   29.1860 H   0  0  0  0  0  0  0  0  0  0  0  0
   36.4680   28.1590   30.3850 H   0  0  0  0  0  0  0  0  0  0  0  0
   37.9860   23.0210   35.4920 C   0  0  0  0  0  3  0  0  0  0  0  0
   39.2130   22.3550   36.1290 C   0  0  0  0  0  2  0  0  0  0  0  0
   38.7670   22.0720   34.7210 C   0  0  0  0  0  2  0  0  0  0  0  0
  1  2  1  0  0  0  0
  2  8  1  0  0  0  0
  3  2  2  0  0  0  0
  3  4  1  0  0  0  0
  4  5  2  0  0  0  0
  5  6  1  0  0  0  0
  5 10  1  0  0  0  0
  6  7  1  0  0  0  0
  8 20  1  0  0  0  0
  8  6  2  0  0  0  0
  9  4  1  0  0  0  0
 11 16  1  0  0  0  0
 12 13  1  0  0  0  0
 12 11  2  0  0  0  0
 13 14  2  0  0  0  0
 14 15  1  0  0  0  0
 15  3  1  0  0  0  0
 16 15  2  0  0  0  0
 17 11  1  0  0  0  0
 18 12  1  0  0  0  0
 19 13  1  0  0  0  0
 20 21  1  0  0  0  0
 22 20  1  0  0  0  0
 22 21  1  0  0  0  0
M  END
>  <minimizedAffinity>
-4.36435652

$$$$

 OpenBabel03272509003D

 22 24  0  0  0  0  0  0  0  0999 V2000
   36.0780   31.0130   35.6260 Cl  0  0  0  0  0  0  0  0  0  0  0  0
   34.4230   30.6420   35.2130 C   0  0  0  0  0  0  0  0  0  0  0  0
   34.1610   29.8710   34.1100 C   0  0  0  0  0  0  0  0  0  0  0  0
   32.8770   29.5640   33.7570 C   0  0  0  0  0  0  0  0  0  0  0  0
   31.8080   30.0310   34.5140 C   0  0  0  0  0  0  0  0  0  0  0  0
   32.0530   30.8160   35.6380 C   0  0  0  0  0  0  0  0  0  0  0  0
   30.7690   31.4610   36.6310 Cl  0  0  0  0  0  0  0  0  0  0  0  0
   33.3760   31.1080   35.9690 C   0  0  0  0  0  0  0  0  0  0  0  0
   32.5900   28.9690   32.9110 H   0  0  0  0  0  0  0  0  0  0  0  0
   30.7860   29.8110   34.2670 H   0  0  0  0  0  0  0  0  0  0  0  0
   36.6520   29.4810   31.4520 C   0  0  0  0  0  0  0  0  0  0  0  0
   37.3710   28.3400   31.8530 C   0  0  0  0  0  0  0  0  0  0  0  0
   36.9690   27.7280   33.0490 C   0  0  0  0  0  0  0  0  0  0  0  0
   35.9300   28.2590   33.7380 N   0  0  0  0  0  0  0  0  0  0  0  0
   35.2600   29.3740   33.3070 C   0  0  0  0  0  0  0  0  0  0  0  0
   35.6250   29.9860   32.1580 N   0  0  0  0  0  0  0  0  0  0  0  0
   37.0020   29.9120   30.5270 H   0  0  0  0  0  0  0  0  0  0  0  0
   38.1910   27.9340   31.2920 H   0  0  0  0  0  0  0  0  0  0  0  0
   37.4480   26.8530   33.4450 H   0  0  0  0  0  0  0  0  0  0  0  0
   33.7920   31.9380   37.1300 C   0  0  0  0  0  3  0  0  0  0  0  0
   33.2470   33.3670   37.0000 C   0  0  0  0  0  2  0  0  0  0  0  0
   34.7160   33.0550   37.0810 C   0  0  0  0  0  2  0  0  0  0  0  0
  2  1  1  0  0  0  0
  2  8  1  0  0  0  0
  3  2  2  0  0  0  0
  4  3  1  0  0  0  0
  4  5  2  0  0  0  0
  5  6  1  0  0  0  0
  6  8  2  0  0  0  0
  6  7  1  0  0  0  0
  8 20  1  0  0  0  0
  9  4  1  0  0  0  0
 10  5  1  0  0  0  0
 11 12  2  0  0  0  0
 11 16  1  0  0  0  0
 12 13  1  0  0  0  0
 13 19  1  0  0  0  0
 13 14  2  0  0  0  0
 15 14  1  0  0  0  0
 15  3  1  0  0  0  0
 16 15  2  0  0  0  0
 17 11  1  0  0  0  0
 18 12  1  0  0  0  0
 21 22  1  0  0  0  0
 21 20  1  0  0  0  0
 22 20  1  0  0  0  0
M  END
>  <minimizedAffinity>
-4.34753132

$$$$
