
 OpenBabel03272507563D

 17 18  0  0  0  0  0  0  0  0999 V2000
   38.0620   22.3450   36.0020 C   0  0  0  0  0  0  0  0  0  0  0  0
   38.1550   23.6450   36.5580 C   0  0  0  0  0  0  0  0  0  0  0  0
   38.1530   24.7370   35.6860 C   0  0  0  0  0  0  0  0  0  0  0  0
   38.0600   24.4980   34.3430 N   0  0  0  0  0  0  0  0  0  0  0  0
   37.9730   23.2300   33.8510 C   0  0  0  0  0  0  0  0  0  0  0  0
   37.9740   22.1680   34.6600 N   0  0  0  0  0  0  0  0  0  0  0  0
   37.8950   23.2090   32.4380 N   0  0  0  0  0  0  0  0  0  0  0  0
   38.0590   21.4540   36.6170 H   0  0  0  0  0  0  0  0  0  0  0  0
   36.9340   23.4140   32.0700 H   0  0  0  0  0  0  0  0  0  0  0  0
   38.7760   22.9990   31.9230 H   0  0  0  0  0  0  0  0  0  0  0  0
   38.2530   23.7720   38.0470 C   0  0  0  0  0  0  0  0  0  0  0  0
   37.3400   22.9130   38.6630 F   0  0  0  0  0  0  0  0  0  0  0  0
   39.5060   23.3610   38.4100 F   0  0  0  0  0  0  0  0  0  0  0  0
   38.0190   25.0390   38.4910 F   0  0  0  0  0  0  0  0  0  0  0  0
   38.2480   26.0840   36.2570 C   0  0  0  0  0  3  0  0  0  0  0  0
   37.8090   27.2760   35.4180 C   0  0  0  0  0  2  0  0  0  0  0  0
   39.2540   27.0140   35.5900 C   0  0  0  0  0  2  0  0  0  0  0  0
  1  2  1  0  0  0  0
  1  8  1  0  0  0  0
  2 11  1  0  0  0  0
  3 15  1  0  0  0  0
  3  2  2  0  0  0  0
  4  3  1  0  0  0  0
  5  4  2  0  0  0  0
  5  6  1  0  0  0  0
  6  1  2  0  0  0  0
  7  5  1  0  0  0  0
  9  7  1  0  0  0  0
 10  7  1  0  0  0  0
 11 13  1  0  0  0  0
 11 14  1  0  0  0  0
 11 12  1  0  0  0  0
 16 17  1  0  0  0  0
 16 15  1  0  0  0  0
 17 15  1  0  0  0  0
M  END
>  <minimizedAffinity>
-4.81400824

$$$$

 OpenBabel03272507563D

 17 18  0  0  0  0  0  0  0  0999 V2000
   38.1310   24.9300   33.9110 C   0  0  0  0  0  0  0  0  0  0  0  0
   38.1730   23.8880   34.8710 C   0  0  0  0  0  0  0  0  0  0  0  0
   38.2960   24.2370   36.2190 C   0  0  0  0  0  0  0  0  0  0  0  0
   38.3680   25.5630   36.5440 N   0  0  0  0  0  0  0  0  0  0  0  0
   38.3230   26.5340   35.5880 C   0  0  0  0  0  0  0  0  0  0  0  0
   38.2070   26.2290   34.2930 N   0  0  0  0  0  0  0  0  0  0  0  0
   38.4210   27.8330   36.1390 N   0  0  0  0  0  0  0  0  0  0  0  0
   38.0370   24.7330   32.8500 H   0  0  0  0  0  0  0  0  0  0  0  0
   37.5170   28.1880   36.5360 H   0  0  0  0  0  0  0  0  0  0  0  0
   39.3570   28.2900   36.0970 H   0  0  0  0  0  0  0  0  0  0  0  0
   38.0870   22.4750   34.3840 C   0  0  0  0  0  0  0  0  0  0  0  0
   37.8720   22.4540   33.0040 F   0  0  0  0  0  0  0  0  0  0  0  0
   39.3010   21.8880   34.6160 F   0  0  0  0  0  0  0  0  0  0  0  0
   37.0910   21.7630   34.9860 F   0  0  0  0  0  0  0  0  0  0  0  0
   38.3400   23.1630   37.2150 C   0  0  0  0  0  3  0  0  0  0  0  0
   38.7200   23.5000   38.6500 C   0  0  0  0  0  2  0  0  0  0  0  0
   39.7180   22.8420   37.7800 C   0  0  0  0  0  2  0  0  0  0  0  0
  1  6  2  0  0  0  0
  1  2  1  0  0  0  0
  2  3  2  0  0  0  0
  3  4  1  0  0  0  0
  3 15  1  0  0  0  0
  5  7  1  0  0  0  0
  5  4  2  0  0  0  0
  6  5  1  0  0  0  0
  7  9  1  0  0  0  0
  8  1  1  0  0  0  0
 10  7  1  0  0  0  0
 11 13  1  0  0  0  0
 11  2  1  0  0  0  0
 11 14  1  0  0  0  0
 12 11  1  0  0  0  0
 15 17  1  0  0  0  0
 15 16  1  0  0  0  0
 17 16  1  0  0  0  0
M  END
>  <minimizedAffinity>
-4.30908918

$$$$

 OpenBabel03272507563D

 17 18  0  0  0  0  0  0  0  0999 V2000
   40.1920   22.6620   37.4850 C   0  0  0  0  0  0  0  0  0  0  0  0
   39.1780   23.6050   37.1850 C   0  0  0  0  0  0  0  0  0  0  0  0
   39.3300   24.3980   36.0450 C   0  0  0  0  0  0  0  0  0  0  0  0
   40.4470   24.2250   35.2750 N   0  0  0  0  0  0  0  0  0  0  0  0
   41.3990   23.3040   35.6000 C   0  0  0  0  0  0  0  0  0  0  0  0
   41.2800   22.5340   36.6840 N   0  0  0  0  0  0  0  0  0  0  0  0
   42.4710   23.2960   34.6770 N   0  0  0  0  0  0  0  0  0  0  0  0
   40.1410   22.0150   38.3520 H   0  0  0  0  0  0  0  0  0  0  0  0
   42.2610   22.7620   33.7980 H   0  0  0  0  0  0  0  0  0  0  0  0
   43.3350   23.8070   34.9570 H   0  0  0  0  0  0  0  0  0  0  0  0
   38.0050   23.6980   38.1100 C   0  0  0  0  0  0  0  0  0  0  0  0
   36.8220   23.4280   37.4160 F   0  0  0  0  0  0  0  0  0  0  0  0
   38.1520   22.7210   39.0570 F   0  0  0  0  0  0  0  0  0  0  0  0
   37.8860   24.9210   38.7020 F   0  0  0  0  0  0  0  0  0  0  0  0
   38.2830   25.3740   35.7310 C   0  0  0  0  0  3  0  0  0  0  0  0
   38.5380   26.4090   34.6440 C   0  0  0  0  0  2  0  0  0  0  0  0
   38.6120   26.8250   36.0610 C   0  0  0  0  0  2  0  0  0  0  0  0
  1  8  1  0  0  0  0
  2  1  1  0  0  0  0
  2 11  1  0  0  0  0
  3  2  2  0  0  0  0
  4  5  2  0  0  0  0
  4  3  1  0  0  0  0
  5  6  1  0  0  0  0
  6  1  2  0  0  0  0
  7 10  1  0  0  0  0
  7  5  1  0  0  0  0
  9  7  1  0  0  0  0
 11 14  1  0  0  0  0
 11 13  1  0  0  0  0
 12 11  1  0  0  0  0
 15  3  1  0  0  0  0
 15 17  1  0  0  0  0
 16 15  1  0  0  0  0
 16 17  1  0  0  0  0
M  END
>  <minimizedAffinity>
-4.20398951

$$$$

 OpenBabel03272507563D

 17 18  0  0  0  0  0  0  0  0999 V2000
   36.4460   21.0610   34.0550 C   0  0  0  0  0  0  0  0  0  0  0  0
   37.5250   21.8830   34.4640 C   0  0  0  0  0  0  0  0  0  0  0  0
   37.5960   22.2580   35.8090 C   0  0  0  0  0  0  0  0  0  0  0  0
   36.6240   21.8140   36.6610 N   0  0  0  0  0  0  0  0  0  0  0  0
   35.6020   21.0230   36.2240 C   0  0  0  0  0  0  0  0  0  0  0  0
   35.5090   20.6510   34.9450 N   0  0  0  0  0  0  0  0  0  0  0  0
   34.7050   20.6860   37.2650 N   0  0  0  0  0  0  0  0  0  0  0  0
   36.3270   20.7330   33.0300 H   0  0  0  0  0  0  0  0  0  0  0  0
   35.0460   19.9020   37.8730 H   0  0  0  0  0  0  0  0  0  0  0  0
   33.8220   21.2370   37.3190 H   0  0  0  0  0  0  0  0  0  0  0  0
   38.5240   22.3040   33.4320 C   0  0  0  0  0  0  0  0  0  0  0  0
   38.6040   23.6980   33.3790 F   0  0  0  0  0  0  0  0  0  0  0  0
   39.7470   21.8410   33.8340 F   0  0  0  0  0  0  0  0  0  0  0  0
   38.2270   21.8430   32.1820 F   0  0  0  0  0  0  0  0  0  0  0  0
   38.7110   23.1070   36.2370 C   0  0  0  0  0  3  0  0  0  0  0  0
   38.7750   23.5700   37.6860 C   0  0  0  0  0  2  0  0  0  0  0  0
   38.3400   24.5270   36.6470 C   0  0  0  0  0  2  0  0  0  0  0  0
  1  2  2  0  0  0  0
  1  6  1  0  0  0  0
  2  3  1  0  0  0  0
  3 15  1  0  0  0  0
  3  4  2  0  0  0  0
  5  4  1  0  0  0  0
  5  7  1  0  0  0  0
  6  5  2  0  0  0  0
  7 10  1  0  0  0  0
  7  9  1  0  0  0  0
  8  1  1  0  0  0  0
 11 13  1  0  0  0  0
 11  2  1  0  0  0  0
 12 11  1  0  0  0  0
 14 11  1  0  0  0  0
 15 17  1  0  0  0  0
 15 16  1  0  0  0  0
 17 16  1  0  0  0  0
M  END
>  <minimizedAffinity>
-4.16748238

$$$$

 OpenBabel03272507563D

 17 18  0  0  0  0  0  0  0  0999 V2000
   38.0030   24.4900   36.8490 C   0  0  0  0  0  0  0  0  0  0  0  0
   38.7240   25.0310   35.7560 C   0  0  0  0  0  0  0  0  0  0  0  0
   39.9560   24.4600   35.4300 C   0  0  0  0  0  0  0  0  0  0  0  0
   40.4060   23.4090   36.1800 N   0  0  0  0  0  0  0  0  0  0  0  0
   39.6800   22.9190   37.2250 C   0  0  0  0  0  0  0  0  0  0  0  0
   38.4990   23.4460   37.5590 N   0  0  0  0  0  0  0  0  0  0  0  0
   40.3300   21.8400   37.8680 N   0  0  0  0  0  0  0  0  0  0  0  0
   37.0420   24.8830   37.1580 H   0  0  0  0  0  0  0  0  0  0  0  0
   40.2170   20.9250   37.3670 H   0  0  0  0  0  0  0  0  0  0  0  0
   40.8410   22.0590   38.7500 H   0  0  0  0  0  0  0  0  0  0  0  0
   38.1220   26.1850   35.0150 C   0  0  0  0  0  0  0  0  0  0  0  0
   38.0870   25.9120   33.6450 F   0  0  0  0  0  0  0  0  0  0  0  0
   36.8270   26.3120   35.4380 F   0  0  0  0  0  0  0  0  0  0  0  0
   38.8010   27.3530   35.2040 F   0  0  0  0  0  0  0  0  0  0  0  0
   40.7050   25.0160   34.2980 C   0  0  0  0  0  3  0  0  0  0  0  0
   42.1610   24.6160   34.1060 C   0  0  0  0  0  2  0  0  0  0  0  0
   41.8510   25.9510   34.6610 C   0  0  0  0  0  2  0  0  0  0  0  0
  1  8  1  0  0  0  0
  1  6  1  0  0  0  0
  2  1  2  0  0  0  0
  3  2  1  0  0  0  0
  3  4  2  0  0  0  0
  4  5  1  0  0  0  0
  5  6  2  0  0  0  0
  5  7  1  0  0  0  0
  7 10  1  0  0  0  0
  9  7  1  0  0  0  0
 11 14  1  0  0  0  0
 11 13  1  0  0  0  0
 11  2  1  0  0  0  0
 12 11  1  0  0  0  0
 15 17  1  0  0  0  0
 15  3  1  0  0  0  0
 16 15  1  0  0  0  0
 16 17  1  0  0  0  0
M  END
>  <minimizedAffinity>
-4.11997795

$$$$

 OpenBabel03272507563D

 17 18  0  0  0  0  0  0  0  0999 V2000
   38.1490   22.4120   34.7040 C   0  0  0  0  0  0  0  0  0  0  0  0
   38.2000   23.7670   34.2910 C   0  0  0  0  0  0  0  0  0  0  0  0
   38.5770   24.7290   35.2320 C   0  0  0  0  0  0  0  0  0  0  0  0
   38.8760   24.3180   36.5010 N   0  0  0  0  0  0  0  0  0  0  0  0
   38.8140   23.0030   36.8560 C   0  0  0  0  0  0  0  0  0  0  0  0
   38.4570   22.0620   35.9770 N   0  0  0  0  0  0  0  0  0  0  0  0
   39.1540   22.7980   38.2130 N   0  0  0  0  0  0  0  0  0  0  0  0
   37.8660   21.6140   34.0280 H   0  0  0  0  0  0  0  0  0  0  0  0
   40.1890   22.7920   38.3880 H   0  0  0  0  0  0  0  0  0  0  0  0
   38.3630   22.6790   38.8820 H   0  0  0  0  0  0  0  0  0  0  0  0
   37.8470   24.0870   32.8720 C   0  0  0  0  0  0  0  0  0  0  0  0
   38.9450   24.6510   32.2180 F   0  0  0  0  0  0  0  0  0  0  0  0
   37.5630   22.9050   32.2450 F   0  0  0  0  0  0  0  0  0  0  0  0
   36.7940   24.9490   32.7660 F   0  0  0  0  0  0  0  0  0  0  0  0
   38.6320   26.1320   34.8100 C   0  0  0  0  0  3  0  0  0  0  0  0
   38.7810   27.2180   35.8660 C   0  0  0  0  0  2  0  0  0  0  0  0
   37.4580   27.0000   35.2450 C   0  0  0  0  0  2  0  0  0  0  0  0
  1  6  1  0  0  0  0
  2  1  2  0  0  0  0
  2  3  1  0  0  0  0
  3  4  2  0  0  0  0
  4  5  1  0  0  0  0
  5  7  1  0  0  0  0
  6  5  2  0  0  0  0
  7  9  1  0  0  0  0
  7 10  1  0  0  0  0
  8  1  1  0  0  0  0
 11  2  1  0  0  0  0
 12 11  1  0  0  0  0
 13 11  1  0  0  0  0
 14 11  1  0  0  0  0
 15  3  1  0  0  0  0
 15 17  1  0  0  0  0
 15 16  1  0  0  0  0
 17 16  1  0  0  0  0
M  END
>  <minimizedAffinity>
-4.10334873

$$$$

 OpenBabel03272507563D

 17 18  0  0  0  0  0  0  0  0999 V2000
   37.1030   26.9360   33.6150 C   0  0  0  0  0  0  0  0  0  0  0  0
   37.9280   26.2470   34.5390 C   0  0  0  0  0  0  0  0  0  0  0  0
   38.2070   24.8990   34.2980 C   0  0  0  0  0  0  0  0  0  0  0  0
   37.6720   24.3130   33.1850 N   0  0  0  0  0  0  0  0  0  0  0  0
   36.8830   25.0130   32.3210 C   0  0  0  0  0  0  0  0  0  0  0  0
   36.6000   26.3020   32.5280 N   0  0  0  0  0  0  0  0  0  0  0  0
   36.4290   24.2150   31.2450 N   0  0  0  0  0  0  0  0  0  0  0  0
   36.8460   27.9810   33.7390 H   0  0  0  0  0  0  0  0  0  0  0  0
   37.1430   24.0930   30.4860 H   0  0  0  0  0  0  0  0  0  0  0  0
   35.4590   23.8410   31.3150 H   0  0  0  0  0  0  0  0  0  0  0  0
   38.4500   27.0040   35.7210 C   0  0  0  0  0  0  0  0  0  0  0  0
   39.8300   27.1890   35.6020 F   0  0  0  0  0  0  0  0  0  0  0  0
   37.8710   28.2430   35.7010 F   0  0  0  0  0  0  0  0  0  0  0  0
   38.2010   26.3800   36.9080 F   0  0  0  0  0  0  0  0  0  0  0  0
   39.0600   24.1830   35.2510 C   0  0  0  0  0  3  0  0  0  0  0  0
   39.2690   22.6850   35.0760 C   0  0  0  0  0  2  0  0  0  0  0  0
   38.3520   23.1630   36.1330 C   0  0  0  0  0  2  0  0  0  0  0  0
  1  8  1  0  0  0  0
  1  2  1  0  0  0  0
  2 11  1  0  0  0  0
  3  2  2  0  0  0  0
  3 15  1  0  0  0  0
  4  3  1  0  0  0  0
  5  6  1  0  0  0  0
  5  4  2  0  0  0  0
  6  1  2  0  0  0  0
  7 10  1  0  0  0  0
  7  5  1  0  0  0  0
  9  7  1  0  0  0  0
 11 14  1  0  0  0  0
 12 11  1  0  0  0  0
 13 11  1  0  0  0  0
 15 17  1  0  0  0  0
 16 15  1  0  0  0  0
 16 17  1  0  0  0  0
M  END
>  <minimizedAffinity>
-4.0799222

$$$$

 OpenBabel03272507563D

 17 18  0  0  0  0  0  0  0  0999 V2000
   33.2850   30.5180   35.4340 C   0  0  0  0  0  0  0  0  0  0  0  0
   34.5520   30.4400   34.8040 C   0  0  0  0  0  0  0  0  0  0  0  0
   34.6330   29.8160   33.5570 C   0  0  0  0  0  0  0  0  0  0  0  0
   33.4880   29.3120   33.0060 N   0  0  0  0  0  0  0  0  0  0  0  0
   32.2880   29.4080   33.6460 C   0  0  0  0  0  0  0  0  0  0  0  0
   32.1820   29.9990   34.8390 N   0  0  0  0  0  0  0  0  0  0  0  0
   31.2380   28.8160   32.9050 N   0  0  0  0  0  0  0  0  0  0  0  0
   33.1490   30.9870   36.4000 H   0  0  0  0  0  0  0  0  0  0  0  0
   30.8710   29.4290   32.1370 H   0  0  0  0  0  0  0  0  0  0  0  0
   30.9450   27.8580   33.1920 H   0  0  0  0  0  0  0  0  0  0  0  0
   35.7310   31.0300   35.5150 C   0  0  0  0  0  0  0  0  0  0  0  0
   36.7130   30.0560   35.7080 F   0  0  0  0  0  0  0  0  0  0  0  0
   36.2640   31.9880   34.6960 F   0  0  0  0  0  0  0  0  0  0  0  0
   35.4100   31.5640   36.7280 F   0  0  0  0  0  0  0  0  0  0  0  0
   35.9420   29.7340   32.9020 C   0  0  0  0  0  3  0  0  0  0  0  0
   36.0660   28.9750   31.5880 C   0  0  0  0  0  2  0  0  0  0  0  0
   36.5580   28.3430   32.8300 C   0  0  0  0  0  2  0  0  0  0  0  0
  1  8  1  0  0  0  0
  2  1  2  0  0  0  0
  2 11  1  0  0  0  0
  3  2  1  0  0  0  0
  4  3  2  0  0  0  0
  4  5  1  0  0  0  0
  5  6  2  0  0  0  0
  6  1  1  0  0  0  0
  7 10  1  0  0  0  0
  7  5  1  0  0  0  0
  9  7  1  0  0  0  0
 11 12  1  0  0  0  0
 11 14  1  0  0  0  0
 13 11  1  0  0  0  0
 15  3  1  0  0  0  0
 16 17  1  0  0  0  0
 16 15  1  0  0  0  0
 17 15  1  0  0  0  0
M  END
>  <minimizedAffinity>
-4.00293779

$$$$

 OpenBabel03272507563D

 17 18  0  0  0  0  0  0  0  0999 V2000
   37.9190   25.3520   33.5870 C   0  0  0  0  0  0  0  0  0  0  0  0
   38.3390   25.4670   34.9350 C   0  0  0  0  0  0  0  0  0  0  0  0
   38.4420   24.3000   35.6960 C   0  0  0  0  0  0  0  0  0  0  0  0
   38.1330   23.1070   35.1040 N   0  0  0  0  0  0  0  0  0  0  0  0
   37.7330   23.0420   33.8020 C   0  0  0  0  0  0  0  0  0  0  0  0
   37.6250   24.1410   33.0520 N   0  0  0  0  0  0  0  0  0  0  0  0
   37.4560   21.7150   33.3940 N   0  0  0  0  0  0  0  0  0  0  0  0
   37.8170   26.2140   32.9390 H   0  0  0  0  0  0  0  0  0  0  0  0
   38.3160   21.1650   33.1530 H   0  0  0  0  0  0  0  0  0  0  0  0
   36.4540   21.4300   33.3770 H   0  0  0  0  0  0  0  0  0  0  0  0
   38.6460   26.8340   35.4650 C   0  0  0  0  0  0  0  0  0  0  0  0
   38.0540   27.8070   34.6570 F   0  0  0  0  0  0  0  0  0  0  0  0
   38.0720   26.9300   36.7030 F   0  0  0  0  0  0  0  0  0  0  0  0
   39.9840   27.0900   35.5380 F   0  0  0  0  0  0  0  0  0  0  0  0
   38.8770   24.4140   37.0920 C   0  0  0  0  0  3  0  0  0  0  0  0
   39.0410   23.1490   37.9210 C   0  0  0  0  0  2  0  0  0  0  0  0
   37.8510   23.9990   38.1390 C   0  0  0  0  0  2  0  0  0  0  0  0
  1  2  1  0  0  0  0
  2 11  1  0  0  0  0
  2  3  2  0  0  0  0
  3 15  1  0  0  0  0
  4  3  1  0  0  0  0
  5  4  2  0  0  0  0
  6  1  2  0  0  0  0
  6  5  1  0  0  0  0
  7  5  1  0  0  0  0
  8  1  1  0  0  0  0
  9  7  1  0  0  0  0
 10  7  1  0  0  0  0
 11 14  1  0  0  0  0
 11 13  1  0  0  0  0
 12 11  1  0  0  0  0
 15 16  1  0  0  0  0
 15 17  1  0  0  0  0
 16 17  1  0  0  0  0
M  END
>  <minimizedAffinity>
-3.99713373

$$$$
