
 OpenBabel03272507593D

 26 28  0  0  0  0  0  0  0  0999 V2000
   40.9820   23.1050   36.3470 C   0  0  0  0  0  0  0  0  0  0  0  0
   40.2930   24.0300   35.5120 C   0  0  0  0  0  0  0  0  0  0  0  0
   39.0170   24.4310   35.8860 C   0  0  0  0  0  0  0  0  0  0  0  0
   38.4880   23.9140   37.0440 N   0  0  0  0  0  0  0  0  0  0  0  0
   39.1900   23.0290   37.8130 C   0  0  0  0  0  0  0  0  0  0  0  0
   40.4110   22.6300   37.4760 N   0  0  0  0  0  0  0  0  0  0  0  0
   38.4380   22.6350   38.9580 N   0  0  0  0  0  0  0  0  0  0  0  0
   41.9850   22.7760   36.0740 H   0  0  0  0  0  0  0  0  0  0  0  0
   38.8810   22.5630   39.9030 H   0  0  0  0  0  0  0  0  0  0  0  0
   37.4180   22.3980   38.9240 H   0  0  0  0  0  0  0  0  0  0  0  0
   38.2830   25.3720   35.0600 C   0  0  0  0  0  0  0  0  0  0  0  0
   38.1600   26.6190   35.6610 C   0  0  0  0  0  0  0  0  0  0  0  0
   37.4840   27.6350   35.0020 C   0  0  0  0  0  0  0  0  0  0  0  0
   36.9380   27.3910   33.7500 C   0  0  0  0  0  0  0  0  0  0  0  0
   37.0780   26.1400   33.1820 C   0  0  0  0  0  0  0  0  0  0  0  0
   37.7370   25.1900   33.8510 N   0  0  0  0  0  0  0  0  0  0  0  0
   38.5370   26.9530   36.6360 H   0  0  0  0  0  0  0  0  0  0  0  0
   37.3450   28.6320   35.4020 H   0  0  0  0  0  0  0  0  0  0  0  0
   36.3980   28.1300   33.1750 H   0  0  0  0  0  0  0  0  0  0  0  0
   36.5130   25.8180   31.8380 C   0  0  0  0  0  3  0  0  0  0  0  0
   37.2490   24.7800   31.0000 C   0  0  0  0  0  2  0  0  0  0  0  0
   35.8570   24.5260   31.5750 C   0  0  0  0  0  2  0  0  0  0  0  0
   40.9720   24.5180   34.2820 C   0  0  0  0  0  0  0  0  0  0  0  0
   40.9970   25.9160   34.2440 F   0  0  0  0  0  0  0  0  0  0  0  0
   42.2550   24.0660   34.2840 F   0  0  0  0  0  0  0  0  0  0  0  0
   40.3690   24.0790   33.1180 F   0  0  0  0  0  0  0  0  0  0  0  0
  1  6  1  0  0  0  0
  2  3  1  0  0  0  0
  2  1  2  0  0  0  0
  3  4  2  0  0  0  0
  4  5  1  0  0  0  0
  5  7  1  0  0  0  0
  6  5  2  0  0  0  0
  7  9  1  0  0  0  0
  8  1  1  0  0  0  0
 10  7  1  0  0  0  0
 11 12  1  0  0  0  0
 11  3  1  0  0  0  0
 12 17  1  0  0  0  0
 13 18  1  0  0  0  0
 13 12  2  0  0  0  0
 14 13  1  0  0  0  0
 15 14  2  0  0  0  0
 15 16  1  0  0  0  0
 16 11  2  0  0  0  0
 19 14  1  0  0  0  0
 20 15  1  0  0  0  0
 21 22  1  0  0  0  0
 21 20  1  0  0  0  0
 22 20  1  0  0  0  0
 23 25  1  0  0  0  0
 23  2  1  0  0  0  0
 24 23  1  0  0  0  0
 26 23  1  0  0  0  0
M  END
>  <minimizedAffinity>
-5.36448812

$$$$

 OpenBabel03272507593D

 26 28  0  0  0  0  0  0  0  0999 V2000
   37.1110   26.8350   33.6470 C   0  0  0  0  0  0  0  0  0  0  0  0
   38.0500   26.1990   34.5100 C   0  0  0  0  0  0  0  0  0  0  0  0
   38.4210   24.8910   34.2280 C   0  0  0  0  0  0  0  0  0  0  0  0
   37.8630   24.2790   33.1320 N   0  0  0  0  0  0  0  0  0  0  0  0
   36.9660   24.9320   32.3340 C   0  0  0  0  0  0  0  0  0  0  0  0
   36.5950   26.1830   32.5830 N   0  0  0  0  0  0  0  0  0  0  0  0
   36.5270   24.0970   31.2650 N   0  0  0  0  0  0  0  0  0  0  0  0
   36.8050   27.8620   33.8480 H   0  0  0  0  0  0  0  0  0  0  0  0
   36.4340   24.4640   30.2900 H   0  0  0  0  0  0  0  0  0  0  0  0
   36.2760   23.0870   31.3880 H   0  0  0  0  0  0  0  0  0  0  0  0
   39.3750   24.2100   35.0840 C   0  0  0  0  0  0  0  0  0  0  0  0
   38.7540   23.4610   36.0760 C   0  0  0  0  0  0  0  0  0  0  0  0
   39.5250   22.7470   36.9820 C   0  0  0  0  0  0  0  0  0  0  0  0
   40.9080   22.7900   36.8830 C   0  0  0  0  0  0  0  0  0  0  0  0
   41.4930   23.5440   35.8840 C   0  0  0  0  0  0  0  0  0  0  0  0
   40.7130   24.2170   35.0330 N   0  0  0  0  0  0  0  0  0  0  0  0
   37.6820   23.3350   36.2740 H   0  0  0  0  0  0  0  0  0  0  0  0
   39.1190   22.1410   37.7820 H   0  0  0  0  0  0  0  0  0  0  0  0
   41.5750   22.2620   37.5490 H   0  0  0  0  0  0  0  0  0  0  0  0
   42.9750   23.6290   35.7280 C   0  0  0  0  0  3  0  0  0  0  0  0
   43.5720   25.0030   35.4520 C   0  0  0  0  0  2  0  0  0  0  0  0
   43.8180   24.2550   36.7610 C   0  0  0  0  0  2  0  0  0  0  0  0
   38.5840   26.9670   35.6660 C   0  0  0  0  0  0  0  0  0  0  0  0
   39.9690   27.1340   35.5610 F   0  0  0  0  0  0  0  0  0  0  0  0
   38.0030   28.1970   35.6790 F   0  0  0  0  0  0  0  0  0  0  0  0
   38.3270   26.3640   36.8830 F   0  0  0  0  0  0  0  0  0  0  0  0
  1  8  1  0  0  0  0
  1  2  1  0  0  0  0
  2 23  1  0  0  0  0
  3  2  2  0  0  0  0
  3 11  1  0  0  0  0
  4  3  1  0  0  0  0
  5  6  1  0  0  0  0
  5  4  2  0  0  0  0
  6  1  2  0  0  0  0
  7 10  1  0  0  0  0
  7  5  1  0  0  0  0
  9  7  1  0  0  0  0
 11 12  1  0  0  0  0
 12 17  1  0  0  0  0
 12 13  2  0  0  0  0
 13 18  1  0  0  0  0
 14 13  1  0  0  0  0
 14 19  1  0  0  0  0
 15 14  2  0  0  0  0
 16 11  2  0  0  0  0
 16 15  1  0  0  0  0
 20 15  1  0  0  0  0
 20 22  1  0  0  0  0
 21 20  1  0  0  0  0
 21 22  1  0  0  0  0
 23 25  1  0  0  0  0
 23 26  1  0  0  0  0
 24 23  1  0  0  0  0
M  END
>  <minimizedAffinity>
-5.35316896

$$$$

 OpenBabel03272507593D

 26 28  0  0  0  0  0  0  0  0999 V2000
   33.2600   31.6390   35.8180 C   0  0  0  0  0  0  0  0  0  0  0  0
   34.3840   30.9680   35.2570 C   0  0  0  0  0  0  0  0  0  0  0  0
   34.1600   29.8140   34.5170 C   0  0  0  0  0  0  0  0  0  0  0  0
   32.8660   29.3810   34.3660 N   0  0  0  0  0  0  0  0  0  0  0  0
   31.8190   30.0600   34.9240 C   0  0  0  0  0  0  0  0  0  0  0  0
   32.0080   31.1650   35.6360 N   0  0  0  0  0  0  0  0  0  0  0  0
   30.5790   29.4210   34.6320 N   0  0  0  0  0  0  0  0  0  0  0  0
   33.4110   32.5470   36.4030 H   0  0  0  0  0  0  0  0  0  0  0  0
   29.7340   29.9720   34.3520 H   0  0  0  0  0  0  0  0  0  0  0  0
   30.4400   28.3840   34.6790 H   0  0  0  0  0  0  0  0  0  0  0  0
   35.2810   29.1030   33.9290 C   0  0  0  0  0  0  0  0  0  0  0  0
   35.4460   29.3980   32.5810 C   0  0  0  0  0  0  0  0  0  0  0  0
   36.4740   28.8000   31.8680 C   0  0  0  0  0  0  0  0  0  0  0  0
   37.3260   27.9140   32.5120 C   0  0  0  0  0  0  0  0  0  0  0  0
   37.1340   27.6440   33.8530 C   0  0  0  0  0  0  0  0  0  0  0  0
   36.1310   28.2420   34.5020 N   0  0  0  0  0  0  0  0  0  0  0  0
   34.8550   30.0720   31.9470 H   0  0  0  0  0  0  0  0  0  0  0  0
   36.6690   28.9760   30.8170 H   0  0  0  0  0  0  0  0  0  0  0  0
   38.1480   27.4100   32.0260 H   0  0  0  0  0  0  0  0  0  0  0  0
   38.0180   26.7000   34.6000 C   0  0  0  0  0  3  0  0  0  0  0  0
   39.4800   27.0940   34.7650 C   0  0  0  0  0  2  0  0  0  0  0  0
   38.5160   27.0250   35.9470 C   0  0  0  0  0  2  0  0  0  0  0  0
   35.7390   31.5360   35.4910 C   0  0  0  0  0  0  0  0  0  0  0  0
   36.2800   32.0470   34.3070 F   0  0  0  0  0  0  0  0  0  0  0  0
   35.6360   32.5520   36.3900 F   0  0  0  0  0  0  0  0  0  0  0  0
   36.6350   30.6120   35.9950 F   0  0  0  0  0  0  0  0  0  0  0  0
  1  8  1  0  0  0  0
  2 23  1  0  0  0  0
  2  1  2  0  0  0  0
  3  2  1  0  0  0  0
  4  3  2  0  0  0  0
  4  5  1  0  0  0  0
  5  6  2  0  0  0  0
  6  1  1  0  0  0  0
  7 10  1  0  0  0  0
  7  5  1  0  0  0  0
  9  7  1  0  0  0  0
 11 16  1  0  0  0  0
 11  3  1  0  0  0  0
 12 11  2  0  0  0  0
 13 14  2  0  0  0  0
 13 12  1  0  0  0  0
 14 15  1  0  0  0  0
 15 16  2  0  0  0  0
 15 20  1  0  0  0  0
 17 12  1  0  0  0  0
 18 13  1  0  0  0  0
 19 14  1  0  0  0  0
 20 21  1  0  0  0  0
 20 22  1  0  0  0  0
 21 22  1  0  0  0  0
 23 26  1  0  0  0  0
 23 25  1  0  0  0  0
 24 23  1  0  0  0  0
M  END
>  <minimizedAffinity>
-5.27361155

$$$$

 OpenBabel03272507593D

 26 28  0  0  0  0  0  0  0  0999 V2000
   38.5860   27.5230   32.0850 C   0  0  0  0  0  0  0  0  0  0  0  0
   38.8190   26.5080   33.0560 C   0  0  0  0  0  0  0  0  0  0  0  0
   37.9490   25.4260   33.0990 C   0  0  0  0  0  0  0  0  0  0  0  0
   36.9090   25.3930   32.2020 N   0  0  0  0  0  0  0  0  0  0  0  0
   36.7280   26.3930   31.2880 C   0  0  0  0  0  0  0  0  0  0  0  0
   37.5460   27.4370   31.2270 N   0  0  0  0  0  0  0  0  0  0  0  0
   35.5890   26.1390   30.4700 N   0  0  0  0  0  0  0  0  0  0  0  0
   39.2570   28.3820   32.0320 H   0  0  0  0  0  0  0  0  0  0  0  0
   35.6130   26.3000   29.4360 H   0  0  0  0  0  0  0  0  0  0  0  0
   34.6770   25.7840   30.8450 H   0  0  0  0  0  0  0  0  0  0  0  0
   38.1540   24.3710   34.0750 C   0  0  0  0  0  0  0  0  0  0  0  0
   38.7520   23.2470   33.5200 C   0  0  0  0  0  0  0  0  0  0  0  0
   39.0190   22.1450   34.3190 C   0  0  0  0  0  0  0  0  0  0  0  0
   38.6830   22.1820   35.6650 C   0  0  0  0  0  0  0  0  0  0  0  0
   38.0890   23.3150   36.1850 C   0  0  0  0  0  0  0  0  0  0  0  0
   37.8510   24.3540   35.3790 N   0  0  0  0  0  0  0  0  0  0  0  0
   39.0700   23.0770   32.4830 H   0  0  0  0  0  0  0  0  0  0  0  0
   39.4810   21.2320   33.9640 H   0  0  0  0  0  0  0  0  0  0  0  0
   38.8580   21.3650   36.3510 H   0  0  0  0  0  0  0  0  0  0  0  0
   37.7060   23.4140   37.6240 C   0  0  0  0  0  3  0  0  0  0  0  0
   38.8290   23.3550   38.6530 C   0  0  0  0  0  2  0  0  0  0  0  0
   38.0070   24.6200   38.4140 C   0  0  0  0  0  2  0  0  0  0  0  0
   39.9800   26.6560   33.9740 C   0  0  0  0  0  0  0  0  0  0  0  0
   40.7810   25.5090   33.9600 F   0  0  0  0  0  0  0  0  0  0  0  0
   40.7330   27.7100   33.5570 F   0  0  0  0  0  0  0  0  0  0  0  0
   39.6100   26.8920   35.2850 F   0  0  0  0  0  0  0  0  0  0  0  0
  1  2  1  0  0  0  0
  2  3  2  0  0  0  0
  2 23  1  0  0  0  0
  3 11  1  0  0  0  0
  4  3  1  0  0  0  0
  5  4  2  0  0  0  0
  6  5  1  0  0  0  0
  6  1  2  0  0  0  0
  7 10  1  0  0  0  0
  7  5  1  0  0  0  0
  8  1  1  0  0  0  0
  9  7  1  0  0  0  0
 11 16  1  0  0  0  0
 12 11  2  0  0  0  0
 12 13  1  0  0  0  0
 13 14  2  0  0  0  0
 14 15  1  0  0  0  0
 14 19  1  0  0  0  0
 15 20  1  0  0  0  0
 16 15  2  0  0  0  0
 17 12  1  0  0  0  0
 18 13  1  0  0  0  0
 20 22  1  0  0  0  0
 20 21  1  0  0  0  0
 22 21  1  0  0  0  0
 23 26  1  0  0  0  0
 24 23  1  0  0  0  0
 25 23  1  0  0  0  0
M  END
>  <minimizedAffinity>
-5.24831581

$$$$

 OpenBabel03272507593D

 26 28  0  0  0  0  0  0  0  0999 V2000
   36.6450   27.6370   33.4780 C   0  0  0  0  0  0  0  0  0  0  0  0
   37.6690   26.8420   34.0660 C   0  0  0  0  0  0  0  0  0  0  0  0
   38.0670   25.6860   33.4060 C   0  0  0  0  0  0  0  0  0  0  0  0
   37.4500   25.3710   32.2200 N   0  0  0  0  0  0  0  0  0  0  0  0
   36.4710   26.1680   31.6950 C   0  0  0  0  0  0  0  0  0  0  0  0
   36.0740   27.2770   32.3070 N   0  0  0  0  0  0  0  0  0  0  0  0
   35.9840   25.6380   30.4640 N   0  0  0  0  0  0  0  0  0  0  0  0
   36.3170   28.5490   33.9770 H   0  0  0  0  0  0  0  0  0  0  0  0
   35.8040   26.2550   29.6380 H   0  0  0  0  0  0  0  0  0  0  0  0
   35.7820   24.6220   30.3140 H   0  0  0  0  0  0  0  0  0  0  0  0
   39.1080   24.8500   33.9750 C   0  0  0  0  0  0  0  0  0  0  0  0
   40.3350   25.0340   33.3490 C   0  0  0  0  0  0  0  0  0  0  0  0
   41.4380   24.3090   33.7730 C   0  0  0  0  0  0  0  0  0  0  0  0
   41.3010   23.4070   34.8190 C   0  0  0  0  0  0  0  0  0  0  0  0
   40.0670   23.2490   35.4200 C   0  0  0  0  0  0  0  0  0  0  0  0
   39.0300   23.9680   34.9800 N   0  0  0  0  0  0  0  0  0  0  0  0
   40.5900   25.7050   32.5180 H   0  0  0  0  0  0  0  0  0  0  0  0
   42.4260   24.3940   33.3390 H   0  0  0  0  0  0  0  0  0  0  0  0
   42.1120   22.8070   35.2060 H   0  0  0  0  0  0  0  0  0  0  0  0
   39.8580   22.2950   36.5490 C   0  0  0  0  0  3  0  0  0  0  0  0
   41.0890   21.8590   37.3330 C   0  0  0  0  0  2  0  0  0  0  0  0
   39.9950   22.7280   37.9500 C   0  0  0  0  0  2  0  0  0  0  0  0
   38.2610   27.2870   35.3560 C   0  0  0  0  0  0  0  0  0  0  0  0
   39.6410   27.4790   35.2360 F   0  0  0  0  0  0  0  0  0  0  0  0
   37.6930   28.4720   35.7100 F   0  0  0  0  0  0  0  0  0  0  0  0
   38.0520   26.3920   36.3880 F   0  0  0  0  0  0  0  0  0  0  0  0
  1  8  1  0  0  0  0
  1  2  1  0  0  0  0
  2 23  1  0  0  0  0
  3 11  1  0  0  0  0
  3  2  2  0  0  0  0
  4  3  1  0  0  0  0
  5  4  2  0  0  0  0
  5  6  1  0  0  0  0
  6  1  2  0  0  0  0
  7  5  1  0  0  0  0
  9  7  1  0  0  0  0
 10  7  1  0  0  0  0
 11 16  1  0  0  0  0
 12 13  1  0  0  0  0
 12 11  2  0  0  0  0
 13 14  2  0  0  0  0
 14 19  1  0  0  0  0
 14 15  1  0  0  0  0
 15 20  1  0  0  0  0
 16 15  2  0  0  0  0
 17 12  1  0  0  0  0
 18 13  1  0  0  0  0
 20 21  1  0  0  0  0
 20 22  1  0  0  0  0
 21 22  1  0  0  0  0
 23 25  1  0  0  0  0
 23 26  1  0  0  0  0
 24 23  1  0  0  0  0
M  END
>  <minimizedAffinity>
-5.14493942

$$$$

 OpenBabel03272507593D

 26 28  0  0  0  0  0  0  0  0999 V2000
   39.1740   27.1770   31.9530 C   0  0  0  0  0  0  0  0  0  0  0  0
   39.3580   26.4760   33.1790 C   0  0  0  0  0  0  0  0  0  0  0  0
   38.4350   25.4970   33.5240 C   0  0  0  0  0  0  0  0  0  0  0  0
   37.3910   25.2580   32.6630 N   0  0  0  0  0  0  0  0  0  0  0  0
   37.2570   25.9580   31.4970 C   0  0  0  0  0  0  0  0  0  0  0  0
   38.1270   26.8980   31.1450 N   0  0  0  0  0  0  0  0  0  0  0  0
   36.1030   25.5350   30.7750 N   0  0  0  0  0  0  0  0  0  0  0  0
   39.8870   27.9480   31.6610 H   0  0  0  0  0  0  0  0  0  0  0  0
   36.1310   25.3880   29.7390 H   0  0  0  0  0  0  0  0  0  0  0  0
   35.1760   25.3500   31.2270 H   0  0  0  0  0  0  0  0  0  0  0  0
   38.5900   24.7620   34.7650 C   0  0  0  0  0  0  0  0  0  0  0  0
   37.8120   25.2860   35.7900 C   0  0  0  0  0  0  0  0  0  0  0  0
   37.8430   24.6980   37.0460 C   0  0  0  0  0  0  0  0  0  0  0  0
   38.6540   23.5930   37.2610 C   0  0  0  0  0  0  0  0  0  0  0  0
   39.4140   23.0970   36.2210 C   0  0  0  0  0  0  0  0  0  0  0  0
   39.3540   23.6940   35.0260 N   0  0  0  0  0  0  0  0  0  0  0  0
   37.1310   26.1470   35.7660 H   0  0  0  0  0  0  0  0  0  0  0  0
   37.2690   25.0460   37.8960 H   0  0  0  0  0  0  0  0  0  0  0  0
   38.7330   23.0810   38.2100 H   0  0  0  0  0  0  0  0  0  0  0  0
   40.3040   21.9110   36.3910 C   0  0  0  0  0  3  0  0  0  0  0  0
   41.7990   22.1220   36.1830 C   0  0  0  0  0  2  0  0  0  0  0  0
   41.2050   21.7920   37.5510 C   0  0  0  0  0  2  0  0  0  0  0  0
   40.5290   26.8250   34.0270 C   0  0  0  0  0  0  0  0  0  0  0  0
   41.4030   25.7400   34.1490 F   0  0  0  0  0  0  0  0  0  0  0  0
   41.2010   27.8530   33.4400 F   0  0  0  0  0  0  0  0  0  0  0  0
   40.1760   27.2240   35.3030 F   0  0  0  0  0  0  0  0  0  0  0  0
  1  2  1  0  0  0  0
  2  3  2  0  0  0  0
  2 23  1  0  0  0  0
  3 11  1  0  0  0  0
  4  3  1  0  0  0  0
  5  4  2  0  0  0  0
  6  5  1  0  0  0  0
  6  1  2  0  0  0  0
  7 10  1  0  0  0  0
  7  5  1  0  0  0  0
  8  1  1  0  0  0  0
  9  7  1  0  0  0  0
 11 16  2  0  0  0  0
 11 12  1  0  0  0  0
 12 13  2  0  0  0  0
 13 14  1  0  0  0  0
 13 18  1  0  0  0  0
 14 19  1  0  0  0  0
 15 20  1  0  0  0  0
 15 14  2  0  0  0  0
 16 15  1  0  0  0  0
 17 12  1  0  0  0  0
 20 22  1  0  0  0  0
 21 20  1  0  0  0  0
 21 22  1  0  0  0  0
 23 24  1  0  0  0  0
 23 26  1  0  0  0  0
 25 23  1  0  0  0  0
M  END
>  <minimizedAffinity>
-5.13906813

$$$$

 OpenBabel03272507593D

 26 28  0  0  0  0  0  0  0  0999 V2000
   40.0280   22.6720   37.6830 C   0  0  0  0  0  0  0  0  0  0  0  0
   39.0460   22.8150   36.6620 C   0  0  0  0  0  0  0  0  0  0  0  0
   39.3650   22.3900   35.3780 C   0  0  0  0  0  0  0  0  0  0  0  0
   40.6110   21.8550   35.1620 N   0  0  0  0  0  0  0  0  0  0  0  0
   41.5200   21.7390   36.1760 C   0  0  0  0  0  0  0  0  0  0  0  0
   41.2390   22.1380   37.4110 N   0  0  0  0  0  0  0  0  0  0  0  0
   42.7360   21.1580   35.7110 N   0  0  0  0  0  0  0  0  0  0  0  0
   39.8010   22.9980   38.6990 H   0  0  0  0  0  0  0  0  0  0  0  0
   43.2360   20.4240   36.2650 H   0  0  0  0  0  0  0  0  0  0  0  0
   43.1930   21.4240   34.8070 H   0  0  0  0  0  0  0  0  0  0  0  0
   38.3900   22.5200   34.3110 C   0  0  0  0  0  0  0  0  0  0  0  0
   38.6230   23.6330   33.5130 C   0  0  0  0  0  0  0  0  0  0  0  0
   37.7810   23.9030   32.4460 C   0  0  0  0  0  0  0  0  0  0  0  0
   36.7130   23.0550   32.1880 C   0  0  0  0  0  0  0  0  0  0  0  0
   36.5090   21.9560   33.0000 C   0  0  0  0  0  0  0  0  0  0  0  0
   37.3460   21.7340   34.0190 N   0  0  0  0  0  0  0  0  0  0  0  0
   39.4200   24.3840   33.5970 H   0  0  0  0  0  0  0  0  0  0  0  0
   37.8940   24.7490   31.7790 H   0  0  0  0  0  0  0  0  0  0  0  0
   36.0140   23.1980   31.3770 H   0  0  0  0  0  0  0  0  0  0  0  0
   35.3790   21.0080   32.7730 C   0  0  0  0  0  3  0  0  0  0  0  0
   35.5290   20.0000   31.6410 C   0  0  0  0  0  2  0  0  0  0  0  0
   35.5010   19.5790   33.1090 C   0  0  0  0  0  2  0  0  0  0  0  0
   37.7310   23.4100   37.0200 C   0  0  0  0  0  0  0  0  0  0  0  0
   36.6960   22.4880   36.8370 F   0  0  0  0  0  0  0  0  0  0  0  0
   37.7580   23.7710   38.3310 F   0  0  0  0  0  0  0  0  0  0  0  0
   37.4240   24.5360   36.2770 F   0  0  0  0  0  0  0  0  0  0  0  0
  1  8  1  0  0  0  0
  2 23  1  0  0  0  0
  2  1  2  0  0  0  0
  3  2  1  0  0  0  0
  4  3  2  0  0  0  0
  4  5  1  0  0  0  0
  5  6  2  0  0  0  0
  6  1  1  0  0  0  0
  7  5  1  0  0  0  0
  7  9  1  0  0  0  0
 10  7  1  0  0  0  0
 11  3  1  0  0  0  0
 12 17  1  0  0  0  0
 12 11  2  0  0  0  0
 13 12  1  0  0  0  0
 14 13  2  0  0  0  0
 14 15  1  0  0  0  0
 15 16  2  0  0  0  0
 16 11  1  0  0  0  0
 18 13  1  0  0  0  0
 19 14  1  0  0  0  0
 20 15  1  0  0  0  0
 20 22  1  0  0  0  0
 21 20  1  0  0  0  0
 21 22  1  0  0  0  0
 23 25  1  0  0  0  0
 24 23  1  0  0  0  0
 26 23  1  0  0  0  0
M  END
>  <minimizedAffinity>
-5.08157921

$$$$

 OpenBabel03272507593D

 26 28  0  0  0  0  0  0  0  0999 V2000
   40.0800   22.6450   37.8470 C   0  0  0  0  0  0  0  0  0  0  0  0
   39.2550   23.3500   36.9250 C   0  0  0  0  0  0  0  0  0  0  0  0
   39.5660   23.2780   35.5740 C   0  0  0  0  0  0  0  0  0  0  0  0
   40.6550   22.5290   35.1980 N   0  0  0  0  0  0  0  0  0  0  0  0
   41.4170   21.8690   36.1210 C   0  0  0  0  0  0  0  0  0  0  0  0
   41.1390   21.9240   37.4190 N   0  0  0  0  0  0  0  0  0  0  0  0
   42.4860   21.1640   35.4950 N   0  0  0  0  0  0  0  0  0  0  0  0
   39.8550   22.6870   38.9130 H   0  0  0  0  0  0  0  0  0  0  0  0
   42.7400   20.1910   35.7830 H   0  0  0  0  0  0  0  0  0  0  0  0
   43.0700   21.5690   34.7250 H   0  0  0  0  0  0  0  0  0  0  0  0
   38.7480   23.9830   34.6040 C   0  0  0  0  0  0  0  0  0  0  0  0
   38.0850   23.1180   33.7430 C   0  0  0  0  0  0  0  0  0  0  0  0
   37.2590   23.6310   32.7540 C   0  0  0  0  0  0  0  0  0  0  0  0
   37.1080   25.0060   32.6380 C   0  0  0  0  0  0  0  0  0  0  0  0
   37.7820   25.8380   33.5100 C   0  0  0  0  0  0  0  0  0  0  0  0
   38.5680   25.3010   34.4480 N   0  0  0  0  0  0  0  0  0  0  0  0
   38.1080   22.0200   33.7170 H   0  0  0  0  0  0  0  0  0  0  0  0
   36.7080   23.0250   32.0460 H   0  0  0  0  0  0  0  0  0  0  0  0
   36.4840   25.4810   31.8950 H   0  0  0  0  0  0  0  0  0  0  0  0
   37.6590   27.3240   33.4340 C   0  0  0  0  0  3  0  0  0  0  0  0
   36.4650   27.8880   32.6750 C   0  0  0  0  0  2  0  0  0  0  0  0
   36.6170   28.0430   34.1870 C   0  0  0  0  0  2  0  0  0  0  0  0
   38.1030   24.1270   37.4550 C   0  0  0  0  0  0  0  0  0  0  0  0
   36.9040   23.7150   36.8630 F   0  0  0  0  0  0  0  0  0  0  0  0
   38.0140   23.9160   38.7960 F   0  0  0  0  0  0  0  0  0  0  0  0
   38.2250   25.4890   37.2470 F   0  0  0  0  0  0  0  0  0  0  0  0
  1  8  1  0  0  0  0
  2 23  1  0  0  0  0
  2  1  2  0  0  0  0
  3  2  1  0  0  0  0
  4  3  2  0  0  0  0
  4  5  1  0  0  0  0
  5  6  2  0  0  0  0
  6  1  1  0  0  0  0
  7  9  1  0  0  0  0
  7  5  1  0  0  0  0
 10  7  1  0  0  0  0
 11  3  1  0  0  0  0
 12 11  2  0  0  0  0
 13 12  1  0  0  0  0
 14 13  2  0  0  0  0
 14 15  1  0  0  0  0
 15 16  2  0  0  0  0
 16 11  1  0  0  0  0
 17 12  1  0  0  0  0
 18 13  1  0  0  0  0
 19 14  1  0  0  0  0
 20 15  1  0  0  0  0
 20 22  1  0  0  0  0
 21 20  1  0  0  0  0
 21 22  1  0  0  0  0
 23 25  1  0  0  0  0
 24 23  1  0  0  0  0
 26 23  1  0  0  0  0
M  END
>  <minimizedAffinity>
-5.0798564

$$$$

 OpenBabel03272507593D

 26 28  0  0  0  0  0  0  0  0999 V2000
   40.3960   22.3460   37.5510 C   0  0  0  0  0  0  0  0  0  0  0  0
   39.5950   23.2740   36.8260 C   0  0  0  0  0  0  0  0  0  0  0  0
   40.1000   23.7950   35.6410 C   0  0  0  0  0  0  0  0  0  0  0  0
   41.3470   23.3870   35.2330 N   0  0  0  0  0  0  0  0  0  0  0  0
   42.0770   22.4930   35.9640 C   0  0  0  0  0  0  0  0  0  0  0  0
   41.6160   21.9810   37.1000 N   0  0  0  0  0  0  0  0  0  0  0  0
   43.3320   22.2250   35.3430 N   0  0  0  0  0  0  0  0  0  0  0  0
   40.0200   21.9230   38.4830 H   0  0  0  0  0  0  0  0  0  0  0  0
   43.7120   21.2520   35.2800 H   0  0  0  0  0  0  0  0  0  0  0  0
   43.9360   22.9680   34.9200 H   0  0  0  0  0  0  0  0  0  0  0  0
   39.3140   24.7430   34.8740 C   0  0  0  0  0  0  0  0  0  0  0  0
   39.6130   26.0610   35.1970 C   0  0  0  0  0  0  0  0  0  0  0  0
   38.9480   27.0940   34.5530 C   0  0  0  0  0  0  0  0  0  0  0  0
   37.9910   26.7950   33.5940 C   0  0  0  0  0  0  0  0  0  0  0  0
   37.7180   25.4740   33.2970 C   0  0  0  0  0  0  0  0  0  0  0  0
   38.3820   24.5100   33.9410 N   0  0  0  0  0  0  0  0  0  0  0  0
   40.3390   26.4430   35.9260 H   0  0  0  0  0  0  0  0  0  0  0  0
   39.1230   28.1450   34.7470 H   0  0  0  0  0  0  0  0  0  0  0  0
   37.4310   27.5430   33.0500 H   0  0  0  0  0  0  0  0  0  0  0  0
   36.6990   25.0920   32.2750 C   0  0  0  0  0  3  0  0  0  0  0  0
   37.2110   24.5570   30.9430 C   0  0  0  0  0  2  0  0  0  0  0  0
   36.4510   23.6800   31.9350 C   0  0  0  0  0  2  0  0  0  0  0  0
   38.2600   23.6380   37.3710 C   0  0  0  0  0  0  0  0  0  0  0  0
   37.2370   23.2300   36.5090 F   0  0  0  0  0  0  0  0  0  0  0  0
   38.0910   23.0090   38.5660 F   0  0  0  0  0  0  0  0  0  0  0  0
   38.1120   24.9960   37.5830 F   0  0  0  0  0  0  0  0  0  0  0  0
  1  8  1  0  0  0  0
  2 23  1  0  0  0  0
  2  1  2  0  0  0  0
  3  2  1  0  0  0  0
  4  3  2  0  0  0  0
  4  5  1  0  0  0  0
  5  6  2  0  0  0  0
  6  1  1  0  0  0  0
  7  5  1  0  0  0  0
  9  7  1  0  0  0  0
 10  7  1  0  0  0  0
 11 12  1  0  0  0  0
 11  3  1  0  0  0  0
 12 17  1  0  0  0  0
 13 18  1  0  0  0  0
 13 12  2  0  0  0  0
 14 13  1  0  0  0  0
 15 14  2  0  0  0  0
 15 16  1  0  0  0  0
 16 11  2  0  0  0  0
 19 14  1  0  0  0  0
 20 15  1  0  0  0  0
 21 22  1  0  0  0  0
 21 20  1  0  0  0  0
 22 20  1  0  0  0  0
 23 26  1  0  0  0  0
 23 25  1  0  0  0  0
 24 23  1  0  0  0  0
M  END
>  <minimizedAffinity>
-5.02850199

$$$$
