
 OpenBabel03272505173D

 36 39  0  0  1  0  0  0  0  0999 V2000
   38.2940   30.9700   47.5540 Cl  0  0  0  0  0  0  0  0  0  0  0  0
   36.9350   30.6190   46.5230 C   0  0  0  0  0  0  0  0  0  0  0  0
   35.8060   30.1110   47.0620 C   0  0  0  0  0  0  0  0  0  0  0  0
   34.7590   29.8900   46.1690 C   0  0  0  0  0  0  0  0  0  0  0  0
   34.8030   30.1440   44.8330 C   0  0  0  0  0  0  0  0  0  0  0  0
   35.9780   30.6620   44.3280 C   0  0  0  0  0  0  0  0  0  0  0  0
   37.0680   30.9060   45.1790 C   0  0  0  0  0  0  0  0  0  0  0  0
   33.8270   29.4810   46.5550 H   0  0  0  0  0  0  0  0  0  0  0  0
   33.9840   29.9680   44.1610 H   0  0  0  0  0  0  0  0  0  0  0  0
   36.1320   30.9040   43.2840 H   0  0  0  0  0  0  0  0  0  0  0  0
   38.2790   31.4170   44.6340 N   0  0  0  0  0  0  0  0  0  0  0  0
   38.7130   32.8040   44.7170 C   0  0  0  0  0  0  0  0  0  0  0  0
   39.9680   32.9010   43.8530 C   0  0  0  0  0  0  0  0  0  0  0  0
   39.5610   32.4490   42.5610 N   0  0  0  0  0  0  0  0  0  0  0  0
   39.3440   31.0500   42.5380 C   0  0  0  0  0  0  0  0  0  0  0  0
   39.1440   30.4930   43.9350 C   0  0  2  0  0  0  0  0  0  0  0  0
   37.9490   33.4300   44.1800 H   0  0  0  0  0  0  0  0  0  0  0  0
   38.8620   33.1680   45.7390 H   0  0  0  0  0  0  0  0  0  0  0  0
   40.7460   32.2730   44.3160 H   0  0  0  0  0  0  0  0  0  0  0  0
   40.3360   33.9630   43.8210 H   0  0  0  0  0  0  0  0  0  0  0  0
   40.2770   32.7230   41.8360 H   0  0  0  0  0  0  0  0  0  0  0  0
   38.5070   30.7980   41.8850 H   0  0  0  0  0  0  0  0  0  0  0  0
   40.2400   30.5110   42.1140 H   0  0  0  0  0  0  0  0  0  0  0  0
   40.1120   30.3490   44.4630 H   0  0  0  0  0  0  0  0  0  0  0  0
   38.5130   29.1350   43.7160 C   0  0  0  0  0  0  0  0  0  0  0  0
   39.2230   27.9510   43.2640 C   0  0  0  0  0  0  0  0  0  0  0  0
   38.0980   28.6280   42.4120 C   0  0  0  0  0  0  0  0  0  0  0  0
   36.7660   29.2640   50.5950 C   0  0  0  0  0  0  0  0  0  0  0  0
   36.8590   29.5220   49.2250 C   0  0  0  0  0  0  0  0  0  0  0  0
   35.7340   29.8270   48.4750 C   0  0  0  0  0  0  0  0  0  0  0  0
   34.5450   29.8570   49.1430 N   0  0  0  0  0  0  0  0  0  0  0  0
   34.4440   29.6080   50.4620 C   0  0  0  0  0  0  0  0  0  0  0  0
   35.5520   29.3110   51.1940 N   0  0  0  0  0  0  0  0  0  0  0  0
   37.5900   29.0220   51.2530 H   0  0  0  0  0  0  0  0  0  0  0  0
   37.8770   29.4090   48.9140 H   0  0  0  0  0  0  0  0  0  0  0  0
   33.4300   29.6740   50.8240 H   0  0  0  0  0  0  0  0  0  0  0  0
  2  3  1  0  0  0  0
  2  1  1  0  0  0  0
  3 30  1  0  0  0  0
  4  8  1  0  0  0  0
  4  3  2  0  0  0  0
  5  4  1  0  0  0  0
  6  5  2  0  0  0  0
  6  7  1  0  0  0  0
  7  2  2  0  0  0  0
  9  5  1  0  0  0  0
 10  6  1  0  0  0  0
 11 12  1  0  0  0  0
 11  7  1  0  0  0  0
 12 18  1  0  0  0  0
 13 19  1  0  0  0  0
 13 12  1  0  0  0  0
 14 13  1  0  0  0  0
 15 14  1  0  0  0  0
 15 16  1  0  0  0  0
 16 24  1  1  0  0  0
 16 11  1  0  0  0  0
 17 12  1  0  0  0  0
 20 13  1  0  0  0  0
 21 14  1  0  0  0  0
 22 15  1  0  0  0  0
 23 15  1  0  0  0  0
 25 16  1  0  0  0  0
 26 25  1  0  0  0  0
 27 26  1  0  0  0  0
 27 25  1  0  0  0  0
 28 33  1  0  0  0  0
 28 34  1  0  0  0  0
 29 28  2  0  0  0  0
 30 31  2  0  0  0  0
 30 29  1  0  0  0  0
 31 32  1  0  0  0  0
 32 36  1  0  0  0  0
 32 33  2  0  0  0  0
 35 29  1  0  0  0  0
M  END
>  <minimizedAffinity>
-5.46523094

>  <minimizedRMSD>
0.639150441

$$$$
