
 OpenBabel03272504453D

 24 26  0  0  0  0  0  0  0  0999 V2000
   36.5480   29.5760   51.0700 C   0  0  0  0  0  0  0  0  0  0  0  0
   37.4030   30.1850   50.1450 C   0  0  0  0  0  0  0  0  0  0  0  0
   37.1000   30.3630   48.8130 C   0  0  0  0  0  0  0  0  0  0  0  0
   35.8910   29.8950   48.4530 N   0  0  0  0  0  0  0  0  0  0  0  0
   35.0540   29.3040   49.3280 C   0  0  0  0  0  0  0  0  0  0  0  0
   35.3660   29.1470   50.5970 N   0  0  0  0  0  0  0  0  0  0  0  0
   36.8720   29.4770   52.1100 H   0  0  0  0  0  0  0  0  0  0  0  0
   37.5910   33.2140   49.4000 Cl  0  0  0  0  0  0  0  0  0  0  0  0
   38.2890   32.3300   48.0610 C   0  0  0  0  0  0  0  0  0  0  0  0
   38.0020   31.0010   47.8660 C   0  0  0  0  0  0  0  0  0  0  0  0
   38.5870   30.3790   46.7950 C   0  0  0  0  0  0  0  0  0  0  0  0
   39.4420   31.0300   45.9200 C   0  0  0  0  0  0  0  0  0  0  0  0
   39.6990   32.3920   46.1710 C   0  0  0  0  0  0  0  0  0  0  0  0
   40.7780   33.1640   45.0410 Cl  0  0  0  0  0  0  0  0  0  0  0  0
   39.1330   33.0540   47.2320 C   0  0  0  0  0  0  0  0  0  0  0  0
   38.3580   29.3290   46.6440 H   0  0  0  0  0  0  0  0  0  0  0  0
   39.8790   30.5150   45.0970 H   0  0  0  0  0  0  0  0  0  0  0  0
   39.3470   34.0870   47.3950 H   0  0  0  0  0  0  0  0  0  0  0  0
   38.6650   30.6470   50.6400 N   0  0  0  0  0  0  0  0  0  0  0  0
   39.4680   29.9770   50.6020 H   0  0  0  0  0  0  0  0  0  0  0  0
   38.8400   31.6000   51.0320 H   0  0  0  0  0  0  0  0  0  0  0  0
   33.7410   28.8290   48.7950 C   0  0  0  0  0  0  0  0  0  0  0  0
   33.8240   27.4000   48.2430 C   0  0  0  0  0  0  0  0  0  0  0  0
   33.5130   28.5980   47.3670 C   0  0  0  0  0  0  0  0  0  0  0  0
  1  7  1  0  0  0  0
  2 19  1  0  0  0  0
  2  1  2  0  0  0  0
  3  2  1  0  0  0  0
  4  3  2  0  0  0  0
  4  5  1  0  0  0  0
  5  6  2  0  0  0  0
  6  1  1  0  0  0  0
  9  8  1  0  0  0  0
 10  9  1  0  0  0  0
 10  3  1  0  0  0  0
 11 10  2  0  0  0  0
 12 13  2  0  0  0  0
 12 11  1  0  0  0  0
 13 15  1  0  0  0  0
 14 13  1  0  0  0  0
 15 18  1  0  0  0  0
 15  9  2  0  0  0  0
 16 11  1  0  0  0  0
 17 12  1  0  0  0  0
 19 21  1  0  0  0  0
 20 19  1  0  0  0  0
 22  5  1  0  0  0  0
 23 22  1  0  0  0  0
 24 23  1  0  0  0  0
 24 22  1  0  0  0  0
M  END
>  <minimizedAffinity>
-6.26956606

>  <minimizedRMSD>
0.954088688

$$$$
