
 OpenBabel03272507453D

 27 29  0  0  0  0  0  0  0  0999 V2000
   37.9290   24.9360   33.6490 N   0  0  0  0  0  0  0  0  0  0  0  0
   38.2270   23.6040   34.1060 C   0  0  0  0  0  0  0  0  0  0  0  0
   38.3280   23.3750   35.5400 C   0  0  0  0  0  0  0  0  0  0  0  0
   38.6840   24.5150   36.4140 C   0  0  0  0  0  0  0  0  0  0  0  0
   38.3550   25.8730   35.8400 C   0  0  0  0  0  0  0  0  0  0  0  0
   38.7530   25.8830   34.3740 C   0  0  0  0  0  0  0  0  0  0  0  0
   37.4710   22.9280   33.6500 H   0  0  0  0  0  0  0  0  0  0  0  0
   39.1830   23.3170   33.5770 H   0  0  0  0  0  0  0  0  0  0  0  0
   39.0860   22.5640   35.7240 H   0  0  0  0  0  0  0  0  0  0  0  0
   37.3730   22.9210   35.9180 H   0  0  0  0  0  0  0  0  0  0  0  0
   39.7720   24.5180   36.6350 H   0  0  0  0  0  0  0  0  0  0  0  0
   37.2480   26.0550   35.8800 H   0  0  0  0  0  0  0  0  0  0  0  0
   38.8490   26.6630   36.4030 H   0  0  0  0  0  0  0  0  0  0  0  0
   38.6370   26.9030   33.9900 H   0  0  0  0  0  0  0  0  0  0  0  0
   39.8230   25.6200   34.3560 H   0  0  0  0  0  0  0  0  0  0  0  0
   36.9820   25.2690   32.6520 C   0  0  0  0  0  0  0  0  0  0  0  0
   36.6440   26.5640   32.2700 C   0  0  0  0  0  0  0  0  0  0  0  0
   35.6980   26.7530   31.2740 C   0  0  0  0  0  0  0  0  0  0  0  0
   35.1380   25.6320   30.7090 N   0  0  0  0  0  0  0  0  0  0  0  0
   35.4900   24.3890   31.1040 C   0  0  0  0  0  0  0  0  0  0  0  0
   36.3970   24.2180   32.0590 N   0  0  0  0  0  0  0  0  0  0  0  0
   37.1290   27.3640   32.7640 H   0  0  0  0  0  0  0  0  0  0  0  0
   35.4180   27.7420   30.9600 H   0  0  0  0  0  0  0  0  0  0  0  0
   35.0080   23.5300   30.6170 H   0  0  0  0  0  0  0  0  0  0  0  0
   37.9740   24.3730   37.7600 C   0  0  0  0  0  3  0  0  0  0  0  0
   38.7780   23.7930   38.9150 C   0  0  0  0  0  2  0  0  0  0  0  0
   37.6180   23.0610   38.3070 C   0  0  0  0  0  2  0  0  0  0  0  0
  1  2  1  0  0  0  0
  1  6  1  0  0  0  0
  2  3  1  0  0  0  0
  3  9  1  0  0  0  0
  3 10  1  0  0  0  0
  3  4  1  0  0  0  0
  4 11  1  0  0  0  0
  4 25  1  0  0  0  0
  5 12  1  0  0  0  0
  5 13  1  0  0  0  0
  5  4  1  0  0  0  0
  6  5  1  0  0  0  0
  7  2  1  0  0  0  0
  8  2  1  0  0  0  0
 14  6  1  0  0  0  0
 15  6  1  0  0  0  0
 16  1  1  0  0  0  0
 17 16  1  0  0  0  0
 17 22  1  0  0  0  0
 18 17  2  0  0  0  0
 19 20  2  0  0  0  0
 19 18  1  0  0  0  0
 20 21  1  0  0  0  0
 21 16  2  0  0  0  0
 23 18  1  0  0  0  0
 24 20  1  0  0  0  0
 25 27  1  0  0  0  0
 25 26  1  0  0  0  0
 27 26  1  0  0  0  0
M  END
>  <minimizedAffinity>
-4.37838888

$$$$

 OpenBabel03272507453D

 27 29  0  0  0  0  0  0  0  0999 V2000
   38.0130   24.0520   33.7920 N   0  0  0  0  0  0  0  0  0  0  0  0
   37.5610   23.7480   32.4590 C   0  0  0  0  0  0  0  0  0  0  0  0
   36.7660   22.5450   32.2590 C   0  0  0  0  0  0  0  0  0  0  0  0
   36.9160   21.4310   33.2220 C   0  0  0  0  0  0  0  0  0  0  0  0
   37.4170   21.8440   34.5860 C   0  0  0  0  0  0  0  0  0  0  0  0
   38.5430   22.8470   34.4000 C   0  0  0  0  0  0  0  0  0  0  0  0
   37.0200   24.6460   32.0870 H   0  0  0  0  0  0  0  0  0  0  0  0
   38.4970   23.7300   31.8270 H   0  0  0  0  0  0  0  0  0  0  0  0
   36.9860   22.1330   31.2350 H   0  0  0  0  0  0  0  0  0  0  0  0
   35.6790   22.8180   32.1960 H   0  0  0  0  0  0  0  0  0  0  0  0
   37.6280   20.6700   32.8380 H   0  0  0  0  0  0  0  0  0  0  0  0
   36.6040   22.3660   35.1580 H   0  0  0  0  0  0  0  0  0  0  0  0
   37.7340   20.9770   35.1620 H   0  0  0  0  0  0  0  0  0  0  0  0
   38.9940   23.0480   35.3790 H   0  0  0  0  0  0  0  0  0  0  0  0
   39.2890   22.3410   33.7670 H   0  0  0  0  0  0  0  0  0  0  0  0
   37.9500   25.3220   34.4110 C   0  0  0  0  0  0  0  0  0  0  0  0
   38.6540   25.6930   35.5520 C   0  0  0  0  0  0  0  0  0  0  0  0
   38.5030   26.9750   36.0580 C   0  0  0  0  0  0  0  0  0  0  0  0
   37.6520   27.8230   35.3900 N   0  0  0  0  0  0  0  0  0  0  0  0
   36.9830   27.4310   34.2850 C   0  0  0  0  0  0  0  0  0  0  0  0
   37.1350   26.2010   33.8090 N   0  0  0  0  0  0  0  0  0  0  0  0
   39.2850   24.9690   35.9960 H   0  0  0  0  0  0  0  0  0  0  0  0
   39.0350   27.2870   36.9380 H   0  0  0  0  0  0  0  0  0  0  0  0
   36.3170   28.1530   33.7940 H   0  0  0  0  0  0  0  0  0  0  0  0
   35.5760   20.7160   33.3940 C   0  0  0  0  0  3  0  0  0  0  0  0
   35.5000   19.2620   32.9540 C   0  0  0  0  0  2  0  0  0  0  0  0
   34.7480   20.3480   32.2430 C   0  0  0  0  0  2  0  0  0  0  0  0
  1  6  1  0  0  0  0
  1 16  1  0  0  0  0
  2  1  1  0  0  0  0
  3  2  1  0  0  0  0
  3  4  1  0  0  0  0
  4 25  1  0  0  0  0
  4  5  1  0  0  0  0
  5 12  1  0  0  0  0
  5 13  1  0  0  0  0
  6  5  1  0  0  0  0
  6 14  1  0  0  0  0
  7  2  1  0  0  0  0
  8  2  1  0  0  0  0
  9  3  1  0  0  0  0
 10  3  1  0  0  0  0
 11  4  1  0  0  0  0
 15  6  1  0  0  0  0
 16 17  1  0  0  0  0
 17 22  1  0  0  0  0
 17 18  2  0  0  0  0
 18 23  1  0  0  0  0
 19 18  1  0  0  0  0
 20 19  2  0  0  0  0
 21 20  1  0  0  0  0
 21 16  2  0  0  0  0
 24 20  1  0  0  0  0
 26 25  1  0  0  0  0
 27 26  1  0  0  0  0
 27 25  1  0  0  0  0
M  END
>  <minimizedAffinity>
-4.36355257

$$$$

 OpenBabel03272507453D

 27 29  0  0  0  0  0  0  0  0999 V2000
   38.1390   26.7300   33.6880 N   0  0  0  0  0  0  0  0  0  0  0  0
   38.2540   25.3020   33.5420 C   0  0  0  0  0  0  0  0  0  0  0  0
   38.1950   24.4810   34.7430 C   0  0  0  0  0  0  0  0  0  0  0  0
   38.5830   25.0900   36.0350 C   0  0  0  0  0  0  0  0  0  0  0  0
   38.4510   26.5940   36.0850 C   0  0  0  0  0  0  0  0  0  0  0  0
   38.9850   27.1660   34.7820 C   0  0  0  0  0  0  0  0  0  0  0  0
   37.4790   24.9870   32.8100 H   0  0  0  0  0  0  0  0  0  0  0  0
   39.2210   25.1390   32.9820 H   0  0  0  0  0  0  0  0  0  0  0  0
   38.8450   23.5740   34.5930 H   0  0  0  0  0  0  0  0  0  0  0  0
   37.1670   24.0420   34.8500 H   0  0  0  0  0  0  0  0  0  0  0  0
   39.6400   24.8550   36.2810 H   0  0  0  0  0  0  0  0  0  0  0  0
   37.3690   26.8880   36.1530 H   0  0  0  0  0  0  0  0  0  0  0  0
   38.9680   27.0010   36.9510 H   0  0  0  0  0  0  0  0  0  0  0  0
   39.0110   28.2580   34.8670 H   0  0  0  0  0  0  0  0  0  0  0  0
   40.0180   26.7940   34.6970 H   0  0  0  0  0  0  0  0  0  0  0  0
   37.3300   27.5730   32.8910 C   0  0  0  0  0  0  0  0  0  0  0  0
   36.2780   28.3530   33.3630 C   0  0  0  0  0  0  0  0  0  0  0  0
   35.5640   29.1410   32.4730 C   0  0  0  0  0  0  0  0  0  0  0  0
   35.9410   29.1070   31.1520 N   0  0  0  0  0  0  0  0  0  0  0  0
   36.9670   28.3380   30.7280 C   0  0  0  0  0  0  0  0  0  0  0  0
   37.6460   27.5880   31.5880 N   0  0  0  0  0  0  0  0  0  0  0  0
   36.0630   28.3120   34.3980 H   0  0  0  0  0  0  0  0  0  0  0  0
   34.7470   29.7520   32.8110 H   0  0  0  0  0  0  0  0  0  0  0  0
   37.2230   28.3520   29.6590 H   0  0  0  0  0  0  0  0  0  0  0  0
   37.7380   24.4920   37.1600 C   0  0  0  0  0  3  0  0  0  0  0  0
   38.4530   23.6210   38.1820 C   0  0  0  0  0  2  0  0  0  0  0  0
   37.4460   23.0580   37.2230 C   0  0  0  0  0  2  0  0  0  0  0  0
  1  6  1  0  0  0  0
  2  1  1  0  0  0  0
  2  3  1  0  0  0  0
  3 10  1  0  0  0  0
  3  4  1  0  0  0  0
  4  5  1  0  0  0  0
  4 11  1  0  0  0  0
  4 25  1  0  0  0  0
  5 12  1  0  0  0  0
  5 13  1  0  0  0  0
  6 14  1  0  0  0  0
  6  5  1  0  0  0  0
  7  2  1  0  0  0  0
  8  2  1  0  0  0  0
  9  3  1  0  0  0  0
 15  6  1  0  0  0  0
 16 17  1  0  0  0  0
 16  1  1  0  0  0  0
 17 22  1  0  0  0  0
 18 23  1  0  0  0  0
 18 17  2  0  0  0  0
 19 18  1  0  0  0  0
 20 19  2  0  0  0  0
 20 21  1  0  0  0  0
 21 16  2  0  0  0  0
 24 20  1  0  0  0  0
 25 27  1  0  0  0  0
 25 26  1  0  0  0  0
 27 26  1  0  0  0  0
M  END
>  <minimizedAffinity>
-4.25679493

$$$$

 OpenBabel03272507453D

 27 29  0  0  0  0  0  0  0  0999 V2000
   37.0880   24.3380   32.3380 N   0  0  0  0  0  0  0  0  0  0  0  0
   36.3500   23.8170   31.2160 C   0  0  0  0  0  0  0  0  0  0  0  0
   35.7770   22.4830   31.3300 C   0  0  0  0  0  0  0  0  0  0  0  0
   36.3990   21.5240   32.2700 C   0  0  0  0  0  0  0  0  0  0  0  0
   37.1710   22.1640   33.3990 C   0  0  0  0  0  0  0  0  0  0  0  0
   37.9870   23.3130   32.8330 C   0  0  0  0  0  0  0  0  0  0  0  0
   35.5660   24.5650   30.9680 H   0  0  0  0  0  0  0  0  0  0  0  0
   37.0590   23.8840   30.3400 H   0  0  0  0  0  0  0  0  0  0  0  0
   35.7780   22.0020   30.3120 H   0  0  0  0  0  0  0  0  0  0  0  0
   34.6840   22.5630   31.5730 H   0  0  0  0  0  0  0  0  0  0  0  0
   37.1070   20.8540   31.7390 H   0  0  0  0  0  0  0  0  0  0  0  0
   36.4650   22.6040   34.1540 H   0  0  0  0  0  0  0  0  0  0  0  0
   37.7950   21.4310   33.9070 H   0  0  0  0  0  0  0  0  0  0  0  0
   38.6450   23.6940   33.6220 H   0  0  0  0  0  0  0  0  0  0  0  0
   38.6090   22.8710   32.0390 H   0  0  0  0  0  0  0  0  0  0  0  0
   36.9580   25.6410   32.8720 C   0  0  0  0  0  0  0  0  0  0  0  0
   36.4350   26.7360   32.1920 C   0  0  0  0  0  0  0  0  0  0  0  0
   36.3610   27.9630   32.8350 C   0  0  0  0  0  0  0  0  0  0  0  0
   36.8160   28.0290   34.1300 N   0  0  0  0  0  0  0  0  0  0  0  0
   37.3180   26.9460   34.7600 C   0  0  0  0  0  0  0  0  0  0  0  0
   37.3850   25.7750   34.1370 N   0  0  0  0  0  0  0  0  0  0  0  0
   36.1100   26.5870   31.1960 H   0  0  0  0  0  0  0  0  0  0  0  0
   35.9620   28.8250   32.3330 H   0  0  0  0  0  0  0  0  0  0  0  0
   37.6670   27.0590   35.7960 H   0  0  0  0  0  0  0  0  0  0  0  0
   35.3220   20.6210   32.8700 C   0  0  0  0  0  3  0  0  0  0  0  0
   35.5440   19.1180   32.7820 C   0  0  0  0  0  2  0  0  0  0  0  0
   34.4460   19.8040   32.0260 C   0  0  0  0  0  2  0  0  0  0  0  0
  1  6  1  0  0  0  0
  1 16  1  0  0  0  0
  2  3  1  0  0  0  0
  2  1  1  0  0  0  0
  3 10  1  0  0  0  0
  3  4  1  0  0  0  0
  4 25  1  0  0  0  0
  4  5  1  0  0  0  0
  5 13  1  0  0  0  0
  5 12  1  0  0  0  0
  6  5  1  0  0  0  0
  6 14  1  0  0  0  0
  7  2  1  0  0  0  0
  8  2  1  0  0  0  0
  9  3  1  0  0  0  0
 11  4  1  0  0  0  0
 15  6  1  0  0  0  0
 16 21  1  0  0  0  0
 17 18  1  0  0  0  0
 17 16  2  0  0  0  0
 18 19  2  0  0  0  0
 19 20  1  0  0  0  0
 20 24  1  0  0  0  0
 21 20  2  0  0  0  0
 22 17  1  0  0  0  0
 23 18  1  0  0  0  0
 26 25  1  0  0  0  0
 27 26  1  0  0  0  0
 27 25  1  0  0  0  0
M  END
>  <minimizedAffinity>
-4.19948959

$$$$

 OpenBabel03272507453D

 27 29  0  0  0  0  0  0  0  0999 V2000
   36.0980   29.4680   31.8110 N   0  0  0  0  0  0  0  0  0  0  0  0
   35.7470   30.8640   31.8650 C   0  0  0  0  0  0  0  0  0  0  0  0
   35.6380   31.4960   33.1710 C   0  0  0  0  0  0  0  0  0  0  0  0
   35.3290   30.6470   34.3430 C   0  0  0  0  0  0  0  0  0  0  0  0
   35.7110   29.1950   34.1850 C   0  0  0  0  0  0  0  0  0  0  0  0
   35.3130   28.7430   32.7900 C   0  0  0  0  0  0  0  0  0  0  0  0
   36.4750   31.4060   31.2220 H   0  0  0  0  0  0  0  0  0  0  0  0
   34.7800   30.9470   31.2880 H   0  0  0  0  0  0  0  0  0  0  0  0
   34.8480   32.2960   33.1210 H   0  0  0  0  0  0  0  0  0  0  0  0
   36.5750   32.0760   33.3880 H   0  0  0  0  0  0  0  0  0  0  0  0
   34.2420   30.6680   34.5700 H   0  0  0  0  0  0  0  0  0  0  0  0
   36.8250   29.0740   34.2620 H   0  0  0  0  0  0  0  0  0  0  0  0
   35.2510   28.5850   34.9590 H   0  0  0  0  0  0  0  0  0  0  0  0
   35.4690   27.6610   32.7180 H   0  0  0  0  0  0  0  0  0  0  0  0
   34.2340   28.9490   32.7100 H   0  0  0  0  0  0  0  0  0  0  0  0
   37.0560   28.8960   30.9420 C   0  0  0  0  0  0  0  0  0  0  0  0
   38.0140   27.9570   31.3130 C   0  0  0  0  0  0  0  0  0  0  0  0
   38.8960   27.4720   30.3600 C   0  0  0  0  0  0  0  0  0  0  0  0
   38.7720   27.9540   29.0780 N   0  0  0  0  0  0  0  0  0  0  0  0
   37.8300   28.8650   28.7520 C   0  0  0  0  0  0  0  0  0  0  0  0
   36.9900   29.3230   29.6720 N   0  0  0  0  0  0  0  0  0  0  0  0
   38.0310   27.6470   32.3250 H   0  0  0  0  0  0  0  0  0  0  0  0
   39.6460   26.7480   30.6200 H   0  0  0  0  0  0  0  0  0  0  0  0
   37.7790   29.2130   27.7110 H   0  0  0  0  0  0  0  0  0  0  0  0
   36.0340   31.2020   35.5810 C   0  0  0  0  0  3  0  0  0  0  0  0
   35.1720   31.9020   36.6200 C   0  0  0  0  0  2  0  0  0  0  0  0
   36.1850   32.6430   35.7990 C   0  0  0  0  0  2  0  0  0  0  0  0
  1  2  1  0  0  0  0
  1  6  1  0  0  0  0
  2  3  1  0  0  0  0
  3 10  1  0  0  0  0
  3  4  1  0  0  0  0
  4 11  1  0  0  0  0
  4 25  1  0  0  0  0
  5 12  1  0  0  0  0
  5  4  1  0  0  0  0
  5 13  1  0  0  0  0
  6  5  1  0  0  0  0
  7  2  1  0  0  0  0
  8  2  1  0  0  0  0
  9  3  1  0  0  0  0
 14  6  1  0  0  0  0
 15  6  1  0  0  0  0
 16 17  1  0  0  0  0
 16  1  1  0  0  0  0
 17 22  1  0  0  0  0
 18 23  1  0  0  0  0
 18 17  2  0  0  0  0
 19 18  1  0  0  0  0
 20 19  2  0  0  0  0
 20 21  1  0  0  0  0
 21 16  2  0  0  0  0
 24 20  1  0  0  0  0
 25 27  1  0  0  0  0
 25 26  1  0  0  0  0
 27 26  1  0  0  0  0
M  END
>  <minimizedAffinity>
-4.18505049

$$$$

 OpenBabel03272507453D

 27 29  0  0  0  0  0  0  0  0999 V2000
   38.5360   26.1830   35.2280 N   0  0  0  0  0  0  0  0  0  0  0  0
   37.2420   26.7640   34.9820 C   0  0  0  0  0  0  0  0  0  0  0  0
   36.9250   27.1880   33.6250 C   0  0  0  0  0  0  0  0  0  0  0  0
   38.0390   27.5380   32.7160 C   0  0  0  0  0  0  0  0  0  0  0  0
   39.3610   26.8990   33.0680 C   0  0  0  0  0  0  0  0  0  0  0  0
   39.5510   26.9850   34.5730 C   0  0  0  0  0  0  0  0  0  0  0  0
   36.4850   26.0420   35.3580 H   0  0  0  0  0  0  0  0  0  0  0  0
   37.1630   27.6250   35.7080 H   0  0  0  0  0  0  0  0  0  0  0  0
   36.2420   28.0810   33.6760 H   0  0  0  0  0  0  0  0  0  0  0  0
   36.2890   26.4090   33.1270 H   0  0  0  0  0  0  0  0  0  0  0  0
   38.2080   28.6350   32.7040 H   0  0  0  0  0  0  0  0  0  0  0  0
   39.3500   25.8080   32.8010 H   0  0  0  0  0  0  0  0  0  0  0  0
   40.1780   27.3720   32.5260 H   0  0  0  0  0  0  0  0  0  0  0  0
   40.5620   26.6410   34.8160 H   0  0  0  0  0  0  0  0  0  0  0  0
   39.4740   28.0560   34.8200 H   0  0  0  0  0  0  0  0  0  0  0  0
   38.7800   25.0150   35.9870 C   0  0  0  0  0  0  0  0  0  0  0  0
   38.0150   24.5890   37.0690 C   0  0  0  0  0  0  0  0  0  0  0  0
   38.3620   23.4190   37.7280 C   0  0  0  0  0  0  0  0  0  0  0  0
   39.4620   22.7340   37.2680 N   0  0  0  0  0  0  0  0  0  0  0  0
   40.1820   23.1760   36.2160 C   0  0  0  0  0  0  0  0  0  0  0  0
   39.8410   24.2970   35.5900 N   0  0  0  0  0  0  0  0  0  0  0  0
   37.1870   25.1840   37.3490 H   0  0  0  0  0  0  0  0  0  0  0  0
   37.7890   23.0680   38.5670 H   0  0  0  0  0  0  0  0  0  0  0  0
   41.0510   22.5860   35.8930 H   0  0  0  0  0  0  0  0  0  0  0  0
   37.6760   27.1450   31.2840 C   0  0  0  0  0  3  0  0  0  0  0  0
   37.5440   28.2670   30.2650 C   0  0  0  0  0  2  0  0  0  0  0  0
   36.3640   27.4550   30.7100 C   0  0  0  0  0  2  0  0  0  0  0  0
  1 16  1  0  0  0  0
  2  1  1  0  0  0  0
  2  7  1  0  0  0  0
  2  8  1  0  0  0  0
  3  9  1  0  0  0  0
  3  2  1  0  0  0  0
  4  5  1  0  0  0  0
  4  3  1  0  0  0  0
  5  6  1  0  0  0  0
  6 14  1  0  0  0  0
  6 15  1  0  0  0  0
  6  1  1  0  0  0  0
 10  3  1  0  0  0  0
 11  4  1  0  0  0  0
 12  5  1  0  0  0  0
 13  5  1  0  0  0  0
 16 17  1  0  0  0  0
 17 22  1  0  0  0  0
 17 18  2  0  0  0  0
 18 23  1  0  0  0  0
 19 18  1  0  0  0  0
 20 19  2  0  0  0  0
 21 16  2  0  0  0  0
 21 20  1  0  0  0  0
 24 20  1  0  0  0  0
 25  4  1  0  0  0  0
 26 27  1  0  0  0  0
 26 25  1  0  0  0  0
 27 25  1  0  0  0  0
M  END
>  <minimizedAffinity>
-4.11866903

$$$$

 OpenBabel03272507453D

 27 29  0  0  0  0  0  0  0  0999 V2000
   39.0810   23.8650   35.7170 N   0  0  0  0  0  0  0  0  0  0  0  0
   38.4400   23.7690   34.4320 C   0  0  0  0  0  0  0  0  0  0  0  0
   37.8540   24.9750   33.8640 C   0  0  0  0  0  0  0  0  0  0  0  0
   37.4320   26.0560   34.7830 C   0  0  0  0  0  0  0  0  0  0  0  0
   38.1440   26.0610   36.1150 C   0  0  0  0  0  0  0  0  0  0  0  0
   38.2380   24.6290   36.6150 C   0  0  0  0  0  0  0  0  0  0  0  0
   39.1780   23.3220   33.7320 H   0  0  0  0  0  0  0  0  0  0  0  0
   37.6660   22.9540   34.5480 H   0  0  0  0  0  0  0  0  0  0  0  0
   36.9540   24.6870   33.2530 H   0  0  0  0  0  0  0  0  0  0  0  0
   38.5520   25.4090   33.1000 H   0  0  0  0  0  0  0  0  0  0  0  0
   36.3460   25.9860   35.0030 H   0  0  0  0  0  0  0  0  0  0  0  0
   39.1970   26.4350   35.9930 H   0  0  0  0  0  0  0  0  0  0  0  0
   37.6360   26.7090   36.8260 H   0  0  0  0  0  0  0  0  0  0  0  0
   38.6360   24.6430   37.6360 H   0  0  0  0  0  0  0  0  0  0  0  0
   37.2010   24.2590   36.6460 H   0  0  0  0  0  0  0  0  0  0  0  0
   40.3360   23.3030   36.0520 C   0  0  0  0  0  0  0  0  0  0  0  0
   41.5700   23.7940   35.6370 C   0  0  0  0  0  0  0  0  0  0  0  0
   42.7290   23.1480   36.0390 C   0  0  0  0  0  0  0  0  0  0  0  0
   42.5910   22.0390   36.8390 N   0  0  0  0  0  0  0  0  0  0  0  0
   41.3780   21.5890   37.2230 C   0  0  0  0  0  0  0  0  0  0  0  0
   40.2740   22.2150   36.8330 N   0  0  0  0  0  0  0  0  0  0  0  0
   41.5730   24.6550   35.0210 H   0  0  0  0  0  0  0  0  0  0  0  0
   43.6940   23.5070   35.7320 H   0  0  0  0  0  0  0  0  0  0  0  0
   41.3310   20.6970   37.8640 H   0  0  0  0  0  0  0  0  0  0  0  0
   37.6470   27.4130   34.1140 C   0  0  0  0  0  3  0  0  0  0  0  0
   36.4200   28.2850   33.8950 C   0  0  0  0  0  2  0  0  0  0  0  0
   37.1790   27.6820   32.7520 C   0  0  0  0  0  2  0  0  0  0  0  0
  1 16  1  0  0  0  0
  1  6  1  0  0  0  0
  2  8  1  0  0  0  0
  2  1  1  0  0  0  0
  3  2  1  0  0  0  0
  3  4  1  0  0  0  0
  4 11  1  0  0  0  0
  4  5  1  0  0  0  0
  5  6  1  0  0  0  0
  5 13  1  0  0  0  0
  6 15  1  0  0  0  0
  6 14  1  0  0  0  0
  7  2  1  0  0  0  0
  9  3  1  0  0  0  0
 10  3  1  0  0  0  0
 12  5  1  0  0  0  0
 16 21  1  0  0  0  0
 17 18  1  0  0  0  0
 17 16  2  0  0  0  0
 18 19  2  0  0  0  0
 19 20  1  0  0  0  0
 20 24  1  0  0  0  0
 21 20  2  0  0  0  0
 22 17  1  0  0  0  0
 23 18  1  0  0  0  0
 25  4  1  0  0  0  0
 26 25  1  0  0  0  0
 27 26  1  0  0  0  0
 27 25  1  0  0  0  0
M  END
>  <minimizedAffinity>
-4.05751896

$$$$

 OpenBabel03272507453D

 27 29  0  0  0  0  0  0  0  0999 V2000
   38.0590   22.9610   33.4600 N   0  0  0  0  0  0  0  0  0  0  0  0
   37.3690   23.5690   32.3520 C   0  0  0  0  0  0  0  0  0  0  0  0
   36.6170   22.7050   31.4520 C   0  0  0  0  0  0  0  0  0  0  0  0
   37.0160   21.2840   31.3400 C   0  0  0  0  0  0  0  0  0  0  0  0
   37.7540   20.7430   32.5410 C   0  0  0  0  0  0  0  0  0  0  0  0
   38.7640   21.7830   32.9940 C   0  0  0  0  0  0  0  0  0  0  0  0
   36.7170   24.3650   32.7730 H   0  0  0  0  0  0  0  0  0  0  0  0
   38.1610   24.1500   31.7940 H   0  0  0  0  0  0  0  0  0  0  0  0
   36.6520   23.1440   30.4170 H   0  0  0  0  0  0  0  0  0  0  0  0
   35.5260   22.7500   31.7120 H   0  0  0  0  0  0  0  0  0  0  0  0
   37.6770   21.1280   30.4630 H   0  0  0  0  0  0  0  0  0  0  0  0
   37.0430   20.5830   33.3960 H   0  0  0  0  0  0  0  0  0  0  0  0
   38.2260   19.7900   32.3100 H   0  0  0  0  0  0  0  0  0  0  0  0
   39.3880   21.3440   33.7800 H   0  0  0  0  0  0  0  0  0  0  0  0
   39.3960   21.9850   32.1140 H   0  0  0  0  0  0  0  0  0  0  0  0
   38.0500   23.4370   34.7920 C   0  0  0  0  0  0  0  0  0  0  0  0
   37.9940   22.6350   35.9280 C   0  0  0  0  0  0  0  0  0  0  0  0
   37.9940   23.2300   37.1810 C   0  0  0  0  0  0  0  0  0  0  0  0
   38.0510   24.6020   37.2310 N   0  0  0  0  0  0  0  0  0  0  0  0
   38.1030   25.3510   36.1080 C   0  0  0  0  0  0  0  0  0  0  0  0
   38.1030   24.7710   34.9130 N   0  0  0  0  0  0  0  0  0  0  0  0
   37.9530   21.5870   35.7880 H   0  0  0  0  0  0  0  0  0  0  0  0
   37.9520   22.6340   38.0740 H   0  0  0  0  0  0  0  0  0  0  0  0
   38.1470   26.4440   36.2110 H   0  0  0  0  0  0  0  0  0  0  0  0
   35.7780   20.4200   31.1020 C   0  0  0  0  0  3  0  0  0  0  0  0
   34.6550   20.5120   32.1250 C   0  0  0  0  0  2  0  0  0  0  0  0
   35.4710   19.2660   31.9500 C   0  0  0  0  0  2  0  0  0  0  0  0
  1 16  1  0  0  0  0
  2  7  1  0  0  0  0
  2  1  1  0  0  0  0
  3 10  1  0  0  0  0
  3  2  1  0  0  0  0
  4  3  1  0  0  0  0
  4  5  1  0  0  0  0
  5  6  1  0  0  0  0
  5 12  1  0  0  0  0
  6  1  1  0  0  0  0
  6 14  1  0  0  0  0
  8  2  1  0  0  0  0
  9  3  1  0  0  0  0
 11  4  1  0  0  0  0
 13  5  1  0  0  0  0
 15  6  1  0  0  0  0
 16 21  2  0  0  0  0
 16 17  1  0  0  0  0
 17 18  2  0  0  0  0
 18 19  1  0  0  0  0
 18 23  1  0  0  0  0
 20 24  1  0  0  0  0
 20 19  2  0  0  0  0
 21 20  1  0  0  0  0
 22 17  1  0  0  0  0
 25  4  1  0  0  0  0
 25 27  1  0  0  0  0
 25 26  1  0  0  0  0
 27 26  1  0  0  0  0
M  END
>  <minimizedAffinity>
-4.00634384

$$$$

 OpenBabel03272507453D

 27 29  0  0  0  0  0  0  0  0999 V2000
   38.0210   24.8550   34.9220 N   0  0  0  0  0  0  0  0  0  0  0  0
   38.0330   24.2590   33.6120 C   0  0  0  0  0  0  0  0  0  0  0  0
   38.5260   25.0560   32.4970 C   0  0  0  0  0  0  0  0  0  0  0  0
   38.4570   26.5310   32.5990 C   0  0  0  0  0  0  0  0  0  0  0  0
   38.4250   27.0620   34.0130 C   0  0  0  0  0  0  0  0  0  0  0  0
   37.4790   26.1970   34.8290 C   0  0  0  0  0  0  0  0  0  0  0  0
   38.5970   23.3040   33.6950 H   0  0  0  0  0  0  0  0  0  0  0  0
   36.9710   23.9180   33.4330 H   0  0  0  0  0  0  0  0  0  0  0  0
   37.9680   24.7590   31.5660 H   0  0  0  0  0  0  0  0  0  0  0  0
   39.5840   24.7640   32.2640 H   0  0  0  0  0  0  0  0  0  0  0  0
   37.5490   26.9200   32.0930 H   0  0  0  0  0  0  0  0  0  0  0  0
   39.4400   26.9740   34.4860 H   0  0  0  0  0  0  0  0  0  0  0  0
   38.1350   28.1110   34.0280 H   0  0  0  0  0  0  0  0  0  0  0  0
   37.3540   26.6560   35.8170 H   0  0  0  0  0  0  0  0  0  0  0  0
   36.5140   26.2330   34.3000 H   0  0  0  0  0  0  0  0  0  0  0  0
   38.4660   24.2320   36.1110 C   0  0  0  0  0  0  0  0  0  0  0  0
   39.5530   23.3690   36.2040 C   0  0  0  0  0  0  0  0  0  0  0  0
   39.8860   22.8250   37.4360 C   0  0  0  0  0  0  0  0  0  0  0  0
   39.1100   23.1770   38.5150 N   0  0  0  0  0  0  0  0  0  0  0  0
   38.0620   24.0180   38.3890 C   0  0  0  0  0  0  0  0  0  0  0  0
   37.7510   24.5340   37.2060 N   0  0  0  0  0  0  0  0  0  0  0  0
   40.0890   23.1570   35.3170 H   0  0  0  0  0  0  0  0  0  0  0  0
   40.7200   22.1550   37.5360 H   0  0  0  0  0  0  0  0  0  0  0  0
   37.4780   24.2630   39.2880 H   0  0  0  0  0  0  0  0  0  0  0  0
   39.6510   27.1530   31.8750 C   0  0  0  0  0  3  0  0  0  0  0  0
   39.3760   27.8590   30.5560 C   0  0  0  0  0  2  0  0  0  0  0  0
   40.1710   26.5900   30.6270 C   0  0  0  0  0  2  0  0  0  0  0  0
  1 16  1  0  0  0  0
  2  7  1  0  0  0  0
  2  1  1  0  0  0  0
  3  4  1  0  0  0  0
  3  2  1  0  0  0  0
  4  5  1  0  0  0  0
  5 13  1  0  0  0  0
  5 12  1  0  0  0  0
  5  6  1  0  0  0  0
  6  1  1  0  0  0  0
  6 14  1  0  0  0  0
  8  2  1  0  0  0  0
  9  3  1  0  0  0  0
 10  3  1  0  0  0  0
 11  4  1  0  0  0  0
 15  6  1  0  0  0  0
 16 17  2  0  0  0  0
 16 21  1  0  0  0  0
 17 18  1  0  0  0  0
 18 23  1  0  0  0  0
 18 19  2  0  0  0  0
 20 19  1  0  0  0  0
 20 24  1  0  0  0  0
 21 20  2  0  0  0  0
 22 17  1  0  0  0  0
 25  4  1  0  0  0  0
 26 27  1  0  0  0  0
 26 25  1  0  0  0  0
 27 25  1  0  0  0  0
M  END
>  <minimizedAffinity>
-4.00349283

$$$$
