
 OpenBabel03272501113D

 19 21  0  0  1  0  0  0  0  0999 V2000
   36.8050   31.0750   50.2230 C   0  0  1  0  0  0  0  0  0  0  0  0
   36.6710   29.6200   50.2560 C   0  0  1  0  0  0  0  0  0  0  0  0
   37.5310   30.2740   51.2920 C   0  0  0  0  0  0  0  0  0  0  0  0
   36.1160   31.8160   50.6700 H   0  0  0  0  0  0  0  0  0  0  0  0
   37.2370   29.0810   49.4470 H   0  0  0  0  0  0  0  0  0  0  0  0
   37.1410   30.3120   52.3190 H   0  0  0  0  0  0  0  0  0  0  0  0
   38.6260   30.1620   51.2250 H   0  0  0  0  0  0  0  0  0  0  0  0
   37.7540   31.7230   49.2410 C   0  0  0  0  0  0  0  0  0  0  0  0
   38.2120   33.0150   49.5530 C   0  0  0  0  0  0  0  0  0  0  0  0
   39.0610   33.5950   48.6260 C   0  0  0  0  0  0  0  0  0  0  0  0
   39.4090   32.9170   47.4840 N   0  0  0  0  0  0  0  0  0  0  0  0
   38.9420   31.6730   47.2260 C   0  0  0  0  0  0  0  0  0  0  0  0
   38.1070   31.0730   48.1140 N   0  0  0  0  0  0  0  0  0  0  0  0
   37.8930   33.4850   50.4720 H   0  0  0  0  0  0  0  0  0  0  0  0
   39.4420   34.5900   48.8220 H   0  0  0  0  0  0  0  0  0  0  0  0
   39.2460   31.1820   46.3120 H   0  0  0  0  0  0  0  0  0  0  0  0
   35.3460   29.0390   50.6070 C   0  0  0  0  0  0  0  0  0  0  0  0
   34.1150   29.5690   49.8970 C   0  0  0  0  0  0  0  0  0  0  0  0
   34.6590   28.2630   49.4790 C   0  0  0  0  0  0  0  0  0  0  0  0
  1  2  1  0  0  0  0
  1  4  1  1  0  0  0
  1  3  1  0  0  0  0
  2  5  1  6  0  0  0
  2 17  1  0  0  0  0
  2  3  1  0  0  0  0
  3  6  1  0  0  0  0
  7  3  1  0  0  0  0
  8  9  1  0  0  0  0
  8  1  1  0  0  0  0
  9 14  1  0  0  0  0
 10 15  1  0  0  0  0
 10  9  2  0  0  0  0
 11 10  1  0  0  0  0
 12 11  2  0  0  0  0
 12 13  1  0  0  0  0
 13  8  2  0  0  0  0
 16 12  1  0  0  0  0
 18 17  1  0  0  0  0
 19 18  1  0  0  0  0
 19 17  1  0  0  0  0
M  END
>  <minimizedAffinity>
-5.16394186

>  <minimizedRMSD>
1.07887506

$$$$
