
 OpenBabel03272510273D

 39 43  0  0  1  0  0  0  0  0999 V2000
   36.1810   30.1830   46.5380 C   0  0  0  0  0  0  0  0  0  0  0  0
   37.0480   30.7960   47.4400 C   0  0  0  0  0  0  0  0  0  0  0  0
   38.0060   31.7110   47.0080 C   0  0  0  0  0  0  0  0  0  0  0  0
   38.0460   31.9760   45.6430 C   0  0  0  0  0  0  0  0  0  0  0  0
   38.8820   32.8270   44.9800 N   0  0  0  0  0  0  0  0  0  0  0  0
   38.5480   32.7540   43.6820 C   0  0  0  0  0  0  0  0  0  0  0  0
   37.5540   31.9010   43.5250 N   0  0  0  0  0  0  0  0  0  0  0  0
   37.2070   31.3920   44.7190 C   0  0  0  0  0  0  0  0  0  0  0  0
   36.2550   30.4750   45.1860 C   0  0  0  0  0  0  0  0  0  0  0  0
   35.4310   29.4730   46.8260 H   0  0  0  0  0  0  0  0  0  0  0  0
   38.6670   32.1760   47.7100 H   0  0  0  0  0  0  0  0  0  0  0  0
   39.6190   33.4060   45.4050 H   0  0  0  0  0  0  0  0  0  0  0  0
   35.5940   30.0120   44.4650 H   0  0  0  0  0  0  0  0  0  0  0  0
   37.5600   30.4100   51.1420 C   0  0  0  0  0  0  0  0  0  0  0  0
   37.8010   30.8150   49.8390 C   0  0  0  0  0  0  0  0  0  0  0  0
   36.9120   30.4410   48.8360 C   0  0  0  0  0  0  0  0  0  0  0  0
   35.8380   29.6840   49.2070 N   0  0  0  0  0  0  0  0  0  0  0  0
   35.6120   29.2960   50.4760 C   0  0  0  0  0  0  0  0  0  0  0  0
   36.4530   29.6520   51.4200 N   0  0  0  0  0  0  0  0  0  0  0  0
   38.2430   30.6950   51.9320 H   0  0  0  0  0  0  0  0  0  0  0  0
   38.6580   31.4170   49.5540 H   0  0  0  0  0  0  0  0  0  0  0  0
   34.7330   28.6880   50.7180 H   0  0  0  0  0  0  0  0  0  0  0  0
   39.2030   33.5010   42.7020 O   0  0  0  0  0  0  0  0  0  0  0  0
   38.7590   32.0900   40.9450 N   0  0  0  0  0  0  0  0  0  0  0  0
   38.6260   33.4460   41.4070 C   0  0  1  0  0  0  0  0  0  0  0  0
   37.2260   33.8480   41.4380 C   0  0  0  0  0  0  0  0  0  0  0  0
   36.7200   33.8050   40.1280 O   0  0  0  0  0  0  0  0  0  0  0  0
   36.8680   32.6130   39.4820 C   0  0  0  0  0  0  0  0  0  0  0  0
   38.2720   32.0570   39.5970 C   0  0  1  0  0  0  0  0  0  0  0  0
   38.5470   31.3250   41.5360 H   0  0  0  0  0  0  0  0  0  0  0  0
   39.2030   34.0970   40.7310 H   0  0  0  0  0  0  0  0  0  0  0  0
   36.4700   33.3800   42.0090 H   0  0  0  0  0  0  0  0  0  0  0  0
   37.1910   34.9500   41.6940 H   0  0  0  0  0  0  0  0  0  0  0  0
   36.7090   32.7970   38.4040 H   0  0  0  0  0  0  0  0  0  0  0  0
   36.1380   31.8780   39.9070 H   0  0  0  0  0  0  0  0  0  0  0  0
   38.2440   31.0060   39.2680 H   0  0  0  0  0  0  0  0  0  0  0  0
   39.1750   32.8160   38.6540 C   0  0  0  0  0  3  0  0  0  0  0  0
   40.4250   32.1610   38.1660 C   0  0  0  0  0  2  0  0  0  0  0  0
   39.2820   32.3010   37.2290 C   0  0  0  0  0  2  0  0  0  0  0  0
  1 10  1  0  0  0  0
  1  2  1  0  0  0  0
  2 16  1  0  0  0  0
  3  2  2  0  0  0  0
  3 11  1  0  0  0  0
  4  3  1  0  0  0  0
  5 12  1  0  0  0  0
  5  4  1  0  0  0  0
  6  5  1  0  0  0  0
  7  6  2  0  0  0  0
  7  8  1  0  0  0  0
  8  9  1  0  0  0  0
  8  4  2  0  0  0  0
  9  1  2  0  0  0  0
 13  9  1  0  0  0  0
 14 19  1  0  0  0  0
 14 20  1  0  0  0  0
 15 14  2  0  0  0  0
 16 17  2  0  0  0  0
 16 15  1  0  0  0  0
 17 18  1  0  0  0  0
 18 22  1  0  0  0  0
 18 19  2  0  0  0  0
 21 15  1  0  0  0  0
 23  6  1  0  0  0  0
 24 25  1  0  0  0  0
 24 30  1  0  0  0  0
 25 31  1  6  0  0  0
 25 26  1  0  0  0  0
 25 23  1  0  0  0  0
 26 33  1  0  0  0  0
 26 32  1  0  0  0  0
 27 26  1  0  0  0  0
 28 29  1  0  0  0  0
 28 35  1  0  0  0  0
 28 27  1  0  0  0  0
 29 36  1  6  0  0  0
 29 24  1  0  0  0  0
 34 28  1  0  0  0  0
 37 29  1  0  0  0  0
 38 37  1  0  0  0  0
 39 38  1  0  0  0  0
 39 37  1  0  0  0  0
M  END
>  <minimizedAffinity>
-5.1911931

>  <minimizedRMSD>
0.897516549

$$$$
