
 OpenBabel03272510273D

 39 43  0  0  1  0  0  0  0  0999 V2000
   36.1840   30.1820   46.5410 C   0  0  0  0  0  0  0  0  0  0  0  0
   37.0520   30.7960   47.4430 C   0  0  0  0  0  0  0  0  0  0  0  0
   38.0090   31.7110   47.0110 C   0  0  0  0  0  0  0  0  0  0  0  0
   38.0490   31.9760   45.6450 C   0  0  0  0  0  0  0  0  0  0  0  0
   38.8830   32.8270   44.9810 N   0  0  0  0  0  0  0  0  0  0  0  0
   38.5490   32.7530   43.6830 C   0  0  0  0  0  0  0  0  0  0  0  0
   37.5560   31.9000   43.5280 N   0  0  0  0  0  0  0  0  0  0  0  0
   37.2090   31.3910   44.7210 C   0  0  0  0  0  0  0  0  0  0  0  0
   36.2580   30.4740   45.1890 C   0  0  0  0  0  0  0  0  0  0  0  0
   35.4350   29.4730   46.8300 H   0  0  0  0  0  0  0  0  0  0  0  0
   38.6700   32.1770   47.7120 H   0  0  0  0  0  0  0  0  0  0  0  0
   39.6210   33.4070   45.4060 H   0  0  0  0  0  0  0  0  0  0  0  0
   35.5970   30.0110   44.4690 H   0  0  0  0  0  0  0  0  0  0  0  0
   37.5620   30.4150   51.1450 C   0  0  0  0  0  0  0  0  0  0  0  0
   37.8030   30.8190   49.8420 C   0  0  0  0  0  0  0  0  0  0  0  0
   36.9160   30.4410   48.8390 C   0  0  0  0  0  0  0  0  0  0  0  0
   35.8440   29.6810   49.2100 N   0  0  0  0  0  0  0  0  0  0  0  0
   35.6180   29.2930   50.4790 C   0  0  0  0  0  0  0  0  0  0  0  0
   36.4590   29.6530   51.4230 N   0  0  0  0  0  0  0  0  0  0  0  0
   38.2450   30.7030   51.9350 H   0  0  0  0  0  0  0  0  0  0  0  0
   38.6580   31.4240   49.5570 H   0  0  0  0  0  0  0  0  0  0  0  0
   34.7420   28.6830   50.7210 H   0  0  0  0  0  0  0  0  0  0  0  0
   39.2040   33.5010   42.7040 O   0  0  0  0  0  0  0  0  0  0  0  0
   38.7600   32.0900   40.9460 N   0  0  0  0  0  0  0  0  0  0  0  0
   38.6270   33.4460   41.4080 C   0  0  1  0  0  0  0  0  0  0  0  0
   37.2260   33.8470   41.4400 C   0  0  0  0  0  0  0  0  0  0  0  0
   36.7190   33.8040   40.1310 O   0  0  0  0  0  0  0  0  0  0  0  0
   36.8670   32.6120   39.4840 C   0  0  0  0  0  0  0  0  0  0  0  0
   38.2720   32.0570   39.5990 C   0  0  1  0  0  0  0  0  0  0  0  0
   38.5490   31.3250   41.5370 H   0  0  0  0  0  0  0  0  0  0  0  0
   39.2020   34.0970   40.7320 H   0  0  0  0  0  0  0  0  0  0  0  0
   36.4700   33.3790   42.0120 H   0  0  0  0  0  0  0  0  0  0  0  0
   37.1910   34.9490   41.6960 H   0  0  0  0  0  0  0  0  0  0  0  0
   36.7070   32.7960   38.4070 H   0  0  0  0  0  0  0  0  0  0  0  0
   36.1380   31.8760   39.9100 H   0  0  0  0  0  0  0  0  0  0  0  0
   38.2440   31.0060   39.2690 H   0  0  0  0  0  0  0  0  0  0  0  0
   39.1730   32.8160   38.6550 C   0  0  0  0  0  3  0  0  0  0  0  0
   40.4250   32.1620   38.1670 C   0  0  0  0  0  2  0  0  0  0  0  0
   39.2800   32.3010   37.2300 C   0  0  0  0  0  2  0  0  0  0  0  0
  1 10  1  0  0  0  0
  1  2  1  0  0  0  0
  2 16  1  0  0  0  0
  3  2  2  0  0  0  0
  3 11  1  0  0  0  0
  4  3  1  0  0  0  0
  5 12  1  0  0  0  0
  5  4  1  0  0  0  0
  6  5  1  0  0  0  0
  7  6  2  0  0  0  0
  7  8  1  0  0  0  0
  8  9  1  0  0  0  0
  8  4  2  0  0  0  0
  9  1  2  0  0  0  0
 13  9  1  0  0  0  0
 14 19  1  0  0  0  0
 14 20  1  0  0  0  0
 15 14  2  0  0  0  0
 16 17  2  0  0  0  0
 16 15  1  0  0  0  0
 17 18  1  0  0  0  0
 18 22  1  0  0  0  0
 18 19  2  0  0  0  0
 21 15  1  0  0  0  0
 23  6  1  0  0  0  0
 24 25  1  0  0  0  0
 24 30  1  0  0  0  0
 25 31  1  6  0  0  0
 25 26  1  0  0  0  0
 25 23  1  0  0  0  0
 26 33  1  0  0  0  0
 26 32  1  0  0  0  0
 27 26  1  0  0  0  0
 28 29  1  0  0  0  0
 28 35  1  0  0  0  0
 28 27  1  0  0  0  0
 29 36  1  6  0  0  0
 29 24  1  0  0  0  0
 34 28  1  0  0  0  0
 37 29  1  0  0  0  0
 38 37  1  0  0  0  0
 39 38  1  0  0  0  0
 39 37  1  0  0  0  0
M  END
>  <minimizedAffinity>
-5.19288397

>  <minimizedRMSD>
0.853944302

$$$$
