
 OpenBabel03272509053D

 27 29  0  0  0  0  0  0  0  0999 V2000
   33.2710   27.3650   47.9450 C   0  0  0  0  0  0  0  0  0  0  0  0
   32.6320   28.0740   47.3550 H   0  0  0  0  0  0  0  0  0  0  0  0
   32.7090   26.9800   48.8100 H   0  0  0  0  0  0  0  0  0  0  0  0
   33.7150   26.2780   47.0130 C   0  0  0  0  0  0  0  0  0  0  0  0
   33.9570   24.9760   47.3590 C   0  0  0  0  0  0  0  0  0  0  0  0
   34.3610   24.0650   46.4110 C   0  0  0  0  0  0  0  0  0  0  0  0
   34.5370   24.4270   45.0830 C   0  0  0  0  0  0  0  0  0  0  0  0
   34.2980   25.7260   44.7290 C   0  0  0  0  0  0  0  0  0  0  0  0
   33.8930   26.6450   45.6680 C   0  0  0  0  0  0  0  0  0  0  0  0
   33.7940   24.7870   48.4110 H   0  0  0  0  0  0  0  0  0  0  0  0
   34.5240   23.0590   46.8030 H   0  0  0  0  0  0  0  0  0  0  0  0
   34.8560   23.6160   44.4510 H   0  0  0  0  0  0  0  0  0  0  0  0
   34.4440   25.9810   43.6810 H   0  0  0  0  0  0  0  0  0  0  0  0
   33.7300   27.6570   45.2720 H   0  0  0  0  0  0  0  0  0  0  0  0
   34.7520   28.3190   49.7000 C   0  0  0  0  0  3  0  0  0  0  0  0
   34.3940   28.1570   48.4570 C   0  0  0  0  0  3  0  0  0  0  0  0
   37.3410   30.2400   51.4520 C   0  0  0  0  0  0  0  0  0  0  0  0
   38.0920   30.7240   50.3450 C   0  0  0  0  0  0  0  0  0  0  0  0
   37.6940   30.3820   49.0360 C   0  0  0  0  0  0  0  0  0  0  0  0
   36.5920   29.5940   48.9300 N   0  0  0  0  0  0  0  0  0  0  0  0
   35.9110   29.1570   49.9860 C   0  0  0  0  0  0  0  0  0  0  0  0
   36.2830   29.4780   51.2310 N   0  0  0  0  0  0  0  0  0  0  0  0
   37.6970   30.5380   52.4280 H   0  0  0  0  0  0  0  0  0  0  0  0
   38.9410   31.3350   50.5140 H   0  0  0  0  0  0  0  0  0  0  0  0
   38.4480   30.8660   47.8610 C   0  0  0  0  0  3  0  0  0  0  0  0
   37.7680   31.8540   46.9230 C   0  0  0  0  0  2  0  0  0  0  0  0
   38.9290   32.2440   47.7730 C   0  0  0  0  0  2  0  0  0  0  0  0
  1 16  1  0  0  0  0
  1  3  1  0  0  0  0
  2  1  1  0  0  0  0
  4  5  1  0  0  0  0
  4  1  1  0  0  0  0
  5 10  1  0  0  0  0
  6 11  1  0  0  0  0
  6  5  2  0  0  0  0
  7  6  1  0  0  0  0
  8  7  2  0  0  0  0
  8  9  1  0  0  0  0
  9  4  2  0  0  0  0
 12  7  1  0  0  0  0
 13  8  1  0  0  0  0
 14  9  1  0  0  0  0
 15 21  1  0  0  0  0
 16 15  2  0  0  0  0
 17 23  1  0  0  0  0
 18 24  1  0  0  0  0
 18 17  2  0  0  0  0
 19 18  1  0  0  0  0
 20 19  2  0  0  0  0
 20 21  1  0  0  0  0
 21 22  2  0  0  0  0
 22 17  1  0  0  0  0
 25 19  1  0  0  0  0
 26 27  1  0  0  0  0
 26 25  1  0  0  0  0
 27 25  1  0  0  0  0
M  END
>  <minimizedAffinity>
-5.41146278

>  <minimizedRMSD>
0.500493944

$$$$
