
 OpenBabel03272510213D

 30 33  0  0  0  0  0  0  0  0999 V2000
   37.3830   29.2210   50.8570 Br  0  0  0  0  0  0  0  0  0  0  0  0
   35.9800   29.2690   49.5690 C   0  0  0  0  0  0  0  0  0  0  0  0
   35.9640   30.2330   48.5650 C   0  0  0  0  0  0  0  0  0  0  0  0
   34.9200   30.2030   47.6740 C   0  0  0  0  0  0  0  0  0  0  0  0
   33.9000   29.2820   47.7220 C   0  0  0  0  0  0  0  0  0  0  0  0
   33.9420   28.3430   48.7250 C   0  0  0  0  0  0  0  0  0  0  0  0
   34.9710   28.3490   49.6260 C   0  0  0  0  0  0  0  0  0  0  0  0
   34.9160   30.9560   46.8960 H   0  0  0  0  0  0  0  0  0  0  0  0
   33.1590   27.5980   48.8000 H   0  0  0  0  0  0  0  0  0  0  0  0
   34.9770   27.5970   50.4040 H   0  0  0  0  0  0  0  0  0  0  0  0
   37.9960   33.1500   49.4030 C   0  0  0  0  0  0  0  0  0  0  0  0
   38.9970   33.1550   48.3870 C   0  0  0  0  0  0  0  0  0  0  0  0
   38.9490   32.1530   47.4360 C   0  0  0  0  0  0  0  0  0  0  0  0
   37.9610   31.2000   47.4930 N   0  0  0  0  0  0  0  0  0  0  0  0
   37.0270   31.2310   48.4750 C   0  0  0  0  0  0  0  0  0  0  0  0
   37.0510   32.2040   49.4240 N   0  0  0  0  0  0  0  0  0  0  0  0
   37.9670   33.8960   50.1770 H   0  0  0  0  0  0  0  0  0  0  0  0
   39.7340   33.9230   48.4020 H   0  0  0  0  0  0  0  0  0  0  0  0
   39.6720   32.1120   46.6590 H   0  0  0  0  0  0  0  0  0  0  0  0
   32.7930   29.2520   46.7760 C   0  0  0  0  0  0  0  0  0  0  0  0
   31.9230   28.2010   46.6140 C   0  0  0  0  0  0  0  0  0  0  0  0
   30.8820   28.2190   45.6990 C   0  0  0  0  0  0  0  0  0  0  0  0
   30.7070   29.2980   44.9360 N   0  0  0  0  0  0  0  0  0  0  0  0
   31.5560   30.3470   45.0810 C   0  0  0  0  0  0  0  0  0  0  0  0
   32.5450   30.3010   45.9680 N   0  0  0  0  0  0  0  0  0  0  0  0
   32.0670   27.3190   47.2380 H   0  0  0  0  0  0  0  0  0  0  0  0
   30.2560   27.3270   45.6570 H   0  0  0  0  0  0  0  0  0  0  0  0
   31.3890   31.5730   44.2430 C   0  0  0  0  0  3  0  0  0  0  0  0
   32.5740   32.4040   43.9120 C   0  0  0  0  0  2  0  0  0  0  0  0
   31.5500   32.9330   44.8490 C   0  0  0  0  0  2  0  0  0  0  0  0
  2  7  1  0  0  0  0
  2  1  1  0  0  0  0
  3  2  2  0  0  0  0
  4  5  2  0  0  0  0
  4  3  1  0  0  0  0
  5  6  1  0  0  0  0
  6  9  1  0  0  0  0
  6  7  2  0  0  0  0
  7 10  1  0  0  0  0
  8  4  1  0  0  0  0
 11 16  1  0  0  0  0
 11 17  1  0  0  0  0
 12 18  1  0  0  0  0
 12 11  2  0  0  0  0
 13 14  2  0  0  0  0
 13 12  1  0  0  0  0
 14 15  1  0  0  0  0
 15  3  1  0  0  0  0
 15 16  2  0  0  0  0
 19 13  1  0  0  0  0
 20  5  1  0  0  0  0
 21 20  1  0  0  0  0
 21 26  1  0  0  0  0
 22 21  2  0  0  0  0
 23 24  2  0  0  0  0
 23 22  1  0  0  0  0
 24 25  1  0  0  0  0
 25 20  2  0  0  0  0
 27 22  1  0  0  0  0
 28 30  1  0  0  0  0
 28 24  1  0  0  0  0
 29 28  1  0  0  0  0
 29 30  1  0  0  0  0
M  END
>  <minimizedAffinity>
-5.96115303

>  <minimizedRMSD>
0.252478778

$$$$
