
 OpenBabel03272503523D

 22 24  0  0  0  0  0  0  0  0999 V2000
   35.9410   29.1350   33.2420 C   0  0  0  0  0  0  0  0  0  0  0  0
   35.7240   29.5170   31.9260 C   0  0  0  0  0  0  0  0  0  0  0  0
   36.4490   28.8840   30.8980 C   0  0  0  0  0  0  0  0  0  0  0  0
   37.3570   27.8960   31.2600 C   0  0  0  0  0  0  0  0  0  0  0  0
   37.5860   27.5050   32.5540 C   0  0  0  0  0  0  0  0  0  0  0  0
   36.8530   28.1530   33.5280 C   0  0  0  0  0  0  0  0  0  0  0  0
   35.0510   30.2610   31.5540 H   0  0  0  0  0  0  0  0  0  0  0  0
   36.3240   29.1380   29.8570 H   0  0  0  0  0  0  0  0  0  0  0  0
   37.9090   27.4190   30.4340 H   0  0  0  0  0  0  0  0  0  0  0  0
   38.3030   26.7390   32.7020 H   0  0  0  0  0  0  0  0  0  0  0  0
   34.7680   31.4750   35.9670 C   0  0  0  0  0  0  0  0  0  0  0  0
   35.6260   30.8710   35.0220 C   0  0  0  0  0  0  0  0  0  0  0  0
   35.1510   29.8320   34.2470 C   0  0  0  0  0  0  0  0  0  0  0  0
   33.8640   29.4250   34.4250 N   0  0  0  0  0  0  0  0  0  0  0  0
   33.0650   30.0350   35.3500 C   0  0  0  0  0  0  0  0  0  0  0  0
   33.5170   31.0480   36.1100 N   0  0  0  0  0  0  0  0  0  0  0  0
   35.2530   32.2760   36.5120 H   0  0  0  0  0  0  0  0  0  0  0  0
   36.6460   31.1710   34.8600 H   0  0  0  0  0  0  0  0  0  0  0  0
   32.0470   29.6850   35.4640 H   0  0  0  0  0  0  0  0  0  0  0  0
   37.0590   27.7640   34.9390 C   0  0  0  0  0  3  0  0  0  0  0  0
   38.3560   27.3800   35.4980 C   0  0  0  0  0  2  0  0  0  0  0  0
   37.3740   26.2600   35.2080 C   0  0  0  0  0  2  0  0  0  0  0  0
  1  6  1  0  0  0  0
  1 13  1  0  0  0  0
  2  1  2  0  0  0  0
  3  4  2  0  0  0  0
  3  2  1  0  0  0  0
  4  5  1  0  0  0  0
  5 10  1  0  0  0  0
  5  6  2  0  0  0  0
  6 20  1  0  0  0  0
  7  2  1  0  0  0  0
  8  3  1  0  0  0  0
  9  4  1  0  0  0  0
 11 16  1  0  0  0  0
 11 17  1  0  0  0  0
 12 11  2  0  0  0  0
 13 14  2  0  0  0  0
 13 12  1  0  0  0  0
 14 15  1  0  0  0  0
 15 19  1  0  0  0  0
 15 16  2  0  0  0  0
 18 12  1  0  0  0  0
 20 22  1  0  0  0  0
 20 21  1  0  0  0  0
 22 21  1  0  0  0  0
M  END
>  <minimizedAffinity>
-4.47658205

$$$$

 OpenBabel03272503523D

 22 24  0  0  0  0  0  0  0  0999 V2000
   34.7160   30.7590   35.2080 C   0  0  0  0  0  0  0  0  0  0  0  0
   35.5600   31.6730   35.8230 C   0  0  0  0  0  0  0  0  0  0  0  0
   35.0570   32.4840   36.8590 C   0  0  0  0  0  0  0  0  0  0  0  0
   33.7240   32.3250   37.2160 C   0  0  0  0  0  0  0  0  0  0  0  0
   32.8730   31.4290   36.6210 C   0  0  0  0  0  0  0  0  0  0  0  0
   33.4100   30.6550   35.6110 C   0  0  0  0  0  0  0  0  0  0  0  0
   36.5920   31.8650   35.6180 H   0  0  0  0  0  0  0  0  0  0  0  0
   35.6640   33.2130   37.3740 H   0  0  0  0  0  0  0  0  0  0  0  0
   33.3580   32.9740   38.0290 H   0  0  0  0  0  0  0  0  0  0  0  0
   31.8780   31.4000   36.9830 H   0  0  0  0  0  0  0  0  0  0  0  0
   36.4980   28.0590   33.2570 C   0  0  0  0  0  0  0  0  0  0  0  0
   35.9620   28.7570   34.3610 C   0  0  0  0  0  0  0  0  0  0  0  0
   35.3090   29.9540   34.1500 C   0  0  0  0  0  0  0  0  0  0  0  0
   35.2060   30.4210   32.8750 N   0  0  0  0  0  0  0  0  0  0  0  0
   35.7380   29.7170   31.8330 C   0  0  0  0  0  0  0  0  0  0  0  0
   36.3760   28.5490   32.0270 N   0  0  0  0  0  0  0  0  0  0  0  0
   36.9850   27.1360   33.5490 H   0  0  0  0  0  0  0  0  0  0  0  0
   36.0290   28.4120   35.3780 H   0  0  0  0  0  0  0  0  0  0  0  0
   35.6370   30.1180   30.8330 H   0  0  0  0  0  0  0  0  0  0  0  0
   32.5370   29.6690   34.9400 C   0  0  0  0  0  3  0  0  0  0  0  0
   31.0950   29.5660   35.1710 C   0  0  0  0  0  2  0  0  0  0  0  0
   31.9720   28.5200   35.8310 C   0  0  0  0  0  2  0  0  0  0  0  0
  1  6  2  0  0  0  0
  1  2  1  0  0  0  0
  2  3  2  0  0  0  0
  3  4  1  0  0  0  0
  3  8  1  0  0  0  0
  4  9  1  0  0  0  0
  5 10  1  0  0  0  0
  5  4  2  0  0  0  0
  6  5  1  0  0  0  0
  7  2  1  0  0  0  0
 11 17  1  0  0  0  0
 11 12  1  0  0  0  0
 12 18  1  0  0  0  0
 13 12  2  0  0  0  0
 13  1  1  0  0  0  0
 14 13  1  0  0  0  0
 15 16  1  0  0  0  0
 15 14  2  0  0  0  0
 16 11  2  0  0  0  0
 19 15  1  0  0  0  0
 20 21  1  0  0  0  0
 20  6  1  0  0  0  0
 20 22  1  0  0  0  0
 21 22  1  0  0  0  0
M  END
>  <minimizedAffinity>
-4.31900167

$$$$

 OpenBabel03272503523D

 22 24  0  0  0  0  0  0  0  0999 V2000
   36.5200   27.5010   32.6500 C   0  0  0  0  0  0  0  0  0  0  0  0
   35.7260   28.4030   31.9560 C   0  0  0  0  0  0  0  0  0  0  0  0
   35.2260   29.5370   32.6260 C   0  0  0  0  0  0  0  0  0  0  0  0
   35.5580   29.6960   33.9650 C   0  0  0  0  0  0  0  0  0  0  0  0
   36.3410   28.8170   34.6690 C   0  0  0  0  0  0  0  0  0  0  0  0
   36.8080   27.7210   33.9720 C   0  0  0  0  0  0  0  0  0  0  0  0
   35.4190   28.3640   30.9320 H   0  0  0  0  0  0  0  0  0  0  0  0
   34.6040   30.2720   32.1390 H   0  0  0  0  0  0  0  0  0  0  0  0
   35.1530   30.5920   34.4630 H   0  0  0  0  0  0  0  0  0  0  0  0
   36.5250   29.0490   35.6860 H   0  0  0  0  0  0  0  0  0  0  0  0
   38.5740   25.1590   30.5140 C   0  0  0  0  0  0  0  0  0  0  0  0
   38.2080   26.3250   31.2190 C   0  0  0  0  0  0  0  0  0  0  0  0
   37.0020   26.3580   31.8890 C   0  0  0  0  0  0  0  0  0  0  0  0
   36.2040   25.2540   31.8440 N   0  0  0  0  0  0  0  0  0  0  0  0
   36.5940   24.1440   31.1510 C   0  0  0  0  0  0  0  0  0  0  0  0
   37.7670   24.1020   30.4940 N   0  0  0  0  0  0  0  0  0  0  0  0
   39.5390   25.2550   30.0300 H   0  0  0  0  0  0  0  0  0  0  0  0
   38.8170   27.2110   31.2720 H   0  0  0  0  0  0  0  0  0  0  0  0
   35.9360   23.2860   31.1370 H   0  0  0  0  0  0  0  0  0  0  0  0
   37.6610   26.7450   34.6840 C   0  0  0  0  0  3  0  0  0  0  0  0
   38.2710   26.9950   35.9900 C   0  0  0  0  0  2  0  0  0  0  0  0
   39.1800   27.0870   34.7790 C   0  0  0  0  0  2  0  0  0  0  0  0
  1  6  1  0  0  0  0
  2  3  1  0  0  0  0
  2  1  2  0  0  0  0
  3  4  2  0  0  0  0
  4  9  1  0  0  0  0
  4  5  1  0  0  0  0
  5 10  1  0  0  0  0
  6  5  2  0  0  0  0
  6 20  1  0  0  0  0
  7  2  1  0  0  0  0
  8  3  1  0  0  0  0
 11 12  1  0  0  0  0
 12 18  1  0  0  0  0
 12 13  2  0  0  0  0
 13  1  1  0  0  0  0
 14 13  1  0  0  0  0
 15 14  2  0  0  0  0
 16 11  2  0  0  0  0
 16 15  1  0  0  0  0
 17 11  1  0  0  0  0
 19 15  1  0  0  0  0
 20 22  1  0  0  0  0
 20 21  1  0  0  0  0
 22 21  1  0  0  0  0
M  END
>  <minimizedAffinity>
-4.31692791

$$$$

 OpenBabel03272503523D

 22 24  0  0  0  0  0  0  0  0999 V2000
   34.3670   30.7270   35.2480 C   0  0  0  0  0  0  0  0  0  0  0  0
   33.1260   30.2880   35.6890 C   0  0  0  0  0  0  0  0  0  0  0  0
   32.5110   30.9420   36.7740 C   0  0  0  0  0  0  0  0  0  0  0  0
   33.1870   32.0080   37.3550 C   0  0  0  0  0  0  0  0  0  0  0  0
   34.4130   32.4560   36.9350 C   0  0  0  0  0  0  0  0  0  0  0  0
   34.9780   31.7850   35.8690 C   0  0  0  0  0  0  0  0  0  0  0  0
   32.5340   29.4830   35.3070 H   0  0  0  0  0  0  0  0  0  0  0  0
   31.5480   30.6460   37.1610 H   0  0  0  0  0  0  0  0  0  0  0  0
   32.6820   32.5000   38.2020 H   0  0  0  0  0  0  0  0  0  0  0  0
   34.8260   33.2800   37.4590 H   0  0  0  0  0  0  0  0  0  0  0  0
   36.2940   28.3100   33.0760 C   0  0  0  0  0  0  0  0  0  0  0  0
   35.8050   28.9380   34.2420 C   0  0  0  0  0  0  0  0  0  0  0  0
   34.9360   30.0040   34.1200 C   0  0  0  0  0  0  0  0  0  0  0  0
   34.5800   30.4120   32.8710 N   0  0  0  0  0  0  0  0  0  0  0  0
   35.0750   29.7780   31.7660 C   0  0  0  0  0  0  0  0  0  0  0  0
   35.9220   28.7390   31.8740 N   0  0  0  0  0  0  0  0  0  0  0  0
   36.9660   27.4900   33.3000 H   0  0  0  0  0  0  0  0  0  0  0  0
   36.0680   28.6380   35.2410 H   0  0  0  0  0  0  0  0  0  0  0  0
   34.7710   30.1290   30.7890 H   0  0  0  0  0  0  0  0  0  0  0  0
   36.2970   32.2330   35.3740 C   0  0  0  0  0  3  0  0  0  0  0  0
   36.8170   33.5900   35.5510 C   0  0  0  0  0  2  0  0  0  0  0  0
   36.2880   33.2310   34.1750 C   0  0  0  0  0  2  0  0  0  0  0  0
  1  2  2  0  0  0  0
  1  6  1  0  0  0  0
  2  3  1  0  0  0  0
  3  8  1  0  0  0  0
  3  4  2  0  0  0  0
  4  9  1  0  0  0  0
  5  4  1  0  0  0  0
  5 10  1  0  0  0  0
  6  5  2  0  0  0  0
  7  2  1  0  0  0  0
 11 17  1  0  0  0  0
 11 12  1  0  0  0  0
 12 18  1  0  0  0  0
 13 12  2  0  0  0  0
 13  1  1  0  0  0  0
 14 13  1  0  0  0  0
 15 16  1  0  0  0  0
 15 14  2  0  0  0  0
 16 11  2  0  0  0  0
 19 15  1  0  0  0  0
 20 21  1  0  0  0  0
 20  6  1  0  0  0  0
 22 20  1  0  0  0  0
 22 21  1  0  0  0  0
M  END
>  <minimizedAffinity>
-4.31069946

$$$$

 OpenBabel03272503523D

 22 24  0  0  0  0  0  0  0  0999 V2000
   39.2630   24.5360   36.0450 C   0  0  0  0  0  0  0  0  0  0  0  0
   38.1610   24.9220   36.7940 C   0  0  0  0  0  0  0  0  0  0  0  0
   37.8720   24.2420   37.9930 C   0  0  0  0  0  0  0  0  0  0  0  0
   38.7170   23.2050   38.3690 C   0  0  0  0  0  0  0  0  0  0  0  0
   39.8100   22.8070   37.6420 C   0  0  0  0  0  0  0  0  0  0  0  0
   40.0540   23.5020   36.4750 C   0  0  0  0  0  0  0  0  0  0  0  0
   37.4600   25.7030   36.5870 H   0  0  0  0  0  0  0  0  0  0  0  0
   37.0300   24.4970   38.6180 H   0  0  0  0  0  0  0  0  0  0  0  0
   38.4660   22.6910   39.3110 H   0  0  0  0  0  0  0  0  0  0  0  0
   40.3780   22.0030   38.0340 H   0  0  0  0  0  0  0  0  0  0  0  0
   40.3920   27.1060   33.5160 C   0  0  0  0  0  0  0  0  0  0  0  0
   40.2250   26.4610   34.7610 C   0  0  0  0  0  0  0  0  0  0  0  0
   39.4990   25.2880   34.8210 C   0  0  0  0  0  0  0  0  0  0  0  0
   38.9660   24.7940   33.6690 N   0  0  0  0  0  0  0  0  0  0  0  0
   39.1500   25.4480   32.4840 C   0  0  0  0  0  0  0  0  0  0  0  0
   39.8550   26.5900   32.4130 N   0  0  0  0  0  0  0  0  0  0  0  0
   40.9780   28.0130   33.5960 H   0  0  0  0  0  0  0  0  0  0  0  0
   40.6340   26.8270   35.6860 H   0  0  0  0  0  0  0  0  0  0  0  0
   38.7120   25.0260   31.5890 H   0  0  0  0  0  0  0  0  0  0  0  0
   41.2240   23.1160   35.6580 C   0  0  0  0  0  3  0  0  0  0  0  0
   42.2650   22.1910   36.1090 C   0  0  0  0  0  2  0  0  0  0  0  0
   42.6080   23.6700   36.1180 C   0  0  0  0  0  2  0  0  0  0  0  0
  1  6  2  0  0  0  0
  1  2  1  0  0  0  0
  2  3  2  0  0  0  0
  3  4  1  0  0  0  0
  3  8  1  0  0  0  0
  4  9  1  0  0  0  0
  5 10  1  0  0  0  0
  5  4  2  0  0  0  0
  6  5  1  0  0  0  0
  7  2  1  0  0  0  0
 11 17  1  0  0  0  0
 11 12  1  0  0  0  0
 12 13  2  0  0  0  0
 12 18  1  0  0  0  0
 13  1  1  0  0  0  0
 14 13  1  0  0  0  0
 15 14  2  0  0  0  0
 16 15  1  0  0  0  0
 16 11  2  0  0  0  0
 19 15  1  0  0  0  0
 20 21  1  0  0  0  0
 20 22  1  0  0  0  0
 20  6  1  0  0  0  0
 21 22  1  0  0  0  0
M  END
>  <minimizedAffinity>
-4.28122997

$$$$

 OpenBabel03272503523D

 22 24  0  0  0  0  0  0  0  0999 V2000
   35.8750   29.4670   33.9190 C   0  0  0  0  0  0  0  0  0  0  0  0
   36.3900   28.2720   34.3990 C   0  0  0  0  0  0  0  0  0  0  0  0
   37.0300   27.3910   33.5060 C   0  0  0  0  0  0  0  0  0  0  0  0
   37.1150   27.7690   32.1720 C   0  0  0  0  0  0  0  0  0  0  0  0
   36.6130   28.9460   31.6770 C   0  0  0  0  0  0  0  0  0  0  0  0
   35.9940   29.7780   32.5880 C   0  0  0  0  0  0  0  0  0  0  0  0
   36.3730   27.8980   35.4010 H   0  0  0  0  0  0  0  0  0  0  0  0
   37.4500   26.4470   33.8200 H   0  0  0  0  0  0  0  0  0  0  0  0
   37.6210   27.0600   31.4970 H   0  0  0  0  0  0  0  0  0  0  0  0
   36.7410   29.1220   30.6400 H   0  0  0  0  0  0  0  0  0  0  0  0
   35.1730   32.0270   36.6070 C   0  0  0  0  0  0  0  0  0  0  0  0
   35.9020   31.2440   35.6850 C   0  0  0  0  0  0  0  0  0  0  0  0
   35.2320   30.3270   34.9020 C   0  0  0  0  0  0  0  0  0  0  0  0
   33.8830   30.2100   35.0480 N   0  0  0  0  0  0  0  0  0  0  0  0
   33.2130   30.9870   35.9510 C   0  0  0  0  0  0  0  0  0  0  0  0
   33.8560   31.8830   36.7190 N   0  0  0  0  0  0  0  0  0  0  0  0
   35.8080   32.7080   37.1620 H   0  0  0  0  0  0  0  0  0  0  0  0
   36.9670   31.3140   35.5480 H   0  0  0  0  0  0  0  0  0  0  0  0
   32.1420   30.8680   36.0400 H   0  0  0  0  0  0  0  0  0  0  0  0
   35.4400   31.0610   32.1070 C   0  0  0  0  0  3  0  0  0  0  0  0
   35.7460   31.6420   30.7980 C   0  0  0  0  0  2  0  0  0  0  0  0
   36.4390   32.2540   32.0010 C   0  0  0  0  0  2  0  0  0  0  0  0
  1  2  1  0  0  0  0
  1 13  1  0  0  0  0
  2  7  1  0  0  0  0
  3  8  1  0  0  0  0
  3  2  2  0  0  0  0
  4  3  1  0  0  0  0
  5  4  2  0  0  0  0
  5  6  1  0  0  0  0
  6  1  2  0  0  0  0
  9  4  1  0  0  0  0
 10  5  1  0  0  0  0
 11 16  1  0  0  0  0
 11 17  1  0  0  0  0
 12 11  2  0  0  0  0
 13 14  2  0  0  0  0
 13 12  1  0  0  0  0
 14 15  1  0  0  0  0
 15 19  1  0  0  0  0
 15 16  2  0  0  0  0
 18 12  1  0  0  0  0
 20  6  1  0  0  0  0
 21 22  1  0  0  0  0
 21 20  1  0  0  0  0
 22 20  1  0  0  0  0
M  END
>  <minimizedAffinity>
-4.20142078

$$$$

 OpenBabel03272503523D

 22 24  0  0  0  0  0  0  0  0999 V2000
   38.5260   23.2470   36.2340 C   0  0  0  0  0  0  0  0  0  0  0  0
   37.5800   23.9580   36.9590 C   0  0  0  0  0  0  0  0  0  0  0  0
   37.7830   24.1670   38.3360 C   0  0  0  0  0  0  0  0  0  0  0  0
   38.9360   23.6420   38.9080 C   0  0  0  0  0  0  0  0  0  0  0  0
   39.8820   22.9360   38.2100 C   0  0  0  0  0  0  0  0  0  0  0  0
   39.6410   22.7560   36.8630 C   0  0  0  0  0  0  0  0  0  0  0  0
   36.6690   24.3970   36.6080 H   0  0  0  0  0  0  0  0  0  0  0  0
   37.0840   24.7110   38.9520 H   0  0  0  0  0  0  0  0  0  0  0  0
   39.0680   23.8210   39.9870 H   0  0  0  0  0  0  0  0  0  0  0  0
   40.7200   22.5880   38.7580 H   0  0  0  0  0  0  0  0  0  0  0  0
   38.3120   23.7010   32.4900 C   0  0  0  0  0  0  0  0  0  0  0  0
   38.6350   23.9700   33.8380 C   0  0  0  0  0  0  0  0  0  0  0  0
   38.2480   23.0770   34.8160 C   0  0  0  0  0  0  0  0  0  0  0  0
   37.5630   21.9610   34.4410 N   0  0  0  0  0  0  0  0  0  0  0  0
   37.2700   21.7350   33.1260 C   0  0  0  0  0  0  0  0  0  0  0  0
   37.6420   22.5990   32.1650 N   0  0  0  0  0  0  0  0  0  0  0  0
   38.6690   24.4730   31.8180 H   0  0  0  0  0  0  0  0  0  0  0  0
   39.1750   24.8430   34.1630 H   0  0  0  0  0  0  0  0  0  0  0  0
   36.7250   20.8380   32.8650 H   0  0  0  0  0  0  0  0  0  0  0  0
   40.6340   22.0070   36.0640 C   0  0  0  0  0  3  0  0  0  0  0  0
   41.9340   21.5730   36.5770 C   0  0  0  0  0  2  0  0  0  0  0  0
   41.9260   22.7790   35.6560 C   0  0  0  0  0  2  0  0  0  0  0  0
  1  6  2  0  0  0  0
  1  2  1  0  0  0  0
  2  3  2  0  0  0  0
  3  4  1  0  0  0  0
  3  8  1  0  0  0  0
  4  9  1  0  0  0  0
  5 10  1  0  0  0  0
  5  4  2  0  0  0  0
  6  5  1  0  0  0  0
  7  2  1  0  0  0  0
 11 12  1  0  0  0  0
 12 18  1  0  0  0  0
 12 13  2  0  0  0  0
 13  1  1  0  0  0  0
 14 13  1  0  0  0  0
 15 14  2  0  0  0  0
 16 11  2  0  0  0  0
 16 15  1  0  0  0  0
 17 11  1  0  0  0  0
 19 15  1  0  0  0  0
 20 21  1  0  0  0  0
 20  6  1  0  0  0  0
 22 20  1  0  0  0  0
 22 21  1  0  0  0  0
M  END
>  <minimizedAffinity>
-4.19632578

$$$$

 OpenBabel03272503523D

 22 24  0  0  0  0  0  0  0  0999 V2000
   40.1580   24.6550   35.3150 C   0  0  0  0  0  0  0  0  0  0  0  0
   40.6010   25.8020   34.6720 C   0  0  0  0  0  0  0  0  0  0  0  0
   39.8520   26.9880   34.7900 C   0  0  0  0  0  0  0  0  0  0  0  0
   38.6930   26.9490   35.5550 C   0  0  0  0  0  0  0  0  0  0  0  0
   38.2380   25.8270   36.1980 C   0  0  0  0  0  0  0  0  0  0  0  0
   39.0040   24.6870   36.0540 C   0  0  0  0  0  0  0  0  0  0  0  0
   41.4740   25.9270   34.0670 H   0  0  0  0  0  0  0  0  0  0  0  0
   40.1460   27.9110   34.3130 H   0  0  0  0  0  0  0  0  0  0  0  0
   38.1280   27.8930   35.6290 H   0  0  0  0  0  0  0  0  0  0  0  0
   37.3400   25.9240   36.7530 H   0  0  0  0  0  0  0  0  0  0  0  0
   42.7710   21.9570   35.7280 C   0  0  0  0  0  0  0  0  0  0  0  0
   42.0350   23.1350   35.9830 C   0  0  0  0  0  0  0  0  0  0  0  0
   40.9870   23.4700   35.1500 C   0  0  0  0  0  0  0  0  0  0  0  0
   40.7000   22.6450   34.1050 N   0  0  0  0  0  0  0  0  0  0  0  0
   41.4360   21.5140   33.8910 C   0  0  0  0  0  0  0  0  0  0  0  0
   42.4580   21.1790   34.6960 N   0  0  0  0  0  0  0  0  0  0  0  0
   43.5650   21.8030   36.4480 H   0  0  0  0  0  0  0  0  0  0  0  0
   42.2390   23.8040   36.8010 H   0  0  0  0  0  0  0  0  0  0  0  0
   41.1790   20.8830   33.0500 H   0  0  0  0  0  0  0  0  0  0  0  0
   38.5600   23.4510   36.7320 C   0  0  0  0  0  3  0  0  0  0  0  0
   37.5460   23.4180   37.7870 C   0  0  0  0  0  2  0  0  0  0  0  0
   38.9930   23.2790   38.2210 C   0  0  0  0  0  2  0  0  0  0  0  0
  1  6  1  0  0  0  0
  2  3  1  0  0  0  0
  2  1  2  0  0  0  0
  3  4  2  0  0  0  0
  4  9  1  0  0  0  0
  4  5  1  0  0  0  0
  5 10  1  0  0  0  0
  6  5  2  0  0  0  0
  6 20  1  0  0  0  0
  7  2  1  0  0  0  0
  8  3  1  0  0  0  0
 11 12  1  0  0  0  0
 11 17  1  0  0  0  0
 12 18  1  0  0  0  0
 13  1  1  0  0  0  0
 13 12  2  0  0  0  0
 14 13  1  0  0  0  0
 15 14  2  0  0  0  0
 15 16  1  0  0  0  0
 16 11  2  0  0  0  0
 19 15  1  0  0  0  0
 20 21  1  0  0  0  0
 20 22  1  0  0  0  0
 21 22  1  0  0  0  0
M  END
>  <minimizedAffinity>
-4.19246578

$$$$

 OpenBabel03272503523D

 22 24  0  0  0  0  0  0  0  0999 V2000
   38.6870   24.7580   34.6700 C   0  0  0  0  0  0  0  0  0  0  0  0
   39.0080   25.8430   33.8670 C   0  0  0  0  0  0  0  0  0  0  0  0
   38.9710   27.1390   34.4160 C   0  0  0  0  0  0  0  0  0  0  0  0
   38.6100   27.2670   35.7510 C   0  0  0  0  0  0  0  0  0  0  0  0
   38.2890   26.2080   36.5620 C   0  0  0  0  0  0  0  0  0  0  0  0
   38.3390   24.9570   35.9810 C   0  0  0  0  0  0  0  0  0  0  0  0
   39.2950   25.8420   32.8360 H   0  0  0  0  0  0  0  0  0  0  0  0
   39.2090   28.0210   33.8410 H   0  0  0  0  0  0  0  0  0  0  0  0
   38.5900   28.2930   36.1530 H   0  0  0  0  0  0  0  0  0  0  0  0
   38.0310   26.4340   37.5640 H   0  0  0  0  0  0  0  0  0  0  0  0
   39.8480   21.4390   33.2890 C   0  0  0  0  0  0  0  0  0  0  0  0
   39.9040   22.6970   33.9270 C   0  0  0  0  0  0  0  0  0  0  0  0
   38.7520   23.4500   34.0330 C   0  0  0  0  0  0  0  0  0  0  0  0
   37.5970   22.9480   33.5150 N   0  0  0  0  0  0  0  0  0  0  0  0
   37.5840   21.7260   32.9050 C   0  0  0  0  0  0  0  0  0  0  0  0
   38.7000   20.9840   32.7960 N   0  0  0  0  0  0  0  0  0  0  0  0
   40.8120   20.9440   33.2670 H   0  0  0  0  0  0  0  0  0  0  0  0
   40.8010   23.1190   34.3450 H   0  0  0  0  0  0  0  0  0  0  0  0
   36.6490   21.3580   32.5050 H   0  0  0  0  0  0  0  0  0  0  0  0
   38.0070   23.7810   36.8130 C   0  0  0  0  0  3  0  0  0  0  0  0
   37.8850   23.8220   38.2720 C   0  0  0  0  0  2  0  0  0  0  0  0
   39.1540   23.2120   37.7040 C   0  0  0  0  0  2  0  0  0  0  0  0
  1  6  1  0  0  0  0
  2  3  1  0  0  0  0
  2  1  2  0  0  0  0
  3  4  2  0  0  0  0
  4  9  1  0  0  0  0
  4  5  1  0  0  0  0
  5 10  1  0  0  0  0
  6  5  2  0  0  0  0
  6 20  1  0  0  0  0
  7  2  1  0  0  0  0
  8  3  1  0  0  0  0
 11 12  1  0  0  0  0
 12 13  2  0  0  0  0
 12 18  1  0  0  0  0
 13  1  1  0  0  0  0
 14 13  1  0  0  0  0
 15 14  2  0  0  0  0
 16 15  1  0  0  0  0
 16 11  2  0  0  0  0
 17 11  1  0  0  0  0
 19 15  1  0  0  0  0
 20 22  1  0  0  0  0
 20 21  1  0  0  0  0
 22 21  1  0  0  0  0
M  END
>  <minimizedAffinity>
-4.17758846

$$$$
