
     RDKit          3D

 20 21  0  0  0  0  0  0  0  0999 V2000
   38.3074   31.2392   50.1239 C   0  0  0  0  0  0  0  0  0  0  0  0
   38.2884   31.6148   48.7612 C   0  0  0  0  0  0  0  0  0  0  0  0
   37.2007   31.2257   47.9935 C   0  0  0  0  0  0  0  0  0  0  0  0
   36.2183   30.5055   48.6012 N   0  0  0  0  0  0  0  0  0  0  0  0
   36.2620   30.1610   49.9025 C   0  0  0  0  0  0  0  0  0  0  0  0
   37.3009   30.5279   50.6525 N   0  0  0  0  0  0  0  0  0  0  0  0
   35.1332   29.3772   50.4461 C   0  0  0  0  0  0  0  0  0  0  0  0
   35.2589   29.1291   51.8085 F   0  0  0  0  0  0  0  0  0  0  0  0
   33.9284   30.0685   50.2949 F   0  0  0  0  0  0  0  0  0  0  0  0
   34.9508   28.1631   49.8197 F   0  0  0  0  0  0  0  0  0  0  0  0
   39.1640   31.5466   50.7250 H   0  0  0  0  0  0  0  0  0  0  0  0
   39.0736   32.1803   48.3115 H   0  0  0  0  0  0  0  0  0  0  0  0
   37.0636   31.5586   46.5492 C   0  0  0  0  0  0  0  0  0  0  0  0
   35.9091   30.8943   45.7881 C   0  0  0  0  0  0  0  0  0  0  0  0
   35.9314   32.3689   46.0612 C   0  0  0  0  0  0  0  0  0  0  0  0
   38.0118   31.6617   45.9730 H   0  0  0  0  0  0  0  0  0  0  0  0
   36.1507   30.4691   44.8142 H   0  0  0  0  0  0  0  0  0  0  0  0
   35.2152   30.2961   46.4105 H   0  0  0  0  0  0  0  0  0  0  0  0
   36.0773   32.9884   45.1472 H   0  0  0  0  0  0  0  0  0  0  0  0
   35.1806   32.8135   46.7438 H   0  0  0  0  0  0  0  0  0  0  0  0
  1  6  2  0
  2  1  1  0
  3  4  1  0
  3  2  2  0
  4  5  2  0
  5  7  1  0
  5  6  1  0
  7  8  1  0
  9  7  1  0
 10  7  1  0
  1 11  1  0
  2 12  1  0
 13 14  1  0
 14 15  1  0
 15 13  1  0
 13 16  1  0
 14 17  1  0
 14 18  1  0
 15 19  1  0
 15 20  1  0
  3 13  1  0
M  ISO  2  11  14  12  14
M  END
>  <DihAtoms>  (1) 
3,2,12,13

>  <DihDeg>  (1) 
141.58219190834504

$$$$
