
 OpenBabel03272509133D

 34 37  0  0  1  0  0  0  0  0999 V2000
   35.1460   29.9720   46.6240 C   0  0  0  0  0  0  0  0  0  0  0  0
   36.4300   30.5850   46.6890 C   0  0  0  0  0  0  0  0  0  0  0  0
   37.1310   30.7120   45.4800 C   0  0  0  0  0  0  0  0  0  0  0  0
   36.5580   30.2540   44.3360 N   0  0  0  0  0  0  0  0  0  0  0  0
   35.3410   29.6810   44.3220 C   0  0  0  0  0  0  0  0  0  0  0  0
   34.6430   29.5430   45.4620 N   0  0  0  0  0  0  0  0  0  0  0  0
   34.5470   29.8350   47.4880 H   0  0  0  0  0  0  0  0  0  0  0  0
   34.9480   29.3390   43.3700 H   0  0  0  0  0  0  0  0  0  0  0  0
   36.8540   30.9950   47.9770 N   0  0  0  0  0  0  0  0  0  0  0  0
   37.3370   32.2210   48.6230 C   0  0  0  0  0  0  0  0  0  0  0  0
   38.5870   31.7290   49.3360 C   0  0  0  0  0  0  0  0  0  0  0  0
   38.2560   30.3010   49.7380 C   0  0  0  0  0  0  0  0  0  0  0  0
   36.8900   30.0760   49.1010 C   0  0  1  0  0  0  0  0  0  0  0  0
   37.6950   32.9720   47.8870 H   0  0  0  0  0  0  0  0  0  0  0  0
   36.6120   32.7160   49.2540 H   0  0  0  0  0  0  0  0  0  0  0  0
   39.4150   31.6850   48.5950 H   0  0  0  0  0  0  0  0  0  0  0  0
   38.8230   32.2980   50.2450 H   0  0  0  0  0  0  0  0  0  0  0  0
   38.2070   30.1530   50.8220 H   0  0  0  0  0  0  0  0  0  0  0  0
   39.0060   29.5860   49.3210 H   0  0  0  0  0  0  0  0  0  0  0  0
   36.7800   29.0160   48.8070 H   0  0  0  0  0  0  0  0  0  0  0  0
   35.8750   30.3540   50.1560 C   0  0  0  0  0  3  0  0  0  0  0  0
   35.1090   29.0930   50.5790 C   0  0  0  0  0  2  0  0  0  0  0  0
   34.4090   30.2270   49.9000 C   0  0  0  0  0  2  0  0  0  0  0  0
   38.4320   31.3130   45.4220 C   0  0  0  0  0  0  0  0  0  0  0  0
   38.5420   32.6170   45.0210 C   0  0  0  0  0  0  0  0  0  0  0  0
   39.7400   33.2920   44.9300 C   0  0  0  0  0  0  0  0  0  0  0  0
   40.8900   32.5660   45.2760 C   0  0  0  0  0  0  0  0  0  0  0  0
   40.8640   31.2380   45.6930 C   0  0  0  0  0  0  0  0  0  0  0  0
   39.5970   30.6430   45.7520 C   0  0  0  0  0  0  0  0  0  0  0  0
   37.6470   33.1910   44.7500 H   0  0  0  0  0  0  0  0  0  0  0  0
   39.8150   34.3190   44.6130 H   0  0  0  0  0  0  0  0  0  0  0  0
   41.8450   33.0700   45.2140 H   0  0  0  0  0  0  0  0  0  0  0  0
   41.7660   30.7180   45.9480 H   0  0  0  0  0  0  0  0  0  0  0  0
   39.5060   29.6170   46.0670 H   0  0  0  0  0  0  0  0  0  0  0  0
  1  2  1  0  0  0  0
  1  7  1  0  0  0  0
  2  9  1  0  0  0  0
  3  2  2  0  0  0  0
  4  3  1  0  0  0  0
  5  4  2  0  0  0  0
  5  6  1  0  0  0  0
  6  1  2  0  0  0  0
  8  5  1  0  0  0  0
  9 10  1  0  0  0  0
  9 13  1  0  0  0  0
 10 15  1  0  0  0  0
 10 11  1  0  0  0  0
 11 12  1  0  0  0  0
 11 17  1  0  0  0  0
 12 18  1  0  0  0  0
 13 20  1  6  0  0  0
 13 12  1  0  0  0  0
 13 21  1  0  0  0  0
 14 10  1  0  0  0  0
 16 11  1  0  0  0  0
 19 12  1  0  0  0  0
 21 22  1  0  0  0  0
 23 21  1  0  0  0  0
 23 22  1  0  0  0  0
 24  3  1  0  0  0  0
 24 29  1  0  0  0  0
 25 24  2  0  0  0  0
 26 25  1  0  0  0  0
 26 27  2  0  0  0  0
 27 28  1  0  0  0  0
 28 29  2  0  0  0  0
 28 33  1  0  0  0  0
 29 34  1  0  0  0  0
 30 25  1  0  0  0  0
 31 26  1  0  0  0  0
 32 27  1  0  0  0  0
M  END
>  <minimizedAffinity>
-6.00002241

>  <minimizedRMSD>
1.16531909

$$$$
