
 OpenBabel03272501163D

 29 32  0  0  1  0  0  0  0  0999 V2000
   36.8250   31.1830   50.2240 C   0  0  1  0  0  0  0  0  0  0  0  0
   36.5220   29.7870   50.1960 C   0  0  1  0  0  0  0  0  0  0  0  0
   37.5580   30.2350   51.1950 C   0  0  0  0  0  0  0  0  0  0  0  0
   36.1500   31.9010   50.7780 H   0  0  0  0  0  0  0  0  0  0  0  0
   36.9390   29.1910   49.3270 H   0  0  0  0  0  0  0  0  0  0  0  0
   38.6050   29.9750   50.9920 H   0  0  0  0  0  0  0  0  0  0  0  0
   37.1900   30.1910   52.2350 H   0  0  0  0  0  0  0  0  0  0  0  0
   37.7860   31.8080   49.2290 C   0  0  0  0  0  0  0  0  0  0  0  0
   38.2450   33.0720   49.5600 C   0  0  0  0  0  0  0  0  0  0  0  0
   39.1180   33.6490   48.6120 C   0  0  0  0  0  0  0  0  0  0  0  0
   39.4480   32.9830   47.4870 N   0  0  0  0  0  0  0  0  0  0  0  0
   38.9650   31.7320   47.2060 C   0  0  0  0  0  0  0  0  0  0  0  0
   38.1140   31.1340   48.1020 N   0  0  0  0  0  0  0  0  0  0  0  0
   37.9410   33.5460   50.4760 H   0  0  0  0  0  0  0  0  0  0  0  0
   39.5030   34.6370   48.8270 H   0  0  0  0  0  0  0  0  0  0  0  0
   39.2410   31.2170   46.3020 H   0  0  0  0  0  0  0  0  0  0  0  0
   35.1670   29.3140   50.6140 C   0  0  0  0  0  0  0  0  0  0  0  0
   34.6560   29.9680   51.3270 H   0  0  0  0  0  0  0  0  0  0  0  0
   35.2960   28.3050   51.0990 H   0  0  0  0  0  0  0  0  0  0  0  0
   34.2680   29.0550   49.4530 C   0  0  0  0  0  0  0  0  0  0  0  0
   34.2660   29.8540   48.3230 C   0  0  0  0  0  0  0  0  0  0  0  0
   33.3800   29.4320   47.4160 N   0  0  0  0  0  0  0  0  0  0  0  0
   32.8100   28.3410   47.9880 C   0  0  0  0  0  0  0  0  0  0  0  0
   33.3450   28.1170   49.2110 N   0  0  0  0  0  0  0  0  0  0  0  0
   34.8870   30.7240   48.1490 H   0  0  0  0  0  0  0  0  0  0  0  0
   33.1770   29.8520   46.4790 H   0  0  0  0  0  0  0  0  0  0  0  0
   31.7520   27.5450   47.3180 C   0  0  0  0  0  0  0  0  0  0  0  0
   30.9630   26.5320   48.0310 C   0  0  0  0  0  0  0  0  0  0  0  0
   30.3510   27.8760   47.8510 C   0  0  0  0  0  0  0  0  0  0  0  0
  1  4  1  1  0  0  0
  1  3  1  0  0  0  0
  2  5  1  6  0  0  0
  2  1  1  0  0  0  0
  2 17  1  0  0  0  0
  2  3  1  0  0  0  0
  3  7  1  0  0  0  0
  6  3  1  0  0  0  0
  8  9  1  0  0  0  0
  8  1  1  0  0  0  0
  9 14  1  0  0  0  0
 10 15  1  0  0  0  0
 10  9  2  0  0  0  0
 11 10  1  0  0  0  0
 12 11  2  0  0  0  0
 12 13  1  0  0  0  0
 13  8  2  0  0  0  0
 16 12  1  0  0  0  0
 17 19  1  0  0  0  0
 17 18  1  0  0  0  0
 20 17  1  0  0  0  0
 21 20  2  0  0  0  0
 22 23  1  0  0  0  0
 22 21  1  0  0  0  0
 23 24  2  0  0  0  0
 24 20  1  0  0  0  0
 25 21  1  0  0  0  0
 26 22  1  0  0  0  0
 27 29  1  0  0  0  0
 27 23  1  0  0  0  0
 27 28  1  0  0  0  0
 29 28  1  0  0  0  0
M  END
>  <minimizedAffinity>
-5.51721287

>  <minimizedRMSD>
0.137634397

$$$$
