
 OpenBabel03272510273D

 39 43  0  0  1  0  0  0  0  0999 V2000
   36.1370   30.2160   46.8740 C   0  0  0  0  0  0  0  0  0  0  0  0
   37.0410   30.7470   47.7920 C   0  0  0  0  0  0  0  0  0  0  0  0
   38.0530   31.6140   47.3860 C   0  0  0  0  0  0  0  0  0  0  0  0
   38.1090   31.9170   46.0290 C   0  0  0  0  0  0  0  0  0  0  0  0
   38.9950   32.7340   45.3890 N   0  0  0  0  0  0  0  0  0  0  0  0
   38.6570   32.7200   44.0900 C   0  0  0  0  0  0  0  0  0  0  0  0
   37.6120   31.9360   43.9110 N   0  0  0  0  0  0  0  0  0  0  0  0
   37.2350   31.4140   45.0890 C   0  0  0  0  0  0  0  0  0  0  0  0
   36.2280   30.5440   45.5310 C   0  0  0  0  0  0  0  0  0  0  0  0
   35.3440   29.5460   47.1420 H   0  0  0  0  0  0  0  0  0  0  0  0
   38.7420   32.0160   48.1000 H   0  0  0  0  0  0  0  0  0  0  0  0
   39.7680   33.2530   45.8300 H   0  0  0  0  0  0  0  0  0  0  0  0
   35.5390   30.1450   44.7980 H   0  0  0  0  0  0  0  0  0  0  0  0
   37.5460   30.1860   51.4720 C   0  0  0  0  0  0  0  0  0  0  0  0
   37.8140   30.6100   50.1800 C   0  0  0  0  0  0  0  0  0  0  0  0
   36.8830   30.3600   49.1770 C   0  0  0  0  0  0  0  0  0  0  0  0
   35.7430   29.7000   49.5370 N   0  0  0  0  0  0  0  0  0  0  0  0
   35.4910   29.2920   50.7940 C   0  0  0  0  0  0  0  0  0  0  0  0
   36.3730   29.5310   51.7390 N   0  0  0  0  0  0  0  0  0  0  0  0
   38.2620   30.3760   52.2620 H   0  0  0  0  0  0  0  0  0  0  0  0
   38.7230   31.1340   49.9040 H   0  0  0  0  0  0  0  0  0  0  0  0
   34.5600   28.7660   51.0270 H   0  0  0  0  0  0  0  0  0  0  0  0
   39.3570   33.4550   43.1320 O   0  0  0  0  0  0  0  0  0  0  0  0
   38.9720   31.5790   41.8630 N   0  0  0  0  0  0  0  0  0  0  0  0
   39.2270   32.9940   41.7960 C   0  0  1  0  0  0  0  0  0  0  0  0
   38.1440   33.6830   41.1070 C   0  0  0  0  0  0  0  0  0  0  0  0
   38.0840   33.2100   39.7850 O   0  0  0  0  0  0  0  0  0  0  0  0
   37.9600   31.8580   39.6520 C   0  0  0  0  0  0  0  0  0  0  0  0
   38.9440   31.0950   40.5140 C   0  0  1  0  0  0  0  0  0  0  0  0
   38.3190   31.2060   42.5060 H   0  0  0  0  0  0  0  0  0  0  0  0
   40.1820   33.1460   41.2710 H   0  0  0  0  0  0  0  0  0  0  0  0
   37.1320   33.6880   41.4120 H   0  0  0  0  0  0  0  0  0  0  0  0
   38.4500   34.7650   40.9820 H   0  0  0  0  0  0  0  0  0  0  0  0
   38.2190   31.6020   38.6080 H   0  0  0  0  0  0  0  0  0  0  0  0
   36.9160   31.5610   39.9240 H   0  0  0  0  0  0  0  0  0  0  0  0
   38.6240   30.0410   40.5340 H   0  0  0  0  0  0  0  0  0  0  0  0
   40.3070   31.1540   39.8660 C   0  0  0  0  0  3  0  0  0  0  0  0
   41.4000   30.2880   40.4010 C   0  0  0  0  0  2  0  0  0  0  0  0
   40.7690   29.9240   39.1070 C   0  0  0  0  0  2  0  0  0  0  0  0
  1 10  1  0  0  0  0
  1  2  1  0  0  0  0
  2 16  1  0  0  0  0
  3  2  2  0  0  0  0
  3 11  1  0  0  0  0
  4  3  1  0  0  0  0
  5 12  1  0  0  0  0
  5  4  1  0  0  0  0
  6  5  1  0  0  0  0
  7  6  2  0  0  0  0
  7  8  1  0  0  0  0
  8  9  1  0  0  0  0
  8  4  2  0  0  0  0
  9  1  2  0  0  0  0
 13  9  1  0  0  0  0
 14 19  1  0  0  0  0
 14 20  1  0  0  0  0
 15 14  2  0  0  0  0
 16 17  2  0  0  0  0
 16 15  1  0  0  0  0
 17 18  1  0  0  0  0
 18 22  1  0  0  0  0
 18 19  2  0  0  0  0
 21 15  1  0  0  0  0
 23  6  1  0  0  0  0
 24 30  1  0  0  0  0
 25 31  1  6  0  0  0
 25 24  1  0  0  0  0
 25 23  1  0  0  0  0
 26 32  1  0  0  0  0
 26 25  1  0  0  0  0
 27 26  1  0  0  0  0
 28 27  1  0  0  0  0
 28 35  1  0  0  0  0
 28 29  1  0  0  0  0
 29 36  1  1  0  0  0
 29 24  1  0  0  0  0
 33 26  1  0  0  0  0
 34 28  1  0  0  0  0
 37 38  1  0  0  0  0
 37 29  1  0  0  0  0
 39 37  1  0  0  0  0
 39 38  1  0  0  0  0
M  END
>  <minimizedAffinity>
-5.58453035

>  <minimizedRMSD>
1.0177269

$$$$
