
 OpenBabel03272510343D

 22 24  0  0  0  0  0  0  0  0999 V2000
   36.1350   30.3300   48.2920 C   0  0  0  0  0  0  0  0  0  0  0  0
   35.2160   29.8830   47.3640 C   0  0  0  0  0  0  0  0  0  0  0  0
   34.0840   29.2080   47.7580 C   0  0  0  0  0  0  0  0  0  0  0  0
   33.8840   28.9850   49.0960 C   0  0  0  0  0  0  0  0  0  0  0  0
   34.7870   29.4200   50.0540 C   0  0  0  0  0  0  0  0  0  0  0  0
   35.9380   30.1060   49.6590 C   0  0  0  0  0  0  0  0  0  0  0  0
   35.3990   30.0740   46.3020 H   0  0  0  0  0  0  0  0  0  0  0  0
   33.4080   28.8880   46.9740 H   0  0  0  0  0  0  0  0  0  0  0  0
   32.9890   28.4530   49.3850 H   0  0  0  0  0  0  0  0  0  0  0  0
   34.6390   29.2480   51.1170 H   0  0  0  0  0  0  0  0  0  0  0  0
   38.6460   32.9450   47.9230 C   0  0  0  0  0  0  0  0  0  0  0  0
   39.5020   32.4700   46.9310 C   0  0  0  0  0  0  0  0  0  0  0  0
   39.1980   31.2000   46.3730 C   0  0  0  0  0  0  0  0  0  0  0  0
   38.1070   30.5400   46.8350 N   0  0  0  0  0  0  0  0  0  0  0  0
   37.3170   31.0430   47.7910 C   0  0  0  0  0  0  0  0  0  0  0  0
   37.5940   32.2410   48.3270 N   0  0  0  0  0  0  0  0  0  0  0  0
   38.9450   33.9060   48.2920 H   0  0  0  0  0  0  0  0  0  0  0  0
   40.3790   32.9080   46.5010 H   0  0  0  0  0  0  0  0  0  0  0  0
   39.7400   30.6720   45.6000 H   0  0  0  0  0  0  0  0  0  0  0  0
   36.9660   30.6130   50.6050 C   0  0  0  0  0  3  0  0  0  0  0  0
   37.1660   29.8750   51.9120 C   0  0  0  0  0  2  0  0  0  0  0  0
   38.2120   29.8540   50.8390 C   0  0  0  0  0  2  0  0  0  0  0  0
  1  6  1  0  0  0  0
  2  3  1  0  0  0  0
  2  1  2  0  0  0  0
  3  4  2  0  0  0  0
  4  9  1  0  0  0  0
  4  5  1  0  0  0  0
  5 10  1  0  0  0  0
  6  5  2  0  0  0  0
  6 20  1  0  0  0  0
  7  2  1  0  0  0  0
  8  3  1  0  0  0  0
 11 17  1  0  0  0  0
 11 16  1  0  0  0  0
 12 11  2  0  0  0  0
 13 14  2  0  0  0  0
 13 12  1  0  0  0  0
 14 15  1  0  0  0  0
 15  1  1  0  0  0  0
 15 16  2  0  0  0  0
 18 12  1  0  0  0  0
 19 13  1  0  0  0  0
 20 22  1  0  0  0  0
 20 21  1  0  0  0  0
 22 21  1  0  0  0  0
M  END
>  <minimizedAffinity>
-5.36944008

>  <minimizedRMSD>
1.18716025

$$$$
