
 OpenBabel03272505173D

 36 39  0  0  1  0  0  0  0  0999 V2000
   39.1860   23.4330   33.6990 Cl  0  0  0  0  0  0  0  0  0  0  0  0
   37.8420   22.3360   33.8460 C   0  0  0  0  0  0  0  0  0  0  0  0
   37.3970   21.9910   35.0740 C   0  0  0  0  0  0  0  0  0  0  0  0
   36.2980   21.1340   35.0980 C   0  0  0  0  0  0  0  0  0  0  0  0
   35.6680   20.6390   33.9990 C   0  0  0  0  0  0  0  0  0  0  0  0
   36.1580   21.0190   32.7670 C   0  0  0  0  0  0  0  0  0  0  0  0
   37.2630   21.8800   32.6780 C   0  0  0  0  0  0  0  0  0  0  0  0
   35.9030   20.8270   36.0640 H   0  0  0  0  0  0  0  0  0  0  0  0
   34.8210   19.9800   34.0390 H   0  0  0  0  0  0  0  0  0  0  0  0
   35.7410   20.6900   31.8230 H   0  0  0  0  0  0  0  0  0  0  0  0
   37.7680   22.2390   31.3970 N   0  0  0  0  0  0  0  0  0  0  0  0
   38.8760   21.5790   30.7200 C   0  0  0  0  0  0  0  0  0  0  0  0
   39.1570   22.4110   29.4710 C   0  0  0  0  0  0  0  0  0  0  0  0
   39.4170   23.7290   29.9590 N   0  0  0  0  0  0  0  0  0  0  0  0
   38.2370   24.3590   30.4240 C   0  0  0  0  0  0  0  0  0  0  0  0
   37.1430   23.3500   30.7150 C   0  0  2  0  0  0  0  0  0  0  0  0
   39.7900   21.7100   31.3620 H   0  0  0  0  0  0  0  0  0  0  0  0
   38.7030   20.5190   30.5050 H   0  0  0  0  0  0  0  0  0  0  0  0
   38.2730   22.3480   28.8180 H   0  0  0  0  0  0  0  0  0  0  0  0
   40.0420   21.9940   28.9190 H   0  0  0  0  0  0  0  0  0  0  0  0
   39.8750   24.3120   29.2070 H   0  0  0  0  0  0  0  0  0  0  0  0
   38.4480   24.9810   31.2950 H   0  0  0  0  0  0  0  0  0  0  0  0
   37.8180   25.0550   29.6410 H   0  0  0  0  0  0  0  0  0  0  0  0
   36.6220   23.0280   29.7870 H   0  0  0  0  0  0  0  0  0  0  0  0
   36.1550   24.1010   31.5810 C   0  0  0  0  0  3  0  0  0  0  0  0
   35.0840   24.9460   31.0810 C   0  0  0  0  0  2  0  0  0  0  0  0
   36.2760   25.5150   31.9200 C   0  0  0  0  0  2  0  0  0  0  0  0
   38.0480   23.7790   38.3140 C   0  0  0  0  0  0  0  0  0  0  0  0
   37.3990   23.3110   37.1700 C   0  0  0  0  0  0  0  0  0  0  0  0
   38.0510   22.4980   36.2560 C   0  0  0  0  0  0  0  0  0  0  0  0
   39.3500   22.1880   36.5350 N   0  0  0  0  0  0  0  0  0  0  0  0
   39.9860   22.6340   37.6340 C   0  0  0  0  0  0  0  0  0  0  0  0
   39.3390   23.4310   38.5290 N   0  0  0  0  0  0  0  0  0  0  0  0
   37.6140   24.4120   39.0760 H   0  0  0  0  0  0  0  0  0  0  0  0
   36.4040   23.7080   37.1430 H   0  0  0  0  0  0  0  0  0  0  0  0
   41.0080   22.2930   37.6950 H   0  0  0  0  0  0  0  0  0  0  0  0
  1  2  1  0  0  0  0
  2  3  1  0  0  0  0
  3  4  2  0  0  0  0
  3 30  1  0  0  0  0
  4  8  1  0  0  0  0
  5  9  1  0  0  0  0
  5  4  1  0  0  0  0
  6  5  2  0  0  0  0
  7  6  1  0  0  0  0
  7  2  2  0  0  0  0
 10  6  1  0  0  0  0
 11  7  1  0  0  0  0
 12 17  1  0  0  0  0
 12 11  1  0  0  0  0
 13 14  1  0  0  0  0
 13 12  1  0  0  0  0
 14 15  1  0  0  0  0
 15 16  1  0  0  0  0
 15 22  1  0  0  0  0
 16 24  1  6  0  0  0
 16 11  1  0  0  0  0
 16 25  1  0  0  0  0
 18 12  1  0  0  0  0
 19 13  1  0  0  0  0
 20 13  1  0  0  0  0
 21 14  1  0  0  0  0
 23 15  1  0  0  0  0
 25 27  1  0  0  0  0
 26 25  1  0  0  0  0
 26 27  1  0  0  0  0
 28 33  1  0  0  0  0
 28 34  1  0  0  0  0
 29 28  2  0  0  0  0
 30 31  2  0  0  0  0
 30 29  1  0  0  0  0
 31 32  1  0  0  0  0
 32 36  1  0  0  0  0
 32 33  2  0  0  0  0
 35 29  1  0  0  0  0
M  END
>  <minimizedAffinity>
-5.37040567

$$$$

 OpenBabel03272505173D

 36 39  0  0  1  0  0  0  0  0999 V2000
   37.6590   26.2640   34.9460 Cl  0  0  0  0  0  0  0  0  0  0  0  0
   37.8610   24.9260   33.8500 C   0  0  0  0  0  0  0  0  0  0  0  0
   38.2340   23.7220   34.3330 C   0  0  0  0  0  0  0  0  0  0  0  0
   38.3410   22.7010   33.3910 C   0  0  0  0  0  0  0  0  0  0  0  0
   38.1020   22.8380   32.0580 C   0  0  0  0  0  0  0  0  0  0  0  0
   37.7240   24.0880   31.6110 C   0  0  0  0  0  0  0  0  0  0  0  0
   37.5990   25.1560   32.5140 C   0  0  0  0  0  0  0  0  0  0  0  0
   38.6400   21.7110   33.7300 H   0  0  0  0  0  0  0  0  0  0  0  0
   38.1890   22.0390   31.3470 H   0  0  0  0  0  0  0  0  0  0  0  0
   37.5080   24.3180   30.5760 H   0  0  0  0  0  0  0  0  0  0  0  0
   37.2320   26.4420   32.0280 N   0  0  0  0  0  0  0  0  0  0  0  0
   35.8650   26.9010   31.8280 C   0  0  0  0  0  0  0  0  0  0  0  0
   35.9770   28.2610   31.1430 C   0  0  0  0  0  0  0  0  0  0  0  0
   36.7350   28.0140   29.9570 N   0  0  0  0  0  0  0  0  0  0  0  0
   38.0980   27.7620   30.2480 C   0  0  0  0  0  0  0  0  0  0  0  0
   38.2950   27.3640   31.6990 C   0  0  2  0  0  0  0  0  0  0  0  0
   35.3940   26.2320   31.0560 H   0  0  0  0  0  0  0  0  0  0  0  0
   35.2600   26.9240   32.7400 H   0  0  0  0  0  0  0  0  0  0  0  0
   36.4690   28.9520   31.8450 H   0  0  0  0  0  0  0  0  0  0  0  0
   34.9540   28.6590   30.9030 H   0  0  0  0  0  0  0  0  0  0  0  0
   36.6450   28.8270   29.2910 H   0  0  0  0  0  0  0  0  0  0  0  0
   38.5070   27.0120   29.5700 H   0  0  0  0  0  0  0  0  0  0  0  0
   38.7210   28.6910   30.0930 H   0  0  0  0  0  0  0  0  0  0  0  0
   38.3010   28.2510   32.3710 H   0  0  0  0  0  0  0  0  0  0  0  0
   39.6690   26.7290   31.7350 C   0  0  0  0  0  3  0  0  0  0  0  0
   40.7390   27.1120   32.6390 C   0  0  0  0  0  2  0  0  0  0  0  0
   40.8480   27.2970   31.0890 C   0  0  0  0  0  2  0  0  0  0  0  0
   39.9580   22.9520   37.5820 C   0  0  0  0  0  0  0  0  0  0  0  0
   39.7210   23.0980   36.2140 C   0  0  0  0  0  0  0  0  0  0  0  0
   38.4990   23.5500   35.7410 C   0  0  0  0  0  0  0  0  0  0  0  0
   37.5510   23.8350   36.6800 N   0  0  0  0  0  0  0  0  0  0  0  0
   37.7680   23.6970   38.0010 C   0  0  0  0  0  0  0  0  0  0  0  0
   38.9720   23.2550   38.4590 N   0  0  0  0  0  0  0  0  0  0  0  0
   40.8800   22.6100   38.0340 H   0  0  0  0  0  0  0  0  0  0  0  0
   40.5890   22.7840   35.6710 H   0  0  0  0  0  0  0  0  0  0  0  0
   36.9110   23.9660   38.5970 H   0  0  0  0  0  0  0  0  0  0  0  0
  2  3  1  0  0  0  0
  2  1  1  0  0  0  0
  3 30  1  0  0  0  0
  4  8  1  0  0  0  0
  4  3  2  0  0  0  0
  5  4  1  0  0  0  0
  6  5  2  0  0  0  0
  6  7  1  0  0  0  0
  7  2  2  0  0  0  0
  9  5  1  0  0  0  0
 10  6  1  0  0  0  0
 11  7  1  0  0  0  0
 12 11  1  0  0  0  0
 12 18  1  0  0  0  0
 13 12  1  0  0  0  0
 13 19  1  0  0  0  0
 14 15  1  0  0  0  0
 14 13  1  0  0  0  0
 15 16  1  0  0  0  0
 16 25  1  0  0  0  0
 16 11  1  0  0  0  0
 16 24  1  1  0  0  0
 17 12  1  0  0  0  0
 20 13  1  0  0  0  0
 21 14  1  0  0  0  0
 22 15  1  0  0  0  0
 23 15  1  0  0  0  0
 25 26  1  0  0  0  0
 27 25  1  0  0  0  0
 27 26  1  0  0  0  0
 28 34  1  0  0  0  0
 28 33  1  0  0  0  0
 29 28  2  0  0  0  0
 30 29  1  0  0  0  0
 30 31  2  0  0  0  0
 31 32  1  0  0  0  0
 32 33  2  0  0  0  0
 32 36  1  0  0  0  0
 35 29  1  0  0  0  0
M  END
>  <minimizedAffinity>
-5.10799646

$$$$

 OpenBabel03272505173D

 36 39  0  0  1  0  0  0  0  0999 V2000
   38.6360   23.3900   32.2590 Cl  0  0  0  0  0  0  0  0  0  0  0  0
   37.1810   24.1750   31.7120 C   0  0  0  0  0  0  0  0  0  0  0  0
   36.0540   23.4490   31.5510 C   0  0  0  0  0  0  0  0  0  0  0  0
   34.9300   24.1630   31.1400 C   0  0  0  0  0  0  0  0  0  0  0  0
   34.8990   25.5010   30.8980 C   0  0  0  0  0  0  0  0  0  0  0  0
   36.0750   26.2010   31.0750 C   0  0  0  0  0  0  0  0  0  0  0  0
   37.2400   25.5360   31.4870 C   0  0  0  0  0  0  0  0  0  0  0  0
   33.9970   23.6220   30.9960 H   0  0  0  0  0  0  0  0  0  0  0  0
   34.0220   26.0340   30.5820 H   0  0  0  0  0  0  0  0  0  0  0  0
   36.1730   27.2670   30.9120 H   0  0  0  0  0  0  0  0  0  0  0  0
   38.4480   26.2730   31.6400 N   0  0  0  0  0  0  0  0  0  0  0  0
   39.5280   26.3180   30.6640 C   0  0  0  0  0  0  0  0  0  0  0  0
   40.6640   27.0870   31.3350 C   0  0  0  0  0  0  0  0  0  0  0  0
   40.9370   26.3650   32.5380 N   0  0  0  0  0  0  0  0  0  0  0  0
   39.9100   26.5380   33.4970 C   0  0  0  0  0  0  0  0  0  0  0  0
   38.6250   27.0290   32.8590 C   0  0  2  0  0  0  0  0  0  0  0  0
   39.9220   25.2710   30.5480 H   0  0  0  0  0  0  0  0  0  0  0  0
   39.2390   26.7320   29.6930 H   0  0  0  0  0  0  0  0  0  0  0  0
   40.3180   28.1180   31.5070 H   0  0  0  0  0  0  0  0  0  0  0  0
   41.5630   27.1170   30.6600 H   0  0  0  0  0  0  0  0  0  0  0  0
   41.8680   26.6590   32.9360 H   0  0  0  0  0  0  0  0  0  0  0  0
   39.7490   25.6200   34.0630 H   0  0  0  0  0  0  0  0  0  0  0  0
   40.1990   27.3220   34.2580 H   0  0  0  0  0  0  0  0  0  0  0  0
   38.6520   28.1240   32.6690 H   0  0  0  0  0  0  0  0  0  0  0  0
   37.5560   26.7510   33.8940 C   0  0  0  0  0  3  0  0  0  0  0  0
   36.7490   27.7640   34.5490 C   0  0  0  0  0  2  0  0  0  0  0  0
   37.7630   26.8670   35.3330 C   0  0  0  0  0  2  0  0  0  0  0  0
   35.6650   20.1040   33.2190 C   0  0  0  0  0  0  0  0  0  0  0  0
   35.6630   21.4840   33.0090 C   0  0  0  0  0  0  0  0  0  0  0  0
   36.0600   22.0260   31.7970 C   0  0  0  0  0  0  0  0  0  0  0  0
   36.4520   21.1440   30.8340 N   0  0  0  0  0  0  0  0  0  0  0  0
   36.4590   19.8120   31.0250 C   0  0  0  0  0  0  0  0  0  0  0  0
   36.0660   19.2850   32.2180 N   0  0  0  0  0  0  0  0  0  0  0  0
   35.3690   19.5990   34.1290 H   0  0  0  0  0  0  0  0  0  0  0  0
   35.3540   21.9760   33.9080 H   0  0  0  0  0  0  0  0  0  0  0  0
   36.7980   19.2650   30.1590 H   0  0  0  0  0  0  0  0  0  0  0  0
  2  1  1  0  0  0  0
  3  2  1  0  0  0  0
  3 30  1  0  0  0  0
  4  3  2  0  0  0  0
  5  6  2  0  0  0  0
  5  4  1  0  0  0  0
  6  7  1  0  0  0  0
  7 11  1  0  0  0  0
  7  2  2  0  0  0  0
  8  4  1  0  0  0  0
  9  5  1  0  0  0  0
 10  6  1  0  0  0  0
 11 16  1  0  0  0  0
 12 13  1  0  0  0  0
 12 11  1  0  0  0  0
 13 19  1  0  0  0  0
 13 14  1  0  0  0  0
 14 21  1  0  0  0  0
 14 15  1  0  0  0  0
 15 22  1  0  0  0  0
 15 23  1  0  0  0  0
 16 24  1  6  0  0  0
 16 15  1  0  0  0  0
 16 25  1  0  0  0  0
 17 12  1  0  0  0  0
 18 12  1  0  0  0  0
 20 13  1  0  0  0  0
 25 26  1  0  0  0  0
 25 27  1  0  0  0  0
 26 27  1  0  0  0  0
 28 34  1  0  0  0  0
 29 28  1  0  0  0  0
 29 35  1  0  0  0  0
 30 29  2  0  0  0  0
 31 32  2  0  0  0  0
 31 30  1  0  0  0  0
 32 33  1  0  0  0  0
 33 28  2  0  0  0  0
 36 32  1  0  0  0  0
M  END
>  <minimizedAffinity>
-4.9835372

$$$$

 OpenBabel03272505173D

 36 39  0  0  1  0  0  0  0  0999 V2000
   37.0310   25.6190   33.3930 Cl  0  0  0  0  0  0  0  0  0  0  0  0
   38.6920   26.0650   33.6720 C   0  0  0  0  0  0  0  0  0  0  0  0
   39.2730   26.9890   32.8770 C   0  0  0  0  0  0  0  0  0  0  0  0
   40.5930   27.3080   33.1910 C   0  0  0  0  0  0  0  0  0  0  0  0
   41.3080   26.7630   34.2130 C   0  0  0  0  0  0  0  0  0  0  0  0
   40.6720   25.8230   34.9960 C   0  0  0  0  0  0  0  0  0  0  0  0
   39.3420   25.4610   34.7290 C   0  0  0  0  0  0  0  0  0  0  0  0
   41.1070   28.0480   32.5800 H   0  0  0  0  0  0  0  0  0  0  0  0
   42.3250   27.0230   34.4390 H   0  0  0  0  0  0  0  0  0  0  0  0
   41.1370   25.3210   35.8350 H   0  0  0  0  0  0  0  0  0  0  0  0
   38.7120   24.4700   35.5340 N   0  0  0  0  0  0  0  0  0  0  0  0
   38.0560   24.7230   36.8090 C   0  0  0  0  0  0  0  0  0  0  0  0
   37.6880   23.3510   37.3680 C   0  0  0  0  0  0  0  0  0  0  0  0
   38.9240   22.6350   37.4300 N   0  0  0  0  0  0  0  0  0  0  0  0
   39.3840   22.2710   36.1410 C   0  0  0  0  0  0  0  0  0  0  0  0
   38.7300   23.1060   35.0570 C   0  0  2  0  0  0  0  0  0  0  0  0
   38.8360   25.1190   37.5160 H   0  0  0  0  0  0  0  0  0  0  0  0
   37.2050   25.4080   36.7480 H   0  0  0  0  0  0  0  0  0  0  0  0
   36.9490   22.8970   36.6890 H   0  0  0  0  0  0  0  0  0  0  0  0
   37.2230   23.4590   38.3850 H   0  0  0  0  0  0  0  0  0  0  0  0
   38.8200   21.7810   38.0400 H   0  0  0  0  0  0  0  0  0  0  0  0
   40.4720   22.3290   36.0880 H   0  0  0  0  0  0  0  0  0  0  0  0
   39.1210   21.1980   35.9090 H   0  0  0  0  0  0  0  0  0  0  0  0
   37.7100   22.7370   34.8130 H   0  0  0  0  0  0  0  0  0  0  0  0
   39.6120   22.9090   33.8430 C   0  0  0  0  0  3  0  0  0  0  0  0
   39.5730   21.7540   32.9640 C   0  0  0  0  0  2  0  0  0  0  0  0
   40.8250   22.0980   33.8370 C   0  0  0  0  0  2  0  0  0  0  0  0
   38.2040   28.0050   29.4210 C   0  0  0  0  0  0  0  0  0  0  0  0
   38.9380   27.4360   30.4640 C   0  0  0  0  0  0  0  0  0  0  0  0
   38.5390   27.5790   31.7840 C   0  0  0  0  0  0  0  0  0  0  0  0
   37.4050   28.3040   32.0030 N   0  0  0  0  0  0  0  0  0  0  0  0
   36.6910   28.8590   31.0060 C   0  0  0  0  0  0  0  0  0  0  0  0
   37.0860   28.7120   29.7110 N   0  0  0  0  0  0  0  0  0  0  0  0
   38.4410   27.9400   28.3680 H   0  0  0  0  0  0  0  0  0  0  0  0
   39.8010   26.9470   30.0610 H   0  0  0  0  0  0  0  0  0  0  0  0
   35.8250   29.3970   31.3590 H   0  0  0  0  0  0  0  0  0  0  0  0
  1  2  1  0  0  0  0
  2  7  1  0  0  0  0
  3  4  1  0  0  0  0
  3  2  2  0  0  0  0
  4  5  2  0  0  0  0
  5  9  1  0  0  0  0
  5  6  1  0  0  0  0
  6 10  1  0  0  0  0
  7  6  2  0  0  0  0
  7 11  1  0  0  0  0
  8  4  1  0  0  0  0
 11 12  1  0  0  0  0
 12 13  1  0  0  0  0
 12 17  1  0  0  0  0
 13 14  1  0  0  0  0
 13 20  1  0  0  0  0
 14 21  1  0  0  0  0
 15 14  1  0  0  0  0
 16 24  1  6  0  0  0
 16 11  1  0  0  0  0
 16 15  1  0  0  0  0
 18 12  1  0  0  0  0
 19 13  1  0  0  0  0
 22 15  1  0  0  0  0
 23 15  1  0  0  0  0
 25 16  1  0  0  0  0
 26 27  1  0  0  0  0
 26 25  1  0  0  0  0
 27 25  1  0  0  0  0
 28 33  2  0  0  0  0
 28 29  1  0  0  0  0
 29 30  2  0  0  0  0
 30 31  1  0  0  0  0
 30  3  1  0  0  0  0
 32 36  1  0  0  0  0
 32 31  2  0  0  0  0
 33 32  1  0  0  0  0
 34 28  1  0  0  0  0
 35 29  1  0  0  0  0
M  END
>  <minimizedAffinity>
-4.92946672

$$$$

 OpenBabel03272505173D

 36 39  0  0  1  0  0  0  0  0999 V2000
   37.9510   23.3210   34.1190 Cl  0  0  0  0  0  0  0  0  0  0  0  0
   39.1570   24.4790   33.6300 C   0  0  0  0  0  0  0  0  0  0  0  0
   40.3900   24.4240   34.1770 C   0  0  0  0  0  0  0  0  0  0  0  0
   41.3000   25.3690   33.7060 C   0  0  0  0  0  0  0  0  0  0  0  0
   41.0320   26.3120   32.7630 C   0  0  0  0  0  0  0  0  0  0  0  0
   39.7570   26.3290   32.2340 C   0  0  0  0  0  0  0  0  0  0  0  0
   38.7970   25.4020   32.6690 C   0  0  0  0  0  0  0  0  0  0  0  0
   42.3080   25.3660   34.1160 H   0  0  0  0  0  0  0  0  0  0  0  0
   41.7480   27.0310   32.4120 H   0  0  0  0  0  0  0  0  0  0  0  0
   39.4270   27.0320   31.4790 H   0  0  0  0  0  0  0  0  0  0  0  0
   37.4810   25.4540   32.1290 N   0  0  0  0  0  0  0  0  0  0  0  0
   36.9910   24.6180   31.0420 C   0  0  0  0  0  0  0  0  0  0  0  0
   35.5990   25.1460   30.7040 C   0  0  0  0  0  0  0  0  0  0  0  0
   35.7960   26.5270   30.3930 N   0  0  0  0  0  0  0  0  0  0  0  0
   36.0850   27.2900   31.5500 C   0  0  0  0  0  0  0  0  0  0  0  0
   36.5600   26.4140   32.6930 C   0  0  2  0  0  0  0  0  0  0  0  0
   37.6110   24.8480   30.1330 H   0  0  0  0  0  0  0  0  0  0  0  0
   37.0050   23.5440   31.2590 H   0  0  0  0  0  0  0  0  0  0  0  0
   34.9530   24.9800   31.5800 H   0  0  0  0  0  0  0  0  0  0  0  0
   35.1720   24.5830   29.8310 H   0  0  0  0  0  0  0  0  0  0  0  0
   34.9480   26.9140   29.8980 H   0  0  0  0  0  0  0  0  0  0  0  0
   36.8050   28.0780   31.3250 H   0  0  0  0  0  0  0  0  0  0  0  0
   35.1590   27.8170   31.9250 H   0  0  0  0  0  0  0  0  0  0  0  0
   35.7100   25.9200   33.2130 H   0  0  0  0  0  0  0  0  0  0  0  0
   37.2180   27.3750   33.6600 C   0  0  0  0  0  3  0  0  0  0  0  0
   37.2460   27.2150   35.1020 C   0  0  0  0  0  2  0  0  0  0  0  0
   36.4990   28.4010   34.4070 C   0  0  0  0  0  2  0  0  0  0  0  0
   41.9090   21.4830   35.9560 C   0  0  0  0  0  0  0  0  0  0  0  0
   41.6150   22.4190   34.9620 C   0  0  0  0  0  0  0  0  0  0  0  0
   40.7010   23.4370   35.1830 C   0  0  0  0  0  0  0  0  0  0  0  0
   40.1090   23.4690   36.4120 N   0  0  0  0  0  0  0  0  0  0  0  0
   40.3840   22.5720   37.3760 C   0  0  0  0  0  0  0  0  0  0  0  0
   41.2840   21.5750   37.1540 N   0  0  0  0  0  0  0  0  0  0  0  0
   42.6080   20.6630   35.8690 H   0  0  0  0  0  0  0  0  0  0  0  0
   42.1670   22.1780   34.0770 H   0  0  0  0  0  0  0  0  0  0  0  0
   39.8250   22.7460   38.2830 H   0  0  0  0  0  0  0  0  0  0  0  0
  2  1  1  0  0  0  0
  2  3  1  0  0  0  0
  3 30  1  0  0  0  0
  4  8  1  0  0  0  0
  4  3  2  0  0  0  0
  5  4  1  0  0  0  0
  6  7  1  0  0  0  0
  6  5  2  0  0  0  0
  7  2  2  0  0  0  0
  9  5  1  0  0  0  0
 10  6  1  0  0  0  0
 11  7  1  0  0  0  0
 11 16  1  0  0  0  0
 12 18  1  0  0  0  0
 12 11  1  0  0  0  0
 13 12  1  0  0  0  0
 13 19  1  0  0  0  0
 14 13  1  0  0  0  0
 14 15  1  0  0  0  0
 15 23  1  0  0  0  0
 15 16  1  0  0  0  0
 16 24  1  1  0  0  0
 16 25  1  0  0  0  0
 17 12  1  0  0  0  0
 20 13  1  0  0  0  0
 21 14  1  0  0  0  0
 22 15  1  0  0  0  0
 25 27  1  0  0  0  0
 25 26  1  0  0  0  0
 27 26  1  0  0  0  0
 28 33  1  0  0  0  0
 29 30  1  0  0  0  0
 29 28  2  0  0  0  0
 30 31  2  0  0  0  0
 31 32  1  0  0  0  0
 32 36  1  0  0  0  0
 33 32  2  0  0  0  0
 34 28  1  0  0  0  0
 35 29  1  0  0  0  0
M  END
>  <minimizedAffinity>
-4.89501143

$$$$

 OpenBabel03272505173D

 36 39  0  0  1  0  0  0  0  0999 V2000
   39.3800   25.2410   34.1870 Cl  0  0  0  0  0  0  0  0  0  0  0  0
   38.5220   23.8200   33.6600 C   0  0  0  0  0  0  0  0  0  0  0  0
   38.1020   22.9200   34.5750 C   0  0  0  0  0  0  0  0  0  0  0  0
   37.3970   21.8300   34.0690 C   0  0  0  0  0  0  0  0  0  0  0  0
   37.1160   21.6230   32.7530 C   0  0  0  0  0  0  0  0  0  0  0  0
   37.5670   22.5690   31.8560 C   0  0  0  0  0  0  0  0  0  0  0  0
   38.2830   23.6890   32.3070 C   0  0  0  0  0  0  0  0  0  0  0  0
   37.0380   21.0760   34.7660 H   0  0  0  0  0  0  0  0  0  0  0  0
   36.5710   20.7760   32.3820 H   0  0  0  0  0  0  0  0  0  0  0  0
   37.4050   22.5120   30.7870 H   0  0  0  0  0  0  0  0  0  0  0  0
   38.7600   24.6400   31.3620 N   0  0  0  0  0  0  0  0  0  0  0  0
   40.1280   24.7150   30.8690 C   0  0  0  0  0  0  0  0  0  0  0  0
   40.1960   25.9810   30.0170 C   0  0  0  0  0  0  0  0  0  0  0  0
   39.7870   27.0340   30.8920 N   0  0  0  0  0  0  0  0  0  0  0  0
   38.3980   26.9830   31.1610 C   0  0  0  0  0  0  0  0  0  0  0  0
   37.8190   25.6140   30.8560 C   0  0  2  0  0  0  0  0  0  0  0  0
   40.7930   24.9280   31.7500 H   0  0  0  0  0  0  0  0  0  0  0  0
   40.4640   23.8180   30.3380 H   0  0  0  0  0  0  0  0  0  0  0  0
   39.5300   25.8410   29.1520 H   0  0  0  0  0  0  0  0  0  0  0  0
   41.2430   26.1400   29.6430 H   0  0  0  0  0  0  0  0  0  0  0  0
   40.0490   27.9700   30.4820 H   0  0  0  0  0  0  0  0  0  0  0  0
   38.1910   27.2820   32.1890 H   0  0  0  0  0  0  0  0  0  0  0  0
   37.8340   27.7120   30.5080 H   0  0  0  0  0  0  0  0  0  0  0  0
   37.6280   25.4820   29.7680 H   0  0  0  0  0  0  0  0  0  0  0  0
   36.4910   25.5930   31.5800 C   0  0  0  0  0  3  0  0  0  0  0  0
   35.2150   25.2640   30.9690 C   0  0  0  0  0  2  0  0  0  0  0  0
   35.5240   26.6850   31.5450 C   0  0  0  0  0  2  0  0  0  0  0  0
   39.8130   22.8430   37.9200 C   0  0  0  0  0  0  0  0  0  0  0  0
   39.5490   22.6320   36.5650 C   0  0  0  0  0  0  0  0  0  0  0  0
   38.3900   23.1130   35.9760 C   0  0  0  0  0  0  0  0  0  0  0  0
   37.5310   23.7920   36.7880 N   0  0  0  0  0  0  0  0  0  0  0  0
   37.7740   24.0000   38.0960 C   0  0  0  0  0  0  0  0  0  0  0  0
   38.9150   23.5270   38.6680 N   0  0  0  0  0  0  0  0  0  0  0  0
   40.6900   22.5060   38.4560 H   0  0  0  0  0  0  0  0  0  0  0  0
   40.3400   22.0500   36.1390 H   0  0  0  0  0  0  0  0  0  0  0  0
   36.9880   24.5540   38.5860 H   0  0  0  0  0  0  0  0  0  0  0  0
  2  1  1  0  0  0  0
  2  3  1  0  0  0  0
  3 30  1  0  0  0  0
  4  3  2  0  0  0  0
  4  8  1  0  0  0  0
  5  4  1  0  0  0  0
  6  7  1  0  0  0  0
  6  5  2  0  0  0  0
  7  2  2  0  0  0  0
  9  5  1  0  0  0  0
 10  6  1  0  0  0  0
 11  7  1  0  0  0  0
 12 11  1  0  0  0  0
 12 17  1  0  0  0  0
 13 12  1  0  0  0  0
 13 14  1  0  0  0  0
 14 15  1  0  0  0  0
 15 22  1  0  0  0  0
 16 24  1  6  0  0  0
 16 15  1  0  0  0  0
 16 11  1  0  0  0  0
 16 25  1  0  0  0  0
 18 12  1  0  0  0  0
 19 13  1  0  0  0  0
 20 13  1  0  0  0  0
 21 14  1  0  0  0  0
 23 15  1  0  0  0  0
 26 27  1  0  0  0  0
 26 25  1  0  0  0  0
 27 25  1  0  0  0  0
 28 34  1  0  0  0  0
 28 33  1  0  0  0  0
 29 28  2  0  0  0  0
 30 29  1  0  0  0  0
 30 31  2  0  0  0  0
 31 32  1  0  0  0  0
 32 36  1  0  0  0  0
 32 33  2  0  0  0  0
 35 29  1  0  0  0  0
M  END
>  <minimizedAffinity>
-4.8795867

$$$$

 OpenBabel03272505173D

 36 39  0  0  1  0  0  0  0  0999 V2000
   38.0560   26.8190   34.5760 Cl  0  0  0  0  0  0  0  0  0  0  0  0
   37.5520   25.6490   33.3890 C   0  0  0  0  0  0  0  0  0  0  0  0
   37.7740   24.3360   33.6150 C   0  0  0  0  0  0  0  0  0  0  0  0
   37.3100   23.4680   32.6290 C   0  0  0  0  0  0  0  0  0  0  0  0
   36.6710   23.8480   31.4890 C   0  0  0  0  0  0  0  0  0  0  0  0
   36.4680   25.2000   31.3020 C   0  0  0  0  0  0  0  0  0  0  0  0
   36.9120   26.1230   32.2620 C   0  0  0  0  0  0  0  0  0  0  0  0
   37.4650   22.3990   32.7640 H   0  0  0  0  0  0  0  0  0  0  0  0
   36.3200   23.1630   30.7400 H   0  0  0  0  0  0  0  0  0  0  0  0
   35.9720   25.6220   30.4360 H   0  0  0  0  0  0  0  0  0  0  0  0
   36.7150   27.5140   32.0370 N   0  0  0  0  0  0  0  0  0  0  0  0
   35.5190   28.2590   32.4060 C   0  0  0  0  0  0  0  0  0  0  0  0
   35.7000   29.6570   31.8190 C   0  0  0  0  0  0  0  0  0  0  0  0
   35.8990   29.4450   30.4200 N   0  0  0  0  0  0  0  0  0  0  0  0
   37.1720   28.8880   30.1490 C   0  0  0  0  0  0  0  0  0  0  0  0
   37.7760   28.2470   31.3840 C   0  0  2  0  0  0  0  0  0  0  0  0
   34.6570   27.8190   31.8340 H   0  0  0  0  0  0  0  0  0  0  0  0
   35.3070   28.2650   33.4810 H   0  0  0  0  0  0  0  0  0  0  0  0
   36.5610   30.1250   32.3210 H   0  0  0  0  0  0  0  0  0  0  0  0
   34.7870   30.2810   32.0160 H   0  0  0  0  0  0  0  0  0  0  0  0
   35.7720   30.3500   29.8920 H   0  0  0  0  0  0  0  0  0  0  0  0
   37.1170   28.1810   29.3200 H   0  0  0  0  0  0  0  0  0  0  0  0
   37.9000   29.6880   29.8250 H   0  0  0  0  0  0  0  0  0  0  0  0
   38.2340   29.0040   32.0570 H   0  0  0  0  0  0  0  0  0  0  0  0
   38.8760   27.3550   30.8500 C   0  0  0  0  0  3  0  0  0  0  0  0
   40.2280   27.2970   31.3750 C   0  0  0  0  0  2  0  0  0  0  0  0
   39.9140   27.8020   29.9270 C   0  0  0  0  0  2  0  0  0  0  0  0
   40.4610   23.2880   36.0240 C   0  0  0  0  0  0  0  0  0  0  0  0
   39.8230   23.6920   34.8490 C   0  0  0  0  0  0  0  0  0  0  0  0
   38.4540   23.9050   34.8130 C   0  0  0  0  0  0  0  0  0  0  0  0
   37.7740   23.6960   35.9770 N   0  0  0  0  0  0  0  0  0  0  0  0
   38.3780   23.3050   37.1140 C   0  0  0  0  0  0  0  0  0  0  0  0
   39.7230   23.0990   37.1440 N   0  0  0  0  0  0  0  0  0  0  0  0
   41.5200   23.1030   36.1400 H   0  0  0  0  0  0  0  0  0  0  0  0
   40.5450   23.7590   34.0620 H   0  0  0  0  0  0  0  0  0  0  0  0
   37.6890   23.1870   37.9360 H   0  0  0  0  0  0  0  0  0  0  0  0
  2  3  1  0  0  0  0
  2  1  1  0  0  0  0
  3 30  1  0  0  0  0
  4  8  1  0  0  0  0
  4  3  2  0  0  0  0
  5  4  1  0  0  0  0
  6  5  2  0  0  0  0
  6  7  1  0  0  0  0
  7  2  2  0  0  0  0
  9  5  1  0  0  0  0
 10  6  1  0  0  0  0
 11  7  1  0  0  0  0
 11 12  1  0  0  0  0
 12 18  1  0  0  0  0
 13 20  1  0  0  0  0
 13 19  1  0  0  0  0
 13 12  1  0  0  0  0
 14 13  1  0  0  0  0
 15 14  1  0  0  0  0
 15 16  1  0  0  0  0
 16 11  1  0  0  0  0
 16 24  1  1  0  0  0
 17 12  1  0  0  0  0
 21 14  1  0  0  0  0
 22 15  1  0  0  0  0
 23 15  1  0  0  0  0
 25 26  1  0  0  0  0
 25 16  1  0  0  0  0
 27 25  1  0  0  0  0
 27 26  1  0  0  0  0
 28 34  1  0  0  0  0
 28 33  1  0  0  0  0
 29 28  2  0  0  0  0
 30 29  1  0  0  0  0
 30 31  2  0  0  0  0
 31 32  1  0  0  0  0
 32 33  2  0  0  0  0
 32 36  1  0  0  0  0
 35 29  1  0  0  0  0
M  END
>  <minimizedAffinity>
-4.86284781

$$$$

 OpenBabel03272505173D

 36 39  0  0  1  0  0  0  0  0999 V2000
   40.1800   25.7460   34.4020 Cl  0  0  0  0  0  0  0  0  0  0  0  0
   39.2080   24.3670   33.9690 C   0  0  0  0  0  0  0  0  0  0  0  0
   38.1790   24.5240   33.1080 C   0  0  0  0  0  0  0  0  0  0  0  0
   37.4750   23.3630   32.7930 C   0  0  0  0  0  0  0  0  0  0  0  0
   37.7500   22.1240   33.2830 C   0  0  0  0  0  0  0  0  0  0  0  0
   38.8100   22.0140   34.1590 C   0  0  0  0  0  0  0  0  0  0  0  0
   39.5570   23.1480   34.5140 C   0  0  0  0  0  0  0  0  0  0  0  0
   36.6360   23.4370   32.1030 H   0  0  0  0  0  0  0  0  0  0  0  0
   37.1960   21.2410   33.0260 H   0  0  0  0  0  0  0  0  0  0  0  0
   39.1230   21.0820   34.6130 H   0  0  0  0  0  0  0  0  0  0  0  0
   40.6310   23.0160   35.4390 N   0  0  0  0  0  0  0  0  0  0  0  0
   42.0090   22.7110   35.0820 C   0  0  0  0  0  0  0  0  0  0  0  0
   42.7470   22.5060   36.4020 C   0  0  0  0  0  0  0  0  0  0  0  0
   42.0270   21.4660   37.0680 N   0  0  0  0  0  0  0  0  0  0  0  0
   40.7730   21.9180   37.5440 C   0  0  0  0  0  0  0  0  0  0  0  0
   40.3330   23.1890   36.8430 C   0  0  2  0  0  0  0  0  0  0  0  0
   42.0140   21.6990   34.5920 H   0  0  0  0  0  0  0  0  0  0  0  0
   42.4810   23.4570   34.4330 H   0  0  0  0  0  0  0  0  0  0  0  0
   42.7400   23.4640   36.9450 H   0  0  0  0  0  0  0  0  0  0  0  0
   43.8140   22.2100   36.2080 H   0  0  0  0  0  0  0  0  0  0  0  0
   42.6030   21.0730   37.8600 H   0  0  0  0  0  0  0  0  0  0  0  0
   40.0200   21.1330   37.4570 H   0  0  0  0  0  0  0  0  0  0  0  0
   40.8280   22.1710   38.6430 H   0  0  0  0  0  0  0  0  0  0  0  0
   40.8340   24.0870   37.2670 H   0  0  0  0  0  0  0  0  0  0  0  0
   38.8510   23.2880   37.1310 C   0  0  0  0  0  3  0  0  0  0  0  0
   38.1460   24.5160   37.4540 C   0  0  0  0  0  2  0  0  0  0  0  0
   38.2810   23.3370   38.4740 C   0  0  0  0  0  2  0  0  0  0  0  0
   36.7370   27.9710   32.7080 C   0  0  0  0  0  0  0  0  0  0  0  0
   37.0180   26.7080   33.2350 C   0  0  0  0  0  0  0  0  0  0  0  0
   37.8630   25.8280   32.5770 C   0  0  0  0  0  0  0  0  0  0  0  0
   38.3940   26.2600   31.3970 N   0  0  0  0  0  0  0  0  0  0  0  0
   38.1290   27.4730   30.8800 C   0  0  0  0  0  0  0  0  0  0  0  0
   37.3000   28.3350   31.5310 N   0  0  0  0  0  0  0  0  0  0  0  0
   36.0940   28.7170   33.1550 H   0  0  0  0  0  0  0  0  0  0  0  0
   36.4670   26.5760   34.1430 H   0  0  0  0  0  0  0  0  0  0  0  0
   38.6320   27.6480   29.9410 H   0  0  0  0  0  0  0  0  0  0  0  0
  2  1  1  0  0  0  0
  2  7  1  0  0  0  0
  3  2  2  0  0  0  0
  4  3  1  0  0  0  0
  4  5  2  0  0  0  0
  5  6  1  0  0  0  0
  6  7  2  0  0  0  0
  6 10  1  0  0  0  0
  7 11  1  0  0  0  0
  8  4  1  0  0  0  0
  9  5  1  0  0  0  0
 11 16  1  0  0  0  0
 12 11  1  0  0  0  0
 12 13  1  0  0  0  0
 13 19  1  0  0  0  0
 13 14  1  0  0  0  0
 14 15  1  0  0  0  0
 14 21  1  0  0  0  0
 15 23  1  0  0  0  0
 16 25  1  0  0  0  0
 16 24  1  1  0  0  0
 16 15  1  0  0  0  0
 17 12  1  0  0  0  0
 18 12  1  0  0  0  0
 20 13  1  0  0  0  0
 22 15  1  0  0  0  0
 25 26  1  0  0  0  0
 25 27  1  0  0  0  0
 26 27  1  0  0  0  0
 28 34  1  0  0  0  0
 28 29  1  0  0  0  0
 29 35  1  0  0  0  0
 30  3  1  0  0  0  0
 30 29  2  0  0  0  0
 31 30  1  0  0  0  0
 32 31  2  0  0  0  0
 32 33  1  0  0  0  0
 33 28  2  0  0  0  0
 36 32  1  0  0  0  0
M  END
>  <minimizedAffinity>
-4.85350847

$$$$

 OpenBabel03272505173D

 36 39  0  0  1  0  0  0  0  0999 V2000
   39.2260   27.1330   34.3930 Cl  0  0  0  0  0  0  0  0  0  0  0  0
   38.3280   25.8800   33.5820 C   0  0  0  0  0  0  0  0  0  0  0  0
   37.2400   26.2080   32.8540 C   0  0  0  0  0  0  0  0  0  0  0  0
   36.6010   25.1480   32.2140 C   0  0  0  0  0  0  0  0  0  0  0  0
   36.9930   23.8460   32.2760 C   0  0  0  0  0  0  0  0  0  0  0  0
   38.1100   23.5600   33.0330 C   0  0  0  0  0  0  0  0  0  0  0  0
   38.7960   24.5870   33.7010 C   0  0  0  0  0  0  0  0  0  0  0  0
   35.7180   25.3600   31.6150 H   0  0  0  0  0  0  0  0  0  0  0  0
   36.4870   23.0420   31.7750 H   0  0  0  0  0  0  0  0  0  0  0  0
   38.5160   22.5640   33.1570 H   0  0  0  0  0  0  0  0  0  0  0  0
   39.9320   24.2660   34.4960 N   0  0  0  0  0  0  0  0  0  0  0  0
   41.2850   24.0900   33.9890 C   0  0  0  0  0  0  0  0  0  0  0  0
   42.1140   23.5960   35.1720 C   0  0  0  0  0  0  0  0  0  0  0  0
   41.4510   22.4100   35.6140 N   0  0  0  0  0  0  0  0  0  0  0  0
   40.2290   22.7030   36.2650 C   0  0  0  0  0  0  0  0  0  0  0  0
   39.7300   24.0930   35.9170 C   0  0  2  0  0  0  0  0  0  0  0  0
   41.2660   23.2240   33.2720 H   0  0  0  0  0  0  0  0  0  0  0  0
   41.7040   24.9800   33.5080 H   0  0  0  0  0  0  0  0  0  0  0  0
   42.1350   24.3980   35.9270 H   0  0  0  0  0  0  0  0  0  0  0  0
   43.1670   23.3820   34.8440 H   0  0  0  0  0  0  0  0  0  0  0  0
   42.0840   21.8550   36.2510 H   0  0  0  0  0  0  0  0  0  0  0  0
   39.4790   21.9430   36.0410 H   0  0  0  0  0  0  0  0  0  0  0  0
   40.3560   22.6900   37.3860 H   0  0  0  0  0  0  0  0  0  0  0  0
   40.2500   24.8760   36.5100 H   0  0  0  0  0  0  0  0  0  0  0  0
   38.2700   24.0830   36.3160 C   0  0  0  0  0  3  0  0  0  0  0  0
   37.7800   24.0890   37.6830 C   0  0  0  0  0  2  0  0  0  0  0  0
   37.5400   22.8840   36.7140 C   0  0  0  0  0  2  0  0  0  0  0  0
   36.5810   29.6880   31.5980 C   0  0  0  0  0  0  0  0  0  0  0  0
   37.0290   28.3670   31.6570 C   0  0  0  0  0  0  0  0  0  0  0  0
   36.7990   27.5800   32.7750 C   0  0  0  0  0  0  0  0  0  0  0  0
   36.1220   28.1670   33.8040 N   0  0  0  0  0  0  0  0  0  0  0  0
   35.6880   29.4400   33.7590 C   0  0  0  0  0  0  0  0  0  0  0  0
   35.9150   30.2070   32.6570 N   0  0  0  0  0  0  0  0  0  0  0  0
   36.7150   30.3670   30.7670 H   0  0  0  0  0  0  0  0  0  0  0  0
   37.5610   28.1350   30.7570 H   0  0  0  0  0  0  0  0  0  0  0  0
   35.1730   29.7390   34.6580 H   0  0  0  0  0  0  0  0  0  0  0  0
  2  7  1  0  0  0  0
  2  1  1  0  0  0  0
  3  2  2  0  0  0  0
  4  5  2  0  0  0  0
  4  3  1  0  0  0  0
  5  6  1  0  0  0  0
  6 10  1  0  0  0  0
  6  7  2  0  0  0  0
  7 11  1  0  0  0  0
  8  4  1  0  0  0  0
  9  5  1  0  0  0  0
 11 16  1  0  0  0  0
 12 11  1  0  0  0  0
 12 13  1  0  0  0  0
 13 14  1  0  0  0  0
 13 19  1  0  0  0  0
 14 21  1  0  0  0  0
 14 15  1  0  0  0  0
 15 23  1  0  0  0  0
 16 15  1  0  0  0  0
 16 25  1  0  0  0  0
 16 24  1  1  0  0  0
 17 12  1  0  0  0  0
 18 12  1  0  0  0  0
 20 13  1  0  0  0  0
 22 15  1  0  0  0  0
 25 27  1  0  0  0  0
 25 26  1  0  0  0  0
 27 26  1  0  0  0  0
 28 29  2  0  0  0  0
 28 33  1  0  0  0  0
 29 30  1  0  0  0  0
 30  3  1  0  0  0  0
 30 31  2  0  0  0  0
 32 31  1  0  0  0  0
 32 36  1  0  0  0  0
 33 32  2  0  0  0  0
 34 28  1  0  0  0  0
 35 29  1  0  0  0  0
M  END
>  <minimizedAffinity>
-4.78744888

$$$$
