
 OpenBabel03272505533D

 38 41  0  0  1  0  0  0  0  0999 V2000
   35.7140   23.5720   31.2830 C   0  0  0  0  0  0  0  0  0  0  0  0
   35.3600   24.9230   31.1590 C   0  0  0  0  0  0  0  0  0  0  0  0
   36.1610   25.8600   31.8390 C   0  0  0  0  0  0  0  0  0  0  0  0
   37.2080   25.3830   32.5580 N   0  0  0  0  0  0  0  0  0  0  0  0
   37.5090   24.0910   32.6490 C   0  0  0  0  0  0  0  0  0  0  0  0
   36.7670   23.1890   32.0150 N   0  0  0  0  0  0  0  0  0  0  0  0
   38.6190   23.6810   33.4160 N   0  0  0  0  0  0  0  0  0  0  0  0
   39.3720   22.4530   33.1150 C   0  0  0  0  0  0  0  0  0  0  0  0
   40.8190   22.8110   32.9380 C   0  0  0  0  0  0  0  0  0  0  0  0
   41.2530   24.0030   33.4540 N   0  0  0  0  0  0  0  0  0  0  0  0
   40.5140   24.6980   34.4570 C   0  0  0  0  0  0  0  0  0  0  0  0
   39.0890   24.4470   34.5550 C   0  0  2  0  0  0  0  0  0  0  0  0
   35.0840   22.8770   30.7520 H   0  0  0  0  0  0  0  0  0  0  0  0
   34.5260   25.3040   30.5860 H   0  0  0  0  0  0  0  0  0  0  0  0
   35.9650   26.9400   31.8040 H   0  0  0  0  0  0  0  0  0  0  0  0
   39.1670   21.7630   33.9400 H   0  0  0  0  0  0  0  0  0  0  0  0
   38.9230   22.0010   32.2090 H   0  0  0  0  0  0  0  0  0  0  0  0
   41.4250   21.9520   33.2950 H   0  0  0  0  0  0  0  0  0  0  0  0
   40.9900   22.8040   31.8200 H   0  0  0  0  0  0  0  0  0  0  0  0
   42.2650   24.0490   33.5920 H   0  0  0  0  0  0  0  0  0  0  0  0
   40.6430   25.7620   34.1150 H   0  0  0  0  0  0  0  0  0  0  0  0
   41.1640   24.7080   35.3390 H   0  0  0  0  0  0  0  0  0  0  0  0
   38.4880   25.3930   34.5790 H   0  0  0  0  0  0  0  0  0  0  0  0
   38.6780   23.7120   35.7490 N   0  0  2  0  0  0  0  0  0  0  0  0
   37.6740   24.4580   36.5070 C   0  0  0  0  0  0  0  0  0  0  0  0
   37.9850   24.2870   37.9760 C   0  0  0  0  0  0  0  0  0  0  0  0
   39.0010   23.1750   37.9490 C   0  0  0  0  0  0  0  0  0  0  0  0
   39.7560   23.4660   36.6350 C   0  0  1  0  0  0  0  0  0  0  0  0
   37.6110   25.5200   36.2190 H   0  0  0  0  0  0  0  0  0  0  0  0
   36.6890   23.9690   36.3090 H   0  0  0  0  0  0  0  0  0  0  0  0
   38.3880   25.2380   38.3470 H   0  0  0  0  0  0  0  0  0  0  0  0
   37.1010   23.9870   38.5620 H   0  0  0  0  0  0  0  0  0  0  0  0
   38.4290   22.2410   37.9170 H   0  0  0  0  0  0  0  0  0  0  0  0
   39.6150   23.2320   38.8350 H   0  0  0  0  0  0  0  0  0  0  0  0
   40.3010   24.3620   36.9840 H   0  0  0  0  0  0  0  0  0  0  0  0
   40.6030   22.2670   36.4130 C   0  0  0  0  0  3  0  0  0  0  0  0
   42.1160   22.3930   36.6340 C   0  0  0  0  0  2  0  0  0  0  0  0
   41.3190   21.5890   37.5540 C   0  0  0  0  0  2  0  0  0  0  0  0
  1  6  1  0  0  0  0
  2  1  2  0  0  0  0
  2  3  1  0  0  0  0
  3  4  2  0  0  0  0
  4  5  1  0  0  0  0
  5  7  1  0  0  0  0
  6  5  2  0  0  0  0
  7 12  1  0  0  0  0
  8  7  1  0  0  0  0
  8 16  1  0  0  0  0
  9  8  1  0  0  0  0
  9 18  1  0  0  0  0
  9 10  1  0  0  0  0
 10 20  1  0  0  0  0
 10 11  1  0  0  0  0
 11 12  1  0  0  0  0
 11 22  1  0  0  0  0
 12 23  1  6  0  0  0
 12 24  1  0  0  0  0
 13  1  1  0  0  0  0
 14  2  1  0  0  0  0
 15  3  1  0  0  0  0
 17  8  1  0  0  0  0
 19  9  1  0  0  0  0
 21 11  1  0  0  0  0
 24 25  1  1  0  0  0
 24 28  1  0  0  0  0
 25 26  1  0  0  0  0
 26 31  1  0  0  0  0
 26 32  1  0  0  0  0
 27 26  1  0  0  0  0
 27 34  1  0  0  0  0
 28 35  1  1  0  0  0
 28 27  1  0  0  0  0
 29 25  1  0  0  0  0
 30 25  1  0  0  0  0
 33 27  1  0  0  0  0
 36 37  1  0  0  0  0
 36 28  1  0  0  0  0
 36 38  1  0  0  0  0
 37 38  1  0  0  0  0
M  END
>  <minimizedAffinity>
-5.14404821

$$$$

 OpenBabel03272505533D

 38 41  0  0  1  0  0  0  0  0999 V2000
   41.7120   26.2380   34.2940 C   0  0  0  0  0  0  0  0  0  0  0  0
   40.8110   27.2000   33.8140 C   0  0  0  0  0  0  0  0  0  0  0  0
   39.4390   26.9310   33.9780 C   0  0  0  0  0  0  0  0  0  0  0  0
   39.0990   25.7670   34.5870 N   0  0  0  0  0  0  0  0  0  0  0  0
   39.9870   24.8810   35.0280 C   0  0  0  0  0  0  0  0  0  0  0  0
   41.2870   25.1150   34.8840 N   0  0  0  0  0  0  0  0  0  0  0  0
   39.5460   23.6970   35.6530 N   0  0  0  0  0  0  0  0  0  0  0  0
   40.3530   22.9930   36.6620 C   0  0  0  0  0  0  0  0  0  0  0  0
   39.5320   22.8390   37.9090 C   0  0  0  0  0  0  0  0  0  0  0  0
   38.1710   22.9600   37.8010 N   0  0  0  0  0  0  0  0  0  0  0  0
   37.5070   22.8300   36.5460 C   0  0  0  0  0  0  0  0  0  0  0  0
   38.2640   23.0950   35.3380 C   0  0  2  0  0  0  0  0  0  0  0  0
   42.7560   26.4700   34.1550 H   0  0  0  0  0  0  0  0  0  0  0  0
   41.0830   28.1270   33.3290 H   0  0  0  0  0  0  0  0  0  0  0  0
   38.6580   27.6210   33.6360 H   0  0  0  0  0  0  0  0  0  0  0  0
   40.6640   22.0520   36.1980 H   0  0  0  0  0  0  0  0  0  0  0  0
   41.2770   23.5840   36.8220 H   0  0  0  0  0  0  0  0  0  0  0  0
   39.8330   21.8880   38.3960 H   0  0  0  0  0  0  0  0  0  0  0  0
   39.9210   23.6300   38.6190 H   0  0  0  0  0  0  0  0  0  0  0  0
   37.6570   22.5400   38.5780 H   0  0  0  0  0  0  0  0  0  0  0  0
   36.7270   23.6360   36.6350 H   0  0  0  0  0  0  0  0  0  0  0  0
   36.8690   21.9440   36.6480 H   0  0  0  0  0  0  0  0  0  0  0  0
   37.7350   23.8020   34.6470 H   0  0  0  0  0  0  0  0  0  0  0  0
   38.5470   21.9170   34.5220 N   0  0  2  0  0  0  0  0  0  0  0  0
   39.8640   22.0140   33.8940 C   0  0  0  0  0  0  0  0  0  0  0  0
   39.7450   21.4730   32.4870 C   0  0  0  0  0  0  0  0  0  0  0  0
   38.3920   20.8130   32.5240 C   0  0  0  0  0  0  0  0  0  0  0  0
   37.6090   21.7450   33.4730 C   0  0  1  0  0  0  0  0  0  0  0  0
   40.2810   23.0340   33.9110 H   0  0  0  0  0  0  0  0  0  0  0  0
   40.5450   21.3340   34.4630 H   0  0  0  0  0  0  0  0  0  0  0  0
   39.7980   22.3240   31.7960 H   0  0  0  0  0  0  0  0  0  0  0  0
   40.5290   20.7340   32.2530 H   0  0  0  0  0  0  0  0  0  0  0  0
   38.5530   19.8120   32.9410 H   0  0  0  0  0  0  0  0  0  0  0  0
   37.9940   20.7630   31.5220 H   0  0  0  0  0  0  0  0  0  0  0  0
   37.5080   22.5970   32.7770 H   0  0  0  0  0  0  0  0  0  0  0  0
   36.3460   21.0170   33.7570 C   0  0  0  0  0  3  0  0  0  0  0  0
   35.1680   21.2010   32.7920 C   0  0  0  0  0  2  0  0  0  0  0  0
   35.8530   19.9150   32.8540 C   0  0  0  0  0  2  0  0  0  0  0  0
  1  6  1  0  0  0  0
  2  3  1  0  0  0  0
  2  1  2  0  0  0  0
  3  4  2  0  0  0  0
  4  5  1  0  0  0  0
  5  7  1  0  0  0  0
  6  5  2  0  0  0  0
  7  8  1  0  0  0  0
  8 17  1  0  0  0  0
  8  9  1  0  0  0  0
  9 18  1  0  0  0  0
  9 19  1  0  0  0  0
 10  9  1  0  0  0  0
 10 20  1  0  0  0  0
 11 21  1  0  0  0  0
 11 22  1  0  0  0  0
 11 10  1  0  0  0  0
 12 23  1  6  0  0  0
 12  7  1  0  0  0  0
 12 11  1  0  0  0  0
 13  1  1  0  0  0  0
 14  2  1  0  0  0  0
 15  3  1  0  0  0  0
 16  8  1  0  0  0  0
 24 25  1  6  0  0  0
 24 12  1  0  0  0  0
 25 29  1  0  0  0  0
 25 30  1  0  0  0  0
 26 27  1  0  0  0  0
 26 25  1  0  0  0  0
 27 33  1  0  0  0  0
 27 28  1  0  0  0  0
 28 35  1  6  0  0  0
 28 36  1  0  0  0  0
 28 24  1  0  0  0  0
 31 26  1  0  0  0  0
 32 26  1  0  0  0  0
 34 27  1  0  0  0  0
 37 38  1  0  0  0  0
 37 36  1  0  0  0  0
 38 36  1  0  0  0  0
M  END
>  <minimizedAffinity>
-5.06332207

$$$$

 OpenBabel03272505533D

 38 41  0  0  1  0  0  0  0  0999 V2000
   36.7440   19.3120   31.7430 C   0  0  0  0  0  0  0  0  0  0  0  0
   35.3860   19.3170   32.0950 C   0  0  0  0  0  0  0  0  0  0  0  0
   34.7990   20.5670   32.3690 C   0  0  0  0  0  0  0  0  0  0  0  0
   35.5910   21.6640   32.2710 N   0  0  0  0  0  0  0  0  0  0  0  0
   36.8760   21.6150   31.9320 C   0  0  0  0  0  0  0  0  0  0  0  0
   37.4500   20.4460   31.6690 N   0  0  0  0  0  0  0  0  0  0  0  0
   37.6250   22.8070   31.8500 N   0  0  0  0  0  0  0  0  0  0  0  0
   38.7850   22.9450   30.9540 C   0  0  0  0  0  0  0  0  0  0  0  0
   38.5630   24.1350   30.0650 C   0  0  0  0  0  0  0  0  0  0  0  0
   37.6420   25.0690   30.4610 N   0  0  0  0  0  0  0  0  0  0  0  0
   37.2010   25.1570   31.8150 C   0  0  0  0  0  0  0  0  0  0  0  0
   37.3010   23.9740   32.6470 C   0  0  2  0  0  0  0  0  0  0  0  0
   37.1670   18.3420   31.5380 H   0  0  0  0  0  0  0  0  0  0  0  0
   34.7550   18.4420   32.1740 H   0  0  0  0  0  0  0  0  0  0  0  0
   33.7440   20.6730   32.6530 H   0  0  0  0  0  0  0  0  0  0  0  0
   39.6630   23.0150   31.6040 H   0  0  0  0  0  0  0  0  0  0  0  0
   38.8860   21.9970   30.3910 H   0  0  0  0  0  0  0  0  0  0  0  0
   39.5550   24.5860   29.8510 H   0  0  0  0  0  0  0  0  0  0  0  0
   38.2510   23.7030   29.0670 H   0  0  0  0  0  0  0  0  0  0  0  0
   37.7590   25.9790   30.0120 H   0  0  0  0  0  0  0  0  0  0  0  0
   36.1060   25.3700   31.6660 H   0  0  0  0  0  0  0  0  0  0  0  0
   37.5340   26.1420   32.1620 H   0  0  0  0  0  0  0  0  0  0  0  0
   36.3420   23.7450   33.1820 H   0  0  0  0  0  0  0  0  0  0  0  0
   38.3080   24.0520   33.7020 N   0  0  2  0  0  0  0  0  0  0  0  0
   38.4620   22.7640   34.3790 C   0  0  0  0  0  0  0  0  0  0  0  0
   38.6330   23.0380   35.8560 C   0  0  0  0  0  0  0  0  0  0  0  0
   38.8690   24.5260   35.8690 C   0  0  0  0  0  0  0  0  0  0  0  0
   37.9760   24.9990   34.7020 C   0  0  1  0  0  0  0  0  0  0  0  0
   37.6340   22.0660   34.1820 H   0  0  0  0  0  0  0  0  0  0  0  0
   39.4140   22.3140   34.0050 H   0  0  0  0  0  0  0  0  0  0  0  0
   37.7070   22.7380   36.3620 H   0  0  0  0  0  0  0  0  0  0  0  0
   39.4990   22.5070   36.2850 H   0  0  0  0  0  0  0  0  0  0  0  0
   39.9380   24.6670   35.6750 H   0  0  0  0  0  0  0  0  0  0  0  0
   38.5870   24.9220   36.8320 H   0  0  0  0  0  0  0  0  0  0  0  0
   37.0020   24.8460   35.2020 H   0  0  0  0  0  0  0  0  0  0  0  0
   38.3520   26.4200   34.4930 C   0  0  0  0  0  3  0  0  0  0  0  0
   37.2950   27.5000   34.7570 C   0  0  0  0  0  2  0  0  0  0  0  0
   38.4470   27.3870   35.6460 C   0  0  0  0  0  2  0  0  0  0  0  0
  1  2  1  0  0  0  0
  2 14  1  0  0  0  0
  2  3  2  0  0  0  0
  3 15  1  0  0  0  0
  4  3  1  0  0  0  0
  5  4  2  0  0  0  0
  6  1  2  0  0  0  0
  6  5  1  0  0  0  0
  7  5  1  0  0  0  0
  7 12  1  0  0  0  0
  8 16  1  0  0  0  0
  8  7  1  0  0  0  0
  9 10  1  0  0  0  0
  9  8  1  0  0  0  0
 10 11  1  0  0  0  0
 11 22  1  0  0  0  0
 11 12  1  0  0  0  0
 12 23  1  1  0  0  0
 12 24  1  0  0  0  0
 13  1  1  0  0  0  0
 17  8  1  0  0  0  0
 18  9  1  0  0  0  0
 19  9  1  0  0  0  0
 20 10  1  0  0  0  0
 21 11  1  0  0  0  0
 24 25  1  1  0  0  0
 24 28  1  0  0  0  0
 25 26  1  0  0  0  0
 26 27  1  0  0  0  0
 26 32  1  0  0  0  0
 26 31  1  0  0  0  0
 27 34  1  0  0  0  0
 28 35  1  1  0  0  0
 28 27  1  0  0  0  0
 29 25  1  0  0  0  0
 30 25  1  0  0  0  0
 33 27  1  0  0  0  0
 36 28  1  0  0  0  0
 36 37  1  0  0  0  0
 36 38  1  0  0  0  0
 37 38  1  0  0  0  0
M  END
>  <minimizedAffinity>
-5.01729822

$$$$

 OpenBabel03272505533D

 38 41  0  0  1  0  0  0  0  0999 V2000
   35.3000   19.8040   32.8890 C   0  0  0  0  0  0  0  0  0  0  0  0
   35.4910   19.5150   31.5290 C   0  0  0  0  0  0  0  0  0  0  0  0
   36.4590   20.2730   30.8430 C   0  0  0  0  0  0  0  0  0  0  0  0
   37.1270   21.2200   31.5490 N   0  0  0  0  0  0  0  0  0  0  0  0
   36.9140   21.4620   32.8390 C   0  0  0  0  0  0  0  0  0  0  0  0
   36.0060   20.7580   33.5060 N   0  0  0  0  0  0  0  0  0  0  0  0
   37.6560   22.4640   33.4970 N   0  0  0  0  0  0  0  0  0  0  0  0
   37.9450   22.4090   34.9390 C   0  0  0  0  0  0  0  0  0  0  0  0
   39.4300   22.5010   35.1330 C   0  0  0  0  0  0  0  0  0  0  0  0
   40.1820   23.0080   34.1060 N   0  0  0  0  0  0  0  0  0  0  0  0
   39.5970   23.7890   33.0660 C   0  0  0  0  0  0  0  0  0  0  0  0
   38.1840   23.6160   32.7910 C   0  0  2  0  0  0  0  0  0  0  0  0
   34.5540   19.2080   33.3890 H   0  0  0  0  0  0  0  0  0  0  0  0
   34.9590   18.7600   30.9670 H   0  0  0  0  0  0  0  0  0  0  0  0
   36.6800   20.1220   29.7790 H   0  0  0  0  0  0  0  0  0  0  0  0
   37.3700   23.2230   35.3930 H   0  0  0  0  0  0  0  0  0  0  0  0
   37.5140   21.4660   35.3290 H   0  0  0  0  0  0  0  0  0  0  0  0
   39.6130   23.0340   36.0910 H   0  0  0  0  0  0  0  0  0  0  0  0
   39.7650   21.4440   35.3550 H   0  0  0  0  0  0  0  0  0  0  0  0
   41.1030   23.3420   34.3960 H   0  0  0  0  0  0  0  0  0  0  0  0
   40.1610   23.4040   32.1710 H   0  0  0  0  0  0  0  0  0  0  0  0
   40.0540   24.7810   33.1590 H   0  0  0  0  0  0  0  0  0  0  0  0
   37.9760   23.4510   31.7020 H   0  0  0  0  0  0  0  0  0  0  0  0
   37.3450   24.7530   33.1640 N   0  0  2  0  0  0  0  0  0  0  0  0
   36.4710   25.1470   32.0590 C   0  0  0  0  0  0  0  0  0  0  0  0
   36.4170   26.6580   32.0320 C   0  0  0  0  0  0  0  0  0  0  0  0
   37.0480   27.0130   33.3520 C   0  0  0  0  0  0  0  0  0  0  0  0
   38.1030   25.8980   33.5110 C   0  0  1  0  0  0  0  0  0  0  0  0
   36.7790   24.7280   31.0880 H   0  0  0  0  0  0  0  0  0  0  0  0
   35.4470   24.7750   32.3070 H   0  0  0  0  0  0  0  0  0  0  0  0
   36.9960   26.9980   31.1640 H   0  0  0  0  0  0  0  0  0  0  0  0
   35.3840   27.0410   31.9820 H   0  0  0  0  0  0  0  0  0  0  0  0
   36.2470   26.9550   34.0980 H   0  0  0  0  0  0  0  0  0  0  0  0
   37.4590   28.0090   33.2930 H   0  0  0  0  0  0  0  0  0  0  0  0
   38.8040   26.2600   32.7360 H   0  0  0  0  0  0  0  0  0  0  0  0
   38.5900   26.0360   34.9060 C   0  0  0  0  0  3  0  0  0  0  0  0
   39.9020   26.7930   35.1490 C   0  0  0  0  0  2  0  0  0  0  0  0
   38.6420   27.3790   35.5920 C   0  0  0  0  0  2  0  0  0  0  0  0
  1 13  1  0  0  0  0
  1  6  1  0  0  0  0
  2  1  2  0  0  0  0
  3  2  1  0  0  0  0
  3  4  2  0  0  0  0
  4  5  1  0  0  0  0
  5  7  1  0  0  0  0
  5  6  2  0  0  0  0
  7  8  1  0  0  0  0
  8  9  1  0  0  0  0
  8 17  1  0  0  0  0
  8 16  1  0  0  0  0
  9 19  1  0  0  0  0
  9 18  1  0  0  0  0
 10 20  1  0  0  0  0
 10  9  1  0  0  0  0
 11 22  1  0  0  0  0
 11 10  1  0  0  0  0
 12 23  1  6  0  0  0
 12 11  1  0  0  0  0
 12 24  1  0  0  0  0
 12  7  1  0  0  0  0
 14  2  1  0  0  0  0
 15  3  1  0  0  0  0
 21 11  1  0  0  0  0
 24 25  1  6  0  0  0
 24 28  1  0  0  0  0
 25 30  1  0  0  0  0
 26 25  1  0  0  0  0
 26 27  1  0  0  0  0
 27 28  1  0  0  0  0
 27 33  1  0  0  0  0
 28 35  1  6  0  0  0
 28 36  1  0  0  0  0
 29 25  1  0  0  0  0
 31 26  1  0  0  0  0
 32 26  1  0  0  0  0
 34 27  1  0  0  0  0
 36 37  1  0  0  0  0
 36 38  1  0  0  0  0
 37 38  1  0  0  0  0
M  END
>  <minimizedAffinity>
-4.94224739

$$$$

 OpenBabel03272505533D

 38 41  0  0  1  0  0  0  0  0999 V2000
   39.5010   22.9850   37.8600 C   0  0  0  0  0  0  0  0  0  0  0  0
   40.7360   22.3850   37.5720 C   0  0  0  0  0  0  0  0  0  0  0  0
   41.2290   22.5300   36.2620 C   0  0  0  0  0  0  0  0  0  0  0  0
   40.4730   23.2360   35.3840 N   0  0  0  0  0  0  0  0  0  0  0  0
   39.3050   23.7890   35.6990 C   0  0  0  0  0  0  0  0  0  0  0  0
   38.8210   23.6650   36.9300 N   0  0  0  0  0  0  0  0  0  0  0  0
   38.5850   24.5110   34.7250 N   0  0  0  0  0  0  0  0  0  0  0  0
   37.6700   25.6090   35.0760 C   0  0  0  0  0  0  0  0  0  0  0  0
   38.0850   26.8370   34.3200 C   0  0  0  0  0  0  0  0  0  0  0  0
   38.8770   26.6740   33.2140 N   0  0  0  0  0  0  0  0  0  0  0  0
   38.9830   25.4160   32.5500 C   0  0  0  0  0  0  0  0  0  0  0  0
   38.7000   24.2140   33.3090 C   0  0  2  0  0  0  0  0  0  0  0  0
   39.1480   22.8580   38.8700 H   0  0  0  0  0  0  0  0  0  0  0  0
   41.3380   21.8230   38.2720 H   0  0  0  0  0  0  0  0  0  0  0  0
   42.1850   22.0980   35.9400 H   0  0  0  0  0  0  0  0  0  0  0  0
   36.6620   25.2470   34.8480 H   0  0  0  0  0  0  0  0  0  0  0  0
   37.7140   25.7400   36.1750 H   0  0  0  0  0  0  0  0  0  0  0  0
   37.1680   27.4230   34.0990 H   0  0  0  0  0  0  0  0  0  0  0  0
   38.6290   27.4800   35.0760 H   0  0  0  0  0  0  0  0  0  0  0  0
   38.8610   27.4710   32.5750 H   0  0  0  0  0  0  0  0  0  0  0  0
   40.0800   25.4030   32.2990 H   0  0  0  0  0  0  0  0  0  0  0  0
   38.5680   25.5830   31.5500 H   0  0  0  0  0  0  0  0  0  0  0  0
   39.5060   23.4420   33.2050 H   0  0  0  0  0  0  0  0  0  0  0  0
   37.4700   23.5240   32.9270 N   0  0  2  0  0  0  0  0  0  0  0  0
   37.7200   22.1060   32.6690 C   0  0  0  0  0  0  0  0  0  0  0  0
   36.8940   21.7050   31.4680 C   0  0  0  0  0  0  0  0  0  0  0  0
   35.9790   22.8910   31.3120 C   0  0  0  0  0  0  0  0  0  0  0  0
   36.8920   24.0560   31.7480 C   0  0  1  0  0  0  0  0  0  0  0  0
   38.7870   21.8690   32.5330 H   0  0  0  0  0  0  0  0  0  0  0  0
   37.3320   21.5430   33.5520 H   0  0  0  0  0  0  0  0  0  0  0  0
   37.5780   21.5660   30.6210 H   0  0  0  0  0  0  0  0  0  0  0  0
   36.3090   20.7870   31.6480 H   0  0  0  0  0  0  0  0  0  0  0  0
   35.1420   22.7220   31.9990 H   0  0  0  0  0  0  0  0  0  0  0  0
   35.6430   22.9490   30.2880 H   0  0  0  0  0  0  0  0  0  0  0  0
   37.5450   24.0620   30.8560 H   0  0  0  0  0  0  0  0  0  0  0  0
   35.9830   25.2240   31.8630 C   0  0  0  0  0  3  0  0  0  0  0  0
   36.0800   26.3300   30.8030 C   0  0  0  0  0  2  0  0  0  0  0  0
   34.8960   25.4780   30.8480 C   0  0  0  0  0  2  0  0  0  0  0  0
  1 13  1  0  0  0  0
  2  1  1  0  0  0  0
  2 14  1  0  0  0  0
  3  2  2  0  0  0  0
  4  5  2  0  0  0  0
  4  3  1  0  0  0  0
  5  6  1  0  0  0  0
  6  1  2  0  0  0  0
  7  8  1  0  0  0  0
  7  5  1  0  0  0  0
  8 17  1  0  0  0  0
  9 19  1  0  0  0  0
  9  8  1  0  0  0  0
 10  9  1  0  0  0  0
 11 10  1  0  0  0  0
 11 12  1  0  0  0  0
 12 23  1  6  0  0  0
 12  7  1  0  0  0  0
 15  3  1  0  0  0  0
 16  8  1  0  0  0  0
 18  9  1  0  0  0  0
 20 10  1  0  0  0  0
 21 11  1  0  0  0  0
 22 11  1  0  0  0  0
 24 25  1  6  0  0  0
 24 12  1  0  0  0  0
 25 30  1  0  0  0  0
 26 32  1  0  0  0  0
 26 25  1  0  0  0  0
 27 26  1  0  0  0  0
 27 28  1  0  0  0  0
 27 33  1  0  0  0  0
 28 35  1  6  0  0  0
 28 36  1  0  0  0  0
 28 24  1  0  0  0  0
 29 25  1  0  0  0  0
 31 26  1  0  0  0  0
 34 27  1  0  0  0  0
 37 38  1  0  0  0  0
 37 36  1  0  0  0  0
 38 36  1  0  0  0  0
M  END
>  <minimizedAffinity>
-4.87744474

$$$$

 OpenBabel03272505533D

 38 41  0  0  1  0  0  0  0  0999 V2000
   37.8250   24.3490   37.6030 C   0  0  0  0  0  0  0  0  0  0  0  0
   37.4310   23.0270   37.3510 C   0  0  0  0  0  0  0  0  0  0  0  0
   37.6840   22.5170   36.0640 C   0  0  0  0  0  0  0  0  0  0  0  0
   38.2870   23.3430   35.1720 N   0  0  0  0  0  0  0  0  0  0  0  0
   38.6450   24.5920   35.4530 C   0  0  0  0  0  0  0  0  0  0  0  0
   38.4160   25.0940   36.6610 N   0  0  0  0  0  0  0  0  0  0  0  0
   39.2710   25.3810   34.4660 N   0  0  0  0  0  0  0  0  0  0  0  0
   40.2050   26.4670   34.8040 C   0  0  0  0  0  0  0  0  0  0  0  0
   41.5020   26.2220   34.0890 C   0  0  0  0  0  0  0  0  0  0  0  0
   41.4910   25.3770   33.0110 N   0  0  0  0  0  0  0  0  0  0  0  0
   40.2820   25.0530   32.3260 C   0  0  0  0  0  0  0  0  0  0  0  0
   39.0320   25.1720   33.0510 C   0  0  2  0  0  0  0  0  0  0  0  0
   37.6200   24.7130   38.5970 H   0  0  0  0  0  0  0  0  0  0  0  0
   36.9510   22.3690   38.0620 H   0  0  0  0  0  0  0  0  0  0  0  0
   37.4130   21.4950   35.7700 H   0  0  0  0  0  0  0  0  0  0  0  0
   39.6980   27.3980   34.5300 H   0  0  0  0  0  0  0  0  0  0  0  0
   40.3140   26.4820   35.9060 H   0  0  0  0  0  0  0  0  0  0  0  0
   41.9450   27.2110   33.8440 H   0  0  0  0  0  0  0  0  0  0  0  0
   42.2010   25.8110   34.8780 H   0  0  0  0  0  0  0  0  0  0  0  0
   42.2920   25.4940   32.3870 H   0  0  0  0  0  0  0  0  0  0  0  0
   40.4440   23.9590   32.1170 H   0  0  0  0  0  0  0  0  0  0  0  0
   40.4080   25.4550   31.3140 H   0  0  0  0  0  0  0  0  0  0  0  0
   38.3960   24.2530   32.9620 H   0  0  0  0  0  0  0  0  0  0  0  0
   38.1700   26.2660   32.6080 N   0  0  2  0  0  0  0  0  0  0  0  0
   38.1770   27.3660   33.5720 C   0  0  0  0  0  0  0  0  0  0  0  0
   36.7650   27.8970   33.6740 C   0  0  0  0  0  0  0  0  0  0  0  0
   36.0980   27.2310   32.4990 C   0  0  0  0  0  0  0  0  0  0  0  0
   36.8190   25.8660   32.4560 C   0  0  1  0  0  0  0  0  0  0  0  0
   38.5820   27.0810   34.5560 H   0  0  0  0  0  0  0  0  0  0  0  0
   38.8130   28.1740   33.1370 H   0  0  0  0  0  0  0  0  0  0  0  0
   36.3570   27.5830   34.6430 H   0  0  0  0  0  0  0  0  0  0  0  0
   36.7190   28.9940   33.5720 H   0  0  0  0  0  0  0  0  0  0  0  0
   36.3180   27.8590   31.6280 H   0  0  0  0  0  0  0  0  0  0  0  0
   35.0370   27.1660   32.6810 H   0  0  0  0  0  0  0  0  0  0  0  0
   36.3450   25.4320   33.3550 H   0  0  0  0  0  0  0  0  0  0  0  0
   36.3950   25.2570   31.1710 C   0  0  0  0  0  3  0  0  0  0  0  0
   35.6230   23.9310   31.2130 C   0  0  0  0  0  2  0  0  0  0  0  0
   34.9380   25.1490   30.7940 C   0  0  0  0  0  2  0  0  0  0  0  0
  1 13  1  0  0  0  0
  2  1  1  0  0  0  0
  2 14  1  0  0  0  0
  3  2  2  0  0  0  0
  4  5  2  0  0  0  0
  4  3  1  0  0  0  0
  5  6  1  0  0  0  0
  6  1  2  0  0  0  0
  7  8  1  0  0  0  0
  7  5  1  0  0  0  0
  8 17  1  0  0  0  0
  9  8  1  0  0  0  0
  9 19  1  0  0  0  0
 10  9  1  0  0  0  0
 11 10  1  0  0  0  0
 11 12  1  0  0  0  0
 12 23  1  6  0  0  0
 12  7  1  0  0  0  0
 15  3  1  0  0  0  0
 16  8  1  0  0  0  0
 18  9  1  0  0  0  0
 20 10  1  0  0  0  0
 21 11  1  0  0  0  0
 22 11  1  0  0  0  0
 24 12  1  0  0  0  0
 24 25  1  1  0  0  0
 25 26  1  0  0  0  0
 25 29  1  0  0  0  0
 26 31  1  0  0  0  0
 27 34  1  0  0  0  0
 27 26  1  0  0  0  0
 28 27  1  0  0  0  0
 28 24  1  0  0  0  0
 28 35  1  1  0  0  0
 30 25  1  0  0  0  0
 32 26  1  0  0  0  0
 33 27  1  0  0  0  0
 36 37  1  0  0  0  0
 36 28  1  0  0  0  0
 38 36  1  0  0  0  0
 38 37  1  0  0  0  0
M  END
>  <minimizedAffinity>
-4.8682971

$$$$

 OpenBabel03272505533D

 38 41  0  0  1  0  0  0  0  0999 V2000
   37.0240   28.7440   29.6740 C   0  0  0  0  0  0  0  0  0  0  0  0
   38.3580   28.9630   29.2970 C   0  0  0  0  0  0  0  0  0  0  0  0
   39.3180   28.0560   29.7850 C   0  0  0  0  0  0  0  0  0  0  0  0
   38.8790   27.0460   30.5770 N   0  0  0  0  0  0  0  0  0  0  0  0
   37.6030   26.8750   30.9100 C   0  0  0  0  0  0  0  0  0  0  0  0
   36.6800   27.7180   30.4610 N   0  0  0  0  0  0  0  0  0  0  0  0
   37.2320   25.7940   31.7360 N   0  0  0  0  0  0  0  0  0  0  0  0
   35.8980   25.1760   31.6700 C   0  0  0  0  0  0  0  0  0  0  0  0
   36.0650   23.7050   31.4230 C   0  0  0  0  0  0  0  0  0  0  0  0
   37.2820   23.1400   31.7030 N   0  0  0  0  0  0  0  0  0  0  0  0
   38.2250   23.7830   32.5580 C   0  0  0  0  0  0  0  0  0  0  0  0
   38.1450   25.2230   32.7070 C   0  0  2  0  0  0  0  0  0  0  0  0
   36.3110   29.4530   29.2860 H   0  0  0  0  0  0  0  0  0  0  0  0
   38.7080   29.7680   28.6660 H   0  0  0  0  0  0  0  0  0  0  0  0
   40.3860   28.1430   29.5470 H   0  0  0  0  0  0  0  0  0  0  0  0
   35.4000   25.4300   32.6120 H   0  0  0  0  0  0  0  0  0  0  0  0
   35.3320   25.6890   30.8680 H   0  0  0  0  0  0  0  0  0  0  0  0
   35.2300   23.1800   31.9340 H   0  0  0  0  0  0  0  0  0  0  0  0
   35.8310   23.5610   30.3260 H   0  0  0  0  0  0  0  0  0  0  0  0
   37.2470   22.1260   31.8250 H   0  0  0  0  0  0  0  0  0  0  0  0
   39.1870   23.5550   32.0200 H   0  0  0  0  0  0  0  0  0  0  0  0
   38.3340   23.1150   33.4200 H   0  0  0  0  0  0  0  0  0  0  0  0
   39.1360   25.7250   32.5550 H   0  0  0  0  0  0  0  0  0  0  0  0
   37.6950   25.6780   34.0210 N   0  0  2  0  0  0  0  0  0  0  0  0
   37.7610   27.1350   34.1250 C   0  0  0  0  0  0  0  0  0  0  0  0
   38.2580   27.4760   35.5120 C   0  0  0  0  0  0  0  0  0  0  0  0
   38.1490   26.1480   36.2130 C   0  0  0  0  0  0  0  0  0  0  0  0
   38.4840   25.1590   35.0770 C   0  0  1  0  0  0  0  0  0  0  0  0
   38.3780   27.6010   33.3400 H   0  0  0  0  0  0  0  0  0  0  0  0
   36.7140   27.5140   34.0370 H   0  0  0  0  0  0  0  0  0  0  0  0
   39.2890   27.8380   35.4190 H   0  0  0  0  0  0  0  0  0  0  0  0
   37.6270   28.2290   36.0110 H   0  0  0  0  0  0  0  0  0  0  0  0
   37.1110   26.0690   36.5570 H   0  0  0  0  0  0  0  0  0  0  0  0
   38.8410   26.1240   37.0400 H   0  0  0  0  0  0  0  0  0  0  0  0
   39.5660   25.3790   35.0170 H   0  0  0  0  0  0  0  0  0  0  0  0
   38.1490   23.8220   35.6290 C   0  0  0  0  0  3  0  0  0  0  0  0
   39.2990   22.8840   36.0160 C   0  0  0  0  0  2  0  0  0  0  0  0
   38.4600   23.4620   37.0600 C   0  0  0  0  0  2  0  0  0  0  0  0
  1  6  1  0  0  0  0
  2  1  2  0  0  0  0
  2  3  1  0  0  0  0
  3  4  2  0  0  0  0
  4  5  1  0  0  0  0
  5  7  1  0  0  0  0
  6  5  2  0  0  0  0
  7 12  1  0  0  0  0
  8  7  1  0  0  0  0
  8 16  1  0  0  0  0
  9  8  1  0  0  0  0
  9 10  1  0  0  0  0
  9 18  1  0  0  0  0
 10 20  1  0  0  0  0
 10 11  1  0  0  0  0
 11 12  1  0  0  0  0
 11 22  1  0  0  0  0
 12 23  1  6  0  0  0
 12 24  1  0  0  0  0
 13  1  1  0  0  0  0
 14  2  1  0  0  0  0
 15  3  1  0  0  0  0
 17  8  1  0  0  0  0
 19  9  1  0  0  0  0
 21 11  1  0  0  0  0
 24 25  1  6  0  0  0
 24 28  1  0  0  0  0
 25 26  1  0  0  0  0
 26 32  1  0  0  0  0
 26 27  1  0  0  0  0
 27 33  1  0  0  0  0
 27 34  1  0  0  0  0
 28 35  1  6  0  0  0
 28 36  1  0  0  0  0
 28 27  1  0  0  0  0
 29 25  1  0  0  0  0
 30 25  1  0  0  0  0
 31 26  1  0  0  0  0
 36 37  1  0  0  0  0
 36 38  1  0  0  0  0
 37 38  1  0  0  0  0
M  END
>  <minimizedAffinity>
-4.83114338

$$$$

 OpenBabel03272505533D

 38 41  0  0  1  0  0  0  0  0999 V2000
   40.6560   21.8440   37.0610 C   0  0  0  0  0  0  0  0  0  0  0  0
   42.0370   21.8830   36.8200 C   0  0  0  0  0  0  0  0  0  0  0  0
   42.5280   22.9730   36.0770 C   0  0  0  0  0  0  0  0  0  0  0  0
   41.6280   23.8960   35.6530 N   0  0  0  0  0  0  0  0  0  0  0  0
   40.3240   23.8210   35.9040 C   0  0  0  0  0  0  0  0  0  0  0  0
   39.8400   22.8010   36.6040 N   0  0  0  0  0  0  0  0  0  0  0  0
   39.4590   24.8280   35.4280 N   0  0  0  0  0  0  0  0  0  0  0  0
   38.2010   25.1690   36.1100 C   0  0  0  0  0  0  0  0  0  0  0  0
   38.2080   26.6380   36.4210 C   0  0  0  0  0  0  0  0  0  0  0  0
   39.0730   27.4380   35.7210 N   0  0  0  0  0  0  0  0  0  0  0  0
   39.6500   27.0150   34.4870 C   0  0  0  0  0  0  0  0  0  0  0  0
   39.7560   25.5920   34.2320 C   0  0  2  0  0  0  0  0  0  0  0  0
   40.3080   20.9990   37.6320 H   0  0  0  0  0  0  0  0  0  0  0  0
   42.7540   21.1480   37.1580 H   0  0  0  0  0  0  0  0  0  0  0  0
   43.5920   23.0920   35.8370 H   0  0  0  0  0  0  0  0  0  0  0  0
   37.3970   24.8450   35.4410 H   0  0  0  0  0  0  0  0  0  0  0  0
   38.1290   24.5350   37.0150 H   0  0  0  0  0  0  0  0  0  0  0  0
   37.1600   27.0000   36.3640 H   0  0  0  0  0  0  0  0  0  0  0  0
   38.4480   26.7050   37.5240 H   0  0  0  0  0  0  0  0  0  0  0  0
   38.8200   28.4280   35.7340 H   0  0  0  0  0  0  0  0  0  0  0  0
   40.6960   27.4150   34.5950 H   0  0  0  0  0  0  0  0  0  0  0  0
   39.2640   27.7130   33.7350 H   0  0  0  0  0  0  0  0  0  0  0  0
   40.7850   25.2920   33.9020 H   0  0  0  0  0  0  0  0  0  0  0  0
   38.8680   25.0900   33.1860 N   0  0  2  0  0  0  0  0  0  0  0  0
   39.5920   24.2370   32.2440 C   0  0  0  0  0  0  0  0  0  0  0  0
   39.0800   24.5450   30.8550 C   0  0  0  0  0  0  0  0  0  0  0  0
   37.8520   25.3650   31.1540 C   0  0  0  0  0  0  0  0  0  0  0  0
   38.2820   26.1310   32.4230 C   0  0  1  0  0  0  0  0  0  0  0  0
   40.6860   24.3420   32.3130 H   0  0  0  0  0  0  0  0  0  0  0  0
   39.3130   23.1820   32.4820 H   0  0  0  0  0  0  0  0  0  0  0  0
   39.8610   25.1050   30.3260 H   0  0  0  0  0  0  0  0  0  0  0  0
   38.8090   23.6350   30.2950 H   0  0  0  0  0  0  0  0  0  0  0  0
   37.0440   24.6470   31.3390 H   0  0  0  0  0  0  0  0  0  0  0  0
   37.6320   25.9970   30.3080 H   0  0  0  0  0  0  0  0  0  0  0  0
   38.9920   26.8220   31.9330 H   0  0  0  0  0  0  0  0  0  0  0  0
   37.0360   26.7660   32.9200 C   0  0  0  0  0  3  0  0  0  0  0  0
   36.8340   28.2670   32.6720 C   0  0  0  0  0  2  0  0  0  0  0  0
   35.9930   27.3030   31.9710 C   0  0  0  0  0  2  0  0  0  0  0  0
  1 13  1  0  0  0  0
  2  1  1  0  0  0  0
  2 14  1  0  0  0  0
  3  2  2  0  0  0  0
  4  5  2  0  0  0  0
  4  3  1  0  0  0  0
  5  6  1  0  0  0  0
  6  1  2  0  0  0  0
  7  5  1  0  0  0  0
  7  8  1  0  0  0  0
  8  9  1  0  0  0  0
  8 17  1  0  0  0  0
  9 19  1  0  0  0  0
 10 20  1  0  0  0  0
 10  9  1  0  0  0  0
 11 21  1  0  0  0  0
 11 10  1  0  0  0  0
 12 23  1  6  0  0  0
 12 11  1  0  0  0  0
 12  7  1  0  0  0  0
 15  3  1  0  0  0  0
 16  8  1  0  0  0  0
 18  9  1  0  0  0  0
 22 11  1  0  0  0  0
 24 25  1  6  0  0  0
 24 12  1  0  0  0  0
 25 29  1  0  0  0  0
 25 30  1  0  0  0  0
 26 27  1  0  0  0  0
 26 25  1  0  0  0  0
 27 33  1  0  0  0  0
 27 28  1  0  0  0  0
 28 35  1  6  0  0  0
 28 36  1  0  0  0  0
 28 24  1  0  0  0  0
 31 26  1  0  0  0  0
 32 26  1  0  0  0  0
 34 27  1  0  0  0  0
 37 36  1  0  0  0  0
 38 37  1  0  0  0  0
 38 36  1  0  0  0  0
M  END
>  <minimizedAffinity>
-4.72152567

$$$$

 OpenBabel03272505533D

 38 41  0  0  1  0  0  0  0  0999 V2000
   36.2170   26.0900   31.4950 C   0  0  0  0  0  0  0  0  0  0  0  0
   37.1840   26.8530   30.8250 C   0  0  0  0  0  0  0  0  0  0  0  0
   38.5230   26.4360   30.9390 C   0  0  0  0  0  0  0  0  0  0  0  0
   38.7720   25.3310   31.6860 N   0  0  0  0  0  0  0  0  0  0  0  0
   37.8240   24.6340   32.3060 C   0  0  0  0  0  0  0  0  0  0  0  0
   36.5530   25.0110   32.2120 N   0  0  0  0  0  0  0  0  0  0  0  0
   38.1710   23.4950   33.0600 N   0  0  0  0  0  0  0  0  0  0  0  0
   37.2410   22.3710   33.2580 C   0  0  0  0  0  0  0  0  0  0  0  0
   37.9120   21.1090   32.7980 C   0  0  0  0  0  0  0  0  0  0  0  0
   39.2780   21.1110   32.6900 N   0  0  0  0  0  0  0  0  0  0  0  0
   40.0790   22.0880   33.3520 C   0  0  0  0  0  0  0  0  0  0  0  0
   39.4690   23.3580   33.6920 C   0  0  2  0  0  0  0  0  0  0  0  0
   35.2010   26.4320   31.3910 H   0  0  0  0  0  0  0  0  0  0  0  0
   36.9860   27.7340   30.2290 H   0  0  0  0  0  0  0  0  0  0  0  0
   39.3500   26.9670   30.4520 H   0  0  0  0  0  0  0  0  0  0  0  0
   36.9690   22.3860   34.3180 H   0  0  0  0  0  0  0  0  0  0  0  0
   36.3160   22.6000   32.6940 H   0  0  0  0  0  0  0  0  0  0  0  0
   37.5420   20.2780   33.4350 H   0  0  0  0  0  0  0  0  0  0  0  0
   37.4590   20.8850   31.7860 H   0  0  0  0  0  0  0  0  0  0  0  0
   39.6930   20.1770   32.6910 H   0  0  0  0  0  0  0  0  0  0  0  0
   40.8580   22.2910   32.5650 H   0  0  0  0  0  0  0  0  0  0  0  0
   40.6860   21.5240   34.0700 H   0  0  0  0  0  0  0  0  0  0  0  0
   40.0860   24.2330   33.3570 H   0  0  0  0  0  0  0  0  0  0  0  0
   39.2610   23.5740   35.1220 N   0  0  2  0  0  0  0  0  0  0  0  0
   38.6100   22.4200   35.7400 C   0  0  0  0  0  0  0  0  0  0  0  0
   37.6030   22.9410   36.7410 C   0  0  0  0  0  0  0  0  0  0  0  0
   37.9830   24.3950   36.8330 C   0  0  0  0  0  0  0  0  0  0  0  0
   38.4380   24.6960   35.3890 C   0  0  1  0  0  0  0  0  0  0  0  0
   38.1490   21.7360   35.0100 H   0  0  0  0  0  0  0  0  0  0  0  0
   39.3980   21.8680   36.3080 H   0  0  0  0  0  0  0  0  0  0  0  0
   36.6010   22.7760   36.3250 H   0  0  0  0  0  0  0  0  0  0  0  0
   37.6980   22.4540   37.7260 H   0  0  0  0  0  0  0  0  0  0  0  0
   38.8000   24.4510   37.5610 H   0  0  0  0  0  0  0  0  0  0  0  0
   37.1270   24.9670   37.1560 H   0  0  0  0  0  0  0  0  0  0  0  0
   37.4370   24.6770   34.9210 H   0  0  0  0  0  0  0  0  0  0  0  0
   39.0650   26.0400   35.4640 C   0  0  0  0  0  3  0  0  0  0  0  0
   38.3820   27.2050   34.7370 C   0  0  0  0  0  2  0  0  0  0  0  0
   38.4000   27.1790   36.1960 C   0  0  0  0  0  2  0  0  0  0  0  0
  1  6  1  0  0  0  0
  2  3  1  0  0  0  0
  2  1  2  0  0  0  0
  3  4  2  0  0  0  0
  4  5  1  0  0  0  0
  5  7  1  0  0  0  0
  6  5  2  0  0  0  0
  7  8  1  0  0  0  0
  7 12  1  0  0  0  0
  8 16  1  0  0  0  0
  9  8  1  0  0  0  0
  9 18  1  0  0  0  0
 10 20  1  0  0  0  0
 10  9  1  0  0  0  0
 10 11  1  0  0  0  0
 11 12  1  0  0  0  0
 11 22  1  0  0  0  0
 12 23  1  6  0  0  0
 12 24  1  0  0  0  0
 13  1  1  0  0  0  0
 14  2  1  0  0  0  0
 15  3  1  0  0  0  0
 17  8  1  0  0  0  0
 19  9  1  0  0  0  0
 21 11  1  0  0  0  0
 24 28  1  0  0  0  0
 24 25  1  6  0  0  0
 25 30  1  0  0  0  0
 25 26  1  0  0  0  0
 26 27  1  0  0  0  0
 26 32  1  0  0  0  0
 27 34  1  0  0  0  0
 27 33  1  0  0  0  0
 28 35  1  6  0  0  0
 28 36  1  0  0  0  0
 28 27  1  0  0  0  0
 29 25  1  0  0  0  0
 31 26  1  0  0  0  0
 36 38  1  0  0  0  0
 37 36  1  0  0  0  0
 37 38  1  0  0  0  0
M  END
>  <minimizedAffinity>
-4.69934511

$$$$
