
 OpenBabel03272510203D

 30 33  0  0  0  0  0  0  0  0999 V2000
   37.3670   29.2220   50.8810 Br  0  0  0  0  0  0  0  0  0  0  0  0
   35.9790   29.2800   49.5780 C   0  0  0  0  0  0  0  0  0  0  0  0
   35.9750   30.2510   48.5810 C   0  0  0  0  0  0  0  0  0  0  0  0
   34.9420   30.2290   47.6770 C   0  0  0  0  0  0  0  0  0  0  0  0
   33.9210   29.3070   47.7070 C   0  0  0  0  0  0  0  0  0  0  0  0
   33.9510   28.3610   48.7030 C   0  0  0  0  0  0  0  0  0  0  0  0
   34.9700   28.3600   49.6160 C   0  0  0  0  0  0  0  0  0  0  0  0
   34.9470   30.9880   46.9060 H   0  0  0  0  0  0  0  0  0  0  0  0
   33.1670   27.6160   48.7630 H   0  0  0  0  0  0  0  0  0  0  0  0
   34.9660   27.6020   50.3880 H   0  0  0  0  0  0  0  0  0  0  0  0
   37.9910   33.1690   49.4580 C   0  0  0  0  0  0  0  0  0  0  0  0
   39.0100   33.1750   48.4600 C   0  0  0  0  0  0  0  0  0  0  0  0
   38.9800   32.1730   47.5080 C   0  0  0  0  0  0  0  0  0  0  0  0
   37.9910   31.2200   47.5470 N   0  0  0  0  0  0  0  0  0  0  0  0
   37.0400   31.2500   48.5110 C   0  0  0  0  0  0  0  0  0  0  0  0
   37.0450   32.2230   49.4600 N   0  0  0  0  0  0  0  0  0  0  0  0
   37.9470   33.9150   50.2320 H   0  0  0  0  0  0  0  0  0  0  0  0
   39.7470   33.9430   48.4890 H   0  0  0  0  0  0  0  0  0  0  0  0
   39.7170   32.1330   46.7440 H   0  0  0  0  0  0  0  0  0  0  0  0
   32.8250   29.2860   46.7480 C   0  0  0  0  0  0  0  0  0  0  0  0
   31.9640   28.2310   46.5590 C   0  0  0  0  0  0  0  0  0  0  0  0
   30.9330   28.2560   45.6330 C   0  0  0  0  0  0  0  0  0  0  0  0
   30.7600   29.3460   44.8850 N   0  0  0  0  0  0  0  0  0  0  0  0
   31.5990   30.3990   45.0560 C   0  0  0  0  0  0  0  0  0  0  0  0
   32.5790   30.3460   45.9530 N   0  0  0  0  0  0  0  0  0  0  0  0
   32.1070   27.3400   47.1710 H   0  0  0  0  0  0  0  0  0  0  0  0
   30.3140   27.3610   45.5700 H   0  0  0  0  0  0  0  0  0  0  0  0
   31.4340   31.6370   44.2360 C   0  0  0  0  0  3  0  0  0  0  0  0
   31.5940   32.9680   44.8740 C   0  0  0  0  0  2  0  0  0  0  0  0
   30.2460   32.5260   44.4370 C   0  0  0  0  0  2  0  0  0  0  0  0
  2  7  1  0  0  0  0
  2  1  1  0  0  0  0
  3  2  2  0  0  0  0
  4  5  2  0  0  0  0
  4  3  1  0  0  0  0
  5  6  1  0  0  0  0
  6  9  1  0  0  0  0
  6  7  2  0  0  0  0
  7 10  1  0  0  0  0
  8  4  1  0  0  0  0
 11 16  1  0  0  0  0
 11 17  1  0  0  0  0
 12 18  1  0  0  0  0
 12 11  2  0  0  0  0
 13 14  2  0  0  0  0
 13 12  1  0  0  0  0
 14 15  1  0  0  0  0
 15  3  1  0  0  0  0
 15 16  2  0  0  0  0
 19 13  1  0  0  0  0
 20  5  1  0  0  0  0
 21 20  1  0  0  0  0
 21 26  1  0  0  0  0
 22 21  2  0  0  0  0
 23 24  2  0  0  0  0
 23 22  1  0  0  0  0
 24 25  1  0  0  0  0
 25 20  2  0  0  0  0
 27 22  1  0  0  0  0
 28 30  1  0  0  0  0
 28 29  1  0  0  0  0
 28 24  1  0  0  0  0
 30 29  1  0  0  0  0
M  END
>  <minimizedAffinity>
-6.07849932

>  <minimizedRMSD>
0.286782622

$$$$
