
 OpenBabel03272501513D

 24 26  0  0  0  0  0  0  0  0999 V2000
   38.3880   32.2270   48.8690 C   0  0  0  0  0  0  0  0  0  0  0  0
   38.7480   33.3390   49.5780 C   0  0  0  0  0  0  0  0  0  0  0  0
   39.5750   34.3070   48.9850 C   0  0  0  0  0  0  0  0  0  0  0  0
   40.0240   34.1200   47.6640 C   0  0  0  0  0  0  0  0  0  0  0  0
   39.6540   32.9830   46.9450 C   0  0  0  0  0  0  0  0  0  0  0  0
   38.8460   32.0870   47.5950 C   0  0  0  0  0  0  0  0  0  0  0  0
   38.4010   33.4830   50.5940 H   0  0  0  0  0  0  0  0  0  0  0  0
   39.8350   35.1710   49.5780 H   0  0  0  0  0  0  0  0  0  0  0  0
   40.6580   34.9430   47.3260 H   0  0  0  0  0  0  0  0  0  0  0  0
   40.0450   32.9350   45.9600 H   0  0  0  0  0  0  0  0  0  0  0  0
   37.1590   29.4080   51.0610 C   0  0  0  0  0  0  0  0  0  0  0  0
   38.0540   30.3020   50.4640 C   0  0  0  0  0  0  0  0  0  0  0  0
   37.5570   31.2500   49.5400 C   0  0  0  0  0  0  0  0  0  0  0  0
   36.2360   31.2230   49.2980 N   0  0  0  0  0  0  0  0  0  0  0  0
   35.3970   30.3500   49.8890 C   0  0  0  0  0  0  0  0  0  0  0  0
   35.8620   29.4390   50.7740 N   0  0  0  0  0  0  0  0  0  0  0  0
   34.0340   30.4920   49.4970 N   0  0  0  0  0  0  0  0  0  0  0  0
   37.5830   28.6970   51.7640 H   0  0  0  0  0  0  0  0  0  0  0  0
   39.1100   30.3240   50.6560 H   0  0  0  0  0  0  0  0  0  0  0  0
   33.2900   29.7580   49.3340 H   0  0  0  0  0  0  0  0  0  0  0  0
   33.6150   31.4310   49.3200 H   0  0  0  0  0  0  0  0  0  0  0  0
   38.4930   30.9510   46.6830 C   0  0  0  0  0  0  0  0  0  0  0  0
   39.5690   30.5500   45.6430 C   0  0  0  0  0  0  0  0  0  0  0  0
   38.3170   31.1960   45.2350 C   0  0  0  0  0  0  0  0  0  0  0  0
  1 13  1  0  0  0  0
  1  2  1  0  0  0  0
  2  7  1  0  0  0  0
  3  8  1  0  0  0  0
  3  2  2  0  0  0  0
  4  3  1  0  0  0  0
  5  6  1  0  0  0  0
  5  4  2  0  0  0  0
  6  1  2  0  0  0  0
  9  4  1  0  0  0  0
 10  5  1  0  0  0  0
 11 18  1  0  0  0  0
 12 19  1  0  0  0  0
 12 11  2  0  0  0  0
 13 12  1  0  0  0  0
 14 13  2  0  0  0  0
 14 15  1  0  0  0  0
 15 16  2  0  0  0  0
 16 11  1  0  0  0  0
 17 15  1  0  0  0  0
 20 17  1  0  0  0  0
 21 17  1  0  0  0  0
 22  6  1  0  0  0  0
 23 22  1  0  0  0  0
 24 23  1  0  0  0  0
 24 22  1  0  0  0  0
M  END
>  <minimizedAffinity>
-6.19090223

>  <minimizedRMSD>
1.85264707

$$$$
