
 OpenBabel03262523003D

 32 36  0  0  0  0  0  0  0  0999 V2000
   36.6600   27.8710   33.6430 C   0  0  0  0  0  0  0  0  0  0  0  0
   37.6540   27.7240   32.6730 C   0  0  0  0  0  0  0  0  0  0  0  0
   38.4930   26.7210   33.0720 C   0  0  0  0  0  0  0  0  0  0  0  0
   38.0060   26.2630   34.2810 N   0  0  0  0  0  0  0  0  0  0  0  0
   36.9270   26.9700   34.5740 N   0  0  0  0  0  0  0  0  0  0  0  0
   39.5270   24.3330   34.4550 N   0  0  0  0  0  0  0  0  0  0  0  0
   38.6310   25.2110   35.0020 C   0  0  0  0  0  0  0  0  0  0  0  0
   38.5080   24.8450   36.2870 N   0  0  0  0  0  0  0  0  0  0  0  0
   39.2840   23.7840   36.5690 C   0  0  0  0  0  0  0  0  0  0  0  0
   39.5630   23.0090   37.6540 C   0  0  0  0  0  0  0  0  0  0  0  0
   40.4360   21.9860   37.5450 N   0  0  0  0  0  0  0  0  0  0  0  0
   41.0490   21.7040   36.3790 C   0  0  0  0  0  0  0  0  0  0  0  0
   40.7980   22.4440   35.2930 N   0  0  0  0  0  0  0  0  0  0  0  0
   39.9260   23.4650   35.4070 C   0  0  0  0  0  0  0  0  0  0  0  0
   37.7360   28.3090   31.7660 H   0  0  0  0  0  0  0  0  0  0  0  0
   39.3550   26.3890   32.5160 H   0  0  0  0  0  0  0  0  0  0  0  0
   39.8610   24.3310   33.4460 H   0  0  0  0  0  0  0  0  0  0  0  0
   41.7480   20.8710   36.3250 H   0  0  0  0  0  0  0  0  0  0  0  0
   33.5020   29.4980   32.7310 C   0  0  0  0  0  0  0  0  0  0  0  0
   33.5430   30.6720   33.5340 C   0  0  0  0  0  0  0  0  0  0  0  0
   34.6390   30.8710   34.3550 C   0  0  0  0  0  0  0  0  0  0  0  0
   35.6270   29.9560   34.3720 N   0  0  0  0  0  0  0  0  0  0  0  0
   35.5740   28.8300   33.5940 C   0  0  0  0  0  0  0  0  0  0  0  0
   34.5250   28.6340   32.8030 N   0  0  0  0  0  0  0  0  0  0  0  0
   32.6520   29.3320   32.0860 H   0  0  0  0  0  0  0  0  0  0  0  0
   32.7520   31.4010   33.5180 H   0  0  0  0  0  0  0  0  0  0  0  0
   34.7850   32.0660   35.2380 C   0  0  0  0  0  3  0  0  0  0  0  0
   36.0150   32.1210   36.0450 C   0  0  0  0  0  2  0  0  0  0  0  0
   34.7290   31.8650   36.7380 C   0  0  0  0  0  2  0  0  0  0  0  0
   38.8980   23.3290   38.8830 N   0  0  0  0  0  0  0  0  0  0  0  0
   39.7050   23.6340   39.4880 H   0  0  0  0  0  0  0  0  0  0  0  0
   37.8790   23.2820   39.1390 H   0  0  0  0  0  0  0  0  0  0  0  0
  1  5  2  0  0  0  0
  2  3  2  0  0  0  0
  2  1  1  0  0  0  0
  3  4  1  0  0  0  0
  4  5  1  0  0  0  0
  4  7  1  0  0  0  0
  6  7  1  0  0  0  0
  6 14  1  0  0  0  0
  7  8  2  0  0  0  0
  8  9  1  0  0  0  0
  9 10  1  0  0  0  0
 10 30  1  0  0  0  0
 11 10  2  0  0  0  0
 12 11  1  0  0  0  0
 13 14  1  0  0  0  0
 13 12  2  0  0  0  0
 14  9  2  0  0  0  0
 15  2  1  0  0  0  0
 16  3  1  0  0  0  0
 17  6  1  0  0  0  0
 18 12  1  0  0  0  0
 19 24  2  0  0  0  0
 19 20  1  0  0  0  0
 20 21  2  0  0  0  0
 21 22  1  0  0  0  0
 21 27  1  0  0  0  0
 23  1  1  0  0  0  0
 23 22  2  0  0  0  0
 24 23  1  0  0  0  0
 25 19  1  0  0  0  0
 26 20  1  0  0  0  0
 27 28  1  0  0  0  0
 27 29  1  0  0  0  0
 28 29  1  0  0  0  0
 30 32  1  0  0  0  0
 30 31  1  0  0  0  0
M  END
>  <minimizedAffinity>
-6.17236185

$$$$

 OpenBabel03262523003D

 32 36  0  0  0  0  0  0  0  0999 V2000
   37.2600   26.6360   33.9960 C   0  0  0  0  0  0  0  0  0  0  0  0
   36.7480   26.8330   32.7130 C   0  0  0  0  0  0  0  0  0  0  0  0
   36.1510   28.0630   32.6760 C   0  0  0  0  0  0  0  0  0  0  0  0
   36.3040   28.6080   33.9370 N   0  0  0  0  0  0  0  0  0  0  0  0
   36.9630   27.7310   34.6770 N   0  0  0  0  0  0  0  0  0  0  0  0
   35.4440   30.8420   33.3560 N   0  0  0  0  0  0  0  0  0  0  0  0
   35.8030   29.8930   34.2740 C   0  0  0  0  0  0  0  0  0  0  0  0
   35.5770   30.4510   35.4740 N   0  0  0  0  0  0  0  0  0  0  0  0
   35.0950   31.6990   35.3500 C   0  0  0  0  0  0  0  0  0  0  0  0
   34.6980   32.7050   36.1770 C   0  0  0  0  0  0  0  0  0  0  0  0
   34.2520   33.8680   35.6580 N   0  0  0  0  0  0  0  0  0  0  0  0
   34.1860   34.0670   34.3280 C   0  0  0  0  0  0  0  0  0  0  0  0
   34.5680   33.1000   33.4850 N   0  0  0  0  0  0  0  0  0  0  0  0
   35.0130   31.9410   34.0070 C   0  0  0  0  0  0  0  0  0  0  0  0
   36.8160   26.1270   31.8950 H   0  0  0  0  0  0  0  0  0  0  0  0
   35.6690   28.4820   31.8080 H   0  0  0  0  0  0  0  0  0  0  0  0
   35.4930   30.7360   32.2990 H   0  0  0  0  0  0  0  0  0  0  0  0
   33.8220   35.0170   33.9420 H   0  0  0  0  0  0  0  0  0  0  0  0
   39.5510   23.7730   34.0520 C   0  0  0  0  0  0  0  0  0  0  0  0
   39.2870   23.2200   35.3360 C   0  0  0  0  0  0  0  0  0  0  0  0
   38.3420   23.8360   36.1370 C   0  0  0  0  0  0  0  0  0  0  0  0
   37.7050   24.9330   35.6830 N   0  0  0  0  0  0  0  0  0  0  0  0
   37.9700   25.4540   34.4450 C   0  0  0  0  0  0  0  0  0  0  0  0
   38.8760   24.8670   33.6710 N   0  0  0  0  0  0  0  0  0  0  0  0
   40.2870   23.3000   33.4180 H   0  0  0  0  0  0  0  0  0  0  0  0
   39.7980   22.3440   35.6950 H   0  0  0  0  0  0  0  0  0  0  0  0
   37.9860   23.3420   37.5000 C   0  0  0  0  0  3  0  0  0  0  0  0
   37.9060   24.3670   38.5540 C   0  0  0  0  0  2  0  0  0  0  0  0
   39.0370   23.4080   38.5880 C   0  0  0  0  0  2  0  0  0  0  0  0
   34.7780   32.4690   37.5890 N   0  0  0  0  0  0  0  0  0  0  0  0
   33.7610   32.4830   37.8640 H   0  0  0  0  0  0  0  0  0  0  0  0
   35.6140   32.3190   38.2090 H   0  0  0  0  0  0  0  0  0  0  0  0
  1 23  1  0  0  0  0
  1  5  2  0  0  0  0
  2  1  1  0  0  0  0
  3  2  2  0  0  0  0
  3  4  1  0  0  0  0
  4  7  1  0  0  0  0
  4  5  1  0  0  0  0
  6 14  1  0  0  0  0
  6  7  1  0  0  0  0
  7  8  2  0  0  0  0
  9  8  1  0  0  0  0
  9 10  1  0  0  0  0
 10 30  1  0  0  0  0
 11 10  2  0  0  0  0
 12 11  1  0  0  0  0
 13 14  1  0  0  0  0
 13 12  2  0  0  0  0
 14  9  2  0  0  0  0
 15  2  1  0  0  0  0
 16  3  1  0  0  0  0
 17  6  1  0  0  0  0
 18 12  1  0  0  0  0
 19 20  1  0  0  0  0
 20 26  1  0  0  0  0
 20 21  2  0  0  0  0
 21 27  1  0  0  0  0
 22 21  1  0  0  0  0
 23 22  2  0  0  0  0
 24 19  2  0  0  0  0
 24 23  1  0  0  0  0
 25 19  1  0  0  0  0
 27 28  1  0  0  0  0
 27 29  1  0  0  0  0
 28 29  1  0  0  0  0
 30 31  1  0  0  0  0
 30 32  1  0  0  0  0
M  END
>  <minimizedAffinity>
-5.97181368

$$$$

 OpenBabel03262523003D

 32 36  0  0  0  0  0  0  0  0999 V2000
   37.7930   25.4050   34.9370 C   0  0  0  0  0  0  0  0  0  0  0  0
   37.8390   25.0380   33.5910 C   0  0  0  0  0  0  0  0  0  0  0  0
   37.2960   26.0530   32.8540 C   0  0  0  0  0  0  0  0  0  0  0  0
   36.9230   27.0330   33.7540 N   0  0  0  0  0  0  0  0  0  0  0  0
   37.2360   26.6050   34.9660 N   0  0  0  0  0  0  0  0  0  0  0  0
   36.3490   28.7290   32.0630 N   0  0  0  0  0  0  0  0  0  0  0  0
   36.3160   28.2490   33.3440 C   0  0  0  0  0  0  0  0  0  0  0  0
   35.6210   29.1550   34.0500 N   0  0  0  0  0  0  0  0  0  0  0  0
   35.2170   30.1750   33.2730 C   0  0  0  0  0  0  0  0  0  0  0  0
   34.5110   31.3290   33.4240 C   0  0  0  0  0  0  0  0  0  0  0  0
   34.3000   32.1350   32.3630 N   0  0  0  0  0  0  0  0  0  0  0  0
   34.7740   31.8280   31.1400 C   0  0  0  0  0  0  0  0  0  0  0  0
   35.4730   30.7010   30.9540 N   0  0  0  0  0  0  0  0  0  0  0  0
   35.6810   29.9000   32.0170 C   0  0  0  0  0  0  0  0  0  0  0  0
   38.2370   24.1070   33.2080 H   0  0  0  0  0  0  0  0  0  0  0  0
   37.2000   26.0440   31.7800 H   0  0  0  0  0  0  0  0  0  0  0  0
   36.8200   28.2610   31.2340 H   0  0  0  0  0  0  0  0  0  0  0  0
   34.5870   32.5000   30.3040 H   0  0  0  0  0  0  0  0  0  0  0  0
   38.1960   24.0310   38.3140 C   0  0  0  0  0  0  0  0  0  0  0  0
   39.2120   23.0560   38.1070 C   0  0  0  0  0  0  0  0  0  0  0  0
   39.7240   22.9000   36.8310 C   0  0  0  0  0  0  0  0  0  0  0  0
   39.2510   23.6670   35.8300 N   0  0  0  0  0  0  0  0  0  0  0  0
   38.2730   24.6010   36.0440 C   0  0  0  0  0  0  0  0  0  0  0  0
   37.7770   24.7560   37.2660 N   0  0  0  0  0  0  0  0  0  0  0  0
   37.7880   24.1630   39.3050 H   0  0  0  0  0  0  0  0  0  0  0  0
   39.5870   22.4460   38.9090 H   0  0  0  0  0  0  0  0  0  0  0  0
   40.7910   21.9090   36.5010 C   0  0  0  0  0  3  0  0  0  0  0  0
   41.6370   21.4770   37.6260 C   0  0  0  0  0  2  0  0  0  0  0  0
   42.2370   22.3500   36.5890 C   0  0  0  0  0  2  0  0  0  0  0  0
   34.0170   31.6340   34.7350 N   0  0  0  0  0  0  0  0  0  0  0  0
   32.9750   31.5750   34.5890 H   0  0  0  0  0  0  0  0  0  0  0  0
   34.5340   31.8600   35.6230 H   0  0  0  0  0  0  0  0  0  0  0  0
  1  5  2  0  0  0  0
  1 23  1  0  0  0  0
  2  1  1  0  0  0  0
  3  2  2  0  0  0  0
  3  4  1  0  0  0  0
  4  5  1  0  0  0  0
  6  7  1  0  0  0  0
  7  4  1  0  0  0  0
  7  8  2  0  0  0  0
  9 10  1  0  0  0  0
  9  8  1  0  0  0  0
 10 30  1  0  0  0  0
 11 10  2  0  0  0  0
 12 11  1  0  0  0  0
 13 12  2  0  0  0  0
 13 14  1  0  0  0  0
 14  6  1  0  0  0  0
 14  9  2  0  0  0  0
 15  2  1  0  0  0  0
 16  3  1  0  0  0  0
 17  6  1  0  0  0  0
 18 12  1  0  0  0  0
 19 25  1  0  0  0  0
 20 19  1  0  0  0  0
 20 26  1  0  0  0  0
 21 20  2  0  0  0  0
 22 23  2  0  0  0  0
 22 21  1  0  0  0  0
 23 24  1  0  0  0  0
 24 19  2  0  0  0  0
 27 29  1  0  0  0  0
 27 21  1  0  0  0  0
 27 28  1  0  0  0  0
 29 28  1  0  0  0  0
 30 32  1  0  0  0  0
 31 30  1  0  0  0  0
M  END
>  <minimizedAffinity>
-5.89868546

$$$$

 OpenBabel03262523003D

 32 36  0  0  0  0  0  0  0  0999 V2000
   35.9850   28.7370   33.4330 C   0  0  0  0  0  0  0  0  0  0  0  0
   36.8520   28.4420   32.3800 C   0  0  0  0  0  0  0  0  0  0  0  0
   37.6120   27.3650   32.7430 C   0  0  0  0  0  0  0  0  0  0  0  0
   37.2010   27.0090   34.0140 N   0  0  0  0  0  0  0  0  0  0  0  0
   36.2430   27.8450   34.3750 N   0  0  0  0  0  0  0  0  0  0  0  0
   38.5090   24.9250   34.1300 N   0  0  0  0  0  0  0  0  0  0  0  0
   37.7750   25.9180   34.7190 C   0  0  0  0  0  0  0  0  0  0  0  0
   37.7440   25.6150   36.0260 N   0  0  0  0  0  0  0  0  0  0  0  0
   38.4210   24.4830   36.2820 C   0  0  0  0  0  0  0  0  0  0  0  0
   38.7210   23.7200   37.3690 C   0  0  0  0  0  0  0  0  0  0  0  0
   39.4590   22.6000   37.2250 N   0  0  0  0  0  0  0  0  0  0  0  0
   39.9170   22.2080   36.0200 C   0  0  0  0  0  0  0  0  0  0  0  0
   39.6410   22.9330   34.9290 N   0  0  0  0  0  0  0  0  0  0  0  0
   38.9030   24.0510   35.0790 C   0  0  0  0  0  0  0  0  0  0  0  0
   36.9080   28.9810   31.4430 H   0  0  0  0  0  0  0  0  0  0  0  0
   38.3710   26.9160   32.1220 H   0  0  0  0  0  0  0  0  0  0  0  0
   38.7370   24.8480   33.0950 H   0  0  0  0  0  0  0  0  0  0  0  0
   40.5100   21.2990   35.9380 H   0  0  0  0  0  0  0  0  0  0  0  0
   33.2940   30.9970   32.3820 C   0  0  0  0  0  0  0  0  0  0  0  0
   33.1870   31.8590   33.5090 C   0  0  0  0  0  0  0  0  0  0  0  0
   34.0300   31.6440   34.5850 C   0  0  0  0  0  0  0  0  0  0  0  0
   34.9200   30.6330   34.5360 N   0  0  0  0  0  0  0  0  0  0  0  0
   35.0120   29.8120   33.4440 C   0  0  0  0  0  0  0  0  0  0  0  0
   34.2050   30.0140   32.4080 N   0  0  0  0  0  0  0  0  0  0  0  0
   32.6410   31.1550   31.5360 H   0  0  0  0  0  0  0  0  0  0  0  0
   32.4750   32.6640   33.5450 H   0  0  0  0  0  0  0  0  0  0  0  0
   34.0040   32.4850   35.8170 C   0  0  0  0  0  3  0  0  0  0  0  0
   34.8930   32.0530   36.9090 C   0  0  0  0  0  2  0  0  0  0  0  0
   33.4290   31.8900   37.0860 C   0  0  0  0  0  2  0  0  0  0  0  0
   38.2230   24.1580   38.6400 N   0  0  0  0  0  0  0  0  0  0  0  0
   39.1160   24.3890   39.1500 H   0  0  0  0  0  0  0  0  0  0  0  0
   37.2360   24.2370   38.9950 H   0  0  0  0  0  0  0  0  0  0  0  0
  1 23  1  0  0  0  0
  1  5  2  0  0  0  0
  2  3  2  0  0  0  0
  2  1  1  0  0  0  0
  3  4  1  0  0  0  0
  4  5  1  0  0  0  0
  4  7  1  0  0  0  0
  6  7  1  0  0  0  0
  6 14  1  0  0  0  0
  7  8  2  0  0  0  0
  8  9  1  0  0  0  0
  9 10  1  0  0  0  0
 10 30  1  0  0  0  0
 11 10  2  0  0  0  0
 12 11  1  0  0  0  0
 13 14  1  0  0  0  0
 13 12  2  0  0  0  0
 14  9  2  0  0  0  0
 15  2  1  0  0  0  0
 16  3  1  0  0  0  0
 17  6  1  0  0  0  0
 18 12  1  0  0  0  0
 19 24  2  0  0  0  0
 19 20  1  0  0  0  0
 20 26  1  0  0  0  0
 20 21  2  0  0  0  0
 21 27  1  0  0  0  0
 22 21  1  0  0  0  0
 23 22  2  0  0  0  0
 24 23  1  0  0  0  0
 25 19  1  0  0  0  0
 27 28  1  0  0  0  0
 27 29  1  0  0  0  0
 28 29  1  0  0  0  0
 30 32  1  0  0  0  0
 30 31  1  0  0  0  0
M  END
>  <minimizedAffinity>
-5.84939337

$$$$

 OpenBabel03262523003D

 32 36  0  0  0  0  0  0  0  0999 V2000
   38.0320   25.7420   33.4110 C   0  0  0  0  0  0  0  0  0  0  0  0
   38.9460   26.3610   32.5560 C   0  0  0  0  0  0  0  0  0  0  0  0
   38.3640   27.4950   32.0590 C   0  0  0  0  0  0  0  0  0  0  0  0
   37.1000   27.5590   32.6150 N   0  0  0  0  0  0  0  0  0  0  0  0
   36.9530   26.5070   33.4020 N   0  0  0  0  0  0  0  0  0  0  0  0
   36.5660   29.8120   31.7730 N   0  0  0  0  0  0  0  0  0  0  0  0
   36.1960   28.6150   32.3240 C   0  0  0  0  0  0  0  0  0  0  0  0
   34.8680   28.6960   32.5010 N   0  0  0  0  0  0  0  0  0  0  0  0
   34.3920   29.8830   32.0890 C   0  0  0  0  0  0  0  0  0  0  0  0
   33.1840   30.5080   32.0230 C   0  0  0  0  0  0  0  0  0  0  0  0
   33.0970   31.7580   31.5220 N   0  0  0  0  0  0  0  0  0  0  0  0
   34.1850   32.4160   31.0790 C   0  0  0  0  0  0  0  0  0  0  0  0
   35.3890   31.8330   31.1290 N   0  0  0  0  0  0  0  0  0  0  0  0
   35.4700   30.5850   31.6290 C   0  0  0  0  0  0  0  0  0  0  0  0
   39.9400   25.9980   32.3310 H   0  0  0  0  0  0  0  0  0  0  0  0
   38.8400   28.1740   31.3700 H   0  0  0  0  0  0  0  0  0  0  0  0
   37.5540   30.0930   31.5000 H   0  0  0  0  0  0  0  0  0  0  0  0
   34.0820   33.4240   30.6810 H   0  0  0  0  0  0  0  0  0  0  0  0
   39.0360   22.3000   34.1840 C   0  0  0  0  0  0  0  0  0  0  0  0
   38.6910   22.2040   35.5610 C   0  0  0  0  0  0  0  0  0  0  0  0
   38.1300   23.3080   36.1780 C   0  0  0  0  0  0  0  0  0  0  0  0
   37.9290   24.4330   35.4650 N   0  0  0  0  0  0  0  0  0  0  0  0
   38.2660   24.5110   34.1400 C   0  0  0  0  0  0  0  0  0  0  0  0
   38.8050   23.4550   33.5420 N   0  0  0  0  0  0  0  0  0  0  0  0
   39.4750   21.4450   33.6910 H   0  0  0  0  0  0  0  0  0  0  0  0
   38.8520   21.3040   36.1270 H   0  0  0  0  0  0  0  0  0  0  0  0
   37.7300   23.3180   37.6160 C   0  0  0  0  0  3  0  0  0  0  0  0
   37.9260   24.5910   38.3290 C   0  0  0  0  0  2  0  0  0  0  0  0
   38.8130   23.4520   38.6660 C   0  0  0  0  0  2  0  0  0  0  0  0
   32.0400   29.7870   32.5010 N   0  0  0  0  0  0  0  0  0  0  0  0
   31.4860   29.6550   31.6140 H   0  0  0  0  0  0  0  0  0  0  0  0
   31.7950   29.4630   33.4710 H   0  0  0  0  0  0  0  0  0  0  0  0
  1 23  1  0  0  0  0
  2  1  1  0  0  0  0
  3  2  2  0  0  0  0
  3  4  1  0  0  0  0
  4  5  1  0  0  0  0
  5  1  2  0  0  0  0
  6  7  1  0  0  0  0
  7  8  2  0  0  0  0
  7  4  1  0  0  0  0
  9  8  1  0  0  0  0
 10  9  1  0  0  0  0
 10 30  1  0  0  0  0
 11 10  2  0  0  0  0
 12 13  2  0  0  0  0
 12 11  1  0  0  0  0
 13 14  1  0  0  0  0
 14  6  1  0  0  0  0
 14  9  2  0  0  0  0
 15  2  1  0  0  0  0
 16  3  1  0  0  0  0
 17  6  1  0  0  0  0
 18 12  1  0  0  0  0
 19 20  1  0  0  0  0
 20 26  1  0  0  0  0
 20 21  2  0  0  0  0
 21 27  1  0  0  0  0
 22 21  1  0  0  0  0
 23 22  2  0  0  0  0
 24 23  1  0  0  0  0
 24 19  2  0  0  0  0
 25 19  1  0  0  0  0
 27 28  1  0  0  0  0
 27 29  1  0  0  0  0
 28 29  1  0  0  0  0
 30 32  1  0  0  0  0
 31 30  1  0  0  0  0
M  END
>  <minimizedAffinity>
-5.76613045

$$$$

 OpenBabel03262523003D

 32 36  0  0  0  0  0  0  0  0999 V2000
   36.5910   28.2350   32.6210 C   0  0  0  0  0  0  0  0  0  0  0  0
   37.6940   27.9100   31.8300 C   0  0  0  0  0  0  0  0  0  0  0  0
   38.4080   26.9380   32.4730 C   0  0  0  0  0  0  0  0  0  0  0  0
   37.7360   26.6760   33.6520 N   0  0  0  0  0  0  0  0  0  0  0  0
   36.6740   27.4630   33.6930 N   0  0  0  0  0  0  0  0  0  0  0  0
   39.0960   24.7250   34.2940 N   0  0  0  0  0  0  0  0  0  0  0  0
   38.1910   25.7090   34.5870 C   0  0  0  0  0  0  0  0  0  0  0  0
   37.8750   25.5330   35.8800 N   0  0  0  0  0  0  0  0  0  0  0  0
   38.5380   24.4890   36.4070 C   0  0  0  0  0  0  0  0  0  0  0  0
   38.6200   23.8630   37.6130 C   0  0  0  0  0  0  0  0  0  0  0  0
   39.4340   22.7980   37.7660 N   0  0  0  0  0  0  0  0  0  0  0  0
   40.1780   22.3280   36.7460 C   0  0  0  0  0  0  0  0  0  0  0  0
   40.1220   22.9190   35.5470 N   0  0  0  0  0  0  0  0  0  0  0  0
   39.3080   23.9820   35.3990 C   0  0  0  0  0  0  0  0  0  0  0  0
   37.9340   28.3570   30.8740 H   0  0  0  0  0  0  0  0  0  0  0  0
   39.3140   26.4930   32.0930 H   0  0  0  0  0  0  0  0  0  0  0  0
   39.5600   24.5660   33.3510 H   0  0  0  0  0  0  0  0  0  0  0  0
   40.8240   21.4660   36.9020 H   0  0  0  0  0  0  0  0  0  0  0  0
   34.8950   31.0640   31.0180 C   0  0  0  0  0  0  0  0  0  0  0  0
   33.6480   31.0760   31.7030 C   0  0  0  0  0  0  0  0  0  0  0  0
   33.4260   30.1260   32.6850 C   0  0  0  0  0  0  0  0  0  0  0  0
   34.3880   29.2240   32.9600 N   0  0  0  0  0  0  0  0  0  0  0  0
   35.5830   29.2240   32.2920 C   0  0  0  0  0  0  0  0  0  0  0  0
   35.8020   30.1340   31.3500 N   0  0  0  0  0  0  0  0  0  0  0  0
   35.0790   31.8010   30.2500 H   0  0  0  0  0  0  0  0  0  0  0  0
   32.8820   31.7980   31.4810 H   0  0  0  0  0  0  0  0  0  0  0  0
   32.1570   30.0460   33.4660 C   0  0  0  0  0  3  0  0  0  0  0  0
   32.1710   29.1390   34.6240 C   0  0  0  0  0  2  0  0  0  0  0  0
   31.3720   28.7520   33.4370 C   0  0  0  0  0  2  0  0  0  0  0  0
   37.8180   24.3820   38.6820 N   0  0  0  0  0  0  0  0  0  0  0  0
   38.5550   24.7330   39.3500 H   0  0  0  0  0  0  0  0  0  0  0  0
   36.7730   24.4160   38.7960 H   0  0  0  0  0  0  0  0  0  0  0  0
  1  5  2  0  0  0  0
  2  3  2  0  0  0  0
  2  1  1  0  0  0  0
  3  4  1  0  0  0  0
  4  5  1  0  0  0  0
  4  7  1  0  0  0  0
  6  7  1  0  0  0  0
  6 14  1  0  0  0  0
  7  8  2  0  0  0  0
  8  9  1  0  0  0  0
  9 10  1  0  0  0  0
 10 11  2  0  0  0  0
 10 30  1  0  0  0  0
 12 18  1  0  0  0  0
 12 11  1  0  0  0  0
 13 12  2  0  0  0  0
 14 13  1  0  0  0  0
 14  9  2  0  0  0  0
 15  2  1  0  0  0  0
 16  3  1  0  0  0  0
 17  6  1  0  0  0  0
 19 24  2  0  0  0  0
 19 20  1  0  0  0  0
 20 21  2  0  0  0  0
 21 22  1  0  0  0  0
 21 27  1  0  0  0  0
 23  1  1  0  0  0  0
 23 22  2  0  0  0  0
 24 23  1  0  0  0  0
 25 19  1  0  0  0  0
 26 20  1  0  0  0  0
 27 28  1  0  0  0  0
 29 27  1  0  0  0  0
 29 28  1  0  0  0  0
 30 32  1  0  0  0  0
 30 31  1  0  0  0  0
M  END
>  <minimizedAffinity>
-5.71323013

$$$$

 OpenBabel03262523003D

 32 36  0  0  0  0  0  0  0  0999 V2000
   38.2030   25.8270   35.0260 C   0  0  0  0  0  0  0  0  0  0  0  0
   37.2030   26.7840   35.1980 C   0  0  0  0  0  0  0  0  0  0  0  0
   37.1340   27.5380   34.0590 C   0  0  0  0  0  0  0  0  0  0  0  0
   38.0920   27.0350   33.2000 N   0  0  0  0  0  0  0  0  0  0  0  0
   38.6940   26.0290   33.8140 N   0  0  0  0  0  0  0  0  0  0  0  0
   37.4200   28.3800   31.2490 N   0  0  0  0  0  0  0  0  0  0  0  0
   38.3110   27.5760   31.9060 C   0  0  0  0  0  0  0  0  0  0  0  0
   39.3570   27.4460   31.0740 N   0  0  0  0  0  0  0  0  0  0  0  0
   39.1620   28.1280   29.9330 C   0  0  0  0  0  0  0  0  0  0  0  0
   39.8420   28.3570   28.7760 C   0  0  0  0  0  0  0  0  0  0  0  0
   39.2970   29.1320   27.8150 N   0  0  0  0  0  0  0  0  0  0  0  0
   38.0830   29.6950   27.9690 C   0  0  0  0  0  0  0  0  0  0  0  0
   37.3860   29.4920   29.0940 N   0  0  0  0  0  0  0  0  0  0  0  0
   37.9350   28.7170   30.0490 C   0  0  0  0  0  0  0  0  0  0  0  0
   36.5930   26.9020   36.0840 H   0  0  0  0  0  0  0  0  0  0  0  0
   36.4470   28.3560   33.9080 H   0  0  0  0  0  0  0  0  0  0  0  0
   36.4730   28.6920   31.6190 H   0  0  0  0  0  0  0  0  0  0  0  0
   37.6710   30.3150   27.1750 H   0  0  0  0  0  0  0  0  0  0  0  0
   38.2980   23.8400   38.1070 C   0  0  0  0  0  0  0  0  0  0  0  0
   39.3540   22.9280   37.8280 C   0  0  0  0  0  0  0  0  0  0  0  0
   39.9970   23.0200   36.6060 C   0  0  0  0  0  0  0  0  0  0  0  0
   39.6080   23.9590   35.7230 N   0  0  0  0  0  0  0  0  0  0  0  0
   38.5890   24.8300   36.0060 C   0  0  0  0  0  0  0  0  0  0  0  0
   37.9680   24.7470   37.1770 N   0  0  0  0  0  0  0  0  0  0  0  0
   37.7880   23.7780   39.0580 H   0  0  0  0  0  0  0  0  0  0  0  0
   39.6620   22.1790   38.5350 H   0  0  0  0  0  0  0  0  0  0  0  0
   41.1170   22.1160   36.2090 C   0  0  0  0  0  3  0  0  0  0  0  0
   41.7780   21.3910   37.3070 C   0  0  0  0  0  2  0  0  0  0  0  0
   42.5240   22.4810   36.6330 C   0  0  0  0  0  2  0  0  0  0  0  0
   41.1310   27.7460   28.6360 N   0  0  0  0  0  0  0  0  0  0  0  0
   41.7640   28.5890   28.6160 H   0  0  0  0  0  0  0  0  0  0  0  0
   41.4020   26.7320   28.5680 H   0  0  0  0  0  0  0  0  0  0  0  0
  1  2  1  0  0  0  0
  1 23  1  0  0  0  0
  2 15  1  0  0  0  0
  3  2  2  0  0  0  0
  4  5  1  0  0  0  0
  4  3  1  0  0  0  0
  5  1  2  0  0  0  0
  6 17  1  0  0  0  0
  6  7  1  0  0  0  0
  7  4  1  0  0  0  0
  8  7  2  0  0  0  0
  9 14  1  0  0  0  0
  9  8  1  0  0  0  0
 10  9  2  0  0  0  0
 11 12  2  0  0  0  0
 11 10  1  0  0  0  0
 12 13  1  0  0  0  0
 13 14  2  0  0  0  0
 14  6  1  0  0  0  0
 16  3  1  0  0  0  0
 18 12  1  0  0  0  0
 19 25  1  0  0  0  0
 20 19  1  0  0  0  0
 20 26  1  0  0  0  0
 21 20  2  0  0  0  0
 22 23  2  0  0  0  0
 22 21  1  0  0  0  0
 23 24  1  0  0  0  0
 24 19  2  0  0  0  0
 27 21  1  0  0  0  0
 27 29  1  0  0  0  0
 27 28  1  0  0  0  0
 29 28  1  0  0  0  0
 30 10  1  0  0  0  0
 31 30  1  0  0  0  0
 32 30  1  0  0  0  0
M  END
>  <minimizedAffinity>
-5.70816517

$$$$

 OpenBabel03262523003D

 32 36  0  0  0  0  0  0  0  0999 V2000
   37.4750   26.0950   33.9070 C   0  0  0  0  0  0  0  0  0  0  0  0
   36.9740   27.2040   34.5900 C   0  0  0  0  0  0  0  0  0  0  0  0
   36.8890   28.2450   33.7080 C   0  0  0  0  0  0  0  0  0  0  0  0
   37.3390   27.7640   32.4930 N   0  0  0  0  0  0  0  0  0  0  0  0
   37.6710   26.4950   32.6620 N   0  0  0  0  0  0  0  0  0  0  0  0
   36.7170   29.7550   31.1830 N   0  0  0  0  0  0  0  0  0  0  0  0
   37.3930   28.5750   31.3290 C   0  0  0  0  0  0  0  0  0  0  0  0
   38.0640   28.4000   30.1780 N   0  0  0  0  0  0  0  0  0  0  0  0
   37.8390   29.4130   29.3240 C   0  0  0  0  0  0  0  0  0  0  0  0
   38.2280   29.7670   28.0680 C   0  0  0  0  0  0  0  0  0  0  0  0
   37.7720   30.9110   27.5180 N   0  0  0  0  0  0  0  0  0  0  0  0
   36.9320   31.7270   28.1840 C   0  0  0  0  0  0  0  0  0  0  0  0
   36.5280   31.4110   29.4200 N   0  0  0  0  0  0  0  0  0  0  0  0
   36.9860   30.2670   29.9650 C   0  0  0  0  0  0  0  0  0  0  0  0
   36.7030   27.2270   35.6380 H   0  0  0  0  0  0  0  0  0  0  0  0
   36.5330   29.2320   33.9590 H   0  0  0  0  0  0  0  0  0  0  0  0
   36.0810   30.2020   31.9080 H   0  0  0  0  0  0  0  0  0  0  0  0
   36.5820   32.6430   27.7110 H   0  0  0  0  0  0  0  0  0  0  0  0
   38.2370   22.5210   34.2250 C   0  0  0  0  0  0  0  0  0  0  0  0
   38.1570   22.3360   35.6340 C   0  0  0  0  0  0  0  0  0  0  0  0
   37.8470   23.4270   36.4250 C   0  0  0  0  0  0  0  0  0  0  0  0
   37.6330   24.6250   35.8460 N   0  0  0  0  0  0  0  0  0  0  0  0
   37.7140   24.7880   34.4890 C   0  0  0  0  0  0  0  0  0  0  0  0
   38.0100   23.7440   33.7240 N   0  0  0  0  0  0  0  0  0  0  0  0
   38.4780   21.6770   33.5970 H   0  0  0  0  0  0  0  0  0  0  0  0
   38.3280   21.3780   36.0930 H   0  0  0  0  0  0  0  0  0  0  0  0
   37.7370   23.3470   37.9120 C   0  0  0  0  0  3  0  0  0  0  0  0
   38.0630   24.5800   38.6480 C   0  0  0  0  0  2  0  0  0  0  0  0
   39.0050   23.4380   38.7350 C   0  0  0  0  0  2  0  0  0  0  0  0
   39.1220   28.8830   27.3800 N   0  0  0  0  0  0  0  0  0  0  0  0
   39.9900   29.4760   27.3010 H   0  0  0  0  0  0  0  0  0  0  0  0
   38.9780   27.9000   27.0340 H   0  0  0  0  0  0  0  0  0  0  0  0
  1 23  1  0  0  0  0
  1  2  1  0  0  0  0
  2 15  1  0  0  0  0
  3 16  1  0  0  0  0
  3  2  2  0  0  0  0
  4  5  1  0  0  0  0
  4  3  1  0  0  0  0
  5  1  2  0  0  0  0
  6  7  1  0  0  0  0
  6 17  1  0  0  0  0
  7  4  1  0  0  0  0
  8  7  2  0  0  0  0
  9 14  1  0  0  0  0
  9  8  1  0  0  0  0
 10  9  2  0  0  0  0
 11 10  1  0  0  0  0
 11 12  2  0  0  0  0
 12 13  1  0  0  0  0
 13 14  2  0  0  0  0
 14  6  1  0  0  0  0
 18 12  1  0  0  0  0
 19 20  1  0  0  0  0
 20 26  1  0  0  0  0
 20 21  2  0  0  0  0
 21 27  1  0  0  0  0
 22 21  1  0  0  0  0
 23 22  2  0  0  0  0
 24 19  2  0  0  0  0
 24 23  1  0  0  0  0
 25 19  1  0  0  0  0
 27 28  1  0  0  0  0
 27 29  1  0  0  0  0
 28 29  1  0  0  0  0
 30 10  1  0  0  0  0
 31 30  1  0  0  0  0
 32 30  1  0  0  0  0
M  END
>  <minimizedAffinity>
-5.68826342

$$$$

 OpenBabel03262523003D

 32 36  0  0  0  0  0  0  0  0999 V2000
   38.7700   26.8830   32.5490 C   0  0  0  0  0  0  0  0  0  0  0  0
   40.0030   26.7660   31.9050 C   0  0  0  0  0  0  0  0  0  0  0  0
   40.7380   25.8180   32.5610 C   0  0  0  0  0  0  0  0  0  0  0  0
   39.9490   25.3630   33.6000 N   0  0  0  0  0  0  0  0  0  0  0  0
   38.8010   26.0190   33.5500 N   0  0  0  0  0  0  0  0  0  0  0  0
   41.4410   23.5200   34.2660 N   0  0  0  0  0  0  0  0  0  0  0  0
   40.3890   24.3620   34.5050 C   0  0  0  0  0  0  0  0  0  0  0  0
   39.9240   24.0200   35.7170 N   0  0  0  0  0  0  0  0  0  0  0  0
   40.6330   23.0080   36.2450 C   0  0  0  0  0  0  0  0  0  0  0  0
   40.6270   22.2740   37.3920 C   0  0  0  0  0  0  0  0  0  0  0  0
   41.5380   21.2960   37.5710 N   0  0  0  0  0  0  0  0  0  0  0  0
   42.4680   21.0190   36.6370 C   0  0  0  0  0  0  0  0  0  0  0  0
   42.5040   21.7200   35.4970 N   0  0  0  0  0  0  0  0  0  0  0  0
   41.5910   22.6960   35.3230 C   0  0  0  0  0  0  0  0  0  0  0  0
   40.3140   27.3330   31.0370 H   0  0  0  0  0  0  0  0  0  0  0  0
   41.7360   25.5180   32.2820 H   0  0  0  0  0  0  0  0  0  0  0  0
   42.0460   23.5120   33.3930 H   0  0  0  0  0  0  0  0  0  0  0  0
   43.1900   20.2230   36.8120 H   0  0  0  0  0  0  0  0  0  0  0  0
   36.5940   29.0130   30.5040 C   0  0  0  0  0  0  0  0  0  0  0  0
   35.6640   29.4850   31.4720 C   0  0  0  0  0  0  0  0  0  0  0  0
   35.8080   29.0660   32.7820 C   0  0  0  0  0  0  0  0  0  0  0  0
   36.8140   28.2290   33.1030 N   0  0  0  0  0  0  0  0  0  0  0  0
   37.7010   27.7830   32.1600 C   0  0  0  0  0  0  0  0  0  0  0  0
   37.5690   28.1820   30.9000 N   0  0  0  0  0  0  0  0  0  0  0  0
   36.4920   29.3330   29.4770 H   0  0  0  0  0  0  0  0  0  0  0  0
   34.8620   30.1530   31.2120 H   0  0  0  0  0  0  0  0  0  0  0  0
   34.8910   29.4990   33.8780 C   0  0  0  0  0  3  0  0  0  0  0  0
   34.4040   30.8860   33.7980 C   0  0  0  0  0  2  0  0  0  0  0  0
   35.3810   30.5430   34.8600 C   0  0  0  0  0  2  0  0  0  0  0  0
   39.6270   22.5870   38.3710 N   0  0  0  0  0  0  0  0  0  0  0  0
   40.2160   22.9470   39.1680 H   0  0  0  0  0  0  0  0  0  0  0  0
   38.5810   22.4920   38.3310 H   0  0  0  0  0  0  0  0  0  0  0  0
  1  5  2  0  0  0  0
  2  1  1  0  0  0  0
  2  3  2  0  0  0  0
  3  4  1  0  0  0  0
  4  7  1  0  0  0  0
  5  4  1  0  0  0  0
  6  7  1  0  0  0  0
  6 14  1  0  0  0  0
  7  8  2  0  0  0  0
  8  9  1  0  0  0  0
  9 10  1  0  0  0  0
 10 11  2  0  0  0  0
 10 30  1  0  0  0  0
 12 18  1  0  0  0  0
 12 11  1  0  0  0  0
 13 12  2  0  0  0  0
 14 13  1  0  0  0  0
 14  9  2  0  0  0  0
 15  2  1  0  0  0  0
 16  3  1  0  0  0  0
 17  6  1  0  0  0  0
 19 24  2  0  0  0  0
 19 20  1  0  0  0  0
 20 21  2  0  0  0  0
 21 22  1  0  0  0  0
 21 27  1  0  0  0  0
 23  1  1  0  0  0  0
 23 22  2  0  0  0  0
 24 23  1  0  0  0  0
 25 19  1  0  0  0  0
 26 20  1  0  0  0  0
 27 29  1  0  0  0  0
 28 27  1  0  0  0  0
 28 29  1  0  0  0  0
 30 31  1  0  0  0  0
 32 30  1  0  0  0  0
M  END
>  <minimizedAffinity>
-5.66980362

$$$$
