
 OpenBabel03272509293D

 28 30  0  0  1  0  0  0  0  0999 V2000
   39.3740   23.8310   36.1720 C   0  0  2  0  0  0  0  0  0  0  0  0
   39.4790   23.0070   37.4330 C   0  0  0  0  0  0  0  0  0  0  0  0
   38.2570   23.1380   38.2990 C   0  0  0  0  0  0  0  0  0  0  0  0
   37.9560   24.5700   38.6640 C   0  0  0  0  0  0  0  0  0  0  0  0
   38.0690   25.4980   37.5040 C   0  0  0  0  0  0  0  0  0  0  0  0
   38.2580   24.8060   36.1710 C   0  0  1  0  0  0  0  0  0  0  0  0
   40.3350   24.3800   35.9890 H   0  0  0  0  0  0  0  0  0  0  0  0
   40.3550   23.3820   38.0030 H   0  0  0  0  0  0  0  0  0  0  0  0
   39.6430   21.9330   37.2700 H   0  0  0  0  0  0  0  0  0  0  0  0
   37.3990   22.7950   37.6580 H   0  0  0  0  0  0  0  0  0  0  0  0
   38.3900   22.5190   39.1840 H   0  0  0  0  0  0  0  0  0  0  0  0
   36.8800   24.5700   39.0080 H   0  0  0  0  0  0  0  0  0  0  0  0
   38.6460   24.8370   39.5110 H   0  0  0  0  0  0  0  0  0  0  0  0
   37.2110   26.1780   37.3870 H   0  0  0  0  0  0  0  0  0  0  0  0
   38.9600   26.1310   37.6770 H   0  0  0  0  0  0  0  0  0  0  0  0
   37.2930   24.3240   35.8960 H   0  0  0  0  0  0  0  0  0  0  0  0
   39.2190   22.9260   34.9900 C   0  0  0  0  0  0  0  0  0  0  0  0
   37.9200   22.4490   34.7270 C   0  0  0  0  0  0  0  0  0  0  0  0
   37.7810   21.5970   33.6390 C   0  0  0  0  0  0  0  0  0  0  0  0
   38.8840   21.2600   32.8810 N   0  0  0  0  0  0  0  0  0  0  0  0
   40.1250   21.7520   33.1810 C   0  0  0  0  0  0  0  0  0  0  0  0
   40.2650   22.5830   34.2410 N   0  0  0  0  0  0  0  0  0  0  0  0
   37.0390   22.6710   35.2740 H   0  0  0  0  0  0  0  0  0  0  0  0
   36.8080   21.1960   33.3830 H   0  0  0  0  0  0  0  0  0  0  0  0
   40.9720   21.4730   32.5740 H   0  0  0  0  0  0  0  0  0  0  0  0
   38.4710   25.9290   35.1840 C   0  0  0  0  0  3  0  0  0  0  0  0
   38.4310   27.3620   35.6550 C   0  0  0  0  0  2  0  0  0  0  0  0
   39.7020   26.7110   35.0990 C   0  0  0  0  0  2  0  0  0  0  0  0
  1  7  1  6  0  0  0
  1  2  1  0  0  0  0
  2  8  1  0  0  0  0
  2  3  1  0  0  0  0
  3  4  1  0  0  0  0
  3 11  1  0  0  0  0
  4 12  1  0  0  0  0
  4 13  1  0  0  0  0
  5 15  1  0  0  0  0
  5  4  1  0  0  0  0
  6 16  1  6  0  0  0
  6  1  1  0  0  0  0
  6  5  1  0  0  0  0
  9  2  1  0  0  0  0
 10  3  1  0  0  0  0
 14  5  1  0  0  0  0
 17  1  1  0  0  0  0
 18 17  1  0  0  0  0
 18 23  1  0  0  0  0
 19 18  2  0  0  0  0
 20 21  2  0  0  0  0
 20 19  1  0  0  0  0
 21 22  1  0  0  0  0
 22 17  2  0  0  0  0
 24 19  1  0  0  0  0
 25 21  1  0  0  0  0
 26 27  1  0  0  0  0
 26  6  1  0  0  0  0
 28 26  1  0  0  0  0
 28 27  1  0  0  0  0
M  END
>  <minimizedAffinity>
-4.38678312

$$$$

 OpenBabel03272509293D

 28 30  0  0  1  0  0  0  0  0999 V2000
   39.0930   25.5770   34.7230 C   0  0  2  0  0  0  0  0  0  0  0  0
   39.2190   26.9400   35.3620 C   0  0  0  0  0  0  0  0  0  0  0  0
   37.8860   27.6050   35.5480 C   0  0  0  0  0  0  0  0  0  0  0  0
   37.1160   27.7320   34.2570 C   0  0  0  0  0  0  0  0  0  0  0  0
   37.1450   26.4850   33.4420 C   0  0  0  0  0  0  0  0  0  0  0  0
   37.7550   25.2940   34.1510 C   0  0  1  0  0  0  0  0  0  0  0  0
   39.8640   25.4560   33.9180 H   0  0  0  0  0  0  0  0  0  0  0  0
   39.8350   27.5690   34.6850 H   0  0  0  0  0  0  0  0  0  0  0  0
   39.7200   26.9450   36.3400 H   0  0  0  0  0  0  0  0  0  0  0  0
   37.2890   26.9050   36.1960 H   0  0  0  0  0  0  0  0  0  0  0  0
   38.0430   28.5750   36.0160 H   0  0  0  0  0  0  0  0  0  0  0  0
   36.0460   27.9230   34.5650 H   0  0  0  0  0  0  0  0  0  0  0  0
   37.5410   28.6230   33.7160 H   0  0  0  0  0  0  0  0  0  0  0  0
   36.1570   26.1640   33.0790 H   0  0  0  0  0  0  0  0  0  0  0  0
   37.7650   26.6920   32.5490 H   0  0  0  0  0  0  0  0  0  0  0  0
   37.0380   24.9570   34.9320 H   0  0  0  0  0  0  0  0  0  0  0  0
   39.4160   24.5160   35.7270 C   0  0  0  0  0  0  0  0  0  0  0  0
   38.4670   24.3000   36.7460 C   0  0  0  0  0  0  0  0  0  0  0  0
   38.7760   23.3270   37.6860 C   0  0  0  0  0  0  0  0  0  0  0  0
   39.9640   22.6290   37.5920 N   0  0  0  0  0  0  0  0  0  0  0  0
   40.8530   22.8790   36.5820 C   0  0  0  0  0  0  0  0  0  0  0  0
   40.5540   23.8290   35.6630 N   0  0  0  0  0  0  0  0  0  0  0  0
   37.5420   24.8050   36.8690 H   0  0  0  0  0  0  0  0  0  0  0  0
   38.0880   23.1110   38.4930 H   0  0  0  0  0  0  0  0  0  0  0  0
   41.7750   22.3220   36.5300 H   0  0  0  0  0  0  0  0  0  0  0  0
   37.7910   24.2050   33.1050 C   0  0  0  0  0  3  0  0  0  0  0  0
   36.7350   24.1610   32.0290 C   0  0  0  0  0  2  0  0  0  0  0  0
   38.2150   24.4200   31.7240 C   0  0  0  0  0  2  0  0  0  0  0  0
  1  7  1  6  0  0  0
  1  2  1  0  0  0  0
  1 17  1  0  0  0  0
  2  3  1  0  0  0  0
  2  9  1  0  0  0  0
  3 11  1  0  0  0  0
  3 10  1  0  0  0  0
  4 12  1  0  0  0  0
  4  3  1  0  0  0  0
  5  6  1  0  0  0  0
  5  4  1  0  0  0  0
  6  1  1  0  0  0  0
  6 16  1  1  0  0  0
  8  2  1  0  0  0  0
 13  4  1  0  0  0  0
 14  5  1  0  0  0  0
 15  5  1  0  0  0  0
 17 18  1  0  0  0  0
 18 23  1  0  0  0  0
 18 19  2  0  0  0  0
 19 24  1  0  0  0  0
 20 19  1  0  0  0  0
 21 20  2  0  0  0  0
 22 17  2  0  0  0  0
 22 21  1  0  0  0  0
 25 21  1  0  0  0  0
 26  6  1  0  0  0  0
 27 26  1  0  0  0  0
 28 27  1  0  0  0  0
 28 26  1  0  0  0  0
M  END
>  <minimizedAffinity>
-4.36319542

$$$$

 OpenBabel03272509293D

 28 30  0  0  1  0  0  0  0  0999 V2000
   37.9570   24.6930   34.6920 C   0  0  2  0  0  0  0  0  0  0  0  0
   38.0870   25.8450   33.7240 C   0  0  0  0  0  0  0  0  0  0  0  0
   39.0330   26.9000   34.2220 C   0  0  0  0  0  0  0  0  0  0  0  0
   38.6450   27.4340   35.5790 C   0  0  0  0  0  0  0  0  0  0  0  0
   38.2650   26.3570   36.5350 C   0  0  0  0  0  0  0  0  0  0  0  0
   38.5350   24.9550   36.0320 C   0  0  1  0  0  0  0  0  0  0  0  0
   36.8790   24.4100   34.8130 H   0  0  0  0  0  0  0  0  0  0  0  0
   37.0800   26.3000   33.6120 H   0  0  0  0  0  0  0  0  0  0  0  0
   38.4210   25.5630   32.7160 H   0  0  0  0  0  0  0  0  0  0  0  0
   40.0180   26.3760   34.3660 H   0  0  0  0  0  0  0  0  0  0  0  0
   39.0880   27.6950   33.4810 H   0  0  0  0  0  0  0  0  0  0  0  0
   39.5730   27.9420   35.9760 H   0  0  0  0  0  0  0  0  0  0  0  0
   37.8220   28.1810   35.4060 H   0  0  0  0  0  0  0  0  0  0  0  0
   38.7520   26.4380   37.5190 H   0  0  0  0  0  0  0  0  0  0  0  0
   37.1750   26.4420   36.7080 H   0  0  0  0  0  0  0  0  0  0  0  0
   39.6370   24.7940   36.0420 H   0  0  0  0  0  0  0  0  0  0  0  0
   38.6120   23.4760   34.1200 C   0  0  0  0  0  0  0  0  0  0  0  0
   37.7610   22.5120   33.5440 C   0  0  0  0  0  0  0  0  0  0  0  0
   38.3690   21.3760   33.0280 C   0  0  0  0  0  0  0  0  0  0  0  0
   39.7410   21.2360   33.0960 N   0  0  0  0  0  0  0  0  0  0  0  0
   40.5230   22.2030   33.6680 C   0  0  0  0  0  0  0  0  0  0  0  0
   39.9320   23.3130   34.1730 N   0  0  0  0  0  0  0  0  0  0  0  0
   36.7040   22.5650   33.4650 H   0  0  0  0  0  0  0  0  0  0  0  0
   37.7710   20.5980   32.5700 H   0  0  0  0  0  0  0  0  0  0  0  0
   41.5930   22.0700   33.7110 H   0  0  0  0  0  0  0  0  0  0  0  0
   37.9630   24.0490   37.0970 C   0  0  0  0  0  3  0  0  0  0  0  0
   38.8880   23.2700   37.9990 C   0  0  0  0  0  2  0  0  0  0  0  0
   37.9610   24.3730   38.5210 C   0  0  0  0  0  2  0  0  0  0  0  0
  1  7  1  1  0  0  0
  1  6  1  0  0  0  0
  2  3  1  0  0  0  0
  2  1  1  0  0  0  0
  3 10  1  0  0  0  0
  3  4  1  0  0  0  0
  4 12  1  0  0  0  0
  4  5  1  0  0  0  0
  5 15  1  0  0  0  0
  5 14  1  0  0  0  0
  6 16  1  6  0  0  0
  6  5  1  0  0  0  0
  6 26  1  0  0  0  0
  8  2  1  0  0  0  0
  9  2  1  0  0  0  0
 11  3  1  0  0  0  0
 13  4  1  0  0  0  0
 17 22  1  0  0  0  0
 17  1  1  0  0  0  0
 18 17  2  0  0  0  0
 19 20  2  0  0  0  0
 19 18  1  0  0  0  0
 20 21  1  0  0  0  0
 21 25  1  0  0  0  0
 21 22  2  0  0  0  0
 23 18  1  0  0  0  0
 24 19  1  0  0  0  0
 26 27  1  0  0  0  0
 26 28  1  0  0  0  0
 27 28  1  0  0  0  0
M  END
>  <minimizedAffinity>
-4.25722027

$$$$

 OpenBabel03272509293D

 28 30  0  0  1  0  0  0  0  0999 V2000
   39.2760   25.0910   35.6860 C   0  0  2  0  0  0  0  0  0  0  0  0
   40.5870   24.9130   34.9590 C   0  0  0  0  0  0  0  0  0  0  0  0
   40.8220   23.4850   34.5540 C   0  0  0  0  0  0  0  0  0  0  0  0
   40.7700   22.5350   35.7240 C   0  0  0  0  0  0  0  0  0  0  0  0
   39.6220   22.8020   36.6350 C   0  0  0  0  0  0  0  0  0  0  0  0
   38.6360   23.8230   36.1080 C   0  0  1  0  0  0  0  0  0  0  0  0
   39.4210   25.7410   36.5880 H   0  0  0  0  0  0  0  0  0  0  0  0
   41.3980   25.2190   35.6530 H   0  0  0  0  0  0  0  0  0  0  0  0
   40.6980   25.5260   34.0540 H   0  0  0  0  0  0  0  0  0  0  0  0
   39.9500   23.2140   33.8960 H   0  0  0  0  0  0  0  0  0  0  0  0
   41.7740   23.4240   34.0310 H   0  0  0  0  0  0  0  0  0  0  0  0
   40.6240   21.5100   35.2700 H   0  0  0  0  0  0  0  0  0  0  0  0
   41.7680   22.6050   36.2390 H   0  0  0  0  0  0  0  0  0  0  0  0
   39.0400   21.9060   36.8980 H   0  0  0  0  0  0  0  0  0  0  0  0
   40.0410   23.2030   37.5790 H   0  0  0  0  0  0  0  0  0  0  0  0
   38.0690   23.3510   35.2740 H   0  0  0  0  0  0  0  0  0  0  0  0
   38.3160   25.8450   34.8200 C   0  0  0  0  0  0  0  0  0  0  0  0
   37.8970   27.1050   35.2900 C   0  0  0  0  0  0  0  0  0  0  0  0
   36.9940   27.7950   34.4930 C   0  0  0  0  0  0  0  0  0  0  0  0
   36.5530   27.2390   33.3080 N   0  0  0  0  0  0  0  0  0  0  0  0
   36.9920   26.0090   32.8980 C   0  0  0  0  0  0  0  0  0  0  0  0
   37.8730   25.3330   33.6740 N   0  0  0  0  0  0  0  0  0  0  0  0
   38.1990   27.5800   36.1890 H   0  0  0  0  0  0  0  0  0  0  0  0
   36.6340   28.7700   34.7970 H   0  0  0  0  0  0  0  0  0  0  0  0
   36.6320   25.5950   31.9690 H   0  0  0  0  0  0  0  0  0  0  0  0
   37.6500   24.0190   37.2360 C   0  0  0  0  0  3  0  0  0  0  0  0
   37.7250   23.1420   38.4610 C   0  0  0  0  0  2  0  0  0  0  0  0
   37.9890   24.6520   38.5080 C   0  0  0  0  0  2  0  0  0  0  0  0
  1  6  1  0  0  0  0
  1  7  1  1  0  0  0
  2  8  1  0  0  0  0
  2  1  1  0  0  0  0
  3  2  1  0  0  0  0
  3  4  1  0  0  0  0
  4 13  1  0  0  0  0
  4  5  1  0  0  0  0
  5 14  1  0  0  0  0
  5 15  1  0  0  0  0
  6 16  1  6  0  0  0
  6  5  1  0  0  0  0
  6 26  1  0  0  0  0
  9  2  1  0  0  0  0
 10  3  1  0  0  0  0
 11  3  1  0  0  0  0
 12  4  1  0  0  0  0
 17 18  1  0  0  0  0
 17  1  1  0  0  0  0
 18 23  1  0  0  0  0
 19 24  1  0  0  0  0
 19 18  2  0  0  0  0
 20 19  1  0  0  0  0
 21 20  2  0  0  0  0
 21 22  1  0  0  0  0
 22 17  2  0  0  0  0
 25 21  1  0  0  0  0
 26 27  1  0  0  0  0
 26 28  1  0  0  0  0
 27 28  1  0  0  0  0
M  END
>  <minimizedAffinity>
-4.24302149

$$$$

 OpenBabel03272509293D

 28 30  0  0  1  0  0  0  0  0999 V2000
   38.3350   26.9970   32.2770 C   0  0  2  0  0  0  0  0  0  0  0  0
   39.2700   27.4230   31.1700 C   0  0  0  0  0  0  0  0  0  0  0  0
   40.6630   26.9000   31.3710 C   0  0  0  0  0  0  0  0  0  0  0  0
   41.2500   27.3050   32.7000 C   0  0  0  0  0  0  0  0  0  0  0  0
   40.2920   27.1380   33.8290 C   0  0  0  0  0  0  0  0  0  0  0  0
   39.0150   26.4140   33.4580 C   0  0  1  0  0  0  0  0  0  0  0  0
   37.7110   27.8660   32.6110 H   0  0  0  0  0  0  0  0  0  0  0  0
   39.3070   28.5330   31.1760 H   0  0  0  0  0  0  0  0  0  0  0  0
   38.9560   27.1230   30.1610 H   0  0  0  0  0  0  0  0  0  0  0  0
   40.5600   25.7800   31.4080 H   0  0  0  0  0  0  0  0  0  0  0  0
   41.2840   27.2340   30.5410 H   0  0  0  0  0  0  0  0  0  0  0  0
   42.1180   26.6020   32.8710 H   0  0  0  0  0  0  0  0  0  0  0  0
   41.6120   28.3640   32.5810 H   0  0  0  0  0  0  0  0  0  0  0  0
   40.7120   26.6110   34.6990 H   0  0  0  0  0  0  0  0  0  0  0  0
   40.0110   28.1520   34.1710 H   0  0  0  0  0  0  0  0  0  0  0  0
   39.2640   25.3410   33.3010 H   0  0  0  0  0  0  0  0  0  0  0  0
   37.3530   25.9970   31.7520 C   0  0  0  0  0  0  0  0  0  0  0  0
   36.0440   26.4610   31.5200 C   0  0  0  0  0  0  0  0  0  0  0  0
   35.1300   25.5280   31.0480 C   0  0  0  0  0  0  0  0  0  0  0  0
   35.5250   24.2230   30.8310 N   0  0  0  0  0  0  0  0  0  0  0  0
   36.8120   23.8240   31.0740 C   0  0  0  0  0  0  0  0  0  0  0  0
   37.7060   24.7320   31.5340 N   0  0  0  0  0  0  0  0  0  0  0  0
   35.6830   27.4480   31.6690 H   0  0  0  0  0  0  0  0  0  0  0  0
   34.1070   25.8210   30.8480 H   0  0  0  0  0  0  0  0  0  0  0  0
   37.0960   22.7990   30.8970 H   0  0  0  0  0  0  0  0  0  0  0  0
   38.1650   26.4770   34.7050 C   0  0  0  0  0  3  0  0  0  0  0  0
   38.6550   27.2380   35.9120 C   0  0  0  0  0  2  0  0  0  0  0  0
   37.4150   27.6610   35.1160 C   0  0  0  0  0  2  0  0  0  0  0  0
  1  7  1  1  0  0  0
  1  6  1  0  0  0  0
  2  8  1  0  0  0  0
  2  3  1  0  0  0  0
  2  1  1  0  0  0  0
  3 10  1  0  0  0  0
  3  4  1  0  0  0  0
  4 12  1  0  0  0  0
  4  5  1  0  0  0  0
  5 15  1  0  0  0  0
  5 14  1  0  0  0  0
  6 16  1  6  0  0  0
  6  5  1  0  0  0  0
  6 26  1  0  0  0  0
  9  2  1  0  0  0  0
 11  3  1  0  0  0  0
 13  4  1  0  0  0  0
 17  1  1  0  0  0  0
 18 23  1  0  0  0  0
 18 17  2  0  0  0  0
 19 18  1  0  0  0  0
 20 19  2  0  0  0  0
 20 21  1  0  0  0  0
 21 22  2  0  0  0  0
 22 17  1  0  0  0  0
 24 19  1  0  0  0  0
 25 21  1  0  0  0  0
 26 28  1  0  0  0  0
 26 27  1  0  0  0  0
 28 27  1  0  0  0  0
M  END
>  <minimizedAffinity>
-4.23898411

$$$$

 OpenBabel03272509293D

 28 30  0  0  1  0  0  0  0  0999 V2000
   35.6040   21.1680   31.2570 C   0  0  2  0  0  0  0  0  0  0  0  0
   34.8590   21.1260   32.5700 C   0  0  0  0  0  0  0  0  0  0  0  0
   35.4440   20.1220   33.5220 C   0  0  0  0  0  0  0  0  0  0  0  0
   35.5000   18.7320   32.9380 C   0  0  0  0  0  0  0  0  0  0  0  0
   36.0070   18.7150   31.5370 C   0  0  0  0  0  0  0  0  0  0  0  0
   36.5490   20.0440   31.0560 C   0  0  1  0  0  0  0  0  0  0  0  0
   34.8790   21.1880   30.4020 H   0  0  0  0  0  0  0  0  0  0  0  0
   33.8110   20.8310   32.3480 H   0  0  0  0  0  0  0  0  0  0  0  0
   34.8110   22.0850   33.1030 H   0  0  0  0  0  0  0  0  0  0  0  0
   36.5130   20.4390   33.6710 H   0  0  0  0  0  0  0  0  0  0  0  0
   34.8700   20.1440   34.4470 H   0  0  0  0  0  0  0  0  0  0  0  0
   36.2360   18.1670   33.5830 H   0  0  0  0  0  0  0  0  0  0  0  0
   34.4660   18.3000   33.0390 H   0  0  0  0  0  0  0  0  0  0  0  0
   36.7940   17.9680   31.3540 H   0  0  0  0  0  0  0  0  0  0  0  0
   35.1530   18.4500   30.8840 H   0  0  0  0  0  0  0  0  0  0  0  0
   37.5180   20.2250   31.5730 H   0  0  0  0  0  0  0  0  0  0  0  0
   36.3620   22.4530   31.1480 C   0  0  0  0  0  0  0  0  0  0  0  0
   35.6050   23.6400   31.1970 C   0  0  0  0  0  0  0  0  0  0  0  0
   36.3090   24.8310   31.0800 C   0  0  0  0  0  0  0  0  0  0  0  0
   37.6800   24.8090   30.9220 N   0  0  0  0  0  0  0  0  0  0  0  0
   38.3690   23.6270   30.8790 C   0  0  0  0  0  0  0  0  0  0  0  0
   37.6850   22.4630   30.9940 N   0  0  0  0  0  0  0  0  0  0  0  0
   34.5530   23.7170   31.3150 H   0  0  0  0  0  0  0  0  0  0  0  0
   35.7850   25.7780   31.1120 H   0  0  0  0  0  0  0  0  0  0  0  0
   39.4400   23.6360   30.7540 H   0  0  0  0  0  0  0  0  0  0  0  0
   36.8780   19.8170   29.5990 C   0  0  0  0  0  3  0  0  0  0  0  0
   38.1370   19.0780   29.2190 C   0  0  0  0  0  2  0  0  0  0  0  0
   36.7370   18.5280   28.9270 C   0  0  0  0  0  2  0  0  0  0  0  0
  1  7  1  6  0  0  0
  1  2  1  0  0  0  0
  2  9  1  0  0  0  0
  2  3  1  0  0  0  0
  3 10  1  0  0  0  0
  3 11  1  0  0  0  0
  4 13  1  0  0  0  0
  4  3  1  0  0  0  0
  4 12  1  0  0  0  0
  5  4  1  0  0  0  0
  6  1  1  0  0  0  0
  6  5  1  0  0  0  0
  6 16  1  1  0  0  0
  8  2  1  0  0  0  0
 14  5  1  0  0  0  0
 15  5  1  0  0  0  0
 17 18  1  0  0  0  0
 17  1  1  0  0  0  0
 18 23  1  0  0  0  0
 19 24  1  0  0  0  0
 19 18  2  0  0  0  0
 20 19  1  0  0  0  0
 21 20  2  0  0  0  0
 21 22  1  0  0  0  0
 22 17  2  0  0  0  0
 25 21  1  0  0  0  0
 26  6  1  0  0  0  0
 27 26  1  0  0  0  0
 28 27  1  0  0  0  0
 28 26  1  0  0  0  0
M  END
>  <minimizedAffinity>
-4.23545885

$$$$

 OpenBabel03272509293D

 28 30  0  0  1  0  0  0  0  0999 V2000
   38.3790   26.5420   35.1390 C   0  0  2  0  0  0  0  0  0  0  0  0
   37.0420   26.8740   34.5190 C   0  0  0  0  0  0  0  0  0  0  0  0
   37.0200   26.6060   33.0410 C   0  0  0  0  0  0  0  0  0  0  0  0
   38.1070   27.3440   32.3010 C   0  0  0  0  0  0  0  0  0  0  0  0
   39.4280   27.2660   32.9850 C   0  0  0  0  0  0  0  0  0  0  0  0
   39.4650   26.3070   34.1570 C   0  0  1  0  0  0  0  0  0  0  0  0
   38.6940   27.3610   35.8370 H   0  0  0  0  0  0  0  0  0  0  0  0
   36.8590   27.9570   34.6830 H   0  0  0  0  0  0  0  0  0  0  0  0
   36.1880   26.3390   34.9560 H   0  0  0  0  0  0  0  0  0  0  0  0
   37.2600   25.5120   32.9320 H   0  0  0  0  0  0  0  0  0  0  0  0
   36.0330   26.8560   32.6570 H   0  0  0  0  0  0  0  0  0  0  0  0
   38.1980   26.8210   31.3040 H   0  0  0  0  0  0  0  0  0  0  0  0
   37.7420   28.4000   32.1660 H   0  0  0  0  0  0  0  0  0  0  0  0
   40.2610   26.9860   32.3220 H   0  0  0  0  0  0  0  0  0  0  0  0
   39.6530   28.2760   33.3770 H   0  0  0  0  0  0  0  0  0  0  0  0
   39.4340   25.2710   33.7510 H   0  0  0  0  0  0  0  0  0  0  0  0
   38.2480   25.3290   36.0040 C   0  0  0  0  0  0  0  0  0  0  0  0
   38.2480   24.0820   35.3480 C   0  0  0  0  0  0  0  0  0  0  0  0
   38.1100   22.9580   36.1510 C   0  0  0  0  0  0  0  0  0  0  0  0
   37.9820   23.0990   37.5190 N   0  0  0  0  0  0  0  0  0  0  0  0
   37.9870   24.3350   38.1060 C   0  0  0  0  0  0  0  0  0  0  0  0
   38.1210   25.4340   37.3250 N   0  0  0  0  0  0  0  0  0  0  0  0
   38.3420   23.9140   34.3040 H   0  0  0  0  0  0  0  0  0  0  0  0
   38.1040   21.9700   35.7080 H   0  0  0  0  0  0  0  0  0  0  0  0
   37.8830   24.4190   39.1770 H   0  0  0  0  0  0  0  0  0  0  0  0
   40.8380   26.4900   34.7570 C   0  0  0  0  0  3  0  0  0  0  0  0
   41.8990   25.4400   34.5410 C   0  0  0  0  0  2  0  0  0  0  0  0
   42.0200   26.8610   33.9820 C   0  0  0  0  0  2  0  0  0  0  0  0
  1  7  1  1  0  0  0
  1 17  1  0  0  0  0
  2  8  1  0  0  0  0
  2  9  1  0  0  0  0
  2  1  1  0  0  0  0
  3  2  1  0  0  0  0
  4  5  1  0  0  0  0
  4  3  1  0  0  0  0
  5 15  1  0  0  0  0
  5  6  1  0  0  0  0
  6 16  1  6  0  0  0
  6 26  1  0  0  0  0
  6  1  1  0  0  0  0
 10  3  1  0  0  0  0
 11  3  1  0  0  0  0
 12  4  1  0  0  0  0
 13  4  1  0  0  0  0
 14  5  1  0  0  0  0
 17 22  1  0  0  0  0
 18 17  2  0  0  0  0
 18 19  1  0  0  0  0
 19 20  2  0  0  0  0
 20 21  1  0  0  0  0
 21 25  1  0  0  0  0
 22 21  2  0  0  0  0
 23 18  1  0  0  0  0
 24 19  1  0  0  0  0
 27 26  1  0  0  0  0
 28 27  1  0  0  0  0
 28 26  1  0  0  0  0
M  END
>  <minimizedAffinity>
-4.23302078

$$$$

 OpenBabel03272509293D

 28 30  0  0  1  0  0  0  0  0999 V2000
   38.6310   23.7420   35.8640 C   0  0  2  0  0  0  0  0  0  0  0  0
   37.4900   24.0050   36.8180 C   0  0  0  0  0  0  0  0  0  0  0  0
   37.9740   24.3740   38.1920 C   0  0  0  0  0  0  0  0  0  0  0  0
   38.8860   23.3300   38.7850 C   0  0  0  0  0  0  0  0  0  0  0  0
   39.9050   22.8350   37.8170 C   0  0  0  0  0  0  0  0  0  0  0  0
   39.9550   23.6110   36.5180 C   0  0  1  0  0  0  0  0  0  0  0  0
   38.4280   22.8140   35.2680 H   0  0  0  0  0  0  0  0  0  0  0  0
   36.8970   23.0690   36.8930 H   0  0  0  0  0  0  0  0  0  0  0  0
   36.7960   24.7940   36.4990 H   0  0  0  0  0  0  0  0  0  0  0  0
   38.6070   25.2930   38.0500 H   0  0  0  0  0  0  0  0  0  0  0  0
   37.1090   24.5570   38.8270 H   0  0  0  0  0  0  0  0  0  0  0  0
   39.4290   23.8520   39.6280 H   0  0  0  0  0  0  0  0  0  0  0  0
   38.2220   22.5130   39.1840 H   0  0  0  0  0  0  0  0  0  0  0  0
   40.9310   22.8190   38.2150 H   0  0  0  0  0  0  0  0  0  0  0  0
   39.6390   21.7900   37.5690 H   0  0  0  0  0  0  0  0  0  0  0  0
   40.4070   24.6050   36.7310 H   0  0  0  0  0  0  0  0  0  0  0  0
   38.7060   24.8400   34.8510 C   0  0  0  0  0  0  0  0  0  0  0  0
   39.3760   26.0150   35.2420 C   0  0  0  0  0  0  0  0  0  0  0  0
   39.4310   27.0390   34.3060 C   0  0  0  0  0  0  0  0  0  0  0  0
   38.8450   26.8740   33.0670 N   0  0  0  0  0  0  0  0  0  0  0  0
   38.2040   25.7100   32.7380 C   0  0  0  0  0  0  0  0  0  0  0  0
   38.1490   24.7090   33.6490 N   0  0  0  0  0  0  0  0  0  0  0  0
   39.8430   26.1990   36.1770 H   0  0  0  0  0  0  0  0  0  0  0  0
   39.9330   27.9690   34.5440 H   0  0  0  0  0  0  0  0  0  0  0  0
   37.7520   25.6060   31.7630 H   0  0  0  0  0  0  0  0  0  0  0  0
   40.9510   22.8620   35.6640 C   0  0  0  0  0  3  0  0  0  0  0  0
   42.4250   22.9610   35.9680 C   0  0  0  0  0  2  0  0  0  0  0  0
   41.6410   21.6500   36.0980 C   0  0  0  0  0  2  0  0  0  0  0  0
  1  7  1  6  0  0  0
  1  6  1  0  0  0  0
  1  2  1  0  0  0  0
  2  8  1  0  0  0  0
  2  3  1  0  0  0  0
  3  4  1  0  0  0  0
  3 11  1  0  0  0  0
  4 13  1  0  0  0  0
  4 12  1  0  0  0  0
  5 14  1  0  0  0  0
  5  4  1  0  0  0  0
  6 16  1  1  0  0  0
  6  5  1  0  0  0  0
  9  2  1  0  0  0  0
 10  3  1  0  0  0  0
 15  5  1  0  0  0  0
 17 18  1  0  0  0  0
 17  1  1  0  0  0  0
 18 23  1  0  0  0  0
 19 24  1  0  0  0  0
 19 18  2  0  0  0  0
 20 19  1  0  0  0  0
 21 20  2  0  0  0  0
 21 22  1  0  0  0  0
 22 17  2  0  0  0  0
 25 21  1  0  0  0  0
 26 27  1  0  0  0  0
 26 28  1  0  0  0  0
 26  6  1  0  0  0  0
 27 28  1  0  0  0  0
M  END
>  <minimizedAffinity>
-4.21603966

$$$$

 OpenBabel03272509293D

 28 30  0  0  1  0  0  0  0  0999 V2000
   39.2480   25.4990   34.7180 C   0  0  2  0  0  0  0  0  0  0  0  0
   39.4370   26.8290   35.4070 C   0  0  0  0  0  0  0  0  0  0  0  0
   38.1280   27.4800   35.7520 C   0  0  0  0  0  0  0  0  0  0  0  0
   37.2380   27.6670   34.5490 C   0  0  0  0  0  0  0  0  0  0  0  0
   37.1870   26.4600   33.6760 C   0  0  0  0  0  0  0  0  0  0  0  0
   37.8610   25.2390   34.2640 C   0  0  1  0  0  0  0  0  0  0  0  0
   39.9380   25.4190   33.8380 H   0  0  0  0  0  0  0  0  0  0  0  0
   39.9850   27.4920   34.7050 H   0  0  0  0  0  0  0  0  0  0  0  0
   40.0290   26.7890   36.3310 H   0  0  0  0  0  0  0  0  0  0  0  0
   37.5960   26.7480   36.4200 H   0  0  0  0  0  0  0  0  0  0  0  0
   38.3300   28.4270   36.2490 H   0  0  0  0  0  0  0  0  0  0  0  0
   36.2020   27.8390   34.9670 H   0  0  0  0  0  0  0  0  0  0  0  0
   37.6100   28.5840   34.0130 H   0  0  0  0  0  0  0  0  0  0  0  0
   36.1680   26.1530   33.3930 H   0  0  0  0  0  0  0  0  0  0  0  0
   37.7190   26.7130   32.7380 H   0  0  0  0  0  0  0  0  0  0  0  0
   37.2220   24.8620   35.0930 H   0  0  0  0  0  0  0  0  0  0  0  0
   39.6650   24.3920   35.6350 C   0  0  0  0  0  0  0  0  0  0  0  0
   40.9270   23.8150   35.3960 C   0  0  0  0  0  0  0  0  0  0  0  0
   41.3050   22.7770   36.2370 C   0  0  0  0  0  0  0  0  0  0  0  0
   40.4570   22.3610   37.2440 N   0  0  0  0  0  0  0  0  0  0  0  0
   39.2380   22.9560   37.4320 C   0  0  0  0  0  0  0  0  0  0  0  0
   38.8670   23.9690   36.6130 N   0  0  0  0  0  0  0  0  0  0  0  0
   41.6180   24.0910   34.6390 H   0  0  0  0  0  0  0  0  0  0  0  0
   42.2640   22.2930   36.1060 H   0  0  0  0  0  0  0  0  0  0  0  0
   38.5930   22.6120   38.2250 H   0  0  0  0  0  0  0  0  0  0  0  0
   37.7950   24.2010   33.1690 C   0  0  0  0  0  3  0  0  0  0  0  0
   36.8600   24.3980   32.0010 C   0  0  0  0  0  2  0  0  0  0  0  0
   38.3840   24.3820   31.8440 C   0  0  0  0  0  2  0  0  0  0  0  0
  1  7  1  6  0  0  0
  1  2  1  0  0  0  0
  1 17  1  0  0  0  0
  2  3  1  0  0  0  0
  2  9  1  0  0  0  0
  3 11  1  0  0  0  0
  3 10  1  0  0  0  0
  4 12  1  0  0  0  0
  4  3  1  0  0  0  0
  5  6  1  0  0  0  0
  5  4  1  0  0  0  0
  6  1  1  0  0  0  0
  6 16  1  1  0  0  0
  8  2  1  0  0  0  0
 13  4  1  0  0  0  0
 14  5  1  0  0  0  0
 15  5  1  0  0  0  0
 17 22  1  0  0  0  0
 18 17  2  0  0  0  0
 18 19  1  0  0  0  0
 19 20  2  0  0  0  0
 20 21  1  0  0  0  0
 21 25  1  0  0  0  0
 22 21  2  0  0  0  0
 23 18  1  0  0  0  0
 24 19  1  0  0  0  0
 26  6  1  0  0  0  0
 27 26  1  0  0  0  0
 28 27  1  0  0  0  0
 28 26  1  0  0  0  0
M  END
>  <minimizedAffinity>
-4.20217276

$$$$
