
 OpenBabel03272505123D

 33 36  0  0  0  0  0  0  0  0999 V2000
   36.4060   30.9000   45.7010 Cl  0  0  0  0  0  0  0  0  0  0  0  0
   36.6910   30.7720   47.4160 C   0  0  0  0  0  0  0  0  0  0  0  0
   37.9490   31.0980   47.8780 C   0  0  0  0  0  0  0  0  0  0  0  0
   38.1840   31.0000   49.2370 C   0  0  0  0  0  0  0  0  0  0  0  0
   37.1940   30.5920   50.0750 C   0  0  0  0  0  0  0  0  0  0  0  0
   35.9380   30.2740   49.5450 C   0  0  0  0  0  0  0  0  0  0  0  0
   35.6290   30.3460   48.2160 C   0  0  0  0  0  0  0  0  0  0  0  0
   39.1690   31.2540   49.6070 H   0  0  0  0  0  0  0  0  0  0  0  0
   37.4040   30.5240   51.1260 H   0  0  0  0  0  0  0  0  0  0  0  0
   35.1580   29.9490   50.2300 H   0  0  0  0  0  0  0  0  0  0  0  0
   40.2070   33.3160   46.0720 C   0  0  0  0  0  0  0  0  0  0  0  0
   40.9200   32.4620   45.2090 C   0  0  0  0  0  0  0  0  0  0  0  0
   40.6030   31.0990   45.2640 C   0  0  0  0  0  0  0  0  0  0  0  0
   39.6390   30.6810   46.1340 N   0  0  0  0  0  0  0  0  0  0  0  0
   38.9950   31.5390   46.9300 C   0  0  0  0  0  0  0  0  0  0  0  0
   39.2760   32.8410   46.8990 N   0  0  0  0  0  0  0  0  0  0  0  0
   40.4900   34.3570   45.9910 H   0  0  0  0  0  0  0  0  0  0  0  0
   41.6800   32.7110   44.5080 H   0  0  0  0  0  0  0  0  0  0  0  0
   41.0660   30.3350   44.6640 H   0  0  0  0  0  0  0  0  0  0  0  0
   34.0610   29.9530   47.5300 S   0  0  0  0  0  0  0  0  0  0  0  0
   33.7360   29.1940   44.4980 Cl  0  0  0  0  0  0  0  0  0  0  0  0
   33.7800   27.9530   45.7440 C   0  0  0  0  0  0  0  0  0  0  0  0
   33.9210   28.2160   47.1050 C   0  0  0  0  0  0  0  0  0  0  0  0
   33.9430   27.1750   48.0000 C   0  0  0  0  0  0  0  0  0  0  0  0
   33.8290   25.8870   47.5700 C   0  0  0  0  0  0  0  0  0  0  0  0
   33.6880   25.5760   46.2320 C   0  0  0  0  0  0  0  0  0  0  0  0
   33.6670   26.6210   45.3540 C   0  0  0  0  0  0  0  0  0  0  0  0
   34.0570   27.4850   49.0310 H   0  0  0  0  0  0  0  0  0  0  0  0
   33.8540   25.1110   48.3240 H   0  0  0  0  0  0  0  0  0  0  0  0
   33.6010   24.5500   45.9500 H   0  0  0  0  0  0  0  0  0  0  0  0
   33.5150   26.3260   43.9050 C   0  0  0  0  0  3  0  0  0  0  0  0
   33.3700   24.9050   43.5090 C   0  0  0  0  0  2  0  0  0  0  0  0
   32.1720   25.8750   43.3740 C   0  0  0  0  0  2  0  0  0  0  0  0
  1  2  1  0  0  0  0
  2  3  2  0  0  0  0
  2  7  1  0  0  0  0
  3  4  1  0  0  0  0
  4  8  1  0  0  0  0
  4  5  2  0  0  0  0
  5  9  1  0  0  0  0
  6  5  1  0  0  0  0
  6 10  1  0  0  0  0
  7  6  2  0  0  0  0
 11 16  1  0  0  0  0
 12 13  1  0  0  0  0
 12 11  2  0  0  0  0
 13 14  2  0  0  0  0
 14 15  1  0  0  0  0
 15  3  1  0  0  0  0
 16 15  2  0  0  0  0
 17 11  1  0  0  0  0
 18 12  1  0  0  0  0
 19 13  1  0  0  0  0
 20  7  1  0  0  0  0
 21 22  1  0  0  0  0
 22 23  1  0  0  0  0
 23 20  1  0  0  0  0
 23 24  2  0  0  0  0
 24 28  1  0  0  0  0
 25 24  1  0  0  0  0
 25 29  1  0  0  0  0
 26 25  2  0  0  0  0
 27 22  2  0  0  0  0
 27 26  1  0  0  0  0
 30 26  1  0  0  0  0
 31 27  1  0  0  0  0
 32 31  1  0  0  0  0
 33 32  1  0  0  0  0
 33 31  1  0  0  0  0
M  END
>  <minimizedAffinity>
-5.59382057

>  <minimizedRMSD>
0.19039765

$$$$
