REMARK  Name = 
REMARK  2 active torsions:
REMARK  status: ('A' for Active; 'I' for Inactive)
REMARK    1  A    between atoms: C_5  and  C_7
REMARK    2  A    between atoms: C_12  and  C_20
REMARK                            x       y       z     vdW  Elec       q    Type
REMARK                         _______ _______ _______ _____ _____    ______ ____
ROOT
ATOM      1  C   UNL     1      36.092  30.133  48.602  0.00  0.00    +0.000 A 
ATOM      2  C   UNL     1      35.279  29.943  47.502  0.00  0.00    +0.000 A 
ATOM      3  C   UNL     1      34.303  28.974  47.504  0.00  0.00    +0.000 A 
ATOM      4  C   UNL     1      34.150  28.196  48.622  0.00  0.00    +0.000 A 
ATOM      5  C   UNL     1      34.950  28.361  49.743  0.00  0.00    +0.000 A 
ATOM      6  C   UNL     1      35.943  29.343  49.747  0.00  0.00    +0.000 A 
ATOM      7  H   UNL     1      35.421  30.577  46.622  0.00  0.00    +0.000 HD
ATOM      8  H   UNL     1      33.703  28.883  46.606  0.00  0.00    +0.000 HD
ATOM      9  H   UNL     1      33.378  27.441  48.604  0.00  0.00    +0.000 HD
ATOM     10  H   UNL     1      34.838  27.750  50.635  0.00  0.00    +0.000 HD
ENDROOT
BRANCH   1  15
ATOM     11  C   UNL     1      38.015  33.100  49.484  0.00  0.00    +0.000 A 
ATOM     12  C   UNL     1      38.969  33.211  48.475  0.00  0.00    +0.000 A 
ATOM     13  C   UNL     1      38.945  32.223  47.455  0.00  0.00    +0.000 A 
ATOM     14  N   UNL     1      38.005  31.248  47.528  0.00  0.00    +0.000 NA
ATOM     15  C   UNL     1      37.110  31.188  48.521  0.00  0.00    +0.000 A 
ATOM     16  N   UNL     1      37.124  32.115  49.491  0.00  0.00    +0.000 NA
ATOM     17  H   UNL     1      38.102  33.881  50.213  0.00  0.00    +0.000 HD
ATOM     18  H   UNL     1      39.745  33.934  48.327  0.00  0.00    +0.000 HD
ATOM     19  H   UNL     1      39.599  32.144  46.597  0.00  0.00    +0.000 HD
ENDBRANCH   1  15
BRANCH   6  20
ATOM     20  C   UNL     1      36.850  29.600  50.895  0.00  0.00    +0.000 C 
ATOM     21  C   UNL     1      36.251  29.656  52.286  0.00  0.00    +0.000 C 
ATOM     22  C   UNL     1      37.147  28.529  51.871  0.00  0.00    +0.000 C 
ENDBRANCH   6  20
TORSDOF 2
