
 OpenBabel03272510283D

 39 43  0  0  1  0  0  0  0  0999 V2000
   37.9930   24.3830   33.6860 C   0  0  0  0  0  0  0  0  0  0  0  0
   37.9320   25.0620   34.9020 C   0  0  0  0  0  0  0  0  0  0  0  0
   37.4070   26.3490   34.9810 C   0  0  0  0  0  0  0  0  0  0  0  0
   36.9510   26.9130   33.7930 C   0  0  0  0  0  0  0  0  0  0  0  0
   36.3970   28.1470   33.6100 N   0  0  0  0  0  0  0  0  0  0  0  0
   36.1120   28.2460   32.3030 C   0  0  0  0  0  0  0  0  0  0  0  0
   36.4670   27.1360   31.6840 N   0  0  0  0  0  0  0  0  0  0  0  0
   36.9930   26.2760   32.5720 C   0  0  0  0  0  0  0  0  0  0  0  0
   37.5280   24.9810   32.5260 C   0  0  0  0  0  0  0  0  0  0  0  0
   38.3890   23.3930   33.5790 H   0  0  0  0  0  0  0  0  0  0  0  0
   37.3650   26.8610   35.9210 H   0  0  0  0  0  0  0  0  0  0  0  0
   36.2350   28.8530   34.3420 H   0  0  0  0  0  0  0  0  0  0  0  0
   37.5640   24.4760   31.5700 H   0  0  0  0  0  0  0  0  0  0  0  0
   38.4400   23.7290   38.3770 C   0  0  0  0  0  0  0  0  0  0  0  0
   37.8610   24.4350   37.3350 C   0  0  0  0  0  0  0  0  0  0  0  0
   38.4360   24.3730   36.0710 C   0  0  0  0  0  0  0  0  0  0  0  0
   39.5580   23.6070   35.9340 N   0  0  0  0  0  0  0  0  0  0  0  0
   40.1140   22.9240   36.9520 C   0  0  0  0  0  0  0  0  0  0  0  0
   39.5660   22.9850   38.1450 N   0  0  0  0  0  0  0  0  0  0  0  0
   38.0020   23.7680   39.3660 H   0  0  0  0  0  0  0  0  0  0  0  0
   36.9680   25.0420   37.4540 H   0  0  0  0  0  0  0  0  0  0  0  0
   41.0150   22.3240   36.7860 H   0  0  0  0  0  0  0  0  0  0  0  0
   35.5270   29.3880   31.7540 O   0  0  0  0  0  0  0  0  0  0  0  0
   35.5330   31.3740   32.9070 N   0  0  0  0  0  0  0  0  0  0  0  0
   34.7710   30.1790   32.6570 C   0  0  1  0  0  0  0  0  0  0  0  0
   33.4640   30.5040   32.1030 C   0  0  0  0  0  0  0  0  0  0  0  0
   32.7520   31.2580   33.0510 O   0  0  0  0  0  0  0  0  0  0  0  0
   33.3820   32.3830   33.4980 C   0  0  0  0  0  0  0  0  0  0  0  0
   34.8190   32.1250   33.8980 C   0  0  1  0  0  0  0  0  0  0  0  0
   35.9630   31.8710   32.1670 H   0  0  0  0  0  0  0  0  0  0  0  0
   34.6670   29.6350   33.6080 H   0  0  0  0  0  0  0  0  0  0  0  0
   33.2970   31.0250   31.1990 H   0  0  0  0  0  0  0  0  0  0  0  0
   32.8700   29.5430   32.0380 H   0  0  0  0  0  0  0  0  0  0  0  0
   32.8690   32.7060   34.4220 H   0  0  0  0  0  0  0  0  0  0  0  0
   33.3510   33.1590   32.6920 H   0  0  0  0  0  0  0  0  0  0  0  0
   35.3150   33.1030   34.0110 H   0  0  0  0  0  0  0  0  0  0  0  0
   34.8350   31.4390   35.2430 C   0  0  0  0  0  3  0  0  0  0  0  0
   36.1480   31.1620   35.8990 C   0  0  0  0  0  2  0  0  0  0  0  0
   35.2990   32.2560   36.4350 C   0  0  0  0  0  2  0  0  0  0  0  0
  1  2  1  0  0  0  0
  2  3  2  0  0  0  0
  2 16  1  0  0  0  0
  3 11  1  0  0  0  0
  4  3  1  0  0  0  0
  5  4  1  0  0  0  0
  5 12  1  0  0  0  0
  6  5  1  0  0  0  0
  7  6  2  0  0  0  0
  7  8  1  0  0  0  0
  8  4  2  0  0  0  0
  9  8  1  0  0  0  0
  9  1  2  0  0  0  0
 10  1  1  0  0  0  0
 13  9  1  0  0  0  0
 14 20  1  0  0  0  0
 15 21  1  0  0  0  0
 15 14  2  0  0  0  0
 16 15  1  0  0  0  0
 17 16  2  0  0  0  0
 17 18  1  0  0  0  0
 18 19  2  0  0  0  0
 19 14  1  0  0  0  0
 22 18  1  0  0  0  0
 23  6  1  0  0  0  0
 23 25  1  0  0  0  0
 24 29  1  0  0  0  0
 25 24  1  0  0  0  0
 25 31  1  1  0  0  0
 26 25  1  0  0  0  0
 26 27  1  0  0  0  0
 27 28  1  0  0  0  0
 28 29  1  0  0  0  0
 28 34  1  0  0  0  0
 29 36  1  1  0  0  0
 29 37  1  0  0  0  0
 30 24  1  0  0  0  0
 32 26  1  0  0  0  0
 33 26  1  0  0  0  0
 35 28  1  0  0  0  0
 37 38  1  0  0  0  0
 37 39  1  0  0  0  0
 38 39  1  0  0  0  0
M  END
>  <minimizedAffinity>
-5.85279036

$$$$

 OpenBabel03272510283D

 39 43  0  0  1  0  0  0  0  0999 V2000
   35.5490   29.3620   32.7220 C   0  0  0  0  0  0  0  0  0  0  0  0
   35.7560   29.2640   34.0960 C   0  0  0  0  0  0  0  0  0  0  0  0
   36.4460   28.1860   34.6450 C   0  0  0  0  0  0  0  0  0  0  0  0
   36.9120   27.2240   33.7540 C   0  0  0  0  0  0  0  0  0  0  0  0
   37.6110   26.0870   34.0400 N   0  0  0  0  0  0  0  0  0  0  0  0
   37.8430   25.4770   32.8660 C   0  0  0  0  0  0  0  0  0  0  0  0
   37.3180   26.1870   31.8860 N   0  0  0  0  0  0  0  0  0  0  0  0
   36.7290   27.2830   32.3900 C   0  0  0  0  0  0  0  0  0  0  0  0
   36.0310   28.3820   31.8700 C   0  0  0  0  0  0  0  0  0  0  0  0
   35.0240   30.1730   32.2580 H   0  0  0  0  0  0  0  0  0  0  0  0
   36.5990   28.1210   35.7020 H   0  0  0  0  0  0  0  0  0  0  0  0
   37.8980   25.7710   34.9770 H   0  0  0  0  0  0  0  0  0  0  0  0
   35.8830   28.4340   30.7990 H   0  0  0  0  0  0  0  0  0  0  0  0
   35.3650   32.1670   36.4490 C   0  0  0  0  0  0  0  0  0  0  0  0
   35.9940   31.1880   35.6970 C   0  0  0  0  0  0  0  0  0  0  0  0
   35.2240   30.3260   34.9240 C   0  0  0  0  0  0  0  0  0  0  0  0
   33.8710   30.5030   34.9550 N   0  0  0  0  0  0  0  0  0  0  0  0
   33.2680   31.4570   35.6880 C   0  0  0  0  0  0  0  0  0  0  0  0
   33.9990   32.2690   36.4180 N   0  0  0  0  0  0  0  0  0  0  0  0
   35.9530   32.8450   37.0550 H   0  0  0  0  0  0  0  0  0  0  0  0
   37.0720   31.0550   35.6790 H   0  0  0  0  0  0  0  0  0  0  0  0
   32.1770   31.5540   35.6770 H   0  0  0  0  0  0  0  0  0  0  0  0
   38.5430   24.2730   32.7800 O   0  0  0  0  0  0  0  0  0  0  0  0
   38.4000   22.9000   34.6150 N   0  0  0  0  0  0  0  0  0  0  0  0
   39.2250   23.8790   33.9600 C   0  0  1  0  0  0  0  0  0  0  0  0
   40.5360   23.3260   33.6480 C   0  0  0  0  0  0  0  0  0  0  0  0
   41.1750   22.9850   34.8520 O   0  0  0  0  0  0  0  0  0  0  0  0
   40.4760   22.1440   35.6680 C   0  0  0  0  0  0  0  0  0  0  0  0
   39.0380   22.5790   35.8580 C   0  0  1  0  0  0  0  0  0  0  0  0
   37.9740   22.1660   34.1070 H   0  0  0  0  0  0  0  0  0  0  0  0
   39.3190   24.7510   34.6260 H   0  0  0  0  0  0  0  0  0  0  0  0
   40.7130   22.4870   33.0300 H   0  0  0  0  0  0  0  0  0  0  0  0
   41.1770   24.1670   33.2440 H   0  0  0  0  0  0  0  0  0  0  0  0
   40.9370   22.1960   36.6710 H   0  0  0  0  0  0  0  0  0  0  0  0
   40.5010   21.1130   35.2330 H   0  0  0  0  0  0  0  0  0  0  0  0
   38.4930   21.7390   36.3180 H   0  0  0  0  0  0  0  0  0  0  0  0
   39.0040   23.7390   36.8250 C   0  0  0  0  0  3  0  0  0  0  0  0
   37.6820   24.2380   37.3100 C   0  0  0  0  0  2  0  0  0  0  0  0
   38.5330   23.4510   38.2390 C   0  0  0  0  0  2  0  0  0  0  0  0
  1  2  1  0  0  0  0
  2  3  2  0  0  0  0
  2 16  1  0  0  0  0
  3 11  1  0  0  0  0
  4  5  1  0  0  0  0
  4  3  1  0  0  0  0
  5 12  1  0  0  0  0
  6  5  1  0  0  0  0
  7  8  1  0  0  0  0
  7  6  2  0  0  0  0
  8  4  2  0  0  0  0
  9  8  1  0  0  0  0
  9  1  2  0  0  0  0
 10  1  1  0  0  0  0
 13  9  1  0  0  0  0
 14 20  1  0  0  0  0
 15 14  2  0  0  0  0
 16 17  2  0  0  0  0
 16 15  1  0  0  0  0
 17 18  1  0  0  0  0
 18 19  2  0  0  0  0
 19 14  1  0  0  0  0
 21 15  1  0  0  0  0
 22 18  1  0  0  0  0
 23  6  1  0  0  0  0
 23 25  1  0  0  0  0
 24 29  1  0  0  0  0
 25 24  1  0  0  0  0
 25 31  1  1  0  0  0
 26 25  1  0  0  0  0
 26 27  1  0  0  0  0
 27 28  1  0  0  0  0
 28 29  1  0  0  0  0
 28 34  1  0  0  0  0
 29 36  1  1  0  0  0
 29 37  1  0  0  0  0
 30 24  1  0  0  0  0
 32 26  1  0  0  0  0
 33 26  1  0  0  0  0
 35 28  1  0  0  0  0
 37 38  1  0  0  0  0
 37 39  1  0  0  0  0
 38 39  1  0  0  0  0
M  END
>  <minimizedAffinity>
-5.76336288

$$$$

 OpenBabel03272510283D

 39 43  0  0  1  0  0  0  0  0999 V2000
   37.8080   24.7750   33.9610 C   0  0  0  0  0  0  0  0  0  0  0  0
   38.0300   25.2830   35.2390 C   0  0  0  0  0  0  0  0  0  0  0  0
   37.6650   26.5870   35.5680 C   0  0  0  0  0  0  0  0  0  0  0  0
   37.0720   27.3430   34.5610 C   0  0  0  0  0  0  0  0  0  0  0  0
   36.6280   28.6300   34.6320 N   0  0  0  0  0  0  0  0  0  0  0  0
   36.1320   28.9300   33.4210 C   0  0  0  0  0  0  0  0  0  0  0  0
   36.2560   27.8900   32.6200 N   0  0  0  0  0  0  0  0  0  0  0  0
   36.8350   26.8770   33.2860 C   0  0  0  0  0  0  0  0  0  0  0  0
   37.2150   25.5610   32.9880 C   0  0  0  0  0  0  0  0  0  0  0  0
   38.0730   23.7790   33.6660 H   0  0  0  0  0  0  0  0  0  0  0  0
   37.8400   26.9680   36.5530 H   0  0  0  0  0  0  0  0  0  0  0  0
   36.6690   29.2410   35.4600 H   0  0  0  0  0  0  0  0  0  0  0  0
   37.0320   25.1900   31.9880 H   0  0  0  0  0  0  0  0  0  0  0  0
   38.8850   23.3290   38.3320 C   0  0  0  0  0  0  0  0  0  0  0  0
   38.1970   24.1990   37.5010 C   0  0  0  0  0  0  0  0  0  0  0  0
   38.6540   24.4030   36.2040 C   0  0  0  0  0  0  0  0  0  0  0  0
   39.7740   23.7200   35.8240 N   0  0  0  0  0  0  0  0  0  0  0  0
   40.4350   22.8770   36.6380 C   0  0  0  0  0  0  0  0  0  0  0  0
   39.9990   22.6870   37.8630 N   0  0  0  0  0  0  0  0  0  0  0  0
   38.5380   23.1610   39.3440 H   0  0  0  0  0  0  0  0  0  0  0  0
   37.3070   24.7380   37.8130 H   0  0  0  0  0  0  0  0  0  0  0  0
   41.3290   22.3550   36.2810 H   0  0  0  0  0  0  0  0  0  0  0  0
   35.5840   30.1800   33.1300 O   0  0  0  0  0  0  0  0  0  0  0  0
   34.0020   29.3600   34.5790 N   0  0  0  0  0  0  0  0  0  0  0  0
   34.4630   30.5510   33.9170 C   0  0  1  0  0  0  0  0  0  0  0  0
   34.8190   31.5780   34.8870 C   0  0  0  0  0  0  0  0  0  0  0  0
   33.6660   31.9270   35.6120 O   0  0  0  0  0  0  0  0  0  0  0  0
   33.0200   30.8900   36.2180 C   0  0  0  0  0  0  0  0  0  0  0  0
   32.8080   29.7120   35.2900 C   0  0  1  0  0  0  0  0  0  0  0  0
   34.6360   28.7370   35.0130 H   0  0  0  0  0  0  0  0  0  0  0  0
   33.6610   30.9060   33.2510 H   0  0  0  0  0  0  0  0  0  0  0  0
   35.5590   31.4800   35.6350 H   0  0  0  0  0  0  0  0  0  0  0  0
   35.0600   32.5230   34.3130 H   0  0  0  0  0  0  0  0  0  0  0  0
   32.0080   31.2410   36.4880 H   0  0  0  0  0  0  0  0  0  0  0  0
   33.6160   30.5620   37.1080 H   0  0  0  0  0  0  0  0  0  0  0  0
   32.5090   28.8490   35.9070 H   0  0  0  0  0  0  0  0  0  0  0  0
   31.6670   30.0300   34.3530 C   0  0  0  0  0  3  0  0  0  0  0  0
   31.2020   28.9810   33.3960 C   0  0  0  0  0  2  0  0  0  0  0  0
   30.3580   29.2950   34.5770 C   0  0  0  0  0  2  0  0  0  0  0  0
  1  2  1  0  0  0  0
  2  3  2  0  0  0  0
  2 16  1  0  0  0  0
  3 11  1  0  0  0  0
  4  5  1  0  0  0  0
  4  3  1  0  0  0  0
  5 12  1  0  0  0  0
  6  5  1  0  0  0  0
  7  8  1  0  0  0  0
  7  6  2  0  0  0  0
  8  4  2  0  0  0  0
  9  8  1  0  0  0  0
  9  1  2  0  0  0  0
 10  1  1  0  0  0  0
 13  9  1  0  0  0  0
 14 20  1  0  0  0  0
 15 21  1  0  0  0  0
 15 14  2  0  0  0  0
 16 15  1  0  0  0  0
 17 16  2  0  0  0  0
 17 18  1  0  0  0  0
 18 19  2  0  0  0  0
 19 14  1  0  0  0  0
 22 18  1  0  0  0  0
 23  6  1  0  0  0  0
 23 25  1  0  0  0  0
 24 30  1  0  0  0  0
 24 29  1  0  0  0  0
 25 31  1  6  0  0  0
 25 24  1  0  0  0  0
 25 26  1  0  0  0  0
 26 27  1  0  0  0  0
 26 32  1  0  0  0  0
 27 28  1  0  0  0  0
 28 34  1  0  0  0  0
 28 35  1  0  0  0  0
 29 36  1  1  0  0  0
 29 28  1  0  0  0  0
 33 26  1  0  0  0  0
 37 39  1  0  0  0  0
 37 29  1  0  0  0  0
 38 37  1  0  0  0  0
 38 39  1  0  0  0  0
M  END
>  <minimizedAffinity>
-5.58863258

$$$$

 OpenBabel03272510283D

 39 43  0  0  1  0  0  0  0  0999 V2000
   35.2490   28.9070   32.8640 C   0  0  0  0  0  0  0  0  0  0  0  0
   35.7100   29.1750   34.1520 C   0  0  0  0  0  0  0  0  0  0  0  0
   36.7520   28.4390   34.7100 C   0  0  0  0  0  0  0  0  0  0  0  0
   37.3000   27.4330   33.9200 C   0  0  0  0  0  0  0  0  0  0  0  0
   38.3200   26.5830   34.2340 N   0  0  0  0  0  0  0  0  0  0  0  0
   38.5010   25.7930   33.1650 C   0  0  0  0  0  0  0  0  0  0  0  0
   37.6420   26.1200   32.2200 N   0  0  0  0  0  0  0  0  0  0  0  0
   36.8740   27.1370   32.6430 C   0  0  0  0  0  0  0  0  0  0  0  0
   35.8230   27.8970   32.1110 C   0  0  0  0  0  0  0  0  0  0  0  0
   34.4510   29.4480   32.3970 H   0  0  0  0  0  0  0  0  0  0  0  0
   37.0980   28.6530   35.7000 H   0  0  0  0  0  0  0  0  0  0  0  0
   38.8410   26.5640   35.1220 H   0  0  0  0  0  0  0  0  0  0  0  0
   35.4830   27.6690   31.1100 H   0  0  0  0  0  0  0  0  0  0  0  0
   33.1970   31.5720   35.5870 C   0  0  0  0  0  0  0  0  0  0  0  0
   33.6980   30.5140   34.8440 C   0  0  0  0  0  0  0  0  0  0  0  0
   35.0620   30.2460   34.8790 C   0  0  0  0  0  0  0  0  0  0  0  0
   35.8370   31.0580   35.6570 N   0  0  0  0  0  0  0  0  0  0  0  0
   35.3420   32.0830   36.3750 C   0  0  0  0  0  0  0  0  0  0  0  0
   34.0520   32.3320   36.3400 N   0  0  0  0  0  0  0  0  0  0  0  0
   32.1370   31.7900   35.5690 H   0  0  0  0  0  0  0  0  0  0  0  0
   33.0740   29.8740   34.2280 H   0  0  0  0  0  0  0  0  0  0  0  0
   36.0090   32.7030   36.9820 H   0  0  0  0  0  0  0  0  0  0  0  0
   39.4760   24.7950   33.1340 O   0  0  0  0  0  0  0  0  0  0  0  0
   39.2710   24.1870   35.3400 N   0  0  0  0  0  0  0  0  0  0  0  0
   39.2420   23.6880   33.9910 C   0  0  1  0  0  0  0  0  0  0  0  0
   37.9600   23.0600   33.6980 C   0  0  0  0  0  0  0  0  0  0  0  0
   37.7980   21.9560   34.5520 O   0  0  0  0  0  0  0  0  0  0  0  0
   37.9140   22.2240   35.8850 C   0  0  0  0  0  0  0  0  0  0  0  0
   39.1390   23.0540   36.2080 C   0  0  1  0  0  0  0  0  0  0  0  0
   38.8000   25.0210   35.5870 H   0  0  0  0  0  0  0  0  0  0  0  0
   40.0650   22.9650   33.8740 H   0  0  0  0  0  0  0  0  0  0  0  0
   37.0210   23.5430   33.7410 H   0  0  0  0  0  0  0  0  0  0  0  0
   38.0360   22.5870   32.6730 H   0  0  0  0  0  0  0  0  0  0  0  0
   38.0620   21.2610   36.4060 H   0  0  0  0  0  0  0  0  0  0  0  0
   36.9950   22.7640   36.2270 H   0  0  0  0  0  0  0  0  0  0  0  0
   39.0290   23.4240   37.2410 H   0  0  0  0  0  0  0  0  0  0  0  0
   40.3570   22.1630   36.1610 C   0  0  0  0  0  3  0  0  0  0  0  0
   41.6860   22.7320   36.5390 C   0  0  0  0  0  2  0  0  0  0  0  0
   41.0090   21.8070   37.4840 C   0  0  0  0  0  2  0  0  0  0  0  0
  1  2  1  0  0  0  0
  2  3  2  0  0  0  0
  2 16  1  0  0  0  0
  3 11  1  0  0  0  0
  4  5  1  0  0  0  0
  4  3  1  0  0  0  0
  5 12  1  0  0  0  0
  6  5  1  0  0  0  0
  7  8  1  0  0  0  0
  7  6  2  0  0  0  0
  8  4  2  0  0  0  0
  9  8  1  0  0  0  0
  9  1  2  0  0  0  0
 10  1  1  0  0  0  0
 13  9  1  0  0  0  0
 14 19  1  0  0  0  0
 15 16  1  0  0  0  0
 15 14  2  0  0  0  0
 16 17  2  0  0  0  0
 17 18  1  0  0  0  0
 18 22  1  0  0  0  0
 19 18  2  0  0  0  0
 20 14  1  0  0  0  0
 21 15  1  0  0  0  0
 23  6  1  0  0  0  0
 23 25  1  0  0  0  0
 24 30  1  0  0  0  0
 24 29  1  0  0  0  0
 25 31  1  6  0  0  0
 25 24  1  0  0  0  0
 26 32  1  0  0  0  0
 26 25  1  0  0  0  0
 26 27  1  0  0  0  0
 27 28  1  0  0  0  0
 28 29  1  0  0  0  0
 28 35  1  0  0  0  0
 28 34  1  0  0  0  0
 29 36  1  1  0  0  0
 33 26  1  0  0  0  0
 37 29  1  0  0  0  0
 37 38  1  0  0  0  0
 37 39  1  0  0  0  0
 38 39  1  0  0  0  0
M  END
>  <minimizedAffinity>
-5.56876183

$$$$

 OpenBabel03272510283D

 39 43  0  0  1  0  0  0  0  0999 V2000
   36.7900   27.7100   33.7460 C   0  0  0  0  0  0  0  0  0  0  0  0
   36.1320   28.0980   32.5810 C   0  0  0  0  0  0  0  0  0  0  0  0
   35.9830   27.2190   31.5120 C   0  0  0  0  0  0  0  0  0  0  0  0
   36.5210   25.9450   31.6700 C   0  0  0  0  0  0  0  0  0  0  0  0
   36.5040   24.9120   30.7790 N   0  0  0  0  0  0  0  0  0  0  0  0
   37.1400   23.8890   31.3710 C   0  0  0  0  0  0  0  0  0  0  0  0
   37.5420   24.2500   32.5740 N   0  0  0  0  0  0  0  0  0  0  0  0
   37.1790   25.5220   32.8050 C   0  0  0  0  0  0  0  0  0  0  0  0
   37.3120   26.4320   33.8630 C   0  0  0  0  0  0  0  0  0  0  0  0
   36.9270   28.3540   34.5920 H   0  0  0  0  0  0  0  0  0  0  0  0
   35.4750   27.5280   30.6210 H   0  0  0  0  0  0  0  0  0  0  0  0
   36.0820   24.9280   29.8400 H   0  0  0  0  0  0  0  0  0  0  0  0
   37.8280   26.1060   34.7560 H   0  0  0  0  0  0  0  0  0  0  0  0
   34.9480   31.5550   33.4590 C   0  0  0  0  0  0  0  0  0  0  0  0
   35.4580   30.2780   33.6370 C   0  0  0  0  0  0  0  0  0  0  0  0
   35.6130   29.4490   32.5320 C   0  0  0  0  0  0  0  0  0  0  0  0
   35.2460   29.9540   31.3180 N   0  0  0  0  0  0  0  0  0  0  0  0
   34.7520   31.1950   31.1540 C   0  0  0  0  0  0  0  0  0  0  0  0
   34.6070   31.9760   32.2010 N   0  0  0  0  0  0  0  0  0  0  0  0
   34.8230   32.2110   34.3110 H   0  0  0  0  0  0  0  0  0  0  0  0
   35.7470   29.8860   34.6070 H   0  0  0  0  0  0  0  0  0  0  0  0
   34.4720   31.5500   30.1560 H   0  0  0  0  0  0  0  0  0  0  0  0
   37.3100   22.6550   30.7400 O   0  0  0  0  0  0  0  0  0  0  0  0
   35.6080   22.0470   32.1580 N   0  0  0  0  0  0  0  0  0  0  0  0
   36.7280   21.5450   31.4060 C   0  0  1  0  0  0  0  0  0  0  0  0
   36.2990   20.5280   30.4550 C   0  0  0  0  0  0  0  0  0  0  0  0
   35.7620   19.4450   31.1710 O   0  0  0  0  0  0  0  0  0  0  0  0
   34.7540   19.7570   32.0350 C   0  0  0  0  0  0  0  0  0  0  0  0
   35.0840   20.9460   32.9120 C   0  0  1  0  0  0  0  0  0  0  0  0
   34.9670   22.6850   31.7570 H   0  0  0  0  0  0  0  0  0  0  0  0
   37.4600   21.1300   32.1160 H   0  0  0  0  0  0  0  0  0  0  0  0
   35.6010   20.6780   29.6760 H   0  0  0  0  0  0  0  0  0  0  0  0
   37.2280   20.0900   29.9790 H   0  0  0  0  0  0  0  0  0  0  0  0
   34.6330   18.9030   32.7260 H   0  0  0  0  0  0  0  0  0  0  0  0
   33.8260   19.9710   31.4470 H   0  0  0  0  0  0  0  0  0  0  0  0
   34.1490   21.2760   33.3950 H   0  0  0  0  0  0  0  0  0  0  0  0
   36.0360   20.5030   33.9970 C   0  0  0  0  0  3  0  0  0  0  0  0
   36.7090   21.5390   34.8380 C   0  0  0  0  0  2  0  0  0  0  0  0
   35.6090   20.7380   35.4340 C   0  0  0  0  0  2  0  0  0  0  0  0
  1  9  1  0  0  0  0
  1 10  1  0  0  0  0
  2  1  2  0  0  0  0
  3  4  2  0  0  0  0
  3  2  1  0  0  0  0
  4  8  1  0  0  0  0
  5  6  1  0  0  0  0
  5  4  1  0  0  0  0
  6  7  2  0  0  0  0
  7  8  1  0  0  0  0
  8  9  2  0  0  0  0
  9 13  1  0  0  0  0
 11  3  1  0  0  0  0
 12  5  1  0  0  0  0
 14 15  1  0  0  0  0
 14 20  1  0  0  0  0
 15 21  1  0  0  0  0
 16  2  1  0  0  0  0
 16 15  2  0  0  0  0
 17 16  1  0  0  0  0
 18 17  2  0  0  0  0
 18 19  1  0  0  0  0
 19 14  2  0  0  0  0
 22 18  1  0  0  0  0
 23  6  1  0  0  0  0
 23 25  1  0  0  0  0
 24 29  1  0  0  0  0
 25 31  1  1  0  0  0
 25 24  1  0  0  0  0
 26 27  1  0  0  0  0
 26 25  1  0  0  0  0
 27 28  1  0  0  0  0
 28 34  1  0  0  0  0
 28 29  1  0  0  0  0
 29 36  1  1  0  0  0
 29 37  1  0  0  0  0
 30 24  1  0  0  0  0
 32 26  1  0  0  0  0
 33 26  1  0  0  0  0
 35 28  1  0  0  0  0
 37 38  1  0  0  0  0
 37 39  1  0  0  0  0
 38 39  1  0  0  0  0
M  END
>  <minimizedAffinity>
-5.56205511

$$$$

 OpenBabel03272510283D

 39 43  0  0  1  0  0  0  0  0999 V2000
   37.9580   23.6480   33.8100 C   0  0  0  0  0  0  0  0  0  0  0  0
   38.1050   24.5040   34.9000 C   0  0  0  0  0  0  0  0  0  0  0  0
   37.7470   25.8470   34.8120 C   0  0  0  0  0  0  0  0  0  0  0  0
   37.2400   26.2810   33.5910 C   0  0  0  0  0  0  0  0  0  0  0  0
   36.8190   27.5350   33.2570 N   0  0  0  0  0  0  0  0  0  0  0  0
   36.4140   27.4730   31.9790 C   0  0  0  0  0  0  0  0  0  0  0  0
   36.5680   26.2450   31.5230 N   0  0  0  0  0  0  0  0  0  0  0  0
   37.0790   25.4670   32.4910 C   0  0  0  0  0  0  0  0  0  0  0  0
   37.4490   24.1200   32.6120 C   0  0  0  0  0  0  0  0  0  0  0  0
   38.2210   22.6090   33.8340 H   0  0  0  0  0  0  0  0  0  0  0  0
   37.8640   26.4960   35.6560 H   0  0  0  0  0  0  0  0  0  0  0  0
   36.8190   28.3590   33.8740 H   0  0  0  0  0  0  0  0  0  0  0  0
   37.3250   23.4760   31.7510 H   0  0  0  0  0  0  0  0  0  0  0  0
   38.6680   23.4660   38.4670 C   0  0  0  0  0  0  0  0  0  0  0  0
   38.0520   24.0520   37.3730 C   0  0  0  0  0  0  0  0  0  0  0  0
   38.6430   23.9390   36.1190 C   0  0  0  0  0  0  0  0  0  0  0  0
   39.8160   23.2450   36.0440 N   0  0  0  0  0  0  0  0  0  0  0  0
   40.4080   22.6780   37.1120 C   0  0  0  0  0  0  0  0  0  0  0  0
   39.8450   22.7870   38.2950 N   0  0  0  0  0  0  0  0  0  0  0  0
   38.2170   23.5460   39.4480 H   0  0  0  0  0  0  0  0  0  0  0  0
   37.1180   24.6020   37.4420 H   0  0  0  0  0  0  0  0  0  0  0  0
   41.3500   22.1320   36.9960 H   0  0  0  0  0  0  0  0  0  0  0  0
   35.9140   28.5860   31.3030 O   0  0  0  0  0  0  0  0  0  0  0  0
   36.9390   28.4300   29.2530 N   0  0  0  0  0  0  0  0  0  0  0  0
   36.8320   29.2380   30.4390 C   0  0  1  0  0  0  0  0  0  0  0  0
   36.3800   30.5830   30.1110 C   0  0  0  0  0  0  0  0  0  0  0  0
   37.3410   31.1880   29.2830 O   0  0  0  0  0  0  0  0  0  0  0  0
   37.6600   30.4940   28.1520 C   0  0  0  0  0  0  0  0  0  0  0  0
   37.9440   29.0320   28.4260 C   0  0  1  0  0  0  0  0  0  0  0  0
   36.1350   28.0580   28.8130 H   0  0  0  0  0  0  0  0  0  0  0  0
   37.8200   29.2670   30.9250 H   0  0  0  0  0  0  0  0  0  0  0  0
   35.4650   30.8210   29.6380 H   0  0  0  0  0  0  0  0  0  0  0  0
   36.4270   31.2020   31.0570 H   0  0  0  0  0  0  0  0  0  0  0  0
   38.6060   30.9120   27.7620 H   0  0  0  0  0  0  0  0  0  0  0  0
   36.8150   30.5810   27.4230 H   0  0  0  0  0  0  0  0  0  0  0  0
   37.9520   28.5060   27.4580 H   0  0  0  0  0  0  0  0  0  0  0  0
   39.3210   28.9080   29.0330 C   0  0  0  0  0  3  0  0  0  0  0  0
   39.8170   27.5570   29.4330 C   0  0  0  0  0  2  0  0  0  0  0  0
   40.3790   28.1930   28.2140 C   0  0  0  0  0  2  0  0  0  0  0  0
  1 10  1  0  0  0  0
  1  2  1  0  0  0  0
  2 16  1  0  0  0  0
  3  2  2  0  0  0  0
  3 11  1  0  0  0  0
  4  3  1  0  0  0  0
  5  4  1  0  0  0  0
  5 12  1  0  0  0  0
  6  5  1  0  0  0  0
  7  6  2  0  0  0  0
  7  8  1  0  0  0  0
  8  9  1  0  0  0  0
  8  4  2  0  0  0  0
  9  1  2  0  0  0  0
 13  9  1  0  0  0  0
 14 20  1  0  0  0  0
 15 21  1  0  0  0  0
 15 14  2  0  0  0  0
 16 15  1  0  0  0  0
 17 16  2  0  0  0  0
 17 18  1  0  0  0  0
 18 19  2  0  0  0  0
 19 14  1  0  0  0  0
 22 18  1  0  0  0  0
 23  6  1  0  0  0  0
 24 25  1  0  0  0  0
 25 31  1  1  0  0  0
 25 23  1  0  0  0  0
 26 25  1  0  0  0  0
 26 33  1  0  0  0  0
 27 26  1  0  0  0  0
 28 29  1  0  0  0  0
 28 27  1  0  0  0  0
 29 36  1  6  0  0  0
 29 37  1  0  0  0  0
 29 24  1  0  0  0  0
 30 24  1  0  0  0  0
 32 26  1  0  0  0  0
 34 28  1  0  0  0  0
 35 28  1  0  0  0  0
 37 38  1  0  0  0  0
 39 37  1  0  0  0  0
 39 38  1  0  0  0  0
M  END
>  <minimizedAffinity>
-5.52805233

$$$$

 OpenBabel03272510283D

 39 43  0  0  1  0  0  0  0  0999 V2000
   37.9640   24.7260   33.7770 C   0  0  0  0  0  0  0  0  0  0  0  0
   37.9570   25.2680   35.0610 C   0  0  0  0  0  0  0  0  0  0  0  0
   37.4410   26.5380   35.3030 C   0  0  0  0  0  0  0  0  0  0  0  0
   36.9370   27.2280   34.2040 C   0  0  0  0  0  0  0  0  0  0  0  0
   36.3800   28.4730   34.1800 N   0  0  0  0  0  0  0  0  0  0  0  0
   36.0400   28.7140   32.9040 C   0  0  0  0  0  0  0  0  0  0  0  0
   36.3640   27.6790   32.1540 N   0  0  0  0  0  0  0  0  0  0  0  0
   36.9250   26.7280   32.9200 C   0  0  0  0  0  0  0  0  0  0  0  0
   37.4520   25.4460   32.7100 C   0  0  0  0  0  0  0  0  0  0  0  0
   38.3510   23.7540   33.5470 H   0  0  0  0  0  0  0  0  0  0  0  0
   37.4410   26.9450   36.2930 H   0  0  0  0  0  0  0  0  0  0  0  0
   36.2520   29.0960   34.9900 H   0  0  0  0  0  0  0  0  0  0  0  0
   37.4460   25.0480   31.7040 H   0  0  0  0  0  0  0  0  0  0  0  0
   40.0440   22.8930   37.0910 C   0  0  0  0  0  0  0  0  0  0  0  0
   39.6120   23.6200   35.9940 C   0  0  0  0  0  0  0  0  0  0  0  0
   38.5080   24.4570   36.1260 C   0  0  0  0  0  0  0  0  0  0  0  0
   37.9090   24.5090   37.3520 N   0  0  0  0  0  0  0  0  0  0  0  0
   38.3360   23.7980   38.4120 C   0  0  0  0  0  0  0  0  0  0  0  0
   39.3790   23.0090   38.2830 N   0  0  0  0  0  0  0  0  0  0  0  0
   40.9020   22.2390   37.0020 H   0  0  0  0  0  0  0  0  0  0  0  0
   40.0950   23.5730   35.0230 H   0  0  0  0  0  0  0  0  0  0  0  0
   37.8180   23.8770   39.3730 H   0  0  0  0  0  0  0  0  0  0  0  0
   35.4370   29.9090   32.5080 O   0  0  0  0  0  0  0  0  0  0  0  0
   35.5980   30.8510   30.4200 N   0  0  0  0  0  0  0  0  0  0  0  0
   36.2390   30.7600   31.7050 C   0  0  1  0  0  0  0  0  0  0  0  0
   36.3750   32.0780   32.3100 C   0  0  0  0  0  0  0  0  0  0  0  0
   37.2020   32.8640   31.4900 O   0  0  0  0  0  0  0  0  0  0  0  0
   36.8080   32.9660   30.1880 C   0  0  0  0  0  0  0  0  0  0  0  0
   36.4610   31.6250   29.5760 C   0  0  1  0  0  0  0  0  0  0  0  0
   34.6220   30.9920   30.3430 H   0  0  0  0  0  0  0  0  0  0  0  0
   37.2260   30.2930   31.5640 H   0  0  0  0  0  0  0  0  0  0  0  0
   35.5740   32.7270   32.5450 H   0  0  0  0  0  0  0  0  0  0  0  0
   36.9840   31.9600   33.2570 H   0  0  0  0  0  0  0  0  0  0  0  0
   37.6700   33.3430   29.6090 H   0  0  0  0  0  0  0  0  0  0  0  0
   35.9190   33.6450   30.1310 H   0  0  0  0  0  0  0  0  0  0  0  0
   35.9330   31.8170   28.6280 H   0  0  0  0  0  0  0  0  0  0  0  0
   37.7410   30.8910   29.2540 C   0  0  0  0  0  3  0  0  0  0  0  0
   37.6630   29.4900   28.7430 C   0  0  0  0  0  2  0  0  0  0  0  0
   38.0140   30.5780   27.7950 C   0  0  0  0  0  2  0  0  0  0  0  0
  1  2  1  0  0  0  0
  2  3  2  0  0  0  0
  2 16  1  0  0  0  0
  3 11  1  0  0  0  0
  4  3  1  0  0  0  0
  5  4  1  0  0  0  0
  5 12  1  0  0  0  0
  6  5  1  0  0  0  0
  7  6  2  0  0  0  0
  7  8  1  0  0  0  0
  8  4  2  0  0  0  0
  9  8  1  0  0  0  0
  9  1  2  0  0  0  0
 10  1  1  0  0  0  0
 13  9  1  0  0  0  0
 14 19  1  0  0  0  0
 15 16  1  0  0  0  0
 15 14  2  0  0  0  0
 16 17  2  0  0  0  0
 17 18  1  0  0  0  0
 18 22  1  0  0  0  0
 19 18  2  0  0  0  0
 20 14  1  0  0  0  0
 21 15  1  0  0  0  0
 23  6  1  0  0  0  0
 24 25  1  0  0  0  0
 25 31  1  6  0  0  0
 25 26  1  0  0  0  0
 25 23  1  0  0  0  0
 26 32  1  0  0  0  0
 26 33  1  0  0  0  0
 27 26  1  0  0  0  0
 28 27  1  0  0  0  0
 29 36  1  6  0  0  0
 29 28  1  0  0  0  0
 29 24  1  0  0  0  0
 30 24  1  0  0  0  0
 34 28  1  0  0  0  0
 35 28  1  0  0  0  0
 37 29  1  0  0  0  0
 38 37  1  0  0  0  0
 39 38  1  0  0  0  0
 39 37  1  0  0  0  0
M  END
>  <minimizedAffinity>
-5.47917366

$$$$

 OpenBabel03272510283D

 39 43  0  0  1  0  0  0  0  0999 V2000
   34.3400   30.8020   32.7880 C   0  0  0  0  0  0  0  0  0  0  0  0
   34.7220   30.1750   33.9720 C   0  0  0  0  0  0  0  0  0  0  0  0
   35.6730   29.1580   33.9720 C   0  0  0  0  0  0  0  0  0  0  0  0
   36.2150   28.8080   32.7390 C   0  0  0  0  0  0  0  0  0  0  0  0
   37.1550   27.8550   32.4780 N   0  0  0  0  0  0  0  0  0  0  0  0
   37.3650   27.8790   31.1520 C   0  0  0  0  0  0  0  0  0  0  0  0
   36.5980   28.7980   30.5980 N   0  0  0  0  0  0  0  0  0  0  0  0
   35.8640   29.4030   31.5470 C   0  0  0  0  0  0  0  0  0  0  0  0
   34.9040   30.4230   31.5810 C   0  0  0  0  0  0  0  0  0  0  0  0
   33.6120   31.5870   32.7420 H   0  0  0  0  0  0  0  0  0  0  0  0
   35.9590   28.6830   34.8880 H   0  0  0  0  0  0  0  0  0  0  0  0
   37.6080   27.2430   33.1720 H   0  0  0  0  0  0  0  0  0  0  0  0
   34.6230   30.8940   30.6480 H   0  0  0  0  0  0  0  0  0  0  0  0
   32.3420   30.7100   36.8300 C   0  0  0  0  0  0  0  0  0  0  0  0
   32.8400   30.2050   35.6390 C   0  0  0  0  0  0  0  0  0  0  0  0
   34.0890   30.6240   35.1940 C   0  0  0  0  0  0  0  0  0  0  0  0
   34.7580   31.5240   35.9730 N   0  0  0  0  0  0  0  0  0  0  0  0
   34.2660   32.0100   37.1280 C   0  0  0  0  0  0  0  0  0  0  0  0
   33.0860   31.6110   37.5450 N   0  0  0  0  0  0  0  0  0  0  0  0
   31.3710   30.3920   37.1880 H   0  0  0  0  0  0  0  0  0  0  0  0
   32.3010   29.4890   35.0270 H   0  0  0  0  0  0  0  0  0  0  0  0
   34.8450   32.7310   37.7130 H   0  0  0  0  0  0  0  0  0  0  0  0
   38.2760   27.0270   30.5280 O   0  0  0  0  0  0  0  0  0  0  0  0
   37.8770   24.8140   30.0630 N   0  0  0  0  0  0  0  0  0  0  0  0
   38.3590   25.7190   31.0720 C   0  0  1  0  0  0  0  0  0  0  0  0
   39.7280   25.3930   31.4480 C   0  0  0  0  0  0  0  0  0  0  0  0
   39.7430   24.1040   32.0070 O   0  0  0  0  0  0  0  0  0  0  0  0
   39.2070   23.1210   31.2270 C   0  0  0  0  0  0  0  0  0  0  0  0
   37.8620   23.5050   30.6480 C   0  0  1  0  0  0  0  0  0  0  0  0
   38.1620   24.8990   29.1200 H   0  0  0  0  0  0  0  0  0  0  0  0
   37.6890   25.6510   31.9430 H   0  0  0  0  0  0  0  0  0  0  0  0
   40.5560   25.3850   30.7910 H   0  0  0  0  0  0  0  0  0  0  0  0
   40.0120   26.0570   32.3190 H   0  0  0  0  0  0  0  0  0  0  0  0
   39.0130   22.2500   31.8780 H   0  0  0  0  0  0  0  0  0  0  0  0
   39.9200   22.8890   30.3960 H   0  0  0  0  0  0  0  0  0  0  0  0
   37.6190   22.7780   29.8570 H   0  0  0  0  0  0  0  0  0  0  0  0
   36.8130   23.3830   31.7280 C   0  0  0  0  0  3  0  0  0  0  0  0
   35.4140   23.8130   31.4310 C   0  0  0  0  0  2  0  0  0  0  0  0
   35.7120   22.3610   31.5160 C   0  0  0  0  0  2  0  0  0  0  0  0
  1  2  1  0  0  0  0
  2  3  2  0  0  0  0
  2 16  1  0  0  0  0
  3 11  1  0  0  0  0
  4  3  1  0  0  0  0
  5  4  1  0  0  0  0
  5 12  1  0  0  0  0
  6  5  1  0  0  0  0
  7  6  2  0  0  0  0
  7  8  1  0  0  0  0
  8  9  1  0  0  0  0
  8  4  2  0  0  0  0
  9  1  2  0  0  0  0
 10  1  1  0  0  0  0
 13  9  1  0  0  0  0
 14 20  1  0  0  0  0
 14 19  1  0  0  0  0
 15 14  2  0  0  0  0
 16 15  1  0  0  0  0
 16 17  2  0  0  0  0
 17 18  1  0  0  0  0
 18 19  2  0  0  0  0
 18 22  1  0  0  0  0
 21 15  1  0  0  0  0
 23 25  1  0  0  0  0
 23  6  1  0  0  0  0
 24 29  1  0  0  0  0
 24 25  1  0  0  0  0
 25 26  1  0  0  0  0
 25 31  1  1  0  0  0
 26 27  1  0  0  0  0
 26 33  1  0  0  0  0
 28 34  1  0  0  0  0
 28 27  1  0  0  0  0
 29 36  1  6  0  0  0
 29 28  1  0  0  0  0
 29 37  1  0  0  0  0
 30 24  1  0  0  0  0
 32 26  1  0  0  0  0
 35 28  1  0  0  0  0
 38 39  1  0  0  0  0
 38 37  1  0  0  0  0
 39 37  1  0  0  0  0
M  END
>  <minimizedAffinity>
-5.46064711

$$$$

 OpenBabel03272510283D

 39 43  0  0  1  0  0  0  0  0999 V2000
   35.6330   30.3240   32.6380 C   0  0  0  0  0  0  0  0  0  0  0  0
   35.6560   29.7490   33.9070 C   0  0  0  0  0  0  0  0  0  0  0  0
   36.2310   28.4990   34.1200 C   0  0  0  0  0  0  0  0  0  0  0  0
   36.7760   27.8640   33.0070 C   0  0  0  0  0  0  0  0  0  0  0  0
   37.3920   26.6480   32.9550 N   0  0  0  0  0  0  0  0  0  0  0  0
   37.7520   26.4570   31.6760 C   0  0  0  0  0  0  0  0  0  0  0  0
   37.3840   27.4950   30.9510 N   0  0  0  0  0  0  0  0  0  0  0  0
   36.7730   28.3980   31.7370 C   0  0  0  0  0  0  0  0  0  0  0  0
   36.1860   29.6580   31.5570 C   0  0  0  0  0  0  0  0  0  0  0  0
   35.2000   31.2820   32.4300 H   0  0  0  0  0  0  0  0  0  0  0  0
   36.2440   28.0670   35.0990 H   0  0  0  0  0  0  0  0  0  0  0  0
   37.5440   26.0110   33.7500 H   0  0  0  0  0  0  0  0  0  0  0  0
   36.1800   30.0820   30.5610 H   0  0  0  0  0  0  0  0  0  0  0  0
   35.0620   32.0520   36.8160 C   0  0  0  0  0  0  0  0  0  0  0  0
   35.7490   31.3870   35.8120 C   0  0  0  0  0  0  0  0  0  0  0  0
   35.0590   30.5040   34.9880 C   0  0  0  0  0  0  0  0  0  0  0  0
   33.7240   30.3460   35.2240 N   0  0  0  0  0  0  0  0  0  0  0  0
   33.0650   30.9960   36.2010 C   0  0  0  0  0  0  0  0  0  0  0  0
   33.7200   31.8290   36.9780 N   0  0  0  0  0  0  0  0  0  0  0  0
   35.5870   32.7420   37.4640 H   0  0  0  0  0  0  0  0  0  0  0  0
   36.8110   31.5200   35.6320 H   0  0  0  0  0  0  0  0  0  0  0  0
   31.9930   30.8300   36.3480 H   0  0  0  0  0  0  0  0  0  0  0  0
   38.4150   25.3040   31.2550 O   0  0  0  0  0  0  0  0  0  0  0  0
   37.7720   23.4820   32.4970 N   0  0  0  0  0  0  0  0  0  0  0  0
   37.6250   24.1260   31.2180 C   0  0  1  0  0  0  0  0  0  0  0  0
   36.2270   24.4380   30.9540 C   0  0  0  0  0  0  0  0  0  0  0  0
   35.5030   23.2360   30.8980 O   0  0  0  0  0  0  0  0  0  0  0  0
   35.6210   22.4300   31.9930 C   0  0  0  0  0  0  0  0  0  0  0  0
   37.0600   22.2400   32.4250 C   0  0  1  0  0  0  0  0  0  0  0  0
   37.7240   23.9990   33.3390 H   0  0  0  0  0  0  0  0  0  0  0  0
   38.0260   23.4500   30.4470 H   0  0  0  0  0  0  0  0  0  0  0  0
   35.6190   25.0640   31.5510 H   0  0  0  0  0  0  0  0  0  0  0  0
   36.1580   24.8330   29.8960 H   0  0  0  0  0  0  0  0  0  0  0  0
   35.2620   21.4250   31.7060 H   0  0  0  0  0  0  0  0  0  0  0  0
   35.0320   22.8750   32.8350 H   0  0  0  0  0  0  0  0  0  0  0  0
   37.0500   21.7910   33.4310 H   0  0  0  0  0  0  0  0  0  0  0  0
   37.7250   21.2630   31.4860 C   0  0  0  0  0  3  0  0  0  0  0  0
   39.0800   20.7350   31.8320 C   0  0  0  0  0  2  0  0  0  0  0  0
   37.9050   19.8390   31.9790 C   0  0  0  0  0  2  0  0  0  0  0  0
  1  2  1  0  0  0  0
  2  3  2  0  0  0  0
  2 16  1  0  0  0  0
  3 11  1  0  0  0  0
  4  3  1  0  0  0  0
  5  4  1  0  0  0  0
  5 12  1  0  0  0  0
  6  5  1  0  0  0  0
  7  6  2  0  0  0  0
  7  8  1  0  0  0  0
  8  4  2  0  0  0  0
  9  8  1  0  0  0  0
  9  1  2  0  0  0  0
 10  1  1  0  0  0  0
 13  9  1  0  0  0  0
 14 19  1  0  0  0  0
 14 20  1  0  0  0  0
 15 14  2  0  0  0  0
 16 17  2  0  0  0  0
 16 15  1  0  0  0  0
 17 18  1  0  0  0  0
 18 22  1  0  0  0  0
 18 19  2  0  0  0  0
 21 15  1  0  0  0  0
 23  6  1  0  0  0  0
 24 30  1  0  0  0  0
 25 31  1  6  0  0  0
 25 23  1  0  0  0  0
 25 24  1  0  0  0  0
 26 25  1  0  0  0  0
 26 32  1  0  0  0  0
 27 26  1  0  0  0  0
 27 28  1  0  0  0  0
 28 29  1  0  0  0  0
 28 35  1  0  0  0  0
 29 24  1  0  0  0  0
 29 36  1  1  0  0  0
 33 26  1  0  0  0  0
 34 28  1  0  0  0  0
 37 38  1  0  0  0  0
 37 39  1  0  0  0  0
 37 29  1  0  0  0  0
 38 39  1  0  0  0  0
M  END
>  <minimizedAffinity>
-5.43630075

$$$$
