
 OpenBabel03272503273D

 24 26  0  0  1  0  0  0  0  0999 V2000
   36.5840   29.4900   49.3630 N   0  0  0  0  0  0  0  0  0  0  0  0
   37.7190   30.1630   48.7910 C   0  0  0  0  0  0  0  0  0  0  0  0
   38.3600   30.8210   50.0050 C   0  0  2  0  0  0  0  0  0  0  0  0
   37.4590   30.5260   51.1780 C   0  0  0  0  0  0  0  0  0  0  0  0
   36.9450   29.1510   50.7390 C   0  0  0  0  0  0  0  0  0  0  0  0
   38.4090   29.4780   48.2590 H   0  0  0  0  0  0  0  0  0  0  0  0
   37.3440   30.9980   48.1650 H   0  0  0  0  0  0  0  0  0  0  0  0
   39.3030   30.2690   50.1880 H   0  0  0  0  0  0  0  0  0  0  0  0
   36.5420   31.1560   51.2080 H   0  0  0  0  0  0  0  0  0  0  0  0
   37.9980   30.4710   52.1380 H   0  0  0  0  0  0  0  0  0  0  0  0
   36.0190   28.8840   51.2990 H   0  0  0  0  0  0  0  0  0  0  0  0
   37.7230   28.3830   50.7820 H   0  0  0  0  0  0  0  0  0  0  0  0
   35.3400   29.1960   48.7440 C   0  0  0  0  0  0  0  0  0  0  0  0
   34.9740   29.9940   47.6640 C   0  0  0  0  0  0  0  0  0  0  0  0
   33.7560   29.7490   47.0160 C   0  0  0  0  0  0  0  0  0  0  0  0
   32.9940   28.7120   47.5030 N   0  0  0  0  0  0  0  0  0  0  0  0
   33.3890   27.9580   48.5600 C   0  0  0  0  0  0  0  0  0  0  0  0
   34.5610   28.2010   49.1790 N   0  0  0  0  0  0  0  0  0  0  0  0
   35.5340   30.8110   47.2490 H   0  0  0  0  0  0  0  0  0  0  0  0
   33.4020   30.3270   46.1680 H   0  0  0  0  0  0  0  0  0  0  0  0
   32.7630   27.1590   48.9090 H   0  0  0  0  0  0  0  0  0  0  0  0
   38.6450   32.2650   49.7970 C   0  0  0  0  0  0  0  0  0  0  0  0
   37.5620   33.1880   49.3980 C   0  0  0  0  0  0  0  0  0  0  0  0
   38.7490   32.9020   48.4810 C   0  0  0  0  0  0  0  0  0  0  0  0
  1  5  1  0  0  0  0
  2  1  1  0  0  0  0
  2  3  1  0  0  0  0
  3  8  1  1  0  0  0
  3  4  1  0  0  0  0
  4  9  1  0  0  0  0
  4 10  1  0  0  0  0
  5 12  1  0  0  0  0
  5  4  1  0  0  0  0
  5 11  1  0  0  0  0
  6  2  1  0  0  0  0
  7  2  1  0  0  0  0
 13 18  1  0  0  0  0
 13  1  1  0  0  0  0
 14 13  2  0  0  0  0
 15 16  2  0  0  0  0
 15 14  1  0  0  0  0
 16 17  1  0  0  0  0
 17 21  1  0  0  0  0
 17 18  2  0  0  0  0
 19 14  1  0  0  0  0
 20 15  1  0  0  0  0
 22  3  1  0  0  0  0
 23 22  1  0  0  0  0
 24 23  1  0  0  0  0
 24 22  1  0  0  0  0
M  END
>  <minimizedAffinity>
-5.17091513

>  <minimizedRMSD>
0.40941292

$$$$
