REMARK  Name = 
REMARK  3 active torsions:
REMARK  status: ('A' for Active; 'I' for Inactive)
REMARK    1  A    between atoms: C_3  and  C_12
REMARK    2  A    between atoms: C_5  and  C_14
REMARK    3  A    between atoms: C_18  and  C_28
REMARK                            x       y       z     vdW  Elec       q    Type
REMARK                         _______ _______ _______ _____ _____    ______ ____
ROOT
ATOM      1 BR   UNL     1      37.312  29.336  51.025  0.00  0.00    +0.000 Br
ATOM      2  C   UNL     1      35.965  29.330  49.678  0.00  0.00    +0.000 A 
ATOM      3  C   UNL     1      35.990  30.255  48.638  0.00  0.00    +0.000 A 
ATOM      4  C   UNL     1      34.985  30.188  47.705  0.00  0.00    +0.000 A 
ATOM      5  C   UNL     1      33.966  29.265  47.745  0.00  0.00    +0.000 A 
ATOM      6  C   UNL     1      33.967  28.365  48.783  0.00  0.00    +0.000 A 
ATOM      7  C   UNL     1      34.957  28.409  49.727  0.00  0.00    +0.000 A 
ATOM      8  H   UNL     1      35.013  30.911  46.900  0.00  0.00    +0.000 HD
ATOM      9  H   UNL     1      33.183  27.621  48.853  0.00  0.00    +0.000 HD
ATOM     10  H   UNL     1      34.931  27.687  50.532  0.00  0.00    +0.000 HD
ENDROOT
BRANCH   3  15
ATOM     11  C   UNL     1      37.991  33.197  49.465  0.00  0.00    +0.000 A 
ATOM     12  C   UNL     1      39.023  33.179  48.480  0.00  0.00    +0.000 A 
ATOM     13  C   UNL     1      39.005  32.153  47.553  0.00  0.00    +0.000 A 
ATOM     14  N   UNL     1      38.017  31.200  47.604  0.00  0.00    +0.000 NA
ATOM     15  C   UNL     1      37.054  31.253  48.556  0.00  0.00    +0.000 A 
ATOM     16  N   UNL     1      37.047  32.250  49.480  0.00  0.00    +0.000 NA
ATOM     17  H   UNL     1      37.937  33.962  50.219  0.00  0.00    +0.000 HD
ATOM     18  H   UNL     1      39.758  33.949  48.498  0.00  0.00    +0.000 HD
ATOM     19  H   UNL     1      39.752  32.095  46.800  0.00  0.00    +0.000 HD
ENDBRANCH   3  15
BRANCH   5  20
ATOM     20  C   UNL     1      32.900  29.196  46.754  0.00  0.00    +0.000 A 
ATOM     21  C   UNL     1      32.255  28.045  46.371  0.00  0.00    +0.000 A 
ATOM     22  C   UNL     1      31.244  28.028  45.422  0.00  0.00    +0.000 A 
ATOM     23  N   UNL     1      30.874  29.173  44.849  0.00  0.00    +0.000 NA
ATOM     24  C   UNL     1      31.499  30.321  45.214  0.00  0.00    +0.000 A 
ATOM     25  N   UNL     1      32.465  30.306  46.127  0.00  0.00    +0.000 NA
ATOM     26  H   UNL     1      32.559  27.109  46.840  0.00  0.00    +0.000 HD
ATOM     27  H   UNL     1      30.805  27.056  45.197  0.00  0.00    +0.000 HD
BRANCH  24  28
ATOM     28  C   UNL     1      31.109  31.623  44.592  0.00  0.00    +0.000 C 
ATOM     29  C   UNL     1      32.161  32.596  44.203  0.00  0.00    +0.000 C 
ATOM     30  C   UNL     1      31.270  32.903  45.351  0.00  0.00    +0.000 C 
ENDBRANCH  24  28
ENDBRANCH   5  20
TORSDOF 3
