
 OpenBabel03272506033D

 40 43  0  0  1  0  0  0  0  0999 V2000
   37.8440   26.3010   33.1780 C   0  0  2  0  0  0  0  0  0  0  0  0
   38.9260   25.4890   33.7230 C   0  0  0  0  0  0  0  0  0  0  0  0
   38.7710   25.2450   35.2550 C   0  0  2  0  0  0  0  0  0  0  0  0
   38.7250   26.4610   36.0300 C   0  0  0  0  0  0  0  0  0  0  0  0
   37.9200   27.5790   35.3710 C   0  0  0  0  0  0  0  0  0  0  0  0
   37.0580   27.0480   34.2640 C   0  0  0  0  0  0  0  0  0  0  0  0
   38.2500   27.1460   32.5450 H   0  0  0  0  0  0  0  0  0  0  0  0
   39.8870   26.1130   33.7020 H   0  0  0  0  0  0  0  0  0  0  0  0
   39.2080   24.5400   33.3330 H   0  0  0  0  0  0  0  0  0  0  0  0
   37.8810   24.6030   35.3910 H   0  0  0  0  0  0  0  0  0  0  0  0
   39.7330   26.8900   36.1870 H   0  0  0  0  0  0  0  0  0  0  0  0
   38.3520   26.2350   37.0520 H   0  0  0  0  0  0  0  0  0  0  0  0
   37.2210   27.9550   36.1450 H   0  0  0  0  0  0  0  0  0  0  0  0
   38.5340   28.4330   35.0590 H   0  0  0  0  0  0  0  0  0  0  0  0
   36.5450   27.8960   33.7870 H   0  0  0  0  0  0  0  0  0  0  0  0
   36.3130   26.3430   34.7020 H   0  0  0  0  0  0  0  0  0  0  0  0
   38.3230   23.0150   37.1390 Cl  0  0  0  0  0  0  0  0  0  0  0  0
   39.8970   23.3940   36.4940 C   0  0  0  0  0  0  0  0  0  0  0  0
   39.9700   24.4240   35.5910 C   0  0  0  0  0  0  0  0  0  0  0  0
   41.2500   24.6340   35.0970 C   0  0  0  0  0  0  0  0  0  0  0  0
   42.3460   23.8850   35.4760 C   0  0  0  0  0  0  0  0  0  0  0  0
   42.1840   22.8540   36.4040 C   0  0  0  0  0  0  0  0  0  0  0  0
   40.9150   22.6070   36.9250 C   0  0  0  0  0  0  0  0  0  0  0  0
   41.3940   25.4280   34.3740 H   0  0  0  0  0  0  0  0  0  0  0  0
   43.2980   24.1250   35.0380 H   0  0  0  0  0  0  0  0  0  0  0  0
   43.0310   22.2590   36.7110 H   0  0  0  0  0  0  0  0  0  0  0  0
   40.7520   21.5590   37.8690 N   0  0  0  0  0  0  0  0  0  0  0  0
   39.9460   21.5800   38.5620 H   0  0  0  0  0  0  0  0  0  0  0  0
   41.4100   20.7580   37.9000 H   0  0  0  0  0  0  0  0  0  0  0  0
   36.8630   25.6060   32.3520 C   0  0  0  0  0  0  0  0  0  0  0  0
   35.9770   26.4460   31.6950 C   0  0  0  0  0  0  0  0  0  0  0  0
   35.0160   25.8890   30.8600 C   0  0  0  0  0  0  0  0  0  0  0  0
   34.9890   24.4970   30.7230 N   0  0  0  0  0  0  0  0  0  0  0  0
   35.8670   23.7170   31.3790 C   0  0  0  0  0  0  0  0  0  0  0  0
   36.7730   24.3010   32.1720 N   0  0  0  0  0  0  0  0  0  0  0  0
   35.7670   27.5040   31.6140 H   0  0  0  0  0  0  0  0  0  0  0  0
   34.2420   26.2970   30.2560 H   0  0  0  0  0  0  0  0  0  0  0  0
   35.8420   22.2380   31.2370 C   0  0  0  0  0  3  0  0  0  0  0  0
   36.6290   21.3600   32.1080 C   0  0  0  0  0  2  0  0  0  0  0  0
   35.1300   21.5350   32.3820 C   0  0  0  0  0  2  0  0  0  0  0  0
  1  7  1  6  0  0  0
  1  2  1  0  0  0  0
  1  6  1  0  0  0  0
  2  3  1  0  0  0  0
  3 10  1  1  0  0  0
  3 19  1  0  0  0  0
  3  4  1  0  0  0  0
  4 11  1  0  0  0  0
  4 12  1  0  0  0  0
  5  4  1  0  0  0  0
  5 13  1  0  0  0  0
  6 16  1  0  0  0  0
  6  5  1  0  0  0  0
  8  2  1  0  0  0  0
  9  2  1  0  0  0  0
 14  5  1  0  0  0  0
 15  6  1  0  0  0  0
 18 23  1  0  0  0  0
 18 17  1  0  0  0  0
 19 18  2  0  0  0  0
 20 21  2  0  0  0  0
 20 19  1  0  0  0  0
 21 22  1  0  0  0  0
 22 26  1  0  0  0  0
 22 23  2  0  0  0  0
 23 27  1  0  0  0  0
 24 20  1  0  0  0  0
 25 21  1  0  0  0  0
 27 29  1  0  0  0  0
 27 28  1  0  0  0  0
 30  1  1  0  0  0  0
 31 30  2  0  0  0  0
 32 31  1  0  0  0  0
 33 32  2  0  0  0  0
 33 34  1  0  0  0  0
 34 35  2  0  0  0  0
 35 30  1  0  0  0  0
 36 31  1  0  0  0  0
 37 32  1  0  0  0  0
 38 34  1  0  0  0  0
 38 39  1  0  0  0  0
 38 40  1  0  0  0  0
 39 40  1  0  0  0  0
M  END
>  <minimizedAffinity>
-6.5492115

$$$$

 OpenBabel03272506033D

 40 43  0  0  1  0  0  0  0  0999 V2000
   36.4490   28.7500   32.8160 C   0  0  2  0  0  0  0  0  0  0  0  0
   35.6950   29.2580   33.9570 C   0  0  0  0  0  0  0  0  0  0  0  0
   34.2660   29.7390   33.5570 C   0  0  2  0  0  0  0  0  0  0  0  0
   34.2690   30.7780   32.5560 C   0  0  0  0  0  0  0  0  0  0  0  0
   35.3180   30.5780   31.4650 C   0  0  0  0  0  0  0  0  0  0  0  0
   35.8450   29.1740   31.4700 C   0  0  0  0  0  0  0  0  0  0  0  0
   37.4820   29.2080   32.7770 H   0  0  0  0  0  0  0  0  0  0  0  0
   36.1680   30.2470   34.2870 H   0  0  0  0  0  0  0  0  0  0  0  0
   35.5450   28.7110   34.8580 H   0  0  0  0  0  0  0  0  0  0  0  0
   33.6960   28.8410   33.2570 H   0  0  0  0  0  0  0  0  0  0  0  0
   34.4960   31.7710   32.9910 H   0  0  0  0  0  0  0  0  0  0  0  0
   33.2480   30.8840   32.1290 H   0  0  0  0  0  0  0  0  0  0  0  0
   34.7860   30.6970   30.4980 H   0  0  0  0  0  0  0  0  0  0  0  0
   36.1140   31.3310   31.4820 H   0  0  0  0  0  0  0  0  0  0  0  0
   36.6350   29.0970   30.7080 H   0  0  0  0  0  0  0  0  0  0  0  0
   35.0080   28.4790   31.2290 H   0  0  0  0  0  0  0  0  0  0  0  0
   35.8260   31.8160   34.9600 Cl  0  0  0  0  0  0  0  0  0  0  0  0
   34.3570   31.1460   35.6150 C   0  0  0  0  0  0  0  0  0  0  0  0
   33.6970   30.2210   34.8480 C   0  0  0  0  0  0  0  0  0  0  0  0
   32.5180   29.7680   35.4240 C   0  0  0  0  0  0  0  0  0  0  0  0
   32.0530   30.2010   36.6500 C   0  0  0  0  0  0  0  0  0  0  0  0
   32.7900   31.1460   37.3680 C   0  0  0  0  0  0  0  0  0  0  0  0
   33.9790   31.6290   36.8260 C   0  0  0  0  0  0  0  0  0  0  0  0
   31.9320   29.0370   34.8800 H   0  0  0  0  0  0  0  0  0  0  0  0
   31.1280   29.7900   37.0130 H   0  0  0  0  0  0  0  0  0  0  0  0
   32.4390   31.4940   38.3270 H   0  0  0  0  0  0  0  0  0  0  0  0
   34.7270   32.5880   37.5570 N   0  0  0  0  0  0  0  0  0  0  0  0
   35.7740   32.6880   37.4000 H   0  0  0  0  0  0  0  0  0  0  0  0
   34.2710   33.2070   38.2540 H   0  0  0  0  0  0  0  0  0  0  0  0
   36.6400   27.3050   32.7550 C   0  0  0  0  0  0  0  0  0  0  0  0
   36.0340   26.6980   31.6660 C   0  0  0  0  0  0  0  0  0  0  0  0
   36.1760   25.3260   31.4970 C   0  0  0  0  0  0  0  0  0  0  0  0
   36.9280   24.6190   32.4410 N   0  0  0  0  0  0  0  0  0  0  0  0
   37.5000   25.2470   33.4840 C   0  0  0  0  0  0  0  0  0  0  0  0
   37.3350   26.5690   33.6040 N   0  0  0  0  0  0  0  0  0  0  0  0
   35.4210   26.9720   30.8190 H   0  0  0  0  0  0  0  0  0  0  0  0
   35.8250   24.6350   30.7680 H   0  0  0  0  0  0  0  0  0  0  0  0
   38.3000   24.5010   34.4900 C   0  0  0  0  0  3  0  0  0  0  0  0
   39.5350   25.0450   35.0610 C   0  0  0  0  0  2  0  0  0  0  0  0
   38.2400   25.1110   35.8810 C   0  0  0  0  0  2  0  0  0  0  0  0
  1  7  1  1  0  0  0
  1  2  1  0  0  0  0
  2  8  1  0  0  0  0
  2  9  1  0  0  0  0
  3 10  1  6  0  0  0
  3  2  1  0  0  0  0
  3 19  1  0  0  0  0
  4 11  1  0  0  0  0
  4  3  1  0  0  0  0
  5  6  1  0  0  0  0
  5 14  1  0  0  0  0
  5  4  1  0  0  0  0
  6  1  1  0  0  0  0
 12  4  1  0  0  0  0
 13  5  1  0  0  0  0
 15  6  1  0  0  0  0
 16  6  1  0  0  0  0
 17 18  1  0  0  0  0
 18 23  1  0  0  0  0
 19 20  1  0  0  0  0
 19 18  2  0  0  0  0
 20 21  2  0  0  0  0
 21 25  1  0  0  0  0
 21 22  1  0  0  0  0
 22 26  1  0  0  0  0
 23 22  2  0  0  0  0
 23 27  1  0  0  0  0
 24 20  1  0  0  0  0
 27 29  1  0  0  0  0
 28 27  1  0  0  0  0
 30  1  1  0  0  0  0
 30 35  1  0  0  0  0
 31 30  2  0  0  0  0
 32 31  1  0  0  0  0
 32 33  2  0  0  0  0
 33 34  1  0  0  0  0
 34 35  2  0  0  0  0
 34 38  1  0  0  0  0
 36 31  1  0  0  0  0
 37 32  1  0  0  0  0
 38 39  1  0  0  0  0
 38 40  1  0  0  0  0
 39 40  1  0  0  0  0
M  END
>  <minimizedAffinity>
-6.0704174

$$$$

 OpenBabel03272506033D

 40 43  0  0  1  0  0  0  0  0999 V2000
   36.6050   28.5930   33.3430 C   0  0  2  0  0  0  0  0  0  0  0  0
   35.8520   29.3170   34.3610 C   0  0  0  0  0  0  0  0  0  0  0  0
   34.3460   29.4700   33.9880 C   0  0  2  0  0  0  0  0  0  0  0  0
   34.1310   30.1570   32.7370 C   0  0  0  0  0  0  0  0  0  0  0  0
   35.1310   29.7770   31.6480 C   0  0  0  0  0  0  0  0  0  0  0  0
   35.8650   28.5180   32.0010 C   0  0  0  0  0  0  0  0  0  0  0  0
   37.5530   29.1470   33.0700 H   0  0  0  0  0  0  0  0  0  0  0  0
   36.1890   30.4110   34.3460 H   0  0  0  0  0  0  0  0  0  0  0  0
   35.8410   29.0480   35.3910 H   0  0  0  0  0  0  0  0  0  0  0  0
   33.9020   28.4590   34.0160 H   0  0  0  0  0  0  0  0  0  0  0  0
   34.2300   31.2540   32.8450 H   0  0  0  0  0  0  0  0  0  0  0  0
   33.0820   29.9990   32.4040 H   0  0  0  0  0  0  0  0  0  0  0  0
   34.5310   29.5340   30.7470 H   0  0  0  0  0  0  0  0  0  0  0  0
   35.8030   30.5960   31.3680 H   0  0  0  0  0  0  0  0  0  0  0  0
   36.6100   28.3190   31.2150 H   0  0  0  0  0  0  0  0  0  0  0  0
   35.1300   27.6810   32.0550 H   0  0  0  0  0  0  0  0  0  0  0  0
   31.6160   28.7270   34.8310 Cl  0  0  0  0  0  0  0  0  0  0  0  0
   32.5100   30.0170   35.5870 C   0  0  0  0  0  0  0  0  0  0  0  0
   33.7880   30.2380   35.1390 C   0  0  0  0  0  0  0  0  0  0  0  0
   34.4430   31.2540   35.8190 C   0  0  0  0  0  0  0  0  0  0  0  0
   33.8690   31.9770   36.8450 C   0  0  0  0  0  0  0  0  0  0  0  0
   32.5610   31.6900   37.2400 C   0  0  0  0  0  0  0  0  0  0  0  0
   31.8660   30.6750   36.5840 C   0  0  0  0  0  0  0  0  0  0  0  0
   35.4600   31.4890   35.5290 H   0  0  0  0  0  0  0  0  0  0  0  0
   34.4580   32.7470   37.3120 H   0  0  0  0  0  0  0  0  0  0  0  0
   32.0990   32.2470   38.0400 H   0  0  0  0  0  0  0  0  0  0  0  0
   30.5350   30.3850   36.9850 N   0  0  0  0  0  0  0  0  0  0  0  0
   29.8560   29.9310   36.3050 H   0  0  0  0  0  0  0  0  0  0  0  0
   30.2030   30.6070   37.9420 H   0  0  0  0  0  0  0  0  0  0  0  0
   37.0100   27.2320   33.6780 C   0  0  0  0  0  0  0  0  0  0  0  0
   36.9980   26.3560   32.6040 C   0  0  0  0  0  0  0  0  0  0  0  0
   37.3920   25.0390   32.8070 C   0  0  0  0  0  0  0  0  0  0  0  0
   37.7830   24.6590   34.0960 N   0  0  0  0  0  0  0  0  0  0  0  0
   37.7790   25.5410   35.1110 C   0  0  0  0  0  0  0  0  0  0  0  0
   37.3920   26.7980   34.8660 N   0  0  0  0  0  0  0  0  0  0  0  0
   36.7550   26.3640   31.5510 H   0  0  0  0  0  0  0  0  0  0  0  0
   37.4740   24.1910   32.1710 H   0  0  0  0  0  0  0  0  0  0  0  0
   38.1930   25.1420   36.4820 C   0  0  0  0  0  3  0  0  0  0  0  0
   37.5750   24.0140   37.1830 C   0  0  0  0  0  2  0  0  0  0  0  0
   38.9460   23.8220   36.5230 C   0  0  0  0  0  2  0  0  0  0  0  0
  1  7  1  6  0  0  0
  1 30  1  0  0  0  0
  1  2  1  0  0  0  0
  2  9  1  0  0  0  0
  3 10  1  6  0  0  0
  3  2  1  0  0  0  0
  3 19  1  0  0  0  0
  4 11  1  0  0  0  0
  4  3  1  0  0  0  0
  5  6  1  0  0  0  0
  5  4  1  0  0  0  0
  6 16  1  0  0  0  0
  6  1  1  0  0  0  0
  8  2  1  0  0  0  0
 12  4  1  0  0  0  0
 13  5  1  0  0  0  0
 14  5  1  0  0  0  0
 15  6  1  0  0  0  0
 17 18  1  0  0  0  0
 18 23  1  0  0  0  0
 19 18  2  0  0  0  0
 19 20  1  0  0  0  0
 20 21  2  0  0  0  0
 21 22  1  0  0  0  0
 21 25  1  0  0  0  0
 22 26  1  0  0  0  0
 23 27  1  0  0  0  0
 23 22  2  0  0  0  0
 24 20  1  0  0  0  0
 27 29  1  0  0  0  0
 28 27  1  0  0  0  0
 30 35  1  0  0  0  0
 31 32  1  0  0  0  0
 31 30  2  0  0  0  0
 32 33  2  0  0  0  0
 33 34  1  0  0  0  0
 34 38  1  0  0  0  0
 35 34  2  0  0  0  0
 36 31  1  0  0  0  0
 37 32  1  0  0  0  0
 38 40  1  0  0  0  0
 38 39  1  0  0  0  0
 40 39  1  0  0  0  0
M  END
>  <minimizedAffinity>
-6.03907537

$$$$

 OpenBabel03272506033D

 40 43  0  0  1  0  0  0  0  0999 V2000
   36.5320   28.7880   32.8110 C   0  0  2  0  0  0  0  0  0  0  0  0
   35.8830   29.3950   33.9680 C   0  0  0  0  0  0  0  0  0  0  0  0
   34.3780   29.7080   33.7080 C   0  0  2  0  0  0  0  0  0  0  0  0
   34.1590   30.5930   32.5900 C   0  0  0  0  0  0  0  0  0  0  0  0
   35.0770   30.3190   31.4010 C   0  0  0  0  0  0  0  0  0  0  0  0
   35.7280   28.9730   31.5170 C   0  0  0  0  0  0  0  0  0  0  0  0
   37.5060   29.3110   32.5710 H   0  0  0  0  0  0  0  0  0  0  0  0
   36.3020   30.4520   34.0990 H   0  0  0  0  0  0  0  0  0  0  0  0
   35.8980   28.9710   34.9440 H   0  0  0  0  0  0  0  0  0  0  0  0
   33.8590   28.7370   33.6080 H   0  0  0  0  0  0  0  0  0  0  0  0
   34.3470   31.6510   32.8570 H   0  0  0  0  0  0  0  0  0  0  0  0
   33.0880   30.5620   32.2970 H   0  0  0  0  0  0  0  0  0  0  0  0
   34.4200   30.2620   30.5090 H   0  0  0  0  0  0  0  0  0  0  0  0
   35.7970   31.1240   31.2110 H   0  0  0  0  0  0  0  0  0  0  0  0
   36.4190   28.8480   30.6690 H   0  0  0  0  0  0  0  0  0  0  0  0
   34.9340   28.1910   31.4850 H   0  0  0  0  0  0  0  0  0  0  0  0
   31.7350   28.8470   34.7040 Cl  0  0  0  0  0  0  0  0  0  0  0  0
   32.7020   30.0400   35.5260 C   0  0  0  0  0  0  0  0  0  0  0  0
   33.9330   30.3230   34.9920 C   0  0  0  0  0  0  0  0  0  0  0  0
   34.6540   31.2530   35.7280 C   0  0  0  0  0  0  0  0  0  0  0  0
   34.1820   31.8400   36.8850 C   0  0  0  0  0  0  0  0  0  0  0  0
   32.9140   31.4970   37.3610 C   0  0  0  0  0  0  0  0  0  0  0  0
   32.1570   30.5660   36.6530 C   0  0  0  0  0  0  0  0  0  0  0  0
   35.6400   31.5290   35.3760 H   0  0  0  0  0  0  0  0  0  0  0  0
   34.8150   32.5510   37.3850 H   0  0  0  0  0  0  0  0  0  0  0  0
   32.5320   31.9480   38.2630 H   0  0  0  0  0  0  0  0  0  0  0  0
   30.8680   30.2190   37.1370 N   0  0  0  0  0  0  0  0  0  0  0  0
   30.1260   29.8480   36.4730 H   0  0  0  0  0  0  0  0  0  0  0  0
   30.6270   30.3190   38.1410 H   0  0  0  0  0  0  0  0  0  0  0  0
   36.8450   27.3670   32.9120 C   0  0  0  0  0  0  0  0  0  0  0  0
   37.4430   27.0010   34.1070 C   0  0  0  0  0  0  0  0  0  0  0  0
   37.7600   25.6640   34.3180 C   0  0  0  0  0  0  0  0  0  0  0  0
   37.4590   24.7470   33.3050 N   0  0  0  0  0  0  0  0  0  0  0  0
   36.8800   25.1450   32.1580 C   0  0  0  0  0  0  0  0  0  0  0  0
   36.5940   26.4420   32.0020 N   0  0  0  0  0  0  0  0  0  0  0  0
   37.7790   27.4650   35.0240 H   0  0  0  0  0  0  0  0  0  0  0  0
   38.2080   25.1340   35.1240 H   0  0  0  0  0  0  0  0  0  0  0  0
   36.5590   24.1750   31.0790 C   0  0  0  0  0  3  0  0  0  0  0  0
   37.0420   22.7910   31.1080 C   0  0  0  0  0  2  0  0  0  0  0  0
   35.5930   23.0850   31.5150 C   0  0  0  0  0  2  0  0  0  0  0  0
  1  7  1  6  0  0  0
  1 30  1  0  0  0  0
  1  2  1  0  0  0  0
  2  8  1  0  0  0  0
  2  9  1  0  0  0  0
  3 10  1  6  0  0  0
  3  2  1  0  0  0  0
  3 19  1  0  0  0  0
  4 11  1  0  0  0  0
  4  3  1  0  0  0  0
  5  6  1  0  0  0  0
  5  4  1  0  0  0  0
  6  1  1  0  0  0  0
 12  4  1  0  0  0  0
 13  5  1  0  0  0  0
 14  5  1  0  0  0  0
 15  6  1  0  0  0  0
 16  6  1  0  0  0  0
 17 18  1  0  0  0  0
 18 23  1  0  0  0  0
 19 18  2  0  0  0  0
 19 20  1  0  0  0  0
 20 21  2  0  0  0  0
 21 22  1  0  0  0  0
 21 25  1  0  0  0  0
 22 26  1  0  0  0  0
 23 27  1  0  0  0  0
 23 22  2  0  0  0  0
 24 20  1  0  0  0  0
 27 29  1  0  0  0  0
 28 27  1  0  0  0  0
 30 31  1  0  0  0  0
 31 32  2  0  0  0  0
 31 36  1  0  0  0  0
 32 37  1  0  0  0  0
 33 32  1  0  0  0  0
 34 33  2  0  0  0  0
 35 34  1  0  0  0  0
 35 30  2  0  0  0  0
 38 39  1  0  0  0  0
 38 40  1  0  0  0  0
 38 34  1  0  0  0  0
 39 40  1  0  0  0  0
M  END
>  <minimizedAffinity>
-6.00956106

$$$$

 OpenBabel03272506033D

 40 43  0  0  1  0  0  0  0  0999 V2000
   37.5490   26.8910   33.1280 C   0  0  2  0  0  0  0  0  0  0  0  0
   38.9960   26.7150   33.1860 C   0  0  0  0  0  0  0  0  0  0  0  0
   39.4850   26.2820   34.6020 C   0  0  2  0  0  0  0  0  0  0  0  0
   39.1340   27.2180   35.6420 C   0  0  0  0  0  0  0  0  0  0  0  0
   37.7350   27.8110   35.4890 C   0  0  0  0  0  0  0  0  0  0  0  0
   36.9120   27.0150   34.5190 C   0  0  0  0  0  0  0  0  0  0  0  0
   37.2800   27.8790   32.6470 H   0  0  0  0  0  0  0  0  0  0  0  0
   39.4860   27.7450   33.0950 H   0  0  0  0  0  0  0  0  0  0  0  0
   39.5420   26.0910   32.5170 H   0  0  0  0  0  0  0  0  0  0  0  0
   39.0990   25.2620   34.7790 H   0  0  0  0  0  0  0  0  0  0  0  0
   39.8130   28.0930   35.6590 H   0  0  0  0  0  0  0  0  0  0  0  0
   39.2690   26.7370   36.6340 H   0  0  0  0  0  0  0  0  0  0  0  0
   37.2390   27.6930   36.4740 H   0  0  0  0  0  0  0  0  0  0  0  0
   37.7380   28.8830   35.2630 H   0  0  0  0  0  0  0  0  0  0  0  0
   35.9380   27.5130   34.4010 H   0  0  0  0  0  0  0  0  0  0  0  0
   36.7730   25.9880   34.9310 H   0  0  0  0  0  0  0  0  0  0  0  0
   40.7380   23.8330   35.6740 Cl  0  0  0  0  0  0  0  0  0  0  0  0
   41.6630   25.1110   34.9350 C   0  0  0  0  0  0  0  0  0  0  0  0
   40.9630   26.1790   34.4320 C   0  0  0  0  0  0  0  0  0  0  0  0
   41.7700   27.1310   33.8270 C   0  0  0  0  0  0  0  0  0  0  0  0
   43.1440   27.0220   33.7390 C   0  0  0  0  0  0  0  0  0  0  0  0
   43.7790   25.9020   34.2800 C   0  0  0  0  0  0  0  0  0  0  0  0
   43.0060   24.9190   34.8960 C   0  0  0  0  0  0  0  0  0  0  0  0
   41.2960   28.0050   33.3990 H   0  0  0  0  0  0  0  0  0  0  0  0
   43.6840   27.8140   33.2510 H   0  0  0  0  0  0  0  0  0  0  0  0
   44.8520   25.8020   34.2190 H   0  0  0  0  0  0  0  0  0  0  0  0
   43.6530   23.7820   35.4460 N   0  0  0  0  0  0  0  0  0  0  0  0
   43.1960   23.2310   36.2330 H   0  0  0  0  0  0  0  0  0  0  0  0
   44.5770   23.4670   35.0940 H   0  0  0  0  0  0  0  0  0  0  0  0
   36.7960   25.8690   32.4100 C   0  0  0  0  0  0  0  0  0  0  0  0
   35.8570   26.3720   31.5240 C   0  0  0  0  0  0  0  0  0  0  0  0
   35.1020   25.4830   30.7690 C   0  0  0  0  0  0  0  0  0  0  0  0
   35.3280   24.1130   30.9410 N   0  0  0  0  0  0  0  0  0  0  0  0
   36.2500   23.6670   31.8130 C   0  0  0  0  0  0  0  0  0  0  0  0
   36.9520   24.5610   32.5180 N   0  0  0  0  0  0  0  0  0  0  0  0
   35.4790   27.3310   31.1980 H   0  0  0  0  0  0  0  0  0  0  0  0
   34.3390   25.6040   30.0370 H   0  0  0  0  0  0  0  0  0  0  0  0
   36.4930   22.2120   32.0000 C   0  0  0  0  0  3  0  0  0  0  0  0
   35.8900   21.2040   31.1240 C   0  0  0  0  0  2  0  0  0  0  0  0
   37.3560   21.6000   30.9090 C   0  0  0  0  0  2  0  0  0  0  0  0
  1  7  1  6  0  0  0
  1  2  1  0  0  0  0
  1  6  1  0  0  0  0
  2  3  1  0  0  0  0
  3 10  1  1  0  0  0
  3  4  1  0  0  0  0
  4 11  1  0  0  0  0
  4 12  1  0  0  0  0
  5  4  1  0  0  0  0
  5 13  1  0  0  0  0
  6 16  1  0  0  0  0
  6  5  1  0  0  0  0
  8  2  1  0  0  0  0
  9  2  1  0  0  0  0
 14  5  1  0  0  0  0
 15  6  1  0  0  0  0
 18 17  1  0  0  0  0
 19  3  1  0  0  0  0
 19 18  2  0  0  0  0
 20 19  1  0  0  0  0
 21 20  2  0  0  0  0
 21 22  1  0  0  0  0
 22 23  2  0  0  0  0
 23 18  1  0  0  0  0
 23 27  1  0  0  0  0
 24 20  1  0  0  0  0
 25 21  1  0  0  0  0
 26 22  1  0  0  0  0
 27 28  1  0  0  0  0
 29 27  1  0  0  0  0
 30 35  1  0  0  0  0
 30  1  1  0  0  0  0
 31 30  2  0  0  0  0
 32 33  2  0  0  0  0
 32 31  1  0  0  0  0
 33 34  1  0  0  0  0
 34 38  1  0  0  0  0
 34 35  2  0  0  0  0
 36 31  1  0  0  0  0
 37 32  1  0  0  0  0
 39 38  1  0  0  0  0
 40 39  1  0  0  0  0
 40 38  1  0  0  0  0
M  END
>  <minimizedAffinity>
-5.99329281

$$$$

 OpenBabel03272506033D

 40 43  0  0  1  0  0  0  0  0999 V2000
   39.4500   25.7360   32.3450 C   0  0  2  0  0  0  0  0  0  0  0  0
   39.7140   24.7390   33.3760 C   0  0  0  0  0  0  0  0  0  0  0  0
   40.0650   25.3870   34.7510 C   0  0  2  0  0  0  0  0  0  0  0  0
   41.2160   26.2550   34.7000 C   0  0  0  0  0  0  0  0  0  0  0  0
   41.2860   27.1100   33.4370 C   0  0  0  0  0  0  0  0  0  0  0  0
   39.9660   27.1310   32.7230 C   0  0  0  0  0  0  0  0  0  0  0  0
   40.0310   25.5070   31.4020 H   0  0  0  0  0  0  0  0  0  0  0  0
   40.7020   24.2180   33.1270 H   0  0  0  0  0  0  0  0  0  0  0  0
   39.0420   23.9510   33.6220 H   0  0  0  0  0  0  0  0  0  0  0  0
   39.1510   25.8900   35.1140 H   0  0  0  0  0  0  0  0  0  0  0  0
   42.1650   25.6850   34.7100 H   0  0  0  0  0  0  0  0  0  0  0  0
   41.2510   26.8780   35.6200 H   0  0  0  0  0  0  0  0  0  0  0  0
   41.4620   28.1510   33.7770 H   0  0  0  0  0  0  0  0  0  0  0  0
   42.1210   26.8480   32.7780 H   0  0  0  0  0  0  0  0  0  0  0  0
   40.0840   27.7110   31.7950 H   0  0  0  0  0  0  0  0  0  0  0  0
   39.2110   27.6140   33.3860 H   0  0  0  0  0  0  0  0  0  0  0  0
   38.0560   24.9210   36.8630 Cl  0  0  0  0  0  0  0  0  0  0  0  0
   39.4690   23.9190   36.6780 C   0  0  0  0  0  0  0  0  0  0  0  0
   40.3060   24.2060   35.6300 C   0  0  0  0  0  0  0  0  0  0  0  0
   41.3830   23.3380   35.5300 C   0  0  0  0  0  0  0  0  0  0  0  0
   41.5980   22.2870   36.4000 C   0  0  0  0  0  0  0  0  0  0  0  0
   40.6980   22.0650   37.4430 C   0  0  0  0  0  0  0  0  0  0  0  0
   39.6000   22.9120   37.5800 C   0  0  0  0  0  0  0  0  0  0  0  0
   42.0910   23.4930   34.7250 H   0  0  0  0  0  0  0  0  0  0  0  0
   42.4640   21.6690   36.2410 H   0  0  0  0  0  0  0  0  0  0  0  0
   40.8520   21.2480   38.1310 H   0  0  0  0  0  0  0  0  0  0  0  0
   38.6850   22.6860   38.6420 N   0  0  0  0  0  0  0  0  0  0  0  0
   38.0920   23.4830   39.0200 H   0  0  0  0  0  0  0  0  0  0  0  0
   38.5780   21.7450   39.0660 H   0  0  0  0  0  0  0  0  0  0  0  0
   38.0590   25.8990   31.9370 C   0  0  0  0  0  0  0  0  0  0  0  0
   37.4700   24.7420   31.4530 C   0  0  0  0  0  0  0  0  0  0  0  0
   36.1370   24.7790   31.0610 C   0  0  0  0  0  0  0  0  0  0  0  0
   35.4500   25.9930   31.1740 N   0  0  0  0  0  0  0  0  0  0  0  0
   36.0600   27.0940   31.6490 C   0  0  0  0  0  0  0  0  0  0  0  0
   37.3450   27.0080   32.0130 N   0  0  0  0  0  0  0  0  0  0  0  0
   37.7380   23.7130   31.2590 H   0  0  0  0  0  0  0  0  0  0  0  0
   35.4660   24.0540   30.6690 H   0  0  0  0  0  0  0  0  0  0  0  0
   35.3350   28.3860   31.7710 C   0  0  0  0  0  3  0  0  0  0  0  0
   35.1230   29.0390   33.0660 C   0  0  0  0  0  2  0  0  0  0  0  0
   36.2380   29.5510   32.1450 C   0  0  0  0  0  2  0  0  0  0  0  0
  1  7  1  6  0  0  0
  1  6  1  0  0  0  0
  1  2  1  0  0  0  0
  2  9  1  0  0  0  0
  2  3  1  0  0  0  0
  3 10  1  1  0  0  0
  3 19  1  0  0  0  0
  4 11  1  0  0  0  0
  4  3  1  0  0  0  0
  4 12  1  0  0  0  0
  5 13  1  0  0  0  0
  5  4  1  0  0  0  0
  6 16  1  0  0  0  0
  6  5  1  0  0  0  0
  8  2  1  0  0  0  0
 14  5  1  0  0  0  0
 15  6  1  0  0  0  0
 18 17  1  0  0  0  0
 18 23  1  0  0  0  0
 19 18  2  0  0  0  0
 20 19  1  0  0  0  0
 20 21  2  0  0  0  0
 21 22  1  0  0  0  0
 22 23  2  0  0  0  0
 22 26  1  0  0  0  0
 23 27  1  0  0  0  0
 24 20  1  0  0  0  0
 25 21  1  0  0  0  0
 27 28  1  0  0  0  0
 27 29  1  0  0  0  0
 30 35  1  0  0  0  0
 30  1  1  0  0  0  0
 31 30  2  0  0  0  0
 32 33  2  0  0  0  0
 32 31  1  0  0  0  0
 33 34  1  0  0  0  0
 34 38  1  0  0  0  0
 34 35  2  0  0  0  0
 36 31  1  0  0  0  0
 37 32  1  0  0  0  0
 38 40  1  0  0  0  0
 38 39  1  0  0  0  0
 40 39  1  0  0  0  0
M  END
>  <minimizedAffinity>
-5.95159912

$$$$

 OpenBabel03272506033D

 40 43  0  0  1  0  0  0  0  0999 V2000
   34.7780   30.3690   32.8720 C   0  0  2  0  0  0  0  0  0  0  0  0
   34.9560   28.9330   32.6910 C   0  0  0  0  0  0  0  0  0  0  0  0
   36.3840   28.5720   32.1800 C   0  0  2  0  0  0  0  0  0  0  0  0
   36.7210   29.1990   30.9260 C   0  0  0  0  0  0  0  0  0  0  0  0
   36.2340   30.6410   30.8080 C   0  0  0  0  0  0  0  0  0  0  0  0
   35.8510   31.1950   32.1490 C   0  0  0  0  0  0  0  0  0  0  0  0
   33.8230   30.7250   32.3790 H   0  0  0  0  0  0  0  0  0  0  0  0
   34.3190   28.6030   31.7990 H   0  0  0  0  0  0  0  0  0  0  0  0
   34.7590   28.2130   33.4500 H   0  0  0  0  0  0  0  0  0  0  0  0
   37.0890   28.8130   32.9960 H   0  0  0  0  0  0  0  0  0  0  0  0
   36.2650   28.6730   30.0640 H   0  0  0  0  0  0  0  0  0  0  0  0
   37.8170   29.1220   30.7560 H   0  0  0  0  0  0  0  0  0  0  0  0
   37.1070   31.2370   30.4730 H   0  0  0  0  0  0  0  0  0  0  0  0
   35.4500   30.7770   30.0540 H   0  0  0  0  0  0  0  0  0  0  0  0
   35.4550   32.2110   32.0040 H   0  0  0  0  0  0  0  0  0  0  0  0
   36.7610   31.2240   32.7940 H   0  0  0  0  0  0  0  0  0  0  0  0
   38.1650   27.0660   33.9910 Cl  0  0  0  0  0  0  0  0  0  0  0  0
   37.1530   26.2830   32.8080 C   0  0  0  0  0  0  0  0  0  0  0  0
   36.3340   27.0860   32.0560 C   0  0  0  0  0  0  0  0  0  0  0  0
   35.5340   26.3820   31.1690 C   0  0  0  0  0  0  0  0  0  0  0  0
   35.5580   25.0070   31.0470 C   0  0  0  0  0  0  0  0  0  0  0  0
   36.4240   24.2620   31.8500 C   0  0  0  0  0  0  0  0  0  0  0  0
   37.2440   24.9290   32.7580 C   0  0  0  0  0  0  0  0  0  0  0  0
   34.8530   26.9420   30.5390 H   0  0  0  0  0  0  0  0  0  0  0  0
   34.8990   24.5510   30.3290 H   0  0  0  0  0  0  0  0  0  0  0  0
   36.4540   23.1870   31.7670 H   0  0  0  0  0  0  0  0  0  0  0  0
   38.1260   24.1720   33.5730 N   0  0  0  0  0  0  0  0  0  0  0  0
   39.0070   24.6140   33.9690 H   0  0  0  0  0  0  0  0  0  0  0  0
   37.9280   23.1780   33.7980 H   0  0  0  0  0  0  0  0  0  0  0  0
   34.7310   30.8520   34.2470 C   0  0  0  0  0  0  0  0  0  0  0  0
   35.8970   31.4690   34.6720 C   0  0  0  0  0  0  0  0  0  0  0  0
   35.9520   31.9890   35.9600 C   0  0  0  0  0  0  0  0  0  0  0  0
   34.8180   31.8620   36.7710 N   0  0  0  0  0  0  0  0  0  0  0  0
   33.7060   31.2550   36.3190 C   0  0  0  0  0  0  0  0  0  0  0  0
   33.7030   30.7700   35.0720 N   0  0  0  0  0  0  0  0  0  0  0  0
   36.8820   31.6990   34.2890 H   0  0  0  0  0  0  0  0  0  0  0  0
   36.7020   32.4980   36.5160 H   0  0  0  0  0  0  0  0  0  0  0  0
   32.5000   31.1180   37.1770 C   0  0  0  0  0  3  0  0  0  0  0  0
   31.1440   31.1330   36.6200 C   0  0  0  0  0  2  0  0  0  0  0  0
   31.7810   29.7900   36.9980 C   0  0  0  0  0  2  0  0  0  0  0  0
  1  7  1  6  0  0  0
  1 30  1  0  0  0  0
  2  1  1  0  0  0  0
  2  9  1  0  0  0  0
  3  2  1  0  0  0  0
  3 10  1  1  0  0  0
  4  3  1  0  0  0  0
  5  4  1  0  0  0  0
  5  6  1  0  0  0  0
  6 16  1  0  0  0  0
  6  1  1  0  0  0  0
  8  2  1  0  0  0  0
 11  4  1  0  0  0  0
 12  4  1  0  0  0  0
 13  5  1  0  0  0  0
 14  5  1  0  0  0  0
 15  6  1  0  0  0  0
 18 17  1  0  0  0  0
 19  3  1  0  0  0  0
 19 18  2  0  0  0  0
 20 19  1  0  0  0  0
 21 20  2  0  0  0  0
 21 22  1  0  0  0  0
 22 23  2  0  0  0  0
 23 18  1  0  0  0  0
 23 27  1  0  0  0  0
 24 20  1  0  0  0  0
 25 21  1  0  0  0  0
 26 22  1  0  0  0  0
 27 29  1  0  0  0  0
 27 28  1  0  0  0  0
 30 31  2  0  0  0  0
 30 35  1  0  0  0  0
 31 32  1  0  0  0  0
 32 37  1  0  0  0  0
 32 33  2  0  0  0  0
 34 33  1  0  0  0  0
 34 38  1  0  0  0  0
 35 34  2  0  0  0  0
 36 31  1  0  0  0  0
 39 40  1  0  0  0  0
 39 38  1  0  0  0  0
 40 38  1  0  0  0  0
M  END
>  <minimizedAffinity>
-5.88488865

$$$$

 OpenBabel03272506033D

 40 43  0  0  1  0  0  0  0  0999 V2000
   40.0760   27.2660   33.6900 C   0  0  2  0  0  0  0  0  0  0  0  0
   39.8610   26.4840   34.9020 C   0  0  0  0  0  0  0  0  0  0  0  0
   39.1230   25.1400   34.6190 C   0  0  2  0  0  0  0  0  0  0  0  0
   37.8340   25.3120   33.9950 C   0  0  0  0  0  0  0  0  0  0  0  0
   37.8060   26.4120   32.9360 C   0  0  0  0  0  0  0  0  0  0  0  0
   39.1940   26.8030   32.5220 C   0  0  0  0  0  0  0  0  0  0  0  0
   39.7470   28.3380   33.8350 H   0  0  0  0  0  0  0  0  0  0  0  0
   39.0820   27.0250   35.5440 H   0  0  0  0  0  0  0  0  0  0  0  0
   40.6380   26.2190   35.5810 H   0  0  0  0  0  0  0  0  0  0  0  0
   39.8150   24.5100   34.0320 H   0  0  0  0  0  0  0  0  0  0  0  0
   37.0550   25.6010   34.7260 H   0  0  0  0  0  0  0  0  0  0  0  0
   37.4890   24.3390   33.5840 H   0  0  0  0  0  0  0  0  0  0  0  0
   37.3370   25.9650   32.0360 H   0  0  0  0  0  0  0  0  0  0  0  0
   37.1890   27.2730   33.2180 H   0  0  0  0  0  0  0  0  0  0  0  0
   39.1210   27.6330   31.8040 H   0  0  0  0  0  0  0  0  0  0  0  0
   39.6830   25.9220   32.0440 H   0  0  0  0  0  0  0  0  0  0  0  0
   41.0480   22.9890   35.2430 Cl  0  0  0  0  0  0  0  0  0  0  0  0
   39.8050   23.4860   36.3580 C   0  0  0  0  0  0  0  0  0  0  0  0
   39.0000   24.5280   35.9740 C   0  0  0  0  0  0  0  0  0  0  0  0
   38.0650   24.8870   36.9340 C   0  0  0  0  0  0  0  0  0  0  0  0
   37.9490   24.2570   38.1570 C   0  0  0  0  0  0  0  0  0  0  0  0
   38.8080   23.2010   38.4690 C   0  0  0  0  0  0  0  0  0  0  0  0
   39.7640   22.8090   37.5350 C   0  0  0  0  0  0  0  0  0  0  0  0
   37.3920   25.7050   36.7110 H   0  0  0  0  0  0  0  0  0  0  0  0
   37.1910   24.6070   38.8360 H   0  0  0  0  0  0  0  0  0  0  0  0
   38.7300   22.6990   39.4210 H   0  0  0  0  0  0  0  0  0  0  0  0
   40.6360   21.7350   37.8520 N   0  0  0  0  0  0  0  0  0  0  0  0
   41.0860   21.1600   37.0800 H   0  0  0  0  0  0  0  0  0  0  0  0
   40.8500   21.4910   38.8380 H   0  0  0  0  0  0  0  0  0  0  0  0
   41.4440   27.3230   33.1870 C   0  0  0  0  0  0  0  0  0  0  0  0
   42.3980   26.8620   34.0810 C   0  0  0  0  0  0  0  0  0  0  0  0
   43.7320   26.8480   33.6920 C   0  0  0  0  0  0  0  0  0  0  0  0
   44.0500   27.3040   32.4080 N   0  0  0  0  0  0  0  0  0  0  0  0
   43.0930   27.7440   31.5710 C   0  0  0  0  0  0  0  0  0  0  0  0
   41.8230   27.7380   31.9910 N   0  0  0  0  0  0  0  0  0  0  0  0
   42.4470   26.4720   35.0870 H   0  0  0  0  0  0  0  0  0  0  0  0
   44.6340   26.5520   34.1710 H   0  0  0  0  0  0  0  0  0  0  0  0
   43.4250   28.2300   30.2060 C   0  0  0  0  0  3  0  0  0  0  0  0
   42.4530   28.1950   29.1100 C   0  0  0  0  0  2  0  0  0  0  0  0
   42.7120   29.5210   29.8350 C   0  0  0  0  0  2  0  0  0  0  0  0
  1  7  1  1  0  0  0
  1  2  1  0  0  0  0
  2  8  1  0  0  0  0
  2  9  1  0  0  0  0
  3 10  1  6  0  0  0
  3  2  1  0  0  0  0
  3 19  1  0  0  0  0
  4  3  1  0  0  0  0
  4 11  1  0  0  0  0
  5 14  1  0  0  0  0
  5  4  1  0  0  0  0
  6  5  1  0  0  0  0
  6  1  1  0  0  0  0
 12  4  1  0  0  0  0
 13  5  1  0  0  0  0
 15  6  1  0  0  0  0
 16  6  1  0  0  0  0
 17 18  1  0  0  0  0
 18 23  1  0  0  0  0
 19 18  2  0  0  0  0
 19 20  1  0  0  0  0
 20 21  2  0  0  0  0
 21 22  1  0  0  0  0
 21 25  1  0  0  0  0
 22 26  1  0  0  0  0
 23 27  1  0  0  0  0
 23 22  2  0  0  0  0
 24 20  1  0  0  0  0
 27 29  1  0  0  0  0
 28 27  1  0  0  0  0
 30  1  1  0  0  0  0
 30 31  1  0  0  0  0
 31 36  1  0  0  0  0
 32 31  2  0  0  0  0
 32 37  1  0  0  0  0
 33 32  1  0  0  0  0
 34 35  1  0  0  0  0
 34 33  2  0  0  0  0
 35 30  2  0  0  0  0
 38 34  1  0  0  0  0
 39 40  1  0  0  0  0
 39 38  1  0  0  0  0
 40 38  1  0  0  0  0
M  END
>  <minimizedAffinity>
-5.77426052

$$$$

 OpenBabel03272506033D

 40 43  0  0  1  0  0  0  0  0999 V2000
   37.0950   26.9330   31.9570 C   0  0  2  0  0  0  0  0  0  0  0  0
   37.0870   25.9780   33.0600 C   0  0  0  0  0  0  0  0  0  0  0  0
   38.5050   25.7650   33.6700 C   0  0  2  0  0  0  0  0  0  0  0  0
   39.4780   25.2950   32.7140 C   0  0  0  0  0  0  0  0  0  0  0  0
   39.3530   25.9470   31.3390 C   0  0  0  0  0  0  0  0  0  0  0  0
   38.5030   27.1820   31.4000 C   0  0  0  0  0  0  0  0  0  0  0  0
   36.5460   26.5200   31.0580 H   0  0  0  0  0  0  0  0  0  0  0  0
   36.8800   24.9370   32.6300 H   0  0  0  0  0  0  0  0  0  0  0  0
   36.4460   26.0580   33.9060 H   0  0  0  0  0  0  0  0  0  0  0  0
   38.7920   26.7130   34.1600 H   0  0  0  0  0  0  0  0  0  0  0  0
   39.3820   24.2090   32.5240 H   0  0  0  0  0  0  0  0  0  0  0  0
   40.5000   25.4190   33.1340 H   0  0  0  0  0  0  0  0  0  0  0  0
   40.3700   26.2930   31.0660 H   0  0  0  0  0  0  0  0  0  0  0  0
   39.0350   25.2510   30.5540 H   0  0  0  0  0  0  0  0  0  0  0  0
   38.3970   27.5800   30.3790 H   0  0  0  0  0  0  0  0  0  0  0  0
   39.0100   27.9300   32.0540 H   0  0  0  0  0  0  0  0  0  0  0  0
   38.2950   26.8380   36.4130 Cl  0  0  0  0  0  0  0  0  0  0  0  0
   38.1990   25.1330   36.0650 C   0  0  0  0  0  0  0  0  0  0  0  0
   38.2640   24.7610   34.7460 C   0  0  0  0  0  0  0  0  0  0  0  0
   38.1400   23.3920   34.5530 C   0  0  0  0  0  0  0  0  0  0  0  0
   37.9710   22.4900   35.5840 C   0  0  0  0  0  0  0  0  0  0  0  0
   37.9180   22.9530   36.9010 C   0  0  0  0  0  0  0  0  0  0  0  0
   38.0350   24.3210   37.1400 C   0  0  0  0  0  0  0  0  0  0  0  0
   38.1760   23.0140   33.5390 H   0  0  0  0  0  0  0  0  0  0  0  0
   37.8850   21.4470   35.3340 H   0  0  0  0  0  0  0  0  0  0  0  0
   37.7860   22.2600   37.7170 H   0  0  0  0  0  0  0  0  0  0  0  0
   37.9830   24.7910   38.4780 N   0  0  0  0  0  0  0  0  0  0  0  0
   38.4410   25.7130   38.7440 H   0  0  0  0  0  0  0  0  0  0  0  0
   37.4980   24.2490   39.2190 H   0  0  0  0  0  0  0  0  0  0  0  0
   36.5120   28.2430   32.2260 C   0  0  0  0  0  0  0  0  0  0  0  0
   36.3190   29.0210   31.0950 C   0  0  0  0  0  0  0  0  0  0  0  0
   35.7440   30.2790   31.2360 C   0  0  0  0  0  0  0  0  0  0  0  0
   35.3860   30.7010   32.5210 N   0  0  0  0  0  0  0  0  0  0  0  0
   35.5920   29.9140   33.5920 C   0  0  0  0  0  0  0  0  0  0  0  0
   36.1480   28.7120   33.4060 N   0  0  0  0  0  0  0  0  0  0  0  0
   36.4900   28.9640   30.0300 H   0  0  0  0  0  0  0  0  0  0  0  0
   35.4920   31.0520   30.5500 H   0  0  0  0  0  0  0  0  0  0  0  0
   35.2140   30.3580   34.9590 C   0  0  0  0  0  3  0  0  0  0  0  0
   36.0340   31.3010   35.7250 C   0  0  0  0  0  2  0  0  0  0  0  0
   34.7700   31.8110   35.0200 C   0  0  0  0  0  2  0  0  0  0  0  0
  1  7  1  6  0  0  0
  1 30  1  0  0  0  0
  1  2  1  0  0  0  0
  2  3  1  0  0  0  0
  2  9  1  0  0  0  0
  3 10  1  1  0  0  0
  3 19  1  0  0  0  0
  4 12  1  0  0  0  0
  4  3  1  0  0  0  0
  5  6  1  0  0  0  0
  5  4  1  0  0  0  0
  6  1  1  0  0  0  0
  6 16  1  0  0  0  0
  8  2  1  0  0  0  0
 11  4  1  0  0  0  0
 13  5  1  0  0  0  0
 14  5  1  0  0  0  0
 15  6  1  0  0  0  0
 18 17  1  0  0  0  0
 18 23  1  0  0  0  0
 19 18  2  0  0  0  0
 20 19  1  0  0  0  0
 20 21  2  0  0  0  0
 21 22  1  0  0  0  0
 22 23  2  0  0  0  0
 22 26  1  0  0  0  0
 23 27  1  0  0  0  0
 24 20  1  0  0  0  0
 25 21  1  0  0  0  0
 27 28  1  0  0  0  0
 27 29  1  0  0  0  0
 30 35  1  0  0  0  0
 31 32  1  0  0  0  0
 31 30  2  0  0  0  0
 32 33  2  0  0  0  0
 33 34  1  0  0  0  0
 34 38  1  0  0  0  0
 35 34  2  0  0  0  0
 36 31  1  0  0  0  0
 37 32  1  0  0  0  0
 38 40  1  0  0  0  0
 38 39  1  0  0  0  0
 40 39  1  0  0  0  0
M  END
>  <minimizedAffinity>
-5.77149439

$$$$
