
 OpenBabel03272509053D

 27 29  0  0  0  0  0  0  0  0999 V2000
   31.7590   30.6010   45.0360 C   0  0  0  0  0  0  0  0  0  0  0  0
   30.7290   30.7400   45.4570 H   0  0  0  0  0  0  0  0  0  0  0  0
   31.7730   29.7380   44.3500 H   0  0  0  0  0  0  0  0  0  0  0  0
   32.1440   31.8830   44.3610 C   0  0  0  0  0  0  0  0  0  0  0  0
   33.0570   32.0110   43.3480 C   0  0  0  0  0  0  0  0  0  0  0  0
   33.3290   33.2460   42.8050 C   0  0  0  0  0  0  0  0  0  0  0  0
   32.6960   34.3940   43.2600 C   0  0  0  0  0  0  0  0  0  0  0  0
   31.7850   34.2750   44.2710 C   0  0  0  0  0  0  0  0  0  0  0  0
   31.5040   33.0460   44.8210 C   0  0  0  0  0  0  0  0  0  0  0  0
   33.4970   31.0660   43.0610 H   0  0  0  0  0  0  0  0  0  0  0  0
   34.0710   33.2250   42.0050 H   0  0  0  0  0  0  0  0  0  0  0  0
   33.0040   35.2900   42.7480 H   0  0  0  0  0  0  0  0  0  0  0  0
   31.3050   35.1920   44.6070 H   0  0  0  0  0  0  0  0  0  0  0  0
   30.7570   33.0680   45.6260 H   0  0  0  0  0  0  0  0  0  0  0  0
   33.8580   29.8520   46.1390 C   0  0  0  0  0  3  0  0  0  0  0  0
   32.6280   30.2830   46.1730 C   0  0  0  0  0  3  0  0  0  0  0  0
   34.6720   28.6090   49.4930 C   0  0  0  0  0  0  0  0  0  0  0  0
   35.9390   29.2240   49.6930 C   0  0  0  0  0  0  0  0  0  0  0  0
   36.4770   30.0430   48.6790 C   0  0  0  0  0  0  0  0  0  0  0  0
   35.7220   30.1860   47.5580 N   0  0  0  0  0  0  0  0  0  0  0  0
   34.5400   29.5970   47.4030 C   0  0  0  0  0  0  0  0  0  0  0  0
   34.0230   28.8180   48.3600 N   0  0  0  0  0  0  0  0  0  0  0  0
   34.3140   27.9940   50.3070 H   0  0  0  0  0  0  0  0  0  0  0  0
   36.4650   29.0600   50.5980 H   0  0  0  0  0  0  0  0  0  0  0  0
   37.7900   30.6990   48.8490 C   0  0  0  0  0  3  0  0  0  0  0  0
   37.8190   32.1700   49.2400 C   0  0  0  0  0  2  0  0  0  0  0  0
   38.2820   31.0980   50.1670 C   0  0  0  0  0  2  0  0  0  0  0  0
  1  2  1  0  0  0  0
  1 16  1  0  0  0  0
  3  1  1  0  0  0  0
  4  9  1  0  0  0  0
  4  1  1  0  0  0  0
  5  4  2  0  0  0  0
  6  7  2  0  0  0  0
  6  5  1  0  0  0  0
  7  8  1  0  0  0  0
  8 13  1  0  0  0  0
  8  9  2  0  0  0  0
  9 14  1  0  0  0  0
 10  5  1  0  0  0  0
 11  6  1  0  0  0  0
 12  7  1  0  0  0  0
 15 16  2  0  0  0  0
 15 21  1  0  0  0  0
 17 18  1  0  0  0  0
 17 23  1  0  0  0  0
 18 24  1  0  0  0  0
 19 25  1  0  0  0  0
 19 18  2  0  0  0  0
 20 19  1  0  0  0  0
 21 20  2  0  0  0  0
 21 22  1  0  0  0  0
 22 17  2  0  0  0  0
 25 26  1  0  0  0  0
 25 27  1  0  0  0  0
 26 27  1  0  0  0  0
M  END
>  <minimizedAffinity>
-4.97659016

>  <minimizedRMSD>
5.58785868

$$$$
