
     RDKit          3D

 30 33  0  0  0  0  0  0  0  0999 V2000
   37.0607   30.7156   46.7741 C   0  0  0  0  0  0  0  0  0  0  0  0
   37.7015   31.1396   47.9234 C   0  0  0  0  0  0  0  0  0  0  0  0
   38.7123   32.0597   47.8313 C   0  0  0  0  0  0  0  0  0  0  0  0
   39.0587   32.5379   46.5645 C   0  0  0  0  0  0  0  0  0  0  0  0
   40.0247   33.4461   46.2578 N   0  0  0  0  0  0  0  0  0  0  0  0
   39.9890   33.5894   44.9276 C   0  0  0  0  0  0  0  0  0  0  0  0
   39.0398   32.8070   44.3949 N   0  0  0  0  0  0  0  0  0  0  0  0
   38.4374   32.1340   45.3948 C   0  0  0  0  0  0  0  0  0  0  0  0
   37.4190   31.2033   45.5157 C   0  0  0  0  0  0  0  0  0  0  0  0
   37.3889   30.1628   51.5389 C   0  0  0  0  0  0  0  0  0  0  0  0
   37.9133   30.7592   50.3848 C   0  0  0  0  0  0  0  0  0  0  0  0
   37.2574   30.5745   49.1835 C   0  0  0  0  0  0  0  0  0  0  0  0
   36.1216   29.8161   49.1701 N   0  0  0  0  0  0  0  0  0  0  0  0
   35.6266   29.2447   50.2996 C   0  0  0  0  0  0  0  0  0  0  0  0
   36.2601   29.4200   51.4739 N   0  0  0  0  0  0  0  0  0  0  0  0
   36.2495   29.9891   46.7578 H   0  0  0  0  0  0  0  0  0  0  0  0
   39.2270   32.4052   48.7173 H   0  0  0  0  0  0  0  0  0  0  0  0
   40.6575   33.9264   46.9254 H   0  0  0  0  0  0  0  0  0  0  0  0
   36.9201   30.8737   44.6171 H   0  0  0  0  0  0  0  0  0  0  0  0
   37.9472   30.3457   52.4403 H   0  0  0  0  0  0  0  0  0  0  0  0
   38.8037   31.3504   50.4112 H   0  0  0  0  0  0  0  0  0  0  0  0
   34.7318   28.6439   50.3043 H   0  0  0  0  0  0  0  0  0  0  0  0
   40.8857   34.4996   44.1340 C   0  0  0  0  0  0  0  0  0  0  0  0
   40.1169   35.2486   43.0438 C   0  0  0  0  0  0  0  0  0  0  0  0
   40.7703   35.9575   44.2204 C   0  0  0  0  0  0  0  0  0  0  0  0
   41.8391   34.0547   43.7803 H   0  0  0  0  0  0  0  0  0  0  0  0
   39.0211   35.2988   43.0875 H   0  0  0  0  0  0  0  0  0  0  0  0
   40.5748   35.3750   42.0471 H   0  0  0  0  0  0  0  0  0  0  0  0
   40.1559   36.4473   44.9790 H   0  0  0  0  0  0  0  0  0  0  0  0
   41.7132   36.5313   44.0123 H   0  0  0  0  0  0  0  0  0  0  0  0
  1  2  2  0
  2 12  1  0
  3  2  1  0
  4  3  2  0
  5  4  1  0
  6  5  1  0
  7  6  2  0
  7  8  1  0
  8  9  2  0
  8  4  1  0
  9  1  1  0
 11 10  2  0
 12 11  1  0
 13 12  2  0
 13 14  1  0
 14 15  2  0
 15 10  1  0
  1 16  1  0
  3 17  1  0
  5 18  1  0
  9 19  1  0
 10 20  1  0
 11 21  1  0
 14 22  1  0
 23 24  1  0
 24 25  1  0
 25 23  1  0
 23 26  1  0
 24 27  1  0
 24 28  1  0
 25 29  1  0
 25 30  1  0
  6 23  1  0
M  ISO  7  16  14  17  14  18   9  19  14  20  14  21  14  22  14
M  END
>  <DihAtoms>  (1) 
4,5,22,23

>  <DihDeg>  (1) 
132.51824441585427

$$$$
