
 OpenBabel03272509473D

 19 20  0  0  0  0  0  0  0  0999 V2000
   34.7770   28.2560   49.8570 O   0  0  0  0  0  0  0  0  0  0  0  0
   37.3710   30.2650   51.3850 C   0  0  0  0  0  0  0  0  0  0  0  0
   38.0440   30.6900   50.2440 C   0  0  0  0  0  0  0  0  0  0  0  0
   37.5810   30.2710   49.0000 C   0  0  0  0  0  0  0  0  0  0  0  0
   36.4750   29.4560   49.0040 N   0  0  0  0  0  0  0  0  0  0  0  0
   35.8500   29.0650   50.1150 C   0  0  0  0  0  0  0  0  0  0  0  0
   36.3020   29.4730   51.3220 N   0  0  0  0  0  0  0  0  0  0  0  0
   37.6790   30.5550   52.3920 H   0  0  0  0  0  0  0  0  0  0  0  0
   38.9100   31.3360   50.3520 H   0  0  0  0  0  0  0  0  0  0  0  0
   38.0790   30.5820   48.0960 H   0  0  0  0  0  0  0  0  0  0  0  0
   34.0110   28.5130   48.6850 C   0  0  0  0  0  0  0  0  0  0  0  0
   33.0470   28.9870   48.9390 H   0  0  0  0  0  0  0  0  0  0  0  0
   34.5380   29.2290   48.0210 H   0  0  0  0  0  0  0  0  0  0  0  0
   33.7980   27.2270   47.9300 C   0  0  0  0  0  0  0  0  0  0  0  0
   34.7460   26.7220   47.7500 H   0  0  0  0  0  0  0  0  0  0  0  0
   33.0480   26.6110   48.4490 H   0  0  0  0  0  0  0  0  0  0  0  0
   33.2280   27.6250   46.5670 C   0  0  0  0  0  3  0  0  0  0  0  0
   34.0580   28.4410   45.6550 C   0  0  0  0  0  2  0  0  0  0  0  0
   33.8750   26.9910   45.3470 C   0  0  0  0  0  2  0  0  0  0  0  0
  1  6  1  0  0  0  0
  2  8  1  0  0  0  0
  3  9  1  0  0  0  0
  3  2  2  0  0  0  0
  4  5  2  0  0  0  0
  4  3  1  0  0  0  0
  5  6  1  0  0  0  0
  6  7  2  0  0  0  0
  7  2  1  0  0  0  0
 10  4  1  0  0  0  0
 11 12  1  0  0  0  0
 11  1  1  0  0  0  0
 13 11  1  0  0  0  0
 14 16  1  0  0  0  0
 14 11  1  0  0  0  0
 15 14  1  0  0  0  0
 17 14  1  0  0  0  0
 18 17  1  0  0  0  0
 19 18  1  0  0  0  0
 19 17  1  0  0  0  0
M  END
>  <minimizedAffinity>
-3.60758257

>  <minimizedRMSD>
0.737625122

$$$$
