
 OpenBabel03262520083D

 12 13  0  0  0  0  0  0  0  0999 V2000
   38.5920   32.6450   49.4010 C   0  0  0  0  0  0  0  0  0  0  0  0
   38.8410   32.6140   48.0170 C   0  0  0  0  0  0  0  0  0  0  0  0
   38.5100   31.4400   47.3040 C   0  0  0  0  0  0  0  0  0  0  0  0
   37.9700   30.4080   48.0000 N   0  0  0  0  0  0  0  0  0  0  0  0
   37.7390   30.4660   49.3380 C   0  0  0  0  0  0  0  0  0  0  0  0
   38.0500   31.5790   50.0340 N   0  0  0  0  0  0  0  0  0  0  0  0
   38.8260   33.5210   50.0000 H   0  0  0  0  0  0  0  0  0  0  0  0
   39.2790   33.4840   47.5220 H   0  0  0  0  0  0  0  0  0  0  0  0
   38.6920   31.3940   46.2430 H   0  0  0  0  0  0  0  0  0  0  0  0
   37.1400   29.2790   50.0270 C   0  0  0  0  0  0  0  0  0  0  0  0
   35.7100   28.9870   49.9690 C   0  0  0  0  0  0  0  0  0  0  0  0
   36.3040   29.5350   51.2380 C   0  0  0  0  0  0  0  0  0  0  0  0
  1  7  1  0  0  0  0
  1  6  1  0  0  0  0
  2  1  2  0  0  0  0
  3  4  2  0  0  0  0
  3  2  1  0  0  0  0
  4  5  1  0  0  0  0
  5 10  1  0  0  0  0
  5  6  2  0  0  0  0
  8  2  1  0  0  0  0
  9  3  1  0  0  0  0
 10 12  1  0  0  0  0
 11 10  1  0  0  0  0
 11 12  1  0  0  0  0
M  END
>  <minimizedAffinity>
-3.94546247

>  <minimizedRMSD>
2.74886727

$$$$
