
 OpenBabel03272506273D

 36 39  0  0  0  0  0  0  0  0999 V2000
   31.7400   26.7230   47.7910 C   0  0  0  0  0  0  0  0  0  0  0  0
   31.6250   25.3470   47.7890 C   0  0  0  0  0  0  0  0  0  0  0  0
   32.6530   24.4850   47.4030 C   0  0  0  0  0  0  0  0  0  0  0  0
   33.8810   25.0530   46.9900 C   0  0  0  0  0  0  0  0  0  0  0  0
   33.9660   26.4150   47.0020 C   0  0  0  0  0  0  0  0  0  0  0  0
   32.9650   27.2560   47.3810 C   0  0  0  0  0  0  0  0  0  0  0  0
   30.6790   24.8800   48.1060 H   0  0  0  0  0  0  0  0  0  0  0  0
   32.4370   23.4030   47.4450 H   0  0  0  0  0  0  0  0  0  0  0  0
   34.5660   24.2790   46.7250 H   0  0  0  0  0  0  0  0  0  0  0  0
   34.9490   26.6210   46.6470 H   0  0  0  0  0  0  0  0  0  0  0  0
   30.4310   27.7100   49.5700 C   0  0  0  0  0  0  0  0  0  0  0  0
   30.5760   27.4660   48.1970 C   0  0  0  0  0  0  0  0  0  0  0  0
   29.5890   27.9560   47.3320 C   0  0  0  0  0  0  0  0  0  0  0  0
   28.5390   28.6430   47.8520 N   0  0  0  0  0  0  0  0  0  0  0  0
   28.4200   28.8690   49.1930 C   0  0  0  0  0  0  0  0  0  0  0  0
   29.3720   28.3980   50.0460 N   0  0  0  0  0  0  0  0  0  0  0  0
   31.1780   27.3430   50.2600 H   0  0  0  0  0  0  0  0  0  0  0  0
   27.5790   29.4190   49.5980 H   0  0  0  0  0  0  0  0  0  0  0  0
   29.6090   27.7700   45.8510 C   0  0  0  0  0  0  0  0  0  0  0  0
   28.4590   28.3590   45.2900 F   0  0  0  0  0  0  0  0  0  0  0  0
   30.6930   28.2450   45.2100 F   0  0  0  0  0  0  0  0  0  0  0  0
   29.4580   26.4210   45.5460 F   0  0  0  0  0  0  0  0  0  0  0  0
   33.1150   28.9930   47.4160 S   0  0  0  0  0  0  0  0  0  0  0  0
   34.7450   28.6550   50.0450 Cl  0  0  0  0  0  0  0  0  0  0  0  0
   35.4630   29.4060   48.6400 C   0  0  0  0  0  0  0  0  0  0  0  0
   34.7840   29.5890   47.4510 C   0  0  0  0  0  0  0  0  0  0  0  0
   35.3870   30.1830   46.3750 C   0  0  0  0  0  0  0  0  0  0  0  0
   36.7110   30.5940   46.5140 C   0  0  0  0  0  0  0  0  0  0  0  0
   37.4000   30.4100   47.7120 C   0  0  0  0  0  0  0  0  0  0  0  0
   36.7760   29.8080   48.7960 C   0  0  0  0  0  0  0  0  0  0  0  0
   34.9490   30.4010   45.4380 H   0  0  0  0  0  0  0  0  0  0  0  0
   37.2290   31.0710   45.6740 H   0  0  0  0  0  0  0  0  0  0  0  0
   38.4320   30.7660   47.7200 H   0  0  0  0  0  0  0  0  0  0  0  0
   37.6550   29.7230   49.9800 C   0  0  0  0  0  3  0  0  0  0  0  0
   38.3470   30.9420   50.5300 C   0  0  0  0  0  2  0  0  0  0  0  0
   37.1430   30.4200   51.2120 C   0  0  0  0  0  2  0  0  0  0  0  0
  1 12  1  0  0  0  0
  2  1  1  0  0  0  0
  2  7  1  0  0  0  0
  3  8  1  0  0  0  0
  3  2  2  0  0  0  0
  4  5  2  0  0  0  0
  4  3  1  0  0  0  0
  5  6  1  0  0  0  0
  6 23  1  0  0  0  0
  6  1  2  0  0  0  0
  9  4  1  0  0  0  0
 10  5  1  0  0  0  0
 11 16  1  0  0  0  0
 11 17  1  0  0  0  0
 12 11  2  0  0  0  0
 13 14  2  0  0  0  0
 13 12  1  0  0  0  0
 14 15  1  0  0  0  0
 15 18  1  0  0  0  0
 15 16  2  0  0  0  0
 19 13  1  0  0  0  0
 20 19  1  0  0  0  0
 21 19  1  0  0  0  0
 22 19  1  0  0  0  0
 23 26  1  0  0  0  0
 25 30  1  0  0  0  0
 25 24  1  0  0  0  0
 26 25  2  0  0  0  0
 27 28  2  0  0  0  0
 27 26  1  0  0  0  0
 28 29  1  0  0  0  0
 29 33  1  0  0  0  0
 29 30  2  0  0  0  0
 30 34  1  0  0  0  0
 31 27  1  0  0  0  0
 32 28  1  0  0  0  0
 34 35  1  0  0  0  0
 34 36  1  0  0  0  0
 35 36  1  0  0  0  0
M  END
>  <minimizedAffinity>
-6.20563841

>  <minimizedRMSD>
3.40003109

$$$$
