
 OpenBabel03272505563D

 28 30  0  0  1  0  0  0  0  0999 V2000
   37.8990   26.4190   33.2400 C   0  0  2  0  0  0  0  0  0  0  0  0
   39.0640   25.7670   33.9270 C   0  0  0  0  0  0  0  0  0  0  0  0
   38.9780   25.7470   35.4190 C   0  0  1  0  0  0  0  0  0  0  0  0
   38.7220   27.1040   36.0030 C   0  0  0  0  0  0  0  0  0  0  0  0
   37.6520   27.8740   35.2810 C   0  0  0  0  0  0  0  0  0  0  0  0
   36.9800   27.1060   34.1850 C   0  0  0  0  0  0  0  0  0  0  0  0
   38.2940   27.1450   32.5090 H   0  0  0  0  0  0  0  0  0  0  0  0
   39.1340   24.6980   33.5980 H   0  0  0  0  0  0  0  0  0  0  0  0
   40.0260   26.2610   33.6360 H   0  0  0  0  0  0  0  0  0  0  0  0
   40.0440   25.5100   35.7480 H   0  0  0  0  0  0  0  0  0  0  0  0
   38.5770   27.0630   37.0780 H   0  0  0  0  0  0  0  0  0  0  0  0
   39.6700   27.7070   35.8530 H   0  0  0  0  0  0  0  0  0  0  0  0
   36.8820   28.1800   36.0160 H   0  0  0  0  0  0  0  0  0  0  0  0
   38.0310   28.8320   34.8230 H   0  0  0  0  0  0  0  0  0  0  0  0
   36.4130   27.8960   33.5890 H   0  0  0  0  0  0  0  0  0  0  0  0
   36.1770   26.4210   34.5040 H   0  0  0  0  0  0  0  0  0  0  0  0
   37.1080   25.3840   32.5080 C   0  0  0  0  0  0  0  0  0  0  0  0
   36.0380   25.8650   31.7290 C   0  0  0  0  0  0  0  0  0  0  0  0
   35.2790   24.9010   31.0480 C   0  0  0  0  0  0  0  0  0  0  0  0
   35.6080   23.5730   31.1710 N   0  0  0  0  0  0  0  0  0  0  0  0
   36.6540   23.1550   31.9390 C   0  0  0  0  0  0  0  0  0  0  0  0
   37.3880   24.0620   32.5950 N   0  0  0  0  0  0  0  0  0  0  0  0
   35.7480   26.8840   31.6050 H   0  0  0  0  0  0  0  0  0  0  0  0
   34.4440   25.2030   30.4320 H   0  0  0  0  0  0  0  0  0  0  0  0
   36.8440   22.0920   31.9830 H   0  0  0  0  0  0  0  0  0  0  0  0
   38.1720   24.6310   35.9750 C   0  0  0  0  0  3  0  0  0  0  0  0
   38.9730   23.5730   36.7590 C   0  0  0  0  0  2  0  0  0  0  0  0
   37.9330   24.3950   37.4150 C   0  0  0  0  0  2  0  0  0  0  0  0
  1  7  1  6  0  0  0
  1  2  1  0  0  0  0
  1  6  1  0  0  0  0
  2  3  1  0  0  0  0
  3 10  1  1  0  0  0
  3 26  1  0  0  0  0
  3  4  1  0  0  0  0
  4 11  1  0  0  0  0
  5  4  1  0  0  0  0
  5 13  1  0  0  0  0
  6 16  1  0  0  0  0
  6  5  1  0  0  0  0
  8  2  1  0  0  0  0
  9  2  1  0  0  0  0
 12  4  1  0  0  0  0
 14  5  1  0  0  0  0
 15  6  1  0  0  0  0
 17 22  1  0  0  0  0
 17  1  1  0  0  0  0
 18 17  2  0  0  0  0
 19 20  2  0  0  0  0
 19 18  1  0  0  0  0
 20 21  1  0  0  0  0
 21 25  1  0  0  0  0
 21 22  2  0  0  0  0
 23 18  1  0  0  0  0
 24 19  1  0  0  0  0
 26 27  1  0  0  0  0
 26 28  1  0  0  0  0
 27 28  1  0  0  0  0
M  END
>  <minimizedAffinity>
-4.68464613

$$$$

 OpenBabel03272505563D

 28 30  0  0  1  0  0  0  0  0999 V2000
   37.4530   21.4100   33.3210 C   0  0  2  0  0  0  0  0  0  0  0  0
   37.7190   22.1040   32.0160 C   0  0  0  0  0  0  0  0  0  0  0  0
   36.4960   22.5690   31.2950 C   0  0  1  0  0  0  0  0  0  0  0  0
   35.4840   21.4790   31.1080 C   0  0  0  0  0  0  0  0  0  0  0  0
   35.2590   20.6520   32.3420 C   0  0  0  0  0  0  0  0  0  0  0  0
   36.0090   21.1340   33.5460 C   0  0  0  0  0  0  0  0  0  0  0  0
   38.0200   20.4630   33.3280 H   0  0  0  0  0  0  0  0  0  0  0  0
   38.3430   23.0150   32.2060 H   0  0  0  0  0  0  0  0  0  0  0  0
   38.3060   21.4450   31.3270 H   0  0  0  0  0  0  0  0  0  0  0  0
   36.8690   22.7750   30.2370 H   0  0  0  0  0  0  0  0  0  0  0  0
   34.5670   21.8470   30.6590 H   0  0  0  0  0  0  0  0  0  0  0  0
   35.9180   20.7590   30.3470 H   0  0  0  0  0  0  0  0  0  0  0  0
   34.1770   20.6600   32.5790 H   0  0  0  0  0  0  0  0  0  0  0  0
   35.5300   19.5670   32.2020 H   0  0  0  0  0  0  0  0  0  0  0  0
   35.9440   20.2700   34.2870 H   0  0  0  0  0  0  0  0  0  0  0  0
   35.5420   21.9650   34.0990 H   0  0  0  0  0  0  0  0  0  0  0  0
   37.9320   22.2650   34.4490 C   0  0  0  0  0  0  0  0  0  0  0  0
   38.8700   23.2600   34.1110 C   0  0  0  0  0  0  0  0  0  0  0  0
   39.3380   24.0600   35.1650 C   0  0  0  0  0  0  0  0  0  0  0  0
   38.8710   23.8400   36.4370 N   0  0  0  0  0  0  0  0  0  0  0  0
   37.9620   22.8630   36.7160 C   0  0  0  0  0  0  0  0  0  0  0  0
   37.5060   22.0900   35.7220 N   0  0  0  0  0  0  0  0  0  0  0  0
   39.2590   23.4650   33.1390 H   0  0  0  0  0  0  0  0  0  0  0  0
   40.0590   24.8420   34.9730 H   0  0  0  0  0  0  0  0  0  0  0  0
   37.6480   22.7560   37.7450 H   0  0  0  0  0  0  0  0  0  0  0  0
   35.9710   23.8790   31.7540 C   0  0  0  0  0  3  0  0  0  0  0  0
   36.5290   25.1070   31.0070 C   0  0  0  0  0  2  0  0  0  0  0  0
   35.0920   24.7640   30.9600 C   0  0  0  0  0  2  0  0  0  0  0  0
  1  7  1  1  0  0  0
  1  6  1  0  0  0  0
  1 17  1  0  0  0  0
  2  8  1  0  0  0  0
  2  1  1  0  0  0  0
  3 10  1  6  0  0  0
  3 26  1  0  0  0  0
  3  2  1  0  0  0  0
  4  3  1  0  0  0  0
  4  5  1  0  0  0  0
  5 13  1  0  0  0  0
  5  6  1  0  0  0  0
  6 16  1  0  0  0  0
  6 15  1  0  0  0  0
  9  2  1  0  0  0  0
 11  4  1  0  0  0  0
 12  4  1  0  0  0  0
 14  5  1  0  0  0  0
 17 22  1  0  0  0  0
 18 17  2  0  0  0  0
 18 19  1  0  0  0  0
 19 20  2  0  0  0  0
 20 21  1  0  0  0  0
 21 25  1  0  0  0  0
 22 21  2  0  0  0  0
 23 18  1  0  0  0  0
 24 19  1  0  0  0  0
 27 26  1  0  0  0  0
 28 27  1  0  0  0  0
 28 26  1  0  0  0  0
M  END
>  <minimizedAffinity>
-4.34401226

$$$$

 OpenBabel03272505563D

 28 30  0  0  1  0  0  0  0  0999 V2000
   39.8020   22.2640   36.5850 C   0  0  2  0  0  0  0  0  0  0  0  0
   38.6920   22.7850   35.7180 C   0  0  0  0  0  0  0  0  0  0  0  0
   38.0720   24.0580   36.1950 C   0  0  1  0  0  0  0  0  0  0  0  0
   37.6250   23.9860   37.6250 C   0  0  0  0  0  0  0  0  0  0  0  0
   38.6380   23.3520   38.5360 C   0  0  0  0  0  0  0  0  0  0  0  0
   39.9320   23.0070   37.8670 C   0  0  0  0  0  0  0  0  0  0  0  0
   39.6060   21.1980   36.7910 H   0  0  0  0  0  0  0  0  0  0  0  0
   39.0930   22.9900   34.6920 H   0  0  0  0  0  0  0  0  0  0  0  0
   37.8830   22.0190   35.6050 H   0  0  0  0  0  0  0  0  0  0  0  0
   37.0930   24.1170   35.6110 H   0  0  0  0  0  0  0  0  0  0  0  0
   37.2540   24.9400   37.9840 H   0  0  0  0  0  0  0  0  0  0  0  0
   36.7310   23.2900   37.6510 H   0  0  0  0  0  0  0  0  0  0  0  0
   38.8510   24.0540   39.3680 H   0  0  0  0  0  0  0  0  0  0  0  0
   38.2620   22.4090   39.0260 H   0  0  0  0  0  0  0  0  0  0  0  0
   40.4600   22.3160   38.6040 H   0  0  0  0  0  0  0  0  0  0  0  0
   40.6500   23.8370   37.7570 H   0  0  0  0  0  0  0  0  0  0  0  0
   41.1010   22.3830   35.8580 C   0  0  0  0  0  0  0  0  0  0  0  0
   42.1360   23.0420   36.5490 C   0  0  0  0  0  0  0  0  0  0  0  0
   43.3580   23.1710   35.8700 C   0  0  0  0  0  0  0  0  0  0  0  0
   43.4800   22.6620   34.6010 N   0  0  0  0  0  0  0  0  0  0  0  0
   42.4490   22.0310   33.9710 C   0  0  0  0  0  0  0  0  0  0  0  0
   41.2770   21.8990   34.6050 N   0  0  0  0  0  0  0  0  0  0  0  0
   42.0840   23.4520   37.5330 H   0  0  0  0  0  0  0  0  0  0  0  0
   44.1920   23.6670   36.3450 H   0  0  0  0  0  0  0  0  0  0  0  0
   42.6300   21.6600   32.9720 H   0  0  0  0  0  0  0  0  0  0  0  0
   38.8040   25.2860   35.7980 C   0  0  0  0  0  3  0  0  0  0  0  0
   38.0520   26.2090   34.8170 C   0  0  0  0  0  2  0  0  0  0  0  0
   38.4160   26.6630   36.1760 C   0  0  0  0  0  2  0  0  0  0  0  0
  1  7  1  1  0  0  0
  1  6  1  0  0  0  0
  2  3  1  0  0  0  0
  2  1  1  0  0  0  0
  3 10  1  6  0  0  0
  3  4  1  0  0  0  0
  4 12  1  0  0  0  0
  4 11  1  0  0  0  0
  4  5  1  0  0  0  0
  5 14  1  0  0  0  0
  5 13  1  0  0  0  0
  6  5  1  0  0  0  0
  6 15  1  0  0  0  0
  8  2  1  0  0  0  0
  9  2  1  0  0  0  0
 16  6  1  0  0  0  0
 17 18  1  0  0  0  0
 17  1  1  0  0  0  0
 18 23  1  0  0  0  0
 19 24  1  0  0  0  0
 19 18  2  0  0  0  0
 20 19  1  0  0  0  0
 21 20  2  0  0  0  0
 21 22  1  0  0  0  0
 22 17  2  0  0  0  0
 25 21  1  0  0  0  0
 26 28  1  0  0  0  0
 26  3  1  0  0  0  0
 27 26  1  0  0  0  0
 27 28  1  0  0  0  0
M  END
>  <minimizedAffinity>
-4.24793959

$$$$

 OpenBabel03272505563D

 28 30  0  0  1  0  0  0  0  0999 V2000
   38.9940   24.3330   35.6130 C   0  0  2  0  0  0  0  0  0  0  0  0
   38.1070   25.3470   36.2760 C   0  0  0  0  0  0  0  0  0  0  0  0
   38.0560   26.6740   35.5930 C   0  0  1  0  0  0  0  0  0  0  0  0
   39.4170   27.2540   35.3500 C   0  0  0  0  0  0  0  0  0  0  0  0
   40.4020   26.2590   34.8060 C   0  0  0  0  0  0  0  0  0  0  0  0
   39.8160   24.9120   34.5160 C   0  0  0  0  0  0  0  0  0  0  0  0
   39.6530   23.8970   36.3830 H   0  0  0  0  0  0  0  0  0  0  0  0
   37.0560   24.9580   36.2960 H   0  0  0  0  0  0  0  0  0  0  0  0
   38.4140   25.5090   37.3400 H   0  0  0  0  0  0  0  0  0  0  0  0
   37.6050   27.3660   36.3810 H   0  0  0  0  0  0  0  0  0  0  0  0
   39.3700   28.1770   34.7790 H   0  0  0  0  0  0  0  0  0  0  0  0
   39.8290   27.5520   36.3630 H   0  0  0  0  0  0  0  0  0  0  0  0
   40.8280   26.6640   33.8660 H   0  0  0  0  0  0  0  0  0  0  0  0
   41.2830   26.0920   35.4890 H   0  0  0  0  0  0  0  0  0  0  0  0
   40.7190   24.2310   34.3780 H   0  0  0  0  0  0  0  0  0  0  0  0
   39.2890   24.8170   33.5520 H   0  0  0  0  0  0  0  0  0  0  0  0
   38.1570   23.2440   35.0250 C   0  0  0  0  0  0  0  0  0  0  0  0
   38.0270   23.2560   33.6230 C   0  0  0  0  0  0  0  0  0  0  0  0
   37.2300   22.2460   33.0610 C   0  0  0  0  0  0  0  0  0  0  0  0
   36.6350   21.3210   33.8840 N   0  0  0  0  0  0  0  0  0  0  0  0
   36.7900   21.3500   35.2380 C   0  0  0  0  0  0  0  0  0  0  0  0
   37.5470   22.3080   35.7900 N   0  0  0  0  0  0  0  0  0  0  0  0
   38.4690   23.9540   32.9480 H   0  0  0  0  0  0  0  0  0  0  0  0
   37.0900   22.1980   31.9910 H   0  0  0  0  0  0  0  0  0  0  0  0
   36.2860   20.5850   35.8120 H   0  0  0  0  0  0  0  0  0  0  0  0
   37.1000   26.7480   34.4590 C   0  0  0  0  0  3  0  0  0  0  0  0
   36.4030   28.1120   34.2770 C   0  0  0  0  0  2  0  0  0  0  0  0
   37.2960   27.5570   33.2370 C   0  0  0  0  0  2  0  0  0  0  0  0
  1  2  1  0  0  0  0
  1  7  1  1  0  0  0
  2  8  1  0  0  0  0
  2  9  1  0  0  0  0
  3  2  1  0  0  0  0
  3 10  1  1  0  0  0
  4  3  1  0  0  0  0
  4 12  1  0  0  0  0
  5  4  1  0  0  0  0
  5 14  1  0  0  0  0
  6  5  1  0  0  0  0
  6  1  1  0  0  0  0
 11  4  1  0  0  0  0
 13  5  1  0  0  0  0
 15  6  1  0  0  0  0
 16  6  1  0  0  0  0
 17  1  1  0  0  0  0
 17 22  1  0  0  0  0
 18 17  2  0  0  0  0
 19 18  1  0  0  0  0
 19 20  2  0  0  0  0
 20 21  1  0  0  0  0
 21 22  2  0  0  0  0
 21 25  1  0  0  0  0
 23 18  1  0  0  0  0
 24 19  1  0  0  0  0
 26  3  1  0  0  0  0
 27 26  1  0  0  0  0
 28 27  1  0  0  0  0
 28 26  1  0  0  0  0
M  END
>  <minimizedAffinity>
-4.22029734

$$$$

 OpenBabel03272505563D

 28 30  0  0  1  0  0  0  0  0999 V2000
   37.5530   26.6060   34.9630 C   0  0  2  0  0  0  0  0  0  0  0  0
   38.8210   27.2660   35.4250 C   0  0  0  0  0  0  0  0  0  0  0  0
   40.0730   26.6720   34.8660 C   0  0  1  0  0  0  0  0  0  0  0  0
   40.1540   25.1890   35.0710 C   0  0  0  0  0  0  0  0  0  0  0  0
   38.8730   24.4710   34.7520 C   0  0  0  0  0  0  0  0  0  0  0  0
   37.7970   25.3540   34.1990 C   0  0  0  0  0  0  0  0  0  0  0  0
   36.9370   26.3870   35.8520 H   0  0  0  0  0  0  0  0  0  0  0  0
   38.8100   28.3420   35.1110 H   0  0  0  0  0  0  0  0  0  0  0  0
   38.8930   27.2530   36.5420 H   0  0  0  0  0  0  0  0  0  0  0  0
   40.8930   27.0830   35.5460 H   0  0  0  0  0  0  0  0  0  0  0  0
   41.0250   24.7590   34.5880 H   0  0  0  0  0  0  0  0  0  0  0  0
   40.3160   25.0230   36.1800 H   0  0  0  0  0  0  0  0  0  0  0  0
   39.0900   23.6770   34.0100 H   0  0  0  0  0  0  0  0  0  0  0  0
   38.4320   23.9400   35.6430 H   0  0  0  0  0  0  0  0  0  0  0  0
   36.8480   24.7270   34.2690 H   0  0  0  0  0  0  0  0  0  0  0  0
   37.8650   25.5710   33.1200 H   0  0  0  0  0  0  0  0  0  0  0  0
   36.7990   27.5410   34.0740 C   0  0  0  0  0  0  0  0  0  0  0  0
   36.7480   27.1880   32.7120 C   0  0  0  0  0  0  0  0  0  0  0  0
   36.0540   28.0660   31.8650 C   0  0  0  0  0  0  0  0  0  0  0  0
   35.4740   29.1930   32.3910 N   0  0  0  0  0  0  0  0  0  0  0  0
   35.5500   29.4940   33.7190 C   0  0  0  0  0  0  0  0  0  0  0  0
   36.2090   28.6670   34.5410 N   0  0  0  0  0  0  0  0  0  0  0  0
   37.1840   26.3250   32.2610 H   0  0  0  0  0  0  0  0  0  0  0  0
   35.9780   27.8530   30.8080 H   0  0  0  0  0  0  0  0  0  0  0  0
   35.0670   30.4020   34.0510 H   0  0  0  0  0  0  0  0  0  0  0  0
   40.4410   27.1690   33.5160 C   0  0  0  0  0  3  0  0  0  0  0  0
   41.9420   27.4600   33.3120 C   0  0  0  0  0  2  0  0  0  0  0  0
   41.2450   26.4180   32.5280 C   0  0  0  0  0  2  0  0  0  0  0  0
  1  2  1  0  0  0  0
  1  7  1  1  0  0  0
  2  9  1  0  0  0  0
  3  4  1  0  0  0  0
  3  2  1  0  0  0  0
  3 10  1  1  0  0  0
  4 12  1  0  0  0  0
  5  4  1  0  0  0  0
  5 14  1  0  0  0  0
  6 15  1  0  0  0  0
  6  5  1  0  0  0  0
  6  1  1  0  0  0  0
  8  2  1  0  0  0  0
 11  4  1  0  0  0  0
 13  5  1  0  0  0  0
 16  6  1  0  0  0  0
 17 22  1  0  0  0  0
 17  1  1  0  0  0  0
 18 17  2  0  0  0  0
 19 20  2  0  0  0  0
 19 18  1  0  0  0  0
 20 21  1  0  0  0  0
 21 25  1  0  0  0  0
 21 22  2  0  0  0  0
 23 18  1  0  0  0  0
 24 19  1  0  0  0  0
 26  3  1  0  0  0  0
 27 26  1  0  0  0  0
 28 27  1  0  0  0  0
 28 26  1  0  0  0  0
M  END
>  <minimizedAffinity>
-4.18039227

$$$$

 OpenBabel03272505563D

 28 30  0  0  1  0  0  0  0  0999 V2000
   37.8090   25.0700   35.2890 C   0  0  2  0  0  0  0  0  0  0  0  0
   38.3390   24.8870   33.8960 C   0  0  0  0  0  0  0  0  0  0  0  0
   39.0370   26.0820   33.3320 C   0  0  1  0  0  0  0  0  0  0  0  0
   38.2100   27.3300   33.4140 C   0  0  0  0  0  0  0  0  0  0  0  0
   37.5370   27.5140   34.7450 C   0  0  0  0  0  0  0  0  0  0  0  0
   37.8990   26.4770   35.7630 C   0  0  0  0  0  0  0  0  0  0  0  0
   36.7560   24.7380   35.3020 H   0  0  0  0  0  0  0  0  0  0  0  0
   39.0850   24.0510   33.8940 H   0  0  0  0  0  0  0  0  0  0  0  0
   37.5190   24.5940   33.1930 H   0  0  0  0  0  0  0  0  0  0  0  0
   39.0840   25.8630   32.2130 H   0  0  0  0  0  0  0  0  0  0  0  0
   38.7590   28.2040   33.0790 H   0  0  0  0  0  0  0  0  0  0  0  0
   37.3630   27.2080   32.6710 H   0  0  0  0  0  0  0  0  0  0  0  0
   37.8170   28.5090   35.1460 H   0  0  0  0  0  0  0  0  0  0  0  0
   36.4130   27.5230   34.6730 H   0  0  0  0  0  0  0  0  0  0  0  0
   37.1230   26.6040   36.5880 H   0  0  0  0  0  0  0  0  0  0  0  0
   38.8490   26.6410   36.2970 H   0  0  0  0  0  0  0  0  0  0  0  0
   38.5920   24.2210   36.2370 C   0  0  0  0  0  0  0  0  0  0  0  0
   38.1200   24.1840   37.5630 C   0  0  0  0  0  0  0  0  0  0  0  0
   38.8550   23.4010   38.4660 C   0  0  0  0  0  0  0  0  0  0  0  0
   39.9670   22.7270   38.0240 N   0  0  0  0  0  0  0  0  0  0  0  0
   40.3860   22.7940   36.7280 C   0  0  0  0  0  0  0  0  0  0  0  0
   39.6960   23.5370   35.8540 N   0  0  0  0  0  0  0  0  0  0  0  0
   37.2640   24.6900   37.9490 H   0  0  0  0  0  0  0  0  0  0  0  0
   38.5460   23.3300   39.4990 H   0  0  0  0  0  0  0  0  0  0  0  0
   41.2720   22.2340   36.4640 H   0  0  0  0  0  0  0  0  0  0  0  0
   40.4600   26.2110   33.7340 C   0  0  0  0  0  3  0  0  0  0  0  0
   41.4710   26.2240   32.5700 C   0  0  0  0  0  2  0  0  0  0  0  0
   41.3130   27.3890   33.4660 C   0  0  0  0  0  2  0  0  0  0  0  0
  1  7  1  1  0  0  0
  1  6  1  0  0  0  0
  1 17  1  0  0  0  0
  2  1  1  0  0  0  0
  3 10  1  6  0  0  0
  3  4  1  0  0  0  0
  3 26  1  0  0  0  0
  3  2  1  0  0  0  0
  4  5  1  0  0  0  0
  5 13  1  0  0  0  0
  5  6  1  0  0  0  0
  6 16  1  0  0  0  0
  6 15  1  0  0  0  0
  8  2  1  0  0  0  0
  9  2  1  0  0  0  0
 11  4  1  0  0  0  0
 12  4  1  0  0  0  0
 14  5  1  0  0  0  0
 17 18  1  0  0  0  0
 18 23  1  0  0  0  0
 18 19  2  0  0  0  0
 19 24  1  0  0  0  0
 20 19  1  0  0  0  0
 21 20  2  0  0  0  0
 22 17  2  0  0  0  0
 22 21  1  0  0  0  0
 25 21  1  0  0  0  0
 27 28  1  0  0  0  0
 27 26  1  0  0  0  0
 28 26  1  0  0  0  0
M  END
>  <minimizedAffinity>
-4.1747489

$$$$

 OpenBabel03272505563D

 28 30  0  0  1  0  0  0  0  0999 V2000
   37.0370   24.6510   31.2670 C   0  0  2  0  0  0  0  0  0  0  0  0
   38.2430   25.3380   31.8400 C   0  0  0  0  0  0  0  0  0  0  0  0
   37.9530   26.6240   32.5440 C   0  0  1  0  0  0  0  0  0  0  0  0
   37.1610   27.5790   31.7030 C   0  0  0  0  0  0  0  0  0  0  0  0
   36.0080   26.9330   30.9890 C   0  0  0  0  0  0  0  0  0  0  0  0
   35.8100   25.4880   31.3290 C   0  0  0  0  0  0  0  0  0  0  0  0
   37.2570   24.3890   30.2180 H   0  0  0  0  0  0  0  0  0  0  0  0
   38.7260   24.6640   32.5940 H   0  0  0  0  0  0  0  0  0  0  0  0
   39.0050   25.5350   31.0440 H   0  0  0  0  0  0  0  0  0  0  0  0
   38.9770   27.1230   32.6260 H   0  0  0  0  0  0  0  0  0  0  0  0
   36.8850   28.4740   32.2530 H   0  0  0  0  0  0  0  0  0  0  0  0
   37.8520   27.9380   30.8790 H   0  0  0  0  0  0  0  0  0  0  0  0
   35.0810   27.4830   31.2470 H   0  0  0  0  0  0  0  0  0  0  0  0
   36.0930   26.9950   29.8670 H   0  0  0  0  0  0  0  0  0  0  0  0
   35.0970   25.1000   30.5280 H   0  0  0  0  0  0  0  0  0  0  0  0
   35.2570   25.2880   32.2620 H   0  0  0  0  0  0  0  0  0  0  0  0
   36.7690   23.3940   32.0290 C   0  0  0  0  0  0  0  0  0  0  0  0
   35.5990   22.6970   31.6730 C   0  0  0  0  0  0  0  0  0  0  0  0
   35.3280   21.5220   32.3920 C   0  0  0  0  0  0  0  0  0  0  0  0
   36.1950   21.1210   33.3790 N   0  0  0  0  0  0  0  0  0  0  0  0
   37.3180   21.8300   33.6890 C   0  0  0  0  0  0  0  0  0  0  0  0
   37.5890   22.9540   33.0120 N   0  0  0  0  0  0  0  0  0  0  0  0
   34.8990   22.9710   30.9160 H   0  0  0  0  0  0  0  0  0  0  0  0
   34.4460   20.9390   32.1680 H   0  0  0  0  0  0  0  0  0  0  0  0
   37.9460   21.4460   34.4800 H   0  0  0  0  0  0  0  0  0  0  0  0
   37.5130   26.4700   33.9530 C   0  0  0  0  0  3  0  0  0  0  0  0
   38.4510   27.0970   35.0040 C   0  0  0  0  0  2  0  0  0  0  0  0
   37.0640   27.5760   34.8250 C   0  0  0  0  0  2  0  0  0  0  0  0
  1  7  1  6  0  0  0
  1  6  1  0  0  0  0
  1  2  1  0  0  0  0
  1 17  1  0  0  0  0
  2  3  1  0  0  0  0
  2  8  1  0  0  0  0
  3 10  1  1  0  0  0
  3 26  1  0  0  0  0
  4 11  1  0  0  0  0
  4  3  1  0  0  0  0
  5 13  1  0  0  0  0
  5  6  1  0  0  0  0
  5  4  1  0  0  0  0
  6 16  1  0  0  0  0
  9  2  1  0  0  0  0
 12  4  1  0  0  0  0
 14  5  1  0  0  0  0
 15  6  1  0  0  0  0
 17 22  1  0  0  0  0
 18 17  2  0  0  0  0
 18 19  1  0  0  0  0
 19 20  2  0  0  0  0
 20 21  1  0  0  0  0
 21 25  1  0  0  0  0
 22 21  2  0  0  0  0
 23 18  1  0  0  0  0
 24 19  1  0  0  0  0
 26 28  1  0  0  0  0
 26 27  1  0  0  0  0
 28 27  1  0  0  0  0
M  END
>  <minimizedAffinity>
-4.16006041

$$$$

 OpenBabel03272505563D

 28 30  0  0  1  0  0  0  0  0999 V2000
   38.6310   26.4960   34.7320 C   0  0  2  0  0  0  0  0  0  0  0  0
   37.2230   26.6210   34.2270 C   0  0  0  0  0  0  0  0  0  0  0  0
   37.0620   26.3880   32.7600 C   0  0  1  0  0  0  0  0  0  0  0  0
   37.9880   27.2310   31.9350 C   0  0  0  0  0  0  0  0  0  0  0  0
   39.3960   27.2610   32.4580 C   0  0  0  0  0  0  0  0  0  0  0  0
   39.6300   26.3680   33.6370 C   0  0  0  0  0  0  0  0  0  0  0  0
   38.8580   27.3870   35.3420 H   0  0  0  0  0  0  0  0  0  0  0  0
   36.5790   25.8620   34.7430 H   0  0  0  0  0  0  0  0  0  0  0  0
   36.8000   27.6280   34.4730 H   0  0  0  0  0  0  0  0  0  0  0  0
   36.0300   26.8180   32.5300 H   0  0  0  0  0  0  0  0  0  0  0  0
   37.9210   26.9930   30.8780 H   0  0  0  0  0  0  0  0  0  0  0  0
   37.6200   28.3000   32.0230 H   0  0  0  0  0  0  0  0  0  0  0  0
   40.0800   26.9490   31.6430 H   0  0  0  0  0  0  0  0  0  0  0  0
   39.7340   28.2930   32.7570 H   0  0  0  0  0  0  0  0  0  0  0  0
   40.6340   26.7070   34.0570 H   0  0  0  0  0  0  0  0  0  0  0  0
   39.8100   25.3050   33.4050 H   0  0  0  0  0  0  0  0  0  0  0  0
   38.7470   25.2810   35.5950 C   0  0  0  0  0  0  0  0  0  0  0  0
   39.6940   24.3230   35.1850 C   0  0  0  0  0  0  0  0  0  0  0  0
   39.8020   23.1710   35.9810 C   0  0  0  0  0  0  0  0  0  0  0  0
   39.0010   23.0400   37.0880 N   0  0  0  0  0  0  0  0  0  0  0  0
   38.0960   23.9950   37.4450 C   0  0  0  0  0  0  0  0  0  0  0  0
   37.9810   25.1000   36.6970 N   0  0  0  0  0  0  0  0  0  0  0  0
   40.3350   24.3840   34.3340 H   0  0  0  0  0  0  0  0  0  0  0  0
   40.5100   22.3970   35.7210 H   0  0  0  0  0  0  0  0  0  0  0  0
   37.5040   23.8130   38.3310 H   0  0  0  0  0  0  0  0  0  0  0  0
   36.9540   24.9600   32.3710 C   0  0  0  0  0  3  0  0  0  0  0  0
   35.7140   24.6050   31.5240 C   0  0  0  0  0  2  0  0  0  0  0  0
   37.0840   24.4470   30.9900 C   0  0  0  0  0  2  0  0  0  0  0  0
  1  7  1  1  0  0  0
  1 17  1  0  0  0  0
  2  9  1  0  0  0  0
  2  1  1  0  0  0  0
  2  8  1  0  0  0  0
  3 10  1  6  0  0  0
  3  2  1  0  0  0  0
  4 12  1  0  0  0  0
  4  5  1  0  0  0  0
  4  3  1  0  0  0  0
  5 14  1  0  0  0  0
  5  6  1  0  0  0  0
  6 15  1  0  0  0  0
  6  1  1  0  0  0  0
 11  4  1  0  0  0  0
 13  5  1  0  0  0  0
 16  6  1  0  0  0  0
 17 22  1  0  0  0  0
 18 17  2  0  0  0  0
 18 19  1  0  0  0  0
 19 20  2  0  0  0  0
 20 21  1  0  0  0  0
 21 25  1  0  0  0  0
 22 21  2  0  0  0  0
 23 18  1  0  0  0  0
 24 19  1  0  0  0  0
 26  3  1  0  0  0  0
 27 26  1  0  0  0  0
 28 27  1  0  0  0  0
 28 26  1  0  0  0  0
M  END
>  <minimizedAffinity>
-4.12686634

$$$$

 OpenBabel03272505563D

 28 30  0  0  1  0  0  0  0  0999 V2000
   36.6830   20.9210   33.0390 C   0  0  2  0  0  0  0  0  0  0  0  0
   37.8260   20.2290   32.3530 C   0  0  0  0  0  0  0  0  0  0  0  0
   37.4210   19.1880   31.3620 C   0  0  1  0  0  0  0  0  0  0  0  0
   36.4710   18.1790   31.9350 C   0  0  0  0  0  0  0  0  0  0  0  0
   35.3680   18.7920   32.7500 C   0  0  0  0  0  0  0  0  0  0  0  0
   35.3670   20.2900   32.7510 C   0  0  0  0  0  0  0  0  0  0  0  0
   36.8740   20.9050   34.1260 H   0  0  0  0  0  0  0  0  0  0  0  0
   38.4290   20.9880   31.7900 H   0  0  0  0  0  0  0  0  0  0  0  0
   38.5120   19.7570   33.1010 H   0  0  0  0  0  0  0  0  0  0  0  0
   38.3780   18.5900   31.1920 H   0  0  0  0  0  0  0  0  0  0  0  0
   36.1200   17.4780   31.1850 H   0  0  0  0  0  0  0  0  0  0  0  0
   37.0660   17.5540   32.6700 H   0  0  0  0  0  0  0  0  0  0  0  0
   34.3960   18.4430   32.3460 H   0  0  0  0  0  0  0  0  0  0  0  0
   35.3820   18.4650   33.8280 H   0  0  0  0  0  0  0  0  0  0  0  0
   34.6640   20.5750   33.6020 H   0  0  0  0  0  0  0  0  0  0  0  0
   34.8960   20.7690   31.8760 H   0  0  0  0  0  0  0  0  0  0  0  0
   36.6140   22.3420   32.5840 C   0  0  0  0  0  0  0  0  0  0  0  0
   35.5910   22.6450   31.6640 C   0  0  0  0  0  0  0  0  0  0  0  0
   35.5250   23.9750   31.2190 C   0  0  0  0  0  0  0  0  0  0  0  0
   36.4340   24.8890   31.6910 N   0  0  0  0  0  0  0  0  0  0  0  0
   37.4080   24.5490   32.5820 C   0  0  0  0  0  0  0  0  0  0  0  0
   37.4850   23.2840   33.0160 N   0  0  0  0  0  0  0  0  0  0  0  0
   34.8660   21.9680   31.2720 H   0  0  0  0  0  0  0  0  0  0  0  0
   34.7640   24.2730   30.5120 H   0  0  0  0  0  0  0  0  0  0  0  0
   38.0840   25.3300   32.9010 H   0  0  0  0  0  0  0  0  0  0  0  0
   37.0820   19.7160   30.0160 C   0  0  0  0  0  3  0  0  0  0  0  0
   38.0660   19.3270   28.8940 C   0  0  0  0  0  2  0  0  0  0  0  0
   36.6530   18.8910   28.8660 C   0  0  0  0  0  2  0  0  0  0  0  0
  1  7  1  1  0  0  0
  2  1  1  0  0  0  0
  2  9  1  0  0  0  0
  3 10  1  6  0  0  0
  3  4  1  0  0  0  0
  3  2  1  0  0  0  0
  4 12  1  0  0  0  0
  4  5  1  0  0  0  0
  5  6  1  0  0  0  0
  5 14  1  0  0  0  0
  6  1  1  0  0  0  0
  6 15  1  0  0  0  0
  8  2  1  0  0  0  0
 11  4  1  0  0  0  0
 13  5  1  0  0  0  0
 16  6  1  0  0  0  0
 17 22  1  0  0  0  0
 17  1  1  0  0  0  0
 18 17  2  0  0  0  0
 19 18  1  0  0  0  0
 19 20  2  0  0  0  0
 20 21  1  0  0  0  0
 21 25  1  0  0  0  0
 21 22  2  0  0  0  0
 23 18  1  0  0  0  0
 24 19  1  0  0  0  0
 26  3  1  0  0  0  0
 27 26  1  0  0  0  0
 28 27  1  0  0  0  0
 28 26  1  0  0  0  0
M  END
>  <minimizedAffinity>
-4.04404402

$$$$
