
 OpenBabel03272510233D

 25 28  0  0  0  0  0  0  0  0999 V2000
   35.4690   29.9220   46.9640 C   0  0  0  0  0  0  0  0  0  0  0  0
   36.6120   30.3260   47.6300 C   0  0  0  0  0  0  0  0  0  0  0  0
   37.6380   30.8930   46.9230 C   0  0  0  0  0  0  0  0  0  0  0  0
   37.4890   31.0420   45.5420 C   0  0  0  0  0  0  0  0  0  0  0  0
   38.3820   31.5760   44.6650 N   0  0  0  0  0  0  0  0  0  0  0  0
   37.8030   31.5070   43.4600 C   0  0  0  0  0  0  0  0  0  0  0  0
   36.5870   30.9510   43.5520 N   0  0  0  0  0  0  0  0  0  0  0  0
   36.3580   30.6480   44.8460 C   0  0  0  0  0  0  0  0  0  0  0  0
   35.3350   30.0770   45.5840 C   0  0  0  0  0  0  0  0  0  0  0  0
   34.6080   29.4630   47.4490 H   0  0  0  0  0  0  0  0  0  0  0  0
   38.5410   31.2160   47.4240 H   0  0  0  0  0  0  0  0  0  0  0  0
   39.3180   31.9580   44.8910 H   0  0  0  0  0  0  0  0  0  0  0  0
   34.4440   29.7630   45.0610 H   0  0  0  0  0  0  0  0  0  0  0  0
   37.6330   30.2760   51.2460 C   0  0  0  0  0  0  0  0  0  0  0  0
   37.7020   30.5280   49.8710 C   0  0  0  0  0  0  0  0  0  0  0  0
   36.6560   30.1220   49.0660 C   0  0  0  0  0  0  0  0  0  0  0  0
   35.5950   29.4870   49.6460 N   0  0  0  0  0  0  0  0  0  0  0  0
   35.5450   29.2500   50.9840 C   0  0  0  0  0  0  0  0  0  0  0  0
   36.5600   29.6440   51.7750 N   0  0  0  0  0  0  0  0  0  0  0  0
   38.4800   30.6180   51.8150 H   0  0  0  0  0  0  0  0  0  0  0  0
   38.5400   31.0260   49.4300 H   0  0  0  0  0  0  0  0  0  0  0  0
   34.7140   28.7510   51.4560 H   0  0  0  0  0  0  0  0  0  0  0  0
   38.4250   31.9850   42.1760 C   0  0  0  0  0  3  0  0  0  0  0  0
   37.7240   33.2310   41.6330 C   0  0  0  0  0  2  0  0  0  0  0  0
   39.1690   33.2440   42.1060 C   0  0  0  0  0  2  0  0  0  0  0  0
  1 10  1  0  0  0  0
  1  2  1  0  0  0  0
  2 16  1  0  0  0  0
  3 11  1  0  0  0  0
  3  2  2  0  0  0  0
  4  3  1  0  0  0  0
  5 12  1  0  0  0  0
  5  4  1  0  0  0  0
  6  7  2  0  0  0  0
  6  5  1  0  0  0  0
  7  8  1  0  0  0  0
  8  4  2  0  0  0  0
  8  9  1  0  0  0  0
  9  1  2  0  0  0  0
 13  9  1  0  0  0  0
 14 19  1  0  0  0  0
 14 20  1  0  0  0  0
 15 14  2  0  0  0  0
 16 17  2  0  0  0  0
 16 15  1  0  0  0  0
 17 18  1  0  0  0  0
 18 22  1  0  0  0  0
 18 19  2  0  0  0  0
 21 15  1  0  0  0  0
 23  6  1  0  0  0  0
 24 25  1  0  0  0  0
 24 23  1  0  0  0  0
 25 23  1  0  0  0  0
M  END
>  <minimizedAffinity>
-4.7457509

>  <minimizedRMSD>
2.34224367

$$$$
