
 OpenBabel03272506563D

 14 15  0  0  0  0  0  0  0  0999 V2000
   37.9160   32.8390   49.3230 C   0  0  0  0  0  0  0  0  0  0  0  0
   38.4280   32.6000   48.0400 C   0  0  0  0  0  0  0  0  0  0  0  0
   37.8730   31.5070   47.3280 C   0  0  0  0  0  0  0  0  0  0  0  0
   36.8940   30.7660   47.9140 N   0  0  0  0  0  0  0  0  0  0  0  0
   36.4500   31.0500   49.1470 C   0  0  0  0  0  0  0  0  0  0  0  0
   36.9340   32.0740   49.8790 N   0  0  0  0  0  0  0  0  0  0  0  0
   38.3720   33.6830   49.8270 H   0  0  0  0  0  0  0  0  0  0  0  0
   38.2290   31.2820   46.3450 H   0  0  0  0  0  0  0  0  0  0  0  0
   39.4490   33.4110   47.4870 N   0  0  0  0  0  0  0  0  0  0  0  0
   39.4950   33.7820   46.5220 H   0  0  0  0  0  0  0  0  0  0  0  0
   40.2400   33.6570   48.1370 H   0  0  0  0  0  0  0  0  0  0  0  0
   35.3800   30.2330   49.7780 C   0  0  0  0  0  3  0  0  0  0  0  0
   35.8770   29.2920   50.8920 C   0  0  0  0  0  2  0  0  0  0  0  0
   35.3320   28.7670   49.5580 C   0  0  0  0  0  2  0  0  0  0  0  0
  1  7  1  0  0  0  0
  1  6  1  0  0  0  0
  2  1  2  0  0  0  0
  3  4  2  0  0  0  0
  3  2  1  0  0  0  0
  4  5  1  0  0  0  0
  5 12  1  0  0  0  0
  5  6  2  0  0  0  0
  8  3  1  0  0  0  0
  9  2  1  0  0  0  0
  9 11  1  0  0  0  0
 10  9  1  0  0  0  0
 12 13  1  0  0  0  0
 14 12  1  0  0  0  0
 14 13  1  0  0  0  0
M  END
>  <minimizedAffinity>
-4.30205917

>  <minimizedRMSD>
3.15084267

$$$$
