REMARK  Name = 
REMARK  2 active torsions:
REMARK  status: ('A' for Active; 'I' for Inactive)
REMARK    1  A    between atoms: C_3  and  C_13
REMARK    2  A    between atoms: C_5  and  C_7
REMARK                            x       y       z     vdW  Elec       q    Type
REMARK                         _______ _______ _______ _____ _____    ______ ____
ROOT
ATOM      1  C   UNL     1      38.307  31.239  50.124  0.00  0.00    +0.000 A 
ATOM      2  C   UNL     1      38.288  31.615  48.761  0.00  0.00    +0.000 A 
ATOM      3  C   UNL     1      37.201  31.226  47.993  0.00  0.00    +0.000 A 
ATOM      4  N   UNL     1      36.218  30.506  48.601  0.00  0.00    +0.000 NA
ATOM      5  C   UNL     1      36.262  30.161  49.903  0.00  0.00    +0.000 A 
ATOM      6  N   UNL     1      37.301  30.528  50.653  0.00  0.00    +0.000 NA
ATOM      7  H   UNL     1      39.164  31.547  50.725  0.00  0.00    +0.000 HD
ATOM      8  H   UNL     1      39.074  32.180  48.312  0.00  0.00    +0.000 HD
ENDROOT
BRANCH   5   9
ATOM      9  C   UNL     1      35.133  29.377  50.446  0.00  0.00    +0.000 C 
ATOM     10  F   UNL     1      35.259  29.129  51.809  0.00  0.00    +0.000 F 
ATOM     11  F   UNL     1      33.928  30.069  50.295  0.00  0.00    +0.000 F 
ATOM     12  F   UNL     1      34.951  28.163  49.820  0.00  0.00    +0.000 F 
ENDBRANCH   5   9
BRANCH   3  13
ATOM     13  C   UNL     1      37.064  31.559  46.549  0.00  0.00    +0.000 C 
ATOM     14  C   UNL     1      35.909  30.894  45.788  0.00  0.00    +0.000 C 
ATOM     15  C   UNL     1      35.931  32.369  46.061  0.00  0.00    +0.000 C 
ENDBRANCH   3  13
TORSDOF 2
