
 OpenBabel03272506153D

 18 19  0  0  0  0  0  0  0  0999 V2000
   38.1980   24.6120   36.1420 C   0  0  0  0  0  0  0  0  0  0  0  0
   39.2250   23.7330   35.7610 C   0  0  0  0  0  0  0  0  0  0  0  0
   39.8020   22.9290   36.7290 C   0  0  0  0  0  0  0  0  0  0  0  0
   39.3630   23.0090   38.0140 N   0  0  0  0  0  0  0  0  0  0  0  0
   38.3570   23.8780   38.3520 C   0  0  0  0  0  0  0  0  0  0  0  0
   37.7800   24.6700   37.4290 N   0  0  0  0  0  0  0  0  0  0  0  0
   39.4950   23.7460   34.7390 H   0  0  0  0  0  0  0  0  0  0  0  0
   38.0820   23.8660   39.3910 H   0  0  0  0  0  0  0  0  0  0  0  0
   40.8780   22.0050   36.3470 C   0  0  0  0  0  3  0  0  0  0  0  0
   41.7470   21.3920   37.3580 C   0  0  0  0  0  2  0  0  0  0  0  0
   42.2770   22.5680   36.6520 C   0  0  0  0  0  2  0  0  0  0  0  0
   37.5210   25.4760   35.3080 O   0  0  0  0  0  0  0  0  0  0  0  0
   36.9060   27.9960   34.6130 O   0  0  0  0  0  0  0  0  0  0  0  0
   38.0290   27.0970   35.0790 P   0  0  0  0  0  0  0  0  0  0  0  0
   38.6440   27.6250   36.5750 O   0  0  0  0  0  0  0  0  0  0  0  0
   38.7250   28.6290   36.5720 H   0  0  0  0  0  0  0  0  0  0  0  0
   39.2310   27.1400   33.8820 O   0  0  0  0  0  0  0  0  0  0  0  0
   38.8560   26.6900   33.0930 H   0  0  0  0  0  0  0  0  0  0  0  0
  1  6  1  0  0  0  0
  2  1  2  0  0  0  0
  2  3  1  0  0  0  0
  3  4  2  0  0  0  0
  4  5  1  0  0  0  0
  5  8  1  0  0  0  0
  6  5  2  0  0  0  0
  7  2  1  0  0  0  0
  9 11  1  0  0  0  0
  9  3  1  0  0  0  0
  9 10  1  0  0  0  0
 11 10  1  0  0  0  0
 12  1  1  0  0  0  0
 13 14  2  0  0  0  0
 14 12  1  0  0  0  0
 14 15  1  0  0  0  0
 16 15  1  0  0  0  0
 17 14  1  0  0  0  0
 18 17  1  0  0  0  0
M  END
>  <minimizedAffinity>
-4.41631651

$$$$

 OpenBabel03272506153D

 18 19  0  0  0  0  0  0  0  0999 V2000
   38.4230   24.8080   35.2430 C   0  0  0  0  0  0  0  0  0  0  0  0
   38.1780   24.2770   33.9670 C   0  0  0  0  0  0  0  0  0  0  0  0
   37.4100   25.0110   33.0800 C   0  0  0  0  0  0  0  0  0  0  0  0
   36.9160   26.2190   33.4620 N   0  0  0  0  0  0  0  0  0  0  0  0
   37.1750   26.7090   34.7160 C   0  0  0  0  0  0  0  0  0  0  0  0
   37.9190   26.0150   35.5980 N   0  0  0  0  0  0  0  0  0  0  0  0
   38.6050   23.3310   33.7660 H   0  0  0  0  0  0  0  0  0  0  0  0
   36.7420   27.6710   34.9230 H   0  0  0  0  0  0  0  0  0  0  0  0
   37.1450   24.4680   31.7410 C   0  0  0  0  0  3  0  0  0  0  0  0
   35.9210   24.8170   31.0090 C   0  0  0  0  0  2  0  0  0  0  0  0
   35.9280   23.5260   31.7140 C   0  0  0  0  0  2  0  0  0  0  0  0
   39.1630   24.2100   36.2410 O   0  0  0  0  0  0  0  0  0  0  0  0
   37.8960   24.4570   38.5960 O   0  0  0  0  0  0  0  0  0  0  0  0
   38.4220   23.4570   37.5910 P   0  0  0  0  0  0  0  0  0  0  0  0
   37.1580   22.4990   36.9750 O   0  0  0  0  0  0  0  0  0  0  0  0
   36.5390   22.2340   37.7230 H   0  0  0  0  0  0  0  0  0  0  0  0
   39.5710   22.5000   38.3940 O   0  0  0  0  0  0  0  0  0  0  0  0
   40.3340   23.0860   38.5920 H   0  0  0  0  0  0  0  0  0  0  0  0
  1  6  1  0  0  0  0
  1 12  1  0  0  0  0
  2  1  2  0  0  0  0
  3  4  2  0  0  0  0
  3  2  1  0  0  0  0
  4  5  1  0  0  0  0
  5  8  1  0  0  0  0
  5  6  2  0  0  0  0
  7  2  1  0  0  0  0
  9  3  1  0  0  0  0
 10 11  1  0  0  0  0
 10  9  1  0  0  0  0
 11  9  1  0  0  0  0
 12 14  1  0  0  0  0
 14 17  1  0  0  0  0
 14 13  2  0  0  0  0
 15 14  1  0  0  0  0
 15 16  1  0  0  0  0
 17 18  1  0  0  0  0
M  END
>  <minimizedAffinity>
-4.39667749

$$$$

 OpenBabel03272506153D

 18 19  0  0  0  0  0  0  0  0999 V2000
   38.5130   24.5180   35.1170 C   0  0  0  0  0  0  0  0  0  0  0  0
   38.0200   25.7880   34.7770 C   0  0  0  0  0  0  0  0  0  0  0  0
   37.3500   25.9390   33.5750 C   0  0  0  0  0  0  0  0  0  0  0  0
   37.1860   24.8630   32.7600 N   0  0  0  0  0  0  0  0  0  0  0  0
   37.6800   23.6360   33.1240 C   0  0  0  0  0  0  0  0  0  0  0  0
   38.3350   23.4630   34.2860 N   0  0  0  0  0  0  0  0  0  0  0  0
   38.1980   26.5610   35.4760 H   0  0  0  0  0  0  0  0  0  0  0  0
   37.5000   22.8490   32.4130 H   0  0  0  0  0  0  0  0  0  0  0  0
   36.8280   27.2610   33.2050 C   0  0  0  0  0  3  0  0  0  0  0  0
   36.2170   27.4960   31.8910 C   0  0  0  0  0  2  0  0  0  0  0  0
   37.6190   27.9080   32.0540 C   0  0  0  0  0  2  0  0  0  0  0  0
   39.1990   24.1980   36.2700 O   0  0  0  0  0  0  0  0  0  0  0  0
   37.8630   24.4500   38.5850 O   0  0  0  0  0  0  0  0  0  0  0  0
   38.4270   23.4480   37.6040 P   0  0  0  0  0  0  0  0  0  0  0  0
   37.1920   22.4710   36.9600 O   0  0  0  0  0  0  0  0  0  0  0  0
   36.5540   22.2060   37.6920 H   0  0  0  0  0  0  0  0  0  0  0  0
   39.5620   22.5090   38.4470 O   0  0  0  0  0  0  0  0  0  0  0  0
   40.3130   23.1050   38.6620 H   0  0  0  0  0  0  0  0  0  0  0  0
  1 12  1  0  0  0  0
  2  1  1  0  0  0  0
  2  7  1  0  0  0  0
  3  2  2  0  0  0  0
  4  5  2  0  0  0  0
  4  3  1  0  0  0  0
  5  6  1  0  0  0  0
  6  1  2  0  0  0  0
  8  5  1  0  0  0  0
  9  3  1  0  0  0  0
 10 11  1  0  0  0  0
 10  9  1  0  0  0  0
 11  9  1  0  0  0  0
 12 14  1  0  0  0  0
 14 17  1  0  0  0  0
 14 13  2  0  0  0  0
 15 14  1  0  0  0  0
 15 16  1  0  0  0  0
 17 18  1  0  0  0  0
M  END
>  <minimizedAffinity>
-4.22190762

$$$$

 OpenBabel03272506153D

 18 19  0  0  0  0  0  0  0  0999 V2000
   39.7430   22.7700   36.5120 C   0  0  0  0  0  0  0  0  0  0  0  0
   39.2010   23.8430   35.7870 C   0  0  0  0  0  0  0  0  0  0  0  0
   38.3890   24.7470   36.4500 C   0  0  0  0  0  0  0  0  0  0  0  0
   38.1390   24.5760   37.7760 N   0  0  0  0  0  0  0  0  0  0  0  0
   38.6850   23.5170   38.4540 C   0  0  0  0  0  0  0  0  0  0  0  0
   39.4770   22.6230   37.8330 N   0  0  0  0  0  0  0  0  0  0  0  0
   39.4540   23.8890   34.7620 H   0  0  0  0  0  0  0  0  0  0  0  0
   38.4280   23.4680   39.4970 H   0  0  0  0  0  0  0  0  0  0  0  0
   37.8140   25.8760   35.7060 C   0  0  0  0  0  3  0  0  0  0  0  0
   38.5650   26.5410   34.6350 C   0  0  0  0  0  2  0  0  0  0  0  0
   38.5690   27.1940   35.9530 C   0  0  0  0  0  2  0  0  0  0  0  0
   40.5660   21.7850   36.0080 O   0  0  0  0  0  0  0  0  0  0  0  0
   42.9010   20.4660   35.8770 O   0  0  0  0  0  0  0  0  0  0  0  0
   42.0880   21.4290   36.7110 P   0  0  0  0  0  0  0  0  0  0  0  0
   42.9000   22.9140   36.8810 O   0  0  0  0  0  0  0  0  0  0  0  0
   43.8780   22.7470   37.0530 H   0  0  0  0  0  0  0  0  0  0  0  0
   41.8440   20.6970   38.2230 O   0  0  0  0  0  0  0  0  0  0  0  0
   41.2500   19.9300   38.0700 H   0  0  0  0  0  0  0  0  0  0  0  0
  1  6  1  0  0  0  0
  2  3  1  0  0  0  0
  2  1  2  0  0  0  0
  3  4  2  0  0  0  0
  4  5  1  0  0  0  0
  5  8  1  0  0  0  0
  6  5  2  0  0  0  0
  7  2  1  0  0  0  0
  9 11  1  0  0  0  0
  9  3  1  0  0  0  0
 10  9  1  0  0  0  0
 10 11  1  0  0  0  0
 12  1  1  0  0  0  0
 12 14  1  0  0  0  0
 13 14  2  0  0  0  0
 14 15  1  0  0  0  0
 14 17  1  0  0  0  0
 15 16  1  0  0  0  0
 18 17  1  0  0  0  0
M  END
>  <minimizedAffinity>
-4.20671558

$$$$

 OpenBabel03272506153D

 18 19  0  0  0  0  0  0  0  0999 V2000
   38.3570   24.4510   35.7920 C   0  0  0  0  0  0  0  0  0  0  0  0
   37.7840   25.5320   35.1030 C   0  0  0  0  0  0  0  0  0  0  0  0
   38.6030   26.3290   34.3210 C   0  0  0  0  0  0  0  0  0  0  0  0
   39.9310   26.0480   34.2400 N   0  0  0  0  0  0  0  0  0  0  0  0
   40.4580   24.9840   34.9260 C   0  0  0  0  0  0  0  0  0  0  0  0
   39.6840   24.1940   35.6920 N   0  0  0  0  0  0  0  0  0  0  0  0
   36.7440   25.6670   35.2310 H   0  0  0  0  0  0  0  0  0  0  0  0
   41.5170   24.8450   34.7970 H   0  0  0  0  0  0  0  0  0  0  0  0
   38.0180   27.4640   33.5950 C   0  0  0  0  0  3  0  0  0  0  0  0
   36.7150   27.3510   32.9310 C   0  0  0  0  0  2  0  0  0  0  0  0
   37.9070   27.2040   32.0820 C   0  0  0  0  0  2  0  0  0  0  0  0
   37.6880   23.5640   36.6080 O   0  0  0  0  0  0  0  0  0  0  0  0
   38.1070   24.6650   39.0210 O   0  0  0  0  0  0  0  0  0  0  0  0
   38.1060   23.3600   38.2580 P   0  0  0  0  0  0  0  0  0  0  0  0
   36.9680   22.2780   38.9130 O   0  0  0  0  0  0  0  0  0  0  0  0
   37.0090   22.3130   39.9180 H   0  0  0  0  0  0  0  0  0  0  0  0
   39.6750   22.7220   38.3590 O   0  0  0  0  0  0  0  0  0  0  0  0
   40.2550   23.3200   37.8390 H   0  0  0  0  0  0  0  0  0  0  0  0
  1 12  1  0  0  0  0
  2  7  1  0  0  0  0
  2  1  2  0  0  0  0
  3  2  1  0  0  0  0
  4  3  2  0  0  0  0
  4  5  1  0  0  0  0
  5  6  2  0  0  0  0
  6  1  1  0  0  0  0
  8  5  1  0  0  0  0
  9  3  1  0  0  0  0
 10  9  1  0  0  0  0
 11 10  1  0  0  0  0
 11  9  1  0  0  0  0
 12 14  1  0  0  0  0
 14 17  1  0  0  0  0
 14 15  1  0  0  0  0
 14 13  2  0  0  0  0
 15 16  1  0  0  0  0
 18 17  1  0  0  0  0
M  END
>  <minimizedAffinity>
-4.15139151

$$$$

 OpenBabel03272506153D

 18 19  0  0  0  0  0  0  0  0999 V2000
   37.7990   22.5040   34.4480 C   0  0  0  0  0  0  0  0  0  0  0  0
   38.1380   23.8330   34.1480 C   0  0  0  0  0  0  0  0  0  0  0  0
   38.3080   24.7250   35.1930 C   0  0  0  0  0  0  0  0  0  0  0  0
   38.1440   24.2970   36.4730 N   0  0  0  0  0  0  0  0  0  0  0  0
   37.8130   22.9910   36.7310 C   0  0  0  0  0  0  0  0  0  0  0  0
   37.6430   22.1040   35.7330 N   0  0  0  0  0  0  0  0  0  0  0  0
   38.2420   24.0680   33.1230 H   0  0  0  0  0  0  0  0  0  0  0  0
   37.7060   22.7500   37.7730 H   0  0  0  0  0  0  0  0  0  0  0  0
   38.6620   26.1200   34.8960 C   0  0  0  0  0  3  0  0  0  0  0  0
   38.5830   27.1600   35.9280 C   0  0  0  0  0  2  0  0  0  0  0  0
   37.4540   27.0700   34.9890 C   0  0  0  0  0  2  0  0  0  0  0  0
   37.5950   21.4940   33.5320 O   0  0  0  0  0  0  0  0  0  0  0  0
   35.0780   21.6410   32.6100 O   0  0  0  0  0  0  0  0  0  0  0  0
   36.0640   20.7500   33.3310 P   0  0  0  0  0  0  0  0  0  0  0  0
   36.3350   19.3170   32.4560 O   0  0  0  0  0  0  0  0  0  0  0  0
   35.4610   18.9700   32.0960 H   0  0  0  0  0  0  0  0  0  0  0  0
   35.4060   20.4110   34.8590 O   0  0  0  0  0  0  0  0  0  0  0  0
   35.4120   21.2560   35.3600 H   0  0  0  0  0  0  0  0  0  0  0  0
  1  6  1  0  0  0  0
  2  1  2  0  0  0  0
  2  3  1  0  0  0  0
  3  4  2  0  0  0  0
  4  5  1  0  0  0  0
  5  8  1  0  0  0  0
  6  5  2  0  0  0  0
  7  2  1  0  0  0  0
  9 11  1  0  0  0  0
  9  3  1  0  0  0  0
  9 10  1  0  0  0  0
 11 10  1  0  0  0  0
 12  1  1  0  0  0  0
 13 14  2  0  0  0  0
 14 12  1  0  0  0  0
 14 17  1  0  0  0  0
 15 14  1  0  0  0  0
 16 15  1  0  0  0  0
 17 18  1  0  0  0  0
M  END
>  <minimizedAffinity>
-4.13522816

$$$$

 OpenBabel03272506153D

 18 19  0  0  0  0  0  0  0  0999 V2000
   38.4990   23.7100   34.9890 C   0  0  0  0  0  0  0  0  0  0  0  0
   37.9370   24.3460   33.8710 C   0  0  0  0  0  0  0  0  0  0  0  0
   37.7800   23.6190   32.7040 C   0  0  0  0  0  0  0  0  0  0  0  0
   38.1710   22.3170   32.6680 N   0  0  0  0  0  0  0  0  0  0  0  0
   38.7160   21.7260   33.7790 C   0  0  0  0  0  0  0  0  0  0  0  0
   38.8800   22.4110   34.9260 N   0  0  0  0  0  0  0  0  0  0  0  0
   37.6670   25.3600   33.9990 H   0  0  0  0  0  0  0  0  0  0  0  0
   38.9930   20.6940   33.6510 H   0  0  0  0  0  0  0  0  0  0  0  0
   37.1940   24.2710   31.5250 C   0  0  0  0  0  3  0  0  0  0  0  0
   36.1400   25.2830   31.6620 C   0  0  0  0  0  2  0  0  0  0  0  0
   35.7090   23.9160   31.3300 C   0  0  0  0  0  2  0  0  0  0  0  0
   38.7240   24.2860   36.2210 O   0  0  0  0  0  0  0  0  0  0  0  0
   38.1170   24.4090   38.8340 O   0  0  0  0  0  0  0  0  0  0  0  0
   38.3730   23.4630   37.6840 P   0  0  0  0  0  0  0  0  0  0  0  0
   37.0050   22.4990   37.3780 O   0  0  0  0  0  0  0  0  0  0  0  0
   36.6080   22.1900   38.2500 H   0  0  0  0  0  0  0  0  0  0  0  0
   39.7050   22.5030   38.1150 O   0  0  0  0  0  0  0  0  0  0  0  0
   40.4860   23.0990   38.1320 H   0  0  0  0  0  0  0  0  0  0  0  0
  1 12  1  0  0  0  0
  2  7  1  0  0  0  0
  2  1  2  0  0  0  0
  3  2  1  0  0  0  0
  4  3  2  0  0  0  0
  4  5  1  0  0  0  0
  5  6  2  0  0  0  0
  6  1  1  0  0  0  0
  8  5  1  0  0  0  0
  9 10  1  0  0  0  0
  9  3  1  0  0  0  0
 11  9  1  0  0  0  0
 11 10  1  0  0  0  0
 12 14  1  0  0  0  0
 14 17  1  0  0  0  0
 14 13  2  0  0  0  0
 15 14  1  0  0  0  0
 15 16  1  0  0  0  0
 17 18  1  0  0  0  0
M  END
>  <minimizedAffinity>
-4.0913415

$$$$

 OpenBabel03272506153D

 18 19  0  0  0  0  0  0  0  0999 V2000
   34.9490   29.1290   32.9770 C   0  0  0  0  0  0  0  0  0  0  0  0
   35.6640   29.7240   34.0290 C   0  0  0  0  0  0  0  0  0  0  0  0
   35.0300   30.6790   34.8050 C   0  0  0  0  0  0  0  0  0  0  0  0
   33.7400   31.0150   34.5330 N   0  0  0  0  0  0  0  0  0  0  0  0
   33.0700   30.4130   33.4980 C   0  0  0  0  0  0  0  0  0  0  0  0
   33.6650   29.4820   32.7290 N   0  0  0  0  0  0  0  0  0  0  0  0
   36.6600   29.3960   34.1600 H   0  0  0  0  0  0  0  0  0  0  0  0
   32.0570   30.7460   33.3630 H   0  0  0  0  0  0  0  0  0  0  0  0
   35.7640   31.3110   35.9090 C   0  0  0  0  0  3  0  0  0  0  0  0
   35.2240   32.4830   36.6080 C   0  0  0  0  0  2  0  0  0  0  0  0
   36.2330   32.7370   35.5680 C   0  0  0  0  0  2  0  0  0  0  0  0
   35.4280   28.1670   32.1140 O   0  0  0  0  0  0  0  0  0  0  0  0
   36.7890   29.9630   30.6530 O   0  0  0  0  0  0  0  0  0  0  0  0
   36.6940   28.4960   31.0060 P   0  0  0  0  0  0  0  0  0  0  0  0
   38.1310   27.9560   31.7400 O   0  0  0  0  0  0  0  0  0  0  0  0
   38.9240   28.3420   31.2540 H   0  0  0  0  0  0  0  0  0  0  0  0
   36.4000   27.6540   29.5610 O   0  0  0  0  0  0  0  0  0  0  0  0
   35.4960   27.9050   29.2700 H   0  0  0  0  0  0  0  0  0  0  0  0
  1  2  1  0  0  0  0
  2  7  1  0  0  0  0
  2  3  2  0  0  0  0
  3  9  1  0  0  0  0
  4  3  1  0  0  0  0
  5  4  2  0  0  0  0
  6  1  2  0  0  0  0
  6  5  1  0  0  0  0
  8  5  1  0  0  0  0
  9 10  1  0  0  0  0
 11  9  1  0  0  0  0
 11 10  1  0  0  0  0
 12  1  1  0  0  0  0
 13 14  2  0  0  0  0
 14 15  1  0  0  0  0
 14 12  1  0  0  0  0
 16 15  1  0  0  0  0
 17 14  1  0  0  0  0
 18 17  1  0  0  0  0
M  END
>  <minimizedAffinity>
-3.97634268

$$$$

 OpenBabel03272506153D

 18 19  0  0  0  0  0  0  0  0999 V2000
   38.5350   25.5870   33.8290 C   0  0  0  0  0  0  0  0  0  0  0  0
   38.1540   24.6490   34.8010 C   0  0  0  0  0  0  0  0  0  0  0  0
   38.0510   25.0630   36.1170 C   0  0  0  0  0  0  0  0  0  0  0  0
   38.3180   26.3580   36.4350 N   0  0  0  0  0  0  0  0  0  0  0  0
   38.6880   27.2490   35.4600 C   0  0  0  0  0  0  0  0  0  0  0  0
   38.7960   26.8720   34.1730 N   0  0  0  0  0  0  0  0  0  0  0  0
   37.9690   23.6670   34.4540 H   0  0  0  0  0  0  0  0  0  0  0  0
   38.8770   28.2480   35.8110 H   0  0  0  0  0  0  0  0  0  0  0  0
   37.6540   24.0930   37.1470 C   0  0  0  0  0  3  0  0  0  0  0  0
   37.9990   24.2980   38.5580 C   0  0  0  0  0  2  0  0  0  0  0  0
   38.8600   23.3850   37.7900 C   0  0  0  0  0  2  0  0  0  0  0  0
   38.6850   25.3410   32.4800 O   0  0  0  0  0  0  0  0  0  0  0  0
   38.4050   27.0750   30.4490 O   0  0  0  0  0  0  0  0  0  0  0  0
   37.6700   26.0720   31.3090 P   0  0  0  0  0  0  0  0  0  0  0  0
   37.0410   24.8090   30.3590 O   0  0  0  0  0  0  0  0  0  0  0  0
   36.6440   25.1860   29.5140 H   0  0  0  0  0  0  0  0  0  0  0  0
   36.4230   26.9120   32.0990 O   0  0  0  0  0  0  0  0  0  0  0  0
   36.8570   27.5220   32.7350 H   0  0  0  0  0  0  0  0  0  0  0  0
  1  6  2  0  0  0  0
  1  2  1  0  0  0  0
  2  3  2  0  0  0  0
  3  4  1  0  0  0  0
  3  9  1  0  0  0  0
  5  8  1  0  0  0  0
  5  4  2  0  0  0  0
  6  5  1  0  0  0  0
  7  2  1  0  0  0  0
  9 11  1  0  0  0  0
  9 10  1  0  0  0  0
 11 10  1  0  0  0  0
 12  1  1  0  0  0  0
 13 14  2  0  0  0  0
 14 17  1  0  0  0  0
 14 12  1  0  0  0  0
 15 14  1  0  0  0  0
 16 15  1  0  0  0  0
 17 18  1  0  0  0  0
M  END
>  <minimizedAffinity>
-3.96382976

$$$$
