
     RDKit          3D

 41 44  0  0  0  0  0  0  0  0999 V2000
   34.1145   28.7458   45.8739 C   0  0  0  0  0  0  0  0  0  0  0  0
   34.3298   28.2811   44.5920 C   0  0  0  0  0  0  0  0  0  0  0  0
   35.3231   28.7791   43.7446 C   0  0  0  0  0  0  0  0  0  0  0  0
   36.1528   29.8182   44.2278 C   0  0  0  0  0  0  0  0  0  0  0  0
   35.9160   30.2574   45.4978 C   0  0  0  0  0  0  0  0  0  0  0  0
   34.9496   29.7706   46.3254 C   0  0  0  0  0  0  0  0  0  0  0  0
   33.3384   26.9808   47.3341 C   0  0  0  0  0  0  0  0  0  0  0  0
   33.0327   28.1378   46.6054 C   0  0  0  0  0  0  0  0  0  0  0  0
   31.7159   28.6128   46.6406 C   0  0  0  0  0  0  0  0  0  0  0  0
   30.7921   27.9392   47.3744 N   0  0  0  0  0  0  0  0  0  0  0  0
   31.1133   26.8138   48.0767 C   0  0  0  0  0  0  0  0  0  0  0  0
   32.3901   26.3405   48.0514 N   0  0  0  0  0  0  0  0  0  0  0  0
   31.2446   29.8289   45.9135 C   0  0  0  0  0  0  0  0  0  0  0  0
   29.8804   30.0379   46.1861 F   0  0  0  0  0  0  0  0  0  0  0  0
   31.9156   30.9685   46.1698 F   0  0  0  0  0  0  0  0  0  0  0  0
   31.2653   29.5917   44.5430 F   0  0  0  0  0  0  0  0  0  0  0  0
   34.6932   30.3325   47.9565 S   0  0  0  0  0  0  0  0  0  0  0  0
   34.9922   29.1667   50.8264 Cl  0  0  0  0  0  0  0  0  0  0  0  0
   36.2608   30.1412   50.1213 C   0  0  0  0  0  0  0  0  0  0  0  0
   36.1772   30.6903   48.8565 C   0  0  0  0  0  0  0  0  0  0  0  0
   37.1959   31.4469   48.3439 C   0  0  0  0  0  0  0  0  0  0  0  0
   38.3249   31.6450   49.1371 C   0  0  0  0  0  0  0  0  0  0  0  0
   38.4135   31.0921   50.4136 C   0  0  0  0  0  0  0  0  0  0  0  0
   37.3711   30.3281   50.9224 C   0  0  0  0  0  0  0  0  0  0  0  0
   33.6968   27.4734   44.1917 H   0  0  0  0  0  0  0  0  0  0  0  0
   35.3953   28.3232   42.7423 H   0  0  0  0  0  0  0  0  0  0  0  0
   36.8583   30.0945   43.4769 H   0  0  0  0  0  0  0  0  0  0  0  0
   36.6304   31.0339   45.6464 H   0  0  0  0  0  0  0  0  0  0  0  0
   34.3473   26.5921   47.3243 H   0  0  0  0  0  0  0  0  0  0  0  0
   30.3691   26.2834   48.6593 H   0  0  0  0  0  0  0  0  0  0  0  0
   37.2177   31.9376   47.4076 H   0  0  0  0  0  0  0  0  0  0  0  0
   39.1619   32.2431   48.7614 H   0  0  0  0  0  0  0  0  0  0  0  0
   39.3374   31.3046   50.9546 H   0  0  0  0  0  0  0  0  0  0  0  0
   37.6369   29.8497   52.2942 C   0  0  0  0  0  0  0  0  0  0  0  0
   39.0356   29.5367   52.7563 C   0  0  0  0  0  0  0  0  0  0  0  0
   38.4008   30.8062   53.1707 C   0  0  0  0  0  0  0  0  0  0  0  0
   36.8390   29.2862   52.8315 H   0  0  0  0  0  0  0  0  0  0  0  0
   39.2093   28.7069   53.4438 H   0  0  0  0  0  0  0  0  0  0  0  0
   39.7915   29.6111   51.9469 H   0  0  0  0  0  0  0  0  0  0  0  0
   38.8409   31.7404   52.8019 H   0  0  0  0  0  0  0  0  0  0  0  0
   38.1399   30.8625   54.2477 H   0  0  0  0  0  0  0  0  0  0  0  0
  1  6  1  0
  1  8  1  0
  2  1  2  0
  3  4  2  0
  3  2  1  0
  4  5  1  0
  5  6  2  0
  6 17  1  0
  7 12  2  0
  8  9  2  0
  8  7  1  0
  9 10  1  0
 10 11  2  0
 12 11  1  0
 13 15  1  0
 13 14  1  0
 13  9  1  0
 16 13  1  0
 17 20  1  0
 19 18  1  0
 19 24  2  0
 20 19  1  0
 21 20  2  0
 21 22  1  0
 22 23  2  0
 23 24  1  0
  2 25  1  0
  3 26  1  0
  4 27  1  0
  5 28  1  0
  7 29  1  0
 11 30  1  0
 21 31  1  0
 22 32  1  0
 23 33  1  0
 34 35  1  0
 35 36  1  0
 36 34  1  0
 34 37  1  0
 35 38  1  0
 35 39  1  0
 36 40  1  0
 36 41  1  0
 24 34  1  0
M  ISO  8  25  14  26  14  27  14  28  14  29  14  30  14  31  14  32  14
M  ISO  1  33  14
M  END
>  <DihAtoms>  (1) 
18,23,33,34

>  <DihDeg>  (1) 
-105.87548176800446

$$$$
