
 OpenBabel03262520173D

 12 13  0  0  0  0  0  0  0  0999 V2000
   37.3280   30.1740   51.4380 C   0  0  0  0  0  0  0  0  0  0  0  0
   38.0860   30.6930   50.3700 C   0  0  0  0  0  0  0  0  0  0  0  0
   37.6700   30.4000   49.0590 C   0  0  0  0  0  0  0  0  0  0  0  0
   36.5530   29.6280   48.9140 N   0  0  0  0  0  0  0  0  0  0  0  0
   35.8550   29.1490   49.9640 C   0  0  0  0  0  0  0  0  0  0  0  0
   36.2430   29.4230   51.2340 N   0  0  0  0  0  0  0  0  0  0  0  0
   37.6390   30.3930   52.4530 H   0  0  0  0  0  0  0  0  0  0  0  0
   38.9740   31.3090   50.5680 H   0  0  0  0  0  0  0  0  0  0  0  0
   34.9900   28.5500   49.6430 H   0  0  0  0  0  0  0  0  0  0  0  0
   38.4170   30.9110   47.9080 C   0  0  0  0  0  3  0  0  0  0  0  0
   37.7860   31.5170   46.7370 C   0  0  0  0  0  2  0  0  0  0  0  0
   38.3860   32.4420   47.7950 C   0  0  0  0  0  2  0  0  0  0  0  0
  1  7  1  0  0  0  0
  2  8  1  0  0  0  0
  2  1  2  0  0  0  0
  3  2  1  0  0  0  0
  4  3  2  0  0  0  0
  4  5  1  0  0  0  0
  5  6  2  0  0  0  0
  6  1  1  0  0  0  0
  9  5  1  0  0  0  0
 10  3  1  0  0  0  0
 11 12  1  0  0  0  0
 11 10  1  0  0  0  0
 12 10  1  0  0  0  0
M  END
>  <minimizedAffinity>
-3.90265703

>  <minimizedRMSD>
0.783234537

$$$$
