
 OpenBabel03272509473D

 19 20  0  0  0  0  0  0  0  0999 V2000
   34.7640   28.3170   49.7590 O   0  0  0  0  0  0  0  0  0  0  0  0
   37.3510   30.2340   51.4110 C   0  0  0  0  0  0  0  0  0  0  0  0
   38.0660   30.6740   50.3010 C   0  0  0  0  0  0  0  0  0  0  0  0
   37.6310   30.2950   49.0340 C   0  0  0  0  0  0  0  0  0  0  0  0
   36.5100   29.5020   48.9860 N   0  0  0  0  0  0  0  0  0  0  0  0
   35.8450   29.0960   50.0680 C   0  0  0  0  0  0  0  0  0  0  0  0
   36.2700   29.4660   51.2970 N   0  0  0  0  0  0  0  0  0  0  0  0
   37.6350   30.4920   52.4330 H   0  0  0  0  0  0  0  0  0  0  0  0
   38.9400   31.2990   50.4500 H   0  0  0  0  0  0  0  0  0  0  0  0
   38.1610   30.6180   48.1530 H   0  0  0  0  0  0  0  0  0  0  0  0
   34.2160   28.4190   48.4480 C   0  0  0  0  0  0  0  0  0  0  0  0
   33.3790   29.1380   48.4260 H   0  0  0  0  0  0  0  0  0  0  0  0
   34.9740   28.8080   47.7360 H   0  0  0  0  0  0  0  0  0  0  0  0
   33.7720   27.0590   47.9790 C   0  0  0  0  0  0  0  0  0  0  0  0
   34.5160   26.3020   48.2270 H   0  0  0  0  0  0  0  0  0  0  0  0
   32.7630   26.8450   48.3630 H   0  0  0  0  0  0  0  0  0  0  0  0
   33.6950   27.1400   46.4530 C   0  0  0  0  0  3  0  0  0  0  0  0
   33.9770   25.9240   45.6580 C   0  0  0  0  0  2  0  0  0  0  0  0
   32.5590   26.3800   45.7870 C   0  0  0  0  0  2  0  0  0  0  0  0
  1  6  1  0  0  0  0
  2  8  1  0  0  0  0
  3  9  1  0  0  0  0
  3  2  2  0  0  0  0
  4  3  1  0  0  0  0
  5  4  2  0  0  0  0
  5  6  1  0  0  0  0
  6  7  2  0  0  0  0
  7  2  1  0  0  0  0
 10  4  1  0  0  0  0
 11  1  1  0  0  0  0
 12 11  1  0  0  0  0
 13 11  1  0  0  0  0
 14 15  1  0  0  0  0
 14 16  1  0  0  0  0
 14 11  1  0  0  0  0
 17 14  1  0  0  0  0
 18 19  1  0  0  0  0
 18 17  1  0  0  0  0
 19 17  1  0  0  0  0
M  END
>  <minimizedAffinity>
-3.58266425

>  <minimizedRMSD>
1.0579232

$$$$
