
 OpenBabel03272502203D

 22 24  0  0  0  0  0  0  0  0999 V2000
   38.3490   32.6280   48.2550 C   0  0  0  0  0  0  0  0  0  0  0  0
   39.2630   32.3040   47.2130 C   0  0  0  0  0  0  0  0  0  0  0  0
   39.0300   31.1300   46.5150 C   0  0  0  0  0  0  0  0  0  0  0  0
   37.9570   30.3480   46.8450 N   0  0  0  0  0  0  0  0  0  0  0  0
   37.1060   30.7060   47.8590 C   0  0  0  0  0  0  0  0  0  0  0  0
   37.3110   31.8420   48.5540 N   0  0  0  0  0  0  0  0  0  0  0  0
   40.1030   32.9110   46.9500 H   0  0  0  0  0  0  0  0  0  0  0  0
   39.6550   30.7770   45.7020 H   0  0  0  0  0  0  0  0  0  0  0  0
   37.3710   29.3460   50.6650 Br  0  0  0  0  0  0  0  0  0  0  0  0
   35.9320   29.2050   49.4160 C   0  0  0  0  0  0  0  0  0  0  0  0
   35.9680   29.8750   48.2090 C   0  0  0  0  0  0  0  0  0  0  0  0
   34.8870   29.7140   47.3730 C   0  0  0  0  0  0  0  0  0  0  0  0
   33.7870   28.9350   47.6660 C   0  0  0  0  0  0  0  0  0  0  0  0
   33.7840   28.2820   48.8760 C   0  0  0  0  0  0  0  0  0  0  0  0
   34.8570   28.4240   49.7420 C   0  0  0  0  0  0  0  0  0  0  0  0
   34.8500   30.2150   46.4030 H   0  0  0  0  0  0  0  0  0  0  0  0
   32.9390   28.8110   47.0040 H   0  0  0  0  0  0  0  0  0  0  0  0
   32.9600   27.6510   49.1860 H   0  0  0  0  0  0  0  0  0  0  0  0
   34.8540   27.9050   50.7030 H   0  0  0  0  0  0  0  0  0  0  0  0
   38.5780   33.8810   49.0180 C   0  0  0  0  0  0  0  0  0  0  0  0
   39.8380   34.6510   48.8350 C   0  0  0  0  0  0  0  0  0  0  0  0
   39.6140   33.8630   50.0980 C   0  0  0  0  0  0  0  0  0  0  0  0
  1  6  1  0  0  0  0
  1 20  1  0  0  0  0
  2  1  2  0  0  0  0
  3  4  2  0  0  0  0
  3  2  1  0  0  0  0
  4  5  1  0  0  0  0
  5 11  1  0  0  0  0
  5  6  2  0  0  0  0
  7  2  1  0  0  0  0
  8  3  1  0  0  0  0
 10 15  1  0  0  0  0
 10  9  1  0  0  0  0
 11 10  2  0  0  0  0
 12 13  2  0  0  0  0
 12 11  1  0  0  0  0
 13 14  1  0  0  0  0
 14 18  1  0  0  0  0
 14 15  2  0  0  0  0
 15 19  1  0  0  0  0
 16 12  1  0  0  0  0
 17 13  1  0  0  0  0
 20 22  1  0  0  0  0
 21 20  1  0  0  0  0
 21 22  1  0  0  0  0
M  END
>  <minimizedAffinity>
-5.70962191

>  <minimizedRMSD>
1.07105899

$$$$
