
 OpenBabel03272505353D

 31 34  0  0  1  0  0  0  0  0999 V2000
   37.6430   30.8510   49.4980 C   0  0  0  0  0  0  0  0  0  0  0  0
   37.3390   32.1890   49.7010 C   0  0  0  0  0  0  0  0  0  0  0  0
   37.6520   33.0900   48.6510 C   0  0  0  0  0  0  0  0  0  0  0  0
   38.2270   32.5800   47.5180 N   0  0  0  0  0  0  0  0  0  0  0  0
   38.4930   31.2900   47.3860 C   0  0  0  0  0  0  0  0  0  0  0  0
   38.2060   30.4150   48.3670 N   0  0  0  0  0  0  0  0  0  0  0  0
   39.0970   30.8500   46.1650 N   0  0  0  0  0  0  0  0  0  0  0  0
   40.5320   30.7890   46.0520 C   0  0  0  0  0  0  0  0  0  0  0  0
   41.0060   31.3430   44.7300 C   0  0  0  0  0  0  0  0  0  0  0  0
   40.2600   30.8200   43.6280 N   0  0  0  0  0  0  0  0  0  0  0  0
   39.2240   29.8760   43.9700 C   0  0  0  0  0  0  0  0  0  0  0  0
   38.3010   30.4600   45.0310 C   0  0  2  0  0  0  0  0  0  0  0  0
   36.8840   32.5660   50.6060 H   0  0  0  0  0  0  0  0  0  0  0  0
   37.4370   34.1450   48.7540 H   0  0  0  0  0  0  0  0  0  0  0  0
   41.0590   31.3840   46.8420 H   0  0  0  0  0  0  0  0  0  0  0  0
   40.8380   29.7090   46.1180 H   0  0  0  0  0  0  0  0  0  0  0  0
   42.0690   31.0450   44.6330 H   0  0  0  0  0  0  0  0  0  0  0  0
   40.8660   32.4460   44.7650 H   0  0  0  0  0  0  0  0  0  0  0  0
   39.8460   31.5630   43.0170 H   0  0  0  0  0  0  0  0  0  0  0  0
   38.6280   29.7090   43.0570 H   0  0  0  0  0  0  0  0  0  0  0  0
   39.6540   28.9440   44.3870 H   0  0  0  0  0  0  0  0  0  0  0  0
   37.6250   29.6350   45.3620 H   0  0  0  0  0  0  0  0  0  0  0  0
   37.3200   29.8810   50.5960 C   0  0  0  0  0  0  0  0  0  0  0  0
   35.9310   29.8700   50.8200 F   0  0  0  0  0  0  0  0  0  0  0  0
   37.8400   28.6770   50.2740 F   0  0  0  0  0  0  0  0  0  0  0  0
   37.8730   30.4150   51.7770 F   0  0  0  0  0  0  0  0  0  0  0  0
   37.4580   31.5260   44.4800 C   0  0  1  0  0  3  0  0  0  0  0  0
   37.9440   32.6450   44.2110 O   0  0  0  0  0  0  0  0  0  0  0  0
   36.5180   32.5170   43.9300 C   0  0  0  0  0  0  0  0  0  0  0  0
   35.5300   32.2530   42.8890 C   0  0  0  0  0  2  0  0  0  0  0  0
   36.8160   32.8890   42.4550 C   0  0  0  0  0  2  0  0  0  0  0  0
  1  2  1  0  0  0  0
  1 23  1  0  0  0  0
  2 13  1  0  0  0  0
  3 14  1  0  0  0  0
  3  2  2  0  0  0  0
  4  3  1  0  0  0  0
  5  4  2  0  0  0  0
  5  6  1  0  0  0  0
  6  1  2  0  0  0  0
  7  5  1  0  0  0  0
  8 16  1  0  0  0  0
  8  7  1  0  0  0  0
  8 15  1  0  0  0  0
  9 18  1  0  0  0  0
  9  8  1  0  0  0  0
 10 11  1  0  0  0  0
 10  9  1  0  0  0  0
 11 21  1  0  0  0  0
 11 12  1  0  0  0  0
 12 22  1  1  0  0  0
 12  7  1  0  0  0  0
 17  9  1  0  0  0  0
 19 10  1  0  0  0  0
 20 11  1  0  0  0  0
 23 24  1  0  0  0  0
 23 26  1  0  0  0  0
 25 23  1  0  0  0  0
 27 28  1  6  0  0  0
 27 12  1  0  0  0  0
 29 28  1  0  0  0  0
 29 27  1  0  0  0  0
 30 29  1  0  0  0  0
 31 30  1  0  0  0  0
 31 29  1  0  0  0  0
M  END
>  <minimizedAffinity>
-4.98510885

>  <minimizedRMSD>
0.711152315

$$$$
