
 OpenBabel03262521013D

 31 33  0  0  1  0  0  0  0  0999 V2000
   40.1130   32.9800   46.0250 N   0  0  0  0  0  0  0  0  0  0  0  0
   38.7490   32.5380   46.2130 C   0  0  1  0  0  0  0  0  0  0  0  0
   38.0740   32.3020   44.8870 C   0  0  0  0  0  0  0  0  0  0  0  0
   38.8760   31.2930   44.1810 N   0  0  0  0  0  0  0  0  0  0  0  0
   40.1230   31.9880   43.8330 C   0  0  0  0  0  0  0  0  0  0  0  0
   40.8640   32.1550   45.1430 C   0  0  2  0  0  0  0  0  0  0  0  0
   40.1300   33.9660   45.7380 H   0  0  0  0  0  0  0  0  0  0  0  0
   38.2280   33.3370   46.7540 H   0  0  0  0  0  0  0  0  0  0  0  0
   37.0970   31.8260   45.0790 H   0  0  0  0  0  0  0  0  0  0  0  0
   38.0160   33.1970   44.2580 H   0  0  0  0  0  0  0  0  0  0  0  0
   39.0910   30.4960   44.7960 H   0  0  0  0  0  0  0  0  0  0  0  0
   39.8760   32.9860   43.4330 H   0  0  0  0  0  0  0  0  0  0  0  0
   40.7650   31.3930   43.1770 H   0  0  0  0  0  0  0  0  0  0  0  0
   41.8190   32.6980   44.9130 H   0  0  0  0  0  0  0  0  0  0  0  0
   41.1600   30.8560   45.7040 N   0  0  0  0  0  0  0  0  0  0  0  0
   41.1730   30.1170   44.9500 H   0  0  0  0  0  0  0  0  0  0  0  0
   42.0360   30.8300   46.2620 H   0  0  0  0  0  0  0  0  0  0  0  0
   38.6800   30.9550   47.1030 S   0  0  0  0  0  0  0  0  0  0  0  0
   35.8790   31.0460   50.0180 C   0  0  0  0  0  0  0  0  0  0  0  0
   37.0940   31.1740   49.3770 C   0  0  0  0  0  0  0  0  0  0  0  0
   37.1880   30.8430   48.0530 C   0  0  0  0  0  0  0  0  0  0  0  0
   36.0510   30.3900   47.4090 N   0  0  0  0  0  0  0  0  0  0  0  0
   34.9030   30.2880   48.0830 C   0  0  0  0  0  0  0  0  0  0  0  0
   34.7860   30.6040   49.3690 N   0  0  0  0  0  0  0  0  0  0  0  0
   35.8390   31.3210   51.0800 H   0  0  0  0  0  0  0  0  0  0  0  0
   37.9800   31.5310   49.8940 H   0  0  0  0  0  0  0  0  0  0  0  0
   33.7190   29.8150   47.3730 C   0  0  0  0  0  0  0  0  0  0  0  0
   33.1010   30.4740   46.5130 O   0  0  0  0  0  0  0  0  0  0  0  0
   33.1560   28.4660   47.6440 C   0  0  0  0  0  3  0  0  0  0  0  0
   33.7440   27.3890   46.6890 C   0  0  0  0  0  2  0  0  0  0  0  0
   33.9590   27.3670   48.1790 C   0  0  0  0  0  2  0  0  0  0  0  0
  1  2  1  0  0  0  0
  2  8  1  1  0  0  0
  2 18  1  0  0  0  0
  3  9  1  0  0  0  0
  3  2  1  0  0  0  0
  4 11  1  0  0  0  0
  4  3  1  0  0  0  0
  5  4  1  0  0  0  0
  5  6  1  0  0  0  0
  6 14  1  6  0  0  0
  6 15  1  0  0  0  0
  6  1  1  0  0  0  0
  7  1  1  0  0  0  0
 10  3  1  0  0  0  0
 12  5  1  0  0  0  0
 13  5  1  0  0  0  0
 15 17  1  0  0  0  0
 16 15  1  0  0  0  0
 18 21  1  0  0  0  0
 19 25  1  0  0  0  0
 20 26  1  0  0  0  0
 20 19  1  0  0  0  0
 21 20  2  0  0  0  0
 22 21  1  0  0  0  0
 22 23  2  0  0  0  0
 23 24  1  0  0  0  0
 24 19  2  0  0  0  0
 27 29  1  0  0  0  0
 27 23  1  0  0  0  0
 28 27  2  0  0  0  0
 29 31  1  0  0  0  0
 30 29  1  0  0  0  0
 30 31  1  0  0  0  0
M  END
>  <minimizedAffinity>
-5.36876059

>  <minimizedRMSD>
2.57321835

$$$$
