
 OpenBabel03262521013D

 31 33  0  0  1  0  0  0  0  0999 V2000
   39.6060   32.8780   46.2850 N   0  0  0  0  0  0  0  0  0  0  0  0
   38.2660   32.4160   45.9990 C   0  0  1  0  0  0  0  0  0  0  0  0
   37.9890   32.4560   44.5180 C   0  0  0  0  0  0  0  0  0  0  0  0
   39.0020   31.6050   43.8780 N   0  0  0  0  0  0  0  0  0  0  0  0
   40.2610   32.3480   44.0310 C   0  0  0  0  0  0  0  0  0  0  0  0
   40.6090   32.2430   45.5010 C   0  0  2  0  0  0  0  0  0  0  0  0
   39.6510   33.9010   46.2110 H   0  0  0  0  0  0  0  0  0  0  0  0
   37.5790   33.0930   46.5200 H   0  0  0  0  0  0  0  0  0  0  0  0
   37.0220   31.9570   44.3370 H   0  0  0  0  0  0  0  0  0  0  0  0
   38.0600   33.4600   44.0850 H   0  0  0  0  0  0  0  0  0  0  0  0
   39.0820   30.6990   44.3610 H   0  0  0  0  0  0  0  0  0  0  0  0
   40.0820   33.4080   43.7820 H   0  0  0  0  0  0  0  0  0  0  0  0
   41.0860   31.8930   43.4750 H   0  0  0  0  0  0  0  0  0  0  0  0
   41.5620   32.8160   45.6540 H   0  0  0  0  0  0  0  0  0  0  0  0
   40.8050   30.8560   45.8570 N   0  0  0  0  0  0  0  0  0  0  0  0
   41.0600   30.2840   45.0070 H   0  0  0  0  0  0  0  0  0  0  0  0
   41.4970   30.7130   46.6190 H   0  0  0  0  0  0  0  0  0  0  0  0
   38.0370   30.6860   46.5080 S   0  0  0  0  0  0  0  0  0  0  0  0
   37.6510   31.0100   50.5200 C   0  0  0  0  0  0  0  0  0  0  0  0
   38.1740   31.1340   49.2500 C   0  0  0  0  0  0  0  0  0  0  0  0
   37.4880   30.6040   48.1910 C   0  0  0  0  0  0  0  0  0  0  0  0
   36.2900   29.9610   48.4430 N   0  0  0  0  0  0  0  0  0  0  0  0
   35.8350   29.8730   49.6950 C   0  0  0  0  0  0  0  0  0  0  0  0
   36.4820   30.3800   50.7400 N   0  0  0  0  0  0  0  0  0  0  0  0
   38.2270   31.4470   51.3460 H   0  0  0  0  0  0  0  0  0  0  0  0
   39.1160   31.6420   49.0650 H   0  0  0  0  0  0  0  0  0  0  0  0
   34.5630   29.1960   49.9280 C   0  0  0  0  0  0  0  0  0  0  0  0
   34.1020   28.2910   49.2040 O   0  0  0  0  0  0  0  0  0  0  0  0
   33.7080   29.5580   51.0900 C   0  0  0  0  0  3  0  0  0  0  0  0
   32.3740   28.7600   51.0990 C   0  0  0  0  0  2  0  0  0  0  0  0
   33.4160   28.6230   52.1770 C   0  0  0  0  0  2  0  0  0  0  0  0
  2  1  1  0  0  0  0
  2 18  1  0  0  0  0
  2  8  1  1  0  0  0
  3  2  1  0  0  0  0
  4  5  1  0  0  0  0
  4 11  1  0  0  0  0
  4  3  1  0  0  0  0
  5  6  1  0  0  0  0
  6 14  1  1  0  0  0
  6 15  1  0  0  0  0
  6  1  1  0  0  0  0
  7  1  1  0  0  0  0
  9  3  1  0  0  0  0
 10  3  1  0  0  0  0
 12  5  1  0  0  0  0
 13  5  1  0  0  0  0
 15 17  1  0  0  0  0
 16 15  1  0  0  0  0
 18 21  1  0  0  0  0
 19 24  1  0  0  0  0
 19 25  1  0  0  0  0
 20 19  2  0  0  0  0
 21 22  2  0  0  0  0
 21 20  1  0  0  0  0
 22 23  1  0  0  0  0
 23 27  1  0  0  0  0
 23 24  2  0  0  0  0
 26 20  1  0  0  0  0
 27 29  1  0  0  0  0
 28 27  2  0  0  0  0
 29 30  1  0  0  0  0
 29 31  1  0  0  0  0
 30 31  1  0  0  0  0
M  END
>  <minimizedAffinity>
0.964050949

>  <minimizedRMSD>
0.364677429

$$$$
