
 OpenBabel03262521013D

 31 33  0  0  1  0  0  0  0  0999 V2000
   40.1340   32.9930   46.0300 N   0  0  0  0  0  0  0  0  0  0  0  0
   38.7650   32.5760   46.2380 C   0  0  1  0  0  0  0  0  0  0  0  0
   38.0830   32.2980   44.9240 C   0  0  0  0  0  0  0  0  0  0  0  0
   38.8700   31.2530   44.2550 N   0  0  0  0  0  0  0  0  0  0  0  0
   40.1260   31.9180   43.8770 C   0  0  0  0  0  0  0  0  0  0  0  0
   40.8720   32.1260   45.1780 C   0  0  2  0  0  0  0  0  0  0  0  0
   40.1620   33.9670   45.7050 H   0  0  0  0  0  0  0  0  0  0  0  0
   38.2560   33.4020   46.7500 H   0  0  0  0  0  0  0  0  0  0  0  0
   37.1020   31.8410   45.1370 H   0  0  0  0  0  0  0  0  0  0  0  0
   38.0350   33.1690   44.2610 H   0  0  0  0  0  0  0  0  0  0  0  0
   39.0790   30.4780   44.8990 H   0  0  0  0  0  0  0  0  0  0  0  0
   39.8890   32.9030   43.4400 H   0  0  0  0  0  0  0  0  0  0  0  0
   40.7580   31.2910   43.2430 H   0  0  0  0  0  0  0  0  0  0  0  0
   41.8330   32.6490   44.9250 H   0  0  0  0  0  0  0  0  0  0  0  0
   41.1540   30.8460   45.7880 N   0  0  0  0  0  0  0  0  0  0  0  0
   41.1560   30.0780   45.0620 H   0  0  0  0  0  0  0  0  0  0  0  0
   42.0310   30.8310   46.3440 H   0  0  0  0  0  0  0  0  0  0  0  0
   38.6800   31.0290   47.1890 S   0  0  0  0  0  0  0  0  0  0  0  0
   35.3100   30.7560   49.4060 C   0  0  0  0  0  0  0  0  0  0  0  0
   36.6200   31.0100   49.0580 C   0  0  0  0  0  0  0  0  0  0  0  0
   37.0320   30.7540   47.7770 C   0  0  0  0  0  0  0  0  0  0  0  0
   36.1070   30.2480   46.8820 N   0  0  0  0  0  0  0  0  0  0  0  0
   34.8530   30.0240   47.2800 C   0  0  0  0  0  0  0  0  0  0  0  0
   34.4290   30.2640   48.5160 N   0  0  0  0  0  0  0  0  0  0  0  0
   35.0140   30.9730   50.4410 H   0  0  0  0  0  0  0  0  0  0  0  0
   37.3370   31.4070   49.7700 H   0  0  0  0  0  0  0  0  0  0  0  0
   33.8980   29.4970   46.3090 C   0  0  0  0  0  0  0  0  0  0  0  0
   34.1990   28.7470   45.3590 O   0  0  0  0  0  0  0  0  0  0  0  0
   32.4530   29.8370   46.3990 C   0  0  0  0  0  3  0  0  0  0  0  0
   32.1110   31.1310   45.6100 C   0  0  0  0  0  2  0  0  0  0  0  0
   31.5560   29.7810   45.2460 C   0  0  0  0  0  2  0  0  0  0  0  0
  1  2  1  0  0  0  0
  2  8  1  1  0  0  0
  2 18  1  0  0  0  0
  3  9  1  0  0  0  0
  3  2  1  0  0  0  0
  4 11  1  0  0  0  0
  4  3  1  0  0  0  0
  5  4  1  0  0  0  0
  5  6  1  0  0  0  0
  6 14  1  6  0  0  0
  6 15  1  0  0  0  0
  6  1  1  0  0  0  0
  7  1  1  0  0  0  0
 10  3  1  0  0  0  0
 12  5  1  0  0  0  0
 13  5  1  0  0  0  0
 15 17  1  0  0  0  0
 16 15  1  0  0  0  0
 18 21  1  0  0  0  0
 19 25  1  0  0  0  0
 20 19  1  0  0  0  0
 20 26  1  0  0  0  0
 21 20  2  0  0  0  0
 22 23  2  0  0  0  0
 22 21  1  0  0  0  0
 23 24  1  0  0  0  0
 24 19  2  0  0  0  0
 27 29  1  0  0  0  0
 27 23  1  0  0  0  0
 28 27  2  0  0  0  0
 30 29  1  0  0  0  0
 31 30  1  0  0  0  0
 31 29  1  0  0  0  0
M  END
>  <minimizedAffinity>
-4.88033295

>  <minimizedRMSD>
3.01243925

$$$$
