
     RDKit          3D

 21 22  0  0  0  0  0  0  0  0999 V2000
   38.0082   33.1045   49.4729 C   0  0  0  0  0  0  0  0  0  0  0  0
   38.9673   33.2050   48.4666 C   0  0  0  0  0  0  0  0  0  0  0  0
   38.9547   32.2218   47.4623 C   0  0  0  0  0  0  0  0  0  0  0  0
   38.0235   31.2426   47.5255 N   0  0  0  0  0  0  0  0  0  0  0  0
   37.1042   31.1765   48.5213 C   0  0  0  0  0  0  0  0  0  0  0  0
   37.0991   32.1201   49.5051 N   0  0  0  0  0  0  0  0  0  0  0  0
   36.0971   30.1331   48.6058 C   0  0  0  0  0  0  0  0  0  0  0  0
   35.2817   29.9594   47.5072 C   0  0  0  0  0  0  0  0  0  0  0  0
   34.2941   28.9850   47.5051 C   0  0  0  0  0  0  0  0  0  0  0  0
   34.1539   28.1966   48.6351 C   0  0  0  0  0  0  0  0  0  0  0  0
   34.9582   28.3551   49.7408 C   0  0  0  0  0  0  0  0  0  0  0  0
   35.9431   29.3363   49.7264 C   0  0  0  0  0  0  0  0  0  0  0  0
   37.9678   33.8321   50.2736 H   0  0  0  0  0  0  0  0  0  0  0  0
   39.6756   34.0191   48.4903 H   0  0  0  0  0  0  0  0  0  0  0  0
   39.6890   32.2792   46.6716 H   0  0  0  0  0  0  0  0  0  0  0  0
   35.3953   30.5828   46.6186 H   0  0  0  0  0  0  0  0  0  0  0  0
   33.6284   28.8216   46.6459 H   0  0  0  0  0  0  0  0  0  0  0  0
   33.3913   27.4171   48.6804 H   0  0  0  0  0  0  0  0  0  0  0  0
   34.8539   27.7404   50.6303 H   0  0  0  0  0  0  0  0  0  0  0  0
   37.0116   29.5780   51.1414 S   0  0  0  0  0  0  0  0  0  0  0  0
   36.2659   29.3013   52.3255 H   0  0  0  0  0  0  0  0  0  0  0  0
  1  6  2  0
  2  1  1  0
  3  4  1  0
  3  2  2  0
  4  5  2  0
  5  7  1  0
  5  6  1  0
  7 12  1  0
  8  7  2  0
  9  8  1  0
  9 10  2  0
 10 11  1  0
 12 11  2  0
  1 13  1  0
  2 14  1  0
  3 15  1  0
  8 16  1  0
  9 17  1  0
 10 18  1  0
 11 19  1  0
 20 21  1  0
 12 20  1  0
M  ISO  8  13  14  14  14  15  14  16  14  17  14  18  14  19  14  21  11
M  END
>  <DihAtoms>  (1) 
6,11,19,20

>  <DihDeg>  (1) 
-93.74967477329628

$$$$
