REMARK  Name = 
REMARK  3 active torsions:
REMARK  status: ('A' for Active; 'I' for Inactive)
REMARK    1  A    between atoms: C_2  and  C_7
REMARK    2  A    between atoms: C_3  and  C_13
REMARK    3  A    between atoms: C_12  and  S_23
REMARK                            x       y       z     vdW  Elec       q    Type
REMARK                         _______ _______ _______ _____ _____    ______ ____
ROOT
ATOM      1  C   UNL     1      37.765  30.502  50.720  0.00  0.00    +0.000 A 
ATOM      2  C   UNL     1      37.234  30.663  49.411  0.00  0.00    +0.000 A 
ATOM      3  C   UNL     1      35.977  30.123  49.157  0.00  0.00    +0.000 A 
ATOM      4  N   UNL     1      35.319  29.474  50.155  0.00  0.00    +0.000 NA
ATOM      5  C   UNL     1      35.859  29.334  51.406  0.00  0.00    +0.000 A 
ATOM      6  N   UNL     1      37.087  29.855  51.678  0.00  0.00    +0.000 NA
ATOM      7  H   UNL     1      38.742  30.914  50.941  0.00  0.00    +0.000 HD
ATOM      8  H   UNL     1      35.260  28.799  52.144  0.00  0.00    +0.000 HD
ENDROOT
BRANCH   2   9
ATOM      9  C   UNL     1      38.046  31.372  48.466  0.00  0.00    +0.000 A 
ATOM     10  C   UNL     1      38.535  30.664  47.395  0.00  0.00    +0.000 A 
ATOM     11  C   UNL     1      39.333  31.188  46.390  0.00  0.00    +0.000 A 
ATOM     12  C   UNL     1      39.674  32.552  46.465  0.00  0.00    +0.000 A 
ATOM     13  C   UNL     1      39.184  33.275  47.542  0.00  0.00    +0.000 A 
ATOM     14  C   UNL     1      38.392  32.728  48.528  0.00  0.00    +0.000 A 
ATOM     15  H   UNL     1      38.305  29.595  47.279  0.00  0.00    +0.000 HD
ATOM     16  H   UNL     1      39.685  30.558  45.567  0.00  0.00    +0.000 HD
ATOM     17  H   UNL     1      40.282  33.001  45.721  0.00  0.00    +0.000 HD
ATOM     18  H   UNL     1      39.426  34.325  47.632  0.00  0.00    +0.000 HD
BRANCH  14  19
ATOM     19  S   UNL     1      37.755  33.638  49.916  0.00  0.00    +0.000 S 
ATOM     20  H   UNL     1      37.147  32.791  50.828  0.00  0.00    +0.000 HD
ENDBRANCH  14  19
ENDBRANCH   2   9
BRANCH   3  21
ATOM     21  C   UNL     1      35.299  30.216  47.834  0.00  0.00    +0.000 C 
ATOM     22  F   UNL     1      34.019  30.775  48.004  0.00  0.00    +0.000 F 
ATOM     23  F   UNL     1      35.948  30.909  46.875  0.00  0.00    +0.000 F 
ATOM     24  F   UNL     1      35.027  28.931  47.359  0.00  0.00    +0.000 F 
ENDBRANCH   3  21
TORSDOF 3
