REMARK  Name = 
REMARK  4 active torsions:
REMARK  status: ('A' for Active; 'I' for Inactive)
REMARK    1  A    between atoms: C_1  and  C_8
REMARK    2  A    between atoms: N_4  and  C_12
REMARK    3  A    between atoms: C_12  and  C_13
REMARK    4  A    between atoms: C_13  and  S_23
REMARK                            x       y       z     vdW  Elec       q    Type
REMARK                         _______ _______ _______ _____ _____    ______ ____
ROOT
ATOM      1  C   UNL     1      37.920  31.250  47.989  0.00  0.00    +0.000 A 
ATOM      2  C   UNL     1      37.392  31.068  46.731  0.00  0.00    +0.000 A 
ATOM      3  C   UNL     1      38.157  31.789  45.836  0.00  0.00    +0.000 A 
ATOM      4  N   UNL     1      39.125  32.388  46.568  0.00  0.00    +0.000 N 
ATOM      5  N   UNL     1      38.980  32.064  47.851  0.00  0.00    +0.000 NA
ATOM      6  H   UNL     1      36.526  30.477  46.404  0.00  0.00    +0.000 HD
ATOM      7  H   UNL     1      37.990  31.847  44.750  0.00  0.00    +0.000 HD
ENDROOT
BRANCH   1  10
ATOM      8  C   UNL     1      37.293  30.125  51.517  0.00  0.00    +0.000 A 
ATOM      9  C   UNL     1      37.915  30.763  50.449  0.00  0.00    +0.000 A 
ATOM     10  C   UNL     1      37.352  30.627  49.172  0.00  0.00    +0.000 A 
ATOM     11  N   UNL     1      36.225  29.875  49.057  0.00  0.00    +0.000 NA
ATOM     12  C   UNL     1      35.652  29.268  50.140  0.00  0.00    +0.000 A 
ATOM     13  N   UNL     1      36.191  29.400  51.356  0.00  0.00    +0.000 NA
ATOM     14  H   UNL     1      37.773  30.262  52.497  0.00  0.00    +0.000 HD
ATOM     15  H   UNL     1      38.812  31.361  50.544  0.00  0.00    +0.000 HD
ATOM     16  H   UNL     1      34.751  28.677  49.998  0.00  0.00    +0.000 HD
ENDBRANCH   1  10
BRANCH   4  17
ATOM     17  C   UNL     1      40.153  33.251  45.992  0.00  0.00    +0.000 C 
ATOM     18  H   UNL     1      40.319  34.159  46.570  0.00  0.00    +0.000 HD
ATOM     19  H   UNL     1      41.094  32.646  45.991  0.00  0.00    +0.000 HD
BRANCH  17  20
ATOM     20  C   UNL     1      39.829  33.533  44.537  0.00  0.00    +0.000 C 
ATOM     21  H   UNL     1      38.896  34.079  44.386  0.00  0.00    +0.000 HD
ATOM     22  H   UNL     1      39.920  32.591  43.957  0.00  0.00    +0.000 HD
BRANCH  20  23
ATOM     23  S   UNL     1      41.182  34.616  43.940  0.00  0.00    +0.000 S 
ATOM     24  H   UNL     1      42.423  34.043  44.323  0.00  0.00    +0.000 HD
ENDBRANCH  20  23
ENDBRANCH  17  20
ENDBRANCH   4  17
TORSDOF 4
