
 OpenBabel03272510333D

 21 22  0  0  0  0  0  0  0  0999 V2000
   36.0270   30.1930   48.6490 C   0  0  0  0  0  0  0  0  0  0  0  0
   35.0650   30.1910   47.6600 C   0  0  0  0  0  0  0  0  0  0  0  0
   34.0300   29.2670   47.6800 C   0  0  0  0  0  0  0  0  0  0  0  0
   33.9950   28.3520   48.7190 C   0  0  0  0  0  0  0  0  0  0  0  0
   34.9460   28.3380   49.7150 C   0  0  0  0  0  0  0  0  0  0  0  0
   35.9760   29.2710   49.6780 C   0  0  0  0  0  0  0  0  0  0  0  0
   35.0960   30.9140   46.8440 H   0  0  0  0  0  0  0  0  0  0  0  0
   33.2490   29.2390   46.9080 H   0  0  0  0  0  0  0  0  0  0  0  0
   33.2000   27.6050   48.7780 H   0  0  0  0  0  0  0  0  0  0  0  0
   34.9240   27.6230   50.5310 H   0  0  0  0  0  0  0  0  0  0  0  0
   37.9890   33.1610   49.4100 C   0  0  0  0  0  0  0  0  0  0  0  0
   39.0060   33.1570   48.4580 C   0  0  0  0  0  0  0  0  0  0  0  0
   39.0160   32.1030   47.5270 C   0  0  0  0  0  0  0  0  0  0  0  0
   38.0480   31.1600   47.6070 N   0  0  0  0  0  0  0  0  0  0  0  0
   37.0730   31.1970   48.5480 C   0  0  0  0  0  0  0  0  0  0  0  0
   37.0450   32.2100   49.4590 N   0  0  0  0  0  0  0  0  0  0  0  0
   37.9290   33.9460   50.1530 H   0  0  0  0  0  0  0  0  0  0  0  0
   39.7400   33.9480   48.4630 H   0  0  0  0  0  0  0  0  0  0  0  0
   39.7950   32.0790   46.7800 H   0  0  0  0  0  0  0  0  0  0  0  0
   37.2340   29.2920   50.9510 S   0  0  0  0  0  0  0  0  0  0  0  0
   36.6360   28.9020   52.1860 H   0  0  0  0  0  0  0  0  0  0  0  0
  1  6  1  0  0  0  0
  2  3  1  0  0  0  0
  2  1  2  0  0  0  0
  3  4  2  0  0  0  0
  4  9  1  0  0  0  0
  4  5  1  0  0  0  0
  5 10  1  0  0  0  0
  6  5  2  0  0  0  0
  6 20  1  0  0  0  0
  7  2  1  0  0  0  0
  8  3  1  0  0  0  0
 11 16  1  0  0  0  0
 11 17  1  0  0  0  0
 12 18  1  0  0  0  0
 12 11  2  0  0  0  0
 13 14  2  0  0  0  0
 13 12  1  0  0  0  0
 14 15  1  0  0  0  0
 15  1  1  0  0  0  0
 15 16  2  0  0  0  0
 19 13  1  0  0  0  0
 20 21  1  0  0  0  0
M  END
>  <minimizedAffinity>
-5.15775299

>  <minimizedRMSD>
0.216498002

$$$$
