
 OpenBabel03272510263D

 38 41  0  0  1  0  0  0  0  0999 V2000
   36.1740   30.1420   46.5570 C   0  0  0  0  0  0  0  0  0  0  0  0
   37.0370   30.7710   47.4480 C   0  0  0  0  0  0  0  0  0  0  0  0
   37.9850   31.7080   47.0050 C   0  0  0  0  0  0  0  0  0  0  0  0
   37.9990   31.9560   45.6400 C   0  0  0  0  0  0  0  0  0  0  0  0
   38.8230   32.8240   44.9630 N   0  0  0  0  0  0  0  0  0  0  0  0
   38.4780   32.7360   43.6700 C   0  0  0  0  0  0  0  0  0  0  0  0
   37.4960   31.8670   43.5260 N   0  0  0  0  0  0  0  0  0  0  0  0
   37.1670   31.3570   44.7250 C   0  0  0  0  0  0  0  0  0  0  0  0
   36.2340   30.4290   45.2040 C   0  0  0  0  0  0  0  0  0  0  0  0
   35.4400   29.4190   46.8980 H   0  0  0  0  0  0  0  0  0  0  0  0
   38.6620   32.2030   47.6900 H   0  0  0  0  0  0  0  0  0  0  0  0
   39.5690   33.4300   45.3820 H   0  0  0  0  0  0  0  0  0  0  0  0
   35.5790   29.9570   44.4890 H   0  0  0  0  0  0  0  0  0  0  0  0
   37.5750   30.4180   51.1520 C   0  0  0  0  0  0  0  0  0  0  0  0
   37.8190   30.8210   49.8430 C   0  0  0  0  0  0  0  0  0  0  0  0
   36.9440   30.4460   48.8590 C   0  0  0  0  0  0  0  0  0  0  0  0
   35.8610   29.6790   49.2390 N   0  0  0  0  0  0  0  0  0  0  0  0
   35.6320   29.2920   50.5070 C   0  0  0  0  0  0  0  0  0  0  0  0
   36.4770   29.6570   51.4460 N   0  0  0  0  0  0  0  0  0  0  0  0
   38.2700   30.7190   51.9270 H   0  0  0  0  0  0  0  0  0  0  0  0
   38.6570   31.4180   49.5390 H   0  0  0  0  0  0  0  0  0  0  0  0
   34.7430   28.6930   50.6550 H   0  0  0  0  0  0  0  0  0  0  0  0
   39.1090   33.4880   42.6770 O   0  0  0  0  0  0  0  0  0  0  0  0
   38.6610   32.1080   40.8850 N   0  0  0  0  0  0  0  0  0  0  0  0
   38.4930   33.4620   41.3990 C   0  0  1  0  0  0  0  0  0  0  0  0
   37.0800   33.7960   41.4910 C   0  0  0  0  0  0  0  0  0  0  0  0
   36.5250   33.7800   40.2000 O   0  0  0  0  0  0  0  0  0  0  0  0
   36.7120   32.6220   39.5010 C   0  0  0  0  0  0  0  0  0  0  0  0
   38.1530   32.1610   39.5360 C   0  0  1  0  0  0  0  0  0  0  0  0
   38.1390   31.3690   41.3320 H   0  0  0  0  0  0  0  0  0  0  0  0
   39.0020   34.1250   40.6720 H   0  0  0  0  0  0  0  0  0  0  0  0
   36.3630   33.2790   42.0700 H   0  0  0  0  0  0  0  0  0  0  0  0
   37.0060   34.8870   41.7870 H   0  0  0  0  0  0  0  0  0  0  0  0
   36.4650   32.8070   38.4560 H   0  0  0  0  0  0  0  0  0  0  0  0
   36.0920   31.8210   39.9240 H   0  0  0  0  0  0  0  0  0  0  0  0
   38.1930   31.1720   39.0150 H   0  0  0  0  0  0  0  0  0  0  0  0
   39.1570   33.3820   38.6230 S   0  0  0  0  0  0  0  0  0  0  0  0
   39.5410   32.8720   37.3640 H   0  0  0  0  0  0  0  0  0  0  0  0
  1 10  1  0  0  0  0
  1  2  1  0  0  0  0
  2 16  1  0  0  0  0
  3  2  2  0  0  0  0
  3 11  1  0  0  0  0
  4  3  1  0  0  0  0
  5 12  1  0  0  0  0
  5  4  1  0  0  0  0
  6  5  1  0  0  0  0
  7  6  2  0  0  0  0
  7  8  1  0  0  0  0
  8  9  1  0  0  0  0
  8  4  2  0  0  0  0
  9  1  2  0  0  0  0
 13  9  1  0  0  0  0
 14 19  1  0  0  0  0
 14 20  1  0  0  0  0
 15 14  2  0  0  0  0
 16 17  2  0  0  0  0
 16 15  1  0  0  0  0
 17 18  1  0  0  0  0
 18 22  1  0  0  0  0
 18 19  2  0  0  0  0
 21 15  1  0  0  0  0
 23  6  1  0  0  0  0
 24 30  1  0  0  0  0
 24 25  1  0  0  0  0
 25 31  1  6  0  0  0
 25 26  1  0  0  0  0
 25 23  1  0  0  0  0
 26 33  1  0  0  0  0
 26 32  1  0  0  0  0
 27 26  1  0  0  0  0
 28 29  1  0  0  0  0
 28 35  1  0  0  0  0
 28 27  1  0  0  0  0
 29 36  1  6  0  0  0
 29 24  1  0  0  0  0
 34 28  1  0  0  0  0
 37 29  1  0  0  0  0
 38 37  1  0  0  0  0
M  END
>  <minimizedAffinity>
-5.34263849

>  <minimizedRMSD>
0.839506149

$$$$
