
 OpenBabel03262521513D

 15 15  0  0  0  0  0  0  0  0999 V2000
   37.7680   30.5170   49.3410 C   0  0  0  0  0  0  0  0  0  0  0  0
   38.2390   31.7290   49.8420 C   0  0  0  0  0  0  0  0  0  0  0  0
   38.6270   32.7040   48.9180 C   0  0  0  0  0  0  0  0  0  0  0  0
   38.5270   32.4260   47.5730 N   0  0  0  0  0  0  0  0  0  0  0  0
   38.0610   31.2310   47.1590 C   0  0  0  0  0  0  0  0  0  0  0  0
   37.6900   30.2960   48.0220 N   0  0  0  0  0  0  0  0  0  0  0  0
   38.3420   32.0110   50.8600 H   0  0  0  0  0  0  0  0  0  0  0  0
   38.9960   33.6560   49.2230 H   0  0  0  0  0  0  0  0  0  0  0  0
   38.0020   31.0550   46.1090 H   0  0  0  0  0  0  0  0  0  0  0  0
   37.2890   29.3380   50.5890 S   0  0  0  0  0  0  0  0  0  0  0  0
   35.4980   29.3390   50.7320 C   0  0  0  0  0  0  0  0  0  0  0  0
   35.1380   28.9490   51.7060 H   0  0  0  0  0  0  0  0  0  0  0  0
   35.1710   30.4220   50.6720 H   0  0  0  0  0  0  0  0  0  0  0  0
   34.6850   28.4040   49.3960 S   0  0  0  0  0  0  0  0  0  0  0  0
   35.3040   27.1610   49.2090 H   0  0  0  0  0  0  0  0  0  0  0  0
  1  2  1  0  0  0  0
  1 10  1  0  0  0  0
  2  7  1  0  0  0  0
  3  8  1  0  0  0  0
  3  2  2  0  0  0  0
  4  3  1  0  0  0  0
  5  4  2  0  0  0  0
  5  6  1  0  0  0  0
  6  1  2  0  0  0  0
  9  5  1  0  0  0  0
 10 11  1  0  0  0  0
 11 12  1  0  0  0  0
 13 11  1  0  0  0  0
 14 11  1  0  0  0  0
 15 14  1  0  0  0  0
M  END
>  <minimizedAffinity>
-3.38347507

>  <minimizedRMSD>
1.83172262

$$$$
