
 OpenBabel03272508373D

 37 39  0  0  1  0  0  0  0  0999 V2000
   39.8840   32.5220   45.2730 C   0  0  0  0  0  0  0  0  0  0  0  0
   40.7390   32.7320   45.9870 H   0  0  0  0  0  0  0  0  0  0  0  0
   39.4550   33.5040   45.1080 H   0  0  0  0  0  0  0  0  0  0  0  0
   37.7730   30.9240   47.6980 C   0  0  0  0  0  0  0  0  0  0  0  0
   37.0270   30.7440   46.5490 C   0  0  0  0  0  0  0  0  0  0  0  0
   37.7480   31.3290   45.5030 C   0  0  0  0  0  0  0  0  0  0  0  0
   38.8600   31.8230   46.0400 N   0  0  0  0  0  0  0  0  0  0  0  0
   38.8780   31.5820   47.3500 N   0  0  0  0  0  0  0  0  0  0  0  0
   36.0480   30.2300   46.4930 H   0  0  0  0  0  0  0  0  0  0  0  0
   37.3130   31.2720   44.5730 H   0  0  0  0  0  0  0  0  0  0  0  0
   37.4520   30.2240   51.3780 C   0  0  0  0  0  0  0  0  0  0  0  0
   37.9760   30.7490   50.1890 C   0  0  0  0  0  0  0  0  0  0  0  0
   37.3470   30.4500   48.9920 C   0  0  0  0  0  0  0  0  0  0  0  0
   36.2550   29.6550   49.0850 N   0  0  0  0  0  0  0  0  0  0  0  0
   35.7640   29.1580   50.2380 C   0  0  0  0  0  0  0  0  0  0  0  0
   36.3740   29.4520   51.3750 N   0  0  0  0  0  0  0  0  0  0  0  0
   38.0290   30.5280   52.2480 H   0  0  0  0  0  0  0  0  0  0  0  0
   38.8460   31.3840   50.1020 H   0  0  0  0  0  0  0  0  0  0  0  0
   34.8910   28.5280   50.2720 H   0  0  0  0  0  0  0  0  0  0  0  0
   40.4030   31.6870   44.2050 C   0  0  0  0  0  0  0  0  0  0  0  0
   41.5210   31.6530   44.2040 H   0  0  0  0  0  0  0  0  0  0  0  0
   40.1260   30.6160   44.4430 H   0  0  0  0  0  0  0  0  0  0  0  0
   39.9830   31.9320   42.8970 N   0  0  0  0  0  0  0  0  0  0  0  0
   39.3150   33.1530   42.6600 C   0  0  0  0  0  0  0  0  0  0  0  0
   37.9070   33.0720   42.1960 C   0  0  0  0  0  0  0  0  0  0  0  0
   37.7170   32.0560   41.2520 O   0  0  0  0  0  0  0  0  0  0  0  0
   38.1580   30.8600   41.7330 C   0  0  0  0  0  0  0  0  0  0  0  0
   39.6150   30.8990   42.0470 C   0  0  2  0  0  0  0  0  0  0  0  0
   39.5220   34.0160   43.2720 H   0  0  0  0  0  0  0  0  0  0  0  0
   39.9020   33.4600   41.7260 H   0  0  0  0  0  0  0  0  0  0  0  0
   37.7940   33.9740   41.4770 H   0  0  0  0  0  0  0  0  0  0  0  0
   37.0960   33.3190   42.8440 H   0  0  0  0  0  0  0  0  0  0  0  0
   38.1180   30.2000   40.8230 H   0  0  0  0  0  0  0  0  0  0  0  0
   37.5240   30.3100   42.4130 H   0  0  0  0  0  0  0  0  0  0  0  0
   40.2250   30.9680   41.1000 H   0  0  0  0  0  0  0  0  0  0  0  0
   40.0080   29.2550   42.7510 S   0  0  0  0  0  0  0  0  0  0  0  0
   38.8390   28.6310   43.1980 H   0  0  0  0  0  0  0  0  0  0  0  0
  1  2  1  0  0  0  0
  1  7  1  0  0  0  0
  3  1  1  0  0  0  0
  4 13  1  0  0  0  0
  5  4  1  0  0  0  0
  6  7  1  0  0  0  0
  6  5  2  0  0  0  0
  7  8  1  0  0  0  0
  8  4  2  0  0  0  0
  9  5  1  0  0  0  0
 10  6  1  0  0  0  0
 11 17  1  0  0  0  0
 12 11  2  0  0  0  0
 13 14  2  0  0  0  0
 13 12  1  0  0  0  0
 14 15  1  0  0  0  0
 15 19  1  0  0  0  0
 15 16  2  0  0  0  0
 16 11  1  0  0  0  0
 18 12  1  0  0  0  0
 20 22  1  0  0  0  0
 20  1  1  0  0  0  0
 21 20  1  0  0  0  0
 23 20  1  0  0  0  0
 24 23  1  0  0  0  0
 24 29  1  0  0  0  0
 25 24  1  0  0  0  0
 25 32  1  0  0  0  0
 26 27  1  0  0  0  0
 26 25  1  0  0  0  0
 27 28  1  0  0  0  0
 27 34  1  0  0  0  0
 28 35  1  6  0  0  0
 28 36  1  0  0  0  0
 28 23  1  0  0  0  0
 30 24  1  0  0  0  0
 31 25  1  0  0  0  0
 33 27  1  0  0  0  0
 36 37  1  0  0  0  0
M  END
>  <minimizedAffinity>
-5.12882423

>  <minimizedRMSD>
0.777052224

$$$$
