
 OpenBabel03272509143D

 33 35  0  0  1  0  0  0  0  0999 V2000
   35.1350   26.1260   30.8710 C   0  0  0  0  0  0  0  0  0  0  0  0
   36.0030   26.6800   31.8680 C   0  0  0  0  0  0  0  0  0  0  0  0
   36.7740   25.7770   32.6020 C   0  0  0  0  0  0  0  0  0  0  0  0
   36.6690   24.4460   32.3460 N   0  0  0  0  0  0  0  0  0  0  0  0
   35.8380   23.9710   31.3970 C   0  0  0  0  0  0  0  0  0  0  0  0
   35.0830   24.8020   30.6720 N   0  0  0  0  0  0  0  0  0  0  0  0
   34.5140   26.7520   30.2680 H   0  0  0  0  0  0  0  0  0  0  0  0
   35.7720   22.9030   31.2100 H   0  0  0  0  0  0  0  0  0  0  0  0
   35.9730   28.0920   31.9890 N   0  0  0  0  0  0  0  0  0  0  0  0
   35.1230   29.1220   32.5990 C   0  0  0  0  0  0  0  0  0  0  0  0
   34.9270   30.0840   31.4200 C   0  0  0  0  0  0  0  0  0  0  0  0
   36.2590   30.0310   30.6960 C   0  0  0  0  0  0  0  0  0  0  0  0
   37.0250   28.9200   31.3900 C   0  0  2  0  0  0  0  0  0  0  0  0
   35.6710   29.6470   33.4110 H   0  0  0  0  0  0  0  0  0  0  0  0
   34.1700   28.6770   32.9210 H   0  0  0  0  0  0  0  0  0  0  0  0
   34.6900   31.0950   31.7770 H   0  0  0  0  0  0  0  0  0  0  0  0
   34.1420   29.6610   30.7480 H   0  0  0  0  0  0  0  0  0  0  0  0
   36.1750   29.9050   29.6150 H   0  0  0  0  0  0  0  0  0  0  0  0
   36.7900   30.9910   30.9610 H   0  0  0  0  0  0  0  0  0  0  0  0
   37.7600   29.2770   32.1120 H   0  0  0  0  0  0  0  0  0  0  0  0
   37.9160   28.0280   30.0810 S   0  0  0  0  0  0  0  0  0  0  0  0
   37.6460   28.5240   28.8010 H   0  0  0  0  0  0  0  0  0  0  0  0
   37.6830   26.2240   33.6310 C   0  0  0  0  0  0  0  0  0  0  0  0
   39.0130   26.3660   33.3140 C   0  0  0  0  0  0  0  0  0  0  0  0
   39.9670   26.7850   34.2210 C   0  0  0  0  0  0  0  0  0  0  0  0
   39.5190   27.0670   35.5030 C   0  0  0  0  0  0  0  0  0  0  0  0
   38.1770   26.9480   35.9060 C   0  0  0  0  0  0  0  0  0  0  0  0
   37.2910   26.5150   34.9150 C   0  0  0  0  0  0  0  0  0  0  0  0
   39.3930   26.1490   32.3090 H   0  0  0  0  0  0  0  0  0  0  0  0
   41.0100   26.8970   33.9750 H   0  0  0  0  0  0  0  0  0  0  0  0
   40.2290   27.4010   36.2520 H   0  0  0  0  0  0  0  0  0  0  0  0
   37.8740   27.1760   36.9060 H   0  0  0  0  0  0  0  0  0  0  0  0
   36.2360   26.4010   35.1570 H   0  0  0  0  0  0  0  0  0  0  0  0
  1  2  1  0  0  0  0
  2  9  1  0  0  0  0
  2  3  2  0  0  0  0
  3 23  1  0  0  0  0
  4  3  1  0  0  0  0
  5  4  2  0  0  0  0
  6  1  2  0  0  0  0
  6  5  1  0  0  0  0
  7  1  1  0  0  0  0
  8  5  1  0  0  0  0
  9 10  1  0  0  0  0
 10 15  1  0  0  0  0
 10 14  1  0  0  0  0
 11 16  1  0  0  0  0
 11 10  1  0  0  0  0
 12 19  1  0  0  0  0
 12 13  1  0  0  0  0
 12 11  1  0  0  0  0
 13  9  1  0  0  0  0
 13 20  1  1  0  0  0
 17 11  1  0  0  0  0
 18 12  1  0  0  0  0
 21 13  1  0  0  0  0
 22 21  1  0  0  0  0
 23 28  1  0  0  0  0
 24 23  2  0  0  0  0
 24 25  1  0  0  0  0
 25 26  2  0  0  0  0
 26 27  1  0  0  0  0
 26 31  1  0  0  0  0
 27 32  1  0  0  0  0
 28 33  1  0  0  0  0
 28 27  2  0  0  0  0
 29 24  1  0  0  0  0
 30 25  1  0  0  0  0
M  END
>  <minimizedAffinity>
-4.78577662

$$$$

 OpenBabel03272509143D

 33 35  0  0  1  0  0  0  0  0999 V2000
   38.1810   23.4270   32.1350 C   0  0  0  0  0  0  0  0  0  0  0  0
   38.6530   23.6790   33.4630 C   0  0  0  0  0  0  0  0  0  0  0  0
   38.1620   22.8510   34.4740 C   0  0  0  0  0  0  0  0  0  0  0  0
   37.2780   21.8660   34.1590 N   0  0  0  0  0  0  0  0  0  0  0  0
   36.8620   21.6660   32.8930 C   0  0  0  0  0  0  0  0  0  0  0  0
   37.3100   22.4370   31.8970 N   0  0  0  0  0  0  0  0  0  0  0  0
   38.5110   24.0170   31.3080 H   0  0  0  0  0  0  0  0  0  0  0  0
   36.1570   20.8720   32.6670 H   0  0  0  0  0  0  0  0  0  0  0  0
   39.5710   24.7520   33.5940 N   0  0  0  0  0  0  0  0  0  0  0  0
   41.0160   24.9420   33.7720 C   0  0  0  0  0  0  0  0  0  0  0  0
   41.0450   25.9120   34.9610 C   0  0  0  0  0  0  0  0  0  0  0  0
   39.8310   26.7900   34.7300 C   0  0  0  0  0  0  0  0  0  0  0  0
   39.1100   26.1440   33.5610 C   0  0  2  0  0  0  0  0  0  0  0  0
   41.4540   25.4440   32.8820 H   0  0  0  0  0  0  0  0  0  0  0  0
   41.4910   23.9830   34.0210 H   0  0  0  0  0  0  0  0  0  0  0  0
   41.9780   26.4900   34.9700 H   0  0  0  0  0  0  0  0  0  0  0  0
   40.8850   25.3250   35.8970 H   0  0  0  0  0  0  0  0  0  0  0  0
   39.2060   26.9310   35.6140 H   0  0  0  0  0  0  0  0  0  0  0  0
   40.2320   27.7730   34.3460 H   0  0  0  0  0  0  0  0  0  0  0  0
   39.2890   26.6380   32.6060 H   0  0  0  0  0  0  0  0  0  0  0  0
   37.3350   26.2710   33.9310 S   0  0  0  0  0  0  0  0  0  0  0  0
   37.0770   26.8560   35.1750 H   0  0  0  0  0  0  0  0  0  0  0  0
   38.5690   23.0150   35.8490 C   0  0  0  0  0  0  0  0  0  0  0  0
   37.7610   23.7440   36.6900 C   0  0  0  0  0  0  0  0  0  0  0  0
   38.0560   23.9630   38.0210 C   0  0  0  0  0  0  0  0  0  0  0  0
   39.2330   23.4030   38.4940 C   0  0  0  0  0  0  0  0  0  0  0  0
   40.1120   22.6450   37.7000 C   0  0  0  0  0  0  0  0  0  0  0  0
   39.7240   22.4820   36.3660 C   0  0  0  0  0  0  0  0  0  0  0  0
   36.8270   24.1980   36.3400 H   0  0  0  0  0  0  0  0  0  0  0  0
   37.4250   24.5340   38.6820 H   0  0  0  0  0  0  0  0  0  0  0  0
   39.5090   23.5460   39.5330 H   0  0  0  0  0  0  0  0  0  0  0  0
   41.0100   22.2300   38.1050 H   0  0  0  0  0  0  0  0  0  0  0  0
   40.3580   21.9050   35.6950 H   0  0  0  0  0  0  0  0  0  0  0  0
  1  2  1  0  0  0  0
  2  9  1  0  0  0  0
  2  3  2  0  0  0  0
  3 23  1  0  0  0  0
  4  3  1  0  0  0  0
  5  4  2  0  0  0  0
  6  1  2  0  0  0  0
  6  5  1  0  0  0  0
  7  1  1  0  0  0  0
  8  5  1  0  0  0  0
  9 10  1  0  0  0  0
 10 15  1  0  0  0  0
 10 11  1  0  0  0  0
 11 16  1  0  0  0  0
 11 17  1  0  0  0  0
 12 11  1  0  0  0  0
 12 18  1  0  0  0  0
 13 20  1  6  0  0  0
 13  9  1  0  0  0  0
 13 21  1  0  0  0  0
 13 12  1  0  0  0  0
 14 10  1  0  0  0  0
 19 12  1  0  0  0  0
 21 22  1  0  0  0  0
 23 28  2  0  0  0  0
 23 24  1  0  0  0  0
 24 25  2  0  0  0  0
 25 26  1  0  0  0  0
 25 30  1  0  0  0  0
 26 31  1  0  0  0  0
 27 32  1  0  0  0  0
 27 26  2  0  0  0  0
 28 27  1  0  0  0  0
 29 24  1  0  0  0  0
 33 28  1  0  0  0  0
M  END
>  <minimizedAffinity>
-4.77642918

$$$$

 OpenBabel03272509143D

 33 35  0  0  1  0  0  0  0  0999 V2000
   37.4380   23.5240   32.3470 C   0  0  0  0  0  0  0  0  0  0  0  0
   37.8440   23.8290   33.6870 C   0  0  0  0  0  0  0  0  0  0  0  0
   37.9350   22.7570   34.5760 C   0  0  0  0  0  0  0  0  0  0  0  0
   37.6410   21.5030   34.1420 N   0  0  0  0  0  0  0  0  0  0  0  0
   37.2630   21.2630   32.8700 C   0  0  0  0  0  0  0  0  0  0  0  0
   37.1640   22.2630   31.9890 N   0  0  0  0  0  0  0  0  0  0  0  0
   37.3450   24.2900   31.6090 H   0  0  0  0  0  0  0  0  0  0  0  0
   37.0340   20.2530   32.5480 H   0  0  0  0  0  0  0  0  0  0  0  0
   38.1070   25.1980   33.9500 N   0  0  0  0  0  0  0  0  0  0  0  0
   37.3510   26.4200   34.2520 C   0  0  0  0  0  0  0  0  0  0  0  0
   37.9410   27.3970   33.2270 C   0  0  0  0  0  0  0  0  0  0  0  0
   39.3990   26.9850   33.1450 C   0  0  0  0  0  0  0  0  0  0  0  0
   39.4810   25.7100   33.9640 C   0  0  2  0  0  0  0  0  0  0  0  0
   37.5890   26.7790   35.2770 H   0  0  0  0  0  0  0  0  0  0  0  0
   36.2790   26.2490   34.0780 H   0  0  0  0  0  0  0  0  0  0  0  0
   37.8230   28.4350   33.5650 H   0  0  0  0  0  0  0  0  0  0  0  0
   37.4620   27.2010   32.2390 H   0  0  0  0  0  0  0  0  0  0  0  0
   39.7780   26.8840   32.1270 H   0  0  0  0  0  0  0  0  0  0  0  0
   39.9720   27.7670   33.7250 H   0  0  0  0  0  0  0  0  0  0  0  0
   39.8790   25.8560   34.9690 H   0  0  0  0  0  0  0  0  0  0  0  0
   40.6160   24.6080   33.0700 S   0  0  0  0  0  0  0  0  0  0  0  0
   41.0750   25.1560   31.8670 H   0  0  0  0  0  0  0  0  0  0  0  0
   38.3350   22.9490   35.9500 C   0  0  0  0  0  0  0  0  0  0  0  0
   39.6100   22.5900   36.3180 C   0  0  0  0  0  0  0  0  0  0  0  0
   40.0940   22.7300   37.6040 C   0  0  0  0  0  0  0  0  0  0  0  0
   39.2200   23.2620   38.5390 C   0  0  0  0  0  0  0  0  0  0  0  0
   37.9020   23.6530   38.2440 C   0  0  0  0  0  0  0  0  0  0  0  0
   37.5070   23.4710   36.9140 C   0  0  0  0  0  0  0  0  0  0  0  0
   40.3200   22.1670   35.5980 H   0  0  0  0  0  0  0  0  0  0  0  0
   41.0930   22.4490   37.8950 H   0  0  0  0  0  0  0  0  0  0  0  0
   39.5520   23.3930   39.5630 H   0  0  0  0  0  0  0  0  0  0  0  0
   37.2600   24.0610   38.9960 H   0  0  0  0  0  0  0  0  0  0  0  0
   36.5000   23.7530   36.6150 H   0  0  0  0  0  0  0  0  0  0  0  0
  1  2  1  0  0  0  0
  2  9  1  0  0  0  0
  2  3  2  0  0  0  0
  3 23  1  0  0  0  0
  4  3  1  0  0  0  0
  5  4  2  0  0  0  0
  6  1  2  0  0  0  0
  6  5  1  0  0  0  0
  7  1  1  0  0  0  0
  8  5  1  0  0  0  0
  9 13  1  0  0  0  0
  9 10  1  0  0  0  0
 10 14  1  0  0  0  0
 11 16  1  0  0  0  0
 11 10  1  0  0  0  0
 12 11  1  0  0  0  0
 12 19  1  0  0  0  0
 12 13  1  0  0  0  0
 13 20  1  1  0  0  0
 15 10  1  0  0  0  0
 17 11  1  0  0  0  0
 18 12  1  0  0  0  0
 21 13  1  0  0  0  0
 22 21  1  0  0  0  0
 23 24  2  0  0  0  0
 23 28  1  0  0  0  0
 24 25  1  0  0  0  0
 25 30  1  0  0  0  0
 25 26  2  0  0  0  0
 26 31  1  0  0  0  0
 27 26  1  0  0  0  0
 27 32  1  0  0  0  0
 28 27  2  0  0  0  0
 29 24  1  0  0  0  0
 33 28  1  0  0  0  0
M  END
>  <minimizedAffinity>
-4.67410374

$$$$

 OpenBabel03272509143D

 33 35  0  0  1  0  0  0  0  0999 V2000
   37.7090   21.5650   33.4800 C   0  0  0  0  0  0  0  0  0  0  0  0
   37.9800   22.7490   34.2400 C   0  0  0  0  0  0  0  0  0  0  0  0
   38.0590   23.9480   33.5290 C   0  0  0  0  0  0  0  0  0  0  0  0
   37.8820   23.9390   32.1810 N   0  0  0  0  0  0  0  0  0  0  0  0
   37.6280   22.7980   31.5080 C   0  0  0  0  0  0  0  0  0  0  0  0
   37.5450   21.6300   32.1520 N   0  0  0  0  0  0  0  0  0  0  0  0
   37.6330   20.6100   33.9520 H   0  0  0  0  0  0  0  0  0  0  0  0
   37.4900   22.8170   30.4320 H   0  0  0  0  0  0  0  0  0  0  0  0
   38.1370   22.5580   35.6360 N   0  0  0  0  0  0  0  0  0  0  0  0
   37.3500   22.7400   36.8620 C   0  0  0  0  0  0  0  0  0  0  0  0
   38.3340   23.5310   37.7340 C   0  0  0  0  0  0  0  0  0  0  0  0
   39.6840   22.9510   37.3590 C   0  0  0  0  0  0  0  0  0  0  0  0
   39.3900   22.0320   36.1860 C   0  0  2  0  0  0  0  0  0  0  0  0
   37.1460   21.7590   37.3410 H   0  0  0  0  0  0  0  0  0  0  0  0
   36.4450   23.3250   36.6420 H   0  0  0  0  0  0  0  0  0  0  0  0
   38.1070   23.3950   38.8000 H   0  0  0  0  0  0  0  0  0  0  0  0
   38.3070   24.6000   37.4140 H   0  0  0  0  0  0  0  0  0  0  0  0
   40.4510   23.6990   37.1550 H   0  0  0  0  0  0  0  0  0  0  0  0
   39.9790   22.2790   38.2170 H   0  0  0  0  0  0  0  0  0  0  0  0
   39.3360   20.9770   36.4560 H   0  0  0  0  0  0  0  0  0  0  0  0
   40.7720   22.2400   35.0240 S   0  0  0  0  0  0  0  0  0  0  0  0
   41.7020   23.1960   35.4470 H   0  0  0  0  0  0  0  0  0  0  0  0
   38.3270   25.2020   34.1930 C   0  0  0  0  0  0  0  0  0  0  0  0
   37.2630   26.0000   34.5400 C   0  0  0  0  0  0  0  0  0  0  0  0
   37.4060   27.2180   35.1770 C   0  0  0  0  0  0  0  0  0  0  0  0
   38.7030   27.6180   35.4620 C   0  0  0  0  0  0  0  0  0  0  0  0
   39.8430   26.8600   35.1400 C   0  0  0  0  0  0  0  0  0  0  0  0
   39.5920   25.6440   34.4970 C   0  0  0  0  0  0  0  0  0  0  0  0
   36.2290   25.7080   34.3260 H   0  0  0  0  0  0  0  0  0  0  0  0
   36.5740   27.8460   35.4500 H   0  0  0  0  0  0  0  0  0  0  0  0
   38.8690   28.5660   35.9610 H   0  0  0  0  0  0  0  0  0  0  0  0
   40.8270   27.2060   35.3790 H   0  0  0  0  0  0  0  0  0  0  0  0
   40.4280   25.0060   34.2190 H   0  0  0  0  0  0  0  0  0  0  0  0
  1  7  1  0  0  0  0
  1  2  1  0  0  0  0
  2  9  1  0  0  0  0
  3 23  1  0  0  0  0
  3  2  2  0  0  0  0
  4  3  1  0  0  0  0
  5  6  1  0  0  0  0
  5  4  2  0  0  0  0
  6  1  2  0  0  0  0
  8  5  1  0  0  0  0
  9 13  1  0  0  0  0
  9 10  1  0  0  0  0
 10 14  1  0  0  0  0
 10 11  1  0  0  0  0
 11 16  1  0  0  0  0
 12 11  1  0  0  0  0
 12 19  1  0  0  0  0
 13 20  1  1  0  0  0
 13 12  1  0  0  0  0
 15 10  1  0  0  0  0
 17 11  1  0  0  0  0
 18 12  1  0  0  0  0
 21 22  1  0  0  0  0
 21 13  1  0  0  0  0
 23 28  2  0  0  0  0
 23 24  1  0  0  0  0
 24 25  2  0  0  0  0
 25 30  1  0  0  0  0
 25 26  1  0  0  0  0
 26 31  1  0  0  0  0
 27 32  1  0  0  0  0
 27 26  2  0  0  0  0
 28 27  1  0  0  0  0
 29 24  1  0  0  0  0
 33 28  1  0  0  0  0
M  END
>  <minimizedAffinity>
-4.61721659

$$$$

 OpenBabel03272509143D

 33 35  0  0  1  0  0  0  0  0999 V2000
   37.0820   25.6470   32.6030 C   0  0  0  0  0  0  0  0  0  0  0  0
   37.0730   24.2150   32.5740 C   0  0  0  0  0  0  0  0  0  0  0  0
   36.1470   23.6090   31.7220 C   0  0  0  0  0  0  0  0  0  0  0  0
   35.3160   24.3860   30.9780 N   0  0  0  0  0  0  0  0  0  0  0  0
   35.3610   25.7320   31.0390 C   0  0  0  0  0  0  0  0  0  0  0  0
   36.2330   26.3500   31.8420 N   0  0  0  0  0  0  0  0  0  0  0  0
   37.7610   26.1840   33.2290 H   0  0  0  0  0  0  0  0  0  0  0  0
   34.6870   26.3310   30.4350 H   0  0  0  0  0  0  0  0  0  0  0  0
   38.0150   23.5790   33.4220 N   0  0  0  0  0  0  0  0  0  0  0  0
   38.1170   23.1590   34.8250 C   0  0  0  0  0  0  0  0  0  0  0  0
   39.4680   23.7680   35.2220 C   0  0  0  0  0  0  0  0  0  0  0  0
   40.2990   23.6340   33.9600 C   0  0  0  0  0  0  0  0  0  0  0  0
   39.3190   23.1490   32.9080 C   0  0  2  0  0  0  0  0  0  0  0  0
   38.1810   22.0520   34.8950 H   0  0  0  0  0  0  0  0  0  0  0  0
   37.2910   23.5940   35.4070 H   0  0  0  0  0  0  0  0  0  0  0  0
   39.9080   23.2230   36.0670 H   0  0  0  0  0  0  0  0  0  0  0  0
   39.3160   24.8530   35.4320 H   0  0  0  0  0  0  0  0  0  0  0  0
   40.8370   24.5420   33.6820 H   0  0  0  0  0  0  0  0  0  0  0  0
   41.0070   22.7750   34.1490 H   0  0  0  0  0  0  0  0  0  0  0  0
   39.3760   22.0780   32.7130 H   0  0  0  0  0  0  0  0  0  0  0  0
   39.7550   24.0210   31.3730 S   0  0  0  0  0  0  0  0  0  0  0  0
   40.8050   24.9290   31.5410 H   0  0  0  0  0  0  0  0  0  0  0  0
   36.0510   22.1730   31.6130 C   0  0  0  0  0  0  0  0  0  0  0  0
   35.1110   21.5190   32.3740 C   0  0  0  0  0  0  0  0  0  0  0  0
   34.9340   20.1500   32.3470 C   0  0  0  0  0  0  0  0  0  0  0  0
   35.7650   19.4360   31.4960 C   0  0  0  0  0  0  0  0  0  0  0  0
   36.7490   20.0290   30.6860 C   0  0  0  0  0  0  0  0  0  0  0  0
   36.8490   21.4200   30.7870 C   0  0  0  0  0  0  0  0  0  0  0  0
   34.4430   22.0600   33.0540 H   0  0  0  0  0  0  0  0  0  0  0  0
   34.1990   19.6350   32.9430 H   0  0  0  0  0  0  0  0  0  0  0  0
   35.6660   18.3580   31.4380 H   0  0  0  0  0  0  0  0  0  0  0  0
   37.3690   19.4410   30.0430 H   0  0  0  0  0  0  0  0  0  0  0  0
   37.5900   21.9450   30.1870 H   0  0  0  0  0  0  0  0  0  0  0  0
  1  7  1  0  0  0  0
  2  1  1  0  0  0  0
  2  9  1  0  0  0  0
  3  2  2  0  0  0  0
  4  5  2  0  0  0  0
  4  3  1  0  0  0  0
  5  6  1  0  0  0  0
  6  1  2  0  0  0  0
  8  5  1  0  0  0  0
  9 10  1  0  0  0  0
 10 14  1  0  0  0  0
 10 11  1  0  0  0  0
 10 15  1  0  0  0  0
 11 17  1  0  0  0  0
 11 16  1  0  0  0  0
 12 19  1  0  0  0  0
 12 11  1  0  0  0  0
 13 20  1  6  0  0  0
 13  9  1  0  0  0  0
 13 12  1  0  0  0  0
 18 12  1  0  0  0  0
 21 22  1  0  0  0  0
 21 13  1  0  0  0  0
 23  3  1  0  0  0  0
 23 24  1  0  0  0  0
 24 29  1  0  0  0  0
 25 24  2  0  0  0  0
 25 30  1  0  0  0  0
 26 25  1  0  0  0  0
 27 28  1  0  0  0  0
 27 26  2  0  0  0  0
 28 23  2  0  0  0  0
 31 26  1  0  0  0  0
 32 27  1  0  0  0  0
 33 28  1  0  0  0  0
M  END
>  <minimizedAffinity>
-4.61578703

$$$$

 OpenBabel03272509143D

 33 35  0  0  1  0  0  0  0  0999 V2000
   37.6410   24.6430   32.3520 C   0  0  0  0  0  0  0  0  0  0  0  0
   37.6180   26.0740   32.2950 C   0  0  0  0  0  0  0  0  0  0  0  0
   36.4950   26.6630   31.7110 C   0  0  0  0  0  0  0  0  0  0  0  0
   35.4990   25.8710   31.2330 N   0  0  0  0  0  0  0  0  0  0  0  0
   35.5640   24.5260   31.3090 C   0  0  0  0  0  0  0  0  0  0  0  0
   36.6230   23.9250   31.8610 N   0  0  0  0  0  0  0  0  0  0  0  0
   38.4650   24.1190   32.7840 H   0  0  0  0  0  0  0  0  0  0  0  0
   34.7560   23.9150   30.9200 H   0  0  0  0  0  0  0  0  0  0  0  0
   38.7510   26.7280   32.8450 N   0  0  0  0  0  0  0  0  0  0  0  0
   40.1000   27.1230   32.4220 C   0  0  0  0  0  0  0  0  0  0  0  0
   40.9500   26.5560   33.5660 C   0  0  0  0  0  0  0  0  0  0  0  0
   40.0700   26.7450   34.7870 C   0  0  0  0  0  0  0  0  0  0  0  0
   38.7390   27.2150   34.2280 C   0  0  2  0  0  0  0  0  0  0  0  0
   40.1940   28.2300   32.4110 H   0  0  0  0  0  0  0  0  0  0  0  0
   40.3450   26.6470   31.4610 H   0  0  0  0  0  0  0  0  0  0  0  0
   41.9000   27.1000   33.6520 H   0  0  0  0  0  0  0  0  0  0  0  0
   41.0860   25.4620   33.3930 H   0  0  0  0  0  0  0  0  0  0  0  0
   39.9970   25.8640   35.4260 H   0  0  0  0  0  0  0  0  0  0  0  0
   40.5040   27.6260   35.3440 H   0  0  0  0  0  0  0  0  0  0  0  0
   38.5840   28.2910   34.3070 H   0  0  0  0  0  0  0  0  0  0  0  0
   37.4570   26.3900   35.2180 S   0  0  0  0  0  0  0  0  0  0  0  0
   37.9850   25.5180   36.1760 H   0  0  0  0  0  0  0  0  0  0  0  0
   36.3660   28.0970   31.6010 C   0  0  0  0  0  0  0  0  0  0  0  0
   36.7550   28.7020   30.4290 C   0  0  0  0  0  0  0  0  0  0  0  0
   36.6750   30.0640   30.2180 C   0  0  0  0  0  0  0  0  0  0  0  0
   36.1710   30.8230   31.2630 C   0  0  0  0  0  0  0  0  0  0  0  0
   35.7520   30.2810   32.4920 C   0  0  0  0  0  0  0  0  0  0  0  0
   35.8740   28.8930   32.6060 C   0  0  0  0  0  0  0  0  0  0  0  0
   37.1570   28.1240   29.5890 H   0  0  0  0  0  0  0  0  0  0  0  0
   36.9790   30.5410   29.3010 H   0  0  0  0  0  0  0  0  0  0  0  0
   36.0870   31.8980   31.1470 H   0  0  0  0  0  0  0  0  0  0  0  0
   35.3680   30.9030   33.2720 H   0  0  0  0  0  0  0  0  0  0  0  0
   35.5680   28.4060   33.5300 H   0  0  0  0  0  0  0  0  0  0  0  0
  1  7  1  0  0  0  0
  2  1  1  0  0  0  0
  2  9  1  0  0  0  0
  3  2  2  0  0  0  0
  4  5  2  0  0  0  0
  4  3  1  0  0  0  0
  5  6  1  0  0  0  0
  6  1  2  0  0  0  0
  8  5  1  0  0  0  0
  9 13  1  0  0  0  0
 10  9  1  0  0  0  0
 10 11  1  0  0  0  0
 11 16  1  0  0  0  0
 11 12  1  0  0  0  0
 12 19  1  0  0  0  0
 12 18  1  0  0  0  0
 13 20  1  1  0  0  0
 13 12  1  0  0  0  0
 13 21  1  0  0  0  0
 14 10  1  0  0  0  0
 15 10  1  0  0  0  0
 17 11  1  0  0  0  0
 21 22  1  0  0  0  0
 23  3  1  0  0  0  0
 23 28  1  0  0  0  0
 24 23  2  0  0  0  0
 25 24  1  0  0  0  0
 25 26  2  0  0  0  0
 26 27  1  0  0  0  0
 27 28  2  0  0  0  0
 27 32  1  0  0  0  0
 28 33  1  0  0  0  0
 29 24  1  0  0  0  0
 30 25  1  0  0  0  0
 31 26  1  0  0  0  0
M  END
>  <minimizedAffinity>
-4.49546671

$$$$

 OpenBabel03272509143D

 33 35  0  0  1  0  0  0  0  0999 V2000
   37.3900   25.4270   32.9040 C   0  0  0  0  0  0  0  0  0  0  0  0
   37.2540   24.0040   32.8120 C   0  0  0  0  0  0  0  0  0  0  0  0
   36.3230   23.5190   31.8920 C   0  0  0  0  0  0  0  0  0  0  0  0
   35.6040   24.3980   31.1440 N   0  0  0  0  0  0  0  0  0  0  0  0
   35.7670   25.7310   31.2650 C   0  0  0  0  0  0  0  0  0  0  0  0
   36.6480   26.2340   32.1340 N   0  0  0  0  0  0  0  0  0  0  0  0
   38.0810   25.8740   33.5850 H   0  0  0  0  0  0  0  0  0  0  0  0
   35.1820   26.4120   30.6550 H   0  0  0  0  0  0  0  0  0  0  0  0
   38.0890   23.2510   33.6770 N   0  0  0  0  0  0  0  0  0  0  0  0
   38.0890   22.7850   35.0680 C   0  0  0  0  0  0  0  0  0  0  0  0
   39.4770   23.2400   35.5370 C   0  0  0  0  0  0  0  0  0  0  0  0
   40.3430   23.0560   34.3050 C   0  0  0  0  0  0  0  0  0  0  0  0
   39.3640   22.7040   33.2000 C   0  0  2  0  0  0  0  0  0  0  0  0
   38.0380   21.6750   35.1050 H   0  0  0  0  0  0  0  0  0  0  0  0
   37.2880   23.2860   35.6310 H   0  0  0  0  0  0  0  0  0  0  0  0
   39.8240   22.6300   36.3810 H   0  0  0  0  0  0  0  0  0  0  0  0
   39.4280   24.3290   35.7750 H   0  0  0  0  0  0  0  0  0  0  0  0
   40.9820   23.9110   34.0760 H   0  0  0  0  0  0  0  0  0  0  0  0
   40.9510   22.1240   34.4940 H   0  0  0  0  0  0  0  0  0  0  0  0
   39.3200   21.6380   32.9740 H   0  0  0  0  0  0  0  0  0  0  0  0
   39.9500   23.5670   31.7120 S   0  0  0  0  0  0  0  0  0  0  0  0
   41.0790   24.3580   31.9490 H   0  0  0  0  0  0  0  0  0  0  0  0
   36.1030   22.1030   31.7150 C   0  0  0  0  0  0  0  0  0  0  0  0
   36.8990   21.4220   30.8260 C   0  0  0  0  0  0  0  0  0  0  0  0
   36.7740   20.0690   30.5800 C   0  0  0  0  0  0  0  0  0  0  0  0
   35.7850   19.4010   31.2870 C   0  0  0  0  0  0  0  0  0  0  0  0
   34.9300   20.0240   32.2140 C   0  0  0  0  0  0  0  0  0  0  0  0
   35.1370   21.3960   32.3900 C   0  0  0  0  0  0  0  0  0  0  0  0
   37.6870   21.9260   30.2550 H   0  0  0  0  0  0  0  0  0  0  0  0
   37.3970   19.5320   29.8830 H   0  0  0  0  0  0  0  0  0  0  0  0
   35.6460   18.3370   31.1300 H   0  0  0  0  0  0  0  0  0  0  0  0
   34.1800   19.4710   32.7380 H   0  0  0  0  0  0  0  0  0  0  0  0
   34.5120   21.9430   33.0930 H   0  0  0  0  0  0  0  0  0  0  0  0
  1  7  1  0  0  0  0
  2  1  1  0  0  0  0
  2  9  1  0  0  0  0
  3  2  2  0  0  0  0
  4  5  2  0  0  0  0
  4  3  1  0  0  0  0
  5  6  1  0  0  0  0
  6  1  2  0  0  0  0
  8  5  1  0  0  0  0
  9 10  1  0  0  0  0
 10 14  1  0  0  0  0
 10 11  1  0  0  0  0
 10 15  1  0  0  0  0
 11 17  1  0  0  0  0
 11 16  1  0  0  0  0
 12 19  1  0  0  0  0
 12 11  1  0  0  0  0
 13 20  1  6  0  0  0
 13  9  1  0  0  0  0
 13 12  1  0  0  0  0
 18 12  1  0  0  0  0
 21 22  1  0  0  0  0
 21 13  1  0  0  0  0
 23  3  1  0  0  0  0
 23 28  1  0  0  0  0
 24 23  2  0  0  0  0
 25 24  1  0  0  0  0
 25 26  2  0  0  0  0
 26 27  1  0  0  0  0
 27 28  2  0  0  0  0
 27 32  1  0  0  0  0
 28 33  1  0  0  0  0
 29 24  1  0  0  0  0
 30 25  1  0  0  0  0
 31 26  1  0  0  0  0
M  END
>  <minimizedAffinity>
-4.46783257

$$$$

 OpenBabel03272509143D

 33 35  0  0  1  0  0  0  0  0999 V2000
   37.9050   24.8960   34.3870 C   0  0  0  0  0  0  0  0  0  0  0  0
   37.3810   25.7550   33.3670 C   0  0  0  0  0  0  0  0  0  0  0  0
   37.3460   27.1210   33.6530 C   0  0  0  0  0  0  0  0  0  0  0  0
   37.7990   27.5640   34.8560 N   0  0  0  0  0  0  0  0  0  0  0  0
   38.2840   26.7160   35.7860 C   0  0  0  0  0  0  0  0  0  0  0  0
   38.3340   25.4010   35.5500 N   0  0  0  0  0  0  0  0  0  0  0  0
   37.9640   23.8390   34.2430 H   0  0  0  0  0  0  0  0  0  0  0  0
   38.6390   27.0940   36.7390 H   0  0  0  0  0  0  0  0  0  0  0  0
   36.9560   25.1080   32.1790 N   0  0  0  0  0  0  0  0  0  0  0  0
   35.7450   24.4670   31.6540 C   0  0  0  0  0  0  0  0  0  0  0  0
   36.3080   23.1300   31.1530 C   0  0  0  0  0  0  0  0  0  0  0  0
   37.6830   23.5000   30.6300 C   0  0  0  0  0  0  0  0  0  0  0  0
   37.8700   24.9480   31.0430 C   0  0  2  0  0  0  0  0  0  0  0  0
   35.3460   25.0410   30.7900 H   0  0  0  0  0  0  0  0  0  0  0  0
   35.0170   24.3200   32.4650 H   0  0  0  0  0  0  0  0  0  0  0  0
   35.6670   22.7070   30.3680 H   0  0  0  0  0  0  0  0  0  0  0  0
   36.4330   22.4510   32.0290 H   0  0  0  0  0  0  0  0  0  0  0  0
   38.4810   22.8360   30.9650 H   0  0  0  0  0  0  0  0  0  0  0  0
   37.5920   23.5040   29.5040 H   0  0  0  0  0  0  0  0  0  0  0  0
   37.6900   25.6630   30.2390 H   0  0  0  0  0  0  0  0  0  0  0  0
   39.6080   25.1070   31.5530 S   0  0  0  0  0  0  0  0  0  0  0  0
   40.3050   23.8960   31.4970 H   0  0  0  0  0  0  0  0  0  0  0  0
   36.8390   28.0790   32.6990 C   0  0  0  0  0  0  0  0  0  0  0  0
   35.6230   28.6690   32.9460 C   0  0  0  0  0  0  0  0  0  0  0  0
   35.0450   29.5960   32.1010 C   0  0  0  0  0  0  0  0  0  0  0  0
   35.7610   29.9210   30.9580 C   0  0  0  0  0  0  0  0  0  0  0  0
   37.0100   29.3630   30.6330 C   0  0  0  0  0  0  0  0  0  0  0  0
   37.5080   28.4340   31.5530 C   0  0  0  0  0  0  0  0  0  0  0  0
   35.0370   28.4290   33.8410 H   0  0  0  0  0  0  0  0  0  0  0  0
   34.0910   30.0600   32.2920 H   0  0  0  0  0  0  0  0  0  0  0  0
   35.3510   30.6440   30.2620 H   0  0  0  0  0  0  0  0  0  0  0  0
   37.5290   29.6420   29.7410 H   0  0  0  0  0  0  0  0  0  0  0  0
   38.4710   27.9630   31.3650 H   0  0  0  0  0  0  0  0  0  0  0  0
  1  6  1  0  0  0  0
  2  3  1  0  0  0  0
  2  1  2  0  0  0  0
  3  4  2  0  0  0  0
  4  5  1  0  0  0  0
  5  8  1  0  0  0  0
  6  5  2  0  0  0  0
  7  1  1  0  0  0  0
  9  2  1  0  0  0  0
 10  9  1  0  0  0  0
 10 15  1  0  0  0  0
 11 10  1  0  0  0  0
 11 17  1  0  0  0  0
 12 18  1  0  0  0  0
 12 13  1  0  0  0  0
 12 11  1  0  0  0  0
 13 20  1  6  0  0  0
 13 21  1  0  0  0  0
 13  9  1  0  0  0  0
 14 10  1  0  0  0  0
 16 11  1  0  0  0  0
 19 12  1  0  0  0  0
 22 21  1  0  0  0  0
 23 24  1  0  0  0  0
 23  3  1  0  0  0  0
 24 29  1  0  0  0  0
 25 30  1  0  0  0  0
 25 24  2  0  0  0  0
 26 25  1  0  0  0  0
 27 26  2  0  0  0  0
 27 28  1  0  0  0  0
 28 23  2  0  0  0  0
 31 26  1  0  0  0  0
 32 27  1  0  0  0  0
 33 28  1  0  0  0  0
M  END
>  <minimizedAffinity>
-4.4394908

$$$$

 OpenBabel03272509143D

 33 35  0  0  1  0  0  0  0  0999 V2000
   40.1500   26.4600   32.1120 C   0  0  0  0  0  0  0  0  0  0  0  0
   39.5160   25.6270   33.0910 C   0  0  0  0  0  0  0  0  0  0  0  0
   40.0160   25.6930   34.3920 C   0  0  0  0  0  0  0  0  0  0  0  0
   41.0580   26.5240   34.6660 N   0  0  0  0  0  0  0  0  0  0  0  0
   41.6220   27.2910   33.7120 C   0  0  0  0  0  0  0  0  0  0  0  0
   41.1720   27.2560   32.4540 N   0  0  0  0  0  0  0  0  0  0  0  0
   39.8240   26.4650   31.0950 H   0  0  0  0  0  0  0  0  0  0  0  0
   42.4520   27.9470   33.9550 H   0  0  0  0  0  0  0  0  0  0  0  0
   38.4470   24.8270   32.6140 N   0  0  0  0  0  0  0  0  0  0  0  0
   38.2600   23.5320   31.9480 C   0  0  0  0  0  0  0  0  0  0  0  0
   37.3430   23.9250   30.7820 C   0  0  0  0  0  0  0  0  0  0  0  0
   36.4590   25.0050   31.3770 C   0  0  0  0  0  0  0  0  0  0  0  0
   37.0570   25.2750   32.7460 C   0  0  2  0  0  0  0  0  0  0  0  0
   37.7190   22.8270   32.6160 H   0  0  0  0  0  0  0  0  0  0  0  0
   39.2280   23.1520   31.5900 H   0  0  0  0  0  0  0  0  0  0  0  0
   36.7620   23.0610   30.4340 H   0  0  0  0  0  0  0  0  0  0  0  0
   37.9700   24.3830   29.9810 H   0  0  0  0  0  0  0  0  0  0  0  0
   36.3590   25.8940   30.7530 H   0  0  0  0  0  0  0  0  0  0  0  0
   35.4590   24.5150   31.5630 H   0  0  0  0  0  0  0  0  0  0  0  0
   36.5210   24.7910   33.5640 H   0  0  0  0  0  0  0  0  0  0  0  0
   36.9520   27.0720   32.9970 S   0  0  0  0  0  0  0  0  0  0  0  0
   36.4220   27.7470   31.8920 H   0  0  0  0  0  0  0  0  0  0  0  0
   39.4550   24.8980   35.4580 C   0  0  0  0  0  0  0  0  0  0  0  0
   40.0340   23.6850   35.7460 C   0  0  0  0  0  0  0  0  0  0  0  0
   39.5770   22.8450   36.7430 C   0  0  0  0  0  0  0  0  0  0  0  0
   38.4780   23.2850   37.4660 C   0  0  0  0  0  0  0  0  0  0  0  0
   37.8290   24.5110   37.2340 C   0  0  0  0  0  0  0  0  0  0  0  0
   38.3680   25.2870   36.2030 C   0  0  0  0  0  0  0  0  0  0  0  0
   40.9020   23.3150   35.1900 H   0  0  0  0  0  0  0  0  0  0  0  0
   40.0290   21.8940   36.9710 H   0  0  0  0  0  0  0  0  0  0  0  0
   38.0810   22.6630   38.2600 H   0  0  0  0  0  0  0  0  0  0  0  0
   36.9850   24.8120   37.8160 H   0  0  0  0  0  0  0  0  0  0  0  0
   37.9160   26.2490   35.9690 H   0  0  0  0  0  0  0  0  0  0  0  0
  1  6  2  0  0  0  0
  1  2  1  0  0  0  0
  2  3  2  0  0  0  0
  3  4  1  0  0  0  0
  3 23  1  0  0  0  0
  5  8  1  0  0  0  0
  5  4  2  0  0  0  0
  6  5  1  0  0  0  0
  7  1  1  0  0  0  0
  9 13  1  0  0  0  0
  9  2  1  0  0  0  0
 10  9  1  0  0  0  0
 10 14  1  0  0  0  0
 11 12  1  0  0  0  0
 11 10  1  0  0  0  0
 12 19  1  0  0  0  0
 12 13  1  0  0  0  0
 13 21  1  0  0  0  0
 13 20  1  1  0  0  0
 15 10  1  0  0  0  0
 16 11  1  0  0  0  0
 17 11  1  0  0  0  0
 18 12  1  0  0  0  0
 22 21  1  0  0  0  0
 23 24  2  0  0  0  0
 23 28  1  0  0  0  0
 24 25  1  0  0  0  0
 25 30  1  0  0  0  0
 25 26  2  0  0  0  0
 26 31  1  0  0  0  0
 27 26  1  0  0  0  0
 27 32  1  0  0  0  0
 28 27  2  0  0  0  0
 29 24  1  0  0  0  0
 33 28  1  0  0  0  0
M  END
>  <minimizedAffinity>
-4.43397617

$$$$
