
 OpenBabel03272506313D

 27 28  0  0  1  0  0  0  0  0999 V2000
   38.6030   24.3370   35.1720 C   0  0  1  0  0  0  0  0  0  0  0  0
   37.8060   25.1640   36.0990 C   0  0  0  0  0  0  0  0  0  0  0  0
   38.3580   26.5130   36.4470 C   0  0  0  0  0  0  0  0  0  0  0  0
   39.0390   27.2240   35.3400 C   0  0  0  0  0  0  0  0  0  0  0  0
   39.8480   26.4070   34.3920 C   0  0  0  0  0  0  0  0  0  0  0  0
   39.1590   25.1190   34.0360 C   0  0  2  0  0  0  0  0  0  0  0  0
   37.8820   23.6100   34.6720 H   0  0  0  0  0  0  0  0  0  0  0  0
   37.3820   24.6890   36.9700 H   0  0  0  0  0  0  0  0  0  0  0  0
   36.8810   25.4440   35.4970 H   0  0  0  0  0  0  0  0  0  0  0  0
   37.5310   27.1500   36.8220 H   0  0  0  0  0  0  0  0  0  0  0  0
   39.0410   26.3760   37.3120 H   0  0  0  0  0  0  0  0  0  0  0  0
   38.2940   27.8030   34.7230 H   0  0  0  0  0  0  0  0  0  0  0  0
   39.7060   28.0070   35.7670 H   0  0  0  0  0  0  0  0  0  0  0  0
   40.8210   26.1590   34.8410 H   0  0  0  0  0  0  0  0  0  0  0  0
   40.0130   26.9680   33.4680 H   0  0  0  0  0  0  0  0  0  0  0  0
   39.7570   24.5560   33.3280 H   0  0  0  0  0  0  0  0  0  0  0  0
   39.5620   23.1130   37.1790 C   0  0  0  0  0  0  0  0  0  0  0  0
   39.5790   23.4210   35.8070 C   0  0  0  0  0  0  0  0  0  0  0  0
   40.5570   22.8180   35.0370 C   0  0  0  0  0  0  0  0  0  0  0  0
   41.4470   21.9680   35.6170 N   0  0  0  0  0  0  0  0  0  0  0  0
   41.3920   21.6990   36.9490 C   0  0  0  0  0  0  0  0  0  0  0  0
   40.4510   22.2700   37.7330 N   0  0  0  0  0  0  0  0  0  0  0  0
   38.8330   23.5490   37.8090 H   0  0  0  0  0  0  0  0  0  0  0  0
   40.7160   22.9340   33.9830 H   0  0  0  0  0  0  0  0  0  0  0  0
   42.0920   21.0230   37.4380 H   0  0  0  0  0  0  0  0  0  0  0  0
   37.6830   25.6460   33.0580 S   0  0  0  0  0  0  0  0  0  0  0  0
   36.4930   25.3430   33.7250 H   0  0  0  0  0  0  0  0  0  0  0  0
  1  7  1  6  0  0  0
  1 18  1  0  0  0  0
  1  2  1  0  0  0  0
  2  3  1  0  0  0  0
  2  8  1  0  0  0  0
  3 10  1  0  0  0  0
  3 11  1  0  0  0  0
  4 13  1  0  0  0  0
  4  3  1  0  0  0  0
  5 14  1  0  0  0  0
  5  4  1  0  0  0  0
  6 16  1  6  0  0  0
  6  5  1  0  0  0  0
  6  1  1  0  0  0  0
  9  2  1  0  0  0  0
 12  4  1  0  0  0  0
 15  5  1  0  0  0  0
 17 22  1  0  0  0  0
 17 23  1  0  0  0  0
 18 17  2  0  0  0  0
 19 20  2  0  0  0  0
 19 18  1  0  0  0  0
 20 21  1  0  0  0  0
 21 25  1  0  0  0  0
 21 22  2  0  0  0  0
 24 19  1  0  0  0  0
 26 27  1  0  0  0  0
 26  6  1  0  0  0  0
M  END
>  <minimizedAffinity>
-3.96059299

$$$$

 OpenBabel03272506313D

 27 28  0  0  1  0  0  0  0  0999 V2000
   36.8520   22.3620   31.5870 C   0  0  1  0  0  0  0  0  0  0  0  0
   37.5920   21.8580   32.7590 C   0  0  0  0  0  0  0  0  0  0  0  0
   36.7760   21.3070   33.8890 C   0  0  0  0  0  0  0  0  0  0  0  0
   35.5690   20.5480   33.4880 C   0  0  0  0  0  0  0  0  0  0  0  0
   34.8070   21.0410   32.3070 C   0  0  0  0  0  0  0  0  0  0  0  0
   35.7210   21.4780   31.1960 C   0  0  2  0  0  0  0  0  0  0  0  0
   37.5600   22.3040   30.6960 H   0  0  0  0  0  0  0  0  0  0  0  0
   38.4160   22.4450   33.1340 H   0  0  0  0  0  0  0  0  0  0  0  0
   38.1140   20.9200   32.3770 H   0  0  0  0  0  0  0  0  0  0  0  0
   37.4210   20.6480   34.5060 H   0  0  0  0  0  0  0  0  0  0  0  0
   36.5100   22.1610   34.5490 H   0  0  0  0  0  0  0  0  0  0  0  0
   35.8270   19.4690   33.2880 H   0  0  0  0  0  0  0  0  0  0  0  0
   34.8650   20.5040   34.3510 H   0  0  0  0  0  0  0  0  0  0  0  0
   34.1820   21.9010   32.5900 H   0  0  0  0  0  0  0  0  0  0  0  0
   34.1660   20.2430   31.9220 H   0  0  0  0  0  0  0  0  0  0  0  0
   35.1420   21.8090   30.3410 H   0  0  0  0  0  0  0  0  0  0  0  0
   35.4160   24.3450   30.9150 C   0  0  0  0  0  0  0  0  0  0  0  0
   36.5070   23.8020   31.6170 C   0  0  0  0  0  0  0  0  0  0  0  0
   37.2680   24.6770   32.3720 C   0  0  0  0  0  0  0  0  0  0  0  0
   36.9440   25.9980   32.4090 N   0  0  0  0  0  0  0  0  0  0  0  0
   35.8790   26.4770   31.7130 C   0  0  0  0  0  0  0  0  0  0  0  0
   35.1120   25.6540   30.9650 N   0  0  0  0  0  0  0  0  0  0  0  0
   34.8020   23.7160   30.3240 H   0  0  0  0  0  0  0  0  0  0  0  0
   38.1270   24.4390   32.9670 H   0  0  0  0  0  0  0  0  0  0  0  0
   35.5990   27.5290   31.7260 H   0  0  0  0  0  0  0  0  0  0  0  0
   36.5200   19.9150   30.6200 S   0  0  0  0  0  0  0  0  0  0  0  0
   37.8940   19.9200   30.8760 H   0  0  0  0  0  0  0  0  0  0  0  0
  1  7  1  6  0  0  0
  1 18  1  0  0  0  0
  1  2  1  0  0  0  0
  2  8  1  0  0  0  0
  2  3  1  0  0  0  0
  3 10  1  0  0  0  0
  3 11  1  0  0  0  0
  4  3  1  0  0  0  0
  4 13  1  0  0  0  0
  5 14  1  0  0  0  0
  5  4  1  0  0  0  0
  6 16  1  6  0  0  0
  6  1  1  0  0  0  0
  6  5  1  0  0  0  0
  9  2  1  0  0  0  0
 12  4  1  0  0  0  0
 15  5  1  0  0  0  0
 17 22  2  0  0  0  0
 17 18  1  0  0  0  0
 18 19  2  0  0  0  0
 19 20  1  0  0  0  0
 19 24  1  0  0  0  0
 21 25  1  0  0  0  0
 21 20  2  0  0  0  0
 22 21  1  0  0  0  0
 23 17  1  0  0  0  0
 26 27  1  0  0  0  0
 26  6  1  0  0  0  0
M  END
>  <minimizedAffinity>
-3.92241788

$$$$

 OpenBabel03272506313D

 27 28  0  0  1  0  0  0  0  0999 V2000
   38.5730   25.7220   33.4190 C   0  0  1  0  0  0  0  0  0  0  0  0
   38.8230   27.0760   33.9500 C   0  0  0  0  0  0  0  0  0  0  0  0
   38.2400   27.3930   35.2930 C   0  0  0  0  0  0  0  0  0  0  0  0
   38.2580   26.2810   36.2710 C   0  0  0  0  0  0  0  0  0  0  0  0
   38.0080   24.9070   35.7550 C   0  0  0  0  0  0  0  0  0  0  0  0
   38.7170   24.6620   34.4520 C   0  0  2  0  0  0  0  0  0  0  0  0
   39.4110   25.4950   32.6810 H   0  0  0  0  0  0  0  0  0  0  0  0
   38.7180   27.9140   33.2800 H   0  0  0  0  0  0  0  0  0  0  0  0
   39.9390   27.0830   34.1790 H   0  0  0  0  0  0  0  0  0  0  0  0
   38.7890   28.2550   35.7260 H   0  0  0  0  0  0  0  0  0  0  0  0
   37.2040   27.7590   35.1240 H   0  0  0  0  0  0  0  0  0  0  0  0
   39.2410   26.2530   36.8220 H   0  0  0  0  0  0  0  0  0  0  0  0
   37.5060   26.4860   37.0680 H   0  0  0  0  0  0  0  0  0  0  0  0
   36.9310   24.7530   35.5900 H   0  0  0  0  0  0  0  0  0  0  0  0
   38.3670   24.1690   36.4780 H   0  0  0  0  0  0  0  0  0  0  0  0
   38.5380   23.6480   34.1110 H   0  0  0  0  0  0  0  0  0  0  0  0
   36.8280   24.3300   32.2100 C   0  0  0  0  0  0  0  0  0  0  0  0
   37.3660   25.5780   32.5730 C   0  0  0  0  0  0  0  0  0  0  0  0
   36.7080   26.7050   32.1150 C   0  0  0  0  0  0  0  0  0  0  0  0
   35.5910   26.5730   31.3480 N   0  0  0  0  0  0  0  0  0  0  0  0
   35.1080   25.3450   31.0210 C   0  0  0  0  0  0  0  0  0  0  0  0
   35.7230   24.2210   31.4510 N   0  0  0  0  0  0  0  0  0  0  0  0
   37.2950   23.4380   32.5360 H   0  0  0  0  0  0  0  0  0  0  0  0
   36.9730   27.7280   32.2950 H   0  0  0  0  0  0  0  0  0  0  0  0
   34.2170   25.2120   30.4090 H   0  0  0  0  0  0  0  0  0  0  0  0
   40.5100   24.6760   34.8980 S   0  0  0  0  0  0  0  0  0  0  0  0
   41.1730   25.7570   34.3100 H   0  0  0  0  0  0  0  0  0  0  0  0
  1  7  1  6  0  0  0
  1  2  1  0  0  0  0
  1  6  1  0  0  0  0
  2  9  1  0  0  0  0
  2  3  1  0  0  0  0
  3 10  1  0  0  0  0
  3  4  1  0  0  0  0
  4 12  1  0  0  0  0
  4 13  1  0  0  0  0
  5  4  1  0  0  0  0
  5 15  1  0  0  0  0
  6 16  1  6  0  0  0
  6 26  1  0  0  0  0
  6  5  1  0  0  0  0
  8  2  1  0  0  0  0
 11  3  1  0  0  0  0
 14  5  1  0  0  0  0
 17 23  1  0  0  0  0
 17 18  1  0  0  0  0
 18  1  1  0  0  0  0
 19 24  1  0  0  0  0
 19 18  2  0  0  0  0
 20 19  1  0  0  0  0
 21 20  2  0  0  0  0
 21 22  1  0  0  0  0
 22 17  2  0  0  0  0
 25 21  1  0  0  0  0
 27 26  1  0  0  0  0
M  END
>  <minimizedAffinity>
-3.88799334

$$$$

 OpenBabel03272506313D

 27 28  0  0  1  0  0  0  0  0999 V2000
   38.5990   25.6790   33.4680 C   0  0  1  0  0  0  0  0  0  0  0  0
   38.9090   27.0330   33.9660 C   0  0  0  0  0  0  0  0  0  0  0  0
   38.3360   27.4110   35.2980 C   0  0  0  0  0  0  0  0  0  0  0  0
   38.3000   26.3250   36.3040 C   0  0  0  0  0  0  0  0  0  0  0  0
   37.9890   24.9500   35.8220 C   0  0  0  0  0  0  0  0  0  0  0  0
   38.6900   24.6400   34.5280 C   0  0  2  0  0  0  0  0  0  0  0  0
   39.4280   25.3950   32.7400 H   0  0  0  0  0  0  0  0  0  0  0  0
   38.8450   27.8580   33.2740 H   0  0  0  0  0  0  0  0  0  0  0  0
   40.0230   26.9950   34.1990 H   0  0  0  0  0  0  0  0  0  0  0  0
   38.9230   28.2570   35.7110 H   0  0  0  0  0  0  0  0  0  0  0  0
   37.3190   27.8190   35.1150 H   0  0  0  0  0  0  0  0  0  0  0  0
   39.2800   26.2650   36.8590 H   0  0  0  0  0  0  0  0  0  0  0  0
   37.5560   26.5830   37.0910 H   0  0  0  0  0  0  0  0  0  0  0  0
   36.9070   24.8420   35.6550 H   0  0  0  0  0  0  0  0  0  0  0  0
   38.3120   24.2150   36.5650 H   0  0  0  0  0  0  0  0  0  0  0  0
   38.4660   23.6270   34.2120 H   0  0  0  0  0  0  0  0  0  0  0  0
   36.6830   26.6870   32.1420 C   0  0  0  0  0  0  0  0  0  0  0  0
   37.3890   25.5690   32.6210 C   0  0  0  0  0  0  0  0  0  0  0  0
   36.9130   24.3210   32.2590 C   0  0  0  0  0  0  0  0  0  0  0  0
   35.8080   24.2200   31.4720 N   0  0  0  0  0  0  0  0  0  0  0  0
   35.1580   25.3310   31.0320 C   0  0  0  0  0  0  0  0  0  0  0  0
   35.5930   26.5660   31.3640 N   0  0  0  0  0  0  0  0  0  0  0  0
   37.0080   27.6640   32.3910 H   0  0  0  0  0  0  0  0  0  0  0  0
   37.3230   23.3690   32.5290 H   0  0  0  0  0  0  0  0  0  0  0  0
   34.2720   25.2770   30.4010 H   0  0  0  0  0  0  0  0  0  0  0  0
   40.4810   24.5840   34.9810 S   0  0  0  0  0  0  0  0  0  0  0  0
   41.1950   25.6170   34.3690 H   0  0  0  0  0  0  0  0  0  0  0  0
  1  7  1  6  0  0  0
  1  2  1  0  0  0  0
  1  6  1  0  0  0  0
  2  9  1  0  0  0  0
  2  3  1  0  0  0  0
  3 10  1  0  0  0  0
  3  4  1  0  0  0  0
  4 12  1  0  0  0  0
  4 13  1  0  0  0  0
  5  4  1  0  0  0  0
  5 15  1  0  0  0  0
  6 16  1  6  0  0  0
  6 26  1  0  0  0  0
  6  5  1  0  0  0  0
  8  2  1  0  0  0  0
 11  3  1  0  0  0  0
 14  5  1  0  0  0  0
 17 23  1  0  0  0  0
 17 18  1  0  0  0  0
 18  1  1  0  0  0  0
 19 24  1  0  0  0  0
 19 18  2  0  0  0  0
 20 19  1  0  0  0  0
 21 22  1  0  0  0  0
 21 20  2  0  0  0  0
 22 17  2  0  0  0  0
 25 21  1  0  0  0  0
 27 26  1  0  0  0  0
M  END
>  <minimizedAffinity>
-3.88620567

$$$$

 OpenBabel03272506313D

 27 28  0  0  1  0  0  0  0  0999 V2000
   38.4410   26.2920   35.4040 C   0  0  1  0  0  0  0  0  0  0  0  0
   39.5570   27.1600   34.9850 C   0  0  0  0  0  0  0  0  0  0  0  0
   39.9780   27.0750   33.5490 C   0  0  0  0  0  0  0  0  0  0  0  0
   38.8770   26.8910   32.5760 C   0  0  0  0  0  0  0  0  0  0  0  0
   37.7400   26.0180   32.9800 C   0  0  0  0  0  0  0  0  0  0  0  0
   37.3360   26.2530   34.4090 C   0  0  2  0  0  0  0  0  0  0  0  0
   37.9650   26.7800   36.3160 H   0  0  0  0  0  0  0  0  0  0  0  0
   40.4180   27.2330   35.6310 H   0  0  0  0  0  0  0  0  0  0  0  0
   39.1250   28.2130   35.0330 H   0  0  0  0  0  0  0  0  0  0  0  0
   40.5340   27.9980   33.2850 H   0  0  0  0  0  0  0  0  0  0  0  0
   40.7200   26.2520   33.4720 H   0  0  0  0  0  0  0  0  0  0  0  0
   38.4390   27.8860   32.2790 H   0  0  0  0  0  0  0  0  0  0  0  0
   39.2950   26.4840   31.6270 H   0  0  0  0  0  0  0  0  0  0  0  0
   38.0190   24.9580   32.8760 H   0  0  0  0  0  0  0  0  0  0  0  0
   36.8720   26.2230   32.3460 H   0  0  0  0  0  0  0  0  0  0  0  0
   36.4930   25.6230   34.6700 H   0  0  0  0  0  0  0  0  0  0  0  0
   39.9300   24.2360   35.4450 C   0  0  0  0  0  0  0  0  0  0  0  0
   38.8250   24.9610   35.9280 C   0  0  0  0  0  0  0  0  0  0  0  0
   38.0900   24.3840   36.9480 C   0  0  0  0  0  0  0  0  0  0  0  0
   38.4500   23.1660   37.4370 N   0  0  0  0  0  0  0  0  0  0  0  0
   39.5270   22.5020   36.9380 C   0  0  0  0  0  0  0  0  0  0  0  0
   40.2690   23.0340   35.9430 N   0  0  0  0  0  0  0  0  0  0  0  0
   40.5240   24.6360   34.6660 H   0  0  0  0  0  0  0  0  0  0  0  0
   37.2260   24.7910   37.4340 H   0  0  0  0  0  0  0  0  0  0  0  0
   39.8360   21.5270   37.3120 H   0  0  0  0  0  0  0  0  0  0  0  0
   36.6370   27.9630   34.4110 S   0  0  0  0  0  0  0  0  0  0  0  0
   37.4230   28.8340   35.1700 H   0  0  0  0  0  0  0  0  0  0  0  0
  1 18  1  0  0  0  0
  1  7  1  1  0  0  0
  2  9  1  0  0  0  0
  2  1  1  0  0  0  0
  2  8  1  0  0  0  0
  3  2  1  0  0  0  0
  4  5  1  0  0  0  0
  4  3  1  0  0  0  0
  5  6  1  0  0  0  0
  6 26  1  0  0  0  0
  6 16  1  1  0  0  0
  6  1  1  0  0  0  0
 10  3  1  0  0  0  0
 11  3  1  0  0  0  0
 12  4  1  0  0  0  0
 13  4  1  0  0  0  0
 14  5  1  0  0  0  0
 15  5  1  0  0  0  0
 17 18  2  0  0  0  0
 17 22  1  0  0  0  0
 18 19  1  0  0  0  0
 19 24  1  0  0  0  0
 19 20  2  0  0  0  0
 21 25  1  0  0  0  0
 21 20  1  0  0  0  0
 22 21  2  0  0  0  0
 23 17  1  0  0  0  0
 26 27  1  0  0  0  0
M  END
>  <minimizedAffinity>
-3.88283062

$$$$

 OpenBabel03272506313D

 27 28  0  0  1  0  0  0  0  0999 V2000
   39.4660   24.5540   34.6570 C   0  0  1  0  0  0  0  0  0  0  0  0
   38.8470   25.8220   34.2240 C   0  0  0  0  0  0  0  0  0  0  0  0
   39.6530   27.0700   34.4210 C   0  0  0  0  0  0  0  0  0  0  0  0
   41.1080   26.9280   34.1880 C   0  0  0  0  0  0  0  0  0  0  0  0
   41.7530   25.6550   34.6160 C   0  0  0  0  0  0  0  0  0  0  0  0
   40.9030   24.4590   34.2860 C   0  0  2  0  0  0  0  0  0  0  0  0
   38.9760   23.7220   34.0530 H   0  0  0  0  0  0  0  0  0  0  0  0
   37.8110   25.9940   34.4710 H   0  0  0  0  0  0  0  0  0  0  0  0
   38.8190   25.7450   33.0890 H   0  0  0  0  0  0  0  0  0  0  0  0
   39.2610   27.8570   33.7450 H   0  0  0  0  0  0  0  0  0  0  0  0
   39.4470   27.4360   35.4500 H   0  0  0  0  0  0  0  0  0  0  0  0
   41.3510   27.0680   33.0960 H   0  0  0  0  0  0  0  0  0  0  0  0
   41.6410   27.7640   34.6950 H   0  0  0  0  0  0  0  0  0  0  0  0
   41.9200   25.6620   35.7040 H   0  0  0  0  0  0  0  0  0  0  0  0
   42.7140   25.5370   34.1080 H   0  0  0  0  0  0  0  0  0  0  0  0
   41.4050   23.5470   34.5870 H   0  0  0  0  0  0  0  0  0  0  0  0
   38.1060   24.6640   36.7980 C   0  0  0  0  0  0  0  0  0  0  0  0
   39.1750   24.1410   36.0490 C   0  0  0  0  0  0  0  0  0  0  0  0
   39.9690   23.1900   36.6650 C   0  0  0  0  0  0  0  0  0  0  0  0
   39.6960   22.8010   37.9400 N   0  0  0  0  0  0  0  0  0  0  0  0
   38.6490   23.3360   38.6250 C   0  0  0  0  0  0  0  0  0  0  0  0
   37.8520   24.2670   38.0570 N   0  0  0  0  0  0  0  0  0  0  0  0
   37.4690   25.3950   36.3710 H   0  0  0  0  0  0  0  0  0  0  0  0
   40.8180   22.6860   36.2470 H   0  0  0  0  0  0  0  0  0  0  0  0
   38.4090   23.0420   39.6460 H   0  0  0  0  0  0  0  0  0  0  0  0
   40.9110   24.3900   32.4400 S   0  0  0  0  0  0  0  0  0  0  0  0
   39.6380   24.6270   31.9150 H   0  0  0  0  0  0  0  0  0  0  0  0
  1  7  1  6  0  0  0
  1 18  1  0  0  0  0
  2  3  1  0  0  0  0
  2  8  1  0  0  0  0
  2  1  1  0  0  0  0
  3 11  1  0  0  0  0
  4  3  1  0  0  0  0
  4  5  1  0  0  0  0
  4 13  1  0  0  0  0
  5 14  1  0  0  0  0
  6 16  1  1  0  0  0
  6  5  1  0  0  0  0
  6  1  1  0  0  0  0
  9  2  1  0  0  0  0
 10  3  1  0  0  0  0
 12  4  1  0  0  0  0
 15  5  1  0  0  0  0
 17 22  1  0  0  0  0
 18 19  1  0  0  0  0
 18 17  2  0  0  0  0
 19 20  2  0  0  0  0
 20 21  1  0  0  0  0
 21 25  1  0  0  0  0
 22 21  2  0  0  0  0
 23 17  1  0  0  0  0
 24 19  1  0  0  0  0
 26  6  1  0  0  0  0
 27 26  1  0  0  0  0
M  END
>  <minimizedAffinity>
-3.87671852

$$$$

 OpenBabel03272506313D

 27 28  0  0  1  0  0  0  0  0999 V2000
   38.3710   26.3480   35.3730 C   0  0  1  0  0  0  0  0  0  0  0  0
   39.5070   27.1780   34.9300 C   0  0  0  0  0  0  0  0  0  0  0  0
   39.8980   27.0750   33.4870 C   0  0  0  0  0  0  0  0  0  0  0  0
   38.7740   26.9230   32.5350 C   0  0  0  0  0  0  0  0  0  0  0  0
   37.6160   26.0890   32.9630 C   0  0  0  0  0  0  0  0  0  0  0  0
   37.2480   26.3410   34.3990 C   0  0  2  0  0  0  0  0  0  0  0  0
   37.9290   26.8540   36.2920 H   0  0  0  0  0  0  0  0  0  0  0  0
   40.3820   27.2260   35.5600 H   0  0  0  0  0  0  0  0  0  0  0  0
   39.1100   28.2440   34.9820 H   0  0  0  0  0  0  0  0  0  0  0  0
   40.4780   27.9790   33.2090 H   0  0  0  0  0  0  0  0  0  0  0  0
   40.6120   26.2280   33.3990 H   0  0  0  0  0  0  0  0  0  0  0  0
   38.3620   27.9320   32.2430 H   0  0  0  0  0  0  0  0  0  0  0  0
   39.1610   26.5000   31.5800 H   0  0  0  0  0  0  0  0  0  0  0  0
   37.8590   25.0210   32.8580 H   0  0  0  0  0  0  0  0  0  0  0  0
   36.7440   26.3200   32.3450 H   0  0  0  0  0  0  0  0  0  0  0  0
   36.3890   25.7400   34.6780 H   0  0  0  0  0  0  0  0  0  0  0  0
   37.9370   24.3200   36.8380 C   0  0  0  0  0  0  0  0  0  0  0  0
   38.7230   25.0070   35.8950 C   0  0  0  0  0  0  0  0  0  0  0  0
   39.8650   24.3700   35.4430 C   0  0  0  0  0  0  0  0  0  0  0  0
   40.1820   23.1330   35.9140 N   0  0  0  0  0  0  0  0  0  0  0  0
   39.3910   22.5080   36.8260 C   0  0  0  0  0  0  0  0  0  0  0  0
   38.2680   23.0980   37.2900 N   0  0  0  0  0  0  0  0  0  0  0  0
   37.0530   24.7650   37.2130 H   0  0  0  0  0  0  0  0  0  0  0  0
   40.5740   24.7410   34.7300 H   0  0  0  0  0  0  0  0  0  0  0  0
   39.6220   21.5180   37.2180 H   0  0  0  0  0  0  0  0  0  0  0  0
   36.6050   28.0730   34.4080 S   0  0  0  0  0  0  0  0  0  0  0  0
   37.4320   28.9210   35.1480 H   0  0  0  0  0  0  0  0  0  0  0  0
  1 18  1  0  0  0  0
  1  7  1  1  0  0  0
  2  9  1  0  0  0  0
  2  1  1  0  0  0  0
  2  8  1  0  0  0  0
  3  2  1  0  0  0  0
  4  5  1  0  0  0  0
  4  3  1  0  0  0  0
  5  6  1  0  0  0  0
  6 26  1  0  0  0  0
  6 16  1  1  0  0  0
  6  1  1  0  0  0  0
 10  3  1  0  0  0  0
 11  3  1  0  0  0  0
 12  4  1  0  0  0  0
 13  4  1  0  0  0  0
 14  5  1  0  0  0  0
 15  5  1  0  0  0  0
 17 23  1  0  0  0  0
 17 22  1  0  0  0  0
 18 17  2  0  0  0  0
 19 18  1  0  0  0  0
 19 20  2  0  0  0  0
 20 21  1  0  0  0  0
 21 25  1  0  0  0  0
 21 22  2  0  0  0  0
 24 19  1  0  0  0  0
 26 27  1  0  0  0  0
M  END
>  <minimizedAffinity>
-3.86761713

$$$$

 OpenBabel03272506313D

 27 28  0  0  1  0  0  0  0  0999 V2000
   40.3750   22.9250   35.9480 C   0  0  1  0  0  0  0  0  0  0  0  0
   40.1410   22.3320   37.2780 C   0  0  0  0  0  0  0  0  0  0  0  0
   39.3470   23.1480   38.2530 C   0  0  0  0  0  0  0  0  0  0  0  0
   38.2320   23.9260   37.6670 C   0  0  0  0  0  0  0  0  0  0  0  0
   38.4470   24.5340   36.3240 C   0  0  0  0  0  0  0  0  0  0  0  0
   39.1670   23.5950   35.3960 C   0  0  2  0  0  0  0  0  0  0  0  0
   40.5580   22.0620   35.2270 H   0  0  0  0  0  0  0  0  0  0  0  0
   40.9670   21.8440   37.7720 H   0  0  0  0  0  0  0  0  0  0  0  0
   39.4310   21.4650   37.0760 H   0  0  0  0  0  0  0  0  0  0  0  0
   38.9370   22.4730   39.0320 H   0  0  0  0  0  0  0  0  0  0  0  0
   40.0610   23.8120   38.7840 H   0  0  0  0  0  0  0  0  0  0  0  0
   37.3000   23.2950   37.5970 H   0  0  0  0  0  0  0  0  0  0  0  0
   37.9530   24.7460   38.3680 H   0  0  0  0  0  0  0  0  0  0  0  0
   39.0500   25.4500   36.4130 H   0  0  0  0  0  0  0  0  0  0  0  0
   37.4830   24.7820   35.8710 H   0  0  0  0  0  0  0  0  0  0  0  0
   39.2900   24.0520   34.4200 H   0  0  0  0  0  0  0  0  0  0  0  0
   41.7270   24.8320   34.9590 C   0  0  0  0  0  0  0  0  0  0  0  0
   41.6180   23.7170   35.8090 C   0  0  0  0  0  0  0  0  0  0  0  0
   42.7380   23.3750   36.5450 C   0  0  0  0  0  0  0  0  0  0  0  0
   43.8780   24.1100   36.4260 N   0  0  0  0  0  0  0  0  0  0  0  0
   43.9350   25.1810   35.5900 C   0  0  0  0  0  0  0  0  0  0  0  0
   42.8620   25.5460   34.8560 N   0  0  0  0  0  0  0  0  0  0  0  0
   40.8970   25.1340   34.3750 H   0  0  0  0  0  0  0  0  0  0  0  0
   42.8340   22.5640   37.2390 H   0  0  0  0  0  0  0  0  0  0  0  0
   44.8340   25.7850   35.4770 H   0  0  0  0  0  0  0  0  0  0  0  0
   37.9600   22.2270   35.1030 S   0  0  0  0  0  0  0  0  0  0  0  0
   38.4190   21.0190   35.6340 H   0  0  0  0  0  0  0  0  0  0  0  0
  1  7  1  6  0  0  0
  1  2  1  0  0  0  0
  2  8  1  0  0  0  0
  2  3  1  0  0  0  0
  3 11  1  0  0  0  0
  3 10  1  0  0  0  0
  4  3  1  0  0  0  0
  4 13  1  0  0  0  0
  5 14  1  0  0  0  0
  5  4  1  0  0  0  0
  6 16  1  6  0  0  0
  6  1  1  0  0  0  0
  6  5  1  0  0  0  0
  9  2  1  0  0  0  0
 12  4  1  0  0  0  0
 15  5  1  0  0  0  0
 17 18  1  0  0  0  0
 18  1  1  0  0  0  0
 18 19  2  0  0  0  0
 19 24  1  0  0  0  0
 20 19  1  0  0  0  0
 21 20  2  0  0  0  0
 22 17  2  0  0  0  0
 22 21  1  0  0  0  0
 23 17  1  0  0  0  0
 25 21  1  0  0  0  0
 26  6  1  0  0  0  0
 26 27  1  0  0  0  0
M  END
>  <minimizedAffinity>
-3.86588311

$$$$

 OpenBabel03272506313D

 27 28  0  0  1  0  0  0  0  0999 V2000
   37.5050   26.7480   33.6430 C   0  0  1  0  0  0  0  0  0  0  0  0
   38.7390   26.5240   32.8660 C   0  0  0  0  0  0  0  0  0  0  0  0
   40.0130   27.0530   33.4520 C   0  0  0  0  0  0  0  0  0  0  0  0
   40.1260   26.9450   34.9250 C   0  0  0  0  0  0  0  0  0  0  0  0
   38.8920   27.1670   35.7280 C   0  0  0  0  0  0  0  0  0  0  0  0
   37.6920   26.5140   35.1000 C   0  0  2  0  0  0  0  0  0  0  0  0
   36.7660   25.9390   33.3330 H   0  0  0  0  0  0  0  0  0  0  0  0
   38.7090   26.6940   31.8010 H   0  0  0  0  0  0  0  0  0  0  0  0
   38.9080   25.4000   32.9300 H   0  0  0  0  0  0  0  0  0  0  0  0
   40.8670   26.5170   32.9900 H   0  0  0  0  0  0  0  0  0  0  0  0
   40.1140   28.1090   33.1210 H   0  0  0  0  0  0  0  0  0  0  0  0
   40.5330   25.9350   35.2180 H   0  0  0  0  0  0  0  0  0  0  0  0
   40.8980   27.6640   35.2840 H   0  0  0  0  0  0  0  0  0  0  0  0
   38.6840   28.2440   35.8160 H   0  0  0  0  0  0  0  0  0  0  0  0
   39.0200   26.7450   36.7290 H   0  0  0  0  0  0  0  0  0  0  0  0
   36.8130   26.6700   35.7160 H   0  0  0  0  0  0  0  0  0  0  0  0
   35.9970   28.6910   34.2730 C   0  0  0  0  0  0  0  0  0  0  0  0
   36.7630   27.9890   33.3240 C   0  0  0  0  0  0  0  0  0  0  0  0
   36.8140   28.5130   32.0450 C   0  0  0  0  0  0  0  0  0  0  0  0
   36.1410   29.6590   31.7540 N   0  0  0  0  0  0  0  0  0  0  0  0
   35.4140   30.3040   32.7060 C   0  0  0  0  0  0  0  0  0  0  0  0
   35.3400   29.8230   33.9660 N   0  0  0  0  0  0  0  0  0  0  0  0
   35.9270   28.3310   35.2660 H   0  0  0  0  0  0  0  0  0  0  0  0
   37.3460   28.1150   31.2040 H   0  0  0  0  0  0  0  0  0  0  0  0
   34.8660   31.2220   32.4990 H   0  0  0  0  0  0  0  0  0  0  0  0
   38.0280   24.7030   35.2490 S   0  0  0  0  0  0  0  0  0  0  0  0
   38.1970   24.1110   33.9940 H   0  0  0  0  0  0  0  0  0  0  0  0
  1  7  1  6  0  0  0
  1  6  1  0  0  0  0
  2  9  1  0  0  0  0
  2  3  1  0  0  0  0
  2  1  1  0  0  0  0
  3  4  1  0  0  0  0
  4 12  1  0  0  0  0
  4 13  1  0  0  0  0
  4  5  1  0  0  0  0
  5 14  1  0  0  0  0
  5 15  1  0  0  0  0
  6 26  1  0  0  0  0
  6 16  1  1  0  0  0
  6  5  1  0  0  0  0
  8  2  1  0  0  0  0
 10  3  1  0  0  0  0
 11  3  1  0  0  0  0
 17 23  1  0  0  0  0
 18  1  1  0  0  0  0
 18 17  2  0  0  0  0
 19 18  1  0  0  0  0
 20 19  2  0  0  0  0
 20 21  1  0  0  0  0
 21 22  2  0  0  0  0
 22 17  1  0  0  0  0
 24 19  1  0  0  0  0
 25 21  1  0  0  0  0
 27 26  1  0  0  0  0
M  END
>  <minimizedAffinity>
-3.84205174

$$$$
