
 OpenBabel03272507363D

 12 12  0  0  0  0  0  0  0  0999 V2000
   36.7660   29.9750   51.0300 C   0  0  0  0  0  0  0  0  0  0  0  0
   36.9250   30.7880   49.9060 C   0  0  0  0  0  0  0  0  0  0  0  0
   35.8940   30.8260   48.9720 C   0  0  0  0  0  0  0  0  0  0  0  0
   34.7830   30.0700   49.2010 N   0  0  0  0  0  0  0  0  0  0  0  0
   34.6590   29.2870   50.3100 C   0  0  0  0  0  0  0  0  0  0  0  0
   35.6450   29.2510   51.2010 N   0  0  0  0  0  0  0  0  0  0  0  0
   35.9640   31.4420   48.0770 H   0  0  0  0  0  0  0  0  0  0  0  0
   33.7480   28.7170   50.4200 H   0  0  0  0  0  0  0  0  0  0  0  0
   37.8570   30.0260   51.8760 O   0  0  0  0  0  0  0  0  0  0  0  0
   37.8400   30.2370   52.8580 H   0  0  0  0  0  0  0  0  0  0  0  0
   38.3450   31.7750   49.5780 S   0  0  0  0  0  0  0  0  0  0  0  0
   39.2980   30.9580   48.9000 H   0  0  0  0  0  0  0  0  0  0  0  0
  1  6  1  0  0  0  0
  1  9  1  0  0  0  0
  2  1  2  0  0  0  0
  3  4  2  0  0  0  0
  3  2  1  0  0  0  0
  4  5  1  0  0  0  0
  5  8  1  0  0  0  0
  5  6  2  0  0  0  0
  7  3  1  0  0  0  0
  9 10  1  0  0  0  0
 11  2  1  0  0  0  0
 12 11  1  0  0  0  0
M  END
>  <minimizedAffinity>
-3.33741808

>  <minimizedRMSD>
1.17035592

$$$$
