
 OpenBabel03272510283D

 38 41  0  0  1  0  0  0  0  0999 V2000
   37.3470   23.0700   32.9220 C   0  0  0  0  0  0  0  0  0  0  0  0
   36.4130   22.6940   31.9630 C   0  0  0  0  0  0  0  0  0  0  0  0
   35.7620   23.6500   31.1660 C   0  0  0  0  0  0  0  0  0  0  0  0
   36.1120   24.9720   31.4000 C   0  0  0  0  0  0  0  0  0  0  0  0
   35.6260   26.0850   30.7570 N   0  0  0  0  0  0  0  0  0  0  0  0
   36.2480   27.1380   31.3080 C   0  0  0  0  0  0  0  0  0  0  0  0
   37.0800   26.7280   32.2450 N   0  0  0  0  0  0  0  0  0  0  0  0
   37.0280   25.3880   32.3370 C   0  0  0  0  0  0  0  0  0  0  0  0
   37.6570   24.4060   33.1130 C   0  0  0  0  0  0  0  0  0  0  0  0
   37.8510   22.3320   33.5380 H   0  0  0  0  0  0  0  0  0  0  0  0
   35.0330   23.3690   30.4170 H   0  0  0  0  0  0  0  0  0  0  0  0
   34.9110   26.0990   29.9890 H   0  0  0  0  0  0  0  0  0  0  0  0
   38.3760   24.7280   33.8480 H   0  0  0  0  0  0  0  0  0  0  0  0
   35.1030   19.1820   32.2550 C   0  0  0  0  0  0  0  0  0  0  0  0
   35.2740   20.5280   32.5630 C   0  0  0  0  0  0  0  0  0  0  0  0
   36.1150   21.2850   31.7920 C   0  0  0  0  0  0  0  0  0  0  0  0
   36.7470   20.6490   30.7420 N   0  0  0  0  0  0  0  0  0  0  0  0
   36.5780   19.3470   30.4500 C   0  0  0  0  0  0  0  0  0  0  0  0
   35.7690   18.6280   31.1950 N   0  0  0  0  0  0  0  0  0  0  0  0
   34.4370   18.5880   32.8680 H   0  0  0  0  0  0  0  0  0  0  0  0
   34.7860   21.0290   33.3770 H   0  0  0  0  0  0  0  0  0  0  0  0
   37.1400   18.9870   29.5980 H   0  0  0  0  0  0  0  0  0  0  0  0
   36.0010   28.4500   30.8960 O   0  0  0  0  0  0  0  0  0  0  0  0
   37.0990   28.2930   28.8740 N   0  0  0  0  0  0  0  0  0  0  0  0
   37.0210   29.0530   30.1160 C   0  0  1  0  0  0  0  0  0  0  0  0
   36.7130   30.4470   29.8370 C   0  0  0  0  0  0  0  0  0  0  0  0
   37.7630   31.0020   29.0850 O   0  0  0  0  0  0  0  0  0  0  0  0
   38.0770   30.3300   27.9400 C   0  0  0  0  0  0  0  0  0  0  0  0
   38.2350   28.8430   28.1770 C   0  0  1  0  0  0  0  0  0  0  0  0
   36.3300   28.3740   28.2260 H   0  0  0  0  0  0  0  0  0  0  0  0
   38.0200   28.9630   30.5860 H   0  0  0  0  0  0  0  0  0  0  0  0
   35.8480   30.7980   29.3410 H   0  0  0  0  0  0  0  0  0  0  0  0
   36.7730   31.0120   30.8160 H   0  0  0  0  0  0  0  0  0  0  0  0
   39.0380   30.6950   27.5780 H   0  0  0  0  0  0  0  0  0  0  0  0
   37.2880   30.4690   27.1900 H   0  0  0  0  0  0  0  0  0  0  0  0
   38.4060   28.3690   27.1780 H   0  0  0  0  0  0  0  0  0  0  0  0
   39.6990   28.5940   29.2380 S   0  0  0  0  0  0  0  0  0  0  0  0
   40.7810   28.0880   28.4860 H   0  0  0  0  0  0  0  0  0  0  0  0
  1  9  1  0  0  0  0
  1 10  1  0  0  0  0
  2  1  2  0  0  0  0
  3  4  2  0  0  0  0
  3  2  1  0  0  0  0
  4  8  1  0  0  0  0
  5  6  1  0  0  0  0
  5  4  1  0  0  0  0
  6  7  2  0  0  0  0
  7  8  1  0  0  0  0
  8  9  2  0  0  0  0
  9 13  1  0  0  0  0
 11  3  1  0  0  0  0
 12  5  1  0  0  0  0
 14 15  1  0  0  0  0
 14 20  1  0  0  0  0
 15 21  1  0  0  0  0
 16  2  1  0  0  0  0
 16 15  2  0  0  0  0
 17 16  1  0  0  0  0
 18 17  2  0  0  0  0
 18 19  1  0  0  0  0
 19 14  2  0  0  0  0
 22 18  1  0  0  0  0
 23  6  1  0  0  0  0
 24 25  1  0  0  0  0
 25 31  1  1  0  0  0
 25 23  1  0  0  0  0
 26 25  1  0  0  0  0
 26 33  1  0  0  0  0
 27 26  1  0  0  0  0
 28 29  1  0  0  0  0
 28 27  1  0  0  0  0
 29 36  1  6  0  0  0
 29 24  1  0  0  0  0
 29 37  1  0  0  0  0
 30 24  1  0  0  0  0
 32 26  1  0  0  0  0
 34 28  1  0  0  0  0
 35 28  1  0  0  0  0
 38 37  1  0  0  0  0
M  END
>  <minimizedAffinity>
-5.63767099

$$$$

 OpenBabel03272510283D

 38 41  0  0  1  0  0  0  0  0999 V2000
   38.5470   26.2740   36.0960 C   0  0  0  0  0  0  0  0  0  0  0  0
   38.8800   25.1640   35.3280 C   0  0  0  0  0  0  0  0  0  0  0  0
   38.5240   25.0830   33.9720 C   0  0  0  0  0  0  0  0  0  0  0  0
   37.8300   26.1700   33.4620 C   0  0  0  0  0  0  0  0  0  0  0  0
   37.3750   26.3350   32.1760 N   0  0  0  0  0  0  0  0  0  0  0  0
   36.7680   27.5310   32.1430 C   0  0  0  0  0  0  0  0  0  0  0  0
   36.8290   28.0970   33.3330 N   0  0  0  0  0  0  0  0  0  0  0  0
   37.4790   27.2860   34.1840 C   0  0  0  0  0  0  0  0  0  0  0  0
   37.8520   27.3310   35.5340 C   0  0  0  0  0  0  0  0  0  0  0  0
   38.8210   26.3380   37.1440 H   0  0  0  0  0  0  0  0  0  0  0  0
   38.7780   24.2230   33.3650 H   0  0  0  0  0  0  0  0  0  0  0  0
   37.4860   25.6560   31.3830 H   0  0  0  0  0  0  0  0  0  0  0  0
   37.5790   28.2050   36.1030 H   0  0  0  0  0  0  0  0  0  0  0  0
   41.2640   22.3810   36.1690 C   0  0  0  0  0  0  0  0  0  0  0  0
   40.6820   23.4060   35.4290 C   0  0  0  0  0  0  0  0  0  0  0  0
   39.6090   24.0750   35.9520 C   0  0  0  0  0  0  0  0  0  0  0  0
   39.1680   23.6800   37.1990 N   0  0  0  0  0  0  0  0  0  0  0  0
   39.7350   22.6880   37.9080 C   0  0  0  0  0  0  0  0  0  0  0  0
   40.7660   22.0510   37.4000 N   0  0  0  0  0  0  0  0  0  0  0  0
   42.1140   21.8550   35.7510 H   0  0  0  0  0  0  0  0  0  0  0  0
   41.0190   23.7190   34.4600 H   0  0  0  0  0  0  0  0  0  0  0  0
   39.2820   22.4890   38.8710 H   0  0  0  0  0  0  0  0  0  0  0  0
   36.1820   28.0380   30.9810 O   0  0  0  0  0  0  0  0  0  0  0  0
   37.0880   28.3830   28.8900 N   0  0  0  0  0  0  0  0  0  0  0  0
   36.9800   28.9410   30.2320 C   0  0  1  0  0  0  0  0  0  0  0  0
   36.3720   30.2610   30.1830 C   0  0  0  0  0  0  0  0  0  0  0  0
   37.2110   31.1200   29.4520 O   0  0  0  0  0  0  0  0  0  0  0  0
   37.5420   30.6840   28.2020 C   0  0  0  0  0  0  0  0  0  0  0  0
   38.0180   29.2480   28.2050 C   0  0  1  0  0  0  0  0  0  0  0  0
   36.2600   28.3820   28.3140 H   0  0  0  0  0  0  0  0  0  0  0  0
   38.0170   29.0050   30.6150 H   0  0  0  0  0  0  0  0  0  0  0  0
   35.4100   30.4810   29.8040 H   0  0  0  0  0  0  0  0  0  0  0  0
   36.4120   30.6940   31.2280 H   0  0  0  0  0  0  0  0  0  0  0  0
   38.3700   31.2900   27.8330 H   0  0  0  0  0  0  0  0  0  0  0  0
   36.6720   30.7490   27.5360 H   0  0  0  0  0  0  0  0  0  0  0  0
   38.1830   28.9540   27.1380 H   0  0  0  0  0  0  0  0  0  0  0  0
   39.5970   29.1800   29.1170 S   0  0  0  0  0  0  0  0  0  0  0  0
   40.6810   29.0180   28.2270 H   0  0  0  0  0  0  0  0  0  0  0  0
  1 10  1  0  0  0  0
  2 16  1  0  0  0  0
  2  1  2  0  0  0  0
  3  2  1  0  0  0  0
  4  3  2  0  0  0  0
  4  8  1  0  0  0  0
  5  4  1  0  0  0  0
  6  5  1  0  0  0  0
  6  7  2  0  0  0  0
  7  8  1  0  0  0  0
  8  9  2  0  0  0  0
  9  1  1  0  0  0  0
  9 13  1  0  0  0  0
 11  3  1  0  0  0  0
 12  5  1  0  0  0  0
 14 19  1  0  0  0  0
 15 16  1  0  0  0  0
 15 14  2  0  0  0  0
 16 17  2  0  0  0  0
 17 18  1  0  0  0  0
 18 22  1  0  0  0  0
 19 18  2  0  0  0  0
 20 14  1  0  0  0  0
 21 15  1  0  0  0  0
 23  6  1  0  0  0  0
 24 25  1  0  0  0  0
 25 31  1  1  0  0  0
 25 23  1  0  0  0  0
 26 25  1  0  0  0  0
 26 33  1  0  0  0  0
 27 26  1  0  0  0  0
 28 29  1  0  0  0  0
 28 27  1  0  0  0  0
 29 36  1  6  0  0  0
 29 24  1  0  0  0  0
 29 37  1  0  0  0  0
 30 24  1  0  0  0  0
 32 26  1  0  0  0  0
 34 28  1  0  0  0  0
 35 28  1  0  0  0  0
 38 37  1  0  0  0  0
M  END
>  <minimizedAffinity>
-5.48667574

$$$$

 OpenBabel03272510283D

 38 41  0  0  1  0  0  0  0  0999 V2000
   37.9690   24.4860   33.8200 C   0  0  0  0  0  0  0  0  0  0  0  0
   38.0030   25.0720   35.0800 C   0  0  0  0  0  0  0  0  0  0  0  0
   37.5210   26.3750   35.2900 C   0  0  0  0  0  0  0  0  0  0  0  0
   37.0190   27.0220   34.1710 C   0  0  0  0  0  0  0  0  0  0  0  0
   36.4910   28.2900   34.1130 N   0  0  0  0  0  0  0  0  0  0  0  0
   36.1340   28.4900   32.8350 C   0  0  0  0  0  0  0  0  0  0  0  0
   36.4170   27.4190   32.1190 N   0  0  0  0  0  0  0  0  0  0  0  0
   36.9690   26.4820   32.9080 C   0  0  0  0  0  0  0  0  0  0  0  0
   37.4570   25.1800   32.7380 C   0  0  0  0  0  0  0  0  0  0  0  0
   38.3410   23.4790   33.6570 H   0  0  0  0  0  0  0  0  0  0  0  0
   37.5430   26.8410   36.2670 H   0  0  0  0  0  0  0  0  0  0  0  0
   36.3900   28.9610   34.9130 H   0  0  0  0  0  0  0  0  0  0  0  0
   37.4190   24.7530   31.7490 H   0  0  0  0  0  0  0  0  0  0  0  0
   38.6660   23.4260   38.3950 C   0  0  0  0  0  0  0  0  0  0  0  0
   38.0080   24.2000   37.4440 C   0  0  0  0  0  0  0  0  0  0  0  0
   38.5460   24.3140   36.1910 C   0  0  0  0  0  0  0  0  0  0  0  0
   39.7280   23.6410   35.9510 N   0  0  0  0  0  0  0  0  0  0  0  0
   40.3600   22.8950   36.8750 C   0  0  0  0  0  0  0  0  0  0  0  0
   39.8360   22.7910   38.0760 N   0  0  0  0  0  0  0  0  0  0  0  0
   38.2360   23.3390   39.3850 H   0  0  0  0  0  0  0  0  0  0  0  0
   37.0900   24.7250   37.6230 H   0  0  0  0  0  0  0  0  0  0  0  0
   41.2770   22.4260   36.5430 H   0  0  0  0  0  0  0  0  0  0  0  0
   35.5530   29.6830   32.4010 O   0  0  0  0  0  0  0  0  0  0  0  0
   35.7530   31.8070   33.2750 N   0  0  0  0  0  0  0  0  0  0  0  0
   35.0580   30.5350   33.4230 C   0  0  1  0  0  0  0  0  0  0  0  0
   33.6220   30.7250   33.2970 C   0  0  0  0  0  0  0  0  0  0  0  0
   33.1810   31.5540   34.3440 O   0  0  0  0  0  0  0  0  0  0  0  0
   33.8280   32.7510   34.4500 C   0  0  0  0  0  0  0  0  0  0  0  0
   35.3330   32.5910   34.4100 C   0  0  1  0  0  0  0  0  0  0  0  0
   35.5290   32.3720   32.4700 H   0  0  0  0  0  0  0  0  0  0  0  0
   35.3140   30.1690   34.4370 H   0  0  0  0  0  0  0  0  0  0  0  0
   33.1260   31.1190   32.4510 H   0  0  0  0  0  0  0  0  0  0  0  0
   33.1250   29.7350   33.5290 H   0  0  0  0  0  0  0  0  0  0  0  0
   33.5830   33.1910   35.4170 H   0  0  0  0  0  0  0  0  0  0  0  0
   33.5390   33.4130   33.6240 H   0  0  0  0  0  0  0  0  0  0  0  0
   35.7720   33.6200   34.4170 H   0  0  0  0  0  0  0  0  0  0  0  0
   35.8440   31.6900   35.9130 S   0  0  0  0  0  0  0  0  0  0  0  0
   36.4560   32.5650   36.8360 H   0  0  0  0  0  0  0  0  0  0  0  0
  1  2  1  0  0  0  0
  2  3  2  0  0  0  0
  2 16  1  0  0  0  0
  3 11  1  0  0  0  0
  4  3  1  0  0  0  0
  5  4  1  0  0  0  0
  5 12  1  0  0  0  0
  6  5  1  0  0  0  0
  7  6  2  0  0  0  0
  7  8  1  0  0  0  0
  8  4  2  0  0  0  0
  9  8  1  0  0  0  0
  9  1  2  0  0  0  0
 10  1  1  0  0  0  0
 13  9  1  0  0  0  0
 14 20  1  0  0  0  0
 15 21  1  0  0  0  0
 15 14  2  0  0  0  0
 16 15  1  0  0  0  0
 17 16  2  0  0  0  0
 17 18  1  0  0  0  0
 18 19  2  0  0  0  0
 19 14  1  0  0  0  0
 22 18  1  0  0  0  0
 23  6  1  0  0  0  0
 23 25  1  0  0  0  0
 24 25  1  0  0  0  0
 24 29  1  0  0  0  0
 25 31  1  1  0  0  0
 26 25  1  0  0  0  0
 26 33  1  0  0  0  0
 26 27  1  0  0  0  0
 27 28  1  0  0  0  0
 28 34  1  0  0  0  0
 29 36  1  6  0  0  0
 29 28  1  0  0  0  0
 29 37  1  0  0  0  0
 30 24  1  0  0  0  0
 32 26  1  0  0  0  0
 35 28  1  0  0  0  0
 37 38  1  0  0  0  0
M  END
>  <minimizedAffinity>
-5.45232391

$$$$

 OpenBabel03272510283D

 38 41  0  0  1  0  0  0  0  0999 V2000
   37.6390   27.8220   35.1100 C   0  0  0  0  0  0  0  0  0  0  0  0
   37.2400   27.3060   33.8820 C   0  0  0  0  0  0  0  0  0  0  0  0
   37.3790   25.9390   33.5860 C   0  0  0  0  0  0  0  0  0  0  0  0
   37.9320   25.1560   34.5890 C   0  0  0  0  0  0  0  0  0  0  0  0
   38.1680   23.8030   34.5490 N   0  0  0  0  0  0  0  0  0  0  0  0
   38.7050   23.4810   35.7350 C   0  0  0  0  0  0  0  0  0  0  0  0
   38.8080   24.5590   36.4880 N   0  0  0  0  0  0  0  0  0  0  0  0
   38.3400   25.6240   35.8150 C   0  0  0  0  0  0  0  0  0  0  0  0
   38.1850   26.9920   36.0740 C   0  0  0  0  0  0  0  0  0  0  0  0
   37.5320   28.8770   35.3400 H   0  0  0  0  0  0  0  0  0  0  0  0
   37.0720   25.5280   32.6330 H   0  0  0  0  0  0  0  0  0  0  0  0
   37.9640   23.1570   33.7470 H   0  0  0  0  0  0  0  0  0  0  0  0
   38.5040   27.3620   37.0340 H   0  0  0  0  0  0  0  0  0  0  0  0
   35.3050   29.9620   32.0560 C   0  0  0  0  0  0  0  0  0  0  0  0
   35.7440   29.1860   33.1240 C   0  0  0  0  0  0  0  0  0  0  0  0
   36.6710   28.2060   32.8960 C   0  0  0  0  0  0  0  0  0  0  0  0
   37.1160   28.0500   31.5980 N   0  0  0  0  0  0  0  0  0  0  0  0
   36.6870   28.8040   30.5700 C   0  0  0  0  0  0  0  0  0  0  0  0
   35.7960   29.7430   30.7980 N   0  0  0  0  0  0  0  0  0  0  0  0
   34.5710   30.7370   32.2430 H   0  0  0  0  0  0  0  0  0  0  0  0
   35.4040   29.3010   34.1360 H   0  0  0  0  0  0  0  0  0  0  0  0
   37.1240   28.5670   29.6090 H   0  0  0  0  0  0  0  0  0  0  0  0
   39.0750   22.1730   36.0560 O   0  0  0  0  0  0  0  0  0  0  0  0
   41.0830   23.0100   35.2910 N   0  0  0  0  0  0  0  0  0  0  0  0
   40.4660   21.8940   35.9970 C   0  0  1  0  0  0  0  0  0  0  0  0
   41.0310   21.7660   37.3320 C   0  0  0  0  0  0  0  0  0  0  0  0
   42.4000   21.4670   37.2170 O   0  0  0  0  0  0  0  0  0  0  0  0
   43.1240   22.3410   36.4580 C   0  0  0  0  0  0  0  0  0  0  0  0
   42.4630   22.6230   35.1270 C   0  0  1  0  0  0  0  0  0  0  0  0
   41.1150   23.9020   35.7610 H   0  0  0  0  0  0  0  0  0  0  0  0
   40.6900   20.9940   35.3930 H   0  0  0  0  0  0  0  0  0  0  0  0
   41.0060   22.5090   38.0830 H   0  0  0  0  0  0  0  0  0  0  0  0
   40.6020   20.8260   37.7950 H   0  0  0  0  0  0  0  0  0  0  0  0
   44.0910   21.8880   36.2400 H   0  0  0  0  0  0  0  0  0  0  0  0
   43.2390   23.2960   36.9860 H   0  0  0  0  0  0  0  0  0  0  0  0
   43.0770   23.4050   34.6150 H   0  0  0  0  0  0  0  0  0  0  0  0
   42.4840   21.0820   34.1490 S   0  0  0  0  0  0  0  0  0  0  0  0
   43.4520   21.1540   33.1240 H   0  0  0  0  0  0  0  0  0  0  0  0
  1 10  1  0  0  0  0
  1  9  1  0  0  0  0
  2  1  2  0  0  0  0
  3  2  1  0  0  0  0
  3  4  2  0  0  0  0
  4  8  1  0  0  0  0
  5  4  1  0  0  0  0
  5  6  1  0  0  0  0
  6 23  1  0  0  0  0
  6  7  2  0  0  0  0
  8  9  2  0  0  0  0
  8  7  1  0  0  0  0
  9 13  1  0  0  0  0
 11  3  1  0  0  0  0
 12  5  1  0  0  0  0
 14 20  1  0  0  0  0
 14 15  1  0  0  0  0
 15 21  1  0  0  0  0
 16 15  2  0  0  0  0
 16  2  1  0  0  0  0
 17 16  1  0  0  0  0
 18 19  1  0  0  0  0
 18 17  2  0  0  0  0
 19 14  2  0  0  0  0
 22 18  1  0  0  0  0
 24 30  1  0  0  0  0
 24 25  1  0  0  0  0
 25 31  1  6  0  0  0
 25 23  1  0  0  0  0
 25 26  1  0  0  0  0
 26 33  1  0  0  0  0
 26 32  1  0  0  0  0
 27 26  1  0  0  0  0
 28 35  1  0  0  0  0
 28 27  1  0  0  0  0
 29 36  1  6  0  0  0
 29 24  1  0  0  0  0
 29 28  1  0  0  0  0
 34 28  1  0  0  0  0
 37 29  1  0  0  0  0
 38 37  1  0  0  0  0
M  END
>  <minimizedAffinity>
-5.35819006

$$$$

 OpenBabel03272510283D

 38 41  0  0  1  0  0  0  0  0999 V2000
   37.5820   23.6120   32.4820 C   0  0  0  0  0  0  0  0  0  0  0  0
   36.4800   23.2570   31.7100 C   0  0  0  0  0  0  0  0  0  0  0  0
   35.7530   24.2210   30.9930 C   0  0  0  0  0  0  0  0  0  0  0  0
   36.2040   25.5280   31.1060 C   0  0  0  0  0  0  0  0  0  0  0  0
   35.6720   26.6440   30.5060 N   0  0  0  0  0  0  0  0  0  0  0  0
   36.4310   27.6780   30.8980 C   0  0  0  0  0  0  0  0  0  0  0  0
   37.3880   27.2530   31.6990 N   0  0  0  0  0  0  0  0  0  0  0  0
   37.2850   25.9230   31.8570 C   0  0  0  0  0  0  0  0  0  0  0  0
   37.9860   24.9330   32.5590 C   0  0  0  0  0  0  0  0  0  0  0  0
   38.1450   22.8680   33.0360 H   0  0  0  0  0  0  0  0  0  0  0  0
   34.8940   23.9560   30.3900 H   0  0  0  0  0  0  0  0  0  0  0  0
   34.8380   26.6720   29.8690 H   0  0  0  0  0  0  0  0  0  0  0  0
   38.8350   25.2390   33.1480 H   0  0  0  0  0  0  0  0  0  0  0  0
   34.8040   19.9200   32.1470 C   0  0  0  0  0  0  0  0  0  0  0  0
   35.0400   21.2810   32.3180 C   0  0  0  0  0  0  0  0  0  0  0  0
   36.0860   21.8620   31.6530 C   0  0  0  0  0  0  0  0  0  0  0  0
   36.8500   21.0440   30.8440 N   0  0  0  0  0  0  0  0  0  0  0  0
   36.6160   19.7290   30.6840 C   0  0  0  0  0  0  0  0  0  0  0  0
   35.6090   19.1790   31.3260 N   0  0  0  0  0  0  0  0  0  0  0  0
   33.9750   19.4650   32.6750 H   0  0  0  0  0  0  0  0  0  0  0  0
   34.4520   21.9230   32.9440 H   0  0  0  0  0  0  0  0  0  0  0  0
   37.2970   19.2150   30.0190 H   0  0  0  0  0  0  0  0  0  0  0  0
   36.1840   28.9860   30.4760 O   0  0  0  0  0  0  0  0  0  0  0  0
   35.2200   28.9860   32.5710 N   0  0  0  0  0  0  0  0  0  0  0  0
   35.5010   29.8140   31.4050 C   0  0  1  0  0  0  0  0  0  0  0  0
   36.3140   30.9600   31.7820 C   0  0  0  0  0  0  0  0  0  0  0  0
   35.5840   31.7570   32.6820 O   0  0  0  0  0  0  0  0  0  0  0  0
   35.1100   31.1060   33.7830 C   0  0  0  0  0  0  0  0  0  0  0  0
   34.4050   29.8160   33.4240 C   0  0  1  0  0  0  0  0  0  0  0  0
   36.0000   28.7060   33.1460 H   0  0  0  0  0  0  0  0  0  0  0  0
   34.5140   30.1460   31.0270 H   0  0  0  0  0  0  0  0  0  0  0  0
   37.2740   30.9130   32.2230 H   0  0  0  0  0  0  0  0  0  0  0  0
   36.4100   31.6250   30.8710 H   0  0  0  0  0  0  0  0  0  0  0  0
   34.3720   31.7440   34.2700 H   0  0  0  0  0  0  0  0  0  0  0  0
   35.9370   30.8590   34.4630 H   0  0  0  0  0  0  0  0  0  0  0  0
   34.1290   29.3150   34.3850 H   0  0  0  0  0  0  0  0  0  0  0  0
   32.8950   30.2400   32.4920 S   0  0  0  0  0  0  0  0  0  0  0  0
   31.7470   30.0670   33.2940 H   0  0  0  0  0  0  0  0  0  0  0  0
  1  9  1  0  0  0  0
  1 10  1  0  0  0  0
  2  1  2  0  0  0  0
  3  4  2  0  0  0  0
  3  2  1  0  0  0  0
  4  8  1  0  0  0  0
  5  6  1  0  0  0  0
  5  4  1  0  0  0  0
  6  7  2  0  0  0  0
  7  8  1  0  0  0  0
  8  9  2  0  0  0  0
  9 13  1  0  0  0  0
 11  3  1  0  0  0  0
 12  5  1  0  0  0  0
 14 15  1  0  0  0  0
 14 20  1  0  0  0  0
 15 21  1  0  0  0  0
 16  2  1  0  0  0  0
 16 15  2  0  0  0  0
 17 16  1  0  0  0  0
 18 17  2  0  0  0  0
 18 19  1  0  0  0  0
 19 14  2  0  0  0  0
 22 18  1  0  0  0  0
 23  6  1  0  0  0  0
 23 25  1  0  0  0  0
 24 30  1  0  0  0  0
 24 29  1  0  0  0  0
 25 31  1  6  0  0  0
 25 26  1  0  0  0  0
 25 24  1  0  0  0  0
 26 32  1  0  0  0  0
 26 27  1  0  0  0  0
 27 28  1  0  0  0  0
 28 34  1  0  0  0  0
 28 35  1  0  0  0  0
 29 28  1  0  0  0  0
 29 36  1  1  0  0  0
 33 26  1  0  0  0  0
 37 38  1  0  0  0  0
 37 29  1  0  0  0  0
M  END
>  <minimizedAffinity>
-5.35281181

$$$$

 OpenBabel03272510283D

 38 41  0  0  1  0  0  0  0  0999 V2000
   37.7600   25.0220   33.6980 C   0  0  0  0  0  0  0  0  0  0  0  0
   37.9220   25.4500   35.0110 C   0  0  0  0  0  0  0  0  0  0  0  0
   37.4970   26.7250   35.4190 C   0  0  0  0  0  0  0  0  0  0  0  0
   36.9140   27.5120   34.4370 C   0  0  0  0  0  0  0  0  0  0  0  0
   36.4170   28.7860   34.5810 N   0  0  0  0  0  0  0  0  0  0  0  0
   35.9520   29.1450   33.3740 C   0  0  0  0  0  0  0  0  0  0  0  0
   36.1400   28.1650   32.5120 N   0  0  0  0  0  0  0  0  0  0  0  0
   36.7360   27.1310   33.1290 C   0  0  0  0  0  0  0  0  0  0  0  0
   37.1720   25.8520   32.7590 C   0  0  0  0  0  0  0  0  0  0  0  0
   38.0880   24.0380   33.3820 H   0  0  0  0  0  0  0  0  0  0  0  0
   37.6190   27.0690   36.4390 H   0  0  0  0  0  0  0  0  0  0  0  0
   36.4070   29.3560   35.4620 H   0  0  0  0  0  0  0  0  0  0  0  0
   37.0330   25.5490   31.7340 H   0  0  0  0  0  0  0  0  0  0  0  0
   40.1160   22.9720   36.7950 C   0  0  0  0  0  0  0  0  0  0  0  0
   39.6530   23.7800   35.7610 C   0  0  0  0  0  0  0  0  0  0  0  0
   38.5430   24.5540   35.9680 C   0  0  0  0  0  0  0  0  0  0  0  0
   37.9470   24.4780   37.2110 N   0  0  0  0  0  0  0  0  0  0  0  0
   38.3990   23.6950   38.2060 C   0  0  0  0  0  0  0  0  0  0  0  0
   39.4660   22.9550   38.0000 N   0  0  0  0  0  0  0  0  0  0  0  0
   40.9950   22.3620   36.6270 H   0  0  0  0  0  0  0  0  0  0  0  0
   40.1110   23.8450   34.7930 H   0  0  0  0  0  0  0  0  0  0  0  0
   37.8290   23.7380   39.1250 H   0  0  0  0  0  0  0  0  0  0  0  0
   35.3660   30.3910   33.1420 O   0  0  0  0  0  0  0  0  0  0  0  0
   33.5940   29.2610   34.0910 N   0  0  0  0  0  0  0  0  0  0  0  0
   34.0800   30.5820   33.7100 C   0  0  1  0  0  0  0  0  0  0  0  0
   34.1450   31.4530   34.8740 C   0  0  0  0  0  0  0  0  0  0  0  0
   32.8450   31.6280   35.3820 O   0  0  0  0  0  0  0  0  0  0  0  0
   32.1720   30.4750   35.6670 C   0  0  0  0  0  0  0  0  0  0  0  0
   32.2370   29.4800   34.5280 C   0  0  1  0  0  0  0  0  0  0  0  0
   34.0470   28.8020   34.8670 H   0  0  0  0  0  0  0  0  0  0  0  0
   33.3480   30.9700   32.9750 H   0  0  0  0  0  0  0  0  0  0  0  0
   34.7230   31.2770   35.7410 H   0  0  0  0  0  0  0  0  0  0  0  0
   34.4180   32.4890   34.5100 H   0  0  0  0  0  0  0  0  0  0  0  0
   31.1200   30.7180   35.8140 H   0  0  0  0  0  0  0  0  0  0  0  0
   32.6010   29.9960   36.5570 H   0  0  0  0  0  0  0  0  0  0  0  0
   31.7360   28.5440   34.8820 H   0  0  0  0  0  0  0  0  0  0  0  0
   31.3160   30.1790   33.1160 S   0  0  0  0  0  0  0  0  0  0  0  0
   30.0730   29.5290   32.9590 H   0  0  0  0  0  0  0  0  0  0  0  0
  1  2  1  0  0  0  0
  2  3  2  0  0  0  0
  2 16  1  0  0  0  0
  3 11  1  0  0  0  0
  4  5  1  0  0  0  0
  4  3  1  0  0  0  0
  5 12  1  0  0  0  0
  6  5  1  0  0  0  0
  7  8  1  0  0  0  0
  7  6  2  0  0  0  0
  8  4  2  0  0  0  0
  9  8  1  0  0  0  0
  9  1  2  0  0  0  0
 10  1  1  0  0  0  0
 13  9  1  0  0  0  0
 14 19  1  0  0  0  0
 15 16  1  0  0  0  0
 15 14  2  0  0  0  0
 16 17  2  0  0  0  0
 17 18  1  0  0  0  0
 18 22  1  0  0  0  0
 19 18  2  0  0  0  0
 20 14  1  0  0  0  0
 21 15  1  0  0  0  0
 23  6  1  0  0  0  0
 23 25  1  0  0  0  0
 24 29  1  0  0  0  0
 24 30  1  0  0  0  0
 25 31  1  6  0  0  0
 25 24  1  0  0  0  0
 25 26  1  0  0  0  0
 26 27  1  0  0  0  0
 26 32  1  0  0  0  0
 27 28  1  0  0  0  0
 28 34  1  0  0  0  0
 28 35  1  0  0  0  0
 29 36  1  1  0  0  0
 29 28  1  0  0  0  0
 33 26  1  0  0  0  0
 37 29  1  0  0  0  0
 38 37  1  0  0  0  0
M  END
>  <minimizedAffinity>
-5.26364183

$$$$

 OpenBabel03272510283D

 38 41  0  0  1  0  0  0  0  0999 V2000
   37.2820   26.8890   35.2500 C   0  0  0  0  0  0  0  0  0  0  0  0
   37.9880   25.8180   34.7140 C   0  0  0  0  0  0  0  0  0  0  0  0
   38.2020   25.7050   33.3310 C   0  0  0  0  0  0  0  0  0  0  0  0
   37.6690   26.7200   32.5510 C   0  0  0  0  0  0  0  0  0  0  0  0
   37.7420   26.8420   31.1840 N   0  0  0  0  0  0  0  0  0  0  0  0
   37.0910   27.9730   30.8730 C   0  0  0  0  0  0  0  0  0  0  0  0
   36.6290   28.5400   31.9700 N   0  0  0  0  0  0  0  0  0  0  0  0
   36.9640   27.7950   33.0370 C   0  0  0  0  0  0  0  0  0  0  0  0
   36.7710   27.8740   34.4220 C   0  0  0  0  0  0  0  0  0  0  0  0
   37.1160   26.9780   36.3180 H   0  0  0  0  0  0  0  0  0  0  0  0
   38.7500   24.8750   32.9040 H   0  0  0  0  0  0  0  0  0  0  0  0
   38.2160   26.1790   30.5230 H   0  0  0  0  0  0  0  0  0  0  0  0
   36.2190   28.7160   34.8070 H   0  0  0  0  0  0  0  0  0  0  0  0
   39.9300   23.0450   36.3520 C   0  0  0  0  0  0  0  0  0  0  0  0
   39.5620   23.9630   35.3730 C   0  0  0  0  0  0  0  0  0  0  0  0
   38.5100   24.8050   35.6130 C   0  0  0  0  0  0  0  0  0  0  0  0
   37.8730   24.6840   36.8320 N   0  0  0  0  0  0  0  0  0  0  0  0
   38.2340   23.7940   37.7740 C   0  0  0  0  0  0  0  0  0  0  0  0
   39.2460   22.9900   37.5350 N   0  0  0  0  0  0  0  0  0  0  0  0
   40.7640   22.3820   36.1570 H   0  0  0  0  0  0  0  0  0  0  0  0
   40.0510   24.0630   34.4230 H   0  0  0  0  0  0  0  0  0  0  0  0
   37.6430   23.8140   38.6800 H   0  0  0  0  0  0  0  0  0  0  0  0
   36.9640   28.4220   29.5560 O   0  0  0  0  0  0  0  0  0  0  0  0
   38.6490   27.6470   28.1860 N   0  0  0  0  0  0  0  0  0  0  0  0
   38.1710   28.8130   28.9200 C   0  0  1  0  0  0  0  0  0  0  0  0
   37.9470   29.9260   28.0110 C   0  0  0  0  0  0  0  0  0  0  0  0
   39.1740   30.2880   27.4270 O   0  0  0  0  0  0  0  0  0  0  0  0
   39.8440   29.2740   26.8060 C   0  0  0  0  0  0  0  0  0  0  0  0
   39.9400   28.0380   27.6750 C   0  0  1  0  0  0  0  0  0  0  0  0
   38.1240   27.3570   27.3750 H   0  0  0  0  0  0  0  0  0  0  0  0
   38.9700   29.0590   29.6460 H   0  0  0  0  0  0  0  0  0  0  0  0
   37.2790   29.9250   27.1910 H   0  0  0  0  0  0  0  0  0  0  0  0
   37.6860   30.8320   28.6380 H   0  0  0  0  0  0  0  0  0  0  0  0
   40.8650   29.6030   26.6130 H   0  0  0  0  0  0  0  0  0  0  0  0
   39.3310   28.9930   25.8780 H   0  0  0  0  0  0  0  0  0  0  0  0
   40.4250   27.2410   27.0590 H   0  0  0  0  0  0  0  0  0  0  0  0
   40.9950   28.4380   29.1090 S   0  0  0  0  0  0  0  0  0  0  0  0
   42.2670   27.8410   28.9770 H   0  0  0  0  0  0  0  0  0  0  0  0
  1 10  1  0  0  0  0
  2  1  1  0  0  0  0
  2 16  1  0  0  0  0
  3  2  2  0  0  0  0
  4  8  2  0  0  0  0
  4  3  1  0  0  0  0
  5  4  1  0  0  0  0
  6  5  1  0  0  0  0
  6  7  2  0  0  0  0
  7  8  1  0  0  0  0
  8  9  1  0  0  0  0
  9 13  1  0  0  0  0
  9  1  2  0  0  0  0
 11  3  1  0  0  0  0
 12  5  1  0  0  0  0
 14 19  1  0  0  0  0
 15 16  1  0  0  0  0
 15 14  2  0  0  0  0
 16 17  2  0  0  0  0
 17 18  1  0  0  0  0
 18 22  1  0  0  0  0
 19 18  2  0  0  0  0
 20 14  1  0  0  0  0
 21 15  1  0  0  0  0
 23  6  1  0  0  0  0
 24 25  1  0  0  0  0
 25 23  1  0  0  0  0
 25 31  1  1  0  0  0
 26 33  1  0  0  0  0
 26 25  1  0  0  0  0
 27 26  1  0  0  0  0
 28 27  1  0  0  0  0
 28 29  1  0  0  0  0
 29 36  1  6  0  0  0
 29 24  1  0  0  0  0
 29 37  1  0  0  0  0
 30 24  1  0  0  0  0
 32 26  1  0  0  0  0
 34 28  1  0  0  0  0
 35 28  1  0  0  0  0
 38 37  1  0  0  0  0
M  END
>  <minimizedAffinity>
-5.24068069

$$$$

 OpenBabel03272510283D

 38 41  0  0  1  0  0  0  0  0999 V2000
   38.8350   25.2190   33.7410 C   0  0  0  0  0  0  0  0  0  0  0  0
   38.2530   25.4630   34.9810 C   0  0  0  0  0  0  0  0  0  0  0  0
   37.3480   26.5210   35.1650 C   0  0  0  0  0  0  0  0  0  0  0  0
   37.0800   27.2910   34.0430 C   0  0  0  0  0  0  0  0  0  0  0  0
   36.2350   28.3720   33.9610 N   0  0  0  0  0  0  0  0  0  0  0  0
   36.2890   28.7940   32.6890 C   0  0  0  0  0  0  0  0  0  0  0  0
   37.1170   28.0340   31.9990 N   0  0  0  0  0  0  0  0  0  0  0  0
   37.6320   27.0870   32.8010 C   0  0  0  0  0  0  0  0  0  0  0  0
   38.5300   26.0220   32.6550 C   0  0  0  0  0  0  0  0  0  0  0  0
   39.5340   24.4020   33.5970 H   0  0  0  0  0  0  0  0  0  0  0  0
   36.8900   26.7190   36.1260 H   0  0  0  0  0  0  0  0  0  0  0  0
   35.6640   28.7780   34.7420 H   0  0  0  0  0  0  0  0  0  0  0  0
   38.9650   25.8590   31.6830 H   0  0  0  0  0  0  0  0  0  0  0  0
   39.7510   22.8840   37.2700 C   0  0  0  0  0  0  0  0  0  0  0  0
   39.5530   23.6220   36.1070 C   0  0  0  0  0  0  0  0  0  0  0  0
   38.5960   24.6000   36.0960 C   0  0  0  0  0  0  0  0  0  0  0  0
   37.8790   24.7930   37.2600 N   0  0  0  0  0  0  0  0  0  0  0  0
   38.0750   24.0760   38.3810 C   0  0  0  0  0  0  0  0  0  0  0  0
   38.9960   23.1380   38.3840 N   0  0  0  0  0  0  0  0  0  0  0  0
   40.5100   22.1110   37.2740 H   0  0  0  0  0  0  0  0  0  0  0  0
   40.1060   23.4790   35.1990 H   0  0  0  0  0  0  0  0  0  0  0  0
   37.4380   24.3380   39.2160 H   0  0  0  0  0  0  0  0  0  0  0  0
   35.5470   29.8870   32.2340 O   0  0  0  0  0  0  0  0  0  0  0  0
   35.6190   31.0940   30.2710 N   0  0  0  0  0  0  0  0  0  0  0  0
   36.2840   30.8900   31.5520 C   0  0  1  0  0  0  0  0  0  0  0  0
   36.3070   32.1310   32.3130 C   0  0  0  0  0  0  0  0  0  0  0  0
   37.0660   33.0800   31.6070 O   0  0  0  0  0  0  0  0  0  0  0  0
   36.6710   33.3000   30.3190 C   0  0  0  0  0  0  0  0  0  0  0  0
   36.4740   32.0090   29.5550 C   0  0  1  0  0  0  0  0  0  0  0  0
   34.7120   31.5350   30.2780 H   0  0  0  0  0  0  0  0  0  0  0  0
   37.3140   30.5650   31.3090 H   0  0  0  0  0  0  0  0  0  0  0  0
   35.4570   32.6790   32.6200 H   0  0  0  0  0  0  0  0  0  0  0  0
   36.9260   31.9490   33.2430 H   0  0  0  0  0  0  0  0  0  0  0  0
   37.4590   33.8530   29.8060 H   0  0  0  0  0  0  0  0  0  0  0  0
   35.7210   33.8490   30.3030 H   0  0  0  0  0  0  0  0  0  0  0  0
   36.0730   32.2830   28.5470 H   0  0  0  0  0  0  0  0  0  0  0  0
   38.1030   31.2060   29.3750 S   0  0  0  0  0  0  0  0  0  0  0  0
   38.5810   31.3380   28.0540 H   0  0  0  0  0  0  0  0  0  0  0  0
  1  2  1  0  0  0  0
  2  3  2  0  0  0  0
  2 16  1  0  0  0  0
  3 11  1  0  0  0  0
  4  3  1  0  0  0  0
  5  4  1  0  0  0  0
  5 12  1  0  0  0  0
  6  5  1  0  0  0  0
  7  6  2  0  0  0  0
  7  8  1  0  0  0  0
  8  4  2  0  0  0  0
  9  8  1  0  0  0  0
  9  1  2  0  0  0  0
 10  1  1  0  0  0  0
 13  9  1  0  0  0  0
 14 20  1  0  0  0  0
 14 19  1  0  0  0  0
 15 14  2  0  0  0  0
 16 15  1  0  0  0  0
 16 17  2  0  0  0  0
 17 18  1  0  0  0  0
 18 19  2  0  0  0  0
 18 22  1  0  0  0  0
 21 15  1  0  0  0  0
 23  6  1  0  0  0  0
 24 30  1  0  0  0  0
 24 25  1  0  0  0  0
 25 31  1  6  0  0  0
 25 23  1  0  0  0  0
 25 26  1  0  0  0  0
 26 32  1  0  0  0  0
 26 33  1  0  0  0  0
 27 26  1  0  0  0  0
 28 27  1  0  0  0  0
 29 36  1  6  0  0  0
 29 24  1  0  0  0  0
 29 28  1  0  0  0  0
 34 28  1  0  0  0  0
 35 28  1  0  0  0  0
 37 29  1  0  0  0  0
 38 37  1  0  0  0  0
M  END
>  <minimizedAffinity>
-5.20184708

$$$$

 OpenBabel03272510283D

 38 41  0  0  1  0  0  0  0  0999 V2000
   36.7460   27.7770   33.8600 C   0  0  0  0  0  0  0  0  0  0  0  0
   36.1470   28.1960   32.6770 C   0  0  0  0  0  0  0  0  0  0  0  0
   36.0220   27.3320   31.5770 C   0  0  0  0  0  0  0  0  0  0  0  0
   36.5300   26.0530   31.7520 C   0  0  0  0  0  0  0  0  0  0  0  0
   36.5280   25.0270   30.8370 N   0  0  0  0  0  0  0  0  0  0  0  0
   37.1180   23.9850   31.4410 C   0  0  0  0  0  0  0  0  0  0  0  0
   37.4760   24.3200   32.6650 N   0  0  0  0  0  0  0  0  0  0  0  0
   37.1310   25.5970   32.9010 C   0  0  0  0  0  0  0  0  0  0  0  0
   37.2370   26.4880   33.9770 C   0  0  0  0  0  0  0  0  0  0  0  0
   36.8430   28.4440   34.7110 H   0  0  0  0  0  0  0  0  0  0  0  0
   35.5580   27.6480   30.6520 H   0  0  0  0  0  0  0  0  0  0  0  0
   36.1400   25.0610   29.8620 H   0  0  0  0  0  0  0  0  0  0  0  0
   37.7070   26.1330   34.8800 H   0  0  0  0  0  0  0  0  0  0  0  0
   35.0070   31.7130   33.3610 C   0  0  0  0  0  0  0  0  0  0  0  0
   35.5100   30.4430   33.6240 C   0  0  0  0  0  0  0  0  0  0  0  0
   35.6450   29.5550   32.5920 C   0  0  0  0  0  0  0  0  0  0  0  0
   35.2660   29.9870   31.3360 N   0  0  0  0  0  0  0  0  0  0  0  0
   34.7800   31.2170   31.0890 C   0  0  0  0  0  0  0  0  0  0  0  0
   34.6540   32.0640   32.0870 N   0  0  0  0  0  0  0  0  0  0  0  0
   34.9020   32.4120   34.1830 H   0  0  0  0  0  0  0  0  0  0  0  0
   35.8060   30.0990   34.5960 H   0  0  0  0  0  0  0  0  0  0  0  0
   34.5250   31.4160   30.0570 H   0  0  0  0  0  0  0  0  0  0  0  0
   37.2910   22.7540   30.8040 O   0  0  0  0  0  0  0  0  0  0  0  0
   35.3500   22.0340   31.8200 N   0  0  0  0  0  0  0  0  0  0  0  0
   36.7030   21.6370   31.4530 C   0  0  1  0  0  0  0  0  0  0  0  0
   36.6690   20.4780   30.5730 C   0  0  0  0  0  0  0  0  0  0  0  0
   36.1020   19.3970   31.2700 O   0  0  0  0  0  0  0  0  0  0  0  0
   34.8750   19.6360   31.8160 C   0  0  0  0  0  0  0  0  0  0  0  0
   34.8410   20.9320   32.5980 C   0  0  1  0  0  0  0  0  0  0  0  0
   34.6810   22.1610   31.0770 H   0  0  0  0  0  0  0  0  0  0  0  0
   37.2120   21.3870   32.4040 H   0  0  0  0  0  0  0  0  0  0  0  0
   36.1920   20.4370   29.6310 H   0  0  0  0  0  0  0  0  0  0  0  0
   37.7380   20.1440   30.4080 H   0  0  0  0  0  0  0  0  0  0  0  0
   34.6490   18.8360   32.5210 H   0  0  0  0  0  0  0  0  0  0  0  0
   34.1150   19.7000   31.0270 H   0  0  0  0  0  0  0  0  0  0  0  0
   33.7850   21.0850   32.9340 H   0  0  0  0  0  0  0  0  0  0  0  0
   35.9290   20.7410   34.0510 S   0  0  0  0  0  0  0  0  0  0  0  0
   35.1680   20.5850   35.2290 H   0  0  0  0  0  0  0  0  0  0  0  0
  1  9  1  0  0  0  0
  1 10  1  0  0  0  0
  2  1  2  0  0  0  0
  3  4  2  0  0  0  0
  3  2  1  0  0  0  0
  4  8  1  0  0  0  0
  5  6  1  0  0  0  0
  5  4  1  0  0  0  0
  6  7  2  0  0  0  0
  7  8  1  0  0  0  0
  8  9  2  0  0  0  0
  9 13  1  0  0  0  0
 11  3  1  0  0  0  0
 12  5  1  0  0  0  0
 14 15  1  0  0  0  0
 14 20  1  0  0  0  0
 15 21  1  0  0  0  0
 16  2  1  0  0  0  0
 16 15  2  0  0  0  0
 17 16  1  0  0  0  0
 18 17  2  0  0  0  0
 18 19  1  0  0  0  0
 19 14  2  0  0  0  0
 22 18  1  0  0  0  0
 23  6  1  0  0  0  0
 23 25  1  0  0  0  0
 24 29  1  0  0  0  0
 25 24  1  0  0  0  0
 25 31  1  1  0  0  0
 26 27  1  0  0  0  0
 26 25  1  0  0  0  0
 27 28  1  0  0  0  0
 28 34  1  0  0  0  0
 28 29  1  0  0  0  0
 29 36  1  1  0  0  0
 29 37  1  0  0  0  0
 30 24  1  0  0  0  0
 32 26  1  0  0  0  0
 33 26  1  0  0  0  0
 35 28  1  0  0  0  0
 37 38  1  0  0  0  0
M  END
>  <minimizedAffinity>
-5.17224741

$$$$
