
 OpenBabel03272502433D

 21 22  0  0  0  0  0  0  0  0999 V2000
   38.8210   27.3510   35.9070 Cl  0  0  0  0  0  0  0  0  0  0  0  0
   38.3680   26.4350   34.4960 C   0  0  0  0  0  0  0  0  0  0  0  0
   38.2190   25.0610   34.5800 C   0  0  0  0  0  0  0  0  0  0  0  0
   37.8650   24.3060   33.4970 C   0  0  0  0  0  0  0  0  0  0  0  0
   37.6420   24.9100   32.2690 C   0  0  0  0  0  0  0  0  0  0  0  0
   37.7810   26.2900   32.1440 C   0  0  0  0  0  0  0  0  0  0  0  0
   37.5280   27.1670   30.6480 Cl  0  0  0  0  0  0  0  0  0  0  0  0
   38.1420   27.0100   33.2710 C   0  0  0  0  0  0  0  0  0  0  0  0
   37.7550   23.2360   33.5920 H   0  0  0  0  0  0  0  0  0  0  0  0
   37.3600   24.3530   31.3840 H   0  0  0  0  0  0  0  0  0  0  0  0
   38.2570   28.0840   33.1990 H   0  0  0  0  0  0  0  0  0  0  0  0
   37.8420   24.0110   38.0810 C   0  0  0  0  0  0  0  0  0  0  0  0
   38.9230   23.1480   38.2620 C   0  0  0  0  0  0  0  0  0  0  0  0
   39.7770   22.9390   37.1650 C   0  0  0  0  0  0  0  0  0  0  0  0
   39.5050   23.5800   35.9990 N   0  0  0  0  0  0  0  0  0  0  0  0
   38.4470   24.4100   35.8570 C   0  0  0  0  0  0  0  0  0  0  0  0
   37.6260   24.6120   36.9110 N   0  0  0  0  0  0  0  0  0  0  0  0
   37.1990   24.1530   38.9500 H   0  0  0  0  0  0  0  0  0  0  0  0
   39.1770   22.6260   39.1520 H   0  0  0  0  0  0  0  0  0  0  0  0
   41.2190   21.8600   37.2200 S   0  0  0  0  0  0  0  0  0  0  0  0
   41.8720   21.8460   35.9770 H   0  0  0  0  0  0  0  0  0  0  0  0
  2  3  1  0  0  0  0
  2  1  1  0  0  0  0
  3 16  1  0  0  0  0
  4  9  1  0  0  0  0
  4  3  2  0  0  0  0
  5  4  1  0  0  0  0
  6  5  2  0  0  0  0
  6  8  1  0  0  0  0
  7  6  1  0  0  0  0
  8  2  2  0  0  0  0
 10  5  1  0  0  0  0
 11  8  1  0  0  0  0
 12 13  1  0  0  0  0
 12 18  1  0  0  0  0
 13 19  1  0  0  0  0
 14 20  1  0  0  0  0
 14 13  2  0  0  0  0
 15 14  1  0  0  0  0
 16 15  2  0  0  0  0
 16 17  1  0  0  0  0
 17 12  2  0  0  0  0
 21 20  1  0  0  0  0
M  END
>  <minimizedAffinity>
-4.65837717

$$$$

 OpenBabel03272502433D

 21 22  0  0  0  0  0  0  0  0999 V2000
   37.4230   23.7480   37.2840 Cl  0  0  0  0  0  0  0  0  0  0  0  0
   39.0570   23.5220   36.7240 C   0  0  0  0  0  0  0  0  0  0  0  0
   39.5800   24.3660   35.7590 C   0  0  0  0  0  0  0  0  0  0  0  0
   40.8580   24.2230   35.2920 C   0  0  0  0  0  0  0  0  0  0  0  0
   41.6700   23.2140   35.7840 C   0  0  0  0  0  0  0  0  0  0  0  0
   41.1790   22.3450   36.7550 C   0  0  0  0  0  0  0  0  0  0  0  0
   42.1090   21.0320   37.4520 Cl  0  0  0  0  0  0  0  0  0  0  0  0
   39.8790   22.5310   37.1940 C   0  0  0  0  0  0  0  0  0  0  0  0
   41.2400   24.8960   34.5400 H   0  0  0  0  0  0  0  0  0  0  0  0
   42.6880   23.0620   35.4450 H   0  0  0  0  0  0  0  0  0  0  0  0
   39.4740   21.8690   37.9490 H   0  0  0  0  0  0  0  0  0  0  0  0
   37.8390   27.5810   35.3890 C   0  0  0  0  0  0  0  0  0  0  0  0
   37.1480   27.4200   34.1880 C   0  0  0  0  0  0  0  0  0  0  0  0
   37.2920   26.1940   33.5150 C   0  0  0  0  0  0  0  0  0  0  0  0
   38.0890   25.2410   34.0650 N   0  0  0  0  0  0  0  0  0  0  0  0
   38.7460   25.4300   35.2320 C   0  0  0  0  0  0  0  0  0  0  0  0
   38.6080   26.6070   35.8790 N   0  0  0  0  0  0  0  0  0  0  0  0
   37.7070   28.5420   35.8870 H   0  0  0  0  0  0  0  0  0  0  0  0
   36.5140   28.1330   33.7200 H   0  0  0  0  0  0  0  0  0  0  0  0
   36.4740   25.8150   31.9550 S   0  0  0  0  0  0  0  0  0  0  0  0
   36.8100   24.5220   31.5240 H   0  0  0  0  0  0  0  0  0  0  0  0
  2  8  1  0  0  0  0
  2  1  1  0  0  0  0
  3  2  2  0  0  0  0
  4  3  1  0  0  0  0
  4  5  2  0  0  0  0
  5  6  1  0  0  0  0
  6  8  2  0  0  0  0
  6  7  1  0  0  0  0
  8 11  1  0  0  0  0
  9  4  1  0  0  0  0
 10  5  1  0  0  0  0
 12 17  1  0  0  0  0
 12 18  1  0  0  0  0
 13 12  2  0  0  0  0
 14 15  2  0  0  0  0
 14 13  1  0  0  0  0
 15 16  1  0  0  0  0
 16  3  1  0  0  0  0
 16 17  2  0  0  0  0
 19 13  1  0  0  0  0
 20 14  1  0  0  0  0
 21 20  1  0  0  0  0
M  END
>  <minimizedAffinity>
-4.49758244

$$$$

 OpenBabel03272502433D

 21 22  0  0  0  0  0  0  0  0999 V2000
   37.9040   23.6240   33.5640 Cl  0  0  0  0  0  0  0  0  0  0  0  0
   37.8420   25.2230   34.2530 C   0  0  0  0  0  0  0  0  0  0  0  0
   38.5170   25.4960   35.4300 C   0  0  0  0  0  0  0  0  0  0  0  0
   38.4940   26.7370   36.0040 C   0  0  0  0  0  0  0  0  0  0  0  0
   37.7820   27.7660   35.4080 C   0  0  0  0  0  0  0  0  0  0  0  0
   37.0910   27.5310   34.2230 C   0  0  0  0  0  0  0  0  0  0  0  0
   36.1570   28.7500   33.3770 Cl  0  0  0  0  0  0  0  0  0  0  0  0
   37.1450   26.2570   33.6820 C   0  0  0  0  0  0  0  0  0  0  0  0
   39.0300   26.9210   36.9230 H   0  0  0  0  0  0  0  0  0  0  0  0
   37.7350   28.7650   35.8250 H   0  0  0  0  0  0  0  0  0  0  0  0
   36.6160   26.0490   32.7610 H   0  0  0  0  0  0  0  0  0  0  0  0
   39.5000   22.8240   37.7530 C   0  0  0  0  0  0  0  0  0  0  0  0
   40.7340   22.4140   37.2470 C   0  0  0  0  0  0  0  0  0  0  0  0
   41.2160   23.0710   36.1020 C   0  0  0  0  0  0  0  0  0  0  0  0
   40.4610   24.0590   35.5530 N   0  0  0  0  0  0  0  0  0  0  0  0
   39.2680   24.4310   36.0690 C   0  0  0  0  0  0  0  0  0  0  0  0
   38.8040   23.8010   37.1700 N   0  0  0  0  0  0  0  0  0  0  0  0
   39.1530   22.2960   38.6420 H   0  0  0  0  0  0  0  0  0  0  0  0
   41.3590   21.6490   37.6400 H   0  0  0  0  0  0  0  0  0  0  0  0
   42.7870   22.6720   35.3150 S   0  0  0  0  0  0  0  0  0  0  0  0
   42.9970   23.4870   34.1920 H   0  0  0  0  0  0  0  0  0  0  0  0
  1  2  1  0  0  0  0
  2  3  1  0  0  0  0
  3  4  2  0  0  0  0
  3 16  1  0  0  0  0
  4  9  1  0  0  0  0
  5 10  1  0  0  0  0
  5  4  1  0  0  0  0
  6  5  2  0  0  0  0
  7  6  1  0  0  0  0
  8  6  1  0  0  0  0
  8  2  2  0  0  0  0
 11  8  1  0  0  0  0
 12 18  1  0  0  0  0
 13 19  1  0  0  0  0
 13 12  1  0  0  0  0
 14 13  2  0  0  0  0
 15 16  2  0  0  0  0
 15 14  1  0  0  0  0
 16 17  1  0  0  0  0
 17 12  2  0  0  0  0
 20 14  1  0  0  0  0
 21 20  1  0  0  0  0
M  END
>  <minimizedAffinity>
-4.44451427

$$$$

 OpenBabel03272502433D

 21 22  0  0  0  0  0  0  0  0999 V2000
   32.8850   29.3540   34.0880 Cl  0  0  0  0  0  0  0  0  0  0  0  0
   33.8400   30.4790   35.0140 C   0  0  0  0  0  0  0  0  0  0  0  0
   35.2210   30.4600   34.9140 C   0  0  0  0  0  0  0  0  0  0  0  0
   36.0080   31.3260   35.6230 C   0  0  0  0  0  0  0  0  0  0  0  0
   35.4290   32.2580   36.4700 C   0  0  0  0  0  0  0  0  0  0  0  0
   34.0440   32.3080   36.5970 C   0  0  0  0  0  0  0  0  0  0  0  0
   33.1970   33.4380   37.6360 Cl  0  0  0  0  0  0  0  0  0  0  0  0
   33.2920   31.4090   35.8590 C   0  0  0  0  0  0  0  0  0  0  0  0
   37.0820   31.2890   35.5250 H   0  0  0  0  0  0  0  0  0  0  0  0
   36.0110   32.9630   37.0510 H   0  0  0  0  0  0  0  0  0  0  0  0
   32.2120   31.4280   35.9400 H   0  0  0  0  0  0  0  0  0  0  0  0
   36.8360   27.4050   33.6660 C   0  0  0  0  0  0  0  0  0  0  0  0
   37.0280   27.6880   32.3140 C   0  0  0  0  0  0  0  0  0  0  0  0
   36.5960   28.9410   31.8450 C   0  0  0  0  0  0  0  0  0  0  0  0
   36.0180   29.7990   32.7250 N   0  0  0  0  0  0  0  0  0  0  0  0
   35.8460   29.4930   34.0310 C   0  0  0  0  0  0  0  0  0  0  0  0
   36.2620   28.2890   34.4820 N   0  0  0  0  0  0  0  0  0  0  0  0
   37.1820   26.4260   33.9990 H   0  0  0  0  0  0  0  0  0  0  0  0
   37.4740   27.0520   31.5880 H   0  0  0  0  0  0  0  0  0  0  0  0
   36.7640   29.4730   30.1320 S   0  0  0  0  0  0  0  0  0  0  0  0
   36.2390   30.7640   29.9630 H   0  0  0  0  0  0  0  0  0  0  0  0
  1  2  1  0  0  0  0
  2  8  1  0  0  0  0
  3  2  2  0  0  0  0
  3  4  1  0  0  0  0
  4  5  2  0  0  0  0
  5  6  1  0  0  0  0
  5 10  1  0  0  0  0
  6  7  1  0  0  0  0
  8 11  1  0  0  0  0
  8  6  2  0  0  0  0
  9  4  1  0  0  0  0
 12 18  1  0  0  0  0
 12 17  1  0  0  0  0
 13 12  2  0  0  0  0
 14 13  1  0  0  0  0
 14 15  2  0  0  0  0
 15 16  1  0  0  0  0
 16 17  2  0  0  0  0
 16  3  1  0  0  0  0
 19 13  1  0  0  0  0
 20 14  1  0  0  0  0
 21 20  1  0  0  0  0
M  END
>  <minimizedAffinity>
-4.31775999

$$$$

 OpenBabel03272502433D

 21 22  0  0  0  0  0  0  0  0999 V2000
   37.6970   23.1860   33.5360 Cl  0  0  0  0  0  0  0  0  0  0  0  0
   38.4830   24.7370   33.4290 C   0  0  0  0  0  0  0  0  0  0  0  0
   39.1030   25.2770   34.5430 C   0  0  0  0  0  0  0  0  0  0  0  0
   39.7300   26.4920   34.5020 C   0  0  0  0  0  0  0  0  0  0  0  0
   39.7610   27.2200   33.3230 C   0  0  0  0  0  0  0  0  0  0  0  0
   39.1500   26.7100   32.1810 C   0  0  0  0  0  0  0  0  0  0  0  0
   39.1210   27.5360   30.6350 Cl  0  0  0  0  0  0  0  0  0  0  0  0
   38.5270   25.4760   32.2750 C   0  0  0  0  0  0  0  0  0  0  0  0
   40.2060   26.8880   35.3860 H   0  0  0  0  0  0  0  0  0  0  0  0
   40.2460   28.1850   33.2420 H   0  0  0  0  0  0  0  0  0  0  0  0
   38.0430   25.0580   31.4010 H   0  0  0  0  0  0  0  0  0  0  0  0
   38.1340   24.0700   37.8760 C   0  0  0  0  0  0  0  0  0  0  0  0
   39.0850   23.0830   38.1340 C   0  0  0  0  0  0  0  0  0  0  0  0
   40.0580   22.8440   37.1470 C   0  0  0  0  0  0  0  0  0  0  0  0
   40.0190   23.5800   36.0060 N   0  0  0  0  0  0  0  0  0  0  0  0
   39.0820   24.5300   35.7870 C   0  0  0  0  0  0  0  0  0  0  0  0
   38.1470   24.7600   36.7340 N   0  0  0  0  0  0  0  0  0  0  0  0
   37.3930   24.2310   38.6590 H   0  0  0  0  0  0  0  0  0  0  0  0
   39.1570   22.4830   39.0090 H   0  0  0  0  0  0  0  0  0  0  0  0
   41.3600   21.6100   37.3140 S   0  0  0  0  0  0  0  0  0  0  0  0
   42.1760   21.5960   36.1710 H   0  0  0  0  0  0  0  0  0  0  0  0
  2  1  1  0  0  0  0
  2  3  1  0  0  0  0
  3 16  1  0  0  0  0
  4  3  2  0  0  0  0
  4  9  1  0  0  0  0
  5  4  1  0  0  0  0
  6  8  1  0  0  0  0
  6  5  2  0  0  0  0
  7  6  1  0  0  0  0
  8  2  2  0  0  0  0
 10  5  1  0  0  0  0
 11  8  1  0  0  0  0
 12 13  1  0  0  0  0
 12 18  1  0  0  0  0
 13 19  1  0  0  0  0
 14 20  1  0  0  0  0
 14 13  2  0  0  0  0
 15 14  1  0  0  0  0
 16 15  2  0  0  0  0
 16 17  1  0  0  0  0
 17 12  2  0  0  0  0
 21 20  1  0  0  0  0
M  END
>  <minimizedAffinity>
-4.19010687

$$$$

 OpenBabel03272502433D

 21 22  0  0  0  0  0  0  0  0999 V2000
   38.3900   22.5960   33.4270 Cl  0  0  0  0  0  0  0  0  0  0  0  0
   37.3220   23.6900   32.5920 C   0  0  0  0  0  0  0  0  0  0  0  0
   36.2310   23.1960   31.8970 C   0  0  0  0  0  0  0  0  0  0  0  0
   35.3680   24.0200   31.2290 C   0  0  0  0  0  0  0  0  0  0  0  0
   35.5700   25.3920   31.2340 C   0  0  0  0  0  0  0  0  0  0  0  0
   36.6560   25.9260   31.9220 C   0  0  0  0  0  0  0  0  0  0  0  0
   37.0170   27.6400   32.0010 Cl  0  0  0  0  0  0  0  0  0  0  0  0
   37.5010   25.0500   32.5830 C   0  0  0  0  0  0  0  0  0  0  0  0
   34.5250   23.6080   30.6960 H   0  0  0  0  0  0  0  0  0  0  0  0
   34.9140   26.0830   30.7200 H   0  0  0  0  0  0  0  0  0  0  0  0
   38.3530   25.4410   33.1250 H   0  0  0  0  0  0  0  0  0  0  0  0
   35.1600   19.8190   32.8730 C   0  0  0  0  0  0  0  0  0  0  0  0
   35.5900   19.0380   31.8010 C   0  0  0  0  0  0  0  0  0  0  0  0
   36.2510   19.6910   30.7460 C   0  0  0  0  0  0  0  0  0  0  0  0
   36.4320   21.0350   30.8260 N   0  0  0  0  0  0  0  0  0  0  0  0
   36.0020   21.7640   31.8810 C   0  0  0  0  0  0  0  0  0  0  0  0
   35.3670   21.1370   32.8950 N   0  0  0  0  0  0  0  0  0  0  0  0
   34.6520   19.2850   33.6760 H   0  0  0  0  0  0  0  0  0  0  0  0
   35.4730   17.9870   31.6930 H   0  0  0  0  0  0  0  0  0  0  0  0
   36.8730   18.8400   29.2840 S   0  0  0  0  0  0  0  0  0  0  0  0
   37.4790   19.7500   28.4040 H   0  0  0  0  0  0  0  0  0  0  0  0
  2  1  1  0  0  0  0
  3  2  2  0  0  0  0
  4  5  2  0  0  0  0
  4  3  1  0  0  0  0
  5  6  1  0  0  0  0
  6  7  1  0  0  0  0
  6  8  2  0  0  0  0
  8  2  1  0  0  0  0
  8 11  1  0  0  0  0
  9  4  1  0  0  0  0
 10  5  1  0  0  0  0
 12 17  1  0  0  0  0
 12 18  1  0  0  0  0
 13 12  2  0  0  0  0
 14 15  2  0  0  0  0
 14 13  1  0  0  0  0
 15 16  1  0  0  0  0
 16  3  1  0  0  0  0
 16 17  2  0  0  0  0
 19 13  1  0  0  0  0
 20 14  1  0  0  0  0
 21 20  1  0  0  0  0
M  END
>  <minimizedAffinity>
-4.16219902

$$$$

 OpenBabel03272502433D

 21 22  0  0  0  0  0  0  0  0999 V2000
   35.0330   31.4000   32.1870 Cl  0  0  0  0  0  0  0  0  0  0  0  0
   35.7910   29.9000   32.6460 C   0  0  0  0  0  0  0  0  0  0  0  0
   35.7820   29.4970   33.9700 C   0  0  0  0  0  0  0  0  0  0  0  0
   36.3650   28.3270   34.3720 C   0  0  0  0  0  0  0  0  0  0  0  0
   36.9880   27.5050   33.4460 C   0  0  0  0  0  0  0  0  0  0  0  0
   37.0180   27.8770   32.1040 C   0  0  0  0  0  0  0  0  0  0  0  0
   37.7740   26.9240   30.8420 Cl  0  0  0  0  0  0  0  0  0  0  0  0
   36.4130   29.0710   31.7480 C   0  0  0  0  0  0  0  0  0  0  0  0
   36.3420   28.0370   35.4120 H   0  0  0  0  0  0  0  0  0  0  0  0
   37.4630   26.5700   33.7170 H   0  0  0  0  0  0  0  0  0  0  0  0
   36.4230   29.3820   30.7110 H   0  0  0  0  0  0  0  0  0  0  0  0
   35.2320   32.0090   36.5950 C   0  0  0  0  0  0  0  0  0  0  0  0
   33.8570   31.9280   36.8150 C   0  0  0  0  0  0  0  0  0  0  0  0
   33.1300   31.0000   36.0490 C   0  0  0  0  0  0  0  0  0  0  0  0
   33.7990   30.2390   35.1440 N   0  0  0  0  0  0  0  0  0  0  0  0
   35.1340   30.3430   34.9550 C   0  0  0  0  0  0  0  0  0  0  0  0
   35.8330   31.2340   35.6910 N   0  0  0  0  0  0  0  0  0  0  0  0
   35.7680   32.7370   37.2040 H   0  0  0  0  0  0  0  0  0  0  0  0
   33.2900   32.4990   37.5100 H   0  0  0  0  0  0  0  0  0  0  0  0
   31.3500   30.7630   36.2020 S   0  0  0  0  0  0  0  0  0  0  0  0
   30.9060   29.7750   35.3080 H   0  0  0  0  0  0  0  0  0  0  0  0
  1  2  1  0  0  0  0
  2  3  1  0  0  0  0
  3  4  2  0  0  0  0
  3 16  1  0  0  0  0
  4  9  1  0  0  0  0
  5 10  1  0  0  0  0
  5  4  1  0  0  0  0
  6  5  2  0  0  0  0
  7  6  1  0  0  0  0
  8  6  1  0  0  0  0
  8  2  2  0  0  0  0
 11  8  1  0  0  0  0
 12 13  1  0  0  0  0
 12 18  1  0  0  0  0
 13 19  1  0  0  0  0
 14 20  1  0  0  0  0
 14 13  2  0  0  0  0
 15 14  1  0  0  0  0
 16 15  2  0  0  0  0
 16 17  1  0  0  0  0
 17 12  2  0  0  0  0
 21 20  1  0  0  0  0
M  END
>  <minimizedAffinity>
-4.15113115

$$$$

 OpenBabel03272502433D

 21 22  0  0  0  0  0  0  0  0999 V2000
   36.8320   25.0800   32.0960 Cl  0  0  0  0  0  0  0  0  0  0  0  0
   37.4180   25.6390   33.6390 C   0  0  0  0  0  0  0  0  0  0  0  0
   37.4080   26.9910   33.9340 C   0  0  0  0  0  0  0  0  0  0  0  0
   37.8590   27.4720   35.1320 C   0  0  0  0  0  0  0  0  0  0  0  0
   38.3450   26.5990   36.0940 C   0  0  0  0  0  0  0  0  0  0  0  0
   38.3710   25.2320   35.8340 C   0  0  0  0  0  0  0  0  0  0  0  0
   38.9610   24.0320   36.9680 Cl  0  0  0  0  0  0  0  0  0  0  0  0
   37.9030   24.7960   34.6060 C   0  0  0  0  0  0  0  0  0  0  0  0
   37.8390   28.5310   35.3360 H   0  0  0  0  0  0  0  0  0  0  0  0
   38.7120   26.9330   37.0570 H   0  0  0  0  0  0  0  0  0  0  0  0
   37.9140   23.7370   34.3790 H   0  0  0  0  0  0  0  0  0  0  0  0
   37.1450   29.0850   30.9260 C   0  0  0  0  0  0  0  0  0  0  0  0
   35.8990   29.6940   31.0820 C   0  0  0  0  0  0  0  0  0  0  0  0
   35.1590   29.3720   32.2340 C   0  0  0  0  0  0  0  0  0  0  0  0
   35.6910   28.4940   33.1230 N   0  0  0  0  0  0  0  0  0  0  0  0
   36.9030   27.9210   32.9410 C   0  0  0  0  0  0  0  0  0  0  0  0
   37.6140   28.2290   31.8350 N   0  0  0  0  0  0  0  0  0  0  0  0
   37.6940   29.3540   30.0240 H   0  0  0  0  0  0  0  0  0  0  0  0
   35.4420   30.3850   30.4170 H   0  0  0  0  0  0  0  0  0  0  0  0
   33.5350   30.0630   32.5970 S   0  0  0  0  0  0  0  0  0  0  0  0
   33.0430   29.5550   33.8090 H   0  0  0  0  0  0  0  0  0  0  0  0
  1  2  1  0  0  0  0
  2  3  2  0  0  0  0
  2  8  1  0  0  0  0
  3  4  1  0  0  0  0
  4  9  1  0  0  0  0
  4  5  2  0  0  0  0
  5 10  1  0  0  0  0
  6  5  1  0  0  0  0
  6  7  1  0  0  0  0
  8  6  2  0  0  0  0
 11  8  1  0  0  0  0
 12 13  2  0  0  0  0
 12 17  1  0  0  0  0
 13 14  1  0  0  0  0
 14 20  1  0  0  0  0
 14 15  2  0  0  0  0
 16 15  1  0  0  0  0
 16  3  1  0  0  0  0
 17 16  2  0  0  0  0
 18 12  1  0  0  0  0
 19 13  1  0  0  0  0
 20 21  1  0  0  0  0
M  END
>  <minimizedAffinity>
-4.1433115

$$$$

 OpenBabel03272502433D

 21 22  0  0  0  0  0  0  0  0999 V2000
   38.5440   27.5440   35.7740 Cl  0  0  0  0  0  0  0  0  0  0  0  0
   37.7290   27.0720   34.3080 C   0  0  0  0  0  0  0  0  0  0  0  0
   37.7520   25.7500   33.8970 C   0  0  0  0  0  0  0  0  0  0  0  0
   37.1260   25.3390   32.7530 C   0  0  0  0  0  0  0  0  0  0  0  0
   36.4410   26.2520   31.9670 C   0  0  0  0  0  0  0  0  0  0  0  0
   36.3950   27.5910   32.3470 C   0  0  0  0  0  0  0  0  0  0  0  0
   35.5630   28.8380   31.4380 Cl  0  0  0  0  0  0  0  0  0  0  0  0
   37.0460   27.9570   33.5140 C   0  0  0  0  0  0  0  0  0  0  0  0
   37.1600   24.3010   32.4580 H   0  0  0  0  0  0  0  0  0  0  0  0
   35.9300   25.9740   31.0540 H   0  0  0  0  0  0  0  0  0  0  0  0
   37.0240   28.9920   33.8300 H   0  0  0  0  0  0  0  0  0  0  0  0
   40.2000   23.2360   34.9880 C   0  0  0  0  0  0  0  0  0  0  0  0
   39.7800   22.9400   36.2850 C   0  0  0  0  0  0  0  0  0  0  0  0
   38.6480   23.6160   36.7710 C   0  0  0  0  0  0  0  0  0  0  0  0
   38.0290   24.5140   35.9600 N   0  0  0  0  0  0  0  0  0  0  0  0
   38.4630   24.7790   34.7070 C   0  0  0  0  0  0  0  0  0  0  0  0
   39.5510   24.1290   34.2390 N   0  0  0  0  0  0  0  0  0  0  0  0
   41.0810   22.6960   34.6400 H   0  0  0  0  0  0  0  0  0  0  0  0
   40.2290   22.2480   36.9550 H   0  0  0  0  0  0  0  0  0  0  0  0
   37.9670   23.3570   38.4190 S   0  0  0  0  0  0  0  0  0  0  0  0
   36.8430   24.1730   38.6220 H   0  0  0  0  0  0  0  0  0  0  0  0
  2  1  1  0  0  0  0
  3  2  1  0  0  0  0
  3 16  1  0  0  0  0
  4  3  2  0  0  0  0
  5  6  2  0  0  0  0
  5  4  1  0  0  0  0
  6  8  1  0  0  0  0
  7  6  1  0  0  0  0
  8 11  1  0  0  0  0
  8  2  2  0  0  0  0
  9  4  1  0  0  0  0
 10  5  1  0  0  0  0
 12 13  1  0  0  0  0
 13 14  2  0  0  0  0
 13 19  1  0  0  0  0
 14 20  1  0  0  0  0
 15 14  1  0  0  0  0
 16 15  2  0  0  0  0
 17 16  1  0  0  0  0
 17 12  2  0  0  0  0
 18 12  1  0  0  0  0
 20 21  1  0  0  0  0
M  END
>  <minimizedAffinity>
-4.14136505

$$$$
