
 OpenBabel03272500493D

 32 35  0  0  1  0  0  0  0  0999 V2000
   36.4350   27.7190   32.6710 C   0  0  0  0  0  0  0  0  0  0  0  0
   36.4120   26.4670   32.1050 C   0  0  0  0  0  0  0  0  0  0  0  0
   37.1950   25.6170   32.8990 C   0  0  0  0  0  0  0  0  0  0  0  0
   37.6670   26.3670   33.9130 N   0  0  0  0  0  0  0  0  0  0  0  0
   37.2070   27.5770   33.7480 N   0  0  0  0  0  0  0  0  0  0  0  0
   35.9140   26.0980   31.2140 H   0  0  0  0  0  0  0  0  0  0  0  0
   37.3910   24.5690   32.7420 H   0  0  0  0  0  0  0  0  0  0  0  0
   36.2760   29.7220   31.1580 C   0  0  0  0  0  0  0  0  0  0  0  0
   35.7520   28.8750   32.1520 C   0  0  0  0  0  0  0  0  0  0  0  0
   34.4940   29.2030   32.6400 C   0  0  0  0  0  0  0  0  0  0  0  0
   33.8410   30.2910   32.1560 N   0  0  0  0  0  0  0  0  0  0  0  0
   34.4060   31.0650   31.1960 C   0  0  0  0  0  0  0  0  0  0  0  0
   35.6350   30.7840   30.6870 N   0  0  0  0  0  0  0  0  0  0  0  0
   37.2580   29.4380   30.8000 H   0  0  0  0  0  0  0  0  0  0  0  0
   34.0540   28.5900   33.3970 H   0  0  0  0  0  0  0  0  0  0  0  0
   33.7750   31.9000   30.9020 H   0  0  0  0  0  0  0  0  0  0  0  0
   38.5300   25.9140   34.9920 C   0  0  1  0  0  0  0  0  0  0  0  0
   38.3430   26.6330   36.3710 C   0  0  0  0  0  0  0  0  0  0  0  0
   37.9400   25.2200   36.1520 C   0  0  2  0  0  0  0  0  0  0  0  0
   39.5760   25.7460   34.6690 H   0  0  0  0  0  0  0  0  0  0  0  0
   39.2910   26.7450   36.9610 H   0  0  0  0  0  0  0  0  0  0  0  0
   37.6370   27.4620   36.4160 H   0  0  0  0  0  0  0  0  0  0  0  0
   36.8590   25.0320   36.1220 H   0  0  0  0  0  0  0  0  0  0  0  0
   38.7140   24.1250   36.8170 C   0  0  0  0  0  0  0  0  0  0  0  0
   38.3970   23.5940   38.0760 C   0  0  0  0  0  0  0  0  0  0  0  0
   39.3070   22.6310   38.3590 N   0  0  0  0  0  0  0  0  0  0  0  0
   40.1710   22.5570   37.3090 C   0  0  0  0  0  0  0  0  0  0  0  0
   39.8120   23.4610   36.3760 N   0  0  0  0  0  0  0  0  0  0  0  0
   37.5710   23.8980   38.7140 H   0  0  0  0  0  0  0  0  0  0  0  0
   39.3570   22.0390   39.2200 H   0  0  0  0  0  0  0  0  0  0  0  0
   41.5750   21.4770   37.1100 S   0  0  0  0  0  0  0  0  0  0  0  0
   42.4210   21.5700   38.2320 H   0  0  0  0  0  0  0  0  0  0  0  0
  1  5  2  0  0  0  0
  2  1  1  0  0  0  0
  2  3  2  0  0  0  0
  3  4  1  0  0  0  0
  4 17  1  0  0  0  0
  5  4  1  0  0  0  0
  6  2  1  0  0  0  0
  7  3  1  0  0  0  0
  8  9  1  0  0  0  0
  9 10  2  0  0  0  0
  9  1  1  0  0  0  0
 10 15  1  0  0  0  0
 11 10  1  0  0  0  0
 12 11  2  0  0  0  0
 13  8  2  0  0  0  0
 13 12  1  0  0  0  0
 14  8  1  0  0  0  0
 16 12  1  0  0  0  0
 17 20  1  6  0  0  0
 17 19  1  0  0  0  0
 17 18  1  0  0  0  0
 18 22  1  0  0  0  0
 18 21  1  0  0  0  0
 19 23  1  6  0  0  0
 19 18  1  0  0  0  0
 19 24  1  0  0  0  0
 24 25  2  0  0  0  0
 25 26  1  0  0  0  0
 25 29  1  0  0  0  0
 26 30  1  0  0  0  0
 27 26  1  0  0  0  0
 28 24  1  0  0  0  0
 28 27  2  0  0  0  0
 31 27  1  0  0  0  0
 31 32  1  0  0  0  0
M  END
>  <minimizedAffinity>
-5.50057364

$$$$

 OpenBabel03272500493D

 32 35  0  0  1  0  0  0  0  0999 V2000
   37.5780   27.3870   31.7040 C   0  0  0  0  0  0  0  0  0  0  0  0
   36.6960   26.3410   31.8280 C   0  0  0  0  0  0  0  0  0  0  0  0
   37.0290   25.6270   32.9890 C   0  0  0  0  0  0  0  0  0  0  0  0
   38.0920   26.2530   33.5310 N   0  0  0  0  0  0  0  0  0  0  0  0
   38.3810   27.2650   32.7600 N   0  0  0  0  0  0  0  0  0  0  0  0
   35.8630   26.0340   31.2040 H   0  0  0  0  0  0  0  0  0  0  0  0
   36.5430   24.7500   33.3820 H   0  0  0  0  0  0  0  0  0  0  0  0
   36.8470   29.5630   30.6750 C   0  0  0  0  0  0  0  0  0  0  0  0
   37.5690   28.3550   30.6390 C   0  0  0  0  0  0  0  0  0  0  0  0
   38.3090   28.1150   29.4890 C   0  0  0  0  0  0  0  0  0  0  0  0
   38.3080   29.0230   28.4790 N   0  0  0  0  0  0  0  0  0  0  0  0
   37.5880   30.1680   28.5810 C   0  0  0  0  0  0  0  0  0  0  0  0
   36.8480   30.4480   29.6870 N   0  0  0  0  0  0  0  0  0  0  0  0
   36.2810   29.7190   31.5850 H   0  0  0  0  0  0  0  0  0  0  0  0
   38.8740   27.2110   29.4150 H   0  0  0  0  0  0  0  0  0  0  0  0
   37.6780   30.8020   27.7020 H   0  0  0  0  0  0  0  0  0  0  0  0
   38.7890   25.8700   34.7480 C   0  0  1  0  0  0  0  0  0  0  0  0
   38.3380   26.6000   36.0580 C   0  0  0  0  0  0  0  0  0  0  0  0
   38.0550   25.1630   35.8140 C   0  0  2  0  0  0  0  0  0  0  0  0
   39.8820   25.7580   34.6050 H   0  0  0  0  0  0  0  0  0  0  0  0
   39.1680   26.7780   36.7920 H   0  0  0  0  0  0  0  0  0  0  0  0
   37.5900   27.3870   35.9640 H   0  0  0  0  0  0  0  0  0  0  0  0
   37.0070   24.9110   35.6130 H   0  0  0  0  0  0  0  0  0  0  0  0
   38.7690   24.1270   36.6250 C   0  0  0  0  0  0  0  0  0  0  0  0
   38.3640   23.7180   37.9050 C   0  0  0  0  0  0  0  0  0  0  0  0
   39.2390   22.7770   38.3340 N   0  0  0  0  0  0  0  0  0  0  0  0
   40.1670   22.5970   37.3540 C   0  0  0  0  0  0  0  0  0  0  0  0
   39.8820   23.4140   36.3200 N   0  0  0  0  0  0  0  0  0  0  0  0
   37.5040   24.0880   38.4580 H   0  0  0  0  0  0  0  0  0  0  0  0
   39.2250   22.2670   39.2480 H   0  0  0  0  0  0  0  0  0  0  0  0
   41.5630   21.4900   37.3450 S   0  0  0  0  0  0  0  0  0  0  0  0
   42.3390   21.6790   38.5070 H   0  0  0  0  0  0  0  0  0  0  0  0
  1  2  1  0  0  0  0
  1  5  2  0  0  0  0
  2  3  2  0  0  0  0
  3  7  1  0  0  0  0
  3  4  1  0  0  0  0
  4 17  1  0  0  0  0
  5  4  1  0  0  0  0
  6  2  1  0  0  0  0
  8 14  1  0  0  0  0
  9  8  1  0  0  0  0
  9  1  1  0  0  0  0
 10  9  2  0  0  0  0
 11 12  2  0  0  0  0
 11 10  1  0  0  0  0
 12 13  1  0  0  0  0
 13  8  2  0  0  0  0
 15 10  1  0  0  0  0
 16 12  1  0  0  0  0
 17 20  1  6  0  0  0
 17 19  1  0  0  0  0
 17 18  1  0  0  0  0
 18 21  1  0  0  0  0
 19 23  1  6  0  0  0
 19 18  1  0  0  0  0
 19 24  1  0  0  0  0
 22 18  1  0  0  0  0
 24 25  2  0  0  0  0
 25 26  1  0  0  0  0
 25 29  1  0  0  0  0
 26 30  1  0  0  0  0
 27 26  1  0  0  0  0
 28 24  1  0  0  0  0
 28 27  2  0  0  0  0
 31 27  1  0  0  0  0
 31 32  1  0  0  0  0
M  END
>  <minimizedAffinity>
-5.27895546

$$$$

 OpenBabel03272500493D

 32 35  0  0  1  0  0  0  0  0999 V2000
   37.1780   27.3900   34.3670 C   0  0  0  0  0  0  0  0  0  0  0  0
   37.8210   27.7550   35.5250 C   0  0  0  0  0  0  0  0  0  0  0  0
   38.5160   26.6360   36.0080 C   0  0  0  0  0  0  0  0  0  0  0  0
   38.2760   25.6340   35.1400 N   0  0  0  0  0  0  0  0  0  0  0  0
   37.4990   26.1070   34.2050 N   0  0  0  0  0  0  0  0  0  0  0  0
   37.8540   28.7030   36.0530 H   0  0  0  0  0  0  0  0  0  0  0  0
   39.1230   26.5730   36.8950 H   0  0  0  0  0  0  0  0  0  0  0  0
   36.4090   28.3250   32.1630 C   0  0  0  0  0  0  0  0  0  0  0  0
   36.3560   28.2600   33.5680 C   0  0  0  0  0  0  0  0  0  0  0  0
   35.4420   29.1000   34.1880 C   0  0  0  0  0  0  0  0  0  0  0  0
   34.6610   29.9230   33.4420 N   0  0  0  0  0  0  0  0  0  0  0  0
   34.7650   29.9350   32.0900 C   0  0  0  0  0  0  0  0  0  0  0  0
   35.6450   29.1300   31.4370 N   0  0  0  0  0  0  0  0  0  0  0  0
   37.1320   27.6570   31.7110 H   0  0  0  0  0  0  0  0  0  0  0  0
   35.3640   29.0860   35.2540 H   0  0  0  0  0  0  0  0  0  0  0  0
   34.0820   30.6400   31.6210 H   0  0  0  0  0  0  0  0  0  0  0  0
   38.7880   24.2760   35.2290 C   0  0  1  0  0  0  0  0  0  0  0  0
   39.6470   23.7830   34.0150 C   0  0  0  0  0  0  0  0  0  0  0  0
   40.2410   24.0530   35.3490 C   0  0  2  0  0  0  0  0  0  0  0  0
   38.0440   23.5560   35.6220 H   0  0  0  0  0  0  0  0  0  0  0  0
   39.5310   22.6910   33.7860 H   0  0  0  0  0  0  0  0  0  0  0  0
   39.7460   24.4550   33.1630 H   0  0  0  0  0  0  0  0  0  0  0  0
   40.8770   24.9450   35.4160 H   0  0  0  0  0  0  0  0  0  0  0  0
   40.7370   22.9090   36.1760 C   0  0  0  0  0  0  0  0  0  0  0  0
   40.2000   22.5510   37.4230 C   0  0  0  0  0  0  0  0  0  0  0  0
   40.8930   21.4810   37.8790 N   0  0  0  0  0  0  0  0  0  0  0  0
   41.8380   21.1720   36.9480 C   0  0  0  0  0  0  0  0  0  0  0  0
   41.7430   22.0360   35.9180 N   0  0  0  0  0  0  0  0  0  0  0  0
   39.3760   23.0430   37.9340 H   0  0  0  0  0  0  0  0  0  0  0  0
   40.7470   20.9680   38.7790 H   0  0  0  0  0  0  0  0  0  0  0  0
   43.0450   19.8610   36.9940 S   0  0  0  0  0  0  0  0  0  0  0  0
   43.7700   19.9130   38.2010 H   0  0  0  0  0  0  0  0  0  0  0  0
  1  2  1  0  0  0  0
  2  3  2  0  0  0  0
  2  6  1  0  0  0  0
  3  7  1  0  0  0  0
  4 17  1  0  0  0  0
  4  3  1  0  0  0  0
  5  1  2  0  0  0  0
  5  4  1  0  0  0  0
  8  9  1  0  0  0  0
  9 10  2  0  0  0  0
  9  1  1  0  0  0  0
 10 15  1  0  0  0  0
 11 10  1  0  0  0  0
 12 11  2  0  0  0  0
 13 12  1  0  0  0  0
 13  8  2  0  0  0  0
 14  8  1  0  0  0  0
 16 12  1  0  0  0  0
 17 19  1  0  0  0  0
 17 20  1  1  0  0  0
 18 17  1  0  0  0  0
 18 19  1  0  0  0  0
 19 23  1  1  0  0  0
 19 24  1  0  0  0  0
 21 18  1  0  0  0  0
 22 18  1  0  0  0  0
 24 25  2  0  0  0  0
 25 26  1  0  0  0  0
 25 29  1  0  0  0  0
 26 30  1  0  0  0  0
 27 31  1  0  0  0  0
 27 26  1  0  0  0  0
 28 24  1  0  0  0  0
 28 27  2  0  0  0  0
 31 32  1  0  0  0  0
M  END
>  <minimizedAffinity>
-5.23441029

$$$$

 OpenBabel03272500493D

 32 35  0  0  1  0  0  0  0  0999 V2000
   35.5790   28.8300   33.6910 C   0  0  0  0  0  0  0  0  0  0  0  0
   35.9630   28.4440   32.4290 C   0  0  0  0  0  0  0  0  0  0  0  0
   36.9940   27.5020   32.5580 C   0  0  0  0  0  0  0  0  0  0  0  0
   37.2050   27.3440   33.8790 N   0  0  0  0  0  0  0  0  0  0  0  0
   36.3690   28.1290   34.5020 N   0  0  0  0  0  0  0  0  0  0  0  0
   35.6020   28.7460   31.4510 H   0  0  0  0  0  0  0  0  0  0  0  0
   37.5230   26.9950   31.7680 H   0  0  0  0  0  0  0  0  0  0  0  0
   33.2870   29.8100   33.3540 C   0  0  0  0  0  0  0  0  0  0  0  0
   34.5450   29.7870   33.9840 C   0  0  0  0  0  0  0  0  0  0  0  0
   34.7690   30.7640   34.9450 C   0  0  0  0  0  0  0  0  0  0  0  0
   33.7990   31.6710   35.2300 N   0  0  0  0  0  0  0  0  0  0  0  0
   32.6080   31.6340   34.5830 C   0  0  0  0  0  0  0  0  0  0  0  0
   32.3420   30.6960   33.6350 N   0  0  0  0  0  0  0  0  0  0  0  0
   33.1450   29.0350   32.6110 H   0  0  0  0  0  0  0  0  0  0  0  0
   35.7100   30.7890   35.4520 H   0  0  0  0  0  0  0  0  0  0  0  0
   31.9260   32.4160   34.9090 H   0  0  0  0  0  0  0  0  0  0  0  0
   38.1850   26.4650   34.4970 C   0  0  1  0  0  0  0  0  0  0  0  0
   39.0870   27.1100   35.6030 C   0  0  0  0  0  0  0  0  0  0  0  0
   38.0420   26.1030   35.9190 C   0  0  2  0  0  0  0  0  0  0  0  0
   38.7020   25.8110   33.7670 H   0  0  0  0  0  0  0  0  0  0  0  0
   40.1320   26.7010   35.6380 H   0  0  0  0  0  0  0  0  0  0  0  0
   38.9730   28.1770   35.7880 H   0  0  0  0  0  0  0  0  0  0  0  0
   37.1560   26.4840   36.4430 H   0  0  0  0  0  0  0  0  0  0  0  0
   38.4520   24.7360   36.3680 C   0  0  0  0  0  0  0  0  0  0  0  0
   37.6040   23.8440   37.0430 C   0  0  0  0  0  0  0  0  0  0  0  0
   38.3080   22.7150   37.2930 N   0  0  0  0  0  0  0  0  0  0  0  0
   39.5610   22.8870   36.7900 C   0  0  0  0  0  0  0  0  0  0  0  0
   39.6480   24.1100   36.2300 N   0  0  0  0  0  0  0  0  0  0  0  0
   36.5680   24.0250   37.3190 H   0  0  0  0  0  0  0  0  0  0  0  0
   37.9710   21.8520   37.7820 H   0  0  0  0  0  0  0  0  0  0  0  0
   40.9290   21.7440   36.8170 S   0  0  0  0  0  0  0  0  0  0  0  0
   41.1570   21.2940   38.1330 H   0  0  0  0  0  0  0  0  0  0  0  0
  1  9  1  0  0  0  0
  1  5  2  0  0  0  0
  2  3  2  0  0  0  0
  2  1  1  0  0  0  0
  3  4  1  0  0  0  0
  4 17  1  0  0  0  0
  4  5  1  0  0  0  0
  6  2  1  0  0  0  0
  7  3  1  0  0  0  0
  8 13  2  0  0  0  0
  8  9  1  0  0  0  0
  9 10  2  0  0  0  0
 10 11  1  0  0  0  0
 10 15  1  0  0  0  0
 12 16  1  0  0  0  0
 12 11  2  0  0  0  0
 13 12  1  0  0  0  0
 14  8  1  0  0  0  0
 17 20  1  6  0  0  0
 17 18  1  0  0  0  0
 17 19  1  0  0  0  0
 18 21  1  0  0  0  0
 18 22  1  0  0  0  0
 18 19  1  0  0  0  0
 19 24  1  0  0  0  0
 19 23  1  1  0  0  0
 24 25  2  0  0  0  0
 25 26  1  0  0  0  0
 25 29  1  0  0  0  0
 26 30  1  0  0  0  0
 27 31  1  0  0  0  0
 27 26  1  0  0  0  0
 28 24  1  0  0  0  0
 28 27  2  0  0  0  0
 31 32  1  0  0  0  0
M  END
>  <minimizedAffinity>
-5.13788939

$$$$

 OpenBabel03272500493D

 32 35  0  0  1  0  0  0  0  0999 V2000
   39.8100   23.1390   36.6750 C   0  0  0  0  0  0  0  0  0  0  0  0
   39.0240   23.1810   37.8020 C   0  0  0  0  0  0  0  0  0  0  0  0
   38.1170   24.2410   37.6590 C   0  0  0  0  0  0  0  0  0  0  0  0
   38.3750   24.8080   36.4640 N   0  0  0  0  0  0  0  0  0  0  0  0
   39.3610   24.1440   35.9250 N   0  0  0  0  0  0  0  0  0  0  0  0
   39.0200   22.5590   38.6900 H   0  0  0  0  0  0  0  0  0  0  0  0
   37.3590   24.5550   38.3570 H   0  0  0  0  0  0  0  0  0  0  0  0
   41.3730   21.8740   35.1640 C   0  0  0  0  0  0  0  0  0  0  0  0
   40.8650   22.1900   36.4380 C   0  0  0  0  0  0  0  0  0  0  0  0
   41.4440   21.5250   37.5110 C   0  0  0  0  0  0  0  0  0  0  0  0
   42.4410   20.6290   37.2970 N   0  0  0  0  0  0  0  0  0  0  0  0
   42.8810   20.3730   36.0400 C   0  0  0  0  0  0  0  0  0  0  0  0
   42.3460   20.9980   34.9580 N   0  0  0  0  0  0  0  0  0  0  0  0
   40.9000   22.4100   34.3490 H   0  0  0  0  0  0  0  0  0  0  0  0
   41.0920   21.7310   38.4990 H   0  0  0  0  0  0  0  0  0  0  0  0
   43.6810   19.6360   36.0160 H   0  0  0  0  0  0  0  0  0  0  0  0
   37.6860   25.9490   35.8840 C   0  0  1  0  0  0  0  0  0  0  0  0
   38.4820   27.2980   35.8660 C   0  0  0  0  0  0  0  0  0  0  0  0
   38.1830   26.5360   34.6260 C   0  0  2  0  0  0  0  0  0  0  0  0
   36.6230   26.0150   36.1900 H   0  0  0  0  0  0  0  0  0  0  0  0
   37.8410   28.2090   36.0000 H   0  0  0  0  0  0  0  0  0  0  0  0
   39.4600   27.3120   36.3440 H   0  0  0  0  0  0  0  0  0  0  0  0
   39.0410   26.0430   34.1520 H   0  0  0  0  0  0  0  0  0  0  0  0
   37.2010   27.0910   33.6430 C   0  0  0  0  0  0  0  0  0  0  0  0
   36.8220   26.4390   32.4590 C   0  0  0  0  0  0  0  0  0  0  0  0
   35.9280   27.2300   31.8210 N   0  0  0  0  0  0  0  0  0  0  0  0
   35.7460   28.3470   32.5780 C   0  0  0  0  0  0  0  0  0  0  0  0
   36.5170   28.2630   33.6810 N   0  0  0  0  0  0  0  0  0  0  0  0
   37.1800   25.4720   32.1140 H   0  0  0  0  0  0  0  0  0  0  0  0
   35.4490   27.0390   30.9100 H   0  0  0  0  0  0  0  0  0  0  0  0
   34.6880   29.7430   32.2510 S   0  0  0  0  0  0  0  0  0  0  0  0
   34.9440   30.2530   30.9620 H   0  0  0  0  0  0  0  0  0  0  0  0
  1  2  1  0  0  0  0
  2  6  1  0  0  0  0
  3  2  2  0  0  0  0
  3  7  1  0  0  0  0
  4  3  1  0  0  0  0
  5  4  1  0  0  0  0
  5  1  2  0  0  0  0
  8  9  1  0  0  0  0
  9  1  1  0  0  0  0
  9 10  2  0  0  0  0
 10 15  1  0  0  0  0
 11 10  1  0  0  0  0
 12 11  2  0  0  0  0
 13  8  2  0  0  0  0
 13 12  1  0  0  0  0
 14  8  1  0  0  0  0
 16 12  1  0  0  0  0
 17 20  1  1  0  0  0
 17  4  1  0  0  0  0
 18 17  1  0  0  0  0
 18 21  1  0  0  0  0
 18 22  1  0  0  0  0
 19 23  1  6  0  0  0
 19 18  1  0  0  0  0
 19 17  1  0  0  0  0
 24 28  1  0  0  0  0
 24 19  1  0  0  0  0
 25 24  2  0  0  0  0
 26 25  1  0  0  0  0
 26 27  1  0  0  0  0
 27 28  2  0  0  0  0
 29 25  1  0  0  0  0
 30 26  1  0  0  0  0
 31 27  1  0  0  0  0
 32 31  1  0  0  0  0
M  END
>  <minimizedAffinity>
-5.10739708

$$$$

 OpenBabel03272500493D

 32 35  0  0  1  0  0  0  0  0999 V2000
   39.2220   24.0160   35.7160 C   0  0  0  0  0  0  0  0  0  0  0  0
   38.4330   24.6130   36.6700 C   0  0  0  0  0  0  0  0  0  0  0  0
   37.5800   25.5190   36.0240 C   0  0  0  0  0  0  0  0  0  0  0  0
   37.8710   25.4490   34.7100 N   0  0  0  0  0  0  0  0  0  0  0  0
   38.8250   24.5690   34.5710 N   0  0  0  0  0  0  0  0  0  0  0  0
   38.3950   24.4810   37.7460 H   0  0  0  0  0  0  0  0  0  0  0  0
   36.8350   26.1540   36.4740 H   0  0  0  0  0  0  0  0  0  0  0  0
   40.4410   22.4250   37.2340 C   0  0  0  0  0  0  0  0  0  0  0  0
   40.2300   23.0230   35.9780 C   0  0  0  0  0  0  0  0  0  0  0  0
   41.0640   22.6060   34.9500 C   0  0  0  0  0  0  0  0  0  0  0  0
   42.0180   21.6690   35.1880 N   0  0  0  0  0  0  0  0  0  0  0  0
   42.1660   21.1330   36.4250 C   0  0  0  0  0  0  0  0  0  0  0  0
   41.3740   21.5100   37.4630 N   0  0  0  0  0  0  0  0  0  0  0  0
   39.7740   22.7730   38.0130 H   0  0  0  0  0  0  0  0  0  0  0  0
   40.9430   23.0320   33.9770 H   0  0  0  0  0  0  0  0  0  0  0  0
   42.9660   20.3970   36.4730 H   0  0  0  0  0  0  0  0  0  0  0  0
   37.2400   26.2110   33.6450 C   0  0  1  0  0  0  0  0  0  0  0  0
   36.8550   27.6890   33.9930 C   0  0  0  0  0  0  0  0  0  0  0  0
   37.9530   27.3570   33.0510 C   0  0  2  0  0  0  0  0  0  0  0  0
   36.4810   25.6300   33.0860 H   0  0  0  0  0  0  0  0  0  0  0  0
   35.9200   28.0500   33.4870 H   0  0  0  0  0  0  0  0  0  0  0  0
   37.0180   28.0250   35.0170 H   0  0  0  0  0  0  0  0  0  0  0  0
   38.9700   27.5540   33.4160 H   0  0  0  0  0  0  0  0  0  0  0  0
   37.7810   27.6450   31.5920 C   0  0  0  0  0  0  0  0  0  0  0  0
   36.5500   27.5900   30.9220 C   0  0  0  0  0  0  0  0  0  0  0  0
   36.7720   27.9040   29.6240 N   0  0  0  0  0  0  0  0  0  0  0  0
   38.1040   28.1500   29.4790 C   0  0  0  0  0  0  0  0  0  0  0  0
   38.7140   27.9940   30.6710 N   0  0  0  0  0  0  0  0  0  0  0  0
   35.5880   27.3410   31.3620 H   0  0  0  0  0  0  0  0  0  0  0  0
   36.0660   27.9540   28.8530 H   0  0  0  0  0  0  0  0  0  0  0  0
   38.9880   28.6100   28.0010 S   0  0  0  0  0  0  0  0  0  0  0  0
   38.7030   27.6990   26.9640 H   0  0  0  0  0  0  0  0  0  0  0  0
  1  9  1  0  0  0  0
  1  2  1  0  0  0  0
  2  6  1  0  0  0  0
  3  7  1  0  0  0  0
  3  2  2  0  0  0  0
  4  3  1  0  0  0  0
  5  4  1  0  0  0  0
  5  1  2  0  0  0  0
  8 13  1  0  0  0  0
  8 14  1  0  0  0  0
  9  8  2  0  0  0  0
 10 11  2  0  0  0  0
 10  9  1  0  0  0  0
 11 12  1  0  0  0  0
 12 16  1  0  0  0  0
 12 13  2  0  0  0  0
 15 10  1  0  0  0  0
 17 20  1  6  0  0  0
 17 18  1  0  0  0  0
 17  4  1  0  0  0  0
 18 22  1  0  0  0  0
 19 23  1  1  0  0  0
 19 17  1  0  0  0  0
 19 18  1  0  0  0  0
 21 18  1  0  0  0  0
 24 19  1  0  0  0  0
 25 29  1  0  0  0  0
 25 24  2  0  0  0  0
 26 25  1  0  0  0  0
 27 26  1  0  0  0  0
 27 28  2  0  0  0  0
 28 24  1  0  0  0  0
 30 26  1  0  0  0  0
 31 27  1  0  0  0  0
 32 31  1  0  0  0  0
M  END
>  <minimizedAffinity>
-4.86344671

$$$$

 OpenBabel03272500493D

 32 35  0  0  1  0  0  0  0  0999 V2000
   36.1400   23.1790   31.8540 C   0  0  0  0  0  0  0  0  0  0  0  0
   35.2660   24.0350   31.2280 C   0  0  0  0  0  0  0  0  0  0  0  0
   35.8260   25.3210   31.2500 C   0  0  0  0  0  0  0  0  0  0  0  0
   37.0110   25.2110   31.8820 N   0  0  0  0  0  0  0  0  0  0  0  0
   37.1570   23.9590   32.2170 N   0  0  0  0  0  0  0  0  0  0  0  0
   34.3000   23.8550   30.7670 H   0  0  0  0  0  0  0  0  0  0  0  0
   35.4050   26.2270   30.8460 H   0  0  0  0  0  0  0  0  0  0  0  0
   35.6940   21.1600   33.2860 C   0  0  0  0  0  0  0  0  0  0  0  0
   35.9270   21.7680   32.0380 C   0  0  0  0  0  0  0  0  0  0  0  0
   35.9450   20.9230   30.9360 C   0  0  0  0  0  0  0  0  0  0  0  0
   35.7440   19.5900   31.1000 N   0  0  0  0  0  0  0  0  0  0  0  0
   35.5250   19.0710   32.3330 C   0  0  0  0  0  0  0  0  0  0  0  0
   35.4980   19.8580   33.4420 N   0  0  0  0  0  0  0  0  0  0  0  0
   35.6860   21.8460   34.1230 H   0  0  0  0  0  0  0  0  0  0  0  0
   36.1180   21.3380   29.9670 H   0  0  0  0  0  0  0  0  0  0  0  0
   35.3800   17.9930   32.3170 H   0  0  0  0  0  0  0  0  0  0  0  0
   37.9510   26.2890   32.1440 C   0  0  1  0  0  0  0  0  0  0  0  0
   37.6420   27.1840   33.3920 C   0  0  0  0  0  0  0  0  0  0  0  0
   38.7900   26.2430   33.3550 C   0  0  2  0  0  0  0  0  0  0  0  0
   38.2620   26.8260   31.2260 H   0  0  0  0  0  0  0  0  0  0  0  0
   37.9360   28.2600   33.2680 H   0  0  0  0  0  0  0  0  0  0  0  0
   36.7180   26.9880   33.9360 H   0  0  0  0  0  0  0  0  0  0  0  0
   38.6980   25.3530   33.9910 H   0  0  0  0  0  0  0  0  0  0  0  0
   40.1830   26.7880   33.2970 C   0  0  0  0  0  0  0  0  0  0  0  0
   41.0620   26.8110   34.3910 C   0  0  0  0  0  0  0  0  0  0  0  0
   42.2220   27.3730   33.9760 N   0  0  0  0  0  0  0  0  0  0  0  0
   42.0800   27.6940   32.6600 C   0  0  0  0  0  0  0  0  0  0  0  0
   40.8460   27.3390   32.2500 N   0  0  0  0  0  0  0  0  0  0  0  0
   40.8530   26.4450   35.3930 H   0  0  0  0  0  0  0  0  0  0  0  0
   43.0850   27.5410   34.5450 H   0  0  0  0  0  0  0  0  0  0  0  0
   43.2700   28.4580   31.5760 S   0  0  0  0  0  0  0  0  0  0  0  0
   43.7630   29.6440   32.1560 H   0  0  0  0  0  0  0  0  0  0  0  0
  1  9  1  0  0  0  0
  1  5  2  0  0  0  0
  2  3  2  0  0  0  0
  2  1  1  0  0  0  0
  3  4  1  0  0  0  0
  4 17  1  0  0  0  0
  4  5  1  0  0  0  0
  6  2  1  0  0  0  0
  7  3  1  0  0  0  0
  8 13  1  0  0  0  0
  8 14  1  0  0  0  0
  9  8  2  0  0  0  0
 10 11  2  0  0  0  0
 10  9  1  0  0  0  0
 11 12  1  0  0  0  0
 12 13  2  0  0  0  0
 15 10  1  0  0  0  0
 16 12  1  0  0  0  0
 17 20  1  6  0  0  0
 17 19  1  0  0  0  0
 17 18  1  0  0  0  0
 18 22  1  0  0  0  0
 19 18  1  0  0  0  0
 19 23  1  1  0  0  0
 21 18  1  0  0  0  0
 24 19  1  0  0  0  0
 24 25  2  0  0  0  0
 25 29  1  0  0  0  0
 26 25  1  0  0  0  0
 26 30  1  0  0  0  0
 27 26  1  0  0  0  0
 28 27  2  0  0  0  0
 28 24  1  0  0  0  0
 31 32  1  0  0  0  0
 31 27  1  0  0  0  0
M  END
>  <minimizedAffinity>
-4.7866087

$$$$

 OpenBabel03272500493D

 32 35  0  0  1  0  0  0  0  0999 V2000
   37.4480   28.2150   31.4080 C   0  0  0  0  0  0  0  0  0  0  0  0
   36.3220   27.7190   32.0200 C   0  0  0  0  0  0  0  0  0  0  0  0
   36.7300   26.8300   33.0250 C   0  0  0  0  0  0  0  0  0  0  0  0
   38.0770   26.8110   32.9960 N   0  0  0  0  0  0  0  0  0  0  0  0
   38.4560   27.6240   32.0480 N   0  0  0  0  0  0  0  0  0  0  0  0
   35.2700   27.9120   31.8390 H   0  0  0  0  0  0  0  0  0  0  0  0
   36.1040   26.2660   33.6960 H   0  0  0  0  0  0  0  0  0  0  0  0
   38.0090   28.9050   29.0550 C   0  0  0  0  0  0  0  0  0  0  0  0
   37.4520   29.1600   30.3220 C   0  0  0  0  0  0  0  0  0  0  0  0
   36.8760   30.4100   30.5010 C   0  0  0  0  0  0  0  0  0  0  0  0
   36.8730   31.3080   29.4810 N   0  0  0  0  0  0  0  0  0  0  0  0
   37.4290   30.9950   28.2850 C   0  0  0  0  0  0  0  0  0  0  0  0
   38.0050   29.7840   28.0620 N   0  0  0  0  0  0  0  0  0  0  0  0
   38.4500   27.9210   28.9500 H   0  0  0  0  0  0  0  0  0  0  0  0
   36.4390   30.6510   31.4460 H   0  0  0  0  0  0  0  0  0  0  0  0
   37.3560   31.8050   27.5620 H   0  0  0  0  0  0  0  0  0  0  0  0
   38.9470   26.0290   33.8590 C   0  0  1  0  0  0  0  0  0  0  0  0
   39.4870   26.7600   35.1350 C   0  0  0  0  0  0  0  0  0  0  0  0
   38.4890   25.6630   35.2130 C   0  0  2  0  0  0  0  0  0  0  0  0
   39.6840   25.4230   33.2980 H   0  0  0  0  0  0  0  0  0  0  0  0
   40.5230   26.4500   35.4370 H   0  0  0  0  0  0  0  0  0  0  0  0
   39.2360   27.8130   35.2570 H   0  0  0  0  0  0  0  0  0  0  0  0
   37.4710   25.9630   35.4920 H   0  0  0  0  0  0  0  0  0  0  0  0
   38.8950   24.3410   35.7860 C   0  0  0  0  0  0  0  0  0  0  0  0
   37.9890   23.3440   36.1770 C   0  0  0  0  0  0  0  0  0  0  0  0
   38.7050   22.2970   36.6490 N   0  0  0  0  0  0  0  0  0  0  0  0
   40.0250   22.6220   36.5580 C   0  0  0  0  0  0  0  0  0  0  0  0
   40.1390   23.8590   36.0350 N   0  0  0  0  0  0  0  0  0  0  0  0
   36.9050   23.3990   36.1150 H   0  0  0  0  0  0  0  0  0  0  0  0
   38.3360   21.3910   37.0210 H   0  0  0  0  0  0  0  0  0  0  0  0
   41.4380   21.6420   37.0250 S   0  0  0  0  0  0  0  0  0  0  0  0
   41.2980   21.1920   38.3530 H   0  0  0  0  0  0  0  0  0  0  0  0
  1  2  1  0  0  0  0
  1  5  2  0  0  0  0
  2  3  2  0  0  0  0
  3  7  1  0  0  0  0
  4  3  1  0  0  0  0
  4 17  1  0  0  0  0
  5  4  1  0  0  0  0
  6  2  1  0  0  0  0
  8  9  1  0  0  0  0
  9 10  2  0  0  0  0
  9  1  1  0  0  0  0
 10 15  1  0  0  0  0
 11 10  1  0  0  0  0
 12 11  2  0  0  0  0
 13 12  1  0  0  0  0
 13  8  2  0  0  0  0
 14  8  1  0  0  0  0
 16 12  1  0  0  0  0
 17 20  1  6  0  0  0
 17 18  1  0  0  0  0
 17 19  1  0  0  0  0
 18 19  1  0  0  0  0
 18 22  1  0  0  0  0
 18 21  1  0  0  0  0
 19 23  1  1  0  0  0
 19 24  1  0  0  0  0
 24 28  1  0  0  0  0
 24 25  2  0  0  0  0
 25 26  1  0  0  0  0
 26 30  1  0  0  0  0
 27 26  1  0  0  0  0
 27 31  1  0  0  0  0
 28 27  2  0  0  0  0
 29 25  1  0  0  0  0
 31 32  1  0  0  0  0
M  END
>  <minimizedAffinity>
-4.76986647

$$$$

 OpenBabel03272500493D

 32 35  0  0  1  0  0  0  0  0999 V2000
   38.6750   25.3460   35.2580 C   0  0  0  0  0  0  0  0  0  0  0  0
   38.0500   26.4340   35.8190 C   0  0  0  0  0  0  0  0  0  0  0  0
   37.5420   27.2270   34.7800 C   0  0  0  0  0  0  0  0  0  0  0  0
   37.8700   26.6060   33.6290 N   0  0  0  0  0  0  0  0  0  0  0  0
   38.5240   25.5230   33.9460 N   0  0  0  0  0  0  0  0  0  0  0  0
   37.9150   26.7210   36.8570 H   0  0  0  0  0  0  0  0  0  0  0  0
   36.9970   28.1520   34.8660 H   0  0  0  0  0  0  0  0  0  0  0  0
   40.5290   23.6820   35.6010 C   0  0  0  0  0  0  0  0  0  0  0  0
   39.3250   24.2940   35.9950 C   0  0  0  0  0  0  0  0  0  0  0  0
   38.7570   23.8310   37.1740 C   0  0  0  0  0  0  0  0  0  0  0  0
   39.3640   22.8410   37.8770 N   0  0  0  0  0  0  0  0  0  0  0  0
   40.5250   22.2950   37.4380 C   0  0  0  0  0  0  0  0  0  0  0  0
   41.1200   22.7150   36.2890 N   0  0  0  0  0  0  0  0  0  0  0  0
   40.9460   24.0660   34.6780 H   0  0  0  0  0  0  0  0  0  0  0  0
   37.8420   24.2660   37.5150 H   0  0  0  0  0  0  0  0  0  0  0  0
   40.8990   21.5140   38.0960 H   0  0  0  0  0  0  0  0  0  0  0  0
   37.5540   27.0600   32.2850 C   0  0  1  0  0  0  0  0  0  0  0  0
   36.1550   26.6320   31.7250 C   0  0  0  0  0  0  0  0  0  0  0  0
   36.4690   28.0390   32.0840 C   0  0  2  0  0  0  0  0  0  0  0  0
   38.4070   26.9670   31.5840 H   0  0  0  0  0  0  0  0  0  0  0  0
   36.1440   26.4410   30.6190 H   0  0  0  0  0  0  0  0  0  0  0  0
   35.5450   25.9740   32.3420 H   0  0  0  0  0  0  0  0  0  0  0  0
   35.9730   28.4230   32.9840 H   0  0  0  0  0  0  0  0  0  0  0  0
   36.6020   29.0610   30.9980 C   0  0  0  0  0  0  0  0  0  0  0  0
   35.8200   30.2220   30.9150 C   0  0  0  0  0  0  0  0  0  0  0  0
   36.2100   30.9040   29.8120 N   0  0  0  0  0  0  0  0  0  0  0  0
   37.2090   30.1950   29.2180 C   0  0  0  0  0  0  0  0  0  0  0  0
   37.4470   29.0800   29.9360 N   0  0  0  0  0  0  0  0  0  0  0  0
   35.0390   30.5240   31.6090 H   0  0  0  0  0  0  0  0  0  0  0  0
   35.8280   31.8130   29.4600 H   0  0  0  0  0  0  0  0  0  0  0  0
   38.1140   30.5930   27.7350 S   0  0  0  0  0  0  0  0  0  0  0  0
   37.2210   30.8580   26.6780 H   0  0  0  0  0  0  0  0  0  0  0  0
  1  2  1  0  0  0  0
  1  9  1  0  0  0  0
  2  6  1  0  0  0  0
  3  7  1  0  0  0  0
  3  2  2  0  0  0  0
  4  5  1  0  0  0  0
  4  3  1  0  0  0  0
  5  1  2  0  0  0  0
  8  9  2  0  0  0  0
  8 13  1  0  0  0  0
  9 10  1  0  0  0  0
 10 15  1  0  0  0  0
 10 11  2  0  0  0  0
 12 11  1  0  0  0  0
 12 16  1  0  0  0  0
 13 12  2  0  0  0  0
 14  8  1  0  0  0  0
 17 20  1  6  0  0  0
 17  4  1  0  0  0  0
 18 19  1  0  0  0  0
 18 17  1  0  0  0  0
 18 22  1  0  0  0  0
 19 17  1  0  0  0  0
 19 23  1  1  0  0  0
 21 18  1  0  0  0  0
 24 19  1  0  0  0  0
 25 24  2  0  0  0  0
 25 29  1  0  0  0  0
 26 25  1  0  0  0  0
 27 26  1  0  0  0  0
 27 28  2  0  0  0  0
 28 24  1  0  0  0  0
 30 26  1  0  0  0  0
 31 27  1  0  0  0  0
 32 31  1  0  0  0  0
M  END
>  <minimizedAffinity>
-4.69252348

$$$$
