
 OpenBabel03262522263D

 38 40  0  0  0  0  0  0  0  0999 V2000
   38.6020   32.7760   48.3610 C   0  0  0  0  0  0  0  0  0  0  0  0
   38.9510   32.1420   47.1670 C   0  0  0  0  0  0  0  0  0  0  0  0
   38.5030   30.8520   46.9870 C   0  0  0  0  0  0  0  0  0  0  0  0
   37.7570   30.2850   47.9760 N   0  0  0  0  0  0  0  0  0  0  0  0
   37.4520   30.9090   49.0770 C   0  0  0  0  0  0  0  0  0  0  0  0
   37.8690   32.2010   49.3200 N   0  0  0  0  0  0  0  0  0  0  0  0
   38.9310   33.7970   48.5530 H   0  0  0  0  0  0  0  0  0  0  0  0
   38.7360   30.3100   46.0770 H   0  0  0  0  0  0  0  0  0  0  0  0
   39.6980   32.8250   46.2690 O   0  0  0  0  0  0  0  0  0  0  0  0
   39.8930   32.2980   44.9970 C   0  0  0  0  0  0  0  0  0  0  0  0
   40.6400   31.1940   44.6470 C   0  0  0  0  0  0  0  0  0  0  0  0
   40.7130   30.8300   43.3490 C   0  0  0  0  0  0  0  0  0  0  0  0
   40.0410   31.5720   42.4140 C   0  0  0  0  0  0  0  0  0  0  0  0
   39.2890   32.6850   42.7810 C   0  0  0  0  0  0  0  0  0  0  0  0
   39.2300   33.0350   44.0960 N   0  0  0  0  0  0  0  0  0  0  0  0
   41.1370   30.6830   45.4620 H   0  0  0  0  0  0  0  0  0  0  0  0
   41.2890   29.9730   43.0530 H   0  0  0  0  0  0  0  0  0  0  0  0
   40.0470   31.3490   41.3610 H   0  0  0  0  0  0  0  0  0  0  0  0
   38.5580   33.4900   41.7260 C   0  0  0  0  0  0  0  0  0  0  0  0
   37.7440   34.0170   42.2910 H   0  0  0  0  0  0  0  0  0  0  0  0
   38.0700   32.8330   40.9930 H   0  0  0  0  0  0  0  0  0  0  0  0
   39.2370   34.2240   41.2650 H   0  0  0  0  0  0  0  0  0  0  0  0
   36.4540   29.9050   50.2010 S   0  0  0  0  0  0  0  0  0  0  0  0
   34.7250   30.3700   49.7960 C   0  0  0  0  0  0  0  0  0  0  0  0
   34.0770   30.0120   50.5950 H   0  0  0  0  0  0  0  0  0  0  0  0
   34.6170   31.4830   49.7360 H   0  0  0  0  0  0  0  0  0  0  0  0
   34.3150   27.6390   49.7040 F   0  0  0  0  0  0  0  0  0  0  0  0
   34.2350   28.3580   48.5370 C   0  0  0  0  0  0  0  0  0  0  0  0
   34.4240   29.7390   48.4690 C   0  0  0  0  0  0  0  0  0  0  0  0
   34.3340   30.4030   47.2800 C   0  0  0  0  0  0  0  0  0  0  0  0
   34.0480   29.7160   46.0920 C   0  0  0  0  0  0  0  0  0  0  0  0
   33.8570   28.3400   46.1460 C   0  0  0  0  0  0  0  0  0  0  0  0
   33.9540   27.6870   47.3680 C   0  0  0  0  0  0  0  0  0  0  0  0
   34.4890   31.4650   47.2890 H   0  0  0  0  0  0  0  0  0  0  0  0
   33.9810   30.2650   45.1620 H   0  0  0  0  0  0  0  0  0  0  0  0
   33.6350   27.7720   45.2550 H   0  0  0  0  0  0  0  0  0  0  0  0
   33.7050   25.9160   47.4110 S   0  0  0  0  0  0  0  0  0  0  0  0
   34.0980   25.3670   46.1560 H   0  0  0  0  0  0  0  0  0  0  0  0
  1  7  1  0  0  0  0
  1  6  1  0  0  0  0
  2  1  2  0  0  0  0
  3  2  1  0  0  0  0
  3  4  2  0  0  0  0
  4  5  1  0  0  0  0
  5  6  2  0  0  0  0
  5 23  1  0  0  0  0
  8  3  1  0  0  0  0
  9  2  1  0  0  0  0
 10  9  1  0  0  0  0
 11 10  1  0  0  0  0
 11 16  1  0  0  0  0
 12 11  2  0  0  0  0
 13 14  2  0  0  0  0
 13 12  1  0  0  0  0
 14 15  1  0  0  0  0
 15 10  2  0  0  0  0
 17 12  1  0  0  0  0
 18 13  1  0  0  0  0
 19 20  1  0  0  0  0
 19 14  1  0  0  0  0
 21 19  1  0  0  0  0
 22 19  1  0  0  0  0
 24 23  1  0  0  0  0
 24 25  1  0  0  0  0
 26 24  1  0  0  0  0
 28 27  1  0  0  0  0
 29 28  1  0  0  0  0
 29 24  1  0  0  0  0
 30 34  1  0  0  0  0
 30 29  2  0  0  0  0
 31 32  2  0  0  0  0
 31 30  1  0  0  0  0
 32 33  1  0  0  0  0
 33 37  1  0  0  0  0
 33 28  2  0  0  0  0
 35 31  1  0  0  0  0
 36 32  1  0  0  0  0
 38 37  1  0  0  0  0
M  END
>  <minimizedAffinity>
-5.91713333

>  <minimizedRMSD>
1.78157222

$$$$
