
     RDKit          3D

 21 22  0  0  0  0  0  0  0  0999 V2000
   37.3674   31.3683   49.2048 C   0  0  0  0  0  0  0  0  0  0  0  0
   37.7083   32.6630   49.5996 C   0  0  0  0  0  0  0  0  0  0  0  0
   38.5845   33.3344   48.7811 C   0  0  0  0  0  0  0  0  0  0  0  0
   39.0696   32.7233   47.6483 N   0  0  0  0  0  0  0  0  0  0  0  0
   38.7030   31.4479   47.3035 C   0  0  0  0  0  0  0  0  0  0  0  0
   37.8299   30.7595   48.1078 N   0  0  0  0  0  0  0  0  0  0  0  0
   36.3837   30.6111   50.0587 C   0  0  0  0  0  0  0  0  0  0  0  0
   36.2751   29.1746   50.0430 C   0  0  0  0  0  0  0  0  0  0  0  0
   37.0556   29.8041   51.1766 C   0  0  0  0  0  0  0  0  0  0  0  0
   39.1899   30.7857   46.1004 C   0  0  0  0  0  0  0  0  0  0  0  0
   37.3156   33.1078   50.4813 H   0  0  0  0  0  0  0  0  0  0  0  0
   38.9081   34.3422   49.0041 H   0  0  0  0  0  0  0  0  0  0  0  0
   35.5063   31.2262   50.3749 H   0  0  0  0  0  0  0  0  0  0  0  0
   36.9593   28.6180   49.3386 H   0  0  0  0  0  0  0  0  0  0  0  0
   35.3312   28.6581   50.2103 H   0  0  0  0  0  0  0  0  0  0  0  0
   36.5282   29.8698   52.1434 H   0  0  0  0  0  0  0  0  0  0  0  0
   38.1464   29.7654   51.1981 H   0  0  0  0  0  0  0  0  0  0  0  0
   40.2200   31.1427   45.8489 H   0  0  0  0  0  0  0  0  0  0  0  0
   39.1761   29.6902   46.2612 H   0  0  0  0  0  0  0  0  0  0  0  0
   38.0436   31.1401   44.7241 S   0  0  0  0  0  0  0  0  0  0  0  0
   37.7067   32.5003   44.7046 H   0  0  0  0  0  0  0  0  0  0  0  0
  1  2  2  0
  1  7  1  0
  3  2  1  0
  4  3  2  0
  5  4  1  0
  5  6  2  0
  6  1  1  0
  7  9  1  0
  8  7  1  0
  8  9  1  0
 10  5  1  0
  2 11  1  0
  3 12  1  0
  7 13  1  0
  8 14  1  0
  8 15  1  0
  9 16  1  0
  9 17  1  0
 10 18  1  0
 10 19  1  0
 20 21  1  0
 10 20  1  0
M  ISO  8  11  14  12  14  13  13  14  13  15  13  16  13  17  13  18   8
M  ISO  2  19   8  21  11
M  END
>  <DihAtoms>  (1) 
4,9,19,20

>  <DihDeg>  (1) 
-134.70616128158227

$$$$
