
     RDKit          3D

 29 31  0  0  0  0  0  0  0  0999 V2000
   37.3180   29.3317   51.0271 Br  0  0  0  0  0  0  0  0  0  0  0  0
   35.9613   29.3249   49.6798 C   0  0  0  0  0  0  0  0  0  0  0  0
   35.9969   30.2636   48.6392 C   0  0  0  0  0  0  0  0  0  0  0  0
   34.9847   30.1857   47.7175 C   0  0  0  0  0  0  0  0  0  0  0  0
   33.9586   29.2585   47.7555 C   0  0  0  0  0  0  0  0  0  0  0  0
   33.9640   28.3677   48.7822 C   0  0  0  0  0  0  0  0  0  0  0  0
   34.9616   28.4071   49.7335 C   0  0  0  0  0  0  0  0  0  0  0  0
   37.9954   33.1898   49.4641 C   0  0  0  0  0  0  0  0  0  0  0  0
   39.0194   33.1782   48.4745 C   0  0  0  0  0  0  0  0  0  0  0  0
   39.0000   32.1516   47.5337 C   0  0  0  0  0  0  0  0  0  0  0  0
   38.0069   31.2083   47.6012 N   0  0  0  0  0  0  0  0  0  0  0  0
   37.0500   31.2527   48.5571 C   0  0  0  0  0  0  0  0  0  0  0  0
   37.0468   32.2485   49.4910 N   0  0  0  0  0  0  0  0  0  0  0  0
   32.8987   29.2067   46.7561 C   0  0  0  0  0  0  0  0  0  0  0  0
   32.2562   28.0444   46.3736 C   0  0  0  0  0  0  0  0  0  0  0  0
   31.2505   28.0332   45.4178 C   0  0  0  0  0  0  0  0  0  0  0  0
   30.8843   29.1807   44.8426 N   0  0  0  0  0  0  0  0  0  0  0  0
   31.4986   30.3131   45.2043 C   0  0  0  0  0  0  0  0  0  0  0  0
   32.4632   30.3016   46.1253 N   0  0  0  0  0  0  0  0  0  0  0  0
   34.9789   30.8980   46.8951 H   0  0  0  0  0  0  0  0  0  0  0  0
   33.1858   27.6203   48.8618 H   0  0  0  0  0  0  0  0  0  0  0  0
   34.9584   27.6860   50.5571 H   0  0  0  0  0  0  0  0  0  0  0  0
   37.9360   33.9513   50.2325 H   0  0  0  0  0  0  0  0  0  0  0  0
   39.7277   33.9757   48.5430 H   0  0  0  0  0  0  0  0  0  0  0  0
   39.7701   32.1552   46.8010 H   0  0  0  0  0  0  0  0  0  0  0  0
   32.5533   27.1050   46.8420 H   0  0  0  0  0  0  0  0  0  0  0  0
   30.7663   27.0877   45.1432 H   0  0  0  0  0  0  0  0  0  0  0  0
   31.1218   31.9312   44.5260 S   0  0  0  0  0  0  0  0  0  0  0  0
   31.1184   31.8823   43.1164 H   0  0  0  0  0  0  0  0  0  0  0  0
  2  7  2  0
  2  1  1  0
  3  2  1  0
  4  5  1  0
  4  3  2  0
  5  6  2  0
  6  7  1  0
  8 13  2  0
  9  8  1  0
 10 11  1  0
 10  9  2  0
 11 12  2  0
 12  3  1  0
 12 13  1  0
 14  5  1  0
 15 14  2  0
 16 15  1  0
 17 18  1  0
 17 16  2  0
 18 19  2  0
 19 14  1  0
  4 20  1  0
  6 21  1  0
  7 22  1  0
  8 23  1  0
  9 24  1  0
 10 25  1  0
 15 26  1  0
 16 27  1  0
 28 29  1  0
 18 28  1  0
M  ISO  8  20  14  21  14  22  14  23  14  24  14  25  14  26  14  27  14
M  ISO  1  29  11
M  END
>  <DihAtoms>  (1) 
16,17,27,28

>  <DihDeg>  (1) 
-95.11107463022911

$$$$
