REMARK  Name = 
REMARK  3 active torsions:
REMARK  status: ('A' for Active; 'I' for Inactive)
REMARK    1  A    between atoms: C_2  and  N_13
REMARK    2  A    between atoms: C_3  and  C_7
REMARK    3  A    between atoms: C_17  and  S_32
REMARK                            x       y       z     vdW  Elec       q    Type
REMARK                         _______ _______ _______ _____ _____    ______ ____
ROOT
ATOM      1  C   UNL     1      34.936  30.129  47.592  0.00  0.00    +0.000 A 
ATOM      2  C   UNL     1      36.229  30.719  47.412  0.00  0.00    +0.000 A 
ATOM      3  C   UNL     1      36.770  30.669  46.126  0.00  0.00    +0.000 A 
ATOM      4  N   UNL     1      36.063  30.076  45.127  0.00  0.00    +0.000 NA
ATOM      5  C   UNL     1      34.848  29.534  45.344  0.00  0.00    +0.000 A 
ATOM      6  N   UNL     1      34.296  29.562  46.561  0.00  0.00    +0.000 NA
ATOM      7  H   UNL     1      34.456  30.128  48.546  0.00  0.00    +0.000 HD
ATOM      8  H   UNL     1      34.303  29.067  44.530  0.00  0.00    +0.000 HD
ENDROOT
BRANCH   2   9
ATOM      9  N   UNL     1      36.810  31.288  48.574  0.00  0.00    +0.000 N 
ATOM     10  C   UNL     1      37.572  32.487  48.943  0.00  0.00    +0.000 C 
ATOM     11  C   UNL     1      38.750  31.869  49.708  0.00  0.00    +0.000 C 
ATOM     12  C   UNL     1      38.124  30.688  50.425  0.00  0.00    +0.000 C 
ATOM     13  C   UNL     1      36.713  30.610  49.871  0.00  0.00    +0.000 C 
ATOM     14  H   UNL     1      36.981  33.124  49.636  0.00  0.00    +0.000 HD
ATOM     15  H   UNL     1      37.909  33.010  48.036  0.00  0.00    +0.000 HD
ATOM     16  H   UNL     1      39.184  32.595  50.408  0.00  0.00    +0.000 HD
ATOM     17  H   UNL     1      39.487  31.482  48.965  0.00  0.00    +0.000 HD
ATOM     18  H   UNL     1      38.689  29.759  50.333  0.00  0.00    +0.000 HD
ATOM     19  H   UNL     1      38.020  31.004  51.504  0.00  0.00    +0.000 HD
ATOM     20  H   UNL     1      35.957  31.040  50.529  0.00  0.00    +0.000 HD
BRANCH  13  21
ATOM     21  S   UNL     1      36.344  28.841  49.677  0.00  0.00    +0.000 S 
ATOM     22  H   UNL     1      37.370  28.136  49.039  0.00  0.00    +0.000 HD
ENDBRANCH  13  21
ENDBRANCH   2   9
BRANCH   3  23
ATOM     23  C   UNL     1      38.066  31.232  45.830  0.00  0.00    +0.000 A 
ATOM     24  C   UNL     1      38.122  32.452  45.199  0.00  0.00    +0.000 A 
ATOM     25  C   UNL     1      39.307  33.080  44.869  0.00  0.00    +0.000 A 
ATOM     26  C   UNL     1      40.475  32.414  45.209  0.00  0.00    +0.000 A 
ATOM     27  C   UNL     1      40.503  31.165  45.855  0.00  0.00    +0.000 A 
ATOM     28  C   UNL     1      39.251  30.613  46.145  0.00  0.00    +0.000 A 
ATOM     29  H   UNL     1      37.214  32.998  44.919  0.00  0.00    +0.000 HD
ATOM     30  H   UNL     1      39.354  34.036  44.374  0.00  0.00    +0.000 HD
ATOM     31  H   UNL     1      41.432  32.865  44.972  0.00  0.00    +0.000 HD
ATOM     32  H   UNL     1      41.427  30.686  46.100  0.00  0.00    +0.000 HD
ATOM     33  H   UNL     1      39.198  29.648  46.645  0.00  0.00    +0.000 HD
ENDBRANCH   3  23
TORSDOF 3
