
 OpenBabel03272509133D

 33 35  0  0  1  0  0  0  0  0999 V2000
   34.9310   30.2990   47.7680 C   0  0  0  0  0  0  0  0  0  0  0  0
   36.2340   30.8420   47.5240 C   0  0  0  0  0  0  0  0  0  0  0  0
   36.7400   30.7080   46.2300 C   0  0  0  0  0  0  0  0  0  0  0  0
   35.9910   30.0830   45.2820 N   0  0  0  0  0  0  0  0  0  0  0  0
   34.7680   29.5880   45.5580 C   0  0  0  0  0  0  0  0  0  0  0  0
   34.2490   29.6960   46.7850 N   0  0  0  0  0  0  0  0  0  0  0  0
   34.4760   30.3620   48.7320 H   0  0  0  0  0  0  0  0  0  0  0  0
   34.1900   29.0940   44.7840 H   0  0  0  0  0  0  0  0  0  0  0  0
   36.8610   31.4550   48.6390 N   0  0  0  0  0  0  0  0  0  0  0  0
   37.6120   32.6800   48.9360 C   0  0  0  0  0  0  0  0  0  0  0  0
   38.8420   32.1100   49.6550 C   0  0  0  0  0  0  0  0  0  0  0  0
   38.2820   30.9350   50.4350 C   0  0  0  0  0  0  0  0  0  0  0  0
   36.8460   30.8110   49.9570 C   0  0  2  0  0  0  0  0  0  0  0  0
   37.0430   33.3230   49.6420 H   0  0  0  0  0  0  0  0  0  0  0  0
   37.8900   33.1860   48.0000 H   0  0  0  0  0  0  0  0  0  0  0  0
   39.2940   32.8640   50.3120 H   0  0  0  0  0  0  0  0  0  0  0  0
   39.5490   31.7190   48.8850 H   0  0  0  0  0  0  0  0  0  0  0  0
   38.8630   30.0170   50.3380 H   0  0  0  0  0  0  0  0  0  0  0  0
   38.2260   31.2790   51.5090 H   0  0  0  0  0  0  0  0  0  0  0  0
   36.1150   31.2420   50.6420 H   0  0  0  0  0  0  0  0  0  0  0  0
   36.5100   29.0300   49.8290 S   0  0  0  0  0  0  0  0  0  0  0  0
   37.6240   28.2400   50.1340 H   0  0  0  0  0  0  0  0  0  0  0  0
   38.0420   31.2180   45.8720 C   0  0  0  0  0  0  0  0  0  0  0  0
   38.1160   32.4130   45.1970 C   0  0  0  0  0  0  0  0  0  0  0  0
   39.3080   32.9900   44.8070 C   0  0  0  0  0  0  0  0  0  0  0  0
   40.4650   32.2980   45.1310 C   0  0  0  0  0  0  0  0  0  0  0  0
   40.4750   31.0710   45.8190 C   0  0  0  0  0  0  0  0  0  0  0  0
   39.2170   30.5710   46.1690 C   0  0  0  0  0  0  0  0  0  0  0  0
   37.2160   32.9790   44.9280 H   0  0  0  0  0  0  0  0  0  0  0  0
   39.3690   33.9270   44.2770 H   0  0  0  0  0  0  0  0  0  0  0  0
   41.4270   32.7090   44.8470 H   0  0  0  0  0  0  0  0  0  0  0  0
   41.3910   30.5710   46.0510 H   0  0  0  0  0  0  0  0  0  0  0  0
   39.1500   29.6260   46.7040 H   0  0  0  0  0  0  0  0  0  0  0  0
  1  7  1  0  0  0  0
  2  1  1  0  0  0  0
  2  9  1  0  0  0  0
  3  2  2  0  0  0  0
  4  5  2  0  0  0  0
  4  3  1  0  0  0  0
  5  6  1  0  0  0  0
  6  1  2  0  0  0  0
  8  5  1  0  0  0  0
  9 10  1  0  0  0  0
  9 13  1  0  0  0  0
 10 14  1  0  0  0  0
 10 11  1  0  0  0  0
 11 16  1  0  0  0  0
 11 12  1  0  0  0  0
 12 19  1  0  0  0  0
 13 12  1  0  0  0  0
 13 20  1  1  0  0  0
 15 10  1  0  0  0  0
 17 11  1  0  0  0  0
 18 12  1  0  0  0  0
 21 13  1  0  0  0  0
 21 22  1  0  0  0  0
 23 28  1  0  0  0  0
 23  3  1  0  0  0  0
 24 23  2  0  0  0  0
 25 26  2  0  0  0  0
 25 24  1  0  0  0  0
 26 27  1  0  0  0  0
 27 32  1  0  0  0  0
 27 28  2  0  0  0  0
 28 33  1  0  0  0  0
 29 24  1  0  0  0  0
 30 25  1  0  0  0  0
 31 26  1  0  0  0  0
M  END
>  <minimizedAffinity>
-5.52522469

>  <minimizedRMSD>
0.195283532

$$$$
