REMARK  Name = 
REMARK  3 active torsions:
REMARK  status: ('A' for Active; 'I' for Inactive)
REMARK    1  A    between atoms: C_3  and  C_12
REMARK    2  A    between atoms: C_5  and  C_14
REMARK    3  A    between atoms: C_18  and  S_28
REMARK                            x       y       z     vdW  Elec       q    Type
REMARK                         _______ _______ _______ _____ _____    ______ ____
ROOT
ATOM      1 BR   UNL     1      37.318  29.332  51.027  0.00  0.00    +0.000 Br
ATOM      2  C   UNL     1      35.961  29.325  49.680  0.00  0.00    +0.000 A 
ATOM      3  C   UNL     1      35.997  30.264  48.639  0.00  0.00    +0.000 A 
ATOM      4  C   UNL     1      34.985  30.186  47.718  0.00  0.00    +0.000 A 
ATOM      5  C   UNL     1      33.959  29.259  47.755  0.00  0.00    +0.000 A 
ATOM      6  C   UNL     1      33.964  28.368  48.782  0.00  0.00    +0.000 A 
ATOM      7  C   UNL     1      34.962  28.407  49.733  0.00  0.00    +0.000 A 
ATOM      8  H   UNL     1      34.979  30.898  46.895  0.00  0.00    +0.000 HD
ATOM      9  H   UNL     1      33.186  27.620  48.862  0.00  0.00    +0.000 HD
ATOM     10  H   UNL     1      34.958  27.686  50.557  0.00  0.00    +0.000 HD
ENDROOT
BRANCH   3  15
ATOM     11  C   UNL     1      37.995  33.190  49.464  0.00  0.00    +0.000 A 
ATOM     12  C   UNL     1      39.019  33.178  48.474  0.00  0.00    +0.000 A 
ATOM     13  C   UNL     1      39.000  32.152  47.534  0.00  0.00    +0.000 A 
ATOM     14  N   UNL     1      38.007  31.208  47.601  0.00  0.00    +0.000 NA
ATOM     15  C   UNL     1      37.050  31.253  48.557  0.00  0.00    +0.000 A 
ATOM     16  N   UNL     1      37.047  32.248  49.491  0.00  0.00    +0.000 NA
ATOM     17  H   UNL     1      37.936  33.951  50.233  0.00  0.00    +0.000 HD
ATOM     18  H   UNL     1      39.728  33.976  48.543  0.00  0.00    +0.000 HD
ATOM     19  H   UNL     1      39.770  32.155  46.801  0.00  0.00    +0.000 HD
ENDBRANCH   3  15
BRANCH   5  20
ATOM     20  C   UNL     1      32.899  29.207  46.756  0.00  0.00    +0.000 A 
ATOM     21  C   UNL     1      32.256  28.044  46.374  0.00  0.00    +0.000 A 
ATOM     22  C   UNL     1      31.250  28.033  45.418  0.00  0.00    +0.000 A 
ATOM     23  N   UNL     1      30.884  29.181  44.843  0.00  0.00    +0.000 NA
ATOM     24  C   UNL     1      31.499  30.313  45.204  0.00  0.00    +0.000 A 
ATOM     25  N   UNL     1      32.463  30.302  46.125  0.00  0.00    +0.000 NA
ATOM     26  H   UNL     1      32.553  27.105  46.842  0.00  0.00    +0.000 HD
ATOM     27  H   UNL     1      30.766  27.088  45.143  0.00  0.00    +0.000 HD
BRANCH  24  28
ATOM     28  S   UNL     1      31.122  31.931  44.526  0.00  0.00    +0.000 S 
ATOM     29  H   UNL     1      31.861  32.928  45.198  0.00  0.00    +0.000 HD
ENDBRANCH  24  28
ENDBRANCH   5  20
TORSDOF 3
