
 OpenBabel03272509483D

 18 18  0  0  0  0  0  0  0  0999 V2000
   39.7720   22.8100   37.7070 C   0  0  0  0  0  0  0  0  0  0  0  0
   38.9580   23.3990   38.6720 C   0  0  0  0  0  0  0  0  0  0  0  0
   37.8520   24.1570   38.2510 C   0  0  0  0  0  0  0  0  0  0  0  0
   37.6600   24.2580   36.9080 N   0  0  0  0  0  0  0  0  0  0  0  0
   38.4560   23.6840   36.0050 C   0  0  0  0  0  0  0  0  0  0  0  0
   39.5070   22.9650   36.4300 N   0  0  0  0  0  0  0  0  0  0  0  0
   40.6300   22.2230   38.0180 H   0  0  0  0  0  0  0  0  0  0  0  0
   39.1350   23.3010   39.7380 H   0  0  0  0  0  0  0  0  0  0  0  0
   37.1760   24.6420   38.9450 H   0  0  0  0  0  0  0  0  0  0  0  0
   38.0670   23.9230   34.6980 O   0  0  0  0  0  0  0  0  0  0  0  0
   38.5060   25.1060   34.0790 C   0  0  0  0  0  0  0  0  0  0  0  0
   39.2200   24.9110   33.2610 H   0  0  0  0  0  0  0  0  0  0  0  0
   38.9910   25.7430   34.8630 H   0  0  0  0  0  0  0  0  0  0  0  0
   37.3400   25.9230   33.5690 C   0  0  0  0  0  0  0  0  0  0  0  0
   37.5630   26.2430   32.5300 H   0  0  0  0  0  0  0  0  0  0  0  0
   36.4180   25.2910   33.5640 H   0  0  0  0  0  0  0  0  0  0  0  0
   37.1050   27.3290   34.6860 S   0  0  0  0  0  0  0  0  0  0  0  0
   36.5710   28.4110   33.9720 H   0  0  0  0  0  0  0  0  0  0  0  0
  1  7  1  0  0  0  0
  1  2  1  0  0  0  0
  2  8  1  0  0  0  0
  3  2  2  0  0  0  0
  3  9  1  0  0  0  0
  4  3  1  0  0  0  0
  5  6  1  0  0  0  0
  5  4  2  0  0  0  0
  6  1  2  0  0  0  0
 10  5  1  0  0  0  0
 11 10  1  0  0  0  0
 11 13  1  0  0  0  0
 12 11  1  0  0  0  0
 14 11  1  0  0  0  0
 14 17  1  0  0  0  0
 15 14  1  0  0  0  0
 16 14  1  0  0  0  0
 18 17  1  0  0  0  0
M  END
>  <minimizedAffinity>
-2.97653818

$$$$

 OpenBabel03272509483D

 18 18  0  0  0  0  0  0  0  0999 V2000
   40.0390   22.6790   37.7680 C   0  0  0  0  0  0  0  0  0  0  0  0
   38.9090   23.2890   38.3070 C   0  0  0  0  0  0  0  0  0  0  0  0
   37.7510   23.3830   37.5170 C   0  0  0  0  0  0  0  0  0  0  0  0
   37.8260   22.8610   36.2630 N   0  0  0  0  0  0  0  0  0  0  0  0
   38.9220   22.2820   35.7710 C   0  0  0  0  0  0  0  0  0  0  0  0
   40.0170   22.2030   36.5430 N   0  0  0  0  0  0  0  0  0  0  0  0
   40.9410   22.6000   38.3670 H   0  0  0  0  0  0  0  0  0  0  0  0
   38.8780   23.6960   39.3120 H   0  0  0  0  0  0  0  0  0  0  0  0
   36.8360   23.8430   37.8710 H   0  0  0  0  0  0  0  0  0  0  0  0
   38.7670   21.8240   34.4740 O   0  0  0  0  0  0  0  0  0  0  0  0
   37.6030   22.1850   33.7750 C   0  0  0  0  0  0  0  0  0  0  0  0
   37.7240   23.1310   33.2200 H   0  0  0  0  0  0  0  0  0  0  0  0
   36.7730   22.2860   34.5210 H   0  0  0  0  0  0  0  0  0  0  0  0
   37.1620   21.0840   32.8370 C   0  0  0  0  0  0  0  0  0  0  0  0
   37.0660   21.5080   31.8160 H   0  0  0  0  0  0  0  0  0  0  0  0
   37.9360   20.2770   32.8230 H   0  0  0  0  0  0  0  0  0  0  0  0
   35.5970   20.4120   33.4520 S   0  0  0  0  0  0  0  0  0  0  0  0
   34.8370   19.9340   32.3750 H   0  0  0  0  0  0  0  0  0  0  0  0
  1  2  1  0  0  0  0
  1  7  1  0  0  0  0
  2  8  1  0  0  0  0
  3  9  1  0  0  0  0
  3  2  2  0  0  0  0
  4  3  1  0  0  0  0
  5  4  2  0  0  0  0
  5  6  1  0  0  0  0
  6  1  2  0  0  0  0
 10  5  1  0  0  0  0
 11 10  1  0  0  0  0
 11 13  1  0  0  0  0
 12 11  1  0  0  0  0
 14 17  1  0  0  0  0
 14 11  1  0  0  0  0
 15 14  1  0  0  0  0
 16 14  1  0  0  0  0
 18 17  1  0  0  0  0
M  END
>  <minimizedAffinity>
-2.97561884

$$$$

 OpenBabel03272509483D

 18 18  0  0  0  0  0  0  0  0999 V2000
   37.8380   24.1020   38.2110 C   0  0  0  0  0  0  0  0  0  0  0  0
   38.9180   23.3240   38.6210 C   0  0  0  0  0  0  0  0  0  0  0  0
   39.7910   22.8130   37.6450 C   0  0  0  0  0  0  0  0  0  0  0  0
   39.5060   23.1260   36.3520 N   0  0  0  0  0  0  0  0  0  0  0  0
   38.4640   23.8730   35.9870 C   0  0  0  0  0  0  0  0  0  0  0  0
   37.6430   24.3500   36.9360 N   0  0  0  0  0  0  0  0  0  0  0  0
   37.1560   24.5020   38.9550 H   0  0  0  0  0  0  0  0  0  0  0  0
   39.1220   23.0920   39.6610 H   0  0  0  0  0  0  0  0  0  0  0  0
   40.6510   22.2020   37.8900 H   0  0  0  0  0  0  0  0  0  0  0  0
   38.3710   24.0580   34.6180 O   0  0  0  0  0  0  0  0  0  0  0  0
   38.6080   25.3430   34.1020 C   0  0  0  0  0  0  0  0  0  0  0  0
   39.3440   25.3360   33.2810 H   0  0  0  0  0  0  0  0  0  0  0  0
   38.9810   25.9860   34.9410 H   0  0  0  0  0  0  0  0  0  0  0  0
   37.3230   25.9960   33.6440 C   0  0  0  0  0  0  0  0  0  0  0  0
   37.4090   26.2200   32.5610 H   0  0  0  0  0  0  0  0  0  0  0  0
   36.4710   25.2900   33.8020 H   0  0  0  0  0  0  0  0  0  0  0  0
   37.0640   27.4890   34.6360 S   0  0  0  0  0  0  0  0  0  0  0  0
   36.3590   28.4370   33.8810 H   0  0  0  0  0  0  0  0  0  0  0  0
  1  2  1  0  0  0  0
  1  7  1  0  0  0  0
  2  8  1  0  0  0  0
  3  9  1  0  0  0  0
  3  2  2  0  0  0  0
  4  3  1  0  0  0  0
  5  4  2  0  0  0  0
  5  6  1  0  0  0  0
  6  1  2  0  0  0  0
 10  5  1  0  0  0  0
 11 10  1  0  0  0  0
 11 13  1  0  0  0  0
 12 11  1  0  0  0  0
 14 16  1  0  0  0  0
 14 11  1  0  0  0  0
 14 17  1  0  0  0  0
 15 14  1  0  0  0  0
 18 17  1  0  0  0  0
M  END
>  <minimizedAffinity>
-2.93871951

$$$$

 OpenBabel03272509483D

 18 18  0  0  0  0  0  0  0  0999 V2000
   37.8460   24.0630   38.1940 C   0  0  0  0  0  0  0  0  0  0  0  0
   38.9920   23.4050   38.6330 C   0  0  0  0  0  0  0  0  0  0  0  0
   39.8050   22.7590   37.6860 C   0  0  0  0  0  0  0  0  0  0  0  0
   39.4010   22.8310   36.3890 N   0  0  0  0  0  0  0  0  0  0  0  0
   38.2980   23.4680   35.9950 C   0  0  0  0  0  0  0  0  0  0  0  0
   37.5360   24.0770   36.9180 N   0  0  0  0  0  0  0  0  0  0  0  0
   37.2090   24.5650   38.9150 H   0  0  0  0  0  0  0  0  0  0  0  0
   39.2910   23.3650   39.6760 H   0  0  0  0  0  0  0  0  0  0  0  0
   40.7110   22.2290   37.9550 H   0  0  0  0  0  0  0  0  0  0  0  0
   38.0850   23.4070   34.6290 O   0  0  0  0  0  0  0  0  0  0  0  0
   38.2750   22.1760   33.9790 C   0  0  0  0  0  0  0  0  0  0  0  0
   38.9340   21.5000   34.5490 H   0  0  0  0  0  0  0  0  0  0  0  0
   38.7230   22.3850   32.9730 H   0  0  0  0  0  0  0  0  0  0  0  0
   36.9540   21.4980   33.6920 C   0  0  0  0  0  0  0  0  0  0  0  0
   37.1230   20.4020   33.6550 H   0  0  0  0  0  0  0  0  0  0  0  0
   36.2330   21.7270   34.5150 H   0  0  0  0  0  0  0  0  0  0  0  0
   36.3140   22.1470   32.1280 S   0  0  0  0  0  0  0  0  0  0  0  0
   35.5400   21.1660   31.4940 H   0  0  0  0  0  0  0  0  0  0  0  0
  1  2  1  0  0  0  0
  1  7  1  0  0  0  0
  2  8  1  0  0  0  0
  3  9  1  0  0  0  0
  3  2  2  0  0  0  0
  4  3  1  0  0  0  0
  5  4  2  0  0  0  0
  5  6  1  0  0  0  0
  6  1  2  0  0  0  0
 10  5  1  0  0  0  0
 11 12  1  0  0  0  0
 11 10  1  0  0  0  0
 13 11  1  0  0  0  0
 14 11  1  0  0  0  0
 14 16  1  0  0  0  0
 15 14  1  0  0  0  0
 17 14  1  0  0  0  0
 18 17  1  0  0  0  0
M  END
>  <minimizedAffinity>
-2.899822

$$$$

 OpenBabel03272509483D

 18 18  0  0  0  0  0  0  0  0999 V2000
   37.9890   24.3420   36.5240 C   0  0  0  0  0  0  0  0  0  0  0  0
   37.8610   24.4520   37.9070 C   0  0  0  0  0  0  0  0  0  0  0  0
   38.6890   23.6660   38.7270 C   0  0  0  0  0  0  0  0  0  0  0  0
   39.5680   22.8440   38.0930 N   0  0  0  0  0  0  0  0  0  0  0  0
   39.6700   22.7580   36.7660 C   0  0  0  0  0  0  0  0  0  0  0  0
   38.8690   23.5170   36.0020 N   0  0  0  0  0  0  0  0  0  0  0  0
   37.3550   24.9420   35.8800 H   0  0  0  0  0  0  0  0  0  0  0  0
   37.1500   25.1170   38.3860 H   0  0  0  0  0  0  0  0  0  0  0  0
   38.6440   23.7010   39.8090 H   0  0  0  0  0  0  0  0  0  0  0  0
   40.6320   21.8550   36.3460 O   0  0  0  0  0  0  0  0  0  0  0  0
   41.5980   21.4310   37.2730 C   0  0  0  0  0  0  0  0  0  0  0  0
   41.2720   20.5440   37.8420 H   0  0  0  0  0  0  0  0  0  0  0  0
   41.7940   22.2820   37.9760 H   0  0  0  0  0  0  0  0  0  0  0  0
   42.9240   21.1600   36.6000 C   0  0  0  0  0  0  0  0  0  0  0  0
   42.8250   21.3950   35.5200 H   0  0  0  0  0  0  0  0  0  0  0  0
   43.7080   21.8220   37.0440 H   0  0  0  0  0  0  0  0  0  0  0  0
   43.3610   19.4270   36.8890 S   0  0  0  0  0  0  0  0  0  0  0  0
   44.1300   18.9510   35.8170 H   0  0  0  0  0  0  0  0  0  0  0  0
  1  2  1  0  0  0  0
  2  8  1  0  0  0  0
  2  3  2  0  0  0  0
  3  9  1  0  0  0  0
  4  3  1  0  0  0  0
  5  4  2  0  0  0  0
  6  1  2  0  0  0  0
  6  5  1  0  0  0  0
  7  1  1  0  0  0  0
 10  5  1  0  0  0  0
 10 11  1  0  0  0  0
 11 12  1  0  0  0  0
 11 13  1  0  0  0  0
 14 17  1  0  0  0  0
 14 16  1  0  0  0  0
 14 11  1  0  0  0  0
 15 14  1  0  0  0  0
 18 17  1  0  0  0  0
M  END
>  <minimizedAffinity>
-2.86412048

$$$$

 OpenBabel03272509483D

 18 18  0  0  0  0  0  0  0  0999 V2000
   37.4550   27.7470   35.2170 C   0  0  0  0  0  0  0  0  0  0  0  0
   38.6650   27.3190   35.7590 C   0  0  0  0  0  0  0  0  0  0  0  0
   39.2630   26.1570   35.2430 C   0  0  0  0  0  0  0  0  0  0  0  0
   38.6010   25.5300   34.2340 N   0  0  0  0  0  0  0  0  0  0  0  0
   37.4430   25.9600   33.7330 C   0  0  0  0  0  0  0  0  0  0  0  0
   36.8890   27.0720   34.2420 N   0  0  0  0  0  0  0  0  0  0  0  0
   36.9820   28.6420   35.6070 H   0  0  0  0  0  0  0  0  0  0  0  0
   39.1710   27.8410   36.5640 H   0  0  0  0  0  0  0  0  0  0  0  0
   40.2030   25.7670   35.6150 H   0  0  0  0  0  0  0  0  0  0  0  0
   36.9530   25.1620   32.7130 O   0  0  0  0  0  0  0  0  0  0  0  0
   36.2400   25.7760   31.6700 C   0  0  0  0  0  0  0  0  0  0  0  0
   36.9020   26.1430   30.8690 H   0  0  0  0  0  0  0  0  0  0  0  0
   35.6630   26.6320   32.1080 H   0  0  0  0  0  0  0  0  0  0  0  0
   35.1950   24.8450   31.0970 C   0  0  0  0  0  0  0  0  0  0  0  0
   34.2340   25.0300   31.6200 H   0  0  0  0  0  0  0  0  0  0  0  0
   35.0620   25.0620   30.0080 H   0  0  0  0  0  0  0  0  0  0  0  0
   35.7770   23.1440   31.3090 S   0  0  0  0  0  0  0  0  0  0  0  0
   34.6770   22.2850   31.4450 H   0  0  0  0  0  0  0  0  0  0  0  0
  1  7  1  0  0  0  0
  1  2  1  0  0  0  0
  2  8  1  0  0  0  0
  3  9  1  0  0  0  0
  3  2  2  0  0  0  0
  4  3  1  0  0  0  0
  5  4  2  0  0  0  0
  5  6  1  0  0  0  0
  6  1  2  0  0  0  0
 10  5  1  0  0  0  0
 11 13  1  0  0  0  0
 11 10  1  0  0  0  0
 12 11  1  0  0  0  0
 14 17  1  0  0  0  0
 14 15  1  0  0  0  0
 14 11  1  0  0  0  0
 16 14  1  0  0  0  0
 17 18  1  0  0  0  0
M  END
>  <minimizedAffinity>
-2.82696962

$$$$

 OpenBabel03272509483D

 18 18  0  0  0  0  0  0  0  0999 V2000
   35.6380   23.9160   31.3970 C   0  0  0  0  0  0  0  0  0  0  0  0
   35.0600   25.0880   30.9140 C   0  0  0  0  0  0  0  0  0  0  0  0
   35.6060   26.3220   31.3040 C   0  0  0  0  0  0  0  0  0  0  0  0
   36.6790   26.2730   32.1390 N   0  0  0  0  0  0  0  0  0  0  0  0
   37.2140   25.1370   32.5880 C   0  0  0  0  0  0  0  0  0  0  0  0
   36.6740   23.9700   32.2020 N   0  0  0  0  0  0  0  0  0  0  0  0
   35.2240   22.9560   31.1040 H   0  0  0  0  0  0  0  0  0  0  0  0
   34.2040   25.0960   30.2470 H   0  0  0  0  0  0  0  0  0  0  0  0
   35.2100   27.2720   30.9670 H   0  0  0  0  0  0  0  0  0  0  0  0
   38.2980   25.3320   33.4270 O   0  0  0  0  0  0  0  0  0  0  0  0
   38.3140   24.6610   34.6610 C   0  0  0  0  0  0  0  0  0  0  0  0
   39.3120   24.2650   34.9090 H   0  0  0  0  0  0  0  0  0  0  0  0
   37.5750   23.8200   34.6030 H   0  0  0  0  0  0  0  0  0  0  0  0
   37.8140   25.5510   35.7770 C   0  0  0  0  0  0  0  0  0  0  0  0
   36.7120   25.6390   35.6900 H   0  0  0  0  0  0  0  0  0  0  0  0
   38.0650   25.0860   36.7620 H   0  0  0  0  0  0  0  0  0  0  0  0
   38.6450   27.1540   35.6350 S   0  0  0  0  0  0  0  0  0  0  0  0
   37.8070   28.1620   36.1320 H   0  0  0  0  0  0  0  0  0  0  0  0
  1  6  1  0  0  0  0
  2  3  1  0  0  0  0
  2  1  2  0  0  0  0
  3  4  2  0  0  0  0
  4  5  1  0  0  0  0
  5 10  1  0  0  0  0
  6  5  2  0  0  0  0
  7  1  1  0  0  0  0
  8  2  1  0  0  0  0
  9  3  1  0  0  0  0
 10 11  1  0  0  0  0
 11 12  1  0  0  0  0
 11 14  1  0  0  0  0
 13 11  1  0  0  0  0
 14 16  1  0  0  0  0
 15 14  1  0  0  0  0
 17 14  1  0  0  0  0
 17 18  1  0  0  0  0
M  END
>  <minimizedAffinity>
-2.79769897

$$$$

 OpenBabel03272509483D

 18 18  0  0  0  0  0  0  0  0999 V2000
   38.7520   27.1680   35.7380 C   0  0  0  0  0  0  0  0  0  0  0  0
   39.8710   27.0000   34.9260 C   0  0  0  0  0  0  0  0  0  0  0  0
   40.3710   25.7020   34.7240 C   0  0  0  0  0  0  0  0  0  0  0  0
   39.7080   24.6920   35.3500 N   0  0  0  0  0  0  0  0  0  0  0  0
   38.6380   24.8810   36.1230 C   0  0  0  0  0  0  0  0  0  0  0  0
   38.1790   26.1300   36.3030 N   0  0  0  0  0  0  0  0  0  0  0  0
   38.3570   28.1650   35.9030 H   0  0  0  0  0  0  0  0  0  0  0  0
   40.3800   27.8250   34.4380 H   0  0  0  0  0  0  0  0  0  0  0  0
   41.2360   25.4970   34.1050 H   0  0  0  0  0  0  0  0  0  0  0  0
   38.1300   23.7080   36.6560 O   0  0  0  0  0  0  0  0  0  0  0  0
   38.5330   22.4890   36.0870 C   0  0  0  0  0  0  0  0  0  0  0  0
   38.9140   21.7800   36.8420 H   0  0  0  0  0  0  0  0  0  0  0  0
   39.3350   22.7100   35.3350 H   0  0  0  0  0  0  0  0  0  0  0  0
   37.4120   21.8550   35.2960 C   0  0  0  0  0  0  0  0  0  0  0  0
   37.2580   20.8210   35.6690 H   0  0  0  0  0  0  0  0  0  0  0  0
   36.4720   22.4400   35.4510 H   0  0  0  0  0  0  0  0  0  0  0  0
   37.8650   21.8920   33.5430 S   0  0  0  0  0  0  0  0  0  0  0  0
   37.2790   20.8030   32.8830 H   0  0  0  0  0  0  0  0  0  0  0  0
  1  7  1  0  0  0  0
  1  6  1  0  0  0  0
  2  1  2  0  0  0  0
  3  2  1  0  0  0  0
  3  4  2  0  0  0  0
  4  5  1  0  0  0  0
  5  6  2  0  0  0  0
  5 10  1  0  0  0  0
  8  2  1  0  0  0  0
  9  3  1  0  0  0  0
 11 10  1  0  0  0  0
 11 12  1  0  0  0  0
 13 11  1  0  0  0  0
 14 16  1  0  0  0  0
 14 15  1  0  0  0  0
 14 11  1  0  0  0  0
 17 14  1  0  0  0  0
 18 17  1  0  0  0  0
M  END
>  <minimizedAffinity>
-2.74058747

$$$$

 OpenBabel03272509483D

 18 18  0  0  0  0  0  0  0  0999 V2000
   37.3190   26.0390   33.4040 C   0  0  0  0  0  0  0  0  0  0  0  0
   37.1740   27.3500   33.8550 C   0  0  0  0  0  0  0  0  0  0  0  0
   37.6060   27.6690   35.1540 C   0  0  0  0  0  0  0  0  0  0  0  0
   38.1420   26.6530   35.8830 N   0  0  0  0  0  0  0  0  0  0  0  0
   38.2680   25.4060   35.4270 C   0  0  0  0  0  0  0  0  0  0  0  0
   37.8480   25.1240   34.1830 N   0  0  0  0  0  0  0  0  0  0  0  0
   36.9890   25.7790   32.4040 H   0  0  0  0  0  0  0  0  0  0  0  0
   36.7440   28.1410   33.2500 H   0  0  0  0  0  0  0  0  0  0  0  0
   37.5260   28.6660   35.5690 H   0  0  0  0  0  0  0  0  0  0  0  0
   38.8390   24.5400   36.3440 O   0  0  0  0  0  0  0  0  0  0  0  0
   38.3560   23.2220   36.4060 C   0  0  0  0  0  0  0  0  0  0  0  0
   37.4920   23.0610   35.7400 H   0  0  0  0  0  0  0  0  0  0  0  0
   38.0610   23.0160   37.4680 H   0  0  0  0  0  0  0  0  0  0  0  0
   39.4470   22.2220   36.0960 C   0  0  0  0  0  0  0  0  0  0  0  0
   38.9870   21.2170   36.0040 H   0  0  0  0  0  0  0  0  0  0  0  0
   39.9310   22.4910   35.1240 H   0  0  0  0  0  0  0  0  0  0  0  0
   40.6760   22.2960   37.4240 S   0  0  0  0  0  0  0  0  0  0  0  0
   41.2820   21.0410   37.5730 H   0  0  0  0  0  0  0  0  0  0  0  0
  1  2  2  0  0  0  0
  1  6  1  0  0  0  0
  2  3  1  0  0  0  0
  3  9  1  0  0  0  0
  3  4  2  0  0  0  0
  5  4  1  0  0  0  0
  5 10  1  0  0  0  0
  6  5  2  0  0  0  0
  7  1  1  0  0  0  0
  8  2  1  0  0  0  0
 10 11  1  0  0  0  0
 11 13  1  0  0  0  0
 12 11  1  0  0  0  0
 14 11  1  0  0  0  0
 14 17  1  0  0  0  0
 15 14  1  0  0  0  0
 16 14  1  0  0  0  0
 17 18  1  0  0  0  0
M  END
>  <minimizedAffinity>
-2.71668386

$$$$
