
 OpenBabel03272503283D

 26 27  0  0  1  0  0  0  0  0999 V2000
   38.1760   24.8010   35.1520 N   0  0  0  0  0  0  0  0  0  0  0  0
   38.9660   24.9020   36.3400 C   0  0  0  0  0  0  0  0  0  0  0  0
   38.7470   23.5500   37.0110 C   0  0  2  0  0  0  0  0  0  0  0  0
   37.7290   22.8240   36.1540 C   0  0  0  0  0  0  0  0  0  0  0  0
   38.1420   23.4010   34.8030 C   0  0  0  0  0  0  0  0  0  0  0  0
   40.0350   25.1220   36.1600 H   0  0  0  0  0  0  0  0  0  0  0  0
   38.5810   25.6790   37.0540 H   0  0  0  0  0  0  0  0  0  0  0  0
   39.6910   22.9810   36.9150 H   0  0  0  0  0  0  0  0  0  0  0  0
   36.6910   23.0680   36.3760 H   0  0  0  0  0  0  0  0  0  0  0  0
   37.9550   21.7320   36.1800 H   0  0  0  0  0  0  0  0  0  0  0  0
   37.3300   23.2370   34.0700 H   0  0  0  0  0  0  0  0  0  0  0  0
   39.1210   22.9860   34.4960 H   0  0  0  0  0  0  0  0  0  0  0  0
   37.5360   25.8660   34.4330 C   0  0  0  0  0  0  0  0  0  0  0  0
   37.3470   27.0660   35.1360 C   0  0  0  0  0  0  0  0  0  0  0  0
   36.7270   28.1090   34.4470 C   0  0  0  0  0  0  0  0  0  0  0  0
   36.3520   27.8770   33.1480 N   0  0  0  0  0  0  0  0  0  0  0  0
   36.5450   26.7230   32.5080 C   0  0  0  0  0  0  0  0  0  0  0  0
   37.1460   25.7080   33.1650 N   0  0  0  0  0  0  0  0  0  0  0  0
   37.6390   27.2440   36.1450 H   0  0  0  0  0  0  0  0  0  0  0  0
   36.5610   29.0480   34.9480 H   0  0  0  0  0  0  0  0  0  0  0  0
   36.0390   26.4810   30.8250 S   0  0  0  0  0  0  0  0  0  0  0  0
   35.9930   25.1310   30.5060 H   0  0  0  0  0  0  0  0  0  0  0  0
   38.3200   23.6720   38.4400 C   0  0  0  0  0  0  0  0  0  0  0  0
   37.9250   24.9890   38.6200 F   0  0  0  0  0  0  0  0  0  0  0  0
   39.4430   23.4940   39.2220 F   0  0  0  0  0  0  0  0  0  0  0  0
   37.3500   22.7880   38.8030 F   0  0  0  0  0  0  0  0  0  0  0  0
  1  2  1  0  0  0  0
  2  3  1  0  0  0  0
  2  7  1  0  0  0  0
  3  8  1  6  0  0  0
  3 23  1  0  0  0  0
  4 10  1  0  0  0  0
  4  9  1  0  0  0  0
  4  3  1  0  0  0  0
  5  1  1  0  0  0  0
  5  4  1  0  0  0  0
  6  2  1  0  0  0  0
 11  5  1  0  0  0  0
 12  5  1  0  0  0  0
 13 14  1  0  0  0  0
 13  1  1  0  0  0  0
 14 19  1  0  0  0  0
 15 20  1  0  0  0  0
 15 14  2  0  0  0  0
 16 15  1  0  0  0  0
 17 16  2  0  0  0  0
 17 18  1  0  0  0  0
 18 13  2  0  0  0  0
 21 17  1  0  0  0  0
 22 21  1  0  0  0  0
 23 24  1  0  0  0  0
 23 26  1  0  0  0  0
 23 25  1  0  0  0  0
M  END
>  <minimizedAffinity>
-4.77785921

$$$$

 OpenBabel03272503283D

 26 27  0  0  1  0  0  0  0  0999 V2000
   38.3780   22.6750   35.3540 N   0  0  0  0  0  0  0  0  0  0  0  0
   38.0120   23.8180   36.1310 C   0  0  0  0  0  0  0  0  0  0  0  0
   39.0420   23.8100   37.2550 C   0  0  2  0  0  0  0  0  0  0  0  0
   39.8610   22.5500   37.0570 C   0  0  0  0  0  0  0  0  0  0  0  0
   39.8000   22.4980   35.5330 C   0  0  0  0  0  0  0  0  0  0  0  0
   38.0040   24.7690   35.5660 H   0  0  0  0  0  0  0  0  0  0  0  0
   37.0070   23.7100   36.6180 H   0  0  0  0  0  0  0  0  0  0  0  0
   39.7320   24.6560   37.0740 H   0  0  0  0  0  0  0  0  0  0  0  0
   39.4250   21.6510   37.4900 H   0  0  0  0  0  0  0  0  0  0  0  0
   40.9080   22.7500   37.3820 H   0  0  0  0  0  0  0  0  0  0  0  0
   40.0780   21.4840   35.1880 H   0  0  0  0  0  0  0  0  0  0  0  0
   40.4160   23.3100   35.1000 H   0  0  0  0  0  0  0  0  0  0  0  0
   37.5200   21.8520   34.5500 C   0  0  0  0  0  0  0  0  0  0  0  0
   36.4160   21.2810   35.2000 C   0  0  0  0  0  0  0  0  0  0  0  0
   35.5730   20.4800   34.4290 C   0  0  0  0  0  0  0  0  0  0  0  0
   35.8920   20.3150   33.1050 N   0  0  0  0  0  0  0  0  0  0  0  0
   36.9510   20.8720   32.5160 C   0  0  0  0  0  0  0  0  0  0  0  0
   37.7720   21.6490   33.2530 N   0  0  0  0  0  0  0  0  0  0  0  0
   36.1690   21.4100   36.2300 H   0  0  0  0  0  0  0  0  0  0  0  0
   34.7140   20.0210   34.8880 H   0  0  0  0  0  0  0  0  0  0  0  0
   37.3140   20.6220   30.7970 S   0  0  0  0  0  0  0  0  0  0  0  0
   38.6280   20.9680   30.5080 H   0  0  0  0  0  0  0  0  0  0  0  0
   38.4210   23.8900   38.6150 C   0  0  0  0  0  0  0  0  0  0  0  0
   37.4110   22.9390   38.6400 F   0  0  0  0  0  0  0  0  0  0  0  0
   37.7990   25.1170   38.7130 F   0  0  0  0  0  0  0  0  0  0  0  0
   39.3060   23.7290   39.6360 F   0  0  0  0  0  0  0  0  0  0  0  0
  1  5  1  0  0  0  0
  1  2  1  0  0  0  0
  2  7  1  0  0  0  0
  2  3  1  0  0  0  0
  3  8  1  6  0  0  0
  3 23  1  0  0  0  0
  4  3  1  0  0  0  0
  4 10  1  0  0  0  0
  4  9  1  0  0  0  0
  5  4  1  0  0  0  0
  6  2  1  0  0  0  0
 11  5  1  0  0  0  0
 12  5  1  0  0  0  0
 13 14  1  0  0  0  0
 13  1  1  0  0  0  0
 14 19  1  0  0  0  0
 15 20  1  0  0  0  0
 15 14  2  0  0  0  0
 16 15  1  0  0  0  0
 17 16  2  0  0  0  0
 17 18  1  0  0  0  0
 18 13  2  0  0  0  0
 21 17  1  0  0  0  0
 22 21  1  0  0  0  0
 23 24  1  0  0  0  0
 23 25  1  0  0  0  0
 23 26  1  0  0  0  0
M  END
>  <minimizedAffinity>
-4.67687464

$$$$

 OpenBabel03272503283D

 26 27  0  0  1  0  0  0  0  0999 V2000
   38.4560   23.9170   36.1460 N   0  0  0  0  0  0  0  0  0  0  0  0
   39.2590   22.8320   35.6730 C   0  0  0  0  0  0  0  0  0  0  0  0
   39.8200   22.2380   36.9600 C   0  0  2  0  0  0  0  0  0  0  0  0
   39.3450   23.1470   38.0760 C   0  0  0  0  0  0  0  0  0  0  0  0
   38.0050   23.5450   37.4660 C   0  0  0  0  0  0  0  0  0  0  0  0
   38.7090   22.0900   35.0640 H   0  0  0  0  0  0  0  0  0  0  0  0
   40.1400   23.1750   35.0680 H   0  0  0  0  0  0  0  0  0  0  0  0
   39.3160   21.2660   37.1190 H   0  0  0  0  0  0  0  0  0  0  0  0
   39.9680   24.0240   38.2450 H   0  0  0  0  0  0  0  0  0  0  0  0
   39.1720   22.5290   38.9890 H   0  0  0  0  0  0  0  0  0  0  0  0
   37.6220   24.4490   37.9780 H   0  0  0  0  0  0  0  0  0  0  0  0
   37.3090   22.6850   37.4820 H   0  0  0  0  0  0  0  0  0  0  0  0
   38.1460   25.1400   35.4610 C   0  0  0  0  0  0  0  0  0  0  0  0
   38.3330   26.3260   36.1880 C   0  0  0  0  0  0  0  0  0  0  0  0
   38.0360   27.5210   35.5330 C   0  0  0  0  0  0  0  0  0  0  0  0
   37.5870   27.4410   34.2390 N   0  0  0  0  0  0  0  0  0  0  0  0
   37.4190   26.2970   33.5760 C   0  0  0  0  0  0  0  0  0  0  0  0
   37.7040   25.1340   34.2000 N   0  0  0  0  0  0  0  0  0  0  0  0
   38.6830   26.3860   37.1940 H   0  0  0  0  0  0  0  0  0  0  0  0
   38.1650   28.4550   36.0540 H   0  0  0  0  0  0  0  0  0  0  0  0
   36.8340   26.2540   31.9010 S   0  0  0  0  0  0  0  0  0  0  0  0
   36.3850   24.9860   31.5600 H   0  0  0  0  0  0  0  0  0  0  0  0
   41.3090   22.0870   36.9300 C   0  0  0  0  0  0  0  0  0  0  0  0
   41.6130   21.4410   35.7400 F   0  0  0  0  0  0  0  0  0  0  0  0
   41.6560   21.2160   37.9420 F   0  0  0  0  0  0  0  0  0  0  0  0
   41.9850   23.2600   37.0670 F   0  0  0  0  0  0  0  0  0  0  0  0
  1  5  1  0  0  0  0
  2  1  1  0  0  0  0
  2  3  1  0  0  0  0
  3  8  1  1  0  0  0
  3  4  1  0  0  0  0
  4  9  1  0  0  0  0
  4 10  1  0  0  0  0
  5 12  1  0  0  0  0
  5 11  1  0  0  0  0
  5  4  1  0  0  0  0
  6  2  1  0  0  0  0
  7  2  1  0  0  0  0
 13  1  1  0  0  0  0
 13 14  1  0  0  0  0
 14 19  1  0  0  0  0
 15 20  1  0  0  0  0
 15 14  2  0  0  0  0
 16 15  1  0  0  0  0
 17 18  1  0  0  0  0
 17 16  2  0  0  0  0
 18 13  2  0  0  0  0
 21 17  1  0  0  0  0
 22 21  1  0  0  0  0
 23  3  1  0  0  0  0
 23 26  1  0  0  0  0
 23 25  1  0  0  0  0
 24 23  1  0  0  0  0
M  END
>  <minimizedAffinity>
-4.61113882

$$$$

 OpenBabel03272503283D

 26 27  0  0  1  0  0  0  0  0999 V2000
   38.5880   23.7510   34.4320 N   0  0  0  0  0  0  0  0  0  0  0  0
   38.7620   24.6040   35.5670 C   0  0  0  0  0  0  0  0  0  0  0  0
   39.1990   23.6320   36.6580 C   0  0  2  0  0  0  0  0  0  0  0  0
   39.1260   22.2520   36.0360 C   0  0  0  0  0  0  0  0  0  0  0  0
   39.4980   22.6450   34.6100 C   0  0  0  0  0  0  0  0  0  0  0  0
   39.4850   25.4270   35.4120 H   0  0  0  0  0  0  0  0  0  0  0  0
   37.8000   25.0650   35.9160 H   0  0  0  0  0  0  0  0  0  0  0  0
   40.2710   23.8240   36.8560 H   0  0  0  0  0  0  0  0  0  0  0  0
   38.1390   21.7920   36.0640 H   0  0  0  0  0  0  0  0  0  0  0  0
   39.9340   21.6210   36.4730 H   0  0  0  0  0  0  0  0  0  0  0  0
   39.2070   21.8320   33.9170 H   0  0  0  0  0  0  0  0  0  0  0  0
   40.5670   22.9240   34.5590 H   0  0  0  0  0  0  0  0  0  0  0  0
   37.6930   23.9400   33.3250 C   0  0  0  0  0  0  0  0  0  0  0  0
   37.2430   22.7770   32.6820 C   0  0  0  0  0  0  0  0  0  0  0  0
   36.3730   22.9470   31.6050 C   0  0  0  0  0  0  0  0  0  0  0  0
   36.0310   24.2310   31.2630 N   0  0  0  0  0  0  0  0  0  0  0  0
   36.4770   25.3170   31.8950 C   0  0  0  0  0  0  0  0  0  0  0  0
   37.3190   25.1640   32.9380 N   0  0  0  0  0  0  0  0  0  0  0  0
   37.5100   21.7800   32.9500 H   0  0  0  0  0  0  0  0  0  0  0  0
   36.0030   22.0820   31.0820 H   0  0  0  0  0  0  0  0  0  0  0  0
   36.0000   26.9550   31.4070 S   0  0  0  0  0  0  0  0  0  0  0  0
   36.8590   27.9070   31.9400 H   0  0  0  0  0  0  0  0  0  0  0  0
   38.3800   23.7510   37.9050 C   0  0  0  0  0  0  0  0  0  0  0  0
   38.0250   25.0870   38.0150 F   0  0  0  0  0  0  0  0  0  0  0  0
   39.2110   23.4820   38.9720 F   0  0  0  0  0  0  0  0  0  0  0  0
   37.2970   22.9260   37.9340 F   0  0  0  0  0  0  0  0  0  0  0  0
  1  5  1  0  0  0  0
  1  2  1  0  0  0  0
  2  7  1  0  0  0  0
  2  3  1  0  0  0  0
  3  8  1  1  0  0  0
  3 23  1  0  0  0  0
  4  9  1  0  0  0  0
  4 10  1  0  0  0  0
  4  3  1  0  0  0  0
  5  4  1  0  0  0  0
  6  2  1  0  0  0  0
 11  5  1  0  0  0  0
 12  5  1  0  0  0  0
 13  1  1  0  0  0  0
 14 19  1  0  0  0  0
 14 13  2  0  0  0  0
 15 14  1  0  0  0  0
 16 15  2  0  0  0  0
 16 17  1  0  0  0  0
 17 18  2  0  0  0  0
 18 13  1  0  0  0  0
 20 15  1  0  0  0  0
 21 17  1  0  0  0  0
 21 22  1  0  0  0  0
 23 26  1  0  0  0  0
 23 24  1  0  0  0  0
 23 25  1  0  0  0  0
M  END
>  <minimizedAffinity>
-4.6081872

$$$$

 OpenBabel03272503283D

 26 27  0  0  1  0  0  0  0  0999 V2000
   37.0270   22.5360   31.8180 N   0  0  0  0  0  0  0  0  0  0  0  0
   36.8600   21.7760   33.0170 C   0  0  0  0  0  0  0  0  0  0  0  0
   36.6960   20.3520   32.4970 C   0  0  2  0  0  0  0  0  0  0  0  0
   36.6790   20.4630   30.9860 C   0  0  0  0  0  0  0  0  0  0  0  0
   37.6300   21.6490   30.8520 C   0  0  0  0  0  0  0  0  0  0  0  0
   37.6930   21.8740   33.7380 H   0  0  0  0  0  0  0  0  0  0  0  0
   35.9130   22.0280   33.5640 H   0  0  0  0  0  0  0  0  0  0  0  0
   37.6200   19.8010   32.7550 H   0  0  0  0  0  0  0  0  0  0  0  0
   35.7060   20.7000   30.5570 H   0  0  0  0  0  0  0  0  0  0  0  0
   37.1560   19.5510   30.5560 H   0  0  0  0  0  0  0  0  0  0  0  0
   37.5240   22.0940   29.8450 H   0  0  0  0  0  0  0  0  0  0  0  0
   38.6620   21.3390   31.1050 H   0  0  0  0  0  0  0  0  0  0  0  0
   36.6720   23.9100   31.5960 C   0  0  0  0  0  0  0  0  0  0  0  0
   35.3690   24.1500   31.1340 C   0  0  0  0  0  0  0  0  0  0  0  0
   35.0120   25.4810   30.9160 C   0  0  0  0  0  0  0  0  0  0  0  0
   35.9600   26.4410   31.1660 N   0  0  0  0  0  0  0  0  0  0  0  0
   37.1920   26.1800   31.6050 C   0  0  0  0  0  0  0  0  0  0  0  0
   37.5470   24.8950   31.8210 N   0  0  0  0  0  0  0  0  0  0  0  0
   34.6340   23.4030   30.9400 H   0  0  0  0  0  0  0  0  0  0  0  0
   34.0220   25.7110   30.5610 H   0  0  0  0  0  0  0  0  0  0  0  0
   38.3760   27.4650   31.9130 S   0  0  0  0  0  0  0  0  0  0  0  0
   39.6640   26.9500   31.9880 H   0  0  0  0  0  0  0  0  0  0  0  0
   35.4790   19.6700   33.0420 C   0  0  0  0  0  0  0  0  0  0  0  0
   35.3810   20.0490   34.3720 F   0  0  0  0  0  0  0  0  0  0  0  0
   35.7310   18.3140   33.0430 F   0  0  0  0  0  0  0  0  0  0  0  0
   34.3400   19.9360   32.3440 F   0  0  0  0  0  0  0  0  0  0  0  0
  1  2  1  0  0  0  0
  2  7  1  0  0  0  0
  2  6  1  0  0  0  0
  3  8  1  1  0  0  0
  3  2  1  0  0  0  0
  3 23  1  0  0  0  0
  4  3  1  0  0  0  0
  5  4  1  0  0  0  0
  5 12  1  0  0  0  0
  5  1  1  0  0  0  0
  9  4  1  0  0  0  0
 10  4  1  0  0  0  0
 11  5  1  0  0  0  0
 13  1  1  0  0  0  0
 13 18  1  0  0  0  0
 14 13  2  0  0  0  0
 15 14  1  0  0  0  0
 15 16  2  0  0  0  0
 16 17  1  0  0  0  0
 17 18  2  0  0  0  0
 17 21  1  0  0  0  0
 19 14  1  0  0  0  0
 20 15  1  0  0  0  0
 21 22  1  0  0  0  0
 23 25  1  0  0  0  0
 23 24  1  0  0  0  0
 26 23  1  0  0  0  0
M  END
>  <minimizedAffinity>
-4.5281496

$$$$

 OpenBabel03272503283D

 26 27  0  0  1  0  0  0  0  0999 V2000
   37.4000   22.4430   32.9880 N   0  0  0  0  0  0  0  0  0  0  0  0
   37.3240   21.0430   32.7060 C   0  0  0  0  0  0  0  0  0  0  0  0
   36.1020   20.9440   31.7990 C   0  0  2  0  0  0  0  0  0  0  0  0
   35.5190   22.3420   31.7380 C   0  0  0  0  0  0  0  0  0  0  0  0
   36.8270   23.1200   31.8490 C   0  0  0  0  0  0  0  0  0  0  0  0
   38.2360   20.6210   32.2430 H   0  0  0  0  0  0  0  0  0  0  0  0
   37.0960   20.4270   33.6170 H   0  0  0  0  0  0  0  0  0  0  0  0
   36.4690   20.7190   30.7790 H   0  0  0  0  0  0  0  0  0  0  0  0
   34.8500   22.5920   32.5600 H   0  0  0  0  0  0  0  0  0  0  0  0
   35.0760   22.5000   30.7260 H   0  0  0  0  0  0  0  0  0  0  0  0
   36.6090   24.1670   32.1320 H   0  0  0  0  0  0  0  0  0  0  0  0
   37.4130   23.0140   30.9170 H   0  0  0  0  0  0  0  0  0  0  0  0
   37.9360   23.0710   34.1630 C   0  0  0  0  0  0  0  0  0  0  0  0
   38.0880   22.2530   35.2920 C   0  0  0  0  0  0  0  0  0  0  0  0
   38.6080   22.8520   36.4400 C   0  0  0  0  0  0  0  0  0  0  0  0
   38.9250   24.1850   36.3720 N   0  0  0  0  0  0  0  0  0  0  0  0
   38.7670   24.9360   35.2820 C   0  0  0  0  0  0  0  0  0  0  0  0
   38.2650   24.3660   34.1660 N   0  0  0  0  0  0  0  0  0  0  0  0
   37.8410   21.2160   35.3440 H   0  0  0  0  0  0  0  0  0  0  0  0
   38.7410   22.2610   37.3310 H   0  0  0  0  0  0  0  0  0  0  0  0
   39.1950   26.6580   35.2530 S   0  0  0  0  0  0  0  0  0  0  0  0
   38.6050   27.3020   34.1730 H   0  0  0  0  0  0  0  0  0  0  0  0
   35.1120   19.9230   32.2640 C   0  0  0  0  0  0  0  0  0  0  0  0
   35.3470   19.7390   33.6190 F   0  0  0  0  0  0  0  0  0  0  0  0
   35.4310   18.7290   31.6510 F   0  0  0  0  0  0  0  0  0  0  0  0
   33.8170   20.2520   32.0050 F   0  0  0  0  0  0  0  0  0  0  0  0
  1 13  1  0  0  0  0
  2  1  1  0  0  0  0
  2  7  1  0  0  0  0
  3  8  1  6  0  0  0
  3 23  1  0  0  0  0
  3  2  1  0  0  0  0
  4  3  1  0  0  0  0
  4  5  1  0  0  0  0
  4  9  1  0  0  0  0
  5 11  1  0  0  0  0
  5  1  1  0  0  0  0
  6  2  1  0  0  0  0
 10  4  1  0  0  0  0
 12  5  1  0  0  0  0
 13 18  2  0  0  0  0
 13 14  1  0  0  0  0
 14 19  1  0  0  0  0
 14 15  2  0  0  0  0
 15 20  1  0  0  0  0
 16 15  1  0  0  0  0
 17 16  2  0  0  0  0
 18 17  1  0  0  0  0
 21 17  1  0  0  0  0
 22 21  1  0  0  0  0
 23 24  1  0  0  0  0
 25 23  1  0  0  0  0
 26 23  1  0  0  0  0
M  END
>  <minimizedAffinity>
-4.5022316

$$$$

 OpenBabel03272503283D

 26 27  0  0  1  0  0  0  0  0999 V2000
   38.2820   24.4500   34.2210 N   0  0  0  0  0  0  0  0  0  0  0  0
   37.9690   25.0800   35.4670 C   0  0  0  0  0  0  0  0  0  0  0  0
   38.9340   24.4090   36.4390 C   0  0  2  0  0  0  0  0  0  0  0  0
   39.6560   23.3450   35.6360 C   0  0  0  0  0  0  0  0  0  0  0  0
   39.6720   24.0700   34.2940 C   0  0  0  0  0  0  0  0  0  0  0  0
   38.0700   26.1820   35.4580 H   0  0  0  0  0  0  0  0  0  0  0  0
   36.9340   24.8420   35.8280 H   0  0  0  0  0  0  0  0  0  0  0  0
   39.6990   25.1600   36.7120 H   0  0  0  0  0  0  0  0  0  0  0  0
   39.1250   22.3970   35.5560 H   0  0  0  0  0  0  0  0  0  0  0  0
   40.6970   23.2510   36.0230 H   0  0  0  0  0  0  0  0  0  0  0  0
   39.8840   23.3430   33.4860 H   0  0  0  0  0  0  0  0  0  0  0  0
   40.3750   24.9240   34.3310 H   0  0  0  0  0  0  0  0  0  0  0  0
   37.4020   24.2300   33.1080 C   0  0  0  0  0  0  0  0  0  0  0  0
   36.8860   25.3760   32.4860 C   0  0  0  0  0  0  0  0  0  0  0  0
   36.0300   25.1740   31.4020 C   0  0  0  0  0  0  0  0  0  0  0  0
   35.7640   23.8790   31.0360 N   0  0  0  0  0  0  0  0  0  0  0  0
   36.2720   22.8100   31.6500 C   0  0  0  0  0  0  0  0  0  0  0  0
   37.1010   22.9930   32.6990 N   0  0  0  0  0  0  0  0  0  0  0  0
   37.0930   26.3820   32.7710 H   0  0  0  0  0  0  0  0  0  0  0  0
   35.6100   26.0260   30.8950 H   0  0  0  0  0  0  0  0  0  0  0  0
   35.8920   21.1560   31.1310 S   0  0  0  0  0  0  0  0  0  0  0  0
   36.2110   20.2350   32.1200 H   0  0  0  0  0  0  0  0  0  0  0  0
   38.2490   23.8570   37.6500 C   0  0  0  0  0  0  0  0  0  0  0  0
   38.0080   24.9350   38.4890 F   0  0  0  0  0  0  0  0  0  0  0  0
   39.1570   23.0520   38.3060 F   0  0  0  0  0  0  0  0  0  0  0  0
   37.1160   23.1570   37.3710 F   0  0  0  0  0  0  0  0  0  0  0  0
  1  5  1  0  0  0  0
  1  2  1  0  0  0  0
  2  7  1  0  0  0  0
  2  3  1  0  0  0  0
  3  8  1  1  0  0  0
  3 23  1  0  0  0  0
  4 10  1  0  0  0  0
  4  3  1  0  0  0  0
  5 12  1  0  0  0  0
  5  4  1  0  0  0  0
  6  2  1  0  0  0  0
  9  4  1  0  0  0  0
 11  5  1  0  0  0  0
 13  1  1  0  0  0  0
 14 19  1  0  0  0  0
 14 13  2  0  0  0  0
 15 14  1  0  0  0  0
 16 15  2  0  0  0  0
 16 17  1  0  0  0  0
 17 18  2  0  0  0  0
 18 13  1  0  0  0  0
 20 15  1  0  0  0  0
 21 17  1  0  0  0  0
 21 22  1  0  0  0  0
 23 25  1  0  0  0  0
 23 24  1  0  0  0  0
 26 23  1  0  0  0  0
M  END
>  <minimizedAffinity>
-4.4442997

$$$$

 OpenBabel03272503283D

 26 27  0  0  1  0  0  0  0  0999 V2000
   38.1680   25.2880   34.4280 N   0  0  0  0  0  0  0  0  0  0  0  0
   38.7700   25.4680   35.7120 C   0  0  0  0  0  0  0  0  0  0  0  0
   38.8790   24.0410   36.2400 C   0  0  2  0  0  0  0  0  0  0  0  0
   38.2040   23.1650   35.2050 C   0  0  0  0  0  0  0  0  0  0  0  0
   38.5710   23.9800   33.9690 C   0  0  0  0  0  0  0  0  0  0  0  0
   39.7450   25.9910   35.6890 H   0  0  0  0  0  0  0  0  0  0  0  0
   38.1100   26.0240   36.4290 H   0  0  0  0  0  0  0  0  0  0  0  0
   39.9510   23.7670   36.2230 H   0  0  0  0  0  0  0  0  0  0  0  0
   37.1220   23.0890   35.3090 H   0  0  0  0  0  0  0  0  0  0  0  0
   38.7280   22.1810   35.1740 H   0  0  0  0  0  0  0  0  0  0  0  0
   37.9180   23.6830   33.1260 H   0  0  0  0  0  0  0  0  0  0  0  0
   39.6530   23.8860   33.7590 H   0  0  0  0  0  0  0  0  0  0  0  0
   37.3270   26.2100   33.7190 C   0  0  0  0  0  0  0  0  0  0  0  0
   36.9580   25.8420   32.4160 C   0  0  0  0  0  0  0  0  0  0  0  0
   36.1410   26.7310   31.7170 C   0  0  0  0  0  0  0  0  0  0  0  0
   35.7670   27.8860   32.3560 N   0  0  0  0  0  0  0  0  0  0  0  0
   36.1360   28.2070   33.5960 C   0  0  0  0  0  0  0  0  0  0  0  0
   36.9260   27.3540   34.2820 N   0  0  0  0  0  0  0  0  0  0  0  0
   37.2500   24.9440   31.9210 H   0  0  0  0  0  0  0  0  0  0  0  0
   35.8340   26.4890   30.7130 H   0  0  0  0  0  0  0  0  0  0  0  0
   35.6210   29.7180   34.3720 S   0  0  0  0  0  0  0  0  0  0  0  0
   36.4120   30.0080   35.4760 H   0  0  0  0  0  0  0  0  0  0  0  0
   38.2930   23.8810   37.6080 C   0  0  0  0  0  0  0  0  0  0  0  0
   37.0690   23.2500   37.4380 F   0  0  0  0  0  0  0  0  0  0  0  0
   38.0130   25.1430   38.0880 F   0  0  0  0  0  0  0  0  0  0  0  0
   39.1000   23.2150   38.4790 F   0  0  0  0  0  0  0  0  0  0  0  0
  1  2  1  0  0  0  0
  2  3  1  0  0  0  0
  2  7  1  0  0  0  0
  3  8  1  1  0  0  0
  3 23  1  0  0  0  0
  4  9  1  0  0  0  0
  4  3  1  0  0  0  0
  5  1  1  0  0  0  0
  5  4  1  0  0  0  0
  6  2  1  0  0  0  0
 10  4  1  0  0  0  0
 11  5  1  0  0  0  0
 12  5  1  0  0  0  0
 13 18  1  0  0  0  0
 13  1  1  0  0  0  0
 14 13  2  0  0  0  0
 15 16  2  0  0  0  0
 15 14  1  0  0  0  0
 16 17  1  0  0  0  0
 17 18  2  0  0  0  0
 17 21  1  0  0  0  0
 19 14  1  0  0  0  0
 20 15  1  0  0  0  0
 21 22  1  0  0  0  0
 23 25  1  0  0  0  0
 23 26  1  0  0  0  0
 24 23  1  0  0  0  0
M  END
>  <minimizedAffinity>
-4.43957567

$$$$

 OpenBabel03272503283D

 26 27  0  0  1  0  0  0  0  0999 V2000
   37.4110   23.0450   32.6270 N   0  0  0  0  0  0  0  0  0  0  0  0
   37.3090   21.9740   33.5690 C   0  0  0  0  0  0  0  0  0  0  0  0
   36.7350   20.8370   32.7310 C   0  0  2  0  0  0  0  0  0  0  0  0
   36.4570   21.4300   31.3640 C   0  0  0  0  0  0  0  0  0  0  0  0
   37.6060   22.4330   31.3340 C   0  0  0  0  0  0  0  0  0  0  0  0
   38.2650   21.7050   34.0570 H   0  0  0  0  0  0  0  0  0  0  0  0
   36.5640   22.1790   34.3830 H   0  0  0  0  0  0  0  0  0  0  0  0
   37.5440   20.0960   32.5860 H   0  0  0  0  0  0  0  0  0  0  0  0
   35.4980   21.9390   31.2760 H   0  0  0  0  0  0  0  0  0  0  0  0
   36.6270   20.6430   30.5930 H   0  0  0  0  0  0  0  0  0  0  0  0
   37.4120   23.1900   30.5500 H   0  0  0  0  0  0  0  0  0  0  0  0
   38.5710   21.9030   31.2240 H   0  0  0  0  0  0  0  0  0  0  0  0
   37.3360   24.4540   32.8920 C   0  0  0  0  0  0  0  0  0  0  0  0
   36.6420   25.2290   31.9510 C   0  0  0  0  0  0  0  0  0  0  0  0
   36.5620   26.6000   32.1990 C   0  0  0  0  0  0  0  0  0  0  0  0
   37.1680   27.0760   33.3340 N   0  0  0  0  0  0  0  0  0  0  0  0
   37.8210   26.3120   34.2100 C   0  0  0  0  0  0  0  0  0  0  0  0
   37.9040   24.9840   33.9800 N   0  0  0  0  0  0  0  0  0  0  0  0
   36.1720   24.8580   31.0690 H   0  0  0  0  0  0  0  0  0  0  0  0
   36.0390   27.2330   31.5020 H   0  0  0  0  0  0  0  0  0  0  0  0
   38.5860   26.9840   35.6630 S   0  0  0  0  0  0  0  0  0  0  0  0
   39.5050   26.0930   36.2030 H   0  0  0  0  0  0  0  0  0  0  0  0
   35.5230   20.2130   33.3500 C   0  0  0  0  0  0  0  0  0  0  0  0
   35.6860   18.8400   33.2330 F   0  0  0  0  0  0  0  0  0  0  0  0
   34.4410   20.5420   32.5610 F   0  0  0  0  0  0  0  0  0  0  0  0
   35.3010   20.5980   34.6370 F   0  0  0  0  0  0  0  0  0  0  0  0
  1 13  1  0  0  0  0
  1  2  1  0  0  0  0
  2  6  1  0  0  0  0
  2  7  1  0  0  0  0
  3  8  1  6  0  0  0
  3 23  1  0  0  0  0
  3  2  1  0  0  0  0
  4  3  1  0  0  0  0
  5  4  1  0  0  0  0
  5  1  1  0  0  0  0
  9  4  1  0  0  0  0
 10  4  1  0  0  0  0
 11  5  1  0  0  0  0
 12  5  1  0  0  0  0
 13 18  1  0  0  0  0
 14 15  1  0  0  0  0
 14 13  2  0  0  0  0
 15 16  2  0  0  0  0
 16 17  1  0  0  0  0
 17 21  1  0  0  0  0
 18 17  2  0  0  0  0
 19 14  1  0  0  0  0
 20 15  1  0  0  0  0
 21 22  1  0  0  0  0
 23 26  1  0  0  0  0
 24 23  1  0  0  0  0
 25 23  1  0  0  0  0
M  END
>  <minimizedAffinity>
-4.41917276

$$$$
