
 OpenBabel03262520183D

 11 11  0  0  0  0  0  0  0  0999 V2000
   38.1760   23.5520   38.1120 C   0  0  0  0  0  0  0  0  0  0  0  0
   39.5010   23.0950   38.1510 C   0  0  0  0  0  0  0  0  0  0  0  0
   39.9660   22.3650   37.0580 C   0  0  0  0  0  0  0  0  0  0  0  0
   39.1120   22.1380   36.0230 N   0  0  0  0  0  0  0  0  0  0  0  0
   37.8470   22.5910   36.0200 C   0  0  0  0  0  0  0  0  0  0  0  0
   37.3760   23.2990   37.0650 N   0  0  0  0  0  0  0  0  0  0  0  0
   37.8260   24.1130   38.9560 H   0  0  0  0  0  0  0  0  0  0  0  0
   40.1930   23.2670   38.9640 H   0  0  0  0  0  0  0  0  0  0  0  0
   37.1520   22.4200   35.2050 H   0  0  0  0  0  0  0  0  0  0  0  0
   41.6220   21.7040   36.9310 S   0  0  0  0  0  0  0  0  0  0  0  0
   41.6300   20.2930   36.9990 H   0  0  0  0  0  0  0  0  0  0  0  0
  1  2  1  0  0  0  0
  1  7  1  0  0  0  0
  2  8  1  0  0  0  0
  3  2  2  0  0  0  0
  4  3  1  0  0  0  0
  5  4  2  0  0  0  0
  5  6  1  0  0  0  0
  6  1  2  0  0  0  0
  9  5  1  0  0  0  0
 10 11  1  0  0  0  0
 10  3  1  0  0  0  0
M  END
>  <minimizedAffinity>
-2.68276715

$$$$

 OpenBabel03262520183D

 11 11  0  0  0  0  0  0  0  0999 V2000
   40.0310   22.6980   37.6670 C   0  0  0  0  0  0  0  0  0  0  0  0
   39.7260   22.2960   36.3580 C   0  0  0  0  0  0  0  0  0  0  0  0
   38.4200   22.4890   35.9090 C   0  0  0  0  0  0  0  0  0  0  0  0
   37.5210   23.0540   36.7610 N   0  0  0  0  0  0  0  0  0  0  0  0
   37.8490   23.4280   38.0100 C   0  0  0  0  0  0  0  0  0  0  0  0
   39.1040   23.2500   38.4660 N   0  0  0  0  0  0  0  0  0  0  0  0
   41.0360   22.5460   38.0060 H   0  0  0  0  0  0  0  0  0  0  0  0
   40.4270   21.8470   35.6690 H   0  0  0  0  0  0  0  0  0  0  0  0
   37.1470   23.8780   38.7030 H   0  0  0  0  0  0  0  0  0  0  0  0
   37.8500   22.0410   34.2760 S   0  0  0  0  0  0  0  0  0  0  0  0
   36.9400   20.9610   34.3170 H   0  0  0  0  0  0  0  0  0  0  0  0
  1  7  1  0  0  0  0
  1  6  1  0  0  0  0
  2  1  2  0  0  0  0
  3  2  1  0  0  0  0
  3  4  2  0  0  0  0
  4  5  1  0  0  0  0
  5  6  2  0  0  0  0
  5  9  1  0  0  0  0
  8  2  1  0  0  0  0
 10 11  1  0  0  0  0
 10  3  1  0  0  0  0
M  END
>  <minimizedAffinity>
-2.65802598

$$$$

 OpenBabel03262520183D

 11 11  0  0  0  0  0  0  0  0999 V2000
   37.9390   24.1460   38.2370 C   0  0  0  0  0  0  0  0  0  0  0  0
   37.7690   24.4820   36.8860 C   0  0  0  0  0  0  0  0  0  0  0  0
   38.6690   23.9430   35.9680 C   0  0  0  0  0  0  0  0  0  0  0  0
   39.6560   23.1280   36.4320 N   0  0  0  0  0  0  0  0  0  0  0  0
   39.7890   22.8290   37.7350 C   0  0  0  0  0  0  0  0  0  0  0  0
   38.9300   23.3370   38.6410 N   0  0  0  0  0  0  0  0  0  0  0  0
   37.2430   24.5640   38.9370 H   0  0  0  0  0  0  0  0  0  0  0  0
   36.9920   25.1260   36.5000 H   0  0  0  0  0  0  0  0  0  0  0  0
   40.5670   22.1820   38.1250 H   0  0  0  0  0  0  0  0  0  0  0  0
   38.6100   24.2570   34.2090 S   0  0  0  0  0  0  0  0  0  0  0  0
   39.7040   25.0390   33.7790 H   0  0  0  0  0  0  0  0  0  0  0  0
  1  6  1  0  0  0  0
  1  7  1  0  0  0  0
  2  1  2  0  0  0  0
  3  4  2  0  0  0  0
  3  2  1  0  0  0  0
  4  5  1  0  0  0  0
  5  9  1  0  0  0  0
  5  6  2  0  0  0  0
  8  2  1  0  0  0  0
 10  3  1  0  0  0  0
 11 10  1  0  0  0  0
M  END
>  <minimizedAffinity>
-2.60042572

$$$$

 OpenBabel03262520183D

 11 11  0  0  0  0  0  0  0  0999 V2000
   37.7960   23.2300   37.1420 C   0  0  0  0  0  0  0  0  0  0  0  0
   37.9750   24.6210   37.1790 C   0  0  0  0  0  0  0  0  0  0  0  0
   38.2550   25.2690   35.9780 C   0  0  0  0  0  0  0  0  0  0  0  0
   38.3390   24.5210   34.8430 N   0  0  0  0  0  0  0  0  0  0  0  0
   38.1620   23.1890   34.8450 C   0  0  0  0  0  0  0  0  0  0  0  0
   37.8910   22.5400   35.9950 N   0  0  0  0  0  0  0  0  0  0  0  0
   37.5820   22.7380   38.0700 H   0  0  0  0  0  0  0  0  0  0  0  0
   37.9120   25.2300   38.0700 H   0  0  0  0  0  0  0  0  0  0  0  0
   38.2260   22.5750   33.9530 H   0  0  0  0  0  0  0  0  0  0  0  0
   38.5120   27.0320   35.8310 S   0  0  0  0  0  0  0  0  0  0  0  0
   39.8530   27.3420   35.5120 H   0  0  0  0  0  0  0  0  0  0  0  0
  1  2  1  0  0  0  0
  1  7  1  0  0  0  0
  2  8  1  0  0  0  0
  3  2  2  0  0  0  0
  4  5  2  0  0  0  0
  4  3  1  0  0  0  0
  5  6  1  0  0  0  0
  6  1  2  0  0  0  0
  9  5  1  0  0  0  0
 10  3  1  0  0  0  0
 11 10  1  0  0  0  0
M  END
>  <minimizedAffinity>
-2.46651244

$$$$

 OpenBabel03262520183D

 11 11  0  0  0  0  0  0  0  0999 V2000
   38.1420   23.0960   35.1320 C   0  0  0  0  0  0  0  0  0  0  0  0
   38.3560   24.4580   34.8740 C   0  0  0  0  0  0  0  0  0  0  0  0
   38.2930   25.3390   35.9520 C   0  0  0  0  0  0  0  0  0  0  0  0
   38.0290   24.8310   37.1870 N   0  0  0  0  0  0  0  0  0  0  0  0
   37.8280   23.5190   37.3970 C   0  0  0  0  0  0  0  0  0  0  0  0
   37.8840   22.6490   36.3700 N   0  0  0  0  0  0  0  0  0  0  0  0
   38.1920   22.4250   34.2980 H   0  0  0  0  0  0  0  0  0  0  0  0
   38.5680   24.8780   33.9000 H   0  0  0  0  0  0  0  0  0  0  0  0
   37.6150   23.0950   38.3730 H   0  0  0  0  0  0  0  0  0  0  0  0
   38.5400   27.1040   35.8140 S   0  0  0  0  0  0  0  0  0  0  0  0
   37.3460   27.8200   36.0500 H   0  0  0  0  0  0  0  0  0  0  0  0
  1  6  1  0  0  0  0
  2  1  2  0  0  0  0
  2  3  1  0  0  0  0
  3  4  2  0  0  0  0
  4  5  1  0  0  0  0
  5  9  1  0  0  0  0
  6  5  2  0  0  0  0
  7  1  1  0  0  0  0
  8  2  1  0  0  0  0
 10  3  1  0  0  0  0
 10 11  1  0  0  0  0
M  END
>  <minimizedAffinity>
-2.41373563

$$$$

 OpenBabel03262520183D

 11 11  0  0  0  0  0  0  0  0999 V2000
   40.1470   22.3750   35.1950 C   0  0  0  0  0  0  0  0  0  0  0  0
   39.1270   23.0650   35.8680 C   0  0  0  0  0  0  0  0  0  0  0  0
   39.2050   23.1430   37.2580 C   0  0  0  0  0  0  0  0  0  0  0  0
   40.2610   22.5480   37.8790 N   0  0  0  0  0  0  0  0  0  0  0  0
   41.2200   21.8950   37.2020 C   0  0  0  0  0  0  0  0  0  0  0  0
   41.1650   21.8070   35.8590 N   0  0  0  0  0  0  0  0  0  0  0  0
   40.0790   22.3200   34.1270 H   0  0  0  0  0  0  0  0  0  0  0  0
   38.2830   23.5430   35.3910 H   0  0  0  0  0  0  0  0  0  0  0  0
   42.0680   21.4140   37.6780 H   0  0  0  0  0  0  0  0  0  0  0  0
   38.0010   23.9790   38.2810 S   0  0  0  0  0  0  0  0  0  0  0  0
   37.2580   23.0700   39.0640 H   0  0  0  0  0  0  0  0  0  0  0  0
  1  6  2  0  0  0  0
  1  2  1  0  0  0  0
  2  3  2  0  0  0  0
  3  4  1  0  0  0  0
  3 10  1  0  0  0  0
  5  9  1  0  0  0  0
  5  4  2  0  0  0  0
  6  5  1  0  0  0  0
  7  1  1  0  0  0  0
  8  2  1  0  0  0  0
 10 11  1  0  0  0  0
M  END
>  <minimizedAffinity>
-2.3648715

$$$$

 OpenBabel03262520183D

 11 11  0  0  0  0  0  0  0  0999 V2000
   38.3070   26.7580   36.0830 C   0  0  0  0  0  0  0  0  0  0  0  0
   38.1390   25.3860   36.3220 C   0  0  0  0  0  0  0  0  0  0  0  0
   39.0790   24.5140   35.7760 C   0  0  0  0  0  0  0  0  0  0  0  0
   40.1000   25.0400   35.0450 N   0  0  0  0  0  0  0  0  0  0  0  0
   40.2300   26.3600   34.8350 C   0  0  0  0  0  0  0  0  0  0  0  0
   39.3330   27.2230   35.3540 N   0  0  0  0  0  0  0  0  0  0  0  0
   37.5800   27.4220   36.5060 H   0  0  0  0  0  0  0  0  0  0  0  0
   37.3350   24.9520   36.9000 H   0  0  0  0  0  0  0  0  0  0  0  0
   41.0350   26.7990   34.2560 H   0  0  0  0  0  0  0  0  0  0  0  0
   39.0280   22.7380   35.9760 S   0  0  0  0  0  0  0  0  0  0  0  0
   38.7340   22.0820   34.7610 H   0  0  0  0  0  0  0  0  0  0  0  0
  1  2  1  0  0  0  0
  1  7  1  0  0  0  0
  2  8  1  0  0  0  0
  3 10  1  0  0  0  0
  3  2  2  0  0  0  0
  4  3  1  0  0  0  0
  5  4  2  0  0  0  0
  5  6  1  0  0  0  0
  6  1  2  0  0  0  0
  9  5  1  0  0  0  0
 11 10  1  0  0  0  0
M  END
>  <minimizedAffinity>
-2.32743621

$$$$

 OpenBabel03262520183D

 11 11  0  0  0  0  0  0  0  0999 V2000
   38.2040   26.5180   36.0800 C   0  0  0  0  0  0  0  0  0  0  0  0
   39.2170   27.1450   35.3380 C   0  0  0  0  0  0  0  0  0  0  0  0
   40.2230   26.3400   34.8080 C   0  0  0  0  0  0  0  0  0  0  0  0
   40.1670   24.9990   35.0390 N   0  0  0  0  0  0  0  0  0  0  0  0
   39.1820   24.4330   35.7560 C   0  0  0  0  0  0  0  0  0  0  0  0
   38.1980   25.1910   36.2780 N   0  0  0  0  0  0  0  0  0  0  0  0
   37.4340   27.1440   36.4850 H   0  0  0  0  0  0  0  0  0  0  0  0
   39.2760   28.2070   35.1450 H   0  0  0  0  0  0  0  0  0  0  0  0
   39.1200   23.3680   35.9510 H   0  0  0  0  0  0  0  0  0  0  0  0
   41.5910   26.9600   33.8370 S   0  0  0  0  0  0  0  0  0  0  0  0
   42.8170   26.8460   34.5280 H   0  0  0  0  0  0  0  0  0  0  0  0
  1  6  1  0  0  0  0
  1  7  1  0  0  0  0
  2  1  2  0  0  0  0
  3  4  2  0  0  0  0
  3  2  1  0  0  0  0
  4  5  1  0  0  0  0
  5  9  1  0  0  0  0
  5  6  2  0  0  0  0
  8  2  1  0  0  0  0
 10 11  1  0  0  0  0
 10  3  1  0  0  0  0
M  END
>  <minimizedAffinity>
-2.32076216

$$$$

 OpenBabel03262520183D

 11 11  0  0  0  0  0  0  0  0999 V2000
   40.2150   26.2730   34.8580 C   0  0  0  0  0  0  0  0  0  0  0  0
   40.0210   24.8950   35.0380 C   0  0  0  0  0  0  0  0  0  0  0  0
   38.9190   24.4890   35.7890 C   0  0  0  0  0  0  0  0  0  0  0  0
   38.1000   25.4470   36.3040 N   0  0  0  0  0  0  0  0  0  0  0  0
   38.3170   26.7590   36.1120 C   0  0  0  0  0  0  0  0  0  0  0  0
   39.3750   27.1750   35.3890 N   0  0  0  0  0  0  0  0  0  0  0  0
   41.0640   26.5770   34.2790 H   0  0  0  0  0  0  0  0  0  0  0  0
   40.6610   24.1220   34.6360 H   0  0  0  0  0  0  0  0  0  0  0  0
   37.6770   27.5370   36.5140 H   0  0  0  0  0  0  0  0  0  0  0  0
   38.5130   22.7810   36.1220 S   0  0  0  0  0  0  0  0  0  0  0  0
   38.6910   22.4550   37.4840 H   0  0  0  0  0  0  0  0  0  0  0  0
  1  2  2  0  0  0  0
  1  6  1  0  0  0  0
  2  3  1  0  0  0  0
  3 10  1  0  0  0  0
  3  4  2  0  0  0  0
  5  4  1  0  0  0  0
  5  9  1  0  0  0  0
  6  5  2  0  0  0  0
  7  1  1  0  0  0  0
  8  2  1  0  0  0  0
 10 11  1  0  0  0  0
M  END
>  <minimizedAffinity>
-2.29071403

$$$$
