REMARK  Name = 
REMARK  4 active torsions:
REMARK  status: ('A' for Active; 'I' for Inactive)
REMARK    1  A    between atoms: C_1  and  O_12
REMARK    2  A    between atoms: C_2  and  C_8
REMARK    3  A    between atoms: O_12  and  C_15
REMARK    4  A    between atoms: C_19  and  S_32
REMARK                            x       y       z     vdW  Elec       q    Type
REMARK                         _______ _______ _______ _____ _____    ______ ____
ROOT
ATOM      1  C   UNL     1      38.958  32.365  47.795  0.00  0.00    +0.000 C 
ATOM      2  C   UNL     1      38.008  32.745  48.969  0.00  0.00    +0.000 C 
ATOM      3  C   UNL     1      38.893  33.547  49.801  0.00  0.00    +0.000 C 
ATOM      4  O   UNL     1      39.715  34.281  48.951  0.00  0.00    +0.000 OA
ATOM      5  C   UNL     1      39.640  33.754  47.710  0.00  0.00    +0.000 C 
ATOM      6  H   UNL     1      39.687  31.614  48.088  0.00  0.00    +0.000 HD
ATOM      7  H   UNL     1      37.222  33.360  48.474  0.00  0.00    +0.000 HD
ATOM      8  H   UNL     1      38.296  34.310  50.382  0.00  0.00    +0.000 HD
ATOM      9  H   UNL     1      39.490  33.014  50.550  0.00  0.00    +0.000 HD
ATOM     10  H   UNL     1      40.697  33.513  47.394  0.00  0.00    +0.000 HD
ATOM     11  H   UNL     1      39.211  34.362  46.915  0.00  0.00    +0.000 HD
ENDROOT
BRANCH   2  14
ATOM     12  C   UNL     1      37.361  29.697  51.086  0.00  0.00    +0.000 A 
ATOM     13  C   UNL     1      38.039  30.832  50.561  0.00  0.00    +0.000 A 
ATOM     14  C   UNL     1      37.375  31.584  49.555  0.00  0.00    +0.000 A 
ATOM     15  N   UNL     1      36.122  31.189  49.137  0.00  0.00    +0.000 NA
ATOM     16  C   UNL     1      35.528  30.114  49.662  0.00  0.00    +0.000 A 
ATOM     17  N   UNL     1      36.123  29.366  50.624  0.00  0.00    +0.000 NA
ATOM     18  H   UNL     1      37.862  29.123  51.849  0.00  0.00    +0.000 HD
ATOM     19  H   UNL     1      39.017  31.086  50.930  0.00  0.00    +0.000 HD
ATOM     20  H   UNL     1      34.552  29.888  49.270  0.00  0.00    +0.000 HD
ENDBRANCH   2  14
BRANCH   1  21
ATOM     21  O   UNL     1      38.277  32.134  46.645  0.00  0.00    +0.000 OA
BRANCH  21  24
ATOM     22 CL   UNL     1      40.946  31.264  45.371  0.00  0.00    +0.000 Cl
ATOM     23  C   UNL     1      39.351  30.694  44.899  0.00  0.00    +0.000 A 
ATOM     24  C   UNL     1      38.313  31.246  45.638  0.00  0.00    +0.000 A 
ATOM     25  C   UNL     1      37.059  30.796  45.269  0.00  0.00    +0.000 A 
ATOM     26  C   UNL     1      36.864  29.879  44.254  0.00  0.00    +0.000 A 
ATOM     27  C   UNL     1      37.947  29.379  43.567  0.00  0.00    +0.000 A 
ATOM     28  C   UNL     1      39.226  29.783  43.882  0.00  0.00    +0.000 A 
ATOM     29  H   UNL     1      36.133  31.109  45.726  0.00  0.00    +0.000 HD
ATOM     30  H   UNL     1      35.891  29.515  43.949  0.00  0.00    +0.000 HD
ATOM     31  H   UNL     1      37.847  28.660  42.765  0.00  0.00    +0.000 HD
BRANCH  28  32
ATOM     32  S   UNL     1      40.715  29.215  43.074  0.00  0.00    +0.000 S 
ATOM     33  H   UNL     1      41.259  28.109  43.794  0.00  0.00    +0.000 HD
ENDBRANCH  28  32
ENDBRANCH  21  24
ENDBRANCH   1  21
TORSDOF 4
