
 OpenBabel03272506473D

 35 37  0  0  1  0  0  0  0  0999 V2000
   32.1670   28.5100   47.4440 C   0  0  2  0  0  0  0  0  0  0  0  0
   33.4170   28.3440   48.2570 C   0  0  1  0  0  0  0  0  0  0  0  0
   33.8140   27.0440   48.1580 O   0  0  0  0  0  0  0  0  0  0  0  0
   33.1160   26.4310   47.1230 C   0  0  0  0  0  0  0  0  0  0  0  0
   32.5020   27.5200   46.2830 C   0  0  1  0  0  0  0  0  0  0  0  0
   31.2450   28.1750   47.9200 H   0  0  0  0  0  0  0  0  0  0  0  0
   33.2830   28.7020   49.2970 H   0  0  0  0  0  0  0  0  0  0  0  0
   33.9180   25.9620   46.4690 H   0  0  0  0  0  0  0  0  0  0  0  0
   32.4560   25.6600   47.4820 H   0  0  0  0  0  0  0  0  0  0  0  0
   33.2160   28.0370   45.6470 H   0  0  0  0  0  0  0  0  0  0  0  0
   32.0900   29.8150   46.9140 O   0  0  0  0  0  0  0  0  0  0  0  0
   32.0010   30.4110   47.6760 H   0  0  0  0  0  0  0  0  0  0  0  0
   34.7160   29.4000   47.5050 S   0  0  0  0  0  0  0  0  0  0  0  0
   37.1340   29.2940   50.6290 C   0  0  0  0  0  0  0  0  0  0  0  0
   37.6410   30.5910   50.7600 C   0  0  0  0  0  0  0  0  0  0  0  0
   37.2000   31.5410   49.8220 C   0  0  0  0  0  0  0  0  0  0  0  0
   36.3250   31.1550   48.8590 N   0  0  0  0  0  0  0  0  0  0  0  0
   35.8690   29.8860   48.7820 C   0  0  0  0  0  0  0  0  0  0  0  0
   36.2690   28.9370   49.6670 N   0  0  0  0  0  0  0  0  0  0  0  0
   37.4490   28.5300   51.3310 H   0  0  0  0  0  0  0  0  0  0  0  0
   38.3370   30.7890   51.5690 H   0  0  0  0  0  0  0  0  0  0  0  0
   37.5770   32.5290   49.9120 H   0  0  0  0  0  0  0  0  0  0  0  0
   31.3550   27.0380   45.7000 O   0  0  0  0  0  0  0  0  0  0  0  0
   29.9000   29.1480   44.2490 Cl  0  0  0  0  0  0  0  0  0  0  0  0
   29.3400   28.1470   45.5680 C   0  0  0  0  0  0  0  0  0  0  0  0
   30.1170   27.1790   46.1650 C   0  0  0  0  0  0  0  0  0  0  0  0
   29.5490   26.4260   47.1980 C   0  0  0  0  0  0  0  0  0  0  0  0
   28.2530   26.6540   47.5990 C   0  0  0  0  0  0  0  0  0  0  0  0
   27.4620   27.6250   47.0070 C   0  0  0  0  0  0  0  0  0  0  0  0
   28.0210   28.3700   45.9850 C   0  0  0  0  0  0  0  0  0  0  0  0
   30.0950   25.6510   47.7090 H   0  0  0  0  0  0  0  0  0  0  0  0
   27.8250   26.0750   48.3900 H   0  0  0  0  0  0  0  0  0  0  0  0
   26.4440   27.7970   47.3270 H   0  0  0  0  0  0  0  0  0  0  0  0
   27.0100   29.6050   45.2330 S   0  0  0  0  0  0  0  0  0  0  0  0
   25.6530   29.3410   45.5700 H   0  0  0  0  0  0  0  0  0  0  0  0
  1  6  1  1  0  0  0
  1  2  1  0  0  0  0
  2  7  1  1  0  0  0
  3  2  1  0  0  0  0
  4  9  1  0  0  0  0
  4  3  1  0  0  0  0
  5 10  1  6  0  0  0
  5  4  1  0  0  0  0
  5  1  1  0  0  0  0
  8  4  1  0  0  0  0
 11  1  1  0  0  0  0
 11 12  1  0  0  0  0
 13  2  1  0  0  0  0
 13 18  1  0  0  0  0
 14 15  1  0  0  0  0
 14 20  1  0  0  0  0
 15 21  1  0  0  0  0
 16 22  1  0  0  0  0
 16 15  2  0  0  0  0
 17 16  1  0  0  0  0
 18 17  2  0  0  0  0
 18 19  1  0  0  0  0
 19 14  2  0  0  0  0
 23 26  1  0  0  0  0
 23  5  1  0  0  0  0
 24 25  1  0  0  0  0
 25 30  2  0  0  0  0
 25 26  1  0  0  0  0
 26 27  2  0  0  0  0
 27 28  1  0  0  0  0
 27 31  1  0  0  0  0
 28 32  1  0  0  0  0
 29 33  1  0  0  0  0
 29 28  2  0  0  0  0
 30 29  1  0  0  0  0
 34 35  1  0  0  0  0
 34 30  1  0  0  0  0
M  END
>  <minimizedAffinity>
-4.65854692

>  <minimizedRMSD>
0.0276225861

$$$$
