
 OpenBabel03272506493D

 35 37  0  0  1  0  0  0  0  0999 V2000
   36.7140   28.7720   31.6890 C   0  0  2  0  0  0  0  0  0  0  0  0
   37.0680   27.3330   31.9190 C   0  0  1  0  0  0  0  0  0  0  0  0
   37.0970   27.1150   33.2640 O   0  0  0  0  0  0  0  0  0  0  0  0
   36.5030   28.1930   33.9130 C   0  0  0  0  0  0  0  0  0  0  0  0
   35.7270   28.9710   32.8830 C   0  0  1  0  0  0  0  0  0  0  0  0
   37.5310   29.4840   31.8020 H   0  0  0  0  0  0  0  0  0  0  0  0
   38.0000   27.0480   31.3910 H   0  0  0  0  0  0  0  0  0  0  0  0
   35.7210   27.7280   34.5930 H   0  0  0  0  0  0  0  0  0  0  0  0
   37.2100   28.7440   34.5100 H   0  0  0  0  0  0  0  0  0  0  0  0
   34.7970   28.4930   32.5840 H   0  0  0  0  0  0  0  0  0  0  0  0
   35.9970   28.9200   30.4830 O   0  0  0  0  0  0  0  0  0  0  0  0
   36.6110   28.6720   29.7720 H   0  0  0  0  0  0  0  0  0  0  0  0
   35.7270   26.3060   31.2000 S   0  0  0  0  0  0  0  0  0  0  0  0
   37.9880   23.1020   30.7060 C   0  0  0  0  0  0  0  0  0  0  0  0
   37.1690   22.0100   31.0150 C   0  0  0  0  0  0  0  0  0  0  0  0
   35.8460   22.2970   31.3950 C   0  0  0  0  0  0  0  0  0  0  0  0
   35.4430   23.5920   31.4420 N   0  0  0  0  0  0  0  0  0  0  0  0
   36.2800   24.6070   31.1330 C   0  0  0  0  0  0  0  0  0  0  0  0
   37.5650   24.3750   30.7610 N   0  0  0  0  0  0  0  0  0  0  0  0
   39.0150   22.9250   30.4090 H   0  0  0  0  0  0  0  0  0  0  0  0
   37.5960   21.0150   30.9430 H   0  0  0  0  0  0  0  0  0  0  0  0
   35.2150   21.4760   31.6300 H   0  0  0  0  0  0  0  0  0  0  0  0
   35.6750   30.2890   33.2660 O   0  0  0  0  0  0  0  0  0  0  0  0
   32.7610   29.8780   33.3530 Cl  0  0  0  0  0  0  0  0  0  0  0  0
   33.7910   30.6310   34.5460 C   0  0  0  0  0  0  0  0  0  0  0  0
   35.1540   30.7600   34.3960 C   0  0  0  0  0  0  0  0  0  0  0  0
   35.8750   31.3620   35.4320 C   0  0  0  0  0  0  0  0  0  0  0  0
   35.2330   31.8100   36.5630 C   0  0  0  0  0  0  0  0  0  0  0  0
   33.8630   31.6880   36.7260 C   0  0  0  0  0  0  0  0  0  0  0  0
   33.1480   31.0920   35.7030 C   0  0  0  0  0  0  0  0  0  0  0  0
   36.9430   31.4930   35.3860 H   0  0  0  0  0  0  0  0  0  0  0  0
   35.7900   32.2710   37.3510 H   0  0  0  0  0  0  0  0  0  0  0  0
   33.3660   32.0420   37.6180 H   0  0  0  0  0  0  0  0  0  0  0  0
   31.4030   30.9380   35.9140 S   0  0  0  0  0  0  0  0  0  0  0  0
   30.7600   31.6850   34.8880 H   0  0  0  0  0  0  0  0  0  0  0  0
  1  6  1  1  0  0  0
  1  2  1  0  0  0  0
  1  5  1  0  0  0  0
  2  7  1  6  0  0  0
  2  3  1  0  0  0  0
  3  4  1  0  0  0  0
  4  9  1  0  0  0  0
  4  8  1  0  0  0  0
  5 10  1  6  0  0  0
  5 23  1  0  0  0  0
  5  4  1  0  0  0  0
 11  1  1  0  0  0  0
 12 11  1  0  0  0  0
 13  2  1  0  0  0  0
 14 19  2  0  0  0  0
 14 15  1  0  0  0  0
 15 16  2  0  0  0  0
 16 17  1  0  0  0  0
 16 22  1  0  0  0  0
 18 13  1  0  0  0  0
 18 17  2  0  0  0  0
 19 18  1  0  0  0  0
 20 14  1  0  0  0  0
 21 15  1  0  0  0  0
 23 26  1  0  0  0  0
 24 25  1  0  0  0  0
 25 30  1  0  0  0  0
 26 25  2  0  0  0  0
 26 27  1  0  0  0  0
 27 28  2  0  0  0  0
 28 29  1  0  0  0  0
 28 32  1  0  0  0  0
 29 33  1  0  0  0  0
 30 34  1  0  0  0  0
 30 29  2  0  0  0  0
 31 27  1  0  0  0  0
 35 34  1  0  0  0  0
M  END
>  <minimizedAffinity>
-5.12632227

$$$$

 OpenBabel03272506493D

 35 37  0  0  1  0  0  0  0  0999 V2000
   37.9710   27.4900   34.3670 C   0  0  2  0  0  0  0  0  0  0  0  0
   37.0120   28.1410   33.4150 C   0  0  1  0  0  0  0  0  0  0  0  0
   36.6620   27.2200   32.4730 O   0  0  0  0  0  0  0  0  0  0  0  0
   37.0650   25.9580   32.8970 C   0  0  0  0  0  0  0  0  0  0  0  0
   37.3660   26.0500   34.3700 C   0  0  1  0  0  0  0  0  0  0  0  0
   39.0040   27.4230   34.0260 H   0  0  0  0  0  0  0  0  0  0  0  0
   37.4190   29.0850   33.0010 H   0  0  0  0  0  0  0  0  0  0  0  0
   36.1330   25.3130   32.8200 H   0  0  0  0  0  0  0  0  0  0  0  0
   37.8350   25.5460   32.2670 H   0  0  0  0  0  0  0  0  0  0  0  0
   36.4780   26.1010   34.9960 H   0  0  0  0  0  0  0  0  0  0  0  0
   37.8360   28.0380   35.6600 O   0  0  0  0  0  0  0  0  0  0  0  0
   38.1100   28.9670   35.5890 H   0  0  0  0  0  0  0  0  0  0  0  0
   35.5070   28.5940   34.3620 S   0  0  0  0  0  0  0  0  0  0  0  0
   36.1960   32.1990   35.8270 C   0  0  0  0  0  0  0  0  0  0  0  0
   35.4930   33.0840   35.0020 C   0  0  0  0  0  0  0  0  0  0  0  0
   34.7710   32.5190   33.9370 C   0  0  0  0  0  0  0  0  0  0  0  0
   34.7940   31.1720   33.7700 N   0  0  0  0  0  0  0  0  0  0  0  0
   35.4910   30.3660   34.6000 C   0  0  0  0  0  0  0  0  0  0  0  0
   36.2030   30.8700   35.6410 N   0  0  0  0  0  0  0  0  0  0  0  0
   36.7670   32.5940   36.6600 H   0  0  0  0  0  0  0  0  0  0  0  0
   35.5440   34.1440   35.2280 H   0  0  0  0  0  0  0  0  0  0  0  0
   34.2330   33.1800   33.3040 H   0  0  0  0  0  0  0  0  0  0  0  0
   38.3210   25.1140   34.6880 O   0  0  0  0  0  0  0  0  0  0  0  0
   40.6030   23.2530   34.6560 Cl  0  0  0  0  0  0  0  0  0  0  0  0
   39.5250   23.6330   35.9780 C   0  0  0  0  0  0  0  0  0  0  0  0
   38.4890   24.5350   35.8740 C   0  0  0  0  0  0  0  0  0  0  0  0
   37.7080   24.7720   37.0100 C   0  0  0  0  0  0  0  0  0  0  0  0
   37.9740   24.1180   38.1910 C   0  0  0  0  0  0  0  0  0  0  0  0
   39.0120   23.2090   38.3080 C   0  0  0  0  0  0  0  0  0  0  0  0
   39.7860   22.9740   37.1870 C   0  0  0  0  0  0  0  0  0  0  0  0
   36.8840   25.4650   37.0040 H   0  0  0  0  0  0  0  0  0  0  0  0
   37.3720   24.3040   39.0560 H   0  0  0  0  0  0  0  0  0  0  0  0
   39.2150   22.7000   39.2400 H   0  0  0  0  0  0  0  0  0  0  0  0
   41.1080   21.8150   37.3400 S   0  0  0  0  0  0  0  0  0  0  0  0
   40.8620   20.7340   36.4480 H   0  0  0  0  0  0  0  0  0  0  0  0
  1  6  1  6  0  0  0
  1  5  1  0  0  0  0
  1 11  1  0  0  0  0
  2  7  1  6  0  0  0
  2 13  1  0  0  0  0
  2  1  1  0  0  0  0
  3  4  1  0  0  0  0
  3  2  1  0  0  0  0
  4  5  1  0  0  0  0
  5 23  1  0  0  0  0
  5 10  1  1  0  0  0
  8  4  1  0  0  0  0
  9  4  1  0  0  0  0
 12 11  1  0  0  0  0
 13 18  1  0  0  0  0
 14 20  1  0  0  0  0
 15 21  1  0  0  0  0
 15 14  2  0  0  0  0
 16 15  1  0  0  0  0
 17 16  2  0  0  0  0
 17 18  1  0  0  0  0
 18 19  2  0  0  0  0
 19 14  1  0  0  0  0
 22 16  1  0  0  0  0
 23 26  1  0  0  0  0
 24 25  1  0  0  0  0
 25 30  1  0  0  0  0
 26 25  2  0  0  0  0
 26 27  1  0  0  0  0
 27 28  2  0  0  0  0
 28 29  1  0  0  0  0
 28 32  1  0  0  0  0
 29 33  1  0  0  0  0
 30 34  1  0  0  0  0
 30 29  2  0  0  0  0
 31 27  1  0  0  0  0
 35 34  1  0  0  0  0
M  END
>  <minimizedAffinity>
-5.11088991

$$$$

 OpenBabel03272506493D

 35 37  0  0  1  0  0  0  0  0999 V2000
   37.7870   27.2590   33.1460 C   0  0  2  0  0  0  0  0  0  0  0  0
   38.6450   26.4400   34.0640 C   0  0  1  0  0  0  0  0  0  0  0  0
   38.7190   27.0880   35.2610 O   0  0  0  0  0  0  0  0  0  0  0  0
   37.7510   28.0860   35.3000 C   0  0  0  0  0  0  0  0  0  0  0  0
   36.7670   27.8070   34.1950 C   0  0  1  0  0  0  0  0  0  0  0  0
   38.2770   28.1100   32.6730 H   0  0  0  0  0  0  0  0  0  0  0  0
   39.6280   26.2070   33.6100 H   0  0  0  0  0  0  0  0  0  0  0  0
   37.1810   27.9010   36.2650 H   0  0  0  0  0  0  0  0  0  0  0  0
   38.1870   29.0700   35.3290 H   0  0  0  0  0  0  0  0  0  0  0  0
   36.0890   26.9840   34.4090 H   0  0  0  0  0  0  0  0  0  0  0  0
   37.0960   26.4270   32.2390 O   0  0  0  0  0  0  0  0  0  0  0  0
   37.7760   26.0140   31.6820 H   0  0  0  0  0  0  0  0  0  0  0  0
   37.8000   24.8330   34.3320 S   0  0  0  0  0  0  0  0  0  0  0  0
   37.9080   23.9970   38.1940 C   0  0  0  0  0  0  0  0  0  0  0  0
   39.0400   23.1950   38.3760 C   0  0  0  0  0  0  0  0  0  0  0  0
   39.8020   22.9050   37.2310 C   0  0  0  0  0  0  0  0  0  0  0  0
   39.4060   23.4090   36.0340 N   0  0  0  0  0  0  0  0  0  0  0  0
   38.3020   24.1790   35.9190 C   0  0  0  0  0  0  0  0  0  0  0  0
   37.5370   24.4840   36.9990 N   0  0  0  0  0  0  0  0  0  0  0  0
   37.2910   24.2440   39.0510 H   0  0  0  0  0  0  0  0  0  0  0  0
   39.2630   22.8460   39.3790 H   0  0  0  0  0  0  0  0  0  0  0  0
   40.6640   22.2980   37.3570 H   0  0  0  0  0  0  0  0  0  0  0  0
   36.2190   28.9950   33.7760 O   0  0  0  0  0  0  0  0  0  0  0  0
   33.3400   29.0190   33.1580 Cl  0  0  0  0  0  0  0  0  0  0  0  0
   34.2110   29.9790   34.3300 C   0  0  0  0  0  0  0  0  0  0  0  0
   35.5690   29.8720   34.5360 C   0  0  0  0  0  0  0  0  0  0  0  0
   36.1490   30.6800   35.5190 C   0  0  0  0  0  0  0  0  0  0  0  0
   35.3790   31.5530   36.2530 C   0  0  0  0  0  0  0  0  0  0  0  0
   34.0140   31.6700   36.0540 C   0  0  0  0  0  0  0  0  0  0  0  0
   33.4370   30.8720   35.0830 C   0  0  0  0  0  0  0  0  0  0  0  0
   37.2030   30.6480   35.7370 H   0  0  0  0  0  0  0  0  0  0  0  0
   35.8300   32.1680   37.0020 H   0  0  0  0  0  0  0  0  0  0  0  0
   33.4150   32.3570   36.6350 H   0  0  0  0  0  0  0  0  0  0  0  0
   31.6970   31.0240   34.8340 S   0  0  0  0  0  0  0  0  0  0  0  0
   31.4720   31.4720   33.5030 H   0  0  0  0  0  0  0  0  0  0  0  0
  1  6  1  6  0  0  0
  1  2  1  0  0  0  0
  1  5  1  0  0  0  0
  2  7  1  6  0  0  0
  2 13  1  0  0  0  0
  2  3  1  0  0  0  0
  3  4  1  0  0  0  0
  4  9  1  0  0  0  0
  4  8  1  0  0  0  0
  5 10  1  1  0  0  0
  5  4  1  0  0  0  0
 11  1  1  0  0  0  0
 12 11  1  0  0  0  0
 13 18  1  0  0  0  0
 14 15  1  0  0  0  0
 14 20  1  0  0  0  0
 15 21  1  0  0  0  0
 16 22  1  0  0  0  0
 16 15  2  0  0  0  0
 17 16  1  0  0  0  0
 18 17  2  0  0  0  0
 18 19  1  0  0  0  0
 19 14  2  0  0  0  0
 23  5  1  0  0  0  0
 23 26  1  0  0  0  0
 24 25  1  0  0  0  0
 25 26  2  0  0  0  0
 25 30  1  0  0  0  0
 26 27  1  0  0  0  0
 27 31  1  0  0  0  0
 27 28  2  0  0  0  0
 28 32  1  0  0  0  0
 29 28  1  0  0  0  0
 29 33  1  0  0  0  0
 30 29  2  0  0  0  0
 34 30  1  0  0  0  0
 35 34  1  0  0  0  0
M  END
>  <minimizedAffinity>
-5.03555918

$$$$

 OpenBabel03272506493D

 35 37  0  0  1  0  0  0  0  0999 V2000
   36.6650   28.8810   32.0740 C   0  0  2  0  0  0  0  0  0  0  0  0
   37.1430   27.4620   31.9870 C   0  0  1  0  0  0  0  0  0  0  0  0
   37.2970   26.9900   33.2560 O   0  0  0  0  0  0  0  0  0  0  0  0
   36.6790   27.8640   34.1450 C   0  0  0  0  0  0  0  0  0  0  0  0
   35.7660   28.7550   33.3450 C   0  0  1  0  0  0  0  0  0  0  0  0
   37.4330   29.6270   32.2750 H   0  0  0  0  0  0  0  0  0  0  0  0
   38.0470   27.3680   31.3530 H   0  0  0  0  0  0  0  0  0  0  0  0
   35.9910   27.2080   34.7680 H   0  0  0  0  0  0  0  0  0  0  0  0
   37.3890   28.3490   34.7940 H   0  0  0  0  0  0  0  0  0  0  0  0
   34.8530   28.2640   33.0170 H   0  0  0  0  0  0  0  0  0  0  0  0
   35.8430   29.1970   30.9710 O   0  0  0  0  0  0  0  0  0  0  0  0
   36.4150   29.1470   30.1870 H   0  0  0  0  0  0  0  0  0  0  0  0
   35.8270   26.4800   31.1650 S   0  0  0  0  0  0  0  0  0  0  0  0
   35.8040   22.5410   31.4950 C   0  0  0  0  0  0  0  0  0  0  0  0
   37.0710   22.1180   31.0770 C   0  0  0  0  0  0  0  0  0  0  0  0
   37.9710   23.1200   30.6740 C   0  0  0  0  0  0  0  0  0  0  0  0
   37.5710   24.4160   30.7110 N   0  0  0  0  0  0  0  0  0  0  0  0
   36.3330   24.7650   31.1240 C   0  0  0  0  0  0  0  0  0  0  0  0
   35.4320   23.8310   31.5220 N   0  0  0  0  0  0  0  0  0  0  0  0
   35.0780   21.8010   31.8140 H   0  0  0  0  0  0  0  0  0  0  0  0
   37.2840   21.0550   31.0880 H   0  0  0  0  0  0  0  0  0  0  0  0
   38.9360   22.8110   30.3560 H   0  0  0  0  0  0  0  0  0  0  0  0
   35.6480   29.9640   33.9870 O   0  0  0  0  0  0  0  0  0  0  0  0
   36.3520   32.3860   35.5060 Cl  0  0  0  0  0  0  0  0  0  0  0  0
   34.8790   31.4480   35.5730 C   0  0  0  0  0  0  0  0  0  0  0  0
   34.6610   30.3280   34.8010 C   0  0  0  0  0  0  0  0  0  0  0  0
   33.4310   29.6730   34.9280 C   0  0  0  0  0  0  0  0  0  0  0  0
   32.4760   30.1410   35.8000 C   0  0  0  0  0  0  0  0  0  0  0  0
   32.6840   31.2650   36.5820 C   0  0  0  0  0  0  0  0  0  0  0  0
   33.8980   31.9150   36.4580 C   0  0  0  0  0  0  0  0  0  0  0  0
   33.1890   28.7940   34.3550 H   0  0  0  0  0  0  0  0  0  0  0  0
   31.5380   29.6350   35.8930 H   0  0  0  0  0  0  0  0  0  0  0  0
   31.9280   31.6260   37.2640 H   0  0  0  0  0  0  0  0  0  0  0  0
   34.1600   33.3460   37.4550 S   0  0  0  0  0  0  0  0  0  0  0  0
   35.2590   33.0950   38.3220 H   0  0  0  0  0  0  0  0  0  0  0  0
  1  6  1  1  0  0  0
  1  5  1  0  0  0  0
  2  7  1  6  0  0  0
  2  1  1  0  0  0  0
  2  3  1  0  0  0  0
  3  4  1  0  0  0  0
  4  8  1  0  0  0  0
  4  9  1  0  0  0  0
  5 10  1  6  0  0  0
  5 23  1  0  0  0  0
  5  4  1  0  0  0  0
 11  1  1  0  0  0  0
 12 11  1  0  0  0  0
 13  2  1  0  0  0  0
 14 19  1  0  0  0  0
 14 20  1  0  0  0  0
 15 21  1  0  0  0  0
 15 14  2  0  0  0  0
 16 17  2  0  0  0  0
 16 15  1  0  0  0  0
 17 18  1  0  0  0  0
 18 13  1  0  0  0  0
 18 19  2  0  0  0  0
 22 16  1  0  0  0  0
 23 26  1  0  0  0  0
 24 25  1  0  0  0  0
 25 30  1  0  0  0  0
 26 27  1  0  0  0  0
 26 25  2  0  0  0  0
 27 28  2  0  0  0  0
 28 32  1  0  0  0  0
 28 29  1  0  0  0  0
 29 33  1  0  0  0  0
 30 29  2  0  0  0  0
 30 34  1  0  0  0  0
 31 27  1  0  0  0  0
 34 35  1  0  0  0  0
M  END
>  <minimizedAffinity>
-5.01165438

$$$$

 OpenBabel03272506493D

 35 37  0  0  1  0  0  0  0  0999 V2000
   37.1380   25.3420   30.9400 C   0  0  2  0  0  0  0  0  0  0  0  0
   37.2330   23.8530   31.0960 C   0  0  1  0  0  0  0  0  0  0  0  0
   37.9950   23.5910   32.1940 O   0  0  0  0  0  0  0  0  0  0  0  0
   38.1480   24.7610   32.9320 C   0  0  0  0  0  0  0  0  0  0  0  0
   37.1110   25.7400   32.4500 C   0  0  1  0  0  0  0  0  0  0  0  0
   37.9980   25.8250   30.4770 H   0  0  0  0  0  0  0  0  0  0  0  0
   37.5870   23.3630   30.1670 H   0  0  0  0  0  0  0  0  0  0  0  0
   37.8340   24.4830   33.9880 H   0  0  0  0  0  0  0  0  0  0  0  0
   39.1710   25.0990   32.9440 H   0  0  0  0  0  0  0  0  0  0  0  0
   36.1050   25.5190   32.7980 H   0  0  0  0  0  0  0  0  0  0  0  0
   35.9050   25.7030   30.3570 O   0  0  0  0  0  0  0  0  0  0  0  0
   35.9130   25.3340   29.4580 H   0  0  0  0  0  0  0  0  0  0  0  0
   35.5390   23.2160   31.4060 S   0  0  0  0  0  0  0  0  0  0  0  0
   36.0770   19.3100   31.1240 C   0  0  0  0  0  0  0  0  0  0  0  0
   35.8230   18.8000   32.4020 C   0  0  0  0  0  0  0  0  0  0  0  0
   35.4660   19.7280   33.3960 C   0  0  0  0  0  0  0  0  0  0  0  0
   35.3900   21.0430   33.0680 N   0  0  0  0  0  0  0  0  0  0  0  0
   35.6470   21.4790   31.8160 C   0  0  0  0  0  0  0  0  0  0  0  0
   35.9950   20.6170   30.8260 N   0  0  0  0  0  0  0  0  0  0  0  0
   36.3570   18.6290   30.3290 H   0  0  0  0  0  0  0  0  0  0  0  0
   35.9140   17.7290   32.5520 H   0  0  0  0  0  0  0  0  0  0  0  0
   35.2700   19.3530   34.3690 H   0  0  0  0  0  0  0  0  0  0  0  0
   37.5850   27.0170   32.6320 O   0  0  0  0  0  0  0  0  0  0  0  0
   37.2690   28.8240   30.3290 Cl  0  0  0  0  0  0  0  0  0  0  0  0
   36.6530   29.0110   31.9540 C   0  0  0  0  0  0  0  0  0  0  0  0
   36.8610   28.0860   32.9520 C   0  0  0  0  0  0  0  0  0  0  0  0
   36.2980   28.3370   34.2080 C   0  0  0  0  0  0  0  0  0  0  0  0
   35.5600   29.4770   34.4290 C   0  0  0  0  0  0  0  0  0  0  0  0
   35.3450   30.4150   33.4330 C   0  0  0  0  0  0  0  0  0  0  0  0
   35.9000   30.1690   32.1900 C   0  0  0  0  0  0  0  0  0  0  0  0
   36.4160   27.6570   35.0340 H   0  0  0  0  0  0  0  0  0  0  0  0
   35.1330   29.6630   35.3910 H   0  0  0  0  0  0  0  0  0  0  0  0
   34.7640   31.3080   33.6140 H   0  0  0  0  0  0  0  0  0  0  0  0
   35.6230   31.3660   30.9250 S   0  0  0  0  0  0  0  0  0  0  0  0
   36.8810   31.8960   30.5250 H   0  0  0  0  0  0  0  0  0  0  0  0
  1  6  1  6  0  0  0
  1  2  1  0  0  0  0
  1  5  1  0  0  0  0
  2  7  1  6  0  0  0
  2 13  1  0  0  0  0
  2  3  1  0  0  0  0
  3  4  1  0  0  0  0
  4  9  1  0  0  0  0
  4  8  1  0  0  0  0
  5 23  1  0  0  0  0
  5 10  1  1  0  0  0
  5  4  1  0  0  0  0
 11  1  1  0  0  0  0
 12 11  1  0  0  0  0
 13 18  1  0  0  0  0
 14 15  1  0  0  0  0
 15 21  1  0  0  0  0
 15 16  2  0  0  0  0
 16 22  1  0  0  0  0
 17 16  1  0  0  0  0
 18 17  2  0  0  0  0
 19 14  2  0  0  0  0
 19 18  1  0  0  0  0
 20 14  1  0  0  0  0
 23 26  1  0  0  0  0
 24 25  1  0  0  0  0
 25 30  2  0  0  0  0
 25 26  1  0  0  0  0
 26 27  2  0  0  0  0
 27 28  1  0  0  0  0
 27 31  1  0  0  0  0
 28 32  1  0  0  0  0
 29 33  1  0  0  0  0
 29 28  2  0  0  0  0
 30 29  1  0  0  0  0
 34 30  1  0  0  0  0
 35 34  1  0  0  0  0
M  END
>  <minimizedAffinity>
-4.99133587

$$$$

 OpenBabel03272506493D

 35 37  0  0  1  0  0  0  0  0999 V2000
   37.9670   24.7470   32.0710 C   0  0  2  0  0  0  0  0  0  0  0  0
   37.4260   23.9140   30.9470 C   0  0  1  0  0  0  0  0  0  0  0  0
   38.1870   22.7880   30.8520 O   0  0  0  0  0  0  0  0  0  0  0  0
   38.9730   22.6720   31.9930 C   0  0  0  0  0  0  0  0  0  0  0  0
   38.4020   23.5970   33.0340 C   0  0  1  0  0  0  0  0  0  0  0  0
   38.8490   25.3430   31.8350 H   0  0  0  0  0  0  0  0  0  0  0  0
   37.3480   24.4920   30.0050 H   0  0  0  0  0  0  0  0  0  0  0  0
   38.7730   21.6220   32.3800 H   0  0  0  0  0  0  0  0  0  0  0  0
   40.0230   22.7740   31.7730 H   0  0  0  0  0  0  0  0  0  0  0  0
   37.4860   23.2300   33.4910 H   0  0  0  0  0  0  0  0  0  0  0  0
   36.9330   25.4840   32.6860 O   0  0  0  0  0  0  0  0  0  0  0  0
   36.6100   26.1070   32.0140 H   0  0  0  0  0  0  0  0  0  0  0  0
   35.7170   23.4160   31.3940 S   0  0  0  0  0  0  0  0  0  0  0  0
   35.8550   19.4750   31.1330 C   0  0  0  0  0  0  0  0  0  0  0  0
   35.7280   19.0040   32.4440 C   0  0  0  0  0  0  0  0  0  0  0  0
   35.5920   19.9720   33.4550 C   0  0  0  0  0  0  0  0  0  0  0  0
   35.5930   21.2850   33.1110 N   0  0  0  0  0  0  0  0  0  0  0  0
   35.7190   21.6810   31.8250 C   0  0  0  0  0  0  0  0  0  0  0  0
   35.8520   20.7800   30.8180 N   0  0  0  0  0  0  0  0  0  0  0  0
   35.9620   18.7620   30.3230 H   0  0  0  0  0  0  0  0  0  0  0  0
   35.7400   17.9310   32.6050 H   0  0  0  0  0  0  0  0  0  0  0  0
   35.4950   19.6260   34.4540 H   0  0  0  0  0  0  0  0  0  0  0  0
   39.4130   24.0080   33.8690 O   0  0  0  0  0  0  0  0  0  0  0  0
   37.7290   24.9040   36.1120 Cl  0  0  0  0  0  0  0  0  0  0  0  0
   39.0640   23.7770   36.1340 C   0  0  0  0  0  0  0  0  0  0  0  0
   39.7770   23.4270   35.0090 C   0  0  0  0  0  0  0  0  0  0  0  0
   40.8110   22.4960   35.1500 C   0  0  0  0  0  0  0  0  0  0  0  0
   41.1000   21.9520   36.3800 C   0  0  0  0  0  0  0  0  0  0  0  0
   40.3910   22.2970   37.5190 C   0  0  0  0  0  0  0  0  0  0  0  0
   39.3680   23.2160   37.3820 C   0  0  0  0  0  0  0  0  0  0  0  0
   41.4080   22.1730   34.3140 H   0  0  0  0  0  0  0  0  0  0  0  0
   41.8930   21.2420   36.4810 H   0  0  0  0  0  0  0  0  0  0  0  0
   40.6250   21.8640   38.4810 H   0  0  0  0  0  0  0  0  0  0  0  0
   38.4670   23.6520   38.8350 S   0  0  0  0  0  0  0  0  0  0  0  0
   38.6450   25.0430   39.0730 H   0  0  0  0  0  0  0  0  0  0  0  0
  1  6  1  6  0  0  0
  1 11  1  0  0  0  0
  1  5  1  0  0  0  0
  2  7  1  6  0  0  0
  2 13  1  0  0  0  0
  2  1  1  0  0  0  0
  3  2  1  0  0  0  0
  3  4  1  0  0  0  0
  4  8  1  0  0  0  0
  4  5  1  0  0  0  0
  5 10  1  1  0  0  0
  5 23  1  0  0  0  0
  9  4  1  0  0  0  0
 12 11  1  0  0  0  0
 13 18  1  0  0  0  0
 14 15  1  0  0  0  0
 15 21  1  0  0  0  0
 15 16  2  0  0  0  0
 16 22  1  0  0  0  0
 17 16  1  0  0  0  0
 18 17  2  0  0  0  0
 19 14  2  0  0  0  0
 19 18  1  0  0  0  0
 20 14  1  0  0  0  0
 23 26  1  0  0  0  0
 24 25  1  0  0  0  0
 25 30  1  0  0  0  0
 26 27  1  0  0  0  0
 26 25  2  0  0  0  0
 27 28  2  0  0  0  0
 28 32  1  0  0  0  0
 28 29  1  0  0  0  0
 29 33  1  0  0  0  0
 30 29  2  0  0  0  0
 30 34  1  0  0  0  0
 31 27  1  0  0  0  0
 34 35  1  0  0  0  0
M  END
>  <minimizedAffinity>
-4.96365595

$$$$

 OpenBabel03272506493D

 35 37  0  0  1  0  0  0  0  0999 V2000
   36.9220   28.1220   32.7300 C   0  0  2  0  0  0  0  0  0  0  0  0
   36.2160   29.3690   32.2880 C   0  0  1  0  0  0  0  0  0  0  0  0
   36.0730   29.3160   30.9340 O   0  0  0  0  0  0  0  0  0  0  0  0
   36.3460   28.0240   30.4980 C   0  0  0  0  0  0  0  0  0  0  0  0
   36.3060   27.1200   31.7020 C   0  0  1  0  0  0  0  0  0  0  0  0
   38.0040   28.1190   32.6000 H   0  0  0  0  0  0  0  0  0  0  0  0
   36.7230   30.2830   32.6570 H   0  0  0  0  0  0  0  0  0  0  0  0
   35.4440   27.7310   29.8710 H   0  0  0  0  0  0  0  0  0  0  0  0
   37.2310   27.9820   29.8850 H   0  0  0  0  0  0  0  0  0  0  0  0
   35.3000   26.9090   32.0570 H   0  0  0  0  0  0  0  0  0  0  0  0
   36.5070   27.7490   34.0260 O   0  0  0  0  0  0  0  0  0  0  0  0
   36.8060   28.4580   34.6190 H   0  0  0  0  0  0  0  0  0  0  0  0
   34.5430   29.3610   33.0430 S   0  0  0  0  0  0  0  0  0  0  0  0
   35.8160   31.5700   36.0640 C   0  0  0  0  0  0  0  0  0  0  0  0
   34.6700   31.9240   36.7840 C   0  0  0  0  0  0  0  0  0  0  0  0
   33.4420   31.4450   36.2950 C   0  0  0  0  0  0  0  0  0  0  0  0
   33.4350   30.6800   35.1730 N   0  0  0  0  0  0  0  0  0  0  0  0
   34.5760   30.3700   34.5190 C   0  0  0  0  0  0  0  0  0  0  0  0
   35.7830   30.8120   34.9560 N   0  0  0  0  0  0  0  0  0  0  0  0
   36.7830   31.9190   36.4060 H   0  0  0  0  0  0  0  0  0  0  0  0
   34.7910   32.5400   37.6680 H   0  0  0  0  0  0  0  0  0  0  0  0
   32.5650   31.7060   36.8330 H   0  0  0  0  0  0  0  0  0  0  0  0
   37.1470   26.0550   31.4870 O   0  0  0  0  0  0  0  0  0  0  0  0
   38.8810   25.0270   33.6330 Cl  0  0  0  0  0  0  0  0  0  0  0  0
   37.6400   24.1840   32.7380 C   0  0  0  0  0  0  0  0  0  0  0  0
   36.8820   24.7780   31.7530 C   0  0  0  0  0  0  0  0  0  0  0  0
   35.9020   24.0050   31.1220 C   0  0  0  0  0  0  0  0  0  0  0  0
   35.7090   22.6910   31.4800 C   0  0  0  0  0  0  0  0  0  0  0  0
   36.4650   22.0820   32.4680 C   0  0  0  0  0  0  0  0  0  0  0  0
   37.4340   22.8440   33.0940 C   0  0  0  0  0  0  0  0  0  0  0  0
   35.2700   24.4040   30.3470 H   0  0  0  0  0  0  0  0  0  0  0  0
   34.9590   22.1050   30.9930 H   0  0  0  0  0  0  0  0  0  0  0  0
   36.3070   21.0490   32.7440 H   0  0  0  0  0  0  0  0  0  0  0  0
   38.3950   22.0650   34.3510 S   0  0  0  0  0  0  0  0  0  0  0  0
   39.7570   22.0670   33.9410 H   0  0  0  0  0  0  0  0  0  0  0  0
  1  6  1  6  0  0  0
  1 11  1  0  0  0  0
  2  7  1  1  0  0  0
  2  1  1  0  0  0  0
  2 13  1  0  0  0  0
  3  2  1  0  0  0  0
  4  3  1  0  0  0  0
  4  5  1  0  0  0  0
  5 10  1  1  0  0  0
  5  1  1  0  0  0  0
  8  4  1  0  0  0  0
  9  4  1  0  0  0  0
 11 12  1  0  0  0  0
 13 18  1  0  0  0  0
 14 20  1  0  0  0  0
 14 15  1  0  0  0  0
 15 21  1  0  0  0  0
 16 15  2  0  0  0  0
 16 22  1  0  0  0  0
 17 16  1  0  0  0  0
 18 19  1  0  0  0  0
 18 17  2  0  0  0  0
 19 14  2  0  0  0  0
 23  5  1  0  0  0  0
 23 26  1  0  0  0  0
 25 30  1  0  0  0  0
 25 24  1  0  0  0  0
 26 25  2  0  0  0  0
 27 28  2  0  0  0  0
 27 26  1  0  0  0  0
 28 29  1  0  0  0  0
 29 33  1  0  0  0  0
 29 30  2  0  0  0  0
 30 34  1  0  0  0  0
 31 27  1  0  0  0  0
 32 28  1  0  0  0  0
 35 34  1  0  0  0  0
M  END
>  <minimizedAffinity>
-4.95049429

$$$$

 OpenBabel03272506493D

 35 37  0  0  1  0  0  0  0  0999 V2000
   37.7360   27.3130   33.2980 C   0  0  2  0  0  0  0  0  0  0  0  0
   38.9500   26.6650   33.8940 C   0  0  1  0  0  0  0  0  0  0  0  0
   39.0290   27.0400   35.2020 O   0  0  0  0  0  0  0  0  0  0  0  0
   37.8240   27.6200   35.5830 C   0  0  0  0  0  0  0  0  0  0  0  0
   36.7960   27.2570   34.5440 C   0  0  1  0  0  0  0  0  0  0  0  0
   37.8510   28.3570   33.0080 H   0  0  0  0  0  0  0  0  0  0  0  0
   39.8630   26.8760   33.3030 H   0  0  0  0  0  0  0  0  0  0  0  0
   37.5150   27.0600   36.5220 H   0  0  0  0  0  0  0  0  0  0  0  0
   37.9340   28.6660   35.8150 H   0  0  0  0  0  0  0  0  0  0  0  0
   36.4510   26.2270   34.6110 H   0  0  0  0  0  0  0  0  0  0  0  0
   37.1870   26.5010   32.2830 O   0  0  0  0  0  0  0  0  0  0  0  0
   37.8530   26.4650   31.5770 H   0  0  0  0  0  0  0  0  0  0  0  0
   38.6990   24.8480   33.8320 S   0  0  0  0  0  0  0  0  0  0  0  0
   40.1560   23.1280   37.0790 C   0  0  0  0  0  0  0  0  0  0  0  0
   39.1260   23.1700   38.0250 C   0  0  0  0  0  0  0  0  0  0  0  0
   37.9190   23.7660   37.6200 C   0  0  0  0  0  0  0  0  0  0  0  0
   37.8200   24.2600   36.3600 N   0  0  0  0  0  0  0  0  0  0  0  0
   38.8510   24.1910   35.4880 C   0  0  0  0  0  0  0  0  0  0  0  0
   40.0340   23.6240   35.8370 N   0  0  0  0  0  0  0  0  0  0  0  0
   41.1040   22.6780   37.3500 H   0  0  0  0  0  0  0  0  0  0  0  0
   39.3140   22.7440   39.0050 H   0  0  0  0  0  0  0  0  0  0  0  0
   37.1290   23.8030   38.3290 H   0  0  0  0  0  0  0  0  0  0  0  0
   35.8460   28.2480   34.4910 O   0  0  0  0  0  0  0  0  0  0  0  0
   36.1640   30.9180   35.6900 Cl  0  0  0  0  0  0  0  0  0  0  0  0
   35.8830   30.5010   34.0160 C   0  0  0  0  0  0  0  0  0  0  0  0
   35.7590   29.2040   33.5710 C   0  0  0  0  0  0  0  0  0  0  0  0
   35.5580   28.9960   32.2020 C   0  0  0  0  0  0  0  0  0  0  0  0
   35.4870   30.0620   31.3350 C   0  0  0  0  0  0  0  0  0  0  0  0
   35.6100   31.3710   31.7710 C   0  0  0  0  0  0  0  0  0  0  0  0
   35.8090   31.5790   33.1240 C   0  0  0  0  0  0  0  0  0  0  0  0
   35.4550   28.0110   31.7820 H   0  0  0  0  0  0  0  0  0  0  0  0
   35.3320   29.8960   30.2900 H   0  0  0  0  0  0  0  0  0  0  0  0
   35.5540   32.2030   31.0840 H   0  0  0  0  0  0  0  0  0  0  0  0
   35.9650   33.2480   33.6750 S   0  0  0  0  0  0  0  0  0  0  0  0
   34.9000   33.5240   34.5770 H   0  0  0  0  0  0  0  0  0  0  0  0
  1  6  1  6  0  0  0
  1  2  1  0  0  0  0
  1  5  1  0  0  0  0
  2  7  1  6  0  0  0
  2  3  1  0  0  0  0
  3  4  1  0  0  0  0
  4  9  1  0  0  0  0
  4  8  1  0  0  0  0
  5 10  1  1  0  0  0
  5  4  1  0  0  0  0
 11  1  1  0  0  0  0
 12 11  1  0  0  0  0
 13  2  1  0  0  0  0
 13 18  1  0  0  0  0
 14 20  1  0  0  0  0
 14 15  1  0  0  0  0
 15 21  1  0  0  0  0
 16 15  2  0  0  0  0
 16 22  1  0  0  0  0
 17 16  1  0  0  0  0
 18 19  1  0  0  0  0
 18 17  2  0  0  0  0
 19 14  2  0  0  0  0
 23  5  1  0  0  0  0
 25 24  1  0  0  0  0
 26 25  1  0  0  0  0
 26 23  1  0  0  0  0
 27 26  2  0  0  0  0
 28 29  2  0  0  0  0
 28 27  1  0  0  0  0
 29 30  1  0  0  0  0
 30 34  1  0  0  0  0
 30 25  2  0  0  0  0
 31 27  1  0  0  0  0
 32 28  1  0  0  0  0
 33 29  1  0  0  0  0
 34 35  1  0  0  0  0
M  END
>  <minimizedAffinity>
-4.9011302

$$$$

 OpenBabel03272506493D

 35 37  0  0  1  0  0  0  0  0999 V2000
   35.5060   30.7030   34.3730 C   0  0  2  0  0  0  0  0  0  0  0  0
   34.0950   31.1960   34.2420 C   0  0  1  0  0  0  0  0  0  0  0  0
   33.4650   30.4260   33.3110 O   0  0  0  0  0  0  0  0  0  0  0  0
   34.2380   29.3000   33.0510 C   0  0  0  0  0  0  0  0  0  0  0  0
   35.2490   29.1780   34.1600 C   0  0  1  0  0  0  0  0  0  0  0  0
   36.1990   31.0410   33.6020 H   0  0  0  0  0  0  0  0  0  0  0  0
   34.0550   32.2840   34.0370 H   0  0  0  0  0  0  0  0  0  0  0  0
   33.5300   28.4220   33.1890 H   0  0  0  0  0  0  0  0  0  0  0  0
   34.6170   29.2940   32.0430 H   0  0  0  0  0  0  0  0  0  0  0  0
   34.8300   28.8130   35.0960 H   0  0  0  0  0  0  0  0  0  0  0  0
   35.9810   30.9010   35.6870 O   0  0  0  0  0  0  0  0  0  0  0  0
   36.0130   31.8630   35.8200 H   0  0  0  0  0  0  0  0  0  0  0  0
   33.2630   30.9400   35.8580 S   0  0  0  0  0  0  0  0  0  0  0  0
   31.8060   34.3190   37.3000 C   0  0  0  0  0  0  0  0  0  0  0  0
   32.8750   34.9440   37.9530 C   0  0  0  0  0  0  0  0  0  0  0  0
   34.1080   34.2690   37.9380 C   0  0  0  0  0  0  0  0  0  0  0  0
   34.1940   33.0720   37.3040 N   0  0  0  0  0  0  0  0  0  0  0  0
   33.1270   32.5170   36.6880 C   0  0  0  0  0  0  0  0  0  0  0  0
   31.9170   33.1340   36.6790 N   0  0  0  0  0  0  0  0  0  0  0  0
   30.8370   34.8050   37.2880 H   0  0  0  0  0  0  0  0  0  0  0  0
   32.6930   35.9020   38.4290 H   0  0  0  0  0  0  0  0  0  0  0  0
   34.9260   34.7330   38.4300 H   0  0  0  0  0  0  0  0  0  0  0  0
   36.3710   28.5510   33.6740 O   0  0  0  0  0  0  0  0  0  0  0  0
   36.4370   26.0350   32.1450 Cl  0  0  0  0  0  0  0  0  0  0  0  0
   37.1820   26.3950   33.6850 C   0  0  0  0  0  0  0  0  0  0  0  0
   37.0870   27.6220   34.3020 C   0  0  0  0  0  0  0  0  0  0  0  0
   37.7470   27.7960   35.5230 C   0  0  0  0  0  0  0  0  0  0  0  0
   38.4660   26.7650   36.0830 C   0  0  0  0  0  0  0  0  0  0  0  0
   38.5680   25.5260   35.4720 C   0  0  0  0  0  0  0  0  0  0  0  0
   37.9180   25.3530   34.2640 C   0  0  0  0  0  0  0  0  0  0  0  0
   37.7190   28.7280   36.0610 H   0  0  0  0  0  0  0  0  0  0  0  0
   38.9670   26.9040   37.0170 H   0  0  0  0  0  0  0  0  0  0  0  0
   39.1360   24.7220   35.9180 H   0  0  0  0  0  0  0  0  0  0  0  0
   38.0510   23.7730   33.4890 S   0  0  0  0  0  0  0  0  0  0  0  0
   36.7480   23.2110   33.3910 H   0  0  0  0  0  0  0  0  0  0  0  0
  1  6  1  6  0  0  0
  1 11  1  0  0  0  0
  2  7  1  6  0  0  0
  2  1  1  0  0  0  0
  2 13  1  0  0  0  0
  3  2  1  0  0  0  0
  4  8  1  0  0  0  0
  4  3  1  0  0  0  0
  4  5  1  0  0  0  0
  5  1  1  0  0  0  0
  5 10  1  1  0  0  0
  9  4  1  0  0  0  0
 11 12  1  0  0  0  0
 13 18  1  0  0  0  0
 14 15  1  0  0  0  0
 15 21  1  0  0  0  0
 16 15  2  0  0  0  0
 16 22  1  0  0  0  0
 17 16  1  0  0  0  0
 18 17  2  0  0  0  0
 19 18  1  0  0  0  0
 19 14  2  0  0  0  0
 20 14  1  0  0  0  0
 23  5  1  0  0  0  0
 23 26  1  0  0  0  0
 24 25  1  0  0  0  0
 25 30  2  0  0  0  0
 25 26  1  0  0  0  0
 26 27  2  0  0  0  0
 27 31  1  0  0  0  0
 27 28  1  0  0  0  0
 28 32  1  0  0  0  0
 29 33  1  0  0  0  0
 29 28  2  0  0  0  0
 30 29  1  0  0  0  0
 34 30  1  0  0  0  0
 35 34  1  0  0  0  0
M  END
>  <minimizedAffinity>
-4.85582829

$$$$
