
 OpenBabel03272501093D

 33 35  0  0  1  0  0  0  0  0999 V2000
   38.0680   26.1750   34.5750 C   0  0  2  0  0  0  0  0  0  0  0  0
   38.4180   25.8470   33.0930 C   0  0  2  0  0  0  0  0  0  0  0  0
   39.2540   26.9860   32.7410 C   0  0  0  0  0  0  0  0  0  0  0  0
   40.0130   27.3100   33.8610 O   0  0  0  0  0  0  0  0  0  0  0  0
   39.4800   26.6990   34.9410 C   0  0  0  0  0  0  0  0  0  0  0  0
   37.3440   26.9820   34.6530 H   0  0  0  0  0  0  0  0  0  0  0  0
   39.0040   24.9030   33.1710 H   0  0  0  0  0  0  0  0  0  0  0  0
   39.9970   26.6920   31.9430 H   0  0  0  0  0  0  0  0  0  0  0  0
   38.7440   27.8750   32.3500 H   0  0  0  0  0  0  0  0  0  0  0  0
   39.2750   27.5060   35.7040 H   0  0  0  0  0  0  0  0  0  0  0  0
   40.0700   25.9370   35.4480 H   0  0  0  0  0  0  0  0  0  0  0  0
   35.6890   24.0700   31.2000 C   0  0  0  0  0  0  0  0  0  0  0  0
   36.8560   24.2530   31.9930 C   0  0  0  0  0  0  0  0  0  0  0  0
   37.2380   25.5860   32.3000 C   0  0  0  0  0  0  0  0  0  0  0  0
   36.4740   26.6310   31.8240 N   0  0  0  0  0  0  0  0  0  0  0  0
   35.3860   26.4060   31.0820 C   0  0  0  0  0  0  0  0  0  0  0  0
   34.9830   25.1510   30.7650 N   0  0  0  0  0  0  0  0  0  0  0  0
   35.3970   23.0600   30.9650 H   0  0  0  0  0  0  0  0  0  0  0  0
   37.4090   23.3940   32.3320 H   0  0  0  0  0  0  0  0  0  0  0  0
   34.8570   27.2860   30.7590 H   0  0  0  0  0  0  0  0  0  0  0  0
   37.8100   25.0560   35.2960 O   0  0  0  0  0  0  0  0  0  0  0  0
   40.1490   23.1380   34.7000 Cl  0  0  0  0  0  0  0  0  0  0  0  0
   39.4500   23.4400   36.2840 C   0  0  0  0  0  0  0  0  0  0  0  0
   38.4030   24.3530   36.2750 C   0  0  0  0  0  0  0  0  0  0  0  0
   37.8550   24.5930   37.5210 C   0  0  0  0  0  0  0  0  0  0  0  0
   38.3130   23.9760   38.6690 C   0  0  0  0  0  0  0  0  0  0  0  0
   39.3560   23.0810   38.5940 C   0  0  0  0  0  0  0  0  0  0  0  0
   39.9500   22.7940   37.3850 C   0  0  0  0  0  0  0  0  0  0  0  0
   37.0370   25.2690   37.7140 H   0  0  0  0  0  0  0  0  0  0  0  0
   37.8970   24.1490   39.6530 H   0  0  0  0  0  0  0  0  0  0  0  0
   39.7500   22.5720   39.4640 H   0  0  0  0  0  0  0  0  0  0  0  0
   41.3080   21.6570   37.1470 S   0  0  0  0  0  0  0  0  0  0  0  0
   40.8140   20.4200   36.6360 H   0  0  0  0  0  0  0  0  0  0  0  0
  1  6  1  1  0  0  0
  1  5  1  0  0  0  0
  1 21  1  0  0  0  0
  2  7  1  6  0  0  0
  2  1  1  0  0  0  0
  3  2  1  0  0  0  0
  3  4  1  0  0  0  0
  4  5  1  0  0  0  0
  5 11  1  0  0  0  0
  5 10  1  0  0  0  0
  8  3  1  0  0  0  0
  9  3  1  0  0  0  0
 12 13  1  0  0  0  0
 13 14  2  0  0  0  0
 13 19  1  0  0  0  0
 14  2  1  0  0  0  0
 15 14  1  0  0  0  0
 16 15  2  0  0  0  0
 17 16  1  0  0  0  0
 17 12  2  0  0  0  0
 18 12  1  0  0  0  0
 20 16  1  0  0  0  0
 21 24  1  0  0  0  0
 22 23  1  0  0  0  0
 23 28  1  0  0  0  0
 24 23  2  0  0  0  0
 24 25  1  0  0  0  0
 25 29  1  0  0  0  0
 25 26  2  0  0  0  0
 26 30  1  0  0  0  0
 27 26  1  0  0  0  0
 27 31  1  0  0  0  0
 28 27  2  0  0  0  0
 32 28  1  0  0  0  0
 33 32  1  0  0  0  0
M  END
>  <minimizedAffinity>
-5.27955675

$$$$

 OpenBabel03272501093D

 33 35  0  0  1  0  0  0  0  0999 V2000
   37.2940   26.0700   34.3780 C   0  0  2  0  0  0  0  0  0  0  0  0
   37.4210   26.1100   32.8260 C   0  0  2  0  0  0  0  0  0  0  0  0
   36.5080   27.1940   32.4950 C   0  0  0  0  0  0  0  0  0  0  0  0
   36.6200   28.1550   33.4960 O   0  0  0  0  0  0  0  0  0  0  0  0
   37.2530   27.6090   34.5560 C   0  0  0  0  0  0  0  0  0  0  0  0
   36.3490   25.6370   34.6980 H   0  0  0  0  0  0  0  0  0  0  0  0
   38.4870   26.3910   32.6640 H   0  0  0  0  0  0  0  0  0  0  0  0
   36.8390   27.7050   31.5440 H   0  0  0  0  0  0  0  0  0  0  0  0
   35.4580   26.9280   32.3320 H   0  0  0  0  0  0  0  0  0  0  0  0
   36.5790   27.7560   35.4500 H   0  0  0  0  0  0  0  0  0  0  0  0
   38.2280   28.0040   34.8360 H   0  0  0  0  0  0  0  0  0  0  0  0
   35.7670   23.1730   31.1440 C   0  0  0  0  0  0  0  0  0  0  0  0
   35.9190   24.4700   31.7100 C   0  0  0  0  0  0  0  0  0  0  0  0
   37.1960   24.8130   32.2280 C   0  0  0  0  0  0  0  0  0  0  0  0
   38.2190   23.8900   32.1610 N   0  0  0  0  0  0  0  0  0  0  0  0
   38.0240   22.6850   31.6200 C   0  0  0  0  0  0  0  0  0  0  0  0
   36.8230   22.3130   31.1130 N   0  0  0  0  0  0  0  0  0  0  0  0
   34.7990   22.9090   30.7500 H   0  0  0  0  0  0  0  0  0  0  0  0
   35.0800   25.1430   31.7320 H   0  0  0  0  0  0  0  0  0  0  0  0
   38.8830   22.0370   31.6140 H   0  0  0  0  0  0  0  0  0  0  0  0
   38.4150   25.5840   34.9670 O   0  0  0  0  0  0  0  0  0  0  0  0
   40.7060   23.5400   34.6940 Cl  0  0  0  0  0  0  0  0  0  0  0  0
   39.6750   23.7420   36.1040 C   0  0  0  0  0  0  0  0  0  0  0  0
   38.7180   24.7380   35.9650 C   0  0  0  0  0  0  0  0  0  0  0  0
   37.9080   24.8990   37.0740 C   0  0  0  0  0  0  0  0  0  0  0  0
   38.0450   24.1320   38.2160 C   0  0  0  0  0  0  0  0  0  0  0  0
   39.0200   23.1610   38.2740 C   0  0  0  0  0  0  0  0  0  0  0  0
   39.8630   22.9470   37.2050 C   0  0  0  0  0  0  0  0  0  0  0  0
   37.1110   25.6210   37.1560 H   0  0  0  0  0  0  0  0  0  0  0  0
   37.4220   24.2410   39.0940 H   0  0  0  0  0  0  0  0  0  0  0  0
   39.1670   22.5350   39.1440 H   0  0  0  0  0  0  0  0  0  0  0  0
   41.1660   21.7260   37.1490 S   0  0  0  0  0  0  0  0  0  0  0  0
   40.7300   20.5940   36.3970 H   0  0  0  0  0  0  0  0  0  0  0  0
  1  5  1  0  0  0  0
  1  6  1  1  0  0  0
  1 21  1  0  0  0  0
  2  7  1  6  0  0  0
  2  1  1  0  0  0  0
  3  2  1  0  0  0  0
  3  4  1  0  0  0  0
  4  5  1  0  0  0  0
  5 11  1  0  0  0  0
  5 10  1  0  0  0  0
  8  3  1  0  0  0  0
  9  3  1  0  0  0  0
 12 13  1  0  0  0  0
 13 19  1  0  0  0  0
 13 14  2  0  0  0  0
 14  2  1  0  0  0  0
 15 14  1  0  0  0  0
 16 15  2  0  0  0  0
 17 12  2  0  0  0  0
 17 16  1  0  0  0  0
 18 12  1  0  0  0  0
 20 16  1  0  0  0  0
 21 24  1  0  0  0  0
 22 23  1  0  0  0  0
 23 28  1  0  0  0  0
 24 23  2  0  0  0  0
 24 25  1  0  0  0  0
 25 29  1  0  0  0  0
 25 26  2  0  0  0  0
 26 27  1  0  0  0  0
 26 30  1  0  0  0  0
 27 31  1  0  0  0  0
 28 27  2  0  0  0  0
 32 28  1  0  0  0  0
 33 32  1  0  0  0  0
M  END
>  <minimizedAffinity>
-5.14223766

$$$$

 OpenBabel03272501093D

 33 35  0  0  1  0  0  0  0  0999 V2000
   37.3730   25.2720   31.3090 C   0  0  2  0  0  0  0  0  0  0  0  0
   36.0060   25.9310   31.6570 C   0  0  2  0  0  0  0  0  0  0  0  0
   35.0880   25.1030   30.8880 C   0  0  0  0  0  0  0  0  0  0  0  0
   35.5670   23.7970   30.9310 O   0  0  0  0  0  0  0  0  0  0  0  0
   36.8460   23.8160   31.3630 C   0  0  0  0  0  0  0  0  0  0  0  0
   37.6940   25.5100   30.2980 H   0  0  0  0  0  0  0  0  0  0  0  0
   35.9100   25.7590   32.7540 H   0  0  0  0  0  0  0  0  0  0  0  0
   34.0760   25.0740   31.3890 H   0  0  0  0  0  0  0  0  0  0  0  0
   34.8910   25.4080   29.8530 H   0  0  0  0  0  0  0  0  0  0  0  0
   37.4620   23.2800   30.5830 H   0  0  0  0  0  0  0  0  0  0  0  0
   37.0760   23.3430   32.3170 H   0  0  0  0  0  0  0  0  0  0  0  0
   36.7410   29.3190   30.1840 C   0  0  0  0  0  0  0  0  0  0  0  0
   36.7740   27.9070   30.3530 C   0  0  0  0  0  0  0  0  0  0  0  0
   36.0120   27.3580   31.4190 C   0  0  0  0  0  0  0  0  0  0  0  0
   35.2840   28.2020   32.2300 N   0  0  0  0  0  0  0  0  0  0  0  0
   35.2870   29.5220   32.0290 C   0  0  0  0  0  0  0  0  0  0  0  0
   35.9990   30.0910   31.0250 N   0  0  0  0  0  0  0  0  0  0  0  0
   37.3190   29.7400   29.3760 H   0  0  0  0  0  0  0  0  0  0  0  0
   37.3640   27.3040   29.6860 H   0  0  0  0  0  0  0  0  0  0  0  0
   34.6880   30.0950   32.7150 H   0  0  0  0  0  0  0  0  0  0  0  0
   38.2880   25.4500   32.2940 O   0  0  0  0  0  0  0  0  0  0  0  0
   37.9310   23.1580   34.3240 Cl  0  0  0  0  0  0  0  0  0  0  0  0
   38.1410   24.8580   34.7230 C   0  0  0  0  0  0  0  0  0  0  0  0
   38.2820   25.6840   33.6160 C   0  0  0  0  0  0  0  0  0  0  0  0
   38.4500   27.0200   33.9300 C   0  0  0  0  0  0  0  0  0  0  0  0
   38.4740   27.4840   35.2310 C   0  0  0  0  0  0  0  0  0  0  0  0
   38.3260   26.5990   36.2750 C   0  0  0  0  0  0  0  0  0  0  0  0
   38.1550   25.2530   36.0360 C   0  0  0  0  0  0  0  0  0  0  0  0
   38.5750   27.8110   33.2070 H   0  0  0  0  0  0  0  0  0  0  0  0
   38.6020   28.5250   35.4980 H   0  0  0  0  0  0  0  0  0  0  0  0
   38.3370   26.9120   37.3110 H   0  0  0  0  0  0  0  0  0  0  0  0
   37.9530   24.0000   37.2940 S   0  0  0  0  0  0  0  0  0  0  0  0
   36.5750   23.6510   37.4060 H   0  0  0  0  0  0  0  0  0  0  0  0
  1  6  1  6  0  0  0
  1  5  1  0  0  0  0
  1  2  1  0  0  0  0
  1 21  1  0  0  0  0
  2  7  1  1  0  0  0
  3  4  1  0  0  0  0
  3  8  1  0  0  0  0
  3  2  1  0  0  0  0
  4  5  1  0  0  0  0
  5 11  1  0  0  0  0
  9  3  1  0  0  0  0
 10  5  1  0  0  0  0
 12 13  2  0  0  0  0
 12 17  1  0  0  0  0
 13 14  1  0  0  0  0
 14  2  1  0  0  0  0
 14 15  2  0  0  0  0
 16 15  1  0  0  0  0
 16 20  1  0  0  0  0
 17 16  2  0  0  0  0
 18 12  1  0  0  0  0
 19 13  1  0  0  0  0
 21 24  1  0  0  0  0
 22 23  1  0  0  0  0
 23 28  1  0  0  0  0
 24 25  1  0  0  0  0
 24 23  2  0  0  0  0
 25 26  2  0  0  0  0
 26 30  1  0  0  0  0
 26 27  1  0  0  0  0
 27 31  1  0  0  0  0
 28 27  2  0  0  0  0
 28 32  1  0  0  0  0
 29 25  1  0  0  0  0
 32 33  1  0  0  0  0
M  END
>  <minimizedAffinity>
-5.09722757

$$$$

 OpenBabel03272501093D

 33 35  0  0  1  0  0  0  0  0999 V2000
   35.1650   29.0220   32.2740 C   0  0  2  0  0  0  0  0  0  0  0  0
   36.4440   28.3640   31.6770 C   0  0  2  0  0  0  0  0  0  0  0  0
   36.4720   28.9570   30.3480 C   0  0  0  0  0  0  0  0  0  0  0  0
   36.0310   30.2720   30.4660 O   0  0  0  0  0  0  0  0  0  0  0  0
   35.4280   30.4220   31.6650 C   0  0  0  0  0  0  0  0  0  0  0  0
   34.2560   28.6010   31.8510 H   0  0  0  0  0  0  0  0  0  0  0  0
   37.2600   28.7520   32.3290 H   0  0  0  0  0  0  0  0  0  0  0  0
   37.5370   29.0260   29.9740 H   0  0  0  0  0  0  0  0  0  0  0  0
   35.9210   28.4350   29.5580 H   0  0  0  0  0  0  0  0  0  0  0  0
   34.3920   30.8230   31.4620 H   0  0  0  0  0  0  0  0  0  0  0  0
   35.8820   31.0950   32.3920 H   0  0  0  0  0  0  0  0  0  0  0  0
   37.2860   24.8270   32.6590 C   0  0  0  0  0  0  0  0  0  0  0  0
   37.3650   26.2460   32.6030 C   0  0  0  0  0  0  0  0  0  0  0  0
   36.4180   26.9230   31.7880 C   0  0  0  0  0  0  0  0  0  0  0  0
   35.4790   26.1880   31.0970 N   0  0  0  0  0  0  0  0  0  0  0  0
   35.4480   24.8550   31.1820 C   0  0  0  0  0  0  0  0  0  0  0  0
   36.3300   24.1660   31.9470 N   0  0  0  0  0  0  0  0  0  0  0  0
   38.0040   24.3090   33.2750 H   0  0  0  0  0  0  0  0  0  0  0  0
   38.1230   26.7600   33.1670 H   0  0  0  0  0  0  0  0  0  0  0  0
   34.6780   24.3730   30.6060 H   0  0  0  0  0  0  0  0  0  0  0  0
   35.2220   29.1080   33.6260 O   0  0  0  0  0  0  0  0  0  0  0  0
   32.2400   29.3750   34.3590 Cl  0  0  0  0  0  0  0  0  0  0  0  0
   33.5600   30.2730   35.0950 C   0  0  0  0  0  0  0  0  0  0  0  0
   34.8110   29.9600   34.5800 C   0  0  0  0  0  0  0  0  0  0  0  0
   35.8500   30.6640   35.1590 C   0  0  0  0  0  0  0  0  0  0  0  0
   35.6530   31.5950   36.1610 C   0  0  0  0  0  0  0  0  0  0  0  0
   34.3800   31.8490   36.6170 C   0  0  0  0  0  0  0  0  0  0  0  0
   33.2970   31.1840   36.0850 C   0  0  0  0  0  0  0  0  0  0  0  0
   36.8900   30.5580   34.8930 H   0  0  0  0  0  0  0  0  0  0  0  0
   36.4520   32.1570   36.6270 H   0  0  0  0  0  0  0  0  0  0  0  0
   34.1730   32.5680   37.3990 H   0  0  0  0  0  0  0  0  0  0  0  0
   31.5970   31.4170   36.5830 S   0  0  0  0  0  0  0  0  0  0  0  0
   30.9280   32.2440   35.6340 H   0  0  0  0  0  0  0  0  0  0  0  0
  1  6  1  6  0  0  0
  1 21  1  0  0  0  0
  2 14  1  0  0  0  0
  2  1  1  0  0  0  0
  2  7  1  1  0  0  0
  3  4  1  0  0  0  0
  3  2  1  0  0  0  0
  4  5  1  0  0  0  0
  5  1  1  0  0  0  0
  5 11  1  0  0  0  0
  8  3  1  0  0  0  0
  9  3  1  0  0  0  0
 10  5  1  0  0  0  0
 12 18  1  0  0  0  0
 13 12  1  0  0  0  0
 13 19  1  0  0  0  0
 14 13  2  0  0  0  0
 15 16  2  0  0  0  0
 15 14  1  0  0  0  0
 16 17  1  0  0  0  0
 17 12  2  0  0  0  0
 20 16  1  0  0  0  0
 21 24  1  0  0  0  0
 22 23  1  0  0  0  0
 23 28  1  0  0  0  0
 24 23  2  0  0  0  0
 24 25  1  0  0  0  0
 25 26  2  0  0  0  0
 26 27  1  0  0  0  0
 26 30  1  0  0  0  0
 27 31  1  0  0  0  0
 28 32  1  0  0  0  0
 28 27  2  0  0  0  0
 29 25  1  0  0  0  0
 33 32  1  0  0  0  0
M  END
>  <minimizedAffinity>
-5.01375484

$$$$

 OpenBabel03272501093D

 33 35  0  0  1  0  0  0  0  0999 V2000
   39.0490   23.7230   33.5880 C   0  0  2  0  0  0  0  0  0  0  0  0
   39.7040   24.6150   34.6830 C   0  0  2  0  0  0  0  0  0  0  0  0
   41.0870   24.6490   34.2310 C   0  0  0  0  0  0  0  0  0  0  0  0
   41.0720   24.6870   32.8400 O   0  0  0  0  0  0  0  0  0  0  0  0
   39.8390   24.3450   32.4080 C   0  0  0  0  0  0  0  0  0  0  0  0
   39.3190   22.6760   33.7000 H   0  0  0  0  0  0  0  0  0  0  0  0
   39.1940   25.5960   34.5540 H   0  0  0  0  0  0  0  0  0  0  0  0
   41.5810   25.6110   34.5570 H   0  0  0  0  0  0  0  0  0  0  0  0
   41.7470   23.8490   34.5870 H   0  0  0  0  0  0  0  0  0  0  0  0
   39.9720   23.4820   31.6920 H   0  0  0  0  0  0  0  0  0  0  0  0
   39.2480   25.0930   31.8830 H   0  0  0  0  0  0  0  0  0  0  0  0
   38.1020   24.1070   38.0550 C   0  0  0  0  0  0  0  0  0  0  0  0
   38.3090   24.6200   36.7440 C   0  0  0  0  0  0  0  0  0  0  0  0
   39.4270   24.1300   36.0180 C   0  0  0  0  0  0  0  0  0  0  0  0
   40.2510   23.1930   36.6030 N   0  0  0  0  0  0  0  0  0  0  0  0
   40.0140   22.7430   37.8380 C   0  0  0  0  0  0  0  0  0  0  0  0
   38.9590   23.1810   38.5690 N   0  0  0  0  0  0  0  0  0  0  0  0
   37.2550   24.4760   38.6090 H   0  0  0  0  0  0  0  0  0  0  0  0
   37.6280   25.3520   36.3450 H   0  0  0  0  0  0  0  0  0  0  0  0
   40.7140   22.0140   38.2070 H   0  0  0  0  0  0  0  0  0  0  0  0
   37.7300   23.9960   33.4320 O   0  0  0  0  0  0  0  0  0  0  0  0
   37.7720   27.0690   33.6780 Cl  0  0  0  0  0  0  0  0  0  0  0  0
   36.7980   26.1450   32.5430 C   0  0  0  0  0  0  0  0  0  0  0  0
   36.9690   24.7700   32.6410 C   0  0  0  0  0  0  0  0  0  0  0  0
   36.2060   24.0440   31.7470 C   0  0  0  0  0  0  0  0  0  0  0  0
   35.3500   24.6390   30.8390 C   0  0  0  0  0  0  0  0  0  0  0  0
   35.2360   26.0110   30.8060 C   0  0  0  0  0  0  0  0  0  0  0  0
   35.9680   26.7970   31.6680 C   0  0  0  0  0  0  0  0  0  0  0  0
   36.2030   22.9670   31.6710 H   0  0  0  0  0  0  0  0  0  0  0  0
   34.7430   24.0880   30.1320 H   0  0  0  0  0  0  0  0  0  0  0  0
   34.5810   26.5240   30.1150 H   0  0  0  0  0  0  0  0  0  0  0  0
   35.9160   28.5820   31.7310 S   0  0  0  0  0  0  0  0  0  0  0  0
   35.1040   29.0010   32.8260 H   0  0  0  0  0  0  0  0  0  0  0  0
  1  6  1  1  0  0  0
  1  2  1  0  0  0  0
  2  7  1  6  0  0  0
  2 14  1  0  0  0  0
  3  8  1  0  0  0  0
  3  9  1  0  0  0  0
  3  2  1  0  0  0  0
  4  3  1  0  0  0  0
  5  4  1  0  0  0  0
  5  1  1  0  0  0  0
 10  5  1  0  0  0  0
 11  5  1  0  0  0  0
 12 17  1  0  0  0  0
 12 18  1  0  0  0  0
 13 12  2  0  0  0  0
 14 15  2  0  0  0  0
 14 13  1  0  0  0  0
 15 16  1  0  0  0  0
 16 20  1  0  0  0  0
 16 17  2  0  0  0  0
 19 13  1  0  0  0  0
 21  1  1  0  0  0  0
 23 24  1  0  0  0  0
 23 22  1  0  0  0  0
 24 21  1  0  0  0  0
 25 24  2  0  0  0  0
 26 25  1  0  0  0  0
 27 26  2  0  0  0  0
 27 28  1  0  0  0  0
 28 32  1  0  0  0  0
 28 23  2  0  0  0  0
 29 25  1  0  0  0  0
 30 26  1  0  0  0  0
 31 27  1  0  0  0  0
 32 33  1  0  0  0  0
M  END
>  <minimizedAffinity>
-4.83110857

$$$$

 OpenBabel03272501093D

 33 35  0  0  1  0  0  0  0  0999 V2000
   39.0300   22.9720   33.6730 C   0  0  2  0  0  0  0  0  0  0  0  0
   38.2060   23.9070   34.6070 C   0  0  2  0  0  0  0  0  0  0  0  0
   38.5100   25.2130   34.0400 C   0  0  0  0  0  0  0  0  0  0  0  0
   38.5930   25.0610   32.6590 O   0  0  0  0  0  0  0  0  0  0  0  0
   38.6990   23.7460   32.3710 C   0  0  0  0  0  0  0  0  0  0  0  0
   40.0960   23.0310   33.8750 H   0  0  0  0  0  0  0  0  0  0  0  0
   37.1530   23.5990   34.4140 H   0  0  0  0  0  0  0  0  0  0  0  0
   37.6510   25.9240   34.2180 H   0  0  0  0  0  0  0  0  0  0  0  0
   39.3980   25.7270   34.4250 H   0  0  0  0  0  0  0  0  0  0  0  0
   39.6300   23.6240   31.7450 H   0  0  0  0  0  0  0  0  0  0  0  0
   37.8900   23.2710   31.8180 H   0  0  0  0  0  0  0  0  0  0  0  0
   39.9410   22.8630   37.7840 C   0  0  0  0  0  0  0  0  0  0  0  0
   39.7230   23.0680   36.3930 C   0  0  0  0  0  0  0  0  0  0  0  0
   38.4990   23.6760   36.0040 C   0  0  0  0  0  0  0  0  0  0  0  0
   37.5890   24.0370   36.9750 N   0  0  0  0  0  0  0  0  0  0  0  0
   37.8410   23.8220   38.2690 C   0  0  0  0  0  0  0  0  0  0  0  0
   38.9950   23.2450   38.6870 N   0  0  0  0  0  0  0  0  0  0  0  0
   40.8680   22.4010   38.0830 H   0  0  0  0  0  0  0  0  0  0  0  0
   40.4740   22.7630   35.6860 H   0  0  0  0  0  0  0  0  0  0  0  0
   37.0700   24.1380   38.9490 H   0  0  0  0  0  0  0  0  0  0  0  0
   38.4940   21.7280   33.5980 O   0  0  0  0  0  0  0  0  0  0  0  0
   39.1520   20.4320   30.8800 Cl  0  0  0  0  0  0  0  0  0  0  0  0
   37.5720   20.4500   31.6510 C   0  0  0  0  0  0  0  0  0  0  0  0
   37.5490   21.1020   32.8760 C   0  0  0  0  0  0  0  0  0  0  0  0
   36.3080   21.1150   33.4840 C   0  0  0  0  0  0  0  0  0  0  0  0
   35.1930   20.5290   32.9160 C   0  0  0  0  0  0  0  0  0  0  0  0
   35.2970   19.9010   31.6950 C   0  0  0  0  0  0  0  0  0  0  0  0
   36.5040   19.8500   31.0330 C   0  0  0  0  0  0  0  0  0  0  0  0
   36.0930   21.5720   34.4380 H   0  0  0  0  0  0  0  0  0  0  0  0
   34.2120   20.5280   33.3750 H   0  0  0  0  0  0  0  0  0  0  0  0
   34.4550   19.4280   31.2090 H   0  0  0  0  0  0  0  0  0  0  0  0
   36.7790   19.0700   29.4490 S   0  0  0  0  0  0  0  0  0  0  0  0
   36.8230   20.0630   28.4270 H   0  0  0  0  0  0  0  0  0  0  0  0
  1  6  1  1  0  0  0
  1  2  1  0  0  0  0
  2  7  1  6  0  0  0
  2 14  1  0  0  0  0
  3  8  1  0  0  0  0
  3  9  1  0  0  0  0
  3  2  1  0  0  0  0
  4  3  1  0  0  0  0
  5  4  1  0  0  0  0
  5  1  1  0  0  0  0
 10  5  1  0  0  0  0
 11  5  1  0  0  0  0
 12 18  1  0  0  0  0
 12 17  1  0  0  0  0
 13 12  2  0  0  0  0
 14 13  1  0  0  0  0
 14 15  2  0  0  0  0
 15 16  1  0  0  0  0
 16 17  2  0  0  0  0
 16 20  1  0  0  0  0
 19 13  1  0  0  0  0
 21  1  1  0  0  0  0
 22 23  1  0  0  0  0
 23 24  1  0  0  0  0
 24 25  2  0  0  0  0
 24 21  1  0  0  0  0
 25 29  1  0  0  0  0
 26 30  1  0  0  0  0
 26 25  1  0  0  0  0
 27 26  2  0  0  0  0
 28 23  2  0  0  0  0
 28 27  1  0  0  0  0
 31 27  1  0  0  0  0
 32 28  1  0  0  0  0
 33 32  1  0  0  0  0
M  END
>  <minimizedAffinity>
-4.7749691

$$$$

 OpenBabel03272501093D

 33 35  0  0  1  0  0  0  0  0999 V2000
   39.0770   26.0980   33.2000 C   0  0  2  0  0  0  0  0  0  0  0  0
   39.3050   26.1270   34.7410 C   0  0  2  0  0  0  0  0  0  0  0  0
   40.7490   26.3030   34.8090 C   0  0  0  0  0  0  0  0  0  0  0  0
   41.1170   27.1470   33.7650 O   0  0  0  0  0  0  0  0  0  0  0  0
   40.0950   27.2230   32.8860 C   0  0  0  0  0  0  0  0  0  0  0  0
   39.4110   25.1640   32.7560 H   0  0  0  0  0  0  0  0  0  0  0  0
   38.7530   27.0380   35.0650 H   0  0  0  0  0  0  0  0  0  0  0  0
   41.0290   26.8510   35.7570 H   0  0  0  0  0  0  0  0  0  0  0  0
   41.3620   25.3950   34.8060 H   0  0  0  0  0  0  0  0  0  0  0  0
   40.5110   26.9320   31.8770 H   0  0  0  0  0  0  0  0  0  0  0  0
   39.6000   28.1840   32.7500 H   0  0  0  0  0  0  0  0  0  0  0  0
   37.5860   23.9400   37.2810 C   0  0  0  0  0  0  0  0  0  0  0  0
   38.1360   25.1110   36.6890 C   0  0  0  0  0  0  0  0  0  0  0  0
   38.7190   24.9810   35.4000 C   0  0  0  0  0  0  0  0  0  0  0  0
   38.7270   23.7460   34.7870 N   0  0  0  0  0  0  0  0  0  0  0  0
   38.1980   22.6760   35.3860 C   0  0  0  0  0  0  0  0  0  0  0  0
   37.6300   22.7520   36.6150 N   0  0  0  0  0  0  0  0  0  0  0  0
   37.1430   24.0340   38.2590 H   0  0  0  0  0  0  0  0  0  0  0  0
   38.0980   26.0450   37.2210 H   0  0  0  0  0  0  0  0  0  0  0  0
   38.2530   21.7580   34.8270 H   0  0  0  0  0  0  0  0  0  0  0  0
   37.8320   26.5200   32.8640 O   0  0  0  0  0  0  0  0  0  0  0  0
   37.6830   28.2760   30.3350 Cl  0  0  0  0  0  0  0  0  0  0  0  0
   36.9260   28.6380   31.8810 C   0  0  0  0  0  0  0  0  0  0  0  0
   37.1500   27.6760   32.8570 C   0  0  0  0  0  0  0  0  0  0  0  0
   36.5530   27.9590   34.0720 C   0  0  0  0  0  0  0  0  0  0  0  0
   35.8030   29.1000   34.2870 C   0  0  0  0  0  0  0  0  0  0  0  0
   35.6290   30.0060   33.2660 C   0  0  0  0  0  0  0  0  0  0  0  0
   36.1950   29.7880   32.0290 C   0  0  0  0  0  0  0  0  0  0  0  0
   36.6130   27.3330   34.9480 H   0  0  0  0  0  0  0  0  0  0  0  0
   35.3290   29.3400   35.2300 H   0  0  0  0  0  0  0  0  0  0  0  0
   35.0510   30.9130   33.3840 H   0  0  0  0  0  0  0  0  0  0  0  0
   36.0480   30.8790   30.6210 S   0  0  0  0  0  0  0  0  0  0  0  0
   37.2420   31.6470   30.4830 H   0  0  0  0  0  0  0  0  0  0  0  0
  1  6  1  6  0  0  0
  1  2  1  0  0  0  0
  2  3  1  0  0  0  0
  2  7  1  1  0  0  0
  2 14  1  0  0  0  0
  3  8  1  0  0  0  0
  4  3  1  0  0  0  0
  5  1  1  0  0  0  0
  5  4  1  0  0  0  0
  9  3  1  0  0  0  0
 10  5  1  0  0  0  0
 11  5  1  0  0  0  0
 12 18  1  0  0  0  0
 13 19  1  0  0  0  0
 13 12  1  0  0  0  0
 14 13  2  0  0  0  0
 15 16  2  0  0  0  0
 15 14  1  0  0  0  0
 16 17  1  0  0  0  0
 17 12  2  0  0  0  0
 20 16  1  0  0  0  0
 21  1  1  0  0  0  0
 22 23  1  0  0  0  0
 23 28  2  0  0  0  0
 23 24  1  0  0  0  0
 24 21  1  0  0  0  0
 24 25  2  0  0  0  0
 25 26  1  0  0  0  0
 25 29  1  0  0  0  0
 26 30  1  0  0  0  0
 27 31  1  0  0  0  0
 27 26  2  0  0  0  0
 28 27  1  0  0  0  0
 32 28  1  0  0  0  0
 33 32  1  0  0  0  0
M  END
>  <minimizedAffinity>
-4.75895119

$$$$

 OpenBabel03272501093D

 33 35  0  0  1  0  0  0  0  0999 V2000
   37.9120   23.7950   33.4520 C   0  0  2  0  0  0  0  0  0  0  0  0
   39.0290   22.9210   34.0960 C   0  0  2  0  0  0  0  0  0  0  0  0
   38.7600   21.6260   33.4900 C   0  0  0  0  0  0  0  0  0  0  0  0
   38.3510   21.8540   32.1790 O   0  0  0  0  0  0  0  0  0  0  0  0
   38.0300   23.1580   32.0440 C   0  0  0  0  0  0  0  0  0  0  0  0
   36.9340   23.5800   33.8730 H   0  0  0  0  0  0  0  0  0  0  0  0
   39.9680   23.3810   33.7110 H   0  0  0  0  0  0  0  0  0  0  0  0
   39.7140   21.0260   33.4120 H   0  0  0  0  0  0  0  0  0  0  0  0
   38.0480   20.9720   34.0080 H   0  0  0  0  0  0  0  0  0  0  0  0
   36.9730   23.1930   31.6470 H   0  0  0  0  0  0  0  0  0  0  0  0
   38.6310   23.7730   31.3760 H   0  0  0  0  0  0  0  0  0  0  0  0
   40.1020   22.7290   37.7020 C   0  0  0  0  0  0  0  0  0  0  0  0
   40.1710   22.6130   36.2860 C   0  0  0  0  0  0  0  0  0  0  0  0
   39.0330   23.0200   35.5390 C   0  0  0  0  0  0  0  0  0  0  0  0
   37.9280   23.5030   36.2070 N   0  0  0  0  0  0  0  0  0  0  0  0
   37.9140   23.5920   37.5400 C   0  0  0  0  0  0  0  0  0  0  0  0
   38.9760   23.2160   38.2940 N   0  0  0  0  0  0  0  0  0  0  0  0
   40.9630   22.4200   38.2730 H   0  0  0  0  0  0  0  0  0  0  0  0
   41.0640   22.2260   35.8260 H   0  0  0  0  0  0  0  0  0  0  0  0
   37.0060   23.9820   37.9670 H   0  0  0  0  0  0  0  0  0  0  0  0
   38.2680   25.1020   33.3790 O   0  0  0  0  0  0  0  0  0  0  0  0
   37.9750   26.5200   30.6580 Cl  0  0  0  0  0  0  0  0  0  0  0  0
   37.3860   27.1270   32.1990 C   0  0  0  0  0  0  0  0  0  0  0  0
   37.6490   26.2890   33.2740 C   0  0  0  0  0  0  0  0  0  0  0  0
   37.1830   26.7650   34.4850 C   0  0  0  0  0  0  0  0  0  0  0  0
   36.5160   27.9690   34.6070 C   0  0  0  0  0  0  0  0  0  0  0  0
   36.2950   28.7440   33.4910 C   0  0  0  0  0  0  0  0  0  0  0  0
   36.7310   28.3310   32.2520 C   0  0  0  0  0  0  0  0  0  0  0  0
   37.2920   26.2560   35.4300 H   0  0  0  0  0  0  0  0  0  0  0  0
   36.1440   28.3600   35.5460 H   0  0  0  0  0  0  0  0  0  0  0  0
   35.7780   29.6930   33.5350 H   0  0  0  0  0  0  0  0  0  0  0  0
   36.5110   29.2360   30.7270 S   0  0  0  0  0  0  0  0  0  0  0  0
   37.7250   29.9020   30.3850 H   0  0  0  0  0  0  0  0  0  0  0  0
  1  6  1  1  0  0  0
  1  2  1  0  0  0  0
  2  7  1  6  0  0  0
  2 14  1  0  0  0  0
  3  9  1  0  0  0  0
  3  2  1  0  0  0  0
  4  3  1  0  0  0  0
  5  4  1  0  0  0  0
  5  1  1  0  0  0  0
  8  3  1  0  0  0  0
 10  5  1  0  0  0  0
 11  5  1  0  0  0  0
 12 18  1  0  0  0  0
 12 17  1  0  0  0  0
 13 12  2  0  0  0  0
 14 15  2  0  0  0  0
 14 13  1  0  0  0  0
 15 16  1  0  0  0  0
 16 20  1  0  0  0  0
 16 17  2  0  0  0  0
 19 13  1  0  0  0  0
 21  1  1  0  0  0  0
 22 23  1  0  0  0  0
 23 28  2  0  0  0  0
 23 24  1  0  0  0  0
 24 21  1  0  0  0  0
 24 25  2  0  0  0  0
 25 26  1  0  0  0  0
 25 29  1  0  0  0  0
 26 30  1  0  0  0  0
 27 31  1  0  0  0  0
 27 26  2  0  0  0  0
 28 27  1  0  0  0  0
 32 28  1  0  0  0  0
 33 32  1  0  0  0  0
M  END
>  <minimizedAffinity>
-4.74873686

$$$$

 OpenBabel03272501093D

 33 35  0  0  1  0  0  0  0  0999 V2000
   34.6930   29.3790   32.6820 C   0  0  2  0  0  0  0  0  0  0  0  0
   36.0830   28.9740   32.1070 C   0  0  2  0  0  0  0  0  0  0  0  0
   36.0230   29.5670   30.7790 C   0  0  0  0  0  0  0  0  0  0  0  0
   35.3410   30.7750   30.8900 O   0  0  0  0  0  0  0  0  0  0  0  0
   34.7010   30.8060   32.0780 C   0  0  0  0  0  0  0  0  0  0  0  0
   33.8860   28.7980   32.2430 H   0  0  0  0  0  0  0  0  0  0  0  0
   36.8000   29.5050   32.7740 H   0  0  0  0  0  0  0  0  0  0  0  0
   37.0610   29.8340   30.4240 H   0  0  0  0  0  0  0  0  0  0  0  0
   35.5920   28.9530   29.9790 H   0  0  0  0  0  0  0  0  0  0  0  0
   33.6120   31.0080   31.8560 H   0  0  0  0  0  0  0  0  0  0  0  0
   35.0090   31.5490   32.8120 H   0  0  0  0  0  0  0  0  0  0  0  0
   37.3970   25.6380   33.2620 C   0  0  0  0  0  0  0  0  0  0  0  0
   37.1980   27.0460   33.2170 C   0  0  0  0  0  0  0  0  0  0  0  0
   36.3250   27.5530   32.2180 C   0  0  0  0  0  0  0  0  0  0  0  0
   35.7160   26.6730   31.3480 N   0  0  0  0  0  0  0  0  0  0  0  0
   35.9370   25.3580   31.4320 C   0  0  0  0  0  0  0  0  0  0  0  0
   36.7620   24.8290   32.3690 N   0  0  0  0  0  0  0  0  0  0  0  0
   38.0590   25.2500   34.0190 H   0  0  0  0  0  0  0  0  0  0  0  0
   37.7040   27.6780   33.9250 H   0  0  0  0  0  0  0  0  0  0  0  0
   35.4160   24.7560   30.7080 H   0  0  0  0  0  0  0  0  0  0  0  0
   34.7100   29.4700   34.0350 O   0  0  0  0  0  0  0  0  0  0  0  0
   35.9270   32.0260   35.2560 Cl  0  0  0  0  0  0  0  0  0  0  0  0
   34.3760   31.3200   35.6910 C   0  0  0  0  0  0  0  0  0  0  0  0
   34.0650   30.1650   34.9860 C   0  0  0  0  0  0  0  0  0  0  0  0
   32.8440   29.6110   35.3260 C   0  0  0  0  0  0  0  0  0  0  0  0
   32.0150   30.1630   36.2830 C   0  0  0  0  0  0  0  0  0  0  0  0
   32.3970   31.3110   36.9390 C   0  0  0  0  0  0  0  0  0  0  0  0
   33.6000   31.9170   36.6500 C   0  0  0  0  0  0  0  0  0  0  0  0
   32.4310   28.7160   34.8880 H   0  0  0  0  0  0  0  0  0  0  0  0
   31.0560   29.7450   36.5640 H   0  0  0  0  0  0  0  0  0  0  0  0
   31.7840   31.7820   37.6950 H   0  0  0  0  0  0  0  0  0  0  0  0
   34.2160   33.4060   37.4230 S   0  0  0  0  0  0  0  0  0  0  0  0
   35.1880   33.0660   38.4100 H   0  0  0  0  0  0  0  0  0  0  0  0
  1  6  1  6  0  0  0
  1 21  1  0  0  0  0
  2 14  1  0  0  0  0
  2  1  1  0  0  0  0
  2  7  1  1  0  0  0
  3  4  1  0  0  0  0
  3  2  1  0  0  0  0
  4  5  1  0  0  0  0
  5  1  1  0  0  0  0
  5 11  1  0  0  0  0
  8  3  1  0  0  0  0
  9  3  1  0  0  0  0
 10  5  1  0  0  0  0
 12 18  1  0  0  0  0
 13 12  1  0  0  0  0
 13 19  1  0  0  0  0
 14 13  2  0  0  0  0
 15 16  2  0  0  0  0
 15 14  1  0  0  0  0
 16 17  1  0  0  0  0
 17 12  2  0  0  0  0
 20 16  1  0  0  0  0
 21 24  1  0  0  0  0
 22 23  1  0  0  0  0
 23 28  1  0  0  0  0
 24 25  1  0  0  0  0
 24 23  2  0  0  0  0
 25 26  2  0  0  0  0
 26 30  1  0  0  0  0
 26 27  1  0  0  0  0
 27 31  1  0  0  0  0
 28 27  2  0  0  0  0
 28 32  1  0  0  0  0
 29 25  1  0  0  0  0
 32 33  1  0  0  0  0
M  END
>  <minimizedAffinity>
-4.74383163

$$$$
