
 OpenBabel03272506393D

 30 31  0  0  1  0  0  0  0  0999 V2000
   38.8800   23.5660   38.7190 O   0  0  0  0  0  0  0  0  0  0  0  0
   38.8520   23.3200   37.5060 C   0  0  0  0  0  0  0  0  0  0  0  0
   37.8940   23.9470   36.6230 C   0  0  2  0  0  0  0  0  0  0  0  0
   38.3880   23.4550   35.2330 C   0  0  0  0  0  0  0  0  0  0  0  0
   39.0990   22.1780   35.5430 C   0  0  0  0  0  0  0  0  0  0  0  0
   39.7350   22.4120   36.8330 N   0  0  0  0  0  0  0  0  0  0  0  0
   36.8530   23.6510   36.7490 H   0  0  0  0  0  0  0  0  0  0  0  0
   37.4690   23.2610   34.6560 H   0  0  0  0  0  0  0  0  0  0  0  0
   39.0080   24.2060   34.7480 H   0  0  0  0  0  0  0  0  0  0  0  0
   39.8480   22.0000   34.7500 H   0  0  0  0  0  0  0  0  0  0  0  0
   38.4320   21.3280   35.6650 H   0  0  0  0  0  0  0  0  0  0  0  0
   40.9860   21.8400   37.3100 C   0  0  0  0  0  0  0  0  0  0  0  0
   41.0320   22.0810   38.4060 H   0  0  0  0  0  0  0  0  0  0  0  0
   41.0430   20.7500   37.1920 H   0  0  0  0  0  0  0  0  0  0  0  0
   42.3350   22.7430   36.5190 S   0  0  0  0  0  0  0  0  0  0  0  0
   43.5220   22.4430   37.2150 H   0  0  0  0  0  0  0  0  0  0  0  0
   37.9590   25.3700   36.5910 O   0  0  0  0  0  0  0  0  0  0  0  0
   38.2500   25.9790   35.3720 C   0  0  0  0  0  0  0  0  0  0  0  0
   39.5230   26.4910   35.2140 C   0  0  0  0  0  0  0  0  0  0  0  0
   39.8370   27.1030   34.0090 C   0  0  0  0  0  0  0  0  0  0  0  0
   38.8830   27.1710   33.0400 N   0  0  0  0  0  0  0  0  0  0  0  0
   37.6500   26.6680   33.2110 C   0  0  0  0  0  0  0  0  0  0  0  0
   37.3570   26.0860   34.3640 N   0  0  0  0  0  0  0  0  0  0  0  0
   36.2050   25.4870   31.7520 C   0  0  0  0  0  0  0  0  0  0  0  0
   36.5490   24.3480   32.1670 O   0  0  0  0  0  0  0  0  0  0  0  0
   36.6710   26.7590   32.1780 N   0  0  0  0  0  0  0  0  0  0  0  0
   40.2950   26.4540   35.9530 H   0  0  0  0  0  0  0  0  0  0  0  0
   40.8250   27.5090   33.8630 H   0  0  0  0  0  0  0  0  0  0  0  0
   35.4720   25.2310   30.9980 H   0  0  0  0  0  0  0  0  0  0  0  0
   36.2470   27.5510   31.6970 H   0  0  0  0  0  0  0  0  0  0  0  0
  2  1  2  0  0  0  0
  3  7  1  1  0  0  0
  3  2  1  0  0  0  0
  4  5  1  0  0  0  0
  4  3  1  0  0  0  0
  5 11  1  0  0  0  0
  5  6  1  0  0  0  0
  6 12  1  0  0  0  0
  6  2  1  0  0  0  0
  8  4  1  0  0  0  0
  9  4  1  0  0  0  0
 10  5  1  0  0  0  0
 12 13  1  0  0  0  0
 14 12  1  0  0  0  0
 15 16  1  0  0  0  0
 15 12  1  0  0  0  0
 17  3  1  0  0  0  0
 18 17  1  0  0  0  0
 19 18  1  0  0  0  0
 19 27  1  0  0  0  0
 20 19  2  0  0  0  0
 21 22  2  0  0  0  0
 21 20  1  0  0  0  0
 22 23  1  0  0  0  0
 23 18  2  0  0  0  0
 24 25  2  0  0  0  0
 24 26  1  0  0  0  0
 26 22  1  0  0  0  0
 28 20  1  0  0  0  0
 29 24  1  0  0  0  0
 30 26  1  0  0  0  0
M  END
>  <minimizedAffinity>
-4.68578243

$$$$

 OpenBabel03272506393D

 30 31  0  0  1  0  0  0  0  0999 V2000
   36.3040   21.1110   34.6780 O   0  0  0  0  0  0  0  0  0  0  0  0
   36.6100   21.5110   33.5470 C   0  0  0  0  0  0  0  0  0  0  0  0
   37.8200   22.2630   33.3060 C   0  0  2  0  0  0  0  0  0  0  0  0
   37.8220   22.3570   31.7540 C   0  0  0  0  0  0  0  0  0  0  0  0
   36.3770   22.2320   31.3920 C   0  0  0  0  0  0  0  0  0  0  0  0
   35.8320   21.2910   32.3620 N   0  0  0  0  0  0  0  0  0  0  0  0
   37.8540   23.2710   33.7170 H   0  0  0  0  0  0  0  0  0  0  0  0
   38.1950   23.3690   31.5290 H   0  0  0  0  0  0  0  0  0  0  0  0
   38.4600   21.5930   31.3150 H   0  0  0  0  0  0  0  0  0  0  0  0
   36.3130   21.8340   30.3630 H   0  0  0  0  0  0  0  0  0  0  0  0
   35.8200   23.1610   31.5000 H   0  0  0  0  0  0  0  0  0  0  0  0
   34.7420   20.3500   32.1530 C   0  0  0  0  0  0  0  0  0  0  0  0
   34.0460   20.4910   33.0220 H   0  0  0  0  0  0  0  0  0  0  0  0
   34.1800   20.5280   31.2270 H   0  0  0  0  0  0  0  0  0  0  0  0
   35.4250   18.6830   32.2950 S   0  0  0  0  0  0  0  0  0  0  0  0
   34.3490   17.7860   32.4380 H   0  0  0  0  0  0  0  0  0  0  0  0
   39.0210   21.5870   33.6670 O   0  0  0  0  0  0  0  0  0  0  0  0
   39.7310   22.0680   34.7650 C   0  0  0  0  0  0  0  0  0  0  0  0
   41.0270   22.4870   34.5400 C   0  0  0  0  0  0  0  0  0  0  0  0
   41.7560   22.9710   35.6170 C   0  0  0  0  0  0  0  0  0  0  0  0
   41.1650   23.0100   36.8430 N   0  0  0  0  0  0  0  0  0  0  0  0
   39.9030   22.5970   37.0450 C   0  0  0  0  0  0  0  0  0  0  0  0
   39.2140   22.1370   36.0110 N   0  0  0  0  0  0  0  0  0  0  0  0
   38.1490   23.4600   38.3830 C   0  0  0  0  0  0  0  0  0  0  0  0
   37.6130   24.1070   37.4440 O   0  0  0  0  0  0  0  0  0  0  0  0
   39.3130   22.6470   38.3410 N   0  0  0  0  0  0  0  0  0  0  0  0
   41.5220   22.4700   33.5910 H   0  0  0  0  0  0  0  0  0  0  0  0
   42.7700   23.3040   35.4650 H   0  0  0  0  0  0  0  0  0  0  0  0
   37.4890   23.6900   39.2090 H   0  0  0  0  0  0  0  0  0  0  0  0
   39.5630   22.2160   39.2310 H   0  0  0  0  0  0  0  0  0  0  0  0
  2  1  2  0  0  0  0
  3  2  1  0  0  0  0
  3 17  1  0  0  0  0
  3  7  1  1  0  0  0
  4  3  1  0  0  0  0
  5 11  1  0  0  0  0
  5  4  1  0  0  0  0
  5  6  1  0  0  0  0
  6  2  1  0  0  0  0
  8  4  1  0  0  0  0
  9  4  1  0  0  0  0
 10  5  1  0  0  0  0
 12 15  1  0  0  0  0
 12  6  1  0  0  0  0
 12 13  1  0  0  0  0
 14 12  1  0  0  0  0
 15 16  1  0  0  0  0
 17 18  1  0  0  0  0
 18 23  1  0  0  0  0
 19 18  2  0  0  0  0
 19 20  1  0  0  0  0
 20 21  2  0  0  0  0
 21 22  1  0  0  0  0
 22 26  1  0  0  0  0
 23 22  2  0  0  0  0
 24 29  1  0  0  0  0
 25 24  2  0  0  0  0
 26 24  1  0  0  0  0
 26 30  1  0  0  0  0
 27 19  1  0  0  0  0
 28 20  1  0  0  0  0
M  END
>  <minimizedAffinity>
-4.64186239

$$$$

 OpenBabel03272506393D

 30 31  0  0  1  0  0  0  0  0999 V2000
   36.7410   25.1600   32.3930 O   0  0  0  0  0  0  0  0  0  0  0  0
   37.0340   26.0050   33.2500 C   0  0  0  0  0  0  0  0  0  0  0  0
   37.7910   25.6600   34.4330 C   0  0  2  0  0  0  0  0  0  0  0  0
   38.0370   27.0600   35.0610 C   0  0  0  0  0  0  0  0  0  0  0  0
   36.9020   27.8830   34.5430 C   0  0  0  0  0  0  0  0  0  0  0  0
   36.6770   27.3930   33.1890 N   0  0  0  0  0  0  0  0  0  0  0  0
   37.2850   25.0320   35.1650 H   0  0  0  0  0  0  0  0  0  0  0  0
   37.9430   26.9060   36.1480 H   0  0  0  0  0  0  0  0  0  0  0  0
   39.0220   27.4410   34.7990 H   0  0  0  0  0  0  0  0  0  0  0  0
   37.2190   28.9420   34.5400 H   0  0  0  0  0  0  0  0  0  0  0  0
   35.9750   27.7410   35.0930 H   0  0  0  0  0  0  0  0  0  0  0  0
   36.1950   28.1570   32.0480 C   0  0  0  0  0  0  0  0  0  0  0  0
   35.4120   27.5170   31.5620 H   0  0  0  0  0  0  0  0  0  0  0  0
   35.7360   29.1150   32.3250 H   0  0  0  0  0  0  0  0  0  0  0  0
   37.5590   28.3010   30.8730 S   0  0  0  0  0  0  0  0  0  0  0  0
   37.0240   28.7260   29.6410 H   0  0  0  0  0  0  0  0  0  0  0  0
   39.0770   25.1060   34.1730 O   0  0  0  0  0  0  0  0  0  0  0  0
   39.6720   24.3470   35.1790 C   0  0  0  0  0  0  0  0  0  0  0  0
   41.0310   24.1230   35.0750 C   0  0  0  0  0  0  0  0  0  0  0  0
   41.6470   23.3700   36.0650 C   0  0  0  0  0  0  0  0  0  0  0  0
   40.8900   22.8880   37.0900 N   0  0  0  0  0  0  0  0  0  0  0  0
   39.5700   23.1170   37.1740 C   0  0  0  0  0  0  0  0  0  0  0  0
   38.9890   23.8360   36.2260 N   0  0  0  0  0  0  0  0  0  0  0  0
   38.1630   23.6130   39.0150 C   0  0  0  0  0  0  0  0  0  0  0  0
   38.2000   24.8600   38.8390 O   0  0  0  0  0  0  0  0  0  0  0  0
   38.8030   22.5960   38.2570 N   0  0  0  0  0  0  0  0  0  0  0  0
   41.6550   24.4850   34.2860 H   0  0  0  0  0  0  0  0  0  0  0  0
   42.7070   23.1820   36.0050 H   0  0  0  0  0  0  0  0  0  0  0  0
   37.5200   23.5350   39.8820 H   0  0  0  0  0  0  0  0  0  0  0  0
   38.6290   21.6460   38.5860 H   0  0  0  0  0  0  0  0  0  0  0  0
  1  2  2  0  0  0  0
  2  3  1  0  0  0  0
  3  4  1  0  0  0  0
  3  7  1  1  0  0  0
  4  8  1  0  0  0  0
  5  4  1  0  0  0  0
  5 11  1  0  0  0  0
  6  2  1  0  0  0  0
  6  5  1  0  0  0  0
  9  4  1  0  0  0  0
 10  5  1  0  0  0  0
 12 14  1  0  0  0  0
 12  6  1  0  0  0  0
 13 12  1  0  0  0  0
 15 12  1  0  0  0  0
 16 15  1  0  0  0  0
 17  3  1  0  0  0  0
 17 18  1  0  0  0  0
 18 23  1  0  0  0  0
 19 18  2  0  0  0  0
 19 20  1  0  0  0  0
 20 21  2  0  0  0  0
 21 22  1  0  0  0  0
 22 26  1  0  0  0  0
 23 22  2  0  0  0  0
 24 29  1  0  0  0  0
 25 24  2  0  0  0  0
 26 30  1  0  0  0  0
 26 24  1  0  0  0  0
 27 19  1  0  0  0  0
 28 20  1  0  0  0  0
M  END
>  <minimizedAffinity>
-4.63080597

$$$$

 OpenBabel03272506393D

 30 31  0  0  1  0  0  0  0  0999 V2000
   38.3450   26.5780   31.8410 O   0  0  0  0  0  0  0  0  0  0  0  0
   37.6140   27.2410   32.5890 C   0  0  0  0  0  0  0  0  0  0  0  0
   37.4700   26.9230   33.9920 C   0  0  2  0  0  0  0  0  0  0  0  0
   36.6220   28.1240   34.4960 C   0  0  0  0  0  0  0  0  0  0  0  0
   35.8940   28.5790   33.2730 C   0  0  0  0  0  0  0  0  0  0  0  0
   36.8390   28.3780   32.1820 N   0  0  0  0  0  0  0  0  0  0  0  0
   36.9420   25.9990   34.2260 H   0  0  0  0  0  0  0  0  0  0  0  0
   35.9230   27.6930   35.2290 H   0  0  0  0  0  0  0  0  0  0  0  0
   37.2520   28.8860   34.9500 H   0  0  0  0  0  0  0  0  0  0  0  0
   35.6460   29.6490   33.3980 H   0  0  0  0  0  0  0  0  0  0  0  0
   35.0120   27.9850   33.0450 H   0  0  0  0  0  0  0  0  0  0  0  0
   36.9520   29.1640   30.9620 C   0  0  0  0  0  0  0  0  0  0  0  0
   37.9570   29.6620   31.0130 H   0  0  0  0  0  0  0  0  0  0  0  0
   36.9090   28.5610   30.0460 H   0  0  0  0  0  0  0  0  0  0  0  0
   35.7130   30.4760   31.0440 S   0  0  0  0  0  0  0  0  0  0  0  0
   36.0310   31.4320   30.0600 H   0  0  0  0  0  0  0  0  0  0  0  0
   38.6850   26.9500   34.7340 O   0  0  0  0  0  0  0  0  0  0  0  0
   39.2040   25.7340   35.1750 C   0  0  0  0  0  0  0  0  0  0  0  0
   40.4970   25.4290   34.7960 C   0  0  0  0  0  0  0  0  0  0  0  0
   41.0370   24.2240   35.2220 C   0  0  0  0  0  0  0  0  0  0  0  0
   40.2730   23.3990   35.9900 N   0  0  0  0  0  0  0  0  0  0  0  0
   39.0170   23.7110   36.3490 C   0  0  0  0  0  0  0  0  0  0  0  0
   38.5090   24.8640   35.9390 N   0  0  0  0  0  0  0  0  0  0  0  0
   37.8280   23.4130   38.3760 C   0  0  0  0  0  0  0  0  0  0  0  0
   38.0640   24.5740   38.8050 O   0  0  0  0  0  0  0  0  0  0  0  0
   38.2410   22.8250   37.1510 N   0  0  0  0  0  0  0  0  0  0  0  0
   41.1240   26.0530   34.1940 H   0  0  0  0  0  0  0  0  0  0  0  0
   42.0440   23.9650   34.9390 H   0  0  0  0  0  0  0  0  0  0  0  0
   37.2350   23.0000   39.1820 H   0  0  0  0  0  0  0  0  0  0  0  0
   37.9300   21.8630   37.0140 H   0  0  0  0  0  0  0  0  0  0  0  0
  1  2  2  0  0  0  0
  2  3  1  0  0  0  0
  3  7  1  1  0  0  0
  3  4  1  0  0  0  0
  3 17  1  0  0  0  0
  4  9  1  0  0  0  0
  4  8  1  0  0  0  0
  5 10  1  0  0  0  0
  5  4  1  0  0  0  0
  6  2  1  0  0  0  0
  6  5  1  0  0  0  0
 11  5  1  0  0  0  0
 12 13  1  0  0  0  0
 12 15  1  0  0  0  0
 12  6  1  0  0  0  0
 14 12  1  0  0  0  0
 16 15  1  0  0  0  0
 17 18  1  0  0  0  0
 18 23  1  0  0  0  0
 19 18  2  0  0  0  0
 19 20  1  0  0  0  0
 20 21  2  0  0  0  0
 21 22  1  0  0  0  0
 22 26  1  0  0  0  0
 23 22  2  0  0  0  0
 24 25  2  0  0  0  0
 24 29  1  0  0  0  0
 26 24  1  0  0  0  0
 27 19  1  0  0  0  0
 28 20  1  0  0  0  0
 30 26  1  0  0  0  0
M  END
>  <minimizedAffinity>
-4.5849514

$$$$

 OpenBabel03272506393D

 30 31  0  0  1  0  0  0  0  0999 V2000
   37.4860   27.8440   35.4320 O   0  0  0  0  0  0  0  0  0  0  0  0
   37.0910   27.6560   34.2730 C   0  0  0  0  0  0  0  0  0  0  0  0
   37.5990   26.5730   33.4610 C   0  0  2  0  0  0  0  0  0  0  0  0
   36.6780   26.6660   32.2120 C   0  0  0  0  0  0  0  0  0  0  0  0
   36.2480   28.0970   32.1970 C   0  0  0  0  0  0  0  0  0  0  0  0
   36.1080   28.4570   33.6020 N   0  0  0  0  0  0  0  0  0  0  0  0
   38.6360   26.6560   33.1380 H   0  0  0  0  0  0  0  0  0  0  0  0
   37.3350   26.4460   31.3560 H   0  0  0  0  0  0  0  0  0  0  0  0
   35.8580   25.9530   32.2750 H   0  0  0  0  0  0  0  0  0  0  0  0
   35.2800   28.1590   31.6670 H   0  0  0  0  0  0  0  0  0  0  0  0
   36.9870   28.7680   31.7660 H   0  0  0  0  0  0  0  0  0  0  0  0
   35.1760   29.4180   34.1730 C   0  0  0  0  0  0  0  0  0  0  0  0
   34.7780   28.9390   35.1060 H   0  0  0  0  0  0  0  0  0  0  0  0
   35.6430   30.3730   34.4450 H   0  0  0  0  0  0  0  0  0  0  0  0
   33.7860   29.5730   33.0300 S   0  0  0  0  0  0  0  0  0  0  0  0
   32.7360   30.2180   33.7120 H   0  0  0  0  0  0  0  0  0  0  0  0
   37.3990   25.2740   34.0110 O   0  0  0  0  0  0  0  0  0  0  0  0
   38.4630   24.6870   34.6920 C   0  0  0  0  0  0  0  0  0  0  0  0
   39.7260   24.8800   34.1670 C   0  0  0  0  0  0  0  0  0  0  0  0
   40.8040   24.3050   34.8260 C   0  0  0  0  0  0  0  0  0  0  0  0
   40.5700   23.5800   35.9550 N   0  0  0  0  0  0  0  0  0  0  0  0
   39.3350   23.4020   36.4510 C   0  0  0  0  0  0  0  0  0  0  0  0
   38.3120   23.9540   35.8160 N   0  0  0  0  0  0  0  0  0  0  0  0
   38.5060   23.3840   38.6700 C   0  0  0  0  0  0  0  0  0  0  0  0
   38.1490   24.5920   38.6560 O   0  0  0  0  0  0  0  0  0  0  0  0
   39.1220   22.6350   37.6330 N   0  0  0  0  0  0  0  0  0  0  0  0
   39.9450   25.4420   33.2840 H   0  0  0  0  0  0  0  0  0  0  0  0
   41.7990   24.4420   34.4360 H   0  0  0  0  0  0  0  0  0  0  0  0
   38.2190   23.0840   39.6700 H   0  0  0  0  0  0  0  0  0  0  0  0
   39.3240   21.6640   37.8710 H   0  0  0  0  0  0  0  0  0  0  0  0
  2  1  2  0  0  0  0
  3  7  1  6  0  0  0
  3 17  1  0  0  0  0
  3  2  1  0  0  0  0
  4  9  1  0  0  0  0
  4  3  1  0  0  0  0
  5  4  1  0  0  0  0
  5  6  1  0  0  0  0
  6 12  1  0  0  0  0
  6  2  1  0  0  0  0
  8  4  1  0  0  0  0
 10  5  1  0  0  0  0
 11  5  1  0  0  0  0
 12 14  1  0  0  0  0
 12 13  1  0  0  0  0
 15 16  1  0  0  0  0
 15 12  1  0  0  0  0
 17 18  1  0  0  0  0
 18 23  1  0  0  0  0
 19 18  2  0  0  0  0
 19 20  1  0  0  0  0
 20 21  2  0  0  0  0
 21 22  1  0  0  0  0
 22 26  1  0  0  0  0
 23 22  2  0  0  0  0
 24 29  1  0  0  0  0
 25 24  2  0  0  0  0
 26 30  1  0  0  0  0
 26 24  1  0  0  0  0
 27 19  1  0  0  0  0
 28 20  1  0  0  0  0
M  END
>  <minimizedAffinity>
-4.52286816

$$$$

 OpenBabel03272506393D

 30 31  0  0  1  0  0  0  0  0999 V2000
   37.4700   24.6870   33.9950 O   0  0  0  0  0  0  0  0  0  0  0  0
   37.7500   24.0270   32.9850 C   0  0  0  0  0  0  0  0  0  0  0  0
   38.8720   23.1160   32.9580 C   0  0  2  0  0  0  0  0  0  0  0  0
   38.6790   22.4300   31.5770 C   0  0  0  0  0  0  0  0  0  0  0  0
   37.9180   23.4420   30.7840 C   0  0  0  0  0  0  0  0  0  0  0  0
   37.0260   24.0730   31.7480 N   0  0  0  0  0  0  0  0  0  0  0  0
   39.8630   23.5670   32.9890 H   0  0  0  0  0  0  0  0  0  0  0  0
   39.6980   22.3050   31.1750 H   0  0  0  0  0  0  0  0  0  0  0  0
   38.1740   21.4710   31.6810 H   0  0  0  0  0  0  0  0  0  0  0  0
   37.3510   22.9080   29.9990 H   0  0  0  0  0  0  0  0  0  0  0  0
   38.5430   24.2270   30.3650 H   0  0  0  0  0  0  0  0  0  0  0  0
   35.7030   24.6220   31.4900 C   0  0  0  0  0  0  0  0  0  0  0  0
   35.3610   24.1530   30.5290 H   0  0  0  0  0  0  0  0  0  0  0  0
   34.9690   24.3840   32.2710 H   0  0  0  0  0  0  0  0  0  0  0  0
   35.8980   26.3890   31.1700 S   0  0  0  0  0  0  0  0  0  0  0  0
   34.7030   26.8570   30.5900 H   0  0  0  0  0  0  0  0  0  0  0  0
   38.8170   22.0780   33.9320 O   0  0  0  0  0  0  0  0  0  0  0  0
   39.5320   22.2590   35.1140 C   0  0  0  0  0  0  0  0  0  0  0  0
   40.9100   22.2220   35.0260 C   0  0  0  0  0  0  0  0  0  0  0  0
   41.6450   22.3990   36.1900 C   0  0  0  0  0  0  0  0  0  0  0  0
   40.9810   22.6010   37.3610 N   0  0  0  0  0  0  0  0  0  0  0  0
   39.6400   22.6340   37.4280 C   0  0  0  0  0  0  0  0  0  0  0  0
   38.9450   22.4640   36.3130 N   0  0  0  0  0  0  0  0  0  0  0  0
   38.1490   24.0010   38.6610 C   0  0  0  0  0  0  0  0  0  0  0  0
   37.9570   24.8170   37.7210 O   0  0  0  0  0  0  0  0  0  0  0  0
   38.9720   22.8440   38.6700 N   0  0  0  0  0  0  0  0  0  0  0  0
   41.4640   22.0650   34.1240 H   0  0  0  0  0  0  0  0  0  0  0  0
   42.7220   22.3750   36.1450 H   0  0  0  0  0  0  0  0  0  0  0  0
   37.5240   24.4160   39.4410 H   0  0  0  0  0  0  0  0  0  0  0  0
   38.9730   22.3280   39.5500 H   0  0  0  0  0  0  0  0  0  0  0  0
  2  1  2  0  0  0  0
  3  2  1  0  0  0  0
  3  7  1  1  0  0  0
  3 17  1  0  0  0  0
  4  9  1  0  0  0  0
  4  3  1  0  0  0  0
  5  4  1  0  0  0  0
  5  6  1  0  0  0  0
  6  2  1  0  0  0  0
  8  4  1  0  0  0  0
 10  5  1  0  0  0  0
 11  5  1  0  0  0  0
 12  6  1  0  0  0  0
 12 14  1  0  0  0  0
 13 12  1  0  0  0  0
 15 12  1  0  0  0  0
 16 15  1  0  0  0  0
 17 18  1  0  0  0  0
 18 23  1  0  0  0  0
 19 18  2  0  0  0  0
 19 20  1  0  0  0  0
 20 21  2  0  0  0  0
 21 22  1  0  0  0  0
 22 26  1  0  0  0  0
 23 22  2  0  0  0  0
 24 26  1  0  0  0  0
 24 29  1  0  0  0  0
 25 24  2  0  0  0  0
 26 30  1  0  0  0  0
 27 19  1  0  0  0  0
 28 20  1  0  0  0  0
M  END
>  <minimizedAffinity>
-4.45058489

$$$$

 OpenBabel03272506393D

 30 31  0  0  1  0  0  0  0  0999 V2000
   36.7750   25.8130   32.8750 O   0  0  0  0  0  0  0  0  0  0  0  0
   37.3950   26.1700   33.8860 C   0  0  0  0  0  0  0  0  0  0  0  0
   37.4120   27.5480   34.3220 C   0  0  2  0  0  0  0  0  0  0  0  0
   38.1480   27.4300   35.6860 C   0  0  0  0  0  0  0  0  0  0  0  0
   38.9740   26.1940   35.5360 C   0  0  0  0  0  0  0  0  0  0  0  0
   38.1540   25.2960   34.7330 N   0  0  0  0  0  0  0  0  0  0  0  0
   37.9560   28.2490   33.6910 H   0  0  0  0  0  0  0  0  0  0  0  0
   38.7900   28.3240   35.7430 H   0  0  0  0  0  0  0  0  0  0  0  0
   37.4410   27.3970   36.5130 H   0  0  0  0  0  0  0  0  0  0  0  0
   39.1590   25.7790   36.5430 H   0  0  0  0  0  0  0  0  0  0  0  0
   39.9010   26.3540   34.9900 H   0  0  0  0  0  0  0  0  0  0  0  0
   38.1290   23.8420   34.7940 C   0  0  0  0  0  0  0  0  0  0  0  0
   37.1760   23.5320   34.2870 H   0  0  0  0  0  0  0  0  0  0  0  0
   38.9690   23.3670   34.2710 H   0  0  0  0  0  0  0  0  0  0  0  0
   37.9760   23.3710   36.5310 S   0  0  0  0  0  0  0  0  0  0  0  0
   37.6080   22.0120   36.5790 H   0  0  0  0  0  0  0  0  0  0  0  0
   36.1280   28.0960   34.6060 O   0  0  0  0  0  0  0  0  0  0  0  0
   35.9170   29.4410   34.3100 C   0  0  0  0  0  0  0  0  0  0  0  0
   35.6850   29.7640   32.9870 C   0  0  0  0  0  0  0  0  0  0  0  0
   35.4720   31.0970   32.6660 C   0  0  0  0  0  0  0  0  0  0  0  0
   35.5010   32.0240   33.6630 N   0  0  0  0  0  0  0  0  0  0  0  0
   35.7290   31.6920   34.9440 C   0  0  0  0  0  0  0  0  0  0  0  0
   35.9320   30.4170   35.2430 N   0  0  0  0  0  0  0  0  0  0  0  0
   34.7820   32.4650   36.9740 C   0  0  0  0  0  0  0  0  0  0  0  0
   33.9390   31.5320   37.0540 O   0  0  0  0  0  0  0  0  0  0  0  0
   35.7580   32.6860   35.9660 N   0  0  0  0  0  0  0  0  0  0  0  0
   35.6550   29.0620   32.1800 H   0  0  0  0  0  0  0  0  0  0  0  0
   35.2880   31.3720   31.6400 H   0  0  0  0  0  0  0  0  0  0  0  0
   34.5620   33.0350   37.8660 H   0  0  0  0  0  0  0  0  0  0  0  0
   36.3380   33.5120   36.1090 H   0  0  0  0  0  0  0  0  0  0  0  0
  1  2  2  0  0  0  0
  2  3  1  0  0  0  0
  2  6  1  0  0  0  0
  3  7  1  6  0  0  0
  3 17  1  0  0  0  0
  3  4  1  0  0  0  0
  4  8  1  0  0  0  0
  4  9  1  0  0  0  0
  5  4  1  0  0  0  0
  5 10  1  0  0  0  0
  6 12  1  0  0  0  0
  6  5  1  0  0  0  0
 11  5  1  0  0  0  0
 12 15  1  0  0  0  0
 13 12  1  0  0  0  0
 14 12  1  0  0  0  0
 15 16  1  0  0  0  0
 18 17  1  0  0  0  0
 18 23  1  0  0  0  0
 19 18  2  0  0  0  0
 20 19  1  0  0  0  0
 20 21  2  0  0  0  0
 21 22  1  0  0  0  0
 22 23  2  0  0  0  0
 22 26  1  0  0  0  0
 24 25  2  0  0  0  0
 24 29  1  0  0  0  0
 26 30  1  0  0  0  0
 26 24  1  0  0  0  0
 27 19  1  0  0  0  0
 28 20  1  0  0  0  0
M  END
>  <minimizedAffinity>
-4.34738207

$$$$

 OpenBabel03272506393D

 30 31  0  0  1  0  0  0  0  0999 V2000
   37.8130   22.0800   35.7850 O   0  0  0  0  0  0  0  0  0  0  0  0
   38.9840   22.3500   36.0830 C   0  0  0  0  0  0  0  0  0  0  0  0
   40.0470   22.3160   35.1040 C   0  0  2  0  0  0  0  0  0  0  0  0
   41.2370   22.8930   35.9200 C   0  0  0  0  0  0  0  0  0  0  0  0
   40.8800   22.5770   37.3360 C   0  0  0  0  0  0  0  0  0  0  0  0
   39.4310   22.7220   37.3940 N   0  0  0  0  0  0  0  0  0  0  0  0
   40.3260   21.3330   34.7260 H   0  0  0  0  0  0  0  0  0  0  0  0
   42.1150   22.3090   35.5980 H   0  0  0  0  0  0  0  0  0  0  0  0
   41.3730   23.9540   35.7200 H   0  0  0  0  0  0  0  0  0  0  0  0
   41.3860   23.3100   37.9900 H   0  0  0  0  0  0  0  0  0  0  0  0
   41.1110   21.5530   37.6240 H   0  0  0  0  0  0  0  0  0  0  0  0
   38.6390   23.1470   38.5380 C   0  0  0  0  0  0  0  0  0  0  0  0
   37.7860   22.4200   38.6040 H   0  0  0  0  0  0  0  0  0  0  0  0
   39.1890   23.1230   39.4870 H   0  0  0  0  0  0  0  0  0  0  0  0
   37.9240   24.7570   38.1370 S   0  0  0  0  0  0  0  0  0  0  0  0
   36.8990   25.0190   39.0670 H   0  0  0  0  0  0  0  0  0  0  0  0
   39.8600   23.1900   33.9950 O   0  0  0  0  0  0  0  0  0  0  0  0
   40.1820   24.5340   34.1660 C   0  0  0  0  0  0  0  0  0  0  0  0
   41.3180   24.9940   33.5280 C   0  0  0  0  0  0  0  0  0  0  0  0
   41.6610   26.3290   33.6840 C   0  0  0  0  0  0  0  0  0  0  0  0
   40.8680   27.1250   34.4540 N   0  0  0  0  0  0  0  0  0  0  0  0
   39.7680   26.6610   35.0680 C   0  0  0  0  0  0  0  0  0  0  0  0
   39.4470   25.3840   34.9150 N   0  0  0  0  0  0  0  0  0  0  0  0
   37.6220   27.6080   35.4020 C   0  0  0  0  0  0  0  0  0  0  0  0
   37.1040   27.0410   34.4030 O   0  0  0  0  0  0  0  0  0  0  0  0
   38.9590   27.5170   35.8710 N   0  0  0  0  0  0  0  0  0  0  0  0
   41.9630   24.3980   32.9170 H   0  0  0  0  0  0  0  0  0  0  0  0
   42.5430   26.7110   33.1940 H   0  0  0  0  0  0  0  0  0  0  0  0
   36.7830   28.1680   35.7940 H   0  0  0  0  0  0  0  0  0  0  0  0
   39.1560   28.0670   36.7070 H   0  0  0  0  0  0  0  0  0  0  0  0
  1  2  2  0  0  0  0
  2  6  1  0  0  0  0
  3  7  1  6  0  0  0
  3  4  1  0  0  0  0
  3  2  1  0  0  0  0
  4  5  1  0  0  0  0
  5  6  1  0  0  0  0
  5 11  1  0  0  0  0
  5 10  1  0  0  0  0
  6 12  1  0  0  0  0
  8  4  1  0  0  0  0
  9  4  1  0  0  0  0
 12 13  1  0  0  0  0
 12 14  1  0  0  0  0
 15 12  1  0  0  0  0
 15 16  1  0  0  0  0
 17 18  1  0  0  0  0
 17  3  1  0  0  0  0
 18 23  1  0  0  0  0
 19 20  1  0  0  0  0
 19 18  2  0  0  0  0
 20 21  2  0  0  0  0
 21 22  1  0  0  0  0
 22 26  1  0  0  0  0
 23 22  2  0  0  0  0
 24 29  1  0  0  0  0
 24 26  1  0  0  0  0
 25 24  2  0  0  0  0
 26 30  1  0  0  0  0
 27 19  1  0  0  0  0
 28 20  1  0  0  0  0
M  END
>  <minimizedAffinity>
-4.32013178

$$$$

 OpenBabel03272506393D

 30 31  0  0  1  0  0  0  0  0999 V2000
   39.1130   25.2670   33.1150 O   0  0  0  0  0  0  0  0  0  0  0  0
   38.6730   25.9540   34.0470 C   0  0  0  0  0  0  0  0  0  0  0  0
   38.0290   27.2280   33.8170 C   0  0  2  0  0  0  0  0  0  0  0  0
   37.5180   27.5770   35.2430 C   0  0  0  0  0  0  0  0  0  0  0  0
   38.4490   26.8320   36.1430 C   0  0  0  0  0  0  0  0  0  0  0  0
   38.7400   25.5930   35.4330 N   0  0  0  0  0  0  0  0  0  0  0  0
   38.6680   28.0370   33.4670 H   0  0  0  0  0  0  0  0  0  0  0  0
   37.6650   28.6650   35.3410 H   0  0  0  0  0  0  0  0  0  0  0  0
   36.4700   27.3070   35.3620 H   0  0  0  0  0  0  0  0  0  0  0  0
   37.9250   26.6370   37.0960 H   0  0  0  0  0  0  0  0  0  0  0  0
   39.3990   27.3390   36.3030 H   0  0  0  0  0  0  0  0  0  0  0  0
   39.0310   24.2940   36.0210 C   0  0  0  0  0  0  0  0  0  0  0  0
   38.8100   23.5410   35.2180 H   0  0  0  0  0  0  0  0  0  0  0  0
   40.0780   24.1760   36.3280 H   0  0  0  0  0  0  0  0  0  0  0  0
   37.8340   24.0140   37.3450 S   0  0  0  0  0  0  0  0  0  0  0  0
   37.8790   22.6480   37.6850 H   0  0  0  0  0  0  0  0  0  0  0  0
   36.8770   27.1680   32.9820 O   0  0  0  0  0  0  0  0  0  0  0  0
   36.7870   28.0810   31.9330 C   0  0  0  0  0  0  0  0  0  0  0  0
   36.2050   29.3020   32.2110 C   0  0  0  0  0  0  0  0  0  0  0  0
   36.1040   30.2290   31.1840 C   0  0  0  0  0  0  0  0  0  0  0  0
   36.5800   29.8960   29.9520 N   0  0  0  0  0  0  0  0  0  0  0  0
   37.1430   28.7030   29.6990 C   0  0  0  0  0  0  0  0  0  0  0  0
   37.2360   27.8240   30.6850 N   0  0  0  0  0  0  0  0  0  0  0  0
   39.0170   28.0820   28.3890 C   0  0  0  0  0  0  0  0  0  0  0  0
   39.8210   28.0700   29.3600 O   0  0  0  0  0  0  0  0  0  0  0  0
   37.6290   28.3820   28.3980 N   0  0  0  0  0  0  0  0  0  0  0  0
   35.8210   29.5960   33.1660 H   0  0  0  0  0  0  0  0  0  0  0  0
   35.6540   31.1890   31.3780 H   0  0  0  0  0  0  0  0  0  0  0  0
   39.6640   27.8030   27.5680 H   0  0  0  0  0  0  0  0  0  0  0  0
   37.1760   28.3280   27.4860 H   0  0  0  0  0  0  0  0  0  0  0  0
  1  2  2  0  0  0  0
  2  6  1  0  0  0  0
  3  7  1  6  0  0  0
  3  2  1  0  0  0  0
  3  4  1  0  0  0  0
  4  8  1  0  0  0  0
  4  9  1  0  0  0  0
  4  5  1  0  0  0  0
  5 11  1  0  0  0  0
  5 10  1  0  0  0  0
  6 12  1  0  0  0  0
  6  5  1  0  0  0  0
 12 14  1  0  0  0  0
 12 15  1  0  0  0  0
 13 12  1  0  0  0  0
 15 16  1  0  0  0  0
 17  3  1  0  0  0  0
 18 19  1  0  0  0  0
 18 17  1  0  0  0  0
 19 27  1  0  0  0  0
 20 28  1  0  0  0  0
 20 19  2  0  0  0  0
 21 20  1  0  0  0  0
 22 21  2  0  0  0  0
 22 23  1  0  0  0  0
 23 18  2  0  0  0  0
 24 26  1  0  0  0  0
 24 25  2  0  0  0  0
 26 22  1  0  0  0  0
 29 24  1  0  0  0  0
 30 26  1  0  0  0  0
M  END
>  <minimizedAffinity>
-4.31072187

$$$$
