
     RDKit          3D

 29 30  0  0  0  0  0  0  0  0999 V2000
   38.5761   31.1522   49.1487 Cl  0  0  0  0  0  0  0  0  0  0  0  0
   37.2145   30.6607   48.1536 C   0  0  0  0  0  0  0  0  0  0  0  0
   37.2933   30.8086   46.7962 C   0  0  0  0  0  0  0  0  0  0  0  0
   36.2449   30.4308   46.0198 C   0  0  0  0  0  0  0  0  0  0  0  0
   35.1237   29.9076   46.6025 C   0  0  0  0  0  0  0  0  0  0  0  0
   35.0565   29.7637   47.9713 C   0  0  0  0  0  0  0  0  0  0  0  0
   36.1119   30.1407   48.7920 C   0  0  0  0  0  0  0  0  0  0  0  0
   40.0557   33.0741   45.8726 C   0  0  0  0  0  0  0  0  0  0  0  0
   40.7619   32.2779   44.9327 C   0  0  0  0  0  0  0  0  0  0  0  0
   40.2653   31.0017   44.6541 C   0  0  0  0  0  0  0  0  0  0  0  0
   39.1418   30.5877   45.2893 N   0  0  0  0  0  0  0  0  0  0  0  0
   38.4915   31.3672   46.1786 C   0  0  0  0  0  0  0  0  0  0  0  0
   38.9521   32.5948   46.4595 N   0  0  0  0  0  0  0  0  0  0  0  0
   40.9857   30.2374   43.7199 N   0  0  0  0  0  0  0  0  0  0  0  0
   36.0997   30.0128   50.2719 C   0  0  0  0  0  0  0  0  0  0  0  0
   35.0265   29.1970   50.8403 C   0  0  0  0  0  0  0  0  0  0  0  0
   36.2691   30.5316   44.9466 H   0  0  0  0  0  0  0  0  0  0  0  0
   34.2827   29.6039   45.9883 H   0  0  0  0  0  0  0  0  0  0  0  0
   34.1726   29.3484   48.4641 H   0  0  0  0  0  0  0  0  0  0  0  0
   40.3989   34.0693   46.1231 H   0  0  0  0  0  0  0  0  0  0  0  0
   41.6523   32.7293   44.4923 H   0  0  0  0  0  0  0  0  0  0  0  0
   40.8198   30.3705   42.6950 H   0  0  0  0  0  0  0  0  0  0  0  0
   41.6781   29.5479   44.1227 H   0  0  0  0  0  0  0  0  0  0  0  0
   36.0203   31.0528   50.6542 H   0  0  0  0  0  0  0  0  0  0  0  0
   37.0900   29.6045   50.5955 H   0  0  0  0  0  0  0  0  0  0  0  0
   34.0146   29.6298   50.6258 H   0  0  0  0  0  0  0  0  0  0  0  0
   35.0445   28.1401   50.5039 H   0  0  0  0  0  0  0  0  0  0  0  0
   35.1808   29.1621   52.6477 S   0  0  0  0  0  0  0  0  0  0  0  0
   35.0979   27.8325   53.1275 H   0  0  0  0  0  0  0  0  0  0  0  0
  2  7  2  0
  2  1  1  0
  3  2  1  0
  4  5  1  0
  4  3  2  0
  5  6  2  0
  6  7  1  0
  7 15  1  0
  8 13  2  0
  9  8  1  0
 10  9  2  0
 10 11  1  0
 11 12  2  0
 12 13  1  0
 12  3  1  0
 14 10  1  0
 15 16  1  0
  4 17  1  0
  5 18  1  0
  6 19  1  0
  8 20  1  0
  9 21  1  0
 14 22  1  0
 14 23  1  0
 15 24  1  0
 15 25  1  0
 16 26  1  0
 16 27  1  0
 28 29  1  0
 16 28  1  0
M  ISO  8  17  14  18  14  19  14  20  14  21  14  24   8  25   8  26   8
M  ISO  2  27   8  29  11
M  END
>  <DihAtoms>  (1) 
14,15,27,28

>  <DihDeg>  (1) 
-41.15472059121887

$$$$
