
 OpenBabel03272504373D

 29 30  0  0  0  0  0  0  0  0999 V2000
   38.2780   31.5240   48.1400 Cl  0  0  0  0  0  0  0  0  0  0  0  0
   36.9030   30.8030   47.3200 C   0  0  0  0  0  0  0  0  0  0  0  0
   36.9040   30.7310   45.9530 C   0  0  0  0  0  0  0  0  0  0  0  0
   35.8450   30.1740   45.3120 C   0  0  0  0  0  0  0  0  0  0  0  0
   34.7900   29.6930   46.0360 C   0  0  0  0  0  0  0  0  0  0  0  0
   34.7990   29.7720   47.4120 C   0  0  0  0  0  0  0  0  0  0  0  0
   35.8690   30.3350   48.0970 C   0  0  0  0  0  0  0  0  0  0  0  0
   35.8090   30.0990   44.2370 H   0  0  0  0  0  0  0  0  0  0  0  0
   33.9400   29.2470   45.5300 H   0  0  0  0  0  0  0  0  0  0  0  0
   33.9700   29.3950   48.0170 H   0  0  0  0  0  0  0  0  0  0  0  0
   39.2950   32.9890   44.2800 C   0  0  0  0  0  0  0  0  0  0  0  0
   40.2020   32.0560   43.7110 C   0  0  0  0  0  0  0  0  0  0  0  0
   39.9590   30.6970   43.9220 C   0  0  0  0  0  0  0  0  0  0  0  0
   38.8780   30.3350   44.6550 N   0  0  0  0  0  0  0  0  0  0  0  0
   38.0330   31.2440   45.1840 C   0  0  0  0  0  0  0  0  0  0  0  0
   38.2480   32.5540   44.9920 N   0  0  0  0  0  0  0  0  0  0  0  0
   39.4380   34.0520   44.1450 H   0  0  0  0  0  0  0  0  0  0  0  0
   41.0320   32.4780   43.1420 H   0  0  0  0  0  0  0  0  0  0  0  0
   40.8750   29.7980   43.3470 N   0  0  0  0  0  0  0  0  0  0  0  0
   40.7710   29.5140   42.3450 H   0  0  0  0  0  0  0  0  0  0  0  0
   41.6410   29.4490   43.9850 H   0  0  0  0  0  0  0  0  0  0  0  0
   35.9380   30.4510   49.5770 C   0  0  0  0  0  0  0  0  0  0  0  0
   34.8920   30.6310   49.9050 H   0  0  0  0  0  0  0  0  0  0  0  0
   36.5370   31.3620   49.8280 H   0  0  0  0  0  0  0  0  0  0  0  0
   36.4850   29.2950   50.2890 C   0  0  0  0  0  0  0  0  0  0  0  0
   35.6770   28.6180   50.6680 H   0  0  0  0  0  0  0  0  0  0  0  0
   37.2020   28.6990   49.6880 H   0  0  0  0  0  0  0  0  0  0  0  0
   37.3920   29.8590   51.7560 S   0  0  0  0  0  0  0  0  0  0  0  0
   38.0040   28.7640   52.4120 H   0  0  0  0  0  0  0  0  0  0  0  0
  2  7  1  0  0  0  0
  2  1  1  0  0  0  0
  3  2  2  0  0  0  0
  4  3  1  0  0  0  0
  4  5  2  0  0  0  0
  5  6  1  0  0  0  0
  6 10  1  0  0  0  0
  6  7  2  0  0  0  0
  7 22  1  0  0  0  0
  8  4  1  0  0  0  0
  9  5  1  0  0  0  0
 11 16  1  0  0  0  0
 12 13  1  0  0  0  0
 12 11  2  0  0  0  0
 13 14  2  0  0  0  0
 14 15  1  0  0  0  0
 15  3  1  0  0  0  0
 16 15  2  0  0  0  0
 17 11  1  0  0  0  0
 18 12  1  0  0  0  0
 19 13  1  0  0  0  0
 19 21  1  0  0  0  0
 20 19  1  0  0  0  0
 22 24  1  0  0  0  0
 22 23  1  0  0  0  0
 22 25  1  0  0  0  0
 25 26  1  0  0  0  0
 25 28  1  0  0  0  0
 27 25  1  0  0  0  0
 28 29  1  0  0  0  0
M  END
>  <minimizedAffinity>
-5.25297546

>  <minimizedRMSD>
1.2090714

$$$$
