
 OpenBabel03272507303D

 26 28  0  0  0  0  0  0  0  0999 V2000
   35.6770   29.2090   49.8390 C   0  0  0  0  0  0  0  0  0  0  0  0
   34.5460   29.6510   50.4560 C   0  0  0  0  0  0  0  0  0  0  0  0
   33.4660   28.9630   49.8800 C   0  0  0  0  0  0  0  0  0  0  0  0
   34.0380   28.1210   48.9180 C   0  0  0  0  0  0  0  0  0  0  0  0
   35.3140   28.3170   48.9510 O   0  0  0  0  0  0  0  0  0  0  0  0
   34.3660   30.3770   51.2430 H   0  0  0  0  0  0  0  0  0  0  0  0
   32.4110   29.0450   50.1110 H   0  0  0  0  0  0  0  0  0  0  0  0
   36.9920   29.7010   50.1770 C   0  0  0  0  0  0  0  0  0  0  0  0
   37.5370   29.2650   51.2150 O   0  0  0  0  0  0  0  0  0  0  0  0
   37.6030   30.6690   49.2940 C   0  0  0  0  0  0  0  0  0  0  0  0
   37.8070   31.9470   49.7940 C   0  0  0  0  0  0  0  0  0  0  0  0
   38.3920   32.8920   48.9650 C   0  0  0  0  0  0  0  0  0  0  0  0
   38.7360   32.5240   47.7030 N   0  0  0  0  0  0  0  0  0  0  0  0
   38.5280   31.2780   47.2400 C   0  0  0  0  0  0  0  0  0  0  0  0
   37.9650   30.3600   48.0320 N   0  0  0  0  0  0  0  0  0  0  0  0
   37.5520   32.2920   50.7900 H   0  0  0  0  0  0  0  0  0  0  0  0
   38.5660   33.9040   49.3280 H   0  0  0  0  0  0  0  0  0  0  0  0
   38.7920   30.9590   46.2390 H   0  0  0  0  0  0  0  0  0  0  0  0
   33.2780   27.2050   48.0600 C   0  0  0  0  0  0  0  0  0  0  0  0
   32.0230   27.0920   48.2150 O   0  0  0  0  0  0  0  0  0  0  0  0
   34.0200   26.4340   47.0260 C   0  0  0  0  0  3  0  0  0  0  0  0
   33.6290   26.8970   45.6540 C   0  0  0  0  0  2  0  0  0  0  0  0
   33.9610   25.9090   44.5690 C   0  0  0  0  0  2  0  0  0  0  0  0
   33.5500   24.5030   44.9100 C   0  0  0  0  0  2  0  0  0  0  0  0
   34.3560   24.1390   46.1550 C   0  0  0  0  0  2  0  0  0  0  0  0
   33.7800   24.9890   47.2780 C   0  0  0  0  0  2  0  0  0  0  0  0
  1  8  1  0  0  0  0
  1  2  2  0  0  0  0
  2  6  1  0  0  0  0
  3  7  1  0  0  0  0
  3  2  1  0  0  0  0
  4  5  1  0  0  0  0
  4  3  2  0  0  0  0
  5  1  1  0  0  0  0
  8  9  2  0  0  0  0
 10 11  1  0  0  0  0
 10  8  1  0  0  0  0
 11 16  1  0  0  0  0
 12 17  1  0  0  0  0
 12 11  2  0  0  0  0
 13 12  1  0  0  0  0
 14 13  2  0  0  0  0
 14 15  1  0  0  0  0
 15 10  2  0  0  0  0
 18 14  1  0  0  0  0
 19 20  2  0  0  0  0
 19  4  1  0  0  0  0
 21 26  1  0  0  0  0
 21 19  1  0  0  0  0
 22 21  1  0  0  0  0
 23 24  1  0  0  0  0
 23 22  1  0  0  0  0
 24 25  1  0  0  0  0
 25 26  1  0  0  0  0
M  END
>  <minimizedAffinity>
-5.18804026

>  <minimizedRMSD>
0.772897959

$$$$
