
 OpenBabel03272509193D

 30 32  0  0  0  0  0  0  0  0999 V2000
   37.9400   25.2640   34.1510 C   0  0  0  0  0  0  0  0  0  0  0  0
   38.6870   25.3950   35.3190 C   0  0  0  0  0  0  0  0  0  0  0  0
   38.6250   26.6660   35.9270 C   0  0  0  0  0  0  0  0  0  0  0  0
   37.8510   27.6880   35.3530 C   0  0  0  0  0  0  0  0  0  0  0  0
   37.1420   27.4550   34.1840 C   0  0  0  0  0  0  0  0  0  0  0  0
   37.1840   26.2280   33.5700 C   0  0  0  0  0  0  0  0  0  0  0  0
   39.2060   26.7570   36.8330 H   0  0  0  0  0  0  0  0  0  0  0  0
   37.9160   28.5750   35.9350 H   0  0  0  0  0  0  0  0  0  0  0  0
   36.6330   28.3630   33.9330 H   0  0  0  0  0  0  0  0  0  0  0  0
   40.7770   24.1110   35.4340 C   0  0  0  0  0  0  0  0  0  0  0  0
   39.4690   24.3400   35.8890 C   0  0  0  0  0  0  0  0  0  0  0  0
   38.9780   23.5130   36.8960 C   0  0  0  0  0  0  0  0  0  0  0  0
   39.7830   22.5320   37.3860 N   0  0  0  0  0  0  0  0  0  0  0  0
   41.0490   22.3410   36.9160 C   0  0  0  0  0  0  0  0  0  0  0  0
   41.5400   23.1310   35.9450 N   0  0  0  0  0  0  0  0  0  0  0  0
   41.1570   24.7540   34.6520 H   0  0  0  0  0  0  0  0  0  0  0  0
   41.6700   21.5510   37.3240 H   0  0  0  0  0  0  0  0  0  0  0  0
   37.6160   23.7040   37.4160 C   0  0  0  0  0  0  0  0  0  0  0  0
   36.8990   23.7580   36.5640 H   0  0  0  0  0  0  0  0  0  0  0  0
   37.3540   22.8240   38.0440 H   0  0  0  0  0  0  0  0  0  0  0  0
   37.5200   24.5820   38.0890 H   0  0  0  0  0  0  0  0  0  0  0  0
   37.9540   24.0310   33.4920 O   0  0  0  0  0  0  0  0  0  0  0  0
   37.2030   23.3630   33.5580 H   0  0  0  0  0  0  0  0  0  0  0  0
   36.4690   26.0340   32.4190 O   0  0  0  0  0  0  0  0  0  0  0  0
   36.8410   26.4500   31.1510 C   0  0  0  0  0  3  0  0  0  0  0  0
   38.3240   26.3370   30.8940 C   0  0  0  0  0  2  0  0  0  0  0  0
   39.0440   27.6460   30.9170 C   0  0  0  0  0  2  0  0  0  0  0  0
   38.4220   28.7090   30.0640 C   0  0  0  0  0  2  0  0  0  0  0  0
   36.9790   28.5260   29.7700 C   0  0  0  0  0  2  0  0  0  0  0  0
   36.3380   27.8640   30.9470 C   0  0  0  0  0  2  0  0  0  0  0  0
  1  2  1  0  0  0  0
  2 11  1  0  0  0  0
  2  3  2  0  0  0  0
  3  7  1  0  0  0  0
  4  3  1  0  0  0  0
  4  8  1  0  0  0  0
  5  4  2  0  0  0  0
  6  1  2  0  0  0  0
  6  5  1  0  0  0  0
  9  5  1  0  0  0  0
 10 11  2  0  0  0  0
 10 15  1  0  0  0  0
 11 12  1  0  0  0  0
 12 13  2  0  0  0  0
 12 18  1  0  0  0  0
 14 17  1  0  0  0  0
 14 13  1  0  0  0  0
 15 14  2  0  0  0  0
 16 10  1  0  0  0  0
 18 20  1  0  0  0  0
 18 21  1  0  0  0  0
 19 18  1  0  0  0  0
 22 23  1  0  0  0  0
 22  1  1  0  0  0  0
 24  6  1  0  0  0  0
 25 24  1  0  0  0  0
 26 27  1  0  0  0  0
 26 25  1  0  0  0  0
 28 27  1  0  0  0  0
 29 28  1  0  0  0  0
 29 30  1  0  0  0  0
 30 25  1  0  0  0  0
M  END
>  <minimizedAffinity>
-5.47464228

$$$$

 OpenBabel03272509193D

 30 32  0  0  0  0  0  0  0  0999 V2000
   38.8810   25.1860   33.5940 C   0  0  0  0  0  0  0  0  0  0  0  0
   39.0000   26.5330   33.2640 C   0  0  0  0  0  0  0  0  0  0  0  0
   40.1560   27.1690   33.7620 C   0  0  0  0  0  0  0  0  0  0  0  0
   41.0860   26.4480   34.5300 C   0  0  0  0  0  0  0  0  0  0  0  0
   40.8730   25.1050   34.8040 C   0  0  0  0  0  0  0  0  0  0  0  0
   39.7570   24.4600   34.3320 C   0  0  0  0  0  0  0  0  0  0  0  0
   40.2400   28.2130   33.5000 H   0  0  0  0  0  0  0  0  0  0  0  0
   41.8920   27.0750   34.8240 H   0  0  0  0  0  0  0  0  0  0  0  0
   41.6980   24.7660   35.3960 H   0  0  0  0  0  0  0  0  0  0  0  0
   38.1950   27.3300   31.0850 C   0  0  0  0  0  0  0  0  0  0  0  0
   38.0420   27.2500   32.4780 C   0  0  0  0  0  0  0  0  0  0  0  0
   36.9410   27.8840   33.0480 C   0  0  0  0  0  0  0  0  0  0  0  0
   36.0750   28.5460   32.2330 N   0  0  0  0  0  0  0  0  0  0  0  0
   36.2600   28.6030   30.8840 C   0  0  0  0  0  0  0  0  0  0  0  0
   37.3170   27.9950   30.3160 N   0  0  0  0  0  0  0  0  0  0  0  0
   39.0510   26.8380   30.6440 H   0  0  0  0  0  0  0  0  0  0  0  0
   35.5550   29.1370   30.2570 H   0  0  0  0  0  0  0  0  0  0  0  0
   36.7240   27.8330   34.5010 C   0  0  0  0  0  0  0  0  0  0  0  0
   37.6630   28.1250   35.0260 H   0  0  0  0  0  0  0  0  0  0  0  0
   35.9300   28.5670   34.7620 H   0  0  0  0  0  0  0  0  0  0  0  0
   36.3430   26.8520   34.8560 H   0  0  0  0  0  0  0  0  0  0  0  0
   37.7590   24.4890   33.1340 O   0  0  0  0  0  0  0  0  0  0  0  0
   37.7840   23.8680   32.3410 H   0  0  0  0  0  0  0  0  0  0  0  0
   39.5830   23.1320   34.6190 O   0  0  0  0  0  0  0  0  0  0  0  0
   39.1560   22.6130   35.8300 C   0  0  0  0  0  3  0  0  0  0  0  0
   37.7620   23.0460   36.2110 C   0  0  0  0  0  2  0  0  0  0  0  0
   37.7230   24.0810   37.2880 C   0  0  0  0  0  2  0  0  0  0  0  0
   38.5390   23.7460   38.4980 C   0  0  0  0  0  2  0  0  0  0  0  0
   39.6440   22.7800   38.2740 C   0  0  0  0  0  2  0  0  0  0  0  0
   40.1730   22.9820   36.8910 C   0  0  0  0  0  2  0  0  0  0  0  0
  1  6  1  0  0  0  0
  2  1  2  0  0  0  0
  2  3  1  0  0  0  0
  3  4  2  0  0  0  0
  4  5  1  0  0  0  0
  4  8  1  0  0  0  0
  5  9  1  0  0  0  0
  6 24  1  0  0  0  0
  6  5  2  0  0  0  0
  7  3  1  0  0  0  0
 10 11  1  0  0  0  0
 11 12  2  0  0  0  0
 11  2  1  0  0  0  0
 12 18  1  0  0  0  0
 13 12  1  0  0  0  0
 14 13  2  0  0  0  0
 15 14  1  0  0  0  0
 15 10  2  0  0  0  0
 16 10  1  0  0  0  0
 17 14  1  0  0  0  0
 18 20  1  0  0  0  0
 18 21  1  0  0  0  0
 18 19  1  0  0  0  0
 22  1  1  0  0  0  0
 23 22  1  0  0  0  0
 24 25  1  0  0  0  0
 25 26  1  0  0  0  0
 25 30  1  0  0  0  0
 26 27  1  0  0  0  0
 27 28  1  0  0  0  0
 29 28  1  0  0  0  0
 30 29  1  0  0  0  0
M  END
>  <minimizedAffinity>
-5.36978102

$$$$

 OpenBabel03272509193D

 30 32  0  0  0  0  0  0  0  0999 V2000
   36.0630   28.9330   33.3980 C   0  0  0  0  0  0  0  0  0  0  0  0
   35.5160   30.2080   33.4960 C   0  0  0  0  0  0  0  0  0  0  0  0
   35.5180   30.9530   32.2990 C   0  0  0  0  0  0  0  0  0  0  0  0
   36.0470   30.3980   31.1210 C   0  0  0  0  0  0  0  0  0  0  0  0
   36.5710   29.1130   31.1300 C   0  0  0  0  0  0  0  0  0  0  0  0
   36.5830   28.3660   32.2810 C   0  0  0  0  0  0  0  0  0  0  0  0
   35.0900   31.9400   32.3850 H   0  0  0  0  0  0  0  0  0  0  0  0
   35.9710   31.0890   30.3170 H   0  0  0  0  0  0  0  0  0  0  0  0
   36.9130   28.9030   30.1370 H   0  0  0  0  0  0  0  0  0  0  0  0
   35.7960   31.5260   35.5500 C   0  0  0  0  0  0  0  0  0  0  0  0
   34.9800   30.7560   34.7060 C   0  0  0  0  0  0  0  0  0  0  0  0
   33.6570   30.5540   35.0900 C   0  0  0  0  0  0  0  0  0  0  0  0
   33.2230   31.1080   36.2550 N   0  0  0  0  0  0  0  0  0  0  0  0
   34.0480   31.8490   37.0480 C   0  0  0  0  0  0  0  0  0  0  0  0
   35.3280   32.0560   36.6920 N   0  0  0  0  0  0  0  0  0  0  0  0
   36.8230   31.6830   35.2500 H   0  0  0  0  0  0  0  0  0  0  0  0
   33.6770   32.2790   37.9720 H   0  0  0  0  0  0  0  0  0  0  0  0
   32.7520   29.7590   34.2470 C   0  0  0  0  0  0  0  0  0  0  0  0
   33.2410   28.7900   33.9900 H   0  0  0  0  0  0  0  0  0  0  0  0
   31.8280   29.5450   34.8290 H   0  0  0  0  0  0  0  0  0  0  0  0
   32.4060   30.2980   33.3400 H   0  0  0  0  0  0  0  0  0  0  0  0
   36.0960   28.1360   34.5470 O   0  0  0  0  0  0  0  0  0  0  0  0
   35.4380   27.3930   34.7200 H   0  0  0  0  0  0  0  0  0  0  0  0
   37.1050   27.1010   32.2490 O   0  0  0  0  0  0  0  0  0  0  0  0
   36.9950   26.2040   31.2000 C   0  0  0  0  0  3  0  0  0  0  0  0
   35.6110   25.6220   31.0500 C   0  0  0  0  0  2  0  0  0  0  0  0
   35.4940   24.2090   31.5230 C   0  0  0  0  0  2  0  0  0  0  0  0
   36.5370   23.2840   30.9740 C   0  0  0  0  0  2  0  0  0  0  0  0
   37.7890   23.9360   30.5150 C   0  0  0  0  0  2  0  0  0  0  0  0
   38.0450   25.1270   31.3820 C   0  0  0  0  0  2  0  0  0  0  0  0
  1  2  1  0  0  0  0
  1 22  1  0  0  0  0
  2 11  1  0  0  0  0
  3  7  1  0  0  0  0
  3  2  2  0  0  0  0
  4  5  2  0  0  0  0
  4  3  1  0  0  0  0
  5  6  1  0  0  0  0
  6  1  2  0  0  0  0
  8  4  1  0  0  0  0
  9  5  1  0  0  0  0
 10 15  1  0  0  0  0
 11 12  1  0  0  0  0
 11 10  2  0  0  0  0
 12 13  2  0  0  0  0
 13 14  1  0  0  0  0
 14 17  1  0  0  0  0
 15 14  2  0  0  0  0
 16 10  1  0  0  0  0
 18 20  1  0  0  0  0
 18 12  1  0  0  0  0
 19 18  1  0  0  0  0
 21 18  1  0  0  0  0
 22 23  1  0  0  0  0
 24  6  1  0  0  0  0
 25 30  1  0  0  0  0
 25 24  1  0  0  0  0
 26 25  1  0  0  0  0
 26 27  1  0  0  0  0
 28 27  1  0  0  0  0
 29 28  1  0  0  0  0
 29 30  1  0  0  0  0
M  END
>  <minimizedAffinity>
-5.29061794

$$$$

 OpenBabel03272509193D

 30 32  0  0  0  0  0  0  0  0999 V2000
   37.1040   24.1570   32.2540 C   0  0  0  0  0  0  0  0  0  0  0  0
   36.9990   25.4840   32.6590 C   0  0  0  0  0  0  0  0  0  0  0  0
   36.0190   26.2390   31.9830 C   0  0  0  0  0  0  0  0  0  0  0  0
   35.2340   25.6430   30.9810 C   0  0  0  0  0  0  0  0  0  0  0  0
   35.4190   24.3090   30.6500 C   0  0  0  0  0  0  0  0  0  0  0  0
   36.3660   23.5500   31.2920 C   0  0  0  0  0  0  0  0  0  0  0  0
   35.9440   27.2660   32.3050 H   0  0  0  0  0  0  0  0  0  0  0  0
   34.5500   26.3490   30.5760 H   0  0  0  0  0  0  0  0  0  0  0  0
   34.7220   24.0740   29.8720 H   0  0  0  0  0  0  0  0  0  0  0  0
   37.3540   26.0910   35.0120 C   0  0  0  0  0  0  0  0  0  0  0  0
   37.8080   26.0720   33.6840 C   0  0  0  0  0  0  0  0  0  0  0  0
   39.0520   26.6360   33.4150 C   0  0  0  0  0  0  0  0  0  0  0  0
   39.7600   27.1760   34.4450 N   0  0  0  0  0  0  0  0  0  0  0  0
   39.2830   27.1770   35.7210 C   0  0  0  0  0  0  0  0  0  0  0  0
   38.0850   26.6350   36.0000 N   0  0  0  0  0  0  0  0  0  0  0  0
   36.3880   25.6520   35.2200 H   0  0  0  0  0  0  0  0  0  0  0  0
   39.8680   27.6140   36.5240 H   0  0  0  0  0  0  0  0  0  0  0  0
   39.5840   26.6450   32.0450 C   0  0  0  0  0  0  0  0  0  0  0  0
   38.8090   27.0450   31.3500 H   0  0  0  0  0  0  0  0  0  0  0  0
   40.4680   27.3190   32.0160 H   0  0  0  0  0  0  0  0  0  0  0  0
   39.9610   25.6550   31.7120 H   0  0  0  0  0  0  0  0  0  0  0  0
   38.0570   23.3460   32.8810 O   0  0  0  0  0  0  0  0  0  0  0  0
   37.8240   22.6780   33.5980 H   0  0  0  0  0  0  0  0  0  0  0  0
   36.5160   22.2360   30.9410 O   0  0  0  0  0  0  0  0  0  0  0  0
   35.6100   21.2190   31.1930 C   0  0  0  0  0  3  0  0  0  0  0  0
   34.9860   21.2980   32.5650 C   0  0  0  0  0  2  0  0  0  0  0  0
   35.5200   20.2900   33.5310 C   0  0  0  0  0  2  0  0  0  0  0  0
   35.5280   18.8840   33.0160 C   0  0  0  0  0  2  0  0  0  0  0  0
   35.5370   18.7460   31.5380 C   0  0  0  0  0  2  0  0  0  0  0  0
   36.3050   19.8930   30.9630 C   0  0  0  0  0  2  0  0  0  0  0  0
  1  2  1  0  0  0  0
  1 22  1  0  0  0  0
  2 11  1  0  0  0  0
  3  7  1  0  0  0  0
  3  2  2  0  0  0  0
  4  3  1  0  0  0  0
  5  4  2  0  0  0  0
  5  6  1  0  0  0  0
  6  1  2  0  0  0  0
  8  4  1  0  0  0  0
  9  5  1  0  0  0  0
 10 16  1  0  0  0  0
 10 15  1  0  0  0  0
 11 10  2  0  0  0  0
 12 11  1  0  0  0  0
 12 13  2  0  0  0  0
 13 14  1  0  0  0  0
 14 15  2  0  0  0  0
 14 17  1  0  0  0  0
 18 12  1  0  0  0  0
 19 18  1  0  0  0  0
 20 18  1  0  0  0  0
 21 18  1  0  0  0  0
 22 23  1  0  0  0  0
 24 25  1  0  0  0  0
 24  6  1  0  0  0  0
 25 26  1  0  0  0  0
 26 27  1  0  0  0  0
 28 27  1  0  0  0  0
 29 28  1  0  0  0  0
 30 25  1  0  0  0  0
 30 29  1  0  0  0  0
M  END
>  <minimizedAffinity>
-5.27723503

$$$$

 OpenBabel03272509193D

 30 32  0  0  0  0  0  0  0  0999 V2000
   37.8220   27.4990   34.9410 C   0  0  0  0  0  0  0  0  0  0  0  0
   38.4290   26.5200   34.1600 C   0  0  0  0  0  0  0  0  0  0  0  0
   37.9460   26.4260   32.8380 C   0  0  0  0  0  0  0  0  0  0  0  0
   36.9240   27.2830   32.3960 C   0  0  0  0  0  0  0  0  0  0  0  0
   36.3840   28.2280   33.2560 C   0  0  0  0  0  0  0  0  0  0  0  0
   36.8350   28.3420   34.5470 C   0  0  0  0  0  0  0  0  0  0  0  0
   38.4240   25.6650   32.2400 H   0  0  0  0  0  0  0  0  0  0  0  0
   36.6810   27.0780   31.3820 H   0  0  0  0  0  0  0  0  0  0  0  0
   35.6310   28.7600   32.7120 H   0  0  0  0  0  0  0  0  0  0  0  0
   39.1470   24.4390   35.2490 C   0  0  0  0  0  0  0  0  0  0  0  0
   39.4710   25.6570   34.6300 C   0  0  0  0  0  0  0  0  0  0  0  0
   40.8190   25.9790   34.4950 C   0  0  0  0  0  0  0  0  0  0  0  0
   41.7490   25.1050   34.9680 N   0  0  0  0  0  0  0  0  0  0  0  0
   41.3940   23.9330   35.5660 C   0  0  0  0  0  0  0  0  0  0  0  0
   40.0970   23.6050   35.7020 N   0  0  0  0  0  0  0  0  0  0  0  0
   38.1000   24.1900   35.3520 H   0  0  0  0  0  0  0  0  0  0  0  0
   42.1550   23.2540   35.9340 H   0  0  0  0  0  0  0  0  0  0  0  0
   41.2210   27.2380   33.8530 C   0  0  0  0  0  0  0  0  0  0  0  0
   40.6570   28.0840   34.3110 H   0  0  0  0  0  0  0  0  0  0  0  0
   42.3060   27.3960   34.0400 H   0  0  0  0  0  0  0  0  0  0  0  0
   41.1150   27.2240   32.7480 H   0  0  0  0  0  0  0  0  0  0  0  0
   38.2500   27.6510   36.2640 O   0  0  0  0  0  0  0  0  0  0  0  0
   38.8730   28.3850   36.5600 H   0  0  0  0  0  0  0  0  0  0  0  0
   36.2800   29.2890   35.3660 O   0  0  0  0  0  0  0  0  0  0  0  0
   35.6950   30.4740   34.9540 C   0  0  0  0  0  3  0  0  0  0  0  0
   36.1120   31.6680   35.7780 C   0  0  0  0  0  2  0  0  0  0  0  0
   35.0630   32.1420   36.7310 C   0  0  0  0  0  2  0  0  0  0  0  0
   33.7150   32.3510   36.1140 C   0  0  0  0  0  2  0  0  0  0  0  0
   33.4610   31.5890   34.8650 C   0  0  0  0  0  2  0  0  0  0  0  0
   34.1910   30.2870   34.9510 C   0  0  0  0  0  2  0  0  0  0  0  0
  1 22  1  0  0  0  0
  2 11  1  0  0  0  0
  2  1  2  0  0  0  0
  3  2  1  0  0  0  0
  4  3  2  0  0  0  0
  4  5  1  0  0  0  0
  5  6  2  0  0  0  0
  6  1  1  0  0  0  0
  6 24  1  0  0  0  0
  7  3  1  0  0  0  0
  8  4  1  0  0  0  0
  9  5  1  0  0  0  0
 10 16  1  0  0  0  0
 10 15  1  0  0  0  0
 11 10  2  0  0  0  0
 12 11  1  0  0  0  0
 12 13  2  0  0  0  0
 13 14  1  0  0  0  0
 14 15  2  0  0  0  0
 14 17  1  0  0  0  0
 18 20  1  0  0  0  0
 18 19  1  0  0  0  0
 18 12  1  0  0  0  0
 21 18  1  0  0  0  0
 22 23  1  0  0  0  0
 25 24  1  0  0  0  0
 25 26  1  0  0  0  0
 26 27  1  0  0  0  0
 28 27  1  0  0  0  0
 29 30  1  0  0  0  0
 29 28  1  0  0  0  0
 30 25  1  0  0  0  0
M  END
>  <minimizedAffinity>
-5.24376822

$$$$

 OpenBabel03272509193D

 30 32  0  0  0  0  0  0  0  0999 V2000
   37.4650   26.3630   33.3550 C   0  0  0  0  0  0  0  0  0  0  0  0
   36.6840   26.6540   32.2410 C   0  0  0  0  0  0  0  0  0  0  0  0
   36.2840   25.5340   31.4840 C   0  0  0  0  0  0  0  0  0  0  0  0
   36.6740   24.2410   31.8730 C   0  0  0  0  0  0  0  0  0  0  0  0
   37.4560   24.0590   33.0040 C   0  0  0  0  0  0  0  0  0  0  0  0
   37.8600   25.1310   33.7590 C   0  0  0  0  0  0  0  0  0  0  0  0
   35.6770   25.7690   30.6220 H   0  0  0  0  0  0  0  0  0  0  0  0
   36.2890   23.5170   31.1960 H   0  0  0  0  0  0  0  0  0  0  0  0
   37.6290   23.0070   33.1050 H   0  0  0  0  0  0  0  0  0  0  0  0
   35.1100   28.5350   32.3670 C   0  0  0  0  0  0  0  0  0  0  0  0
   36.2960   27.9790   31.8610 C   0  0  0  0  0  0  0  0  0  0  0  0
   37.0600   28.7580   30.9960 C   0  0  0  0  0  0  0  0  0  0  0  0
   36.6230   30.0080   30.6830 N   0  0  0  0  0  0  0  0  0  0  0  0
   35.4630   30.5110   31.1940 C   0  0  0  0  0  0  0  0  0  0  0  0
   34.7130   29.7740   32.0330 N   0  0  0  0  0  0  0  0  0  0  0  0
   34.5170   27.9300   33.0390 H   0  0  0  0  0  0  0  0  0  0  0  0
   35.1370   31.5110   30.9290 H   0  0  0  0  0  0  0  0  0  0  0  0
   38.3140   28.2330   30.4360 C   0  0  0  0  0  0  0  0  0  0  0  0
   38.1310   27.2220   30.0020 H   0  0  0  0  0  0  0  0  0  0  0  0
   38.6450   28.9130   29.6210 H   0  0  0  0  0  0  0  0  0  0  0  0
   39.1520   28.2200   31.1650 H   0  0  0  0  0  0  0  0  0  0  0  0
   37.9000   27.4260   34.1540 O   0  0  0  0  0  0  0  0  0  0  0  0
   37.4690   27.6670   35.0320 H   0  0  0  0  0  0  0  0  0  0  0  0
   38.6280   24.9110   34.8710 O   0  0  0  0  0  0  0  0  0  0  0  0
   38.5300   23.8240   35.7230 C   0  0  0  0  0  3  0  0  0  0  0  0
   37.4790   23.9910   36.7930 C   0  0  0  0  0  2  0  0  0  0  0  0
   38.0360   24.2830   38.1480 C   0  0  0  0  0  2  0  0  0  0  0  0
   39.1150   23.3430   38.5890 C   0  0  0  0  0  2  0  0  0  0  0  0
   39.8360   22.6430   37.4960 C   0  0  0  0  0  2  0  0  0  0  0  0
   39.8990   23.5560   36.3130 C   0  0  0  0  0  2  0  0  0  0  0  0
  1  6  1  0  0  0  0
  1 22  1  0  0  0  0
  2  1  2  0  0  0  0
  3  4  2  0  0  0  0
  3  2  1  0  0  0  0
  4  5  1  0  0  0  0
  5  9  1  0  0  0  0
  5  6  2  0  0  0  0
  6 24  1  0  0  0  0
  7  3  1  0  0  0  0
  8  4  1  0  0  0  0
 10 16  1  0  0  0  0
 11  2  1  0  0  0  0
 11 10  2  0  0  0  0
 12 11  1  0  0  0  0
 13 12  2  0  0  0  0
 13 14  1  0  0  0  0
 14 15  2  0  0  0  0
 15 10  1  0  0  0  0
 17 14  1  0  0  0  0
 18 12  1  0  0  0  0
 18 21  1  0  0  0  0
 19 18  1  0  0  0  0
 20 18  1  0  0  0  0
 22 23  1  0  0  0  0
 24 25  1  0  0  0  0
 25 30  1  0  0  0  0
 25 26  1  0  0  0  0
 26 27  1  0  0  0  0
 27 28  1  0  0  0  0
 29 28  1  0  0  0  0
 30 29  1  0  0  0  0
M  END
>  <minimizedAffinity>
-5.19974422

$$$$

 OpenBabel03272509193D

 30 32  0  0  0  0  0  0  0  0999 V2000
   37.8490   25.3920   34.0960 C   0  0  0  0  0  0  0  0  0  0  0  0
   37.7750   26.7740   33.9500 C   0  0  0  0  0  0  0  0  0  0  0  0
   38.0440   27.5130   35.1210 C   0  0  0  0  0  0  0  0  0  0  0  0
   38.3580   26.8500   36.3200 C   0  0  0  0  0  0  0  0  0  0  0  0
   38.4050   25.4650   36.3590 C   0  0  0  0  0  0  0  0  0  0  0  0
   38.1480   24.7200   35.2350 C   0  0  0  0  0  0  0  0  0  0  0  0
   37.9860   28.5840   34.9980 H   0  0  0  0  0  0  0  0  0  0  0  0
   38.5300   27.5530   37.0990 H   0  0  0  0  0  0  0  0  0  0  0  0
   38.6590   25.1830   37.3610 H   0  0  0  0  0  0  0  0  0  0  0  0
   36.1440   27.8730   32.4790 C   0  0  0  0  0  0  0  0  0  0  0  0
   37.4550   27.4310   32.7190 C   0  0  0  0  0  0  0  0  0  0  0  0
   38.4070   27.6570   31.7290 C   0  0  0  0  0  0  0  0  0  0  0  0
   38.0240   28.2870   30.5850 N   0  0  0  0  0  0  0  0  0  0  0  0
   36.7390   28.7000   30.3900 C   0  0  0  0  0  0  0  0  0  0  0  0
   35.8070   28.4920   31.3360 N   0  0  0  0  0  0  0  0  0  0  0  0
   35.4060   27.6970   33.2490 H   0  0  0  0  0  0  0  0  0  0  0  0
   36.4600   29.2000   29.4690 H   0  0  0  0  0  0  0  0  0  0  0  0
   39.7980   27.2200   31.9220 C   0  0  0  0  0  0  0  0  0  0  0  0
   39.8090   26.1530   32.2460 H   0  0  0  0  0  0  0  0  0  0  0  0
   40.3290   27.3000   30.9470 H   0  0  0  0  0  0  0  0  0  0  0  0
   40.3710   27.8670   32.6190 H   0  0  0  0  0  0  0  0  0  0  0  0
   37.5950   24.5940   32.9760 O   0  0  0  0  0  0  0  0  0  0  0  0
   38.3230   24.1620   32.4310 H   0  0  0  0  0  0  0  0  0  0  0  0
   38.2080   23.3540   35.3120 O   0  0  0  0  0  0  0  0  0  0  0  0
   39.3650   22.5930   35.3380 C   0  0  0  0  0  3  0  0  0  0  0  0
   39.6800   22.0260   36.7000 C   0  0  0  0  0  2  0  0  0  0  0  0
   40.8000   22.7230   37.4020 C   0  0  0  0  0  2  0  0  0  0  0  0
   42.0410   22.8830   36.5780 C   0  0  0  0  0  2  0  0  0  0  0  0
   41.8400   22.8440   35.1080 C   0  0  0  0  0  2  0  0  0  0  0  0
   40.5020   23.4370   34.8000 C   0  0  0  0  0  2  0  0  0  0  0  0
  1  6  1  0  0  0  0
  2  1  2  0  0  0  0
  2  3  1  0  0  0  0
  3  4  2  0  0  0  0
  4  5  1  0  0  0  0
  4  8  1  0  0  0  0
  5  9  1  0  0  0  0
  6 24  1  0  0  0  0
  6  5  2  0  0  0  0
  7  3  1  0  0  0  0
 10 11  1  0  0  0  0
 10 16  1  0  0  0  0
 11  2  1  0  0  0  0
 12 18  1  0  0  0  0
 12 11  2  0  0  0  0
 13 12  1  0  0  0  0
 14 13  2  0  0  0  0
 14 15  1  0  0  0  0
 15 10  2  0  0  0  0
 17 14  1  0  0  0  0
 18 19  1  0  0  0  0
 18 21  1  0  0  0  0
 20 18  1  0  0  0  0
 22  1  1  0  0  0  0
 23 22  1  0  0  0  0
 24 25  1  0  0  0  0
 25 26  1  0  0  0  0
 26 27  1  0  0  0  0
 28 27  1  0  0  0  0
 29 28  1  0  0  0  0
 30 29  1  0  0  0  0
 30 25  1  0  0  0  0
M  END
>  <minimizedAffinity>
-5.17528296

$$$$

 OpenBabel03272509193D

 30 32  0  0  0  0  0  0  0  0999 V2000
   36.7640   27.8740   33.5820 C   0  0  0  0  0  0  0  0  0  0  0  0
   37.8950   27.3910   32.9300 C   0  0  0  0  0  0  0  0  0  0  0  0
   38.0360   27.8080   31.5900 C   0  0  0  0  0  0  0  0  0  0  0  0
   37.0740   28.6500   31.0060 C   0  0  0  0  0  0  0  0  0  0  0  0
   35.9800   29.0760   31.7440 C   0  0  0  0  0  0  0  0  0  0  0  0
   35.8180   28.6860   33.0500 C   0  0  0  0  0  0  0  0  0  0  0  0
   38.9170   27.4290   31.0940 H   0  0  0  0  0  0  0  0  0  0  0  0
   37.3320   28.8650   29.9980 H   0  0  0  0  0  0  0  0  0  0  0  0
   35.3880   29.6990   31.1050 H   0  0  0  0  0  0  0  0  0  0  0  0
   39.9830   27.0880   34.1880 C   0  0  0  0  0  0  0  0  0  0  0  0
   38.8650   26.5350   33.5440 C   0  0  0  0  0  0  0  0  0  0  0  0
   38.7450   25.1480   33.5300 C   0  0  0  0  0  0  0  0  0  0  0  0
   39.7100   24.4030   34.1350 N   0  0  0  0  0  0  0  0  0  0  0  0
   40.7820   24.9790   34.7490 C   0  0  0  0  0  0  0  0  0  0  0  0
   40.9130   26.3160   34.7740 N   0  0  0  0  0  0  0  0  0  0  0  0
   40.0750   28.1660   34.1990 H   0  0  0  0  0  0  0  0  0  0  0  0
   41.5370   24.3610   35.2230 H   0  0  0  0  0  0  0  0  0  0  0  0
   37.5960   24.5090   32.8730 C   0  0  0  0  0  0  0  0  0  0  0  0
   37.4770   24.9260   31.8460 H   0  0  0  0  0  0  0  0  0  0  0  0
   37.8010   23.4180   32.7900 H   0  0  0  0  0  0  0  0  0  0  0  0
   36.6550   24.5840   33.4580 H   0  0  0  0  0  0  0  0  0  0  0  0
   36.5590   27.5020   34.9140 O   0  0  0  0  0  0  0  0  0  0  0  0
   36.7610   28.1090   35.6930 H   0  0  0  0  0  0  0  0  0  0  0  0
   34.7260   29.1310   33.7470 O   0  0  0  0  0  0  0  0  0  0  0  0
   34.4950   30.4360   34.1480 C   0  0  0  0  0  3  0  0  0  0  0  0
   35.7580   31.1990   34.4640 C   0  0  0  0  0  2  0  0  0  0  0  0
   35.9980   31.3930   35.9270 C   0  0  0  0  0  2  0  0  0  0  0  0
   34.8250   31.9450   36.6780 C   0  0  0  0  0  2  0  0  0  0  0  0
   33.5010   31.7200   36.0460 C   0  0  0  0  0  2  0  0  0  0  0  0
   33.5400   30.4120   35.3230 C   0  0  0  0  0  2  0  0  0  0  0  0
  1 22  1  0  0  0  0
  2 11  1  0  0  0  0
  2  1  2  0  0  0  0
  3  2  1  0  0  0  0
  4  3  2  0  0  0  0
  4  5  1  0  0  0  0
  5  6  2  0  0  0  0
  6  1  1  0  0  0  0
  6 24  1  0  0  0  0
  7  3  1  0  0  0  0
  8  4  1  0  0  0  0
  9  5  1  0  0  0  0
 10 16  1  0  0  0  0
 10 15  1  0  0  0  0
 11 10  2  0  0  0  0
 12 11  1  0  0  0  0
 12 13  2  0  0  0  0
 13 14  1  0  0  0  0
 14 15  2  0  0  0  0
 14 17  1  0  0  0  0
 18 21  1  0  0  0  0
 18 12  1  0  0  0  0
 19 18  1  0  0  0  0
 20 18  1  0  0  0  0
 22 23  1  0  0  0  0
 24 25  1  0  0  0  0
 25 26  1  0  0  0  0
 25 30  1  0  0  0  0
 26 27  1  0  0  0  0
 27 28  1  0  0  0  0
 29 28  1  0  0  0  0
 30 29  1  0  0  0  0
M  END
>  <minimizedAffinity>
-5.16736889

$$$$

 OpenBabel03272509193D

 30 32  0  0  0  0  0  0  0  0999 V2000
   37.6620   22.9280   32.0250 C   0  0  0  0  0  0  0  0  0  0  0  0
   36.5000   22.2850   31.6080 C   0  0  0  0  0  0  0  0  0  0  0  0
   35.4480   23.1430   31.2260 C   0  0  0  0  0  0  0  0  0  0  0  0
   35.6160   24.5370   31.2810 C   0  0  0  0  0  0  0  0  0  0  0  0
   36.8180   25.0780   31.7120 C   0  0  0  0  0  0  0  0  0  0  0  0
   37.8580   24.2670   32.0910 C   0  0  0  0  0  0  0  0  0  0  0  0
   34.5520   22.6350   30.9030 H   0  0  0  0  0  0  0  0  0  0  0  0
   34.7310   25.0310   30.9600 H   0  0  0  0  0  0  0  0  0  0  0  0
   36.7190   26.1440   31.6730 H   0  0  0  0  0  0  0  0  0  0  0  0
   36.6350   20.1670   30.3720 C   0  0  0  0  0  0  0  0  0  0  0  0
   36.3490   20.8620   31.5580 C   0  0  0  0  0  0  0  0  0  0  0  0
   35.9220   20.1220   32.6570 C   0  0  0  0  0  0  0  0  0  0  0  0
   35.8030   18.7720   32.5290 N   0  0  0  0  0  0  0  0  0  0  0  0
   36.0900   18.1340   31.3590 C   0  0  0  0  0  0  0  0  0  0  0  0
   36.5040   18.8330   30.2880 N   0  0  0  0  0  0  0  0  0  0  0  0
   36.9670   20.7430   29.5190 H   0  0  0  0  0  0  0  0  0  0  0  0
   35.9860   17.0570   31.2830 H   0  0  0  0  0  0  0  0  0  0  0  0
   35.6100   20.7910   33.9280 C   0  0  0  0  0  0  0  0  0  0  0  0
   34.9210   21.6470   33.7360 H   0  0  0  0  0  0  0  0  0  0  0  0
   35.0930   20.0630   34.5910 H   0  0  0  0  0  0  0  0  0  0  0  0
   36.5120   21.1100   34.4930 H   0  0  0  0  0  0  0  0  0  0  0  0
   38.7480   22.1400   32.4200 O   0  0  0  0  0  0  0  0  0  0  0  0
   39.5470   21.9680   31.8310 H   0  0  0  0  0  0  0  0  0  0  0  0
   39.0310   24.8390   32.5080 O   0  0  0  0  0  0  0  0  0  0  0  0
   39.3430   25.1950   33.8090 C   0  0  0  0  0  3  0  0  0  0  0  0
   38.2480   24.8750   34.7980 C   0  0  0  0  0  2  0  0  0  0  0  0
   37.4790   26.0700   35.2580 C   0  0  0  0  0  2  0  0  0  0  0  0
   38.3290   27.2070   35.7360 C   0  0  0  0  0  2  0  0  0  0  0  0
   39.7190   27.2270   35.2120 C   0  0  0  0  0  2  0  0  0  0  0  0
   39.7080   26.6650   33.8270 C   0  0  0  0  0  2  0  0  0  0  0  0
  1  6  1  0  0  0  0
  1 22  1  0  0  0  0
  2  1  2  0  0  0  0
  3  4  2  0  0  0  0
  3  2  1  0  0  0  0
  4  5  1  0  0  0  0
  5  6  2  0  0  0  0
  6 24  1  0  0  0  0
  7  3  1  0  0  0  0
  8  4  1  0  0  0  0
  9  5  1  0  0  0  0
 10 11  1  0  0  0  0
 11  2  1  0  0  0  0
 11 12  2  0  0  0  0
 12 18  1  0  0  0  0
 13 12  1  0  0  0  0
 14 13  2  0  0  0  0
 15 10  2  0  0  0  0
 15 14  1  0  0  0  0
 16 10  1  0  0  0  0
 17 14  1  0  0  0  0
 18 21  1  0  0  0  0
 18 20  1  0  0  0  0
 19 18  1  0  0  0  0
 23 22  1  0  0  0  0
 24 25  1  0  0  0  0
 25 30  1  0  0  0  0
 25 26  1  0  0  0  0
 26 27  1  0  0  0  0
 27 28  1  0  0  0  0
 29 28  1  0  0  0  0
 30 29  1  0  0  0  0
M  END
>  <minimizedAffinity>
-5.14351225

$$$$
