
 OpenBabel03272506393D

 34 36  0  0  1  0  0  0  0  0999 V2000
   33.0620   31.6900   44.3360 O   0  0  0  0  0  0  0  0  0  0  0  0
   32.8860   30.7690   45.1430 C   0  0  0  0  0  0  0  0  0  0  0  0
   31.5610   30.3810   45.5780 C   0  0  2  0  0  0  0  0  0  0  0  0
   31.8820   29.0810   46.3920 C   0  0  0  0  0  0  0  0  0  0  0  0
   33.2860   29.3400   46.8690 C   0  0  0  0  0  0  0  0  0  0  0  0
   33.9350   29.9870   45.7350 N   0  0  0  0  0  0  0  0  0  0  0  0
   31.0860   31.0800   46.2890 H   0  0  0  0  0  0  0  0  0  0  0  0
   31.1500   28.9360   47.1900 H   0  0  0  0  0  0  0  0  0  0  0  0
   31.9270   28.2650   45.6610 H   0  0  0  0  0  0  0  0  0  0  0  0
   33.8040   28.4130   47.1630 H   0  0  0  0  0  0  0  0  0  0  0  0
   33.2730   30.0940   47.6810 H   0  0  0  0  0  0  0  0  0  0  0  0
   35.3260   29.8470   45.3250 C   0  0  0  0  0  0  0  0  0  0  0  0
   35.9000   29.2230   46.0420 H   0  0  0  0  0  0  0  0  0  0  0  0
   35.7530   30.8600   45.3000 H   0  0  0  0  0  0  0  0  0  0  0  0
   35.4230   29.2880   43.9390 C   0  0  0  0  0  3  0  0  0  0  0  0
   36.9100   29.2720   43.5650 C   0  0  0  0  0  2  0  0  0  0  0  0
   37.1330   28.9520   42.1230 C   0  0  0  0  0  2  0  0  0  0  0  0
   35.9140   28.2620   41.5690 C   0  0  0  0  0  2  0  0  0  0  0  0
   35.4370   27.2120   42.5610 C   0  0  0  0  0  2  0  0  0  0  0  0
   34.9580   27.8480   43.8430 C   0  0  0  0  0  2  0  0  0  0  0  0
   30.6930   29.9610   44.5280 O   0  0  0  0  0  0  0  0  0  0  0  0
   29.3260   30.1710   44.6980 C   0  0  0  0  0  0  0  0  0  0  0  0
   28.8970   31.4870   44.7220 C   0  0  0  0  0  0  0  0  0  0  0  0
   27.5420   31.7300   44.8910 C   0  0  0  0  0  0  0  0  0  0  0  0
   26.6980   30.6710   45.0240 N   0  0  0  0  0  0  0  0  0  0  0  0
   27.1290   29.4020   45.0000 C   0  0  0  0  0  0  0  0  0  0  0  0
   28.4300   29.1710   44.8380 N   0  0  0  0  0  0  0  0  0  0  0  0
   26.2240   27.4390   44.0190 C   0  0  0  0  0  0  0  0  0  0  0  0
   26.9070   27.5280   42.9670 O   0  0  0  0  0  0  0  0  0  0  0  0
   26.2200   28.3120   45.1470 N   0  0  0  0  0  0  0  0  0  0  0  0
   29.5130   32.3570   44.6220 H   0  0  0  0  0  0  0  0  0  0  0  0
   27.1570   32.7270   44.9150 H   0  0  0  0  0  0  0  0  0  0  0  0
   25.6270   26.5460   43.8890 H   0  0  0  0  0  0  0  0  0  0  0  0
   25.5740   28.0630   45.9270 H   0  0  0  0  0  0  0  0  0  0  0  0
  1  2  2  0  0  0  0
  2  3  1  0  0  0  0
  2  6  1  0  0  0  0
  3  7  1  1  0  0  0
  3  4  1  0  0  0  0
  4  5  1  0  0  0  0
  4  8  1  0  0  0  0
  5 10  1  0  0  0  0
  5 11  1  0  0  0  0
  6  5  1  0  0  0  0
  9  4  1  0  0  0  0
 12  6  1  0  0  0  0
 12 13  1  0  0  0  0
 14 12  1  0  0  0  0
 15 12  1  0  0  0  0
 16 15  1  0  0  0  0
 17 16  1  0  0  0  0
 18 17  1  0  0  0  0
 18 19  1  0  0  0  0
 19 20  1  0  0  0  0
 20 15  1  0  0  0  0
 21 22  1  0  0  0  0
 21  3  1  0  0  0  0
 22 23  2  0  0  0  0
 22 27  1  0  0  0  0
 23 24  1  0  0  0  0
 24 32  1  0  0  0  0
 24 25  2  0  0  0  0
 26 25  1  0  0  0  0
 26 30  1  0  0  0  0
 27 26  2  0  0  0  0
 28 30  1  0  0  0  0
 29 28  2  0  0  0  0
 30 34  1  0  0  0  0
 31 23  1  0  0  0  0
 33 28  1  0  0  0  0
M  END
>  <minimizedAffinity>
-2.87779641

>  <minimizedRMSD>
9.64150429

$$$$
