
 OpenBabel03262521573D

 36 38  0  0  1  0  0  0  0  0999 V2000
   37.6870   24.3280   30.9900 C   0  0  1  0  0  0  0  0  0  0  0  0
   37.8390   24.7920   32.4220 C   0  0  2  0  0  0  0  0  0  0  0  0
   36.7660   25.7930   32.6970 C   0  0  0  0  0  0  0  0  0  0  0  0
   35.9560   26.0390   31.6090 O   0  0  0  0  0  0  0  0  0  0  0  0
   35.3210   24.8910   31.1600 C   0  0  0  0  0  0  0  0  0  0  0  0
   36.2920   23.7820   30.8550 C   0  0  2  0  0  0  0  0  0  0  0  0
   38.4250   23.5530   30.7600 H   0  0  0  0  0  0  0  0  0  0  0  0
   37.6430   23.9000   33.0660 H   0  0  0  0  0  0  0  0  0  0  0  0
   36.1180   25.5370   33.5690 H   0  0  0  0  0  0  0  0  0  0  0  0
   37.2540   26.7650   32.9720 H   0  0  0  0  0  0  0  0  0  0  0  0
   34.5120   24.5940   31.8580 H   0  0  0  0  0  0  0  0  0  0  0  0
   34.8220   25.1620   30.2050 H   0  0  0  0  0  0  0  0  0  0  0  0
   36.0720   23.3130   29.8870 H   0  0  0  0  0  0  0  0  0  0  0  0
   37.7750   25.4170   30.1160 O   0  0  0  0  0  0  0  0  0  0  0  0
   38.5750   25.2690   29.5550 H   0  0  0  0  0  0  0  0  0  0  0  0
   39.4840   25.4540   32.7600 S   0  0  0  0  0  0  0  0  0  0  0  0
   40.5910   24.1200   33.3020 C   0  0  0  0  0  0  0  0  0  0  0  0
   41.2460   23.7890   32.4570 H   0  0  0  0  0  0  0  0  0  0  0  0
   41.2730   24.5600   34.0640 H   0  0  0  0  0  0  0  0  0  0  0  0
   39.7190   22.6850   33.9270 S   0  0  0  0  0  0  0  0  0  0  0  0
   39.2620   22.9930   35.6250 C   0  0  0  0  0  0  0  0  0  0  0  0
   40.1740   22.5600   36.5650 C   0  0  0  0  0  0  0  0  0  0  0  0
   39.8940   22.7630   37.9200 C   0  0  0  0  0  0  0  0  0  0  0  0
   38.7260   23.3830   38.2400 N   0  0  0  0  0  0  0  0  0  0  0  0
   37.8680   23.7870   37.2820 C   0  0  0  0  0  0  0  0  0  0  0  0
   38.1310   23.5970   36.0130 N   0  0  0  0  0  0  0  0  0  0  0  0
   41.0870   22.0750   36.3150 H   0  0  0  0  0  0  0  0  0  0  0  0
   40.5830   22.4380   38.6890 H   0  0  0  0  0  0  0  0  0  0  0  0
   36.9330   24.2860   37.5760 H   0  0  0  0  0  0  0  0  0  0  0  0
   36.1820   22.7730   31.8290 O   0  0  0  0  0  0  0  0  0  0  0  0
   35.6010   21.6230   31.3120 C   0  0  0  0  0  3  0  0  0  0  0  0
   36.7220   20.7010   30.8970 C   0  0  0  0  0  2  0  0  0  0  0  0
   36.2730   19.2640   30.7850 C   0  0  0  0  0  2  0  0  0  0  0  0
   35.6290   18.7320   32.0320 C   0  0  0  0  0  2  0  0  0  0  0  0
   35.5350   19.8320   33.0600 C   0  0  0  0  0  2  0  0  0  0  0  0
   34.7740   20.9920   32.4050 C   0  0  0  0  0  2  0  0  0  0  0  0
  1  7  1  6  0  0  0
  1  2  1  0  0  0  0
  2  3  1  0  0  0  0
  2 16  1  0  0  0  0
  2  8  1  1  0  0  0
  3 10  1  0  0  0  0
  3  9  1  0  0  0  0
  4  3  1  0  0  0  0
  5  4  1  0  0  0  0
  5 11  1  0  0  0  0
  6 13  1  6  0  0  0
  6  1  1  0  0  0  0
  6  5  1  0  0  0  0
  6 30  1  0  0  0  0
 12  5  1  0  0  0  0
 14  1  1  0  0  0  0
 15 14  1  0  0  0  0
 16 17  1  0  0  0  0
 17 20  1  0  0  0  0
 17 19  1  0  0  0  0
 18 17  1  0  0  0  0
 20 21  1  0  0  0  0
 21 26  2  0  0  0  0
 21 22  1  0  0  0  0
 22 23  2  0  0  0  0
 23 24  1  0  0  0  0
 23 28  1  0  0  0  0
 25 29  1  0  0  0  0
 25 24  2  0  0  0  0
 26 25  1  0  0  0  0
 27 22  1  0  0  0  0
 31 30  1  0  0  0  0
 31 36  1  0  0  0  0
 32 31  1  0  0  0  0
 33 32  1  0  0  0  0
 33 34  1  0  0  0  0
 34 35  1  0  0  0  0
 36 35  1  0  0  0  0
M  END
>  <minimizedAffinity>
-5.29434919

$$$$

 OpenBabel03262521573D

 36 38  0  0  1  0  0  0  0  0999 V2000
   35.8100   27.3110   31.6970 C   0  0  1  0  0  0  0  0  0  0  0  0
   37.0760   26.8710   32.3970 C   0  0  2  0  0  0  0  0  0  0  0  0
   38.2260   27.5670   31.7480 C   0  0  0  0  0  0  0  0  0  0  0  0
   37.8500   28.3860   30.7050 O   0  0  0  0  0  0  0  0  0  0  0  0
   36.9670   29.3760   31.1100 C   0  0  0  0  0  0  0  0  0  0  0  0
   35.7540   28.8120   31.8010 C   0  0  2  0  0  0  0  0  0  0  0  0
   34.9330   26.8630   32.1760 H   0  0  0  0  0  0  0  0  0  0  0  0
   37.0030   27.2450   33.4480 H   0  0  0  0  0  0  0  0  0  0  0  0
   38.8560   28.1590   32.4540 H   0  0  0  0  0  0  0  0  0  0  0  0
   38.9140   26.7890   31.3240 H   0  0  0  0  0  0  0  0  0  0  0  0
   37.4940   30.1520   31.7010 H   0  0  0  0  0  0  0  0  0  0  0  0
   36.6130   29.8780   30.1840 H   0  0  0  0  0  0  0  0  0  0  0  0
   34.8300   29.2670   31.4210 H   0  0  0  0  0  0  0  0  0  0  0  0
   35.8790   27.0090   30.3330 O   0  0  0  0  0  0  0  0  0  0  0  0
   35.1610   26.3550   30.1480 H   0  0  0  0  0  0  0  0  0  0  0  0
   37.2780   25.0770   32.3880 S   0  0  0  0  0  0  0  0  0  0  0  0
   38.7040   24.6070   33.4090 C   0  0  0  0  0  0  0  0  0  0  0  0
   39.6450   24.6390   32.8040 H   0  0  0  0  0  0  0  0  0  0  0  0
   38.8140   25.3950   34.1880 H   0  0  0  0  0  0  0  0  0  0  0  0
   38.5560   22.9700   34.1240 S   0  0  0  0  0  0  0  0  0  0  0  0
   38.7960   23.0970   35.8880 C   0  0  0  0  0  0  0  0  0  0  0  0
   37.8060   23.7760   36.5660 C   0  0  0  0  0  0  0  0  0  0  0  0
   37.9160   23.9210   37.9530 C   0  0  0  0  0  0  0  0  0  0  0  0
   39.0050   23.3780   38.5620 N   0  0  0  0  0  0  0  0  0  0  0  0
   39.9450   22.7220   37.8520 C   0  0  0  0  0  0  0  0  0  0  0  0
   39.8410   22.5870   36.5540 N   0  0  0  0  0  0  0  0  0  0  0  0
   36.9560   24.2010   36.0900 H   0  0  0  0  0  0  0  0  0  0  0  0
   37.1620   24.4480   38.5230 H   0  0  0  0  0  0  0  0  0  0  0  0
   40.8120   22.2960   38.3770 H   0  0  0  0  0  0  0  0  0  0  0  0
   35.8130   29.1010   33.1770 O   0  0  0  0  0  0  0  0  0  0  0  0
   34.9180   30.1020   33.5280 C   0  0  0  0  0  3  0  0  0  0  0  0
   33.9970   29.5320   34.5810 C   0  0  0  0  0  2  0  0  0  0  0  0
   33.3170   30.6060   35.3940 C   0  0  0  0  0  2  0  0  0  0  0  0
   34.2690   31.5710   36.0370 C   0  0  0  0  0  2  0  0  0  0  0  0
   35.6810   31.2410   35.6230 C   0  0  0  0  0  2  0  0  0  0  0  0
   35.7120   31.2560   34.0900 C   0  0  0  0  0  2  0  0  0  0  0  0
  1  6  1  0  0  0  0
  1  7  1  1  0  0  0
  1  2  1  0  0  0  0
  2  8  1  1  0  0  0
  3  2  1  0  0  0  0
  3  9  1  0  0  0  0
  4  5  1  0  0  0  0
  4  3  1  0  0  0  0
  5 11  1  0  0  0  0
  5  6  1  0  0  0  0
  6 13  1  6  0  0  0
  6 30  1  0  0  0  0
 10  3  1  0  0  0  0
 12  5  1  0  0  0  0
 14  1  1  0  0  0  0
 15 14  1  0  0  0  0
 16  2  1  0  0  0  0
 16 17  1  0  0  0  0
 17 20  1  0  0  0  0
 17 19  1  0  0  0  0
 18 17  1  0  0  0  0
 20 21  1  0  0  0  0
 21 26  2  0  0  0  0
 21 22  1  0  0  0  0
 22 23  2  0  0  0  0
 23 28  1  0  0  0  0
 23 24  1  0  0  0  0
 25 29  1  0  0  0  0
 25 24  2  0  0  0  0
 26 25  1  0  0  0  0
 27 22  1  0  0  0  0
 30 31  1  0  0  0  0
 31 36  1  0  0  0  0
 31 32  1  0  0  0  0
 32 33  1  0  0  0  0
 33 34  1  0  0  0  0
 35 34  1  0  0  0  0
 36 35  1  0  0  0  0
M  END
>  <minimizedAffinity>
-5.22267199

$$$$

 OpenBabel03262521573D

 36 38  0  0  1  0  0  0  0  0999 V2000
   38.3850   23.8710   32.2680 C   0  0  1  0  0  0  0  0  0  0  0  0
   36.8790   23.7820   32.3850 C   0  0  2  0  0  0  0  0  0  0  0  0
   36.5010   22.3390   32.3620 C   0  0  0  0  0  0  0  0  0  0  0  0
   37.5800   21.4920   32.2270 O   0  0  0  0  0  0  0  0  0  0  0  0
   38.4960   21.6450   33.2580 C   0  0  0  0  0  0  0  0  0  0  0  0
   38.9580   23.0700   33.4060 C   0  0  2  0  0  0  0  0  0  0  0  0
   38.7120   24.9130   32.3310 H   0  0  0  0  0  0  0  0  0  0  0  0
   36.6160   24.1860   33.3940 H   0  0  0  0  0  0  0  0  0  0  0  0
   35.9030   22.0120   33.2470 H   0  0  0  0  0  0  0  0  0  0  0  0
   35.8320   22.1640   31.4790 H   0  0  0  0  0  0  0  0  0  0  0  0
   38.1040   21.2060   34.1970 H   0  0  0  0  0  0  0  0  0  0  0  0
   39.3850   21.0400   32.9800 H   0  0  0  0  0  0  0  0  0  0  0  0
   40.0490   23.1290   33.5070 H   0  0  0  0  0  0  0  0  0  0  0  0
   38.8170   23.2530   31.0890 O   0  0  0  0  0  0  0  0  0  0  0  0
   39.2310   23.9570   30.5320 H   0  0  0  0  0  0  0  0  0  0  0  0
   36.0330   24.7240   31.0970 S   0  0  0  0  0  0  0  0  0  0  0  0
   36.7780   26.3730   30.9430 C   0  0  0  0  0  0  0  0  0  0  0  0
   37.8890   26.2910   30.8420 H   0  0  0  0  0  0  0  0  0  0  0  0
   36.4140   26.8000   29.9810 H   0  0  0  0  0  0  0  0  0  0  0  0
   36.4210   27.4450   32.3330 S   0  0  0  0  0  0  0  0  0  0  0  0
   37.7170   27.2540   33.5450 C   0  0  0  0  0  0  0  0  0  0  0  0
   37.2980   27.2750   34.8590 C   0  0  0  0  0  0  0  0  0  0  0  0
   38.2500   27.1310   35.8730 C   0  0  0  0  0  0  0  0  0  0  0  0
   39.5510   26.9760   35.5040 N   0  0  0  0  0  0  0  0  0  0  0  0
   39.9080   26.9620   34.2040 C   0  0  0  0  0  0  0  0  0  0  0  0
   39.0150   27.0970   33.2540 N   0  0  0  0  0  0  0  0  0  0  0  0
   36.2820   27.3970   35.1480 H   0  0  0  0  0  0  0  0  0  0  0  0
   37.9640   27.1430   36.9170 H   0  0  0  0  0  0  0  0  0  0  0  0
   40.9680   26.8340   33.9410 H   0  0  0  0  0  0  0  0  0  0  0  0
   38.4110   23.6280   34.5770 O   0  0  0  0  0  0  0  0  0  0  0  0
   38.6360   22.8200   35.6820 C   0  0  0  0  0  3  0  0  0  0  0  0
   39.9500   23.2470   36.2910 C   0  0  0  0  0  2  0  0  0  0  0  0
   40.0840   22.8170   37.7320 C   0  0  0  0  0  2  0  0  0  0  0  0
   38.9570   23.2810   38.6080 C   0  0  0  0  0  2  0  0  0  0  0  0
   37.9320   24.0050   37.7720 C   0  0  0  0  0  2  0  0  0  0  0  0
   37.5050   23.0430   36.6560 C   0  0  0  0  0  2  0  0  0  0  0  0
  1  7  1  1  0  0  0
  1  2  1  0  0  0  0
  1  6  1  0  0  0  0
  2  8  1  1  0  0  0
  3  2  1  0  0  0  0
  3  9  1  0  0  0  0
  4  3  1  0  0  0  0
  4  5  1  0  0  0  0
  5  6  1  0  0  0  0
  5 11  1  0  0  0  0
  6 13  1  1  0  0  0
  6 30  1  0  0  0  0
 10  3  1  0  0  0  0
 12  5  1  0  0  0  0
 14  1  1  0  0  0  0
 15 14  1  0  0  0  0
 16  2  1  0  0  0  0
 17 16  1  0  0  0  0
 17 20  1  0  0  0  0
 18 17  1  0  0  0  0
 19 17  1  0  0  0  0
 20 21  1  0  0  0  0
 21 22  1  0  0  0  0
 22 27  1  0  0  0  0
 22 23  2  0  0  0  0
 23 28  1  0  0  0  0
 24 23  1  0  0  0  0
 25 24  2  0  0  0  0
 26 21  2  0  0  0  0
 26 25  1  0  0  0  0
 29 25  1  0  0  0  0
 30 31  1  0  0  0  0
 31 32  1  0  0  0  0
 31 36  1  0  0  0  0
 32 33  1  0  0  0  0
 33 34  1  0  0  0  0
 35 34  1  0  0  0  0
 36 35  1  0  0  0  0
M  END
>  <minimizedAffinity>
-5.02844286

$$$$

 OpenBabel03262521573D

 36 38  0  0  1  0  0  0  0  0999 V2000
   37.8990   23.9110   36.0960 C   0  0  1  0  0  0  0  0  0  0  0  0
   38.6480   24.9640   35.3110 C   0  0  2  0  0  0  0  0  0  0  0  0
   40.0850   24.5620   35.2580 C   0  0  0  0  0  0  0  0  0  0  0  0
   40.3490   23.3870   35.9290 O   0  0  0  0  0  0  0  0  0  0  0  0
   39.6200   22.3210   35.4220 C   0  0  0  0  0  0  0  0  0  0  0  0
   38.1410   22.5980   35.4030 C   0  0  2  0  0  0  0  0  0  0  0  0
   36.8290   24.1400   36.1170 H   0  0  0  0  0  0  0  0  0  0  0  0
   38.2480   24.9280   34.2680 H   0  0  0  0  0  0  0  0  0  0  0  0
   40.4960   24.4790   34.2240 H   0  0  0  0  0  0  0  0  0  0  0  0
   40.6930   25.3660   35.7490 H   0  0  0  0  0  0  0  0  0  0  0  0
   40.0260   22.0030   34.4400 H   0  0  0  0  0  0  0  0  0  0  0  0
   39.7860   21.4700   36.1170 H   0  0  0  0  0  0  0  0  0  0  0  0
   37.5710   21.7510   35.8070 H   0  0  0  0  0  0  0  0  0  0  0  0
   38.4370   23.7890   37.3810 O   0  0  0  0  0  0  0  0  0  0  0  0
   37.7270   24.0540   38.0150 H   0  0  0  0  0  0  0  0  0  0  0  0
   38.4340   26.6190   36.0020 S   0  0  0  0  0  0  0  0  0  0  0  0
   37.3950   27.6220   34.9010 C   0  0  0  0  0  0  0  0  0  0  0  0
   36.4280   27.8780   35.4040 H   0  0  0  0  0  0  0  0  0  0  0  0
   37.9270   28.5880   34.7510 H   0  0  0  0  0  0  0  0  0  0  0  0
   37.0180   26.8110   33.3480 S   0  0  0  0  0  0  0  0  0  0  0  0
   36.7860   28.0620   32.0960 C   0  0  0  0  0  0  0  0  0  0  0  0
   37.3580   27.7800   30.8730 C   0  0  0  0  0  0  0  0  0  0  0  0
   37.2240   28.7070   29.8360 C   0  0  0  0  0  0  0  0  0  0  0  0
   36.5280   29.8480   30.0920 N   0  0  0  0  0  0  0  0  0  0  0  0
   35.9870   30.0750   31.3060 C   0  0  0  0  0  0  0  0  0  0  0  0
   36.1140   29.2060   32.2770 N   0  0  0  0  0  0  0  0  0  0  0  0
   37.9030   26.8890   30.6730 H   0  0  0  0  0  0  0  0  0  0  0  0
   37.6580   28.5260   28.8610 H   0  0  0  0  0  0  0  0  0  0  0  0
   35.4300   31.0080   31.4780 H   0  0  0  0  0  0  0  0  0  0  0  0
   37.7080   22.7810   34.0760 O   0  0  0  0  0  0  0  0  0  0  0  0
   37.3840   21.5750   33.4720 C   0  0  0  0  0  3  0  0  0  0  0  0
   36.2230   20.9860   34.2380 C   0  0  0  0  0  2  0  0  0  0  0  0
   35.4620   19.9620   33.4320 C   0  0  0  0  0  2  0  0  0  0  0  0
   34.9750   20.4740   32.1080 C   0  0  0  0  0  2  0  0  0  0  0  0
   35.4570   21.8880   31.9060 C   0  0  0  0  0  2  0  0  0  0  0  0
   36.9840   21.8650   32.0460 C   0  0  0  0  0  2  0  0  0  0  0  0
  1  7  1  1  0  0  0
  1 14  1  0  0  0  0
  2  8  1  6  0  0  0
  2 16  1  0  0  0  0
  2  1  1  0  0  0  0
  3  2  1  0  0  0  0
  3 10  1  0  0  0  0
  3  4  1  0  0  0  0
  5  4  1  0  0  0  0
  5 12  1  0  0  0  0
  6  5  1  0  0  0  0
  6 13  1  1  0  0  0
  6  1  1  0  0  0  0
  9  3  1  0  0  0  0
 11  5  1  0  0  0  0
 14 15  1  0  0  0  0
 17 18  1  0  0  0  0
 17 16  1  0  0  0  0
 19 17  1  0  0  0  0
 20 17  1  0  0  0  0
 21 26  1  0  0  0  0
 21 20  1  0  0  0  0
 22 21  2  0  0  0  0
 23 24  2  0  0  0  0
 23 22  1  0  0  0  0
 24 25  1  0  0  0  0
 25 29  1  0  0  0  0
 25 26  2  0  0  0  0
 27 22  1  0  0  0  0
 28 23  1  0  0  0  0
 30  6  1  0  0  0  0
 31 30  1  0  0  0  0
 31 32  1  0  0  0  0
 33 32  1  0  0  0  0
 34 33  1  0  0  0  0
 35 36  1  0  0  0  0
 35 34  1  0  0  0  0
 36 31  1  0  0  0  0
M  END
>  <minimizedAffinity>
-4.97869349

$$$$

 OpenBabel03262521573D

 36 38  0  0  1  0  0  0  0  0999 V2000
   38.1130   24.3230   35.6520 C   0  0  1  0  0  0  0  0  0  0  0  0
   39.2060   25.0340   34.8860 C   0  0  2  0  0  0  0  0  0  0  0  0
   40.4980   24.3530   35.1900 C   0  0  0  0  0  0  0  0  0  0  0  0
   40.3680   23.3020   36.0730 O   0  0  0  0  0  0  0  0  0  0  0  0
   39.5080   22.3240   35.5970 C   0  0  0  0  0  0  0  0  0  0  0  0
   38.1560   22.8790   35.2330 C   0  0  2  0  0  0  0  0  0  0  0  0
   37.1370   24.7590   35.4180 H   0  0  0  0  0  0  0  0  0  0  0  0
   38.9860   24.8760   33.8010 H   0  0  0  0  0  0  0  0  0  0  0  0
   41.0450   23.9910   34.2870 H   0  0  0  0  0  0  0  0  0  0  0  0
   41.1860   25.1010   35.6670 H   0  0  0  0  0  0  0  0  0  0  0  0
   39.9860   21.7480   34.7790 H   0  0  0  0  0  0  0  0  0  0  0  0
   39.3540   21.6080   36.4330 H   0  0  0  0  0  0  0  0  0  0  0  0
   37.3470   22.2560   35.6370 H   0  0  0  0  0  0  0  0  0  0  0  0
   38.3870   24.3490   37.0240 O   0  0  0  0  0  0  0  0  0  0  0  0
   37.6620   24.8670   37.4510 H   0  0  0  0  0  0  0  0  0  0  0  0
   39.2680   26.8000   35.2570 S   0  0  0  0  0  0  0  0  0  0  0  0
   37.6010   27.5150   35.1570 C   0  0  0  0  0  0  0  0  0  0  0  0
   36.9100   26.9950   35.8680 H   0  0  0  0  0  0  0  0  0  0  0  0
   37.6800   28.5640   35.5210 H   0  0  0  0  0  0  0  0  0  0  0  0
   36.8860   27.4220   33.5170 S   0  0  0  0  0  0  0  0  0  0  0  0
   35.8540   28.8560   33.2650 C   0  0  0  0  0  0  0  0  0  0  0  0
   35.6580   29.6400   34.3830 C   0  0  0  0  0  0  0  0  0  0  0  0
   34.8610   30.7840   34.2730 C   0  0  0  0  0  0  0  0  0  0  0  0
   34.3180   31.0640   33.0570 N   0  0  0  0  0  0  0  0  0  0  0  0
   34.5410   30.2640   31.9950 C   0  0  0  0  0  0  0  0  0  0  0  0
   35.2870   29.1930   32.0980 N   0  0  0  0  0  0  0  0  0  0  0  0
   36.0820   29.4220   35.3330 H   0  0  0  0  0  0  0  0  0  0  0  0
   34.6810   31.4260   35.1260 H   0  0  0  0  0  0  0  0  0  0  0  0
   34.0870   30.5210   31.0270 H   0  0  0  0  0  0  0  0  0  0  0  0
   38.0050   22.8830   33.8340 O   0  0  0  0  0  0  0  0  0  0  0  0
   37.5290   21.6660   33.3660 C   0  0  0  0  0  3  0  0  0  0  0  0
   36.3910   21.2530   34.2690 C   0  0  0  0  0  2  0  0  0  0  0  0
   35.4790   20.2410   33.6190 C   0  0  0  0  0  2  0  0  0  0  0  0
   34.9270   20.6850   32.2960 C   0  0  0  0  0  2  0  0  0  0  0  0
   35.5100   22.0280   31.9320 C   0  0  0  0  0  2  0  0  0  0  0  0
   37.0360   21.8740   31.9560 C   0  0  0  0  0  2  0  0  0  0  0  0
  1  7  1  6  0  0  0
  1 14  1  0  0  0  0
  2  8  1  6  0  0  0
  2  3  1  0  0  0  0
  2 16  1  0  0  0  0
  2  1  1  0  0  0  0
  3 10  1  0  0  0  0
  3  4  1  0  0  0  0
  5  4  1  0  0  0  0
  5 12  1  0  0  0  0
  6  5  1  0  0  0  0
  6 13  1  1  0  0  0
  6  1  1  0  0  0  0
  9  3  1  0  0  0  0
 11  5  1  0  0  0  0
 14 15  1  0  0  0  0
 17 16  1  0  0  0  0
 17 19  1  0  0  0  0
 17 18  1  0  0  0  0
 20 17  1  0  0  0  0
 21 20  1  0  0  0  0
 21 22  1  0  0  0  0
 22 27  1  0  0  0  0
 23 22  2  0  0  0  0
 23 28  1  0  0  0  0
 24 23  1  0  0  0  0
 25 26  1  0  0  0  0
 25 24  2  0  0  0  0
 26 21  2  0  0  0  0
 29 25  1  0  0  0  0
 30  6  1  0  0  0  0
 31 30  1  0  0  0  0
 31 32  1  0  0  0  0
 33 32  1  0  0  0  0
 34 33  1  0  0  0  0
 35 36  1  0  0  0  0
 35 34  1  0  0  0  0
 36 31  1  0  0  0  0
M  END
>  <minimizedAffinity>
-4.95696545

$$$$

 OpenBabel03262521573D

 36 38  0  0  1  0  0  0  0  0999 V2000
   37.2860   28.1390   30.9300 C   0  0  1  0  0  0  0  0  0  0  0  0
   36.3920   28.8900   31.8910 C   0  0  2  0  0  0  0  0  0  0  0  0
   35.1610   28.0730   32.1070 C   0  0  0  0  0  0  0  0  0  0  0  0
   35.1520   26.8980   31.3880 O   0  0  0  0  0  0  0  0  0  0  0  0
   36.2290   26.0830   31.7040 C   0  0  0  0  0  0  0  0  0  0  0  0
   37.5480   26.7900   31.5430 C   0  0  2  0  0  0  0  0  0  0  0  0
   38.2260   28.6800   30.7810 H   0  0  0  0  0  0  0  0  0  0  0  0
   36.9420   28.9390   32.8630 H   0  0  0  0  0  0  0  0  0  0  0  0
   34.9570   27.8340   33.1780 H   0  0  0  0  0  0  0  0  0  0  0  0
   34.2770   28.6740   31.7690 H   0  0  0  0  0  0  0  0  0  0  0  0
   36.0900   25.6240   32.7040 H   0  0  0  0  0  0  0  0  0  0  0  0
   36.2140   25.2460   30.9730 H   0  0  0  0  0  0  0  0  0  0  0  0
   38.2710   26.1680   30.9990 H   0  0  0  0  0  0  0  0  0  0  0  0
   36.6160   27.9060   29.7250 O   0  0  0  0  0  0  0  0  0  0  0  0
   37.1110   28.3940   29.0220 H   0  0  0  0  0  0  0  0  0  0  0  0
   36.0050   30.5560   31.3100 S   0  0  0  0  0  0  0  0  0  0  0  0
   34.8510   31.3610   32.4590 C   0  0  0  0  0  0  0  0  0  0  0  0
   34.6170   32.4000   32.1120 H   0  0  0  0  0  0  0  0  0  0  0  0
   33.8940   30.7960   32.4000 H   0  0  0  0  0  0  0  0  0  0  0  0
   35.4740   31.4600   34.1360 S   0  0  0  0  0  0  0  0  0  0  0  0
   34.1620   31.0020   35.2560 C   0  0  0  0  0  0  0  0  0  0  0  0
   33.4030   29.9210   34.8590 C   0  0  0  0  0  0  0  0  0  0  0  0
   32.3540   29.4950   35.6790 C   0  0  0  0  0  0  0  0  0  0  0  0
   32.1380   30.1770   36.8370 N   0  0  0  0  0  0  0  0  0  0  0  0
   32.9100   31.2270   37.1800 C   0  0  0  0  0  0  0  0  0  0  0  0
   33.8920   31.6260   36.4110 N   0  0  0  0  0  0  0  0  0  0  0  0
   33.5710   29.3880   33.9540 H   0  0  0  0  0  0  0  0  0  0  0  0
   31.7330   28.6520   35.4040 H   0  0  0  0  0  0  0  0  0  0  0  0
   32.7070   31.7560   38.1230 H   0  0  0  0  0  0  0  0  0  0  0  0
   38.1070   27.0480   32.8080 O   0  0  0  0  0  0  0  0  0  0  0  0
   37.6590   26.1430   33.7600 C   0  0  0  0  0  3  0  0  0  0  0  0
   38.8230   25.2450   34.1080 C   0  0  0  0  0  2  0  0  0  0  0  0
   38.6430   24.5590   35.4410 C   0  0  0  0  0  2  0  0  0  0  0  0
   38.3880   25.5050   36.5780 C   0  0  0  0  0  2  0  0  0  0  0  0
   38.3040   26.9160   36.0520 C   0  0  0  0  0  2  0  0  0  0  0  0
   37.2160   26.9260   34.9710 C   0  0  0  0  0  2  0  0  0  0  0  0
  1  7  1  6  0  0  0
  1  6  1  0  0  0  0
  1  2  1  0  0  0  0
  2  3  1  0  0  0  0
  2  8  1  1  0  0  0
  3  9  1  0  0  0  0
  4  5  1  0  0  0  0
  4  3  1  0  0  0  0
  5 11  1  0  0  0  0
  6 13  1  6  0  0  0
  6  5  1  0  0  0  0
  6 30  1  0  0  0  0
 10  3  1  0  0  0  0
 12  5  1  0  0  0  0
 14  1  1  0  0  0  0
 15 14  1  0  0  0  0
 16  2  1  0  0  0  0
 16 17  1  0  0  0  0
 17 20  1  0  0  0  0
 18 17  1  0  0  0  0
 19 17  1  0  0  0  0
 20 21  1  0  0  0  0
 21 26  1  0  0  0  0
 22 21  2  0  0  0  0
 22 23  1  0  0  0  0
 23 24  2  0  0  0  0
 24 25  1  0  0  0  0
 25 29  1  0  0  0  0
 26 25  2  0  0  0  0
 27 22  1  0  0  0  0
 28 23  1  0  0  0  0
 30 31  1  0  0  0  0
 31 32  1  0  0  0  0
 31 36  1  0  0  0  0
 32 33  1  0  0  0  0
 33 34  1  0  0  0  0
 35 34  1  0  0  0  0
 36 35  1  0  0  0  0
M  END
>  <minimizedAffinity>
-4.83411074

$$$$

 OpenBabel03262521573D

 36 38  0  0  1  0  0  0  0  0999 V2000
   38.1000   23.1460   36.2610 C   0  0  1  0  0  0  0  0  0  0  0  0
   38.4480   24.4630   35.6030 C   0  0  2  0  0  0  0  0  0  0  0  0
   39.8670   24.3890   35.1480 C   0  0  0  0  0  0  0  0  0  0  0  0
   40.4770   23.1900   35.4510 O   0  0  0  0  0  0  0  0  0  0  0  0
   39.8210   22.1110   34.8770 C   0  0  0  0  0  0  0  0  0  0  0  0
   38.3610   22.0690   35.2430 C   0  0  2  0  0  0  0  0  0  0  0  0
   37.0490   23.1370   36.5660 H   0  0  0  0  0  0  0  0  0  0  0  0
   37.8040   24.5410   34.6920 H   0  0  0  0  0  0  0  0  0  0  0  0
   40.0070   24.5920   34.0590 H   0  0  0  0  0  0  0  0  0  0  0  0
   40.4470   25.1950   35.6710 H   0  0  0  0  0  0  0  0  0  0  0  0
   40.0060   22.0780   33.7850 H   0  0  0  0  0  0  0  0  0  0  0  0
   40.2910   21.1980   35.3000 H   0  0  0  0  0  0  0  0  0  0  0  0
   38.0550   21.0600   35.5510 H   0  0  0  0  0  0  0  0  0  0  0  0
   38.9630   22.8980   37.3340 O   0  0  0  0  0  0  0  0  0  0  0  0
   38.4070   22.8830   38.1510 H   0  0  0  0  0  0  0  0  0  0  0  0
   38.1590   25.8730   36.6930 S   0  0  0  0  0  0  0  0  0  0  0  0
   38.2580   27.4200   35.7460 C   0  0  0  0  0  0  0  0  0  0  0  0
   38.2090   28.3020   36.4340 H   0  0  0  0  0  0  0  0  0  0  0  0
   39.2700   27.4480   35.2830 H   0  0  0  0  0  0  0  0  0  0  0  0
   36.9540   27.5900   34.5280 S   0  0  0  0  0  0  0  0  0  0  0  0
   37.5430   26.9440   32.9720 C   0  0  0  0  0  0  0  0  0  0  0  0
   36.8520   25.8520   32.4920 C   0  0  0  0  0  0  0  0  0  0  0  0
   37.2480   25.2830   31.2780 C   0  0  0  0  0  0  0  0  0  0  0  0
   38.3040   25.8450   30.6300 N   0  0  0  0  0  0  0  0  0  0  0  0
   38.9460   26.9140   31.1420 C   0  0  0  0  0  0  0  0  0  0  0  0
   38.5740   27.4460   32.2790 N   0  0  0  0  0  0  0  0  0  0  0  0
   36.0270   25.4120   32.9990 H   0  0  0  0  0  0  0  0  0  0  0  0
   36.7330   24.4240   30.8660 H   0  0  0  0  0  0  0  0  0  0  0  0
   39.7960   27.3430   30.5910 H   0  0  0  0  0  0  0  0  0  0  0  0
   37.5800   22.4060   34.1230 O   0  0  0  0  0  0  0  0  0  0  0  0
   37.2240   21.2820   33.3900 C   0  0  0  0  0  3  0  0  0  0  0  0
   35.9760   20.7120   34.0200 C   0  0  0  0  0  2  0  0  0  0  0  0
   35.2110   19.8170   33.0760 C   0  0  0  0  0  2  0  0  0  0  0  0
   34.8540   20.4750   31.7750 C   0  0  0  0  0  2  0  0  0  0  0  0
   35.4380   21.8650   31.7350 C   0  0  0  0  0  2  0  0  0  0  0  0
   36.9470   21.7230   31.9740 C   0  0  0  0  0  2  0  0  0  0  0  0
  1  7  1  1  0  0  0
  1 14  1  0  0  0  0
  2  8  1  6  0  0  0
  2  1  1  0  0  0  0
  2 16  1  0  0  0  0
  3  4  1  0  0  0  0
  3  2  1  0  0  0  0
  3 10  1  0  0  0  0
  5  6  1  0  0  0  0
  5 12  1  0  0  0  0
  5  4  1  0  0  0  0
  6 13  1  1  0  0  0
  6  1  1  0  0  0  0
  9  3  1  0  0  0  0
 11  5  1  0  0  0  0
 14 15  1  0  0  0  0
 17 18  1  0  0  0  0
 17 16  1  0  0  0  0
 19 17  1  0  0  0  0
 20 17  1  0  0  0  0
 21 20  1  0  0  0  0
 22 21  1  0  0  0  0
 22 27  1  0  0  0  0
 23 22  2  0  0  0  0
 24 25  2  0  0  0  0
 24 23  1  0  0  0  0
 25 26  1  0  0  0  0
 26 21  2  0  0  0  0
 28 23  1  0  0  0  0
 29 25  1  0  0  0  0
 30  6  1  0  0  0  0
 31 32  1  0  0  0  0
 31 30  1  0  0  0  0
 33 32  1  0  0  0  0
 34 33  1  0  0  0  0
 35 34  1  0  0  0  0
 35 36  1  0  0  0  0
 36 31  1  0  0  0  0
M  END
>  <minimizedAffinity>
-4.82343388

$$$$

 OpenBabel03262521573D

 36 38  0  0  1  0  0  0  0  0999 V2000
   37.3770   28.0540   30.7750 C   0  0  1  0  0  0  0  0  0  0  0  0
   36.5860   28.9670   31.6850 C   0  0  2  0  0  0  0  0  0  0  0  0
   35.2840   28.3020   31.9860 C   0  0  0  0  0  0  0  0  0  0  0  0
   35.1390   27.0800   31.3640 O   0  0  0  0  0  0  0  0  0  0  0  0
   36.1340   26.1860   31.7300 C   0  0  0  0  0  0  0  0  0  0  0  0
   37.5140   26.7380   31.4920 C   0  0  2  0  0  0  0  0  0  0  0  0
   38.3630   28.4810   30.5690 H   0  0  0  0  0  0  0  0  0  0  0  0
   37.1600   29.0370   32.6420 H   0  0  0  0  0  0  0  0  0  0  0  0
   35.0820   28.1710   33.0750 H   0  0  0  0  0  0  0  0  0  0  0  0
   34.4570   28.9620   31.6130 H   0  0  0  0  0  0  0  0  0  0  0  0
   35.9730   25.8250   32.7660 H   0  0  0  0  0  0  0  0  0  0  0  0
   36.0180   25.3000   31.0700 H   0  0  0  0  0  0  0  0  0  0  0  0
   38.1580   26.0040   30.9900 H   0  0  0  0  0  0  0  0  0  0  0  0
   36.6590   27.7960   29.6030 O   0  0  0  0  0  0  0  0  0  0  0  0
   37.1840   28.1730   28.8560 H   0  0  0  0  0  0  0  0  0  0  0  0
   36.3570   30.6120   30.9760 S   0  0  0  0  0  0  0  0  0  0  0  0
   34.6910   31.2270   31.3580 C   0  0  0  0  0  0  0  0  0  0  0  0
   34.1130   31.4000   30.4150 H   0  0  0  0  0  0  0  0  0  0  0  0
   34.1620   30.4070   31.8950 H   0  0  0  0  0  0  0  0  0  0  0  0
   34.6960   32.7530   32.2980 S   0  0  0  0  0  0  0  0  0  0  0  0
   34.6680   32.3500   34.0360 C   0  0  0  0  0  0  0  0  0  0  0  0
   35.8950   32.0440   34.5860 C   0  0  0  0  0  0  0  0  0  0  0  0
   35.9630   31.7160   35.9440 C   0  0  0  0  0  0  0  0  0  0  0  0
   34.8030   31.7170   36.6550 N   0  0  0  0  0  0  0  0  0  0  0  0
   33.6290   32.0250   36.0690 C   0  0  0  0  0  0  0  0  0  0  0  0
   33.5660   32.3310   34.7970 N   0  0  0  0  0  0  0  0  0  0  0  0
   36.8020   32.0420   34.0310 H   0  0  0  0  0  0  0  0  0  0  0  0
   36.9060   31.4690   36.4150 H   0  0  0  0  0  0  0  0  0  0  0  0
   32.7100   32.0160   36.6740 H   0  0  0  0  0  0  0  0  0  0  0  0
   38.1260   27.0370   32.7240 O   0  0  0  0  0  0  0  0  0  0  0  0
   37.6390   26.2340   33.7460 C   0  0  0  0  0  3  0  0  0  0  0  0
   38.7340   25.2600   34.1110 C   0  0  0  0  0  2  0  0  0  0  0  0
   38.5470   24.6750   35.4900 C   0  0  0  0  0  2  0  0  0  0  0  0
   38.4180   25.7060   36.5720 C   0  0  0  0  0  2  0  0  0  0  0  0
   38.4350   27.0840   35.9610 C   0  0  0  0  0  2  0  0  0  0  0  0
   37.3120   27.1250   34.9180 C   0  0  0  0  0  2  0  0  0  0  0  0
  1  7  1  6  0  0  0
  1  6  1  0  0  0  0
  1  2  1  0  0  0  0
  2  3  1  0  0  0  0
  2  8  1  1  0  0  0
  3  9  1  0  0  0  0
  4  5  1  0  0  0  0
  4  3  1  0  0  0  0
  5 11  1  0  0  0  0
  6 13  1  6  0  0  0
  6  5  1  0  0  0  0
  6 30  1  0  0  0  0
 10  3  1  0  0  0  0
 12  5  1  0  0  0  0
 14  1  1  0  0  0  0
 15 14  1  0  0  0  0
 16 17  1  0  0  0  0
 16  2  1  0  0  0  0
 17 19  1  0  0  0  0
 17 20  1  0  0  0  0
 18 17  1  0  0  0  0
 20 21  1  0  0  0  0
 21 22  2  0  0  0  0
 21 26  1  0  0  0  0
 22 23  1  0  0  0  0
 23 28  1  0  0  0  0
 23 24  2  0  0  0  0
 25 24  1  0  0  0  0
 25 29  1  0  0  0  0
 26 25  2  0  0  0  0
 27 22  1  0  0  0  0
 30 31  1  0  0  0  0
 31 32  1  0  0  0  0
 31 36  1  0  0  0  0
 32 33  1  0  0  0  0
 33 34  1  0  0  0  0
 35 34  1  0  0  0  0
 36 35  1  0  0  0  0
M  END
>  <minimizedAffinity>
-4.76110458

$$$$

 OpenBabel03262521573D

 36 38  0  0  1  0  0  0  0  0999 V2000
   37.8730   25.1840   31.4940 C   0  0  1  0  0  0  0  0  0  0  0  0
   36.5140   25.6910   31.9210 C   0  0  2  0  0  0  0  0  0  0  0  0
   35.4920   24.6970   31.4790 C   0  0  0  0  0  0  0  0  0  0  0  0
   36.0310   23.6220   30.8050 O   0  0  0  0  0  0  0  0  0  0  0  0
   36.9500   22.9280   31.5780 C   0  0  0  0  0  0  0  0  0  0  0  0
   38.0410   23.8200   32.1080 C   0  0  2  0  0  0  0  0  0  0  0  0
   38.6600   25.8600   31.8440 H   0  0  0  0  0  0  0  0  0  0  0  0
   36.5150   25.7010   33.0390 H   0  0  0  0  0  0  0  0  0  0  0  0
   34.8480   24.3100   32.3040 H   0  0  0  0  0  0  0  0  0  0  0  0
   34.7860   25.2080   30.7730 H   0  0  0  0  0  0  0  0  0  0  0  0
   36.4340   22.3420   32.3650 H   0  0  0  0  0  0  0  0  0  0  0  0
   37.4310   22.1880   30.9040 H   0  0  0  0  0  0  0  0  0  0  0  0
   39.0310   23.3690   31.9650 H   0  0  0  0  0  0  0  0  0  0  0  0
   37.9100   25.0040   30.1080 O   0  0  0  0  0  0  0  0  0  0  0  0
   38.5860   25.6320   29.7550 H   0  0  0  0  0  0  0  0  0  0  0  0
   36.1670   27.3460   31.2860 S   0  0  0  0  0  0  0  0  0  0  0  0
   35.4080   28.3640   32.5850 C   0  0  0  0  0  0  0  0  0  0  0  0
   34.3840   27.9840   32.8290 H   0  0  0  0  0  0  0  0  0  0  0  0
   36.0170   28.2150   33.5050 H   0  0  0  0  0  0  0  0  0  0  0  0
   35.2710   30.0940   32.1400 S   0  0  0  0  0  0  0  0  0  0  0  0
   35.6630   31.0820   33.5730 C   0  0  0  0  0  0  0  0  0  0  0  0
   36.0140   32.3890   33.3060 C   0  0  0  0  0  0  0  0  0  0  0  0
   36.3360   33.2320   34.3740 C   0  0  0  0  0  0  0  0  0  0  0  0
   36.2860   32.7130   35.6300 N   0  0  0  0  0  0  0  0  0  0  0  0
   35.9360   31.4270   35.8370 C   0  0  0  0  0  0  0  0  0  0  0  0
   35.6340   30.6370   34.8370 N   0  0  0  0  0  0  0  0  0  0  0  0
   36.0540   32.7960   32.3250 H   0  0  0  0  0  0  0  0  0  0  0  0
   36.6170   34.2650   34.2080 H   0  0  0  0  0  0  0  0  0  0  0  0
   35.9050   31.0390   36.8660 H   0  0  0  0  0  0  0  0  0  0  0  0
   37.8740   24.0030   33.4940 O   0  0  0  0  0  0  0  0  0  0  0  0
   38.7260   23.1870   34.2240 C   0  0  0  0  0  3  0  0  0  0  0  0
   39.7440   24.0810   34.8900 C   0  0  0  0  0  2  0  0  0  0  0  0
   40.4070   23.4180   36.0730 C   0  0  0  0  0  2  0  0  0  0  0  0
   39.4400   22.9130   37.1030 C   0  0  0  0  0  2  0  0  0  0  0  0
   38.0280   23.1450   36.6270 C   0  0  0  0  0  2  0  0  0  0  0  0
   37.9000   22.4640   35.2590 C   0  0  0  0  0  2  0  0  0  0  0  0
  1  7  1  1  0  0  0
  1  2  1  0  0  0  0
  1  6  1  0  0  0  0
  2  8  1  1  0  0  0
  3  2  1  0  0  0  0
  3  9  1  0  0  0  0
  4  3  1  0  0  0  0
  4  5  1  0  0  0  0
  5  6  1  0  0  0  0
  5 11  1  0  0  0  0
  6 13  1  6  0  0  0
  6 30  1  0  0  0  0
 10  3  1  0  0  0  0
 12  5  1  0  0  0  0
 14  1  1  0  0  0  0
 15 14  1  0  0  0  0
 16  2  1  0  0  0  0
 16 17  1  0  0  0  0
 17 18  1  0  0  0  0
 17 19  1  0  0  0  0
 20 17  1  0  0  0  0
 20 21  1  0  0  0  0
 21 26  1  0  0  0  0
 22 21  2  0  0  0  0
 22 23  1  0  0  0  0
 23 24  2  0  0  0  0
 24 25  1  0  0  0  0
 25 29  1  0  0  0  0
 26 25  2  0  0  0  0
 27 22  1  0  0  0  0
 28 23  1  0  0  0  0
 30 31  1  0  0  0  0
 31 32  1  0  0  0  0
 31 36  1  0  0  0  0
 32 33  1  0  0  0  0
 33 34  1  0  0  0  0
 35 34  1  0  0  0  0
 36 35  1  0  0  0  0
M  END
>  <minimizedAffinity>
-4.7259264

$$$$
