
     RDKit          3D

 37 39  0  0  0  0  0  0  0  0999 V2000
   37.2794   29.4573   51.1284 Br  0  0  0  0  0  0  0  0  0  0  0  0
   35.9963   29.3205   49.7178 C   0  0  0  0  0  0  0  0  0  0  0  0
   36.0202   30.1981   48.6480 C   0  0  0  0  0  0  0  0  0  0  0  0
   35.0645   30.0391   47.6693 C   0  0  0  0  0  0  0  0  0  0  0  0
   34.0931   29.0600   47.6986 C   0  0  0  0  0  0  0  0  0  0  0  0
   34.1046   28.1962   48.7947 C   0  0  0  0  0  0  0  0  0  0  0  0
   35.0595   28.3384   49.7935 C   0  0  0  0  0  0  0  0  0  0  0  0
   37.8755   33.2324   49.4559 C   0  0  0  0  0  0  0  0  0  0  0  0
   38.9096   33.2720   48.4834 C   0  0  0  0  0  0  0  0  0  0  0  0
   38.9326   32.2365   47.5677 C   0  0  0  0  0  0  0  0  0  0  0  0
   37.9928   31.2593   47.6397 N   0  0  0  0  0  0  0  0  0  0  0  0
   37.0264   31.2481   48.5709 C   0  0  0  0  0  0  0  0  0  0  0  0
   36.9571   32.2483   49.5010 N   0  0  0  0  0  0  0  0  0  0  0  0
   39.7736   34.3180   48.5451 O   0  0  0  0  0  0  0  0  0  0  0  0
   35.0547   30.7096   46.8172 H   0  0  0  0  0  0  0  0  0  0  0  0
   33.3608   28.9695   46.9096 H   0  0  0  0  0  0  0  0  0  0  0  0
   33.3502   27.4189   48.8387 H   0  0  0  0  0  0  0  0  0  0  0  0
   34.9903   27.6225   50.6050 H   0  0  0  0  0  0  0  0  0  0  0  0
   37.8002   34.0176   50.2070 H   0  0  0  0  0  0  0  0  0  0  0  0
   39.7117   32.2471   46.8182 H   0  0  0  0  0  0  0  0  0  0  0  0
   40.8628   34.6468   47.7646 C   0  0  0  0  0  0  0  0  0  0  0  0
   41.1996   33.5460   46.7462 C   0  0  0  0  0  0  0  0  0  0  0  0
   40.0653   33.3715   45.7618 C   0  0  0  0  0  0  0  0  0  0  0  0
   39.6222   34.7197   45.2854 C   0  0  0  0  0  0  0  0  0  0  0  0
   40.6300   35.7945   45.6137 C   0  0  0  0  0  0  0  0  0  0  0  0
   40.7840   35.9870   47.1083 C   0  0  0  0  0  0  0  0  0  0  0  0
   41.7379   34.6682   48.4471 H   0  0  0  0  0  0  0  0  0  0  0  0
   42.0916   33.8313   46.1515 H   0  0  0  0  0  0  0  0  0  0  0  0
   41.4723   32.6084   47.2718 H   0  0  0  0  0  0  0  0  0  0  0  0
   40.4778   32.8020   44.9029 H   0  0  0  0  0  0  0  0  0  0  0  0
   39.2384   32.7620   46.1753 H   0  0  0  0  0  0  0  0  0  0  0  0
   38.6221   34.9595   45.7370 H   0  0  0  0  0  0  0  0  0  0  0  0
   39.4554   34.6843   44.2027 H   0  0  0  0  0  0  0  0  0  0  0  0
   41.5779   35.5293   45.1442 H   0  0  0  0  0  0  0  0  0  0  0  0
   40.2933   36.7601   45.1972 H   0  0  0  0  0  0  0  0  0  0  0  0
   40.0022   36.6439   47.5308 H   0  0  0  0  0  0  0  0  0  0  0  0
   41.7528   36.5065   47.2356 H   0  0  0  0  0  0  0  0  0  0  0  0
  2  7  2  0
  2  1  1  0
  3  2  1  0
  4  5  1  0
  4  3  2  0
  5  6  2  0
  6  7  1  0
  8 13  2  0
  9 14  1  0
  9  8  1  0
 10 11  1  0
 10  9  2  0
 11 12  2  0
 12  3  1  0
 12 13  1  0
  4 15  1  0
  5 16  1  0
  6 17  1  0
  7 18  1  0
  8 19  1  0
 10 20  1  0
 21 22  1  0
 22 23  1  0
 23 24  1  0
 24 25  1  0
 25 26  1  0
 26 21  1  0
 21 27  1  0
 22 28  1  0
 22 29  1  0
 23 30  1  0
 23 31  1  0
 24 32  1  0
 24 33  1  0
 25 34  1  0
 25 35  1  0
 26 36  1  0
 26 37  1  0
 14 21  1  0
M  ISO  6  15  14  16  14  17  14  18  14  19  14  20  14
M  END
>  <DihAtoms>  (1) 
8,13,20,21

>  <DihDeg>  (1) 
113.49115993702792

$$$$
