
 OpenBabel03272503433D

 38 41  0  0  1  0  0  0  0  0999 V2000
   37.2620   27.1080   33.0030 C   0  0  0  0  0  0  0  0  0  0  0  0
   38.5750   27.1350   33.3860 C   0  0  0  0  0  0  0  0  0  0  0  0
   39.0230   25.8200   33.1980 C   0  0  0  0  0  0  0  0  0  0  0  0
   38.0000   25.0760   32.7280 N   0  0  0  0  0  0  0  0  0  0  0  0
   36.9290   25.8570   32.6080 N   0  0  0  0  0  0  0  0  0  0  0  0
   39.1040   28.0120   33.7470 H   0  0  0  0  0  0  0  0  0  0  0  0
   40.0620   25.5360   33.4280 H   0  0  0  0  0  0  0  0  0  0  0  0
   38.6170   22.9150   33.6670 C   0  0  2  0  0  0  0  0  0  0  0  0
   38.1480   23.6710   32.4420 C   0  0  1  0  0  0  0  0  0  0  0  0
   36.8030   22.9940   32.2620 C   0  0  0  0  0  0  0  0  0  0  0  0
   36.9510   21.6740   32.6180 O   0  0  0  0  0  0  0  0  0  0  0  0
   38.1380   21.5020   33.2610 C   0  0  0  0  0  0  0  0  0  0  0  0
   39.6840   22.9200   33.8480 H   0  0  0  0  0  0  0  0  0  0  0  0
   38.7620   23.4980   31.5620 H   0  0  0  0  0  0  0  0  0  0  0  0
   36.5670   23.0840   31.1670 H   0  0  0  0  0  0  0  0  0  0  0  0
   36.0130   23.4610   32.8840 H   0  0  0  0  0  0  0  0  0  0  0  0
   38.8660   21.0510   32.5590 H   0  0  0  0  0  0  0  0  0  0  0  0
   38.0060   20.8770   34.1780 H   0  0  0  0  0  0  0  0  0  0  0  0
   37.8480   23.3300   34.7510 O   0  0  0  0  0  0  0  0  0  0  0  0
   38.2220   22.6970   35.9320 C   0  0  0  0  0  3  0  0  0  0  0  0
   39.5910   23.2010   36.3080 C   0  0  0  0  0  2  0  0  0  0  0  0
   40.0140   22.7830   37.6860 C   0  0  0  0  0  2  0  0  0  0  0  0
   39.0890   23.3820   38.6990 C   0  0  0  0  0  2  0  0  0  0  0  0
   37.8600   24.0020   38.0360 C   0  0  0  0  0  2  0  0  0  0  0  0
   37.2550   22.9920   37.0590 C   0  0  0  0  0  2  0  0  0  0  0  0
   35.0930   29.9540   34.1290 C   0  0  0  0  0  0  0  0  0  0  0  0
   35.9440   28.8710   34.1700 C   0  0  0  0  0  0  0  0  0  0  0  0
   36.3760   28.2460   33.0320 C   0  0  0  0  0  0  0  0  0  0  0  0
   35.9150   28.7590   31.8560 N   0  0  0  0  0  0  0  0  0  0  0  0
   35.0730   29.8320   31.8290 C   0  0  0  0  0  0  0  0  0  0  0  0
   34.6630   30.4250   32.9270 N   0  0  0  0  0  0  0  0  0  0  0  0
   36.3460   28.4170   35.0890 H   0  0  0  0  0  0  0  0  0  0  0  0
   34.7230   30.2180   30.8590 H   0  0  0  0  0  0  0  0  0  0  0  0
   34.7700   30.4480   35.3900 O   0  0  0  0  0  0  0  0  0  0  0  0
   35.3590   31.6020   35.9430 C   0  0  0  0  0  0  0  0  0  0  0  0
   35.0730   32.7390   35.2070 F   0  0  0  0  0  0  0  0  0  0  0  0
   36.7100   31.4110   36.0550 F   0  0  0  0  0  0  0  0  0  0  0  0
   34.8700   31.7630   37.2350 F   0  0  0  0  0  0  0  0  0  0  0  0
  1 28  1  0  0  0  0
  1  2  1  0  0  0  0
  2  6  1  0  0  0  0
  3  2  2  0  0  0  0
  3  7  1  0  0  0  0
  4  3  1  0  0  0  0
  5  4  1  0  0  0  0
  5  1  2  0  0  0  0
  8 13  1  1  0  0  0
  8 19  1  0  0  0  0
  9 14  1  6  0  0  0
  9  4  1  0  0  0  0
  9  8  1  0  0  0  0
 10  9  1  0  0  0  0
 10 11  1  0  0  0  0
 10 16  1  0  0  0  0
 11 12  1  0  0  0  0
 12  8  1  0  0  0  0
 12 18  1  0  0  0  0
 15 10  1  0  0  0  0
 17 12  1  0  0  0  0
 19 20  1  0  0  0  0
 20 21  1  0  0  0  0
 20 25  1  0  0  0  0
 21 22  1  0  0  0  0
 22 23  1  0  0  0  0
 24 23  1  0  0  0  0
 25 24  1  0  0  0  0
 26 27  1  0  0  0  0
 26 34  1  0  0  0  0
 27 32  1  0  0  0  0
 28 27  2  0  0  0  0
 29 28  1  0  0  0  0
 30 29  2  0  0  0  0
 30 31  1  0  0  0  0
 31 26  2  0  0  0  0
 33 30  1  0  0  0  0
 34 35  1  0  0  0  0
 35 37  1  0  0  0  0
 35 38  1  0  0  0  0
 36 35  1  0  0  0  0
M  END
>  <minimizedAffinity>
-6.14350653

$$$$

 OpenBabel03272503433D

 38 41  0  0  1  0  0  0  0  0999 V2000
   36.4490   28.0140   33.7790 C   0  0  0  0  0  0  0  0  0  0  0  0
   35.8380   28.3640   32.6070 C   0  0  0  0  0  0  0  0  0  0  0  0
   35.4000   29.6800   32.8170 C   0  0  0  0  0  0  0  0  0  0  0  0
   35.7510   30.0590   34.0630 N   0  0  0  0  0  0  0  0  0  0  0  0
   36.3890   29.0490   34.6500 N   0  0  0  0  0  0  0  0  0  0  0  0
   35.7410   27.7230   31.7360 H   0  0  0  0  0  0  0  0  0  0  0  0
   34.8640   30.2310   32.0290 H   0  0  0  0  0  0  0  0  0  0  0  0
   33.9650   31.4600   34.9470 C   0  0  2  0  0  0  0  0  0  0  0  0
   35.4310   31.3660   34.5800 C   0  0  1  0  0  0  0  0  0  0  0  0
   36.0220   31.5810   35.9600 C   0  0  0  0  0  0  0  0  0  0  0  0
   35.2200   32.4800   36.6210 O   0  0  0  0  0  0  0  0  0  0  0  0
   34.0530   32.6430   35.9390 C   0  0  0  0  0  0  0  0  0  0  0  0
   33.2860   31.6890   34.1360 H   0  0  0  0  0  0  0  0  0  0  0  0
   35.7640   32.1580   33.9150 H   0  0  0  0  0  0  0  0  0  0  0  0
   37.0420   32.0160   35.7830 H   0  0  0  0  0  0  0  0  0  0  0  0
   36.0820   30.6380   36.5400 H   0  0  0  0  0  0  0  0  0  0  0  0
   34.0940   33.5950   35.3760 H   0  0  0  0  0  0  0  0  0  0  0  0
   33.1790   32.6100   36.6340 H   0  0  0  0  0  0  0  0  0  0  0  0
   33.6290   30.3200   35.6740 O   0  0  0  0  0  0  0  0  0  0  0  0
   32.2770   30.0110   35.5670 C   0  0  0  0  0  3  0  0  0  0  0  0
   32.1040   29.1170   34.3660 C   0  0  0  0  0  2  0  0  0  0  0  0
   30.7330   28.5140   34.2740 C   0  0  0  0  0  2  0  0  0  0  0  0
   30.4950   27.6250   35.4550 C   0  0  0  0  0  2  0  0  0  0  0  0
   31.5800   27.8030   36.5160 C   0  0  0  0  0  2  0  0  0  0  0  0
   31.7650   29.2950   36.7990 C   0  0  0  0  0  2  0  0  0  0  0  0
   38.1800   25.1130   35.4100 C   0  0  0  0  0  0  0  0  0  0  0  0
   37.6150   26.3570   35.2280 C   0  0  0  0  0  0  0  0  0  0  0  0
   37.0530   26.7300   34.0380 C   0  0  0  0  0  0  0  0  0  0  0  0
   37.0860   25.7990   33.0430 N   0  0  0  0  0  0  0  0  0  0  0  0
   37.6490   24.5710   33.2360 C   0  0  0  0  0  0  0  0  0  0  0  0
   38.1860   24.2220   34.3820 N   0  0  0  0  0  0  0  0  0  0  0  0
   37.5620   27.1450   35.9960 H   0  0  0  0  0  0  0  0  0  0  0  0
   37.6560   23.8460   32.4070 H   0  0  0  0  0  0  0  0  0  0  0  0
   38.6980   24.9250   36.6890 O   0  0  0  0  0  0  0  0  0  0  0  0
   38.0860   24.1050   37.6580 C   0  0  0  0  0  0  0  0  0  0  0  0
   36.9570   23.4700   37.1680 F   0  0  0  0  0  0  0  0  0  0  0  0
   37.7930   24.8540   38.7650 F   0  0  0  0  0  0  0  0  0  0  0  0
   39.0090   23.1440   38.0590 F   0  0  0  0  0  0  0  0  0  0  0  0
  1 28  1  0  0  0  0
  1  5  2  0  0  0  0
  2  3  2  0  0  0  0
  2  1  1  0  0  0  0
  3  4  1  0  0  0  0
  4  9  1  0  0  0  0
  4  5  1  0  0  0  0
  6  2  1  0  0  0  0
  7  3  1  0  0  0  0
  8 13  1  6  0  0  0
  8 19  1  0  0  0  0
  8 12  1  0  0  0  0
  9 14  1  6  0  0  0
  9  8  1  0  0  0  0
  9 10  1  0  0  0  0
 10 16  1  0  0  0  0
 10 11  1  0  0  0  0
 12 11  1  0  0  0  0
 12 18  1  0  0  0  0
 15 10  1  0  0  0  0
 17 12  1  0  0  0  0
 20 19  1  0  0  0  0
 20 25  1  0  0  0  0
 21 20  1  0  0  0  0
 22 21  1  0  0  0  0
 22 23  1  0  0  0  0
 23 24  1  0  0  0  0
 24 25  1  0  0  0  0
 26 34  1  0  0  0  0
 27 26  1  0  0  0  0
 27 32  1  0  0  0  0
 28 27  2  0  0  0  0
 29 30  2  0  0  0  0
 29 28  1  0  0  0  0
 30 31  1  0  0  0  0
 31 26  2  0  0  0  0
 33 30  1  0  0  0  0
 34 35  1  0  0  0  0
 35 38  1  0  0  0  0
 35 37  1  0  0  0  0
 36 35  1  0  0  0  0
M  END
>  <minimizedAffinity>
-6.05710793

$$$$

 OpenBabel03272503433D

 38 41  0  0  1  0  0  0  0  0999 V2000
   34.9240   29.2700   32.3710 C   0  0  0  0  0  0  0  0  0  0  0  0
   36.1060   29.7480   31.8760 C   0  0  0  0  0  0  0  0  0  0  0  0
   36.6720   28.6570   31.2000 C   0  0  0  0  0  0  0  0  0  0  0  0
   35.8390   27.6000   31.3100 N   0  0  0  0  0  0  0  0  0  0  0  0
   34.7760   27.9710   32.0200 N   0  0  0  0  0  0  0  0  0  0  0  0
   36.4770   30.7600   32.0080 H   0  0  0  0  0  0  0  0  0  0  0  0
   37.6450   28.7460   30.6920 H   0  0  0  0  0  0  0  0  0  0  0  0
   37.1670   25.5740   31.5590 C   0  0  2  0  0  0  0  0  0  0  0  0
   36.1500   26.3210   30.7240 C   0  0  1  0  0  0  0  0  0  0  0  0
   34.9930   25.3500   30.8570 C   0  0  0  0  0  0  0  0  0  0  0  0
   35.5170   24.0790   30.8810 O   0  0  0  0  0  0  0  0  0  0  0  0
   36.8650   24.1410   31.0610 C   0  0  0  0  0  0  0  0  0  0  0  0
   38.2050   25.8290   31.3850 H   0  0  0  0  0  0  0  0  0  0  0  0
   36.4290   26.4120   29.6770 H   0  0  0  0  0  0  0  0  0  0  0  0
   34.3680   25.5020   29.9360 H   0  0  0  0  0  0  0  0  0  0  0  0
   34.4030   25.5270   31.7780 H   0  0  0  0  0  0  0  0  0  0  0  0
   37.3670   23.9740   30.0880 H   0  0  0  0  0  0  0  0  0  0  0  0
   37.1980   23.4030   31.8310 H   0  0  0  0  0  0  0  0  0  0  0  0
   36.7730   25.6530   32.8920 O   0  0  0  0  0  0  0  0  0  0  0  0
   37.7990   26.1000   33.7170 C   0  0  0  0  0  3  0  0  0  0  0  0
   37.2380   27.1850   34.6000 C   0  0  0  0  0  2  0  0  0  0  0  0
   38.1730   27.5880   35.7020 C   0  0  0  0  0  2  0  0  0  0  0  0
   38.4040   26.4250   36.6170 C   0  0  0  0  0  2  0  0  0  0  0  0
   37.8520   25.1300   36.0240 C   0  0  0  0  0  2  0  0  0  0  0  0
   38.3490   24.9870   34.5840 C   0  0  0  0  0  2  0  0  0  0  0  0
   33.4000   31.6960   34.7920 C   0  0  0  0  0  0  0  0  0  0  0  0
   34.3430   30.9930   34.0720 C   0  0  0  0  0  0  0  0  0  0  0  0
   33.9910   30.0430   33.1530 C   0  0  0  0  0  0  0  0  0  0  0  0
   32.6540   29.8330   32.9910 N   0  0  0  0  0  0  0  0  0  0  0  0
   31.7310   30.5350   33.7100 C   0  0  0  0  0  0  0  0  0  0  0  0
   32.0780   31.4450   34.5910 N   0  0  0  0  0  0  0  0  0  0  0  0
   35.4320   31.1230   34.1640 H   0  0  0  0  0  0  0  0  0  0  0  0
   30.6590   30.3370   33.5510 H   0  0  0  0  0  0  0  0  0  0  0  0
   33.9560   32.6170   35.6760 O   0  0  0  0  0  0  0  0  0  0  0  0
   34.3410   32.2910   36.9920 C   0  0  0  0  0  0  0  0  0  0  0  0
   33.4120   31.4810   37.6220 F   0  0  0  0  0  0  0  0  0  0  0  0
   34.5550   33.4430   37.6980 F   0  0  0  0  0  0  0  0  0  0  0  0
   35.5610   31.6250   36.9360 F   0  0  0  0  0  0  0  0  0  0  0  0
  1 28  1  0  0  0  0
  2  6  1  0  0  0  0
  2  1  1  0  0  0  0
  3  4  1  0  0  0  0
  3  2  2  0  0  0  0
  4  5  1  0  0  0  0
  5  1  2  0  0  0  0
  7  3  1  0  0  0  0
  8 13  1  6  0  0  0
  8 19  1  0  0  0  0
  9 14  1  6  0  0  0
  9 10  1  0  0  0  0
  9  4  1  0  0  0  0
  9  8  1  0  0  0  0
 10 11  1  0  0  0  0
 10 16  1  0  0  0  0
 11 12  1  0  0  0  0
 12  8  1  0  0  0  0
 12 18  1  0  0  0  0
 15 10  1  0  0  0  0
 17 12  1  0  0  0  0
 19 20  1  0  0  0  0
 20 25  1  0  0  0  0
 20 21  1  0  0  0  0
 21 22  1  0  0  0  0
 22 23  1  0  0  0  0
 24 23  1  0  0  0  0
 25 24  1  0  0  0  0
 26 34  1  0  0  0  0
 27 32  1  0  0  0  0
 27 26  2  0  0  0  0
 28 27  1  0  0  0  0
 29 28  2  0  0  0  0
 29 30  1  0  0  0  0
 30 31  2  0  0  0  0
 31 26  1  0  0  0  0
 33 30  1  0  0  0  0
 34 35  1  0  0  0  0
 35 36  1  0  0  0  0
 35 37  1  0  0  0  0
 38 35  1  0  0  0  0
M  END
>  <minimizedAffinity>
-5.84890461

$$$$

 OpenBabel03272503433D

 38 41  0  0  1  0  0  0  0  0999 V2000
   38.9400   25.3410   33.0620 C   0  0  0  0  0  0  0  0  0  0  0  0
   39.9170   26.2810   33.2440 C   0  0  0  0  0  0  0  0  0  0  0  0
   39.8370   27.0970   32.1070 C   0  0  0  0  0  0  0  0  0  0  0  0
   38.8520   26.6340   31.3100 N   0  0  0  0  0  0  0  0  0  0  0  0
   38.3050   25.5680   31.8890 N   0  0  0  0  0  0  0  0  0  0  0  0
   40.5800   26.3360   34.1030 H   0  0  0  0  0  0  0  0  0  0  0  0
   40.5150   27.9540   31.9750 H   0  0  0  0  0  0  0  0  0  0  0  0
   37.2680   28.0880   30.1660 C   0  0  2  0  0  0  0  0  0  0  0  0
   38.5310   27.2620   30.0530 C   0  0  1  0  0  0  0  0  0  0  0  0
   39.5020   28.3790   29.7230 C   0  0  0  0  0  0  0  0  0  0  0  0
   38.8360   29.2890   28.9360 O   0  0  0  0  0  0  0  0  0  0  0  0
   37.5010   29.0290   28.9610 C   0  0  0  0  0  0  0  0  0  0  0  0
   36.3360   27.5490   30.0570 H   0  0  0  0  0  0  0  0  0  0  0  0
   38.5100   26.5450   29.2350 H   0  0  0  0  0  0  0  0  0  0  0  0
   40.3330   27.8910   29.1470 H   0  0  0  0  0  0  0  0  0  0  0  0
   39.8840   28.8820   30.6330 H   0  0  0  0  0  0  0  0  0  0  0  0
   37.2160   28.5090   28.0260 H   0  0  0  0  0  0  0  0  0  0  0  0
   36.9150   29.9700   29.1060 H   0  0  0  0  0  0  0  0  0  0  0  0
   37.3560   28.8540   31.3260 O   0  0  0  0  0  0  0  0  0  0  0  0
   36.1250   28.9940   31.9570 C   0  0  0  0  0  3  0  0  0  0  0  0
   36.3270   28.7150   33.4240 C   0  0  0  0  0  2  0  0  0  0  0  0
   35.1300   29.0650   34.2600 C   0  0  0  0  0  2  0  0  0  0  0  0
   34.8720   30.5370   34.1770 C   0  0  0  0  0  2  0  0  0  0  0  0
   35.7120   31.1910   33.0810 C   0  0  0  0  0  2  0  0  0  0  0  0
   35.5600   30.3880   31.7880 C   0  0  0  0  0  2  0  0  0  0  0  0
   38.7400   23.1820   36.1230 C   0  0  0  0  0  0  0  0  0  0  0  0
   39.0490   24.2380   35.2930 C   0  0  0  0  0  0  0  0  0  0  0  0
   38.6490   24.2710   33.9850 C   0  0  0  0  0  0  0  0  0  0  0  0
   37.9280   23.1980   33.5520 N   0  0  0  0  0  0  0  0  0  0  0  0
   37.6300   22.1590   34.3840 C   0  0  0  0  0  0  0  0  0  0  0  0
   38.0180   22.1360   35.6380 N   0  0  0  0  0  0  0  0  0  0  0  0
   39.6260   25.1270   35.5900 H   0  0  0  0  0  0  0  0  0  0  0  0
   37.0450   21.3100   33.9970 H   0  0  0  0  0  0  0  0  0  0  0  0
   39.2360   23.3350   37.4160 O   0  0  0  0  0  0  0  0  0  0  0  0
   38.4440   23.7560   38.5020 C   0  0  0  0  0  0  0  0  0  0  0  0
   37.4090   22.8760   38.7680 F   0  0  0  0  0  0  0  0  0  0  0  0
   37.9710   25.0170   38.2550 F   0  0  0  0  0  0  0  0  0  0  0  0
   39.2600   23.8490   39.6250 F   0  0  0  0  0  0  0  0  0  0  0  0
  1  2  1  0  0  0  0
  1 28  1  0  0  0  0
  2  6  1  0  0  0  0
  3  2  2  0  0  0  0
  4  5  1  0  0  0  0
  4  3  1  0  0  0  0
  5  1  2  0  0  0  0
  7  3  1  0  0  0  0
  8 13  1  6  0  0  0
  8 19  1  0  0  0  0
  9 14  1  6  0  0  0
  9  8  1  0  0  0  0
  9  4  1  0  0  0  0
 10  9  1  0  0  0  0
 10 16  1  0  0  0  0
 11 12  1  0  0  0  0
 11 10  1  0  0  0  0
 12 18  1  0  0  0  0
 12  8  1  0  0  0  0
 15 10  1  0  0  0  0
 17 12  1  0  0  0  0
 19 20  1  0  0  0  0
 20 21  1  0  0  0  0
 21 22  1  0  0  0  0
 23 22  1  0  0  0  0
 24 23  1  0  0  0  0
 25 20  1  0  0  0  0
 25 24  1  0  0  0  0
 26 34  1  0  0  0  0
 27 32  1  0  0  0  0
 27 26  2  0  0  0  0
 28 27  1  0  0  0  0
 29 28  2  0  0  0  0
 29 30  1  0  0  0  0
 30 31  2  0  0  0  0
 31 26  1  0  0  0  0
 33 30  1  0  0  0  0
 34 35  1  0  0  0  0
 35 36  1  0  0  0  0
 35 38  1  0  0  0  0
 37 35  1  0  0  0  0
M  END
>  <minimizedAffinity>
-5.8081975

$$$$

 OpenBabel03272503433D

 38 41  0  0  1  0  0  0  0  0999 V2000
   36.4510   28.1440   31.6660 C   0  0  0  0  0  0  0  0  0  0  0  0
   37.7270   28.1900   31.1760 C   0  0  0  0  0  0  0  0  0  0  0  0
   38.0380   26.8560   30.8780 C   0  0  0  0  0  0  0  0  0  0  0  0
   36.9760   26.0830   31.1900 N   0  0  0  0  0  0  0  0  0  0  0  0
   36.0110   26.8650   31.6680 N   0  0  0  0  0  0  0  0  0  0  0  0
   38.3230   29.0910   31.0630 H   0  0  0  0  0  0  0  0  0  0  0  0
   39.0190   26.5810   30.4600 H   0  0  0  0  0  0  0  0  0  0  0  0
   37.6790   23.9640   32.1630 C   0  0  2  0  0  0  0  0  0  0  0  0
   36.9930   24.6540   31.0040 C   0  0  1  0  0  0  0  0  0  0  0  0
   35.6110   24.0540   31.1700 C   0  0  0  0  0  0  0  0  0  0  0  0
   35.7690   22.7580   31.6010 O   0  0  0  0  0  0  0  0  0  0  0  0
   37.0570   22.5580   31.9920 C   0  0  0  0  0  0  0  0  0  0  0  0
   38.7590   23.9140   32.1140 H   0  0  0  0  0  0  0  0  0  0  0  0
   37.3940   24.3770   30.0320 H   0  0  0  0  0  0  0  0  0  0  0  0
   35.1490   24.0760   30.1470 H   0  0  0  0  0  0  0  0  0  0  0  0
   34.9960   24.6170   31.9010 H   0  0  0  0  0  0  0  0  0  0  0  0
   37.5960   22.0100   31.1950 H   0  0  0  0  0  0  0  0  0  0  0  0
   37.0980   22.0140   32.9680 H   0  0  0  0  0  0  0  0  0  0  0  0
   37.1820   24.5080   33.3440 O   0  0  0  0  0  0  0  0  0  0  0  0
   38.1850   24.7340   34.2800 C   0  0  0  0  0  3  0  0  0  0  0  0
   39.4910   24.8410   33.5370 C   0  0  0  0  0  2  0  0  0  0  0  0
   40.6210   25.3230   34.3990 C   0  0  0  0  0  2  0  0  0  0  0  0
   40.3320   26.7120   34.8760 C   0  0  0  0  0  2  0  0  0  0  0  0
   38.8890   27.1170   34.5790 C   0  0  0  0  0  2  0  0  0  0  0  0
   37.9490   26.0100   35.0610 C   0  0  0  0  0  2  0  0  0  0  0  0
   34.7450   30.7180   33.7960 C   0  0  0  0  0  0  0  0  0  0  0  0
   35.4710   29.6050   33.4300 C   0  0  0  0  0  0  0  0  0  0  0  0
   35.7050   29.2930   32.1180 C   0  0  0  0  0  0  0  0  0  0  0  0
   35.1780   30.1480   31.1960 N   0  0  0  0  0  0  0  0  0  0  0  0
   34.4610   31.2460   31.5730 C   0  0  0  0  0  0  0  0  0  0  0  0
   34.2420   31.5370   32.8340 N   0  0  0  0  0  0  0  0  0  0  0  0
   35.9170   28.8830   34.1310 H   0  0  0  0  0  0  0  0  0  0  0  0
   34.0520   31.9130   30.7980 H   0  0  0  0  0  0  0  0  0  0  0  0
   34.6170   30.8620   35.1750 O   0  0  0  0  0  0  0  0  0  0  0  0
   35.4780   31.6640   35.9520 C   0  0  0  0  0  0  0  0  0  0  0  0
   35.6240   32.9360   35.4250 F   0  0  0  0  0  0  0  0  0  0  0  0
   36.6880   31.0370   36.0780 F   0  0  0  0  0  0  0  0  0  0  0  0
   34.9430   31.7610   37.2320 F   0  0  0  0  0  0  0  0  0  0  0  0
  1  5  2  0  0  0  0
  1 28  1  0  0  0  0
  2  1  1  0  0  0  0
  3  2  2  0  0  0  0
  3  4  1  0  0  0  0
  4  5  1  0  0  0  0
  6  2  1  0  0  0  0
  7  3  1  0  0  0  0
  8 13  1  6  0  0  0
  8 19  1  0  0  0  0
  9 14  1  6  0  0  0
  9 10  1  0  0  0  0
  9  4  1  0  0  0  0
  9  8  1  0  0  0  0
 10 11  1  0  0  0  0
 10 16  1  0  0  0  0
 11 12  1  0  0  0  0
 12  8  1  0  0  0  0
 12 18  1  0  0  0  0
 15 10  1  0  0  0  0
 17 12  1  0  0  0  0
 19 20  1  0  0  0  0
 20 25  1  0  0  0  0
 21 20  1  0  0  0  0
 21 22  1  0  0  0  0
 22 23  1  0  0  0  0
 24 23  1  0  0  0  0
 24 25  1  0  0  0  0
 26 34  1  0  0  0  0
 27 26  1  0  0  0  0
 27 32  1  0  0  0  0
 28 27  2  0  0  0  0
 29 30  2  0  0  0  0
 29 28  1  0  0  0  0
 30 31  1  0  0  0  0
 31 26  2  0  0  0  0
 33 30  1  0  0  0  0
 34 35  1  0  0  0  0
 35 37  1  0  0  0  0
 35 38  1  0  0  0  0
 36 35  1  0  0  0  0
M  END
>  <minimizedAffinity>
-5.68796635

$$$$

 OpenBabel03272503433D

 38 41  0  0  1  0  0  0  0  0999 V2000
   38.8640   25.2840   32.5770 C   0  0  0  0  0  0  0  0  0  0  0  0
   38.4600   26.0190   31.4970 C   0  0  0  0  0  0  0  0  0  0  0  0
   38.8830   25.2770   30.3860 C   0  0  0  0  0  0  0  0  0  0  0  0
   39.5060   24.1620   30.8220 N   0  0  0  0  0  0  0  0  0  0  0  0
   39.4940   24.1640   32.1530 N   0  0  0  0  0  0  0  0  0  0  0  0
   37.9290   26.9660   31.5470 H   0  0  0  0  0  0  0  0  0  0  0  0
   38.6930   25.6300   29.3600 H   0  0  0  0  0  0  0  0  0  0  0  0
   39.4340   21.8330   30.1120 C   0  0  2  0  0  0  0  0  0  0  0  0
   40.0640   23.1950   29.9110 C   0  0  1  0  0  0  0  0  0  0  0  0
   39.6090   23.4440   28.4850 C   0  0  0  0  0  0  0  0  0  0  0  0
   39.6220   22.2370   27.8280 O   0  0  0  0  0  0  0  0  0  0  0  0
   39.7570   21.2250   28.7270 C   0  0  0  0  0  0  0  0  0  0  0  0
   39.8550   21.2270   30.9040 H   0  0  0  0  0  0  0  0  0  0  0  0
   41.1500   23.1820   29.9480 H   0  0  0  0  0  0  0  0  0  0  0  0
   40.3720   24.1420   28.0460 H   0  0  0  0  0  0  0  0  0  0  0  0
   38.5920   23.8810   28.4420 H   0  0  0  0  0  0  0  0  0  0  0  0
   40.8050   20.8680   28.7150 H   0  0  0  0  0  0  0  0  0  0  0  0
   39.0360   20.3990   28.5080 H   0  0  0  0  0  0  0  0  0  0  0  0
   38.0540   22.0030   30.1900 O   0  0  0  0  0  0  0  0  0  0  0  0
   37.5160   21.4090   31.3270 C   0  0  0  0  0  3  0  0  0  0  0  0
   36.1520   22.0080   31.5550 C   0  0  0  0  0  2  0  0  0  0  0  0
   35.3620   21.2860   32.6070 C   0  0  0  0  0  2  0  0  0  0  0  0
   35.0990   19.8810   32.1630 C   0  0  0  0  0  2  0  0  0  0  0  0
   35.9220   19.5220   30.9270 C   0  0  0  0  0  2  0  0  0  0  0  0
   37.3820   19.9090   31.1680 C   0  0  0  0  0  2  0  0  0  0  0  0
   37.9770   25.2580   36.2210 C   0  0  0  0  0  0  0  0  0  0  0  0
   38.1590   24.8330   34.9230 C   0  0  0  0  0  0  0  0  0  0  0  0
   38.6520   25.6620   33.9520 C   0  0  0  0  0  0  0  0  0  0  0  0
   38.9510   26.9320   34.3460 N   0  0  0  0  0  0  0  0  0  0  0  0
   38.7650   27.3400   35.6340 C   0  0  0  0  0  0  0  0  0  0  0  0
   38.2920   26.5370   36.5590 N   0  0  0  0  0  0  0  0  0  0  0  0
   37.9340   23.8200   34.5520 H   0  0  0  0  0  0  0  0  0  0  0  0
   39.0190   28.3750   35.9140 H   0  0  0  0  0  0  0  0  0  0  0  0
   37.4670   24.2680   37.0580 O   0  0  0  0  0  0  0  0  0  0  0  0
   38.0670   23.9030   38.2790 C   0  0  0  0  0  0  0  0  0  0  0  0
   38.0970   24.9530   39.1810 F   0  0  0  0  0  0  0  0  0  0  0  0
   39.3250   23.4200   38.0380 F   0  0  0  0  0  0  0  0  0  0  0  0
   37.3350   22.8540   38.8270 F   0  0  0  0  0  0  0  0  0  0  0  0
  1 28  1  0  0  0  0
  2  6  1  0  0  0  0
  2  1  1  0  0  0  0
  3  4  1  0  0  0  0
  3  2  2  0  0  0  0
  4  5  1  0  0  0  0
  5  1  2  0  0  0  0
  7  3  1  0  0  0  0
  8 19  1  0  0  0  0
  8 13  1  1  0  0  0
  9 14  1  1  0  0  0
  9  8  1  0  0  0  0
  9  4  1  0  0  0  0
 10  9  1  0  0  0  0
 11 10  1  0  0  0  0
 11 12  1  0  0  0  0
 12  8  1  0  0  0  0
 15 10  1  0  0  0  0
 16 10  1  0  0  0  0
 17 12  1  0  0  0  0
 18 12  1  0  0  0  0
 19 20  1  0  0  0  0
 20 21  1  0  0  0  0
 21 22  1  0  0  0  0
 23 22  1  0  0  0  0
 24 25  1  0  0  0  0
 24 23  1  0  0  0  0
 25 20  1  0  0  0  0
 26 31  1  0  0  0  0
 26 34  1  0  0  0  0
 27 26  2  0  0  0  0
 28 29  2  0  0  0  0
 28 27  1  0  0  0  0
 29 30  1  0  0  0  0
 30 33  1  0  0  0  0
 30 31  2  0  0  0  0
 32 27  1  0  0  0  0
 34 35  1  0  0  0  0
 35 38  1  0  0  0  0
 35 36  1  0  0  0  0
 37 35  1  0  0  0  0
M  END
>  <minimizedAffinity>
-5.67129612

$$$$

 OpenBabel03272503433D

 38 41  0  0  1  0  0  0  0  0999 V2000
   36.1500   26.2030   31.4180 C   0  0  0  0  0  0  0  0  0  0  0  0
   35.1390   25.3370   31.1040 C   0  0  0  0  0  0  0  0  0  0  0  0
   35.7250   24.0660   31.1830 C   0  0  0  0  0  0  0  0  0  0  0  0
   37.0220   24.2090   31.5280 N   0  0  0  0  0  0  0  0  0  0  0  0
   37.2820   25.5060   31.6720 N   0  0  0  0  0  0  0  0  0  0  0  0
   34.1210   25.6260   30.8560 H   0  0  0  0  0  0  0  0  0  0  0  0
   35.1400   23.1570   30.9770 H   0  0  0  0  0  0  0  0  0  0  0  0
   38.7420   23.2070   32.9310 C   0  0  2  0  0  0  0  0  0  0  0  0
   37.8990   23.0750   31.6810 C   0  0  1  0  0  0  0  0  0  0  0  0
   37.1310   21.8230   32.0590 C   0  0  0  0  0  0  0  0  0  0  0  0
   37.9820   21.0130   32.7730 O   0  0  0  0  0  0  0  0  0  0  0  0
   39.0930   21.7130   33.1290 C   0  0  0  0  0  0  0  0  0  0  0  0
   39.6410   23.8020   32.8370 H   0  0  0  0  0  0  0  0  0  0  0  0
   38.4800   22.8870   30.7820 H   0  0  0  0  0  0  0  0  0  0  0  0
   36.8490   21.3400   31.0850 H   0  0  0  0  0  0  0  0  0  0  0  0
   36.2350   22.0520   32.6700 H   0  0  0  0  0  0  0  0  0  0  0  0
   39.9260   21.4360   32.4550 H   0  0  0  0  0  0  0  0  0  0  0  0
   39.3510   21.5320   34.2010 H   0  0  0  0  0  0  0  0  0  0  0  0
   37.9070   23.5890   33.9770 O   0  0  0  0  0  0  0  0  0  0  0  0
   38.5590   24.4000   34.9000 C   0  0  0  0  0  3  0  0  0  0  0  0
   39.5120   25.2860   34.1400 C   0  0  0  0  0  2  0  0  0  0  0  0
   40.1040   26.3750   34.9860 C   0  0  0  0  0  2  0  0  0  0  0  0
   39.0180   27.2900   35.4600 C   0  0  0  0  0  2  0  0  0  0  0  0
   37.6340   26.7080   35.1790 C   0  0  0  0  0  2  0  0  0  0  0  0
   37.5880   25.2630   35.6770 C   0  0  0  0  0  2  0  0  0  0  0  0
   35.3500   29.7160   32.4620 C   0  0  0  0  0  0  0  0  0  0  0  0
   35.4500   28.3420   32.4860 C   0  0  0  0  0  0  0  0  0  0  0  0
   36.0170   27.6380   31.4580 C   0  0  0  0  0  0  0  0  0  0  0  0
   36.4780   28.3780   30.4100 N   0  0  0  0  0  0  0  0  0  0  0  0
   36.3730   29.7380   30.3980 C   0  0  0  0  0  0  0  0  0  0  0  0
   35.8260   30.4050   31.3890 N   0  0  0  0  0  0  0  0  0  0  0  0
   35.0950   27.6970   33.3050 H   0  0  0  0  0  0  0  0  0  0  0  0
   36.7570   30.3010   29.5330 H   0  0  0  0  0  0  0  0  0  0  0  0
   34.7430   30.2440   33.5980 O   0  0  0  0  0  0  0  0  0  0  0  0
   35.4660   30.7790   34.6830 C   0  0  0  0  0  0  0  0  0  0  0  0
   36.1590   31.9250   34.3350 F   0  0  0  0  0  0  0  0  0  0  0  0
   36.3080   29.8220   35.1810 F   0  0  0  0  0  0  0  0  0  0  0  0
   34.5640   31.0840   35.6980 F   0  0  0  0  0  0  0  0  0  0  0  0
  1 28  1  0  0  0  0
  1  5  2  0  0  0  0
  2  3  2  0  0  0  0
  2  1  1  0  0  0  0
  3  4  1  0  0  0  0
  4  5  1  0  0  0  0
  4  9  1  0  0  0  0
  6  2  1  0  0  0  0
  7  3  1  0  0  0  0
  8 13  1  6  0  0  0
  8 12  1  0  0  0  0
  8 19  1  0  0  0  0
  9 14  1  6  0  0  0
  9 10  1  0  0  0  0
  9  8  1  0  0  0  0
 10 16  1  0  0  0  0
 10 11  1  0  0  0  0
 11 12  1  0  0  0  0
 12 18  1  0  0  0  0
 15 10  1  0  0  0  0
 17 12  1  0  0  0  0
 19 20  1  0  0  0  0
 20 25  1  0  0  0  0
 21 20  1  0  0  0  0
 21 22  1  0  0  0  0
 22 23  1  0  0  0  0
 24 23  1  0  0  0  0
 24 25  1  0  0  0  0
 26 27  1  0  0  0  0
 26 34  1  0  0  0  0
 27 32  1  0  0  0  0
 28 27  2  0  0  0  0
 29 28  1  0  0  0  0
 30 29  2  0  0  0  0
 30 31  1  0  0  0  0
 31 26  2  0  0  0  0
 33 30  1  0  0  0  0
 34 35  1  0  0  0  0
 35 37  1  0  0  0  0
 35 38  1  0  0  0  0
 36 35  1  0  0  0  0
M  END
>  <minimizedAffinity>
-5.6652298

$$$$

 OpenBabel03272503433D

 38 41  0  0  1  0  0  0  0  0999 V2000
   38.6150   26.6360   33.8110 C   0  0  0  0  0  0  0  0  0  0  0  0
   39.4000   26.9820   34.8770 C   0  0  0  0  0  0  0  0  0  0  0  0
   40.4150   26.0150   34.8950 C   0  0  0  0  0  0  0  0  0  0  0  0
   40.2110   25.1520   33.8780 N   0  0  0  0  0  0  0  0  0  0  0  0
   39.1180   25.5280   33.2180 N   0  0  0  0  0  0  0  0  0  0  0  0
   39.2270   27.8310   35.5310 H   0  0  0  0  0  0  0  0  0  0  0  0
   41.2080   26.0400   35.6590 H   0  0  0  0  0  0  0  0  0  0  0  0
   40.7980   22.9010   34.5980 C   0  0  2  0  0  0  0  0  0  0  0  0
   41.0890   24.0350   33.6390 C   0  0  1  0  0  0  0  0  0  0  0  0
   40.7490   23.3250   32.3420 C   0  0  0  0  0  0  0  0  0  0  0  0
   41.1340   22.0120   32.4730 O   0  0  0  0  0  0  0  0  0  0  0  0
   41.4140   21.7440   33.7780 C   0  0  0  0  0  0  0  0  0  0  0  0
   41.2650   22.9710   35.5720 H   0  0  0  0  0  0  0  0  0  0  0  0
   42.1340   24.3360   33.6240 H   0  0  0  0  0  0  0  0  0  0  0  0
   41.3590   23.8390   31.5510 H   0  0  0  0  0  0  0  0  0  0  0  0
   39.6660   23.3750   32.1110 H   0  0  0  0  0  0  0  0  0  0  0  0
   42.5120   21.7350   33.9170 H   0  0  0  0  0  0  0  0  0  0  0  0
   40.9490   20.7770   34.0930 H   0  0  0  0  0  0  0  0  0  0  0  0
   39.4190   22.7100   34.6340 O   0  0  0  0  0  0  0  0  0  0  0  0
   38.9580   22.4560   35.9210 C   0  0  0  0  0  3  0  0  0  0  0  0
   39.9900   22.9760   36.8890 C   0  0  0  0  0  2  0  0  0  0  0  0
   39.5120   22.9830   38.3110 C   0  0  0  0  0  2  0  0  0  0  0  0
   38.3490   23.9170   38.4460 C   0  0  0  0  0  2  0  0  0  0  0  0
   37.8330   24.3670   37.0800 C   0  0  0  0  0  2  0  0  0  0  0  0
   37.6340   23.1390   36.1900 C   0  0  0  0  0  2  0  0  0  0  0  0
   35.5720   28.8280   33.7530 C   0  0  0  0  0  0  0  0  0  0  0  0
   36.7010   28.1790   34.2060 C   0  0  0  0  0  0  0  0  0  0  0  0
   37.4290   27.3460   33.4010 C   0  0  0  0  0  0  0  0  0  0  0  0
   36.9720   27.1960   32.1260 N   0  0  0  0  0  0  0  0  0  0  0  0
   35.8530   27.8440   31.6910 C   0  0  0  0  0  0  0  0  0  0  0  0
   35.1600   28.6410   32.4700 N   0  0  0  0  0  0  0  0  0  0  0  0
   37.1130   28.2640   35.2240 H   0  0  0  0  0  0  0  0  0  0  0  0
   35.5150   27.6970   30.6530 H   0  0  0  0  0  0  0  0  0  0  0  0
   34.9720   29.6290   34.7210 O   0  0  0  0  0  0  0  0  0  0  0  0
   35.4140   30.9310   35.0300 C   0  0  0  0  0  0  0  0  0  0  0  0
   36.3730   30.9340   36.0280 F   0  0  0  0  0  0  0  0  0  0  0  0
   34.3390   31.7040   35.3730 F   0  0  0  0  0  0  0  0  0  0  0  0
   35.9570   31.4900   33.8770 F   0  0  0  0  0  0  0  0  0  0  0  0
  1  2  1  0  0  0  0
  2  3  2  0  0  0  0
  2  6  1  0  0  0  0
  3  7  1  0  0  0  0
  4  3  1  0  0  0  0
  5  1  2  0  0  0  0
  5  4  1  0  0  0  0
  8 19  1  0  0  0  0
  8 13  1  1  0  0  0
  9 14  1  1  0  0  0
  9  4  1  0  0  0  0
  9  8  1  0  0  0  0
 10 11  1  0  0  0  0
 10  9  1  0  0  0  0
 11 12  1  0  0  0  0
 12 17  1  0  0  0  0
 12 18  1  0  0  0  0
 12  8  1  0  0  0  0
 15 10  1  0  0  0  0
 16 10  1  0  0  0  0
 19 20  1  0  0  0  0
 20 25  1  0  0  0  0
 20 21  1  0  0  0  0
 21 22  1  0  0  0  0
 22 23  1  0  0  0  0
 24 23  1  0  0  0  0
 25 24  1  0  0  0  0
 26 27  1  0  0  0  0
 26 34  1  0  0  0  0
 27 32  1  0  0  0  0
 28  1  1  0  0  0  0
 28 27  2  0  0  0  0
 29 28  1  0  0  0  0
 30 29  2  0  0  0  0
 30 31  1  0  0  0  0
 31 26  2  0  0  0  0
 33 30  1  0  0  0  0
 34 35  1  0  0  0  0
 35 37  1  0  0  0  0
 35 36  1  0  0  0  0
 38 35  1  0  0  0  0
M  END
>  <minimizedAffinity>
-5.64734745

$$$$

 OpenBabel03272503433D

 38 41  0  0  1  0  0  0  0  0999 V2000
   35.4200   29.7410   32.4200 C   0  0  0  0  0  0  0  0  0  0  0  0
   34.0940   30.0720   32.4730 C   0  0  0  0  0  0  0  0  0  0  0  0
   34.0730   31.4670   32.3270 C   0  0  0  0  0  0  0  0  0  0  0  0
   35.3420   31.9080   32.1980 N   0  0  0  0  0  0  0  0  0  0  0  0
   36.1620   30.8600   32.2540 N   0  0  0  0  0  0  0  0  0  0  0  0
   33.2770   29.3680   32.6010 H   0  0  0  0  0  0  0  0  0  0  0  0
   33.1230   32.0240   32.3320 H   0  0  0  0  0  0  0  0  0  0  0  0
   35.9180   33.9580   33.3790 C   0  0  2  0  0  0  0  0  0  0  0  0
   35.6500   33.3070   32.0400 C   0  0  1  0  0  0  0  0  0  0  0  0
   37.0160   33.5100   31.4130 C   0  0  0  0  0  0  0  0  0  0  0  0
   37.4980   34.7220   31.8500 O   0  0  0  0  0  0  0  0  0  0  0  0
   36.7360   35.1740   32.8830 C   0  0  0  0  0  0  0  0  0  0  0  0
   35.0460   34.2830   33.9320 H   0  0  0  0  0  0  0  0  0  0  0  0
   34.8990   33.8230   31.4470 H   0  0  0  0  0  0  0  0  0  0  0  0
   36.8370   33.5320   30.3050 H   0  0  0  0  0  0  0  0  0  0  0  0
   37.7260   32.7050   31.6910 H   0  0  0  0  0  0  0  0  0  0  0  0
   36.0470   35.9550   32.5090 H   0  0  0  0  0  0  0  0  0  0  0  0
   37.3790   35.5530   33.7150 H   0  0  0  0  0  0  0  0  0  0  0  0
   36.7780   33.1320   34.0970 O   0  0  0  0  0  0  0  0  0  0  0  0
   36.3990   33.0100   35.4290 C   0  0  0  0  0  3  0  0  0  0  0  0
   35.1150   33.7760   35.6120 C   0  0  0  0  0  2  0  0  0  0  0  0
   34.4680   33.5300   36.9440 C   0  0  0  0  0  2  0  0  0  0  0  0
   34.0790   32.0890   37.0560 C   0  0  0  0  0  2  0  0  0  0  0  0
   34.6830   31.2580   35.9260 C   0  0  0  0  0  2  0  0  0  0  0  0
   36.1780   31.5650   35.8220 C   0  0  0  0  0  2  0  0  0  0  0  0
   37.0080   26.5930   33.6990 C   0  0  0  0  0  0  0  0  0  0  0  0
   36.5340   27.8860   33.6540 C   0  0  0  0  0  0  0  0  0  0  0  0
   35.9350   28.3990   32.5360 C   0  0  0  0  0  0  0  0  0  0  0  0
   35.8360   27.5550   31.4700 N   0  0  0  0  0  0  0  0  0  0  0  0
   36.3110   26.2770   31.5270 C   0  0  0  0  0  0  0  0  0  0  0  0
   36.8840   25.7940   32.6050 N   0  0  0  0  0  0  0  0  0  0  0  0
   36.5870   28.6080   34.4840 H   0  0  0  0  0  0  0  0  0  0  0  0
   36.2120   25.6250   30.6450 H   0  0  0  0  0  0  0  0  0  0  0  0
   37.5830   26.2600   34.9230 O   0  0  0  0  0  0  0  0  0  0  0  0
   38.2810   27.1830   35.7260 C   0  0  0  0  0  0  0  0  0  0  0  0
   37.6620   28.4210   35.7580 F   0  0  0  0  0  0  0  0  0  0  0  0
   39.5710   27.2860   35.2800 F   0  0  0  0  0  0  0  0  0  0  0  0
   38.3460   26.6740   37.0190 F   0  0  0  0  0  0  0  0  0  0  0  0
  1  2  1  0  0  0  0
  1 28  1  0  0  0  0
  2  6  1  0  0  0  0
  3  7  1  0  0  0  0
  3  2  2  0  0  0  0
  4  5  1  0  0  0  0
  4  3  1  0  0  0  0
  5  1  2  0  0  0  0
  8 13  1  1  0  0  0
  8 19  1  0  0  0  0
  9 14  1  6  0  0  0
  9  4  1  0  0  0  0
  9  8  1  0  0  0  0
 10 16  1  0  0  0  0
 10 11  1  0  0  0  0
 10  9  1  0  0  0  0
 11 12  1  0  0  0  0
 12  8  1  0  0  0  0
 12 18  1  0  0  0  0
 15 10  1  0  0  0  0
 17 12  1  0  0  0  0
 19 20  1  0  0  0  0
 20 21  1  0  0  0  0
 20 25  1  0  0  0  0
 21 22  1  0  0  0  0
 22 23  1  0  0  0  0
 24 23  1  0  0  0  0
 25 24  1  0  0  0  0
 26 34  1  0  0  0  0
 27 26  1  0  0  0  0
 27 32  1  0  0  0  0
 28 27  2  0  0  0  0
 29 30  2  0  0  0  0
 29 28  1  0  0  0  0
 30 31  1  0  0  0  0
 31 26  2  0  0  0  0
 33 30  1  0  0  0  0
 34 35  1  0  0  0  0
 35 36  1  0  0  0  0
 35 38  1  0  0  0  0
 37 35  1  0  0  0  0
M  END
>  <minimizedAffinity>
-5.6062851

$$$$
