
 OpenBabel03272508033D

 25 27  0  0  0  0  0  0  0  0999 V2000
   37.3150   26.8040   34.2680 C   0  0  0  0  0  0  0  0  0  0  0  0
   36.9800   26.9850   32.9450 C   0  0  0  0  0  0  0  0  0  0  0  0
   36.2570   28.1860   32.8050 C   0  0  0  0  0  0  0  0  0  0  0  0
   36.1880   28.6840   34.0830 N   0  0  0  0  0  0  0  0  0  0  0  0
   36.8070   27.8740   34.9240 N   0  0  0  0  0  0  0  0  0  0  0  0
   37.2060   26.3460   32.1100 H   0  0  0  0  0  0  0  0  0  0  0  0
   35.8440   28.6220   31.8980 H   0  0  0  0  0  0  0  0  0  0  0  0
   38.0590   25.7000   34.8460 C   0  0  0  0  0  0  0  0  0  0  0  0
   37.7910   25.3520   36.1980 C   0  0  0  0  0  0  0  0  0  0  0  0
   38.5000   24.2970   36.7540 C   0  0  0  0  0  0  0  0  0  0  0  0
   39.4110   23.6550   35.9770 N   0  0  0  0  0  0  0  0  0  0  0  0
   39.6530   23.9980   34.7000 C   0  0  0  0  0  0  0  0  0  0  0  0
   38.9630   25.0290   34.1490 N   0  0  0  0  0  0  0  0  0  0  0  0
   37.0420   25.9120   36.7650 H   0  0  0  0  0  0  0  0  0  0  0  0
   40.3830   23.4670   34.1110 H   0  0  0  0  0  0  0  0  0  0  0  0
   38.2300   23.9180   38.1710 C   0  0  0  0  0  0  0  0  0  0  0  0
   39.4180   23.3640   38.6320 F   0  0  0  0  0  0  0  0  0  0  0  0
   37.9340   24.9990   38.9650 F   0  0  0  0  0  0  0  0  0  0  0  0
   37.2480   22.9460   38.2770 F   0  0  0  0  0  0  0  0  0  0  0  0
   35.5190   29.9190   34.3650 C   0  0  0  0  0  3  0  0  0  0  0  0
   36.1590   30.6220   35.5160 C   0  0  0  0  0  2  0  0  0  0  0  0
   35.2470   31.6190   36.1840 C   0  0  0  0  0  2  0  0  0  0  0  0
   34.1360   32.1280   35.3240 C   0  0  0  0  0  2  0  0  0  0  0  0
   33.3810   31.0610   34.5780 C   0  0  0  0  0  2  0  0  0  0  0  0
   34.0480   29.7050   34.7170 C   0  0  0  0  0  2  0  0  0  0  0  0
  1  8  1  0  0  0  0
  1  5  2  0  0  0  0
  2  1  1  0  0  0  0
  3  2  2  0  0  0  0
  3  4  1  0  0  0  0
  4 20  1  0  0  0  0
  4  5  1  0  0  0  0
  6  2  1  0  0  0  0
  7  3  1  0  0  0  0
  8  9  1  0  0  0  0
  9 10  2  0  0  0  0
  9 14  1  0  0  0  0
 10 16  1  0  0  0  0
 11 10  1  0  0  0  0
 12 11  2  0  0  0  0
 13 12  1  0  0  0  0
 13  8  2  0  0  0  0
 15 12  1  0  0  0  0
 16 19  1  0  0  0  0
 16 17  1  0  0  0  0
 16 18  1  0  0  0  0
 20 25  1  0  0  0  0
 20 21  1  0  0  0  0
 21 22  1  0  0  0  0
 23 22  1  0  0  0  0
 24 25  1  0  0  0  0
 24 23  1  0  0  0  0
M  END
>  <minimizedAffinity>
-5.89974976

$$$$

 OpenBabel03272508033D

 25 27  0  0  0  0  0  0  0  0999 V2000
   37.7030   25.2470   33.8210 C   0  0  0  0  0  0  0  0  0  0  0  0
   37.3070   25.0490   32.5160 C   0  0  0  0  0  0  0  0  0  0  0  0
   36.8450   26.2660   31.9780 C   0  0  0  0  0  0  0  0  0  0  0  0
   36.9870   27.1620   33.0090 N   0  0  0  0  0  0  0  0  0  0  0  0
   37.4870   26.5590   34.0730 N   0  0  0  0  0  0  0  0  0  0  0  0
   37.3250   24.1360   31.9490 H   0  0  0  0  0  0  0  0  0  0  0  0
   36.4620   26.4580   30.9780 H   0  0  0  0  0  0  0  0  0  0  0  0
   38.2400   24.2590   34.7380 C   0  0  0  0  0  0  0  0  0  0  0  0
   38.0070   24.4450   36.1280 C   0  0  0  0  0  0  0  0  0  0  0  0
   38.5200   23.5030   37.0080 C   0  0  0  0  0  0  0  0  0  0  0  0
   39.2160   22.4560   36.4940 N   0  0  0  0  0  0  0  0  0  0  0  0
   39.4280   22.2960   35.1770 C   0  0  0  0  0  0  0  0  0  0  0  0
   38.9300   23.2130   34.3090 N   0  0  0  0  0  0  0  0  0  0  0  0
   37.4370   25.3130   36.4720 H   0  0  0  0  0  0  0  0  0  0  0  0
   39.9850   21.4520   34.8030 H   0  0  0  0  0  0  0  0  0  0  0  0
   38.2830   23.6830   38.4700 C   0  0  0  0  0  0  0  0  0  0  0  0
   39.5130   23.4410   39.0700 F   0  0  0  0  0  0  0  0  0  0  0  0
   37.9000   24.9610   38.7950 F   0  0  0  0  0  0  0  0  0  0  0  0
   37.3850   22.7560   38.9740 F   0  0  0  0  0  0  0  0  0  0  0  0
   36.6200   28.5380   32.8550 C   0  0  0  0  0  3  0  0  0  0  0  0
   35.8610   29.0240   34.0450 C   0  0  0  0  0  2  0  0  0  0  0  0
   35.0230   30.2430   33.7570 C   0  0  0  0  0  2  0  0  0  0  0  0
   35.4740   31.0530   32.5850 C   0  0  0  0  0  2  0  0  0  0  0  0
   35.7760   30.2520   31.3470 C   0  0  0  0  0  2  0  0  0  0  0  0
   35.7400   28.7610   31.6260 C   0  0  0  0  0  2  0  0  0  0  0  0
  1  5  2  0  0  0  0
  1  8  1  0  0  0  0
  2  1  1  0  0  0  0
  3  2  2  0  0  0  0
  3  4  1  0  0  0  0
  4  5  1  0  0  0  0
  6  2  1  0  0  0  0
  7  3  1  0  0  0  0
  8  9  1  0  0  0  0
  9 14  1  0  0  0  0
  9 10  2  0  0  0  0
 10 16  1  0  0  0  0
 11 10  1  0  0  0  0
 12 11  2  0  0  0  0
 13  8  2  0  0  0  0
 13 12  1  0  0  0  0
 15 12  1  0  0  0  0
 16 18  1  0  0  0  0
 16 19  1  0  0  0  0
 16 17  1  0  0  0  0
 20  4  1  0  0  0  0
 20 21  1  0  0  0  0
 22 21  1  0  0  0  0
 23 22  1  0  0  0  0
 24 25  1  0  0  0  0
 24 23  1  0  0  0  0
 25 20  1  0  0  0  0
M  END
>  <minimizedAffinity>
-5.72321272

$$$$

 OpenBabel03272508033D

 25 27  0  0  0  0  0  0  0  0999 V2000
   37.6770   25.8950   34.1700 C   0  0  0  0  0  0  0  0  0  0  0  0
   37.0040   26.9900   34.6660 C   0  0  0  0  0  0  0  0  0  0  0  0
   36.7910   27.9180   33.6290 C   0  0  0  0  0  0  0  0  0  0  0  0
   37.3590   27.3260   32.5290 N   0  0  0  0  0  0  0  0  0  0  0  0
   37.8700   26.1510   32.8550 N   0  0  0  0  0  0  0  0  0  0  0  0
   36.6710   27.1620   35.6740 H   0  0  0  0  0  0  0  0  0  0  0  0
   36.2930   28.8840   33.6810 H   0  0  0  0  0  0  0  0  0  0  0  0
   38.0940   24.7120   34.8990 C   0  0  0  0  0  0  0  0  0  0  0  0
   37.9960   24.7340   36.3170 C   0  0  0  0  0  0  0  0  0  0  0  0
   38.3940   23.6050   37.0170 C   0  0  0  0  0  0  0  0  0  0  0  0
   38.8560   22.5410   36.3100 N   0  0  0  0  0  0  0  0  0  0  0  0
   38.9430   22.5370   34.9690 C   0  0  0  0  0  0  0  0  0  0  0  0
   38.5550   23.6370   34.2770 N   0  0  0  0  0  0  0  0  0  0  0  0
   37.6140   25.6270   36.8210 H   0  0  0  0  0  0  0  0  0  0  0  0
   39.3140   21.6740   34.4390 H   0  0  0  0  0  0  0  0  0  0  0  0
   38.2970   23.6120   38.5050 C   0  0  0  0  0  0  0  0  0  0  0  0
   37.8230   24.8760   38.8340 F   0  0  0  0  0  0  0  0  0  0  0  0
   37.4000   22.6890   38.9860 F   0  0  0  0  0  0  0  0  0  0  0  0
   39.5330   23.4590   39.1130 F   0  0  0  0  0  0  0  0  0  0  0  0
   37.3480   27.9680   31.2480 C   0  0  0  0  0  3  0  0  0  0  0  0
   38.6970   27.9090   30.6100 C   0  0  0  0  0  2  0  0  0  0  0  0
   38.8990   28.9630   29.5510 C   0  0  0  0  0  2  0  0  0  0  0  0
   37.6400   29.4960   28.9480 C   0  0  0  0  0  2  0  0  0  0  0  0
   36.5770   29.8720   29.9450 C   0  0  0  0  0  2  0  0  0  0  0  0
   36.9520   29.4400   31.3500 C   0  0  0  0  0  2  0  0  0  0  0  0
  1  2  1  0  0  0  0
  1  8  1  0  0  0  0
  2  6  1  0  0  0  0
  3  7  1  0  0  0  0
  3  2  2  0  0  0  0
  4  5  1  0  0  0  0
  4  3  1  0  0  0  0
  5  1  2  0  0  0  0
  8  9  1  0  0  0  0
  9 14  1  0  0  0  0
  9 10  2  0  0  0  0
 10 16  1  0  0  0  0
 11 10  1  0  0  0  0
 12 11  2  0  0  0  0
 13  8  2  0  0  0  0
 13 12  1  0  0  0  0
 15 12  1  0  0  0  0
 16 17  1  0  0  0  0
 16 18  1  0  0  0  0
 16 19  1  0  0  0  0
 20 25  1  0  0  0  0
 20  4  1  0  0  0  0
 21 20  1  0  0  0  0
 22 21  1  0  0  0  0
 23 22  1  0  0  0  0
 23 24  1  0  0  0  0
 24 25  1  0  0  0  0
M  END
>  <minimizedAffinity>
-5.66724777

$$$$

 OpenBabel03272508033D

 25 27  0  0  0  0  0  0  0  0999 V2000
   36.9570   27.0090   33.9070 C   0  0  0  0  0  0  0  0  0  0  0  0
   37.2610   25.9640   33.0620 C   0  0  0  0  0  0  0  0  0  0  0  0
   37.9330   24.9590   33.7840 C   0  0  0  0  0  0  0  0  0  0  0  0
   38.0050   25.4570   35.0610 N   0  0  0  0  0  0  0  0  0  0  0  0
   37.4340   26.6480   35.1210 N   0  0  0  0  0  0  0  0  0  0  0  0
   37.0450   25.8760   32.0120 H   0  0  0  0  0  0  0  0  0  0  0  0
   38.3120   24.0070   33.4190 H   0  0  0  0  0  0  0  0  0  0  0  0
   36.2670   28.2410   33.5720 C   0  0  0  0  0  0  0  0  0  0  0  0
   36.0800   29.2010   34.6040 C   0  0  0  0  0  0  0  0  0  0  0  0
   35.4220   30.3810   34.2880 C   0  0  0  0  0  0  0  0  0  0  0  0
   34.9920   30.5540   33.0110 N   0  0  0  0  0  0  0  0  0  0  0  0
   35.1770   29.6350   32.0470 C   0  0  0  0  0  0  0  0  0  0  0  0
   35.8200   28.4790   32.3480 N   0  0  0  0  0  0  0  0  0  0  0  0
   36.4540   28.9950   35.6110 H   0  0  0  0  0  0  0  0  0  0  0  0
   34.8230   29.8050   31.0430 H   0  0  0  0  0  0  0  0  0  0  0  0
   35.2180   31.3990   35.3590 C   0  0  0  0  0  0  0  0  0  0  0  0
   36.3790   31.3620   36.1220 F   0  0  0  0  0  0  0  0  0  0  0  0
   35.0800   32.6720   34.8650 F   0  0  0  0  0  0  0  0  0  0  0  0
   34.1600   31.0770   36.1940 F   0  0  0  0  0  0  0  0  0  0  0  0
   38.6300   24.7160   36.1160 C   0  0  0  0  0  3  0  0  0  0  0  0
   39.4540   23.5990   35.5660 C   0  0  0  0  0  2  0  0  0  0  0  0
   39.7110   22.5020   36.5680 C   0  0  0  0  0  2  0  0  0  0  0  0
   39.6010   22.9210   37.9990 C   0  0  0  0  0  2  0  0  0  0  0  0
   38.3720   23.7270   38.3240 C   0  0  0  0  0  2  0  0  0  0  0  0
   37.6060   24.1050   37.0700 C   0  0  0  0  0  2  0  0  0  0  0  0
  1  5  2  0  0  0  0
  2  3  2  0  0  0  0
  2  1  1  0  0  0  0
  3  4  1  0  0  0  0
  4  5  1  0  0  0  0
  4 20  1  0  0  0  0
  6  2  1  0  0  0  0
  7  3  1  0  0  0  0
  8  1  1  0  0  0  0
  8  9  1  0  0  0  0
  9 14  1  0  0  0  0
 10  9  2  0  0  0  0
 10 16  1  0  0  0  0
 11 10  1  0  0  0  0
 12 13  1  0  0  0  0
 12 11  2  0  0  0  0
 13  8  2  0  0  0  0
 15 12  1  0  0  0  0
 16 17  1  0  0  0  0
 16 19  1  0  0  0  0
 18 16  1  0  0  0  0
 20 25  1  0  0  0  0
 21 20  1  0  0  0  0
 21 22  1  0  0  0  0
 22 23  1  0  0  0  0
 23 24  1  0  0  0  0
 25 24  1  0  0  0  0
M  END
>  <minimizedAffinity>
-5.65208817

$$$$

 OpenBabel03272508033D

 25 27  0  0  0  0  0  0  0  0999 V2000
   37.9980   25.0180   34.8030 C   0  0  0  0  0  0  0  0  0  0  0  0
   37.7940   24.5240   33.5330 C   0  0  0  0  0  0  0  0  0  0  0  0
   37.3450   25.5630   32.6950 C   0  0  0  0  0  0  0  0  0  0  0  0
   37.2990   26.6610   33.5180 N   0  0  0  0  0  0  0  0  0  0  0  0
   37.6810   26.3320   34.7400 N   0  0  0  0  0  0  0  0  0  0  0  0
   37.9370   23.5180   33.1820 H   0  0  0  0  0  0  0  0  0  0  0  0
   37.0920   25.5130   31.6380 H   0  0  0  0  0  0  0  0  0  0  0  0
   38.4580   24.2870   35.9690 C   0  0  0  0  0  0  0  0  0  0  0  0
   39.6890   23.5820   35.8710 C   0  0  0  0  0  0  0  0  0  0  0  0
   40.1320   22.8820   36.9830 C   0  0  0  0  0  0  0  0  0  0  0  0
   39.3660   22.9070   38.1050 N   0  0  0  0  0  0  0  0  0  0  0  0
   38.2030   23.5780   38.1810 C   0  0  0  0  0  0  0  0  0  0  0  0
   37.7630   24.2660   37.0970 N   0  0  0  0  0  0  0  0  0  0  0  0
   40.2550   23.6060   34.9350 H   0  0  0  0  0  0  0  0  0  0  0  0
   37.6200   23.5770   39.0870 H   0  0  0  0  0  0  0  0  0  0  0  0
   41.4220   22.1390   36.8970 C   0  0  0  0  0  0  0  0  0  0  0  0
   41.4430   21.3160   38.0160 F   0  0  0  0  0  0  0  0  0  0  0  0
   41.5030   21.3380   35.7840 F   0  0  0  0  0  0  0  0  0  0  0  0
   42.5200   22.9800   36.9780 F   0  0  0  0  0  0  0  0  0  0  0  0
   36.8830   27.9410   33.0290 C   0  0  0  0  0  3  0  0  0  0  0  0
   36.0850   28.6720   34.0570 C   0  0  0  0  0  2  0  0  0  0  0  0
   35.2070   29.7490   33.4720 C   0  0  0  0  0  2  0  0  0  0  0  0
   35.6510   30.2660   32.1410 C   0  0  0  0  0  2  0  0  0  0  0  0
   36.0050   29.2000   31.1400 C   0  0  0  0  0  2  0  0  0  0  0  0
   36.0190   27.8210   31.7750 C   0  0  0  0  0  2  0  0  0  0  0  0
  1  8  1  0  0  0  0
  2  1  1  0  0  0  0
  3  4  1  0  0  0  0
  3  2  2  0  0  0  0
  4  5  1  0  0  0  0
  5  1  2  0  0  0  0
  6  2  1  0  0  0  0
  7  3  1  0  0  0  0
  8 13  1  0  0  0  0
  9  8  2  0  0  0  0
  9 10  1  0  0  0  0
 10 11  2  0  0  0  0
 11 12  1  0  0  0  0
 12 15  1  0  0  0  0
 13 12  2  0  0  0  0
 14  9  1  0  0  0  0
 16 19  1  0  0  0  0
 16 10  1  0  0  0  0
 16 17  1  0  0  0  0
 18 16  1  0  0  0  0
 20  4  1  0  0  0  0
 20 21  1  0  0  0  0
 22 21  1  0  0  0  0
 23 22  1  0  0  0  0
 24 25  1  0  0  0  0
 24 23  1  0  0  0  0
 25 20  1  0  0  0  0
M  END
>  <minimizedAffinity>
-5.54715347

$$$$

 OpenBabel03272508033D

 25 27  0  0  0  0  0  0  0  0999 V2000
   36.7530   27.7250   33.6710 C   0  0  0  0  0  0  0  0  0  0  0  0
   36.3590   28.2290   32.4500 C   0  0  0  0  0  0  0  0  0  0  0  0
   35.6780   29.4460   32.6440 C   0  0  0  0  0  0  0  0  0  0  0  0
   35.6940   29.6250   34.0050 N   0  0  0  0  0  0  0  0  0  0  0  0
   36.3210   28.6190   34.5910 N   0  0  0  0  0  0  0  0  0  0  0  0
   36.5170   27.8040   31.4750 H   0  0  0  0  0  0  0  0  0  0  0  0
   35.2390   30.1000   31.8930 H   0  0  0  0  0  0  0  0  0  0  0  0
   37.4790   26.4950   33.9240 C   0  0  0  0  0  0  0  0  0  0  0  0
   37.4810   25.9840   35.2500 C   0  0  0  0  0  0  0  0  0  0  0  0
   38.1740   24.8080   35.4960 C   0  0  0  0  0  0  0  0  0  0  0  0
   38.8140   24.2100   34.4570 N   0  0  0  0  0  0  0  0  0  0  0  0
   38.8030   24.7080   33.2090 C   0  0  0  0  0  0  0  0  0  0  0  0
   38.1260   25.8580   32.9600 N   0  0  0  0  0  0  0  0  0  0  0  0
   36.9430   26.5180   36.0390 H   0  0  0  0  0  0  0  0  0  0  0  0
   39.3210   24.2070   32.4070 H   0  0  0  0  0  0  0  0  0  0  0  0
   38.1860   24.2570   36.8820 C   0  0  0  0  0  0  0  0  0  0  0  0
   38.1160   25.3670   37.7150 F   0  0  0  0  0  0  0  0  0  0  0  0
   37.0980   23.4620   37.1490 F   0  0  0  0  0  0  0  0  0  0  0  0
   39.3650   23.5910   37.1730 F   0  0  0  0  0  0  0  0  0  0  0  0
   35.0900   30.7730   34.6130 C   0  0  0  0  0  3  0  0  0  0  0  0
   35.9070   31.2600   35.7630 C   0  0  0  0  0  2  0  0  0  0  0  0
   35.1200   32.0990   36.7370 C   0  0  0  0  0  2  0  0  0  0  0  0
   33.8950   32.7380   36.1680 C   0  0  0  0  0  2  0  0  0  0  0  0
   33.0220   31.8150   35.3610 C   0  0  0  0  0  2  0  0  0  0  0  0
   33.6880   30.4700   35.1400 C   0  0  0  0  0  2  0  0  0  0  0  0
  1  8  1  0  0  0  0
  1  5  2  0  0  0  0
  2  3  2  0  0  0  0
  2  1  1  0  0  0  0
  3  4  1  0  0  0  0
  4  5  1  0  0  0  0
  4 20  1  0  0  0  0
  6  2  1  0  0  0  0
  7  3  1  0  0  0  0
  8  9  1  0  0  0  0
  9 10  2  0  0  0  0
  9 14  1  0  0  0  0
 10 16  1  0  0  0  0
 11 10  1  0  0  0  0
 12 11  2  0  0  0  0
 13 12  1  0  0  0  0
 13  8  2  0  0  0  0
 15 12  1  0  0  0  0
 16 18  1  0  0  0  0
 16 19  1  0  0  0  0
 16 17  1  0  0  0  0
 20 25  1  0  0  0  0
 20 21  1  0  0  0  0
 21 22  1  0  0  0  0
 23 22  1  0  0  0  0
 24 23  1  0  0  0  0
 25 24  1  0  0  0  0
M  END
>  <minimizedAffinity>
-5.43890715

$$$$

 OpenBabel03272508033D

 25 27  0  0  0  0  0  0  0  0999 V2000
   37.0210   26.5020   33.3860 C   0  0  0  0  0  0  0  0  0  0  0  0
   37.1620   25.4410   32.5200 C   0  0  0  0  0  0  0  0  0  0  0  0
   37.7250   24.3480   33.2070 C   0  0  0  0  0  0  0  0  0  0  0  0
   37.9010   24.8130   34.4870 N   0  0  0  0  0  0  0  0  0  0  0  0
   37.4880   26.0650   34.5790 N   0  0  0  0  0  0  0  0  0  0  0  0
   36.9030   25.3960   31.4770 H   0  0  0  0  0  0  0  0  0  0  0  0
   37.9680   23.3610   32.8190 H   0  0  0  0  0  0  0  0  0  0  0  0
   36.4830   27.8170   33.0890 C   0  0  0  0  0  0  0  0  0  0  0  0
   36.1550   28.6650   34.1820 C   0  0  0  0  0  0  0  0  0  0  0  0
   35.6400   29.9220   33.9020 C   0  0  0  0  0  0  0  0  0  0  0  0
   35.4780   30.2740   32.6000 N   0  0  0  0  0  0  0  0  0  0  0  0
   35.7930   29.4600   31.5780 C   0  0  0  0  0  0  0  0  0  0  0  0
   36.2970   28.2280   31.8440 N   0  0  0  0  0  0  0  0  0  0  0  0
   36.3120   28.3160   35.2070 H   0  0  0  0  0  0  0  0  0  0  0  0
   35.6520   29.7710   30.5560 H   0  0  0  0  0  0  0  0  0  0  0  0
   35.2910   30.8250   35.0370 C   0  0  0  0  0  0  0  0  0  0  0  0
   35.1640   32.0880   34.4720 F   0  0  0  0  0  0  0  0  0  0  0  0
   34.0920   30.5030   35.6240 F   0  0  0  0  0  0  0  0  0  0  0  0
   36.3010   30.8920   35.9830 F   0  0  0  0  0  0  0  0  0  0  0  0
   38.4610   23.9820   35.5110 C   0  0  0  0  0  3  0  0  0  0  0  0
   37.7960   24.2320   36.8230 C   0  0  0  0  0  2  0  0  0  0  0  0
   38.6330   23.8050   38.0030 C   0  0  0  0  0  2  0  0  0  0  0  0
   39.6630   22.7660   37.6990 C   0  0  0  0  0  2  0  0  0  0  0  0
   40.4900   23.0420   36.4720 C   0  0  0  0  0  2  0  0  0  0  0  0
   39.9560   24.2330   35.6970 C   0  0  0  0  0  2  0  0  0  0  0  0
  1  5  2  0  0  0  0
  2  3  2  0  0  0  0
  2  1  1  0  0  0  0
  3  4  1  0  0  0  0
  4  5  1  0  0  0  0
  4 20  1  0  0  0  0
  6  2  1  0  0  0  0
  7  3  1  0  0  0  0
  8  1  1  0  0  0  0
  8  9  1  0  0  0  0
  9 14  1  0  0  0  0
 10  9  2  0  0  0  0
 10 16  1  0  0  0  0
 11 10  1  0  0  0  0
 12 13  1  0  0  0  0
 12 11  2  0  0  0  0
 13  8  2  0  0  0  0
 15 12  1  0  0  0  0
 16 18  1  0  0  0  0
 16 19  1  0  0  0  0
 17 16  1  0  0  0  0
 20 25  1  0  0  0  0
 20 21  1  0  0  0  0
 21 22  1  0  0  0  0
 23 22  1  0  0  0  0
 24 23  1  0  0  0  0
 25 24  1  0  0  0  0
M  END
>  <minimizedAffinity>
-5.41770792

$$$$

 OpenBabel03272508033D

 25 27  0  0  0  0  0  0  0  0999 V2000
   37.8580   25.7290   34.8120 C   0  0  0  0  0  0  0  0  0  0  0  0
   38.0240   26.8020   35.6590 C   0  0  0  0  0  0  0  0  0  0  0  0
   37.3800   27.9310   35.1150 C   0  0  0  0  0  0  0  0  0  0  0  0
   36.8430   27.4730   33.9370 N   0  0  0  0  0  0  0  0  0  0  0  0
   37.1260   26.1930   33.7720 N   0  0  0  0  0  0  0  0  0  0  0  0
   38.5500   26.8330   36.5960 H   0  0  0  0  0  0  0  0  0  0  0  0
   37.3190   28.9350   35.5280 H   0  0  0  0  0  0  0  0  0  0  0  0
   38.3600   24.3790   34.9920 C   0  0  0  0  0  0  0  0  0  0  0  0
   39.2800   24.1460   36.0500 C   0  0  0  0  0  0  0  0  0  0  0  0
   39.7620   22.8570   36.2250 C   0  0  0  0  0  0  0  0  0  0  0  0
   39.3290   21.8890   35.3760 N   0  0  0  0  0  0  0  0  0  0  0  0
   38.4590   22.1260   34.3800 C   0  0  0  0  0  0  0  0  0  0  0  0
   37.9820   23.3850   34.2030 N   0  0  0  0  0  0  0  0  0  0  0  0
   39.5860   24.9740   36.6970 H   0  0  0  0  0  0  0  0  0  0  0  0
   38.1350   21.3340   33.7250 H   0  0  0  0  0  0  0  0  0  0  0  0
   40.7280   22.5950   37.3310 C   0  0  0  0  0  0  0  0  0  0  0  0
   40.1260   23.1140   38.4710 F   0  0  0  0  0  0  0  0  0  0  0  0
   40.9460   21.2560   37.5430 F   0  0  0  0  0  0  0  0  0  0  0  0
   41.9270   23.2660   37.1510 F   0  0  0  0  0  0  0  0  0  0  0  0
   36.0940   28.3380   33.0750 C   0  0  0  0  0  3  0  0  0  0  0  0
   36.8900   28.7080   31.8680 C   0  0  0  0  0  2  0  0  0  0  0  0
   36.4040   29.9690   31.2000 C   0  0  0  0  0  2  0  0  0  0  0  0
   34.9780   30.3180   31.4790 C   0  0  0  0  0  2  0  0  0  0  0  0
   34.5870   30.2430   32.9310 C   0  0  0  0  0  2  0  0  0  0  0  0
   35.6910   29.6340   33.7750 C   0  0  0  0  0  2  0  0  0  0  0  0
  1  8  1  0  0  0  0
  1  2  1  0  0  0  0
  2  6  1  0  0  0  0
  3  7  1  0  0  0  0
  3  2  2  0  0  0  0
  4  3  1  0  0  0  0
  5  4  1  0  0  0  0
  5  1  2  0  0  0  0
  8  9  1  0  0  0  0
  9 10  2  0  0  0  0
  9 14  1  0  0  0  0
 10 16  1  0  0  0  0
 11 10  1  0  0  0  0
 12 11  2  0  0  0  0
 13 12  1  0  0  0  0
 13  8  2  0  0  0  0
 15 12  1  0  0  0  0
 16 18  1  0  0  0  0
 16 17  1  0  0  0  0
 19 16  1  0  0  0  0
 20 25  1  0  0  0  0
 20  4  1  0  0  0  0
 21 20  1  0  0  0  0
 22 23  1  0  0  0  0
 22 21  1  0  0  0  0
 23 24  1  0  0  0  0
 24 25  1  0  0  0  0
M  END
>  <minimizedAffinity>
-5.3670516

$$$$

 OpenBabel03272508033D

 25 27  0  0  0  0  0  0  0  0999 V2000
   38.0920   25.3320   35.0040 C   0  0  0  0  0  0  0  0  0  0  0  0
   37.7740   25.0280   36.3090 C   0  0  0  0  0  0  0  0  0  0  0  0
   38.6820   24.0720   36.8020 C   0  0  0  0  0  0  0  0  0  0  0  0
   39.5270   23.8380   35.7450 N   0  0  0  0  0  0  0  0  0  0  0  0
   39.1750   24.5760   34.7070 N   0  0  0  0  0  0  0  0  0  0  0  0
   36.9720   25.4250   36.9060 H   0  0  0  0  0  0  0  0  0  0  0  0
   38.7130   23.6180   37.7910 H   0  0  0  0  0  0  0  0  0  0  0  0
   37.4140   26.2670   34.1250 C   0  0  0  0  0  0  0  0  0  0  0  0
   36.9020   27.4640   34.6960 C   0  0  0  0  0  0  0  0  0  0  0  0
   36.2530   28.3610   33.8590 C   0  0  0  0  0  0  0  0  0  0  0  0
   36.1410   28.0450   32.5430 N   0  0  0  0  0  0  0  0  0  0  0  0
   36.6300   26.9070   32.0200 C   0  0  0  0  0  0  0  0  0  0  0  0
   37.2670   26.0250   32.8320 N   0  0  0  0  0  0  0  0  0  0  0  0
   37.0290   27.6540   35.7650 H   0  0  0  0  0  0  0  0  0  0  0  0
   36.5230   26.6880   30.9700 H   0  0  0  0  0  0  0  0  0  0  0  0
   35.7110   29.6220   34.4410 C   0  0  0  0  0  0  0  0  0  0  0  0
   36.5290   29.9030   35.5280 F   0  0  0  0  0  0  0  0  0  0  0  0
   35.7850   30.6850   33.5740 F   0  0  0  0  0  0  0  0  0  0  0  0
   34.4200   29.4670   34.9200 F   0  0  0  0  0  0  0  0  0  0  0  0
   40.6110   22.9070   35.8500 C   0  0  0  0  0  3  0  0  0  0  0  0
   40.4380   22.0180   37.0370 C   0  0  0  0  0  2  0  0  0  0  0  0
   41.7280   21.3910   37.5020 C   0  0  0  0  0  2  0  0  0  0  0  0
   42.7940   21.3020   36.4590 C   0  0  0  0  0  2  0  0  0  0  0  0
   43.0150   22.5700   35.6770 C   0  0  0  0  0  2  0  0  0  0  0  0
   41.9580   23.6120   35.9950 C   0  0  0  0  0  2  0  0  0  0  0  0
  1  2  1  0  0  0  0
  2  3  2  0  0  0  0
  2  6  1  0  0  0  0
  3  7  1  0  0  0  0
  4 20  1  0  0  0  0
  4  3  1  0  0  0  0
  5  1  2  0  0  0  0
  5  4  1  0  0  0  0
  8  9  1  0  0  0  0
  8  1  1  0  0  0  0
  9 14  1  0  0  0  0
 10 16  1  0  0  0  0
 10  9  2  0  0  0  0
 11 10  1  0  0  0  0
 12 11  2  0  0  0  0
 12 13  1  0  0  0  0
 13  8  2  0  0  0  0
 15 12  1  0  0  0  0
 16 19  1  0  0  0  0
 16 17  1  0  0  0  0
 18 16  1  0  0  0  0
 20 25  1  0  0  0  0
 20 21  1  0  0  0  0
 21 22  1  0  0  0  0
 23 22  1  0  0  0  0
 24 25  1  0  0  0  0
 24 23  1  0  0  0  0
M  END
>  <minimizedAffinity>
-5.348104

$$$$
