
 OpenBabel03272508083D

 21 22  0  0  0  0  0  0  0  0999 V2000
   38.7360   33.0710   48.2100 O   0  0  0  0  0  0  0  0  0  0  0  0
   38.6600   31.9870   47.1940 P   0  0  2  0  0  0  0  0  0  0  0  0
   37.7070   32.4680   45.8880 O   0  0  0  0  0  0  0  0  0  0  0  0
   37.8180   33.4330   45.7550 H   0  0  0  0  0  0  0  0  0  0  0  0
   38.1230   30.5020   47.8040 O   0  0  0  0  0  0  0  0  0  0  0  0
   37.3200   30.1810   51.4000 C   0  0  0  0  0  0  0  0  0  0  0  0
   38.0550   30.5920   50.2870 C   0  0  0  0  0  0  0  0  0  0  0  0
   37.5970   30.2300   49.0170 C   0  0  0  0  0  0  0  0  0  0  0  0
   36.4480   29.4860   48.9430 N   0  0  0  0  0  0  0  0  0  0  0  0
   35.7730   29.1120   50.0440 C   0  0  0  0  0  0  0  0  0  0  0  0
   36.2010   29.4540   51.2570 N   0  0  0  0  0  0  0  0  0  0  0  0
   37.7580   30.5130   52.3250 H   0  0  0  0  0  0  0  0  0  0  0  0
   38.9590   31.1730   50.2680 H   0  0  0  0  0  0  0  0  0  0  0  0
   34.8550   28.5170   49.9670 H   0  0  0  0  0  0  0  0  0  0  0  0
   40.2440   31.7630   46.5720 O   0  0  0  0  0  0  0  0  0  0  0  0
   40.1970   31.0190   45.4180 C   0  0  0  0  0  0  0  0  0  0  0  0
   38.8290   30.4000   45.2660 C   0  0  0  0  0  0  0  0  0  0  0  0
   38.9550   29.3850   44.1330 C   0  0  0  0  0  0  0  0  0  0  0  0
   39.1650   30.1520   42.8640 C   0  0  0  0  0  0  0  0  0  0  0  0
   39.5490   31.5830   43.0440 C   0  0  0  0  0  0  0  0  0  0  0  0
   40.4820   31.8330   44.1780 C   0  0  0  0  0  0  0  0  0  0  0  0
  2  5  1  0  0  0  0
  2  1  2  1  0  0  0
  3  2  1  0  0  0  0
  4  3  1  0  0  0  0
  5  8  1  0  0  0  0
  6 12  1  0  0  0  0
  7  6  2  0  0  0  0
  8  7  1  0  0  0  0
  9  8  2  0  0  0  0
  9 10  1  0  0  0  0
 10 11  2  0  0  0  0
 11  6  1  0  0  0  0
 13  7  1  0  0  0  0
 14 10  1  0  0  0  0
 15  2  1  0  0  0  0
 16 15  1  0  0  0  0
 17 16  1  0  0  0  0
 18 17  1  0  0  0  0
 19 20  1  0  0  0  0
 19 18  1  0  0  0  0
 20 21  1  0  0  0  0
 21 16  1  0  0  0  0
M  END
>  <minimizedAffinity>
-5.42621756

>  <minimizedRMSD>
0.56634903

$$$$
