
     RDKit          3D

 48 51  0  0  0  0  0  0  0  0999 V2000
   38.4491   31.1088   48.1634 C   0  0  2  0  0  0  0  0  0  0  0  0
   38.7015   32.5715   48.0922 C   0  0  0  0  0  0  0  0  0  0  0  0
   38.0829   31.7486   46.9424 C   0  0  1  0  0  0  0  0  0  0  0  0
   35.0809   30.2666   49.4976 C   0  0  0  0  0  0  0  0  0  0  0  0
   35.4137   29.5592   50.7050 C   0  0  0  0  0  0  0  0  0  0  0  0
   36.8135   29.3997   51.0307 C   0  0  0  0  0  0  0  0  0  0  0  0
   37.7728   29.9181   50.1946 N   0  0  0  0  0  0  0  0  0  0  0  0
   37.3630   30.5759   49.0676 C   0  0  0  0  0  0  0  0  0  0  0  0
   36.0387   30.7680   48.6904 N   0  0  0  0  0  0  0  0  0  0  0  0
   38.3530   31.9069   44.4784 C   0  0  0  0  0  0  0  0  0  0  0  0
   37.2445   32.4433   44.3867 O   0  0  0  0  0  0  0  0  0  0  0  0
   38.9330   31.6469   45.7821 N   0  0  0  0  0  0  0  0  0  0  0  0
   39.1294   31.5105   43.2892 C   0  0  0  0  0  0  0  0  0  0  0  0
   40.1518   30.6047   43.4455 C   0  0  0  0  0  0  0  0  0  0  0  0
   40.8705   30.2489   42.3107 C   0  0  0  0  0  0  0  0  0  0  0  0
   40.5231   30.8128   41.1193 C   0  0  0  0  0  0  0  0  0  0  0  0
   39.4999   31.7209   40.9518 C   0  0  0  0  0  0  0  0  0  0  0  0
   38.8199   32.0456   42.0830 N   0  0  0  0  0  0  0  0  0  0  0  0
   39.1204   32.3054   39.6549 C   0  0  0  0  0  0  0  0  0  0  0  0
   38.8901   33.5725   39.6496 O   0  0  0  0  0  0  0  0  0  0  0  0
   39.3726   30.5025   48.2484 H   0  0  0  0  0  0  0  0  0  0  0  0
   39.7201   32.9330   47.9657 H   0  0  0  0  0  0  0  0  0  0  0  0
   38.0469   33.2073   48.7033 H   0  0  0  0  0  0  0  0  0  0  0  0
   37.0144   32.0261   46.7753 H   0  0  0  0  0  0  0  0  0  0  0  0
   34.0432   30.3705   49.2802 H   0  0  0  0  0  0  0  0  0  0  0  0
   34.6722   29.1583   51.3516 H   0  0  0  0  0  0  0  0  0  0  0  0
   37.0615   28.8761   51.9246 H   0  0  0  0  0  0  0  0  0  0  0  0
   39.9106   31.3951   45.9417 H   0  0  0  0  0  0  0  0  0  0  0  0
   40.4099   30.1663   44.4085 H   0  0  0  0  0  0  0  0  0  0  0  0
   41.6638   29.5401   42.4611 H   0  0  0  0  0  0  0  0  0  0  0  0
   41.1464   30.4576   40.3204 H   0  0  0  0  0  0  0  0  0  0  0  0
   38.9392   31.6965   38.3114 C   0  0  0  0  0  0  0  0  0  0  0  0
   40.2475   31.4958   37.6638 C   0  0  0  0  0  0  0  0  0  0  0  0
   40.1554   30.2816   36.7299 C   0  0  0  0  0  0  0  0  0  0  0  0
   40.0553   29.0949   37.6860 C   0  0  0  0  0  0  0  0  0  0  0  0
   38.7831   29.1589   38.4873 C   0  0  0  0  0  0  0  0  0  0  0  0
   38.0679   30.4639   38.3834 C   0  0  0  0  0  0  0  0  0  0  0  0
   38.3493   32.4146   37.7049 H   0  0  0  0  0  0  0  0  0  0  0  0
   41.1378   31.4078   38.2695 H   0  0  0  0  0  0  0  0  0  0  0  0
   40.4318   32.3899   36.9849 H   0  0  0  0  0  0  0  0  0  0  0  0
   39.2791   30.3485   36.0652 H   0  0  0  0  0  0  0  0  0  0  0  0
   41.1074   30.2058   36.1818 H   0  0  0  0  0  0  0  0  0  0  0  0
   40.9544   29.1427   38.3318 H   0  0  0  0  0  0  0  0  0  0  0  0
   40.1540   28.1937   37.0557 H   0  0  0  0  0  0  0  0  0  0  0  0
   38.1289   28.3413   38.1194 H   0  0  0  0  0  0  0  0  0  0  0  0
   39.0307   28.9077   39.5364 H   0  0  0  0  0  0  0  0  0  0  0  0
   37.3635   30.4020   37.5272 H   0  0  0  0  0  0  0  0  0  0  0  0
   37.4328   30.5804   39.2873 H   0  0  0  0  0  0  0  0  0  0  0  0
  1  8  1  0
  2  1  1  0
  3  2  1  0
  3  1  1  0
  4  5  2  0
  5  6  1  0
  7  6  2  0
  8  7  1  0
  9  8  2  0
  9  4  1  0
 10 12  1  0
 11 10  2  0
 12  3  1  0
 13 14  2  0
 13 10  1  0
 15 14  1  0
 16 15  2  0
 17 16  1  0
 17 18  2  0
 18 13  1  0
 19 17  1  0
 20 19  2  0
  1 21  1  6
  2 22  1  0
  2 23  1  0
  3 24  1  6
  4 25  1  0
  5 26  1  0
  6 27  1  0
 12 28  1  0
 14 29  1  0
 15 30  1  0
 16 31  1  0
 32 33  1  0
 33 34  1  0
 34 35  1  0
 35 36  1  0
 36 37  1  0
 37 32  1  0
 32 38  1  0
 33 39  1  0
 33 40  1  0
 34 41  1  0
 34 42  1  0
 35 43  1  0
 35 44  1  0
 36 45  1  0
 36 46  1  0
 37 47  1  0
 37 48  1  0
 19 32  1  0
M  ISO  8  21  13  22  13  23  13  24  13  25  14  26  14  27  14  29  14
M  ISO  2  30  14  31  14
M  END
>  <DihAtoms>  (1) 
16,18,31,32

>  <DihDeg>  (1) 
-79.71389072446945

$$$$
