REMARK  Name = 
REMARK  5 active torsions:
REMARK  status: ('A' for Active; 'I' for Inactive)
REMARK    1  A    between atoms: C_1  and  O_14
REMARK    2  A    between atoms: C_2  and  C_8
REMARK    3  A    between atoms: C_6  and  O_15
REMARK    4  A    between atoms: C_9  and  C_13
REMARK    5  A    between atoms: O_15  and  C_25
REMARK                            x       y       z     vdW  Elec       q    Type
REMARK                         _______ _______ _______ _____ _____    ______ ____
ROOT
ATOM      1  C   UNL     1      37.999  31.392  47.630  0.00  0.00    +0.000 A 
ATOM      2  C   UNL     1      37.080  31.327  48.673  0.00  0.00    +0.000 A 
ATOM      3  C   UNL     1      37.193  32.354  49.633  0.00  0.00    +0.000 A 
ATOM      4  C   UNL     1      38.180  33.345  49.496  0.00  0.00    +0.000 A 
ATOM      5  C   UNL     1      39.050  33.319  48.416  0.00  0.00    +0.000 A 
ATOM      6  C   UNL     1      38.963  32.331  47.467  0.00  0.00    +0.000 A 
ATOM      7  H   UNL     1      36.475  32.296  50.437  0.00  0.00    +0.000 HD
ATOM      8  H   UNL     1      38.126  34.037  50.301  0.00  0.00    +0.000 HD
ATOM      9  H   UNL     1      39.708  34.158  48.517  0.00  0.00    +0.000 HD
ENDROOT
BRANCH   2  11
ATOM     10  C   UNL     1      34.937  30.348  47.980  0.00  0.00    +0.000 A 
ATOM     11  C   UNL     1      36.080  30.309  48.794  0.00  0.00    +0.000 A 
ATOM     12  C   UNL     1      36.195  29.260  49.702  0.00  0.00    +0.000 A 
ATOM     13  N   UNL     1      35.201  28.332  49.757  0.00  0.00    +0.000 NA
ATOM     14  C   UNL     1      34.105  28.406  48.950  0.00  0.00    +0.000 A 
ATOM     15  N   UNL     1      33.978  29.411  48.066  0.00  0.00    +0.000 NA
ATOM     16  H   UNL     1      34.849  31.163  47.275  0.00  0.00    +0.000 HD
ATOM     17  H   UNL     1      33.327  27.653  49.014  0.00  0.00    +0.000 HD
BRANCH  12  18
ATOM     18  C   UNL     1      37.370  29.163  50.580  0.00  0.00    +0.000 C 
ATOM     19  H   UNL     1      37.537  30.143  51.085  0.00  0.00    +0.000 HD
ATOM     20  H   UNL     1      37.164  28.395  51.358  0.00  0.00    +0.000 HD
ATOM     21  H   UNL     1      38.284  28.810  50.057  0.00  0.00    +0.000 HD
ENDBRANCH  12  18
ENDBRANCH   2  11
BRANCH   1  22
ATOM     22  O   UNL     1      37.947  30.405  46.640  0.00  0.00    +0.000 OA
ATOM     23  H   UNL     1      37.531  30.555  45.735  0.00  0.00    +0.000 HD
ENDBRANCH   1  22
BRANCH   6  24
ATOM     24  O   UNL     1      39.837  32.341  46.413  0.00  0.00    +0.000 OA
BRANCH  24  25
ATOM     25  C   UNL     1      40.836  33.275  46.196  0.00  0.00    +0.000 C 
ATOM     26  C   UNL     1      40.513  34.639  46.754  0.00  0.00    +0.000 C 
ATOM     27  C   UNL     1      40.132  35.644  45.715  0.00  0.00    +0.000 C 
ATOM     28  C   UNL     1      41.088  35.739  44.566  0.00  0.00    +0.000 C 
ATOM     29  C   UNL     1      41.923  34.533  44.332  0.00  0.00    +0.000 C 
ATOM     30  C   UNL     1      41.126  33.327  44.710  0.00  0.00    +0.000 C 
ENDBRANCH  24  25
ENDBRANCH   6  24
TORSDOF 5
