
 OpenBabel03272508573D

 37 40  0  0  1  0  0  0  0  0999 V2000
   38.3470   31.8670   44.5320 C   0  0  0  0  0  0  0  0  0  0  0  0
   37.2380   32.4000   44.4270 O   0  0  0  0  0  0  0  0  0  0  0  0
   38.9150   31.6170   45.8430 N   0  0  0  0  0  0  0  0  0  0  0  0
   39.8920   31.3690   46.0130 H   0  0  0  0  0  0  0  0  0  0  0  0
   39.1350   31.4670   43.3520 C   0  0  0  0  0  0  0  0  0  0  0  0
   40.1550   30.5590   43.5230 C   0  0  0  0  0  0  0  0  0  0  0  0
   40.8840   30.1980   42.3970 C   0  0  0  0  0  0  0  0  0  0  0  0
   40.5520   30.7600   41.2000 C   0  0  0  0  0  0  0  0  0  0  0  0
   39.5320   31.6690   41.0190 C   0  0  0  0  0  0  0  0  0  0  0  0
   38.8400   31.9990   42.1410 N   0  0  0  0  0  0  0  0  0  0  0  0
   40.4010   30.1220   44.4890 H   0  0  0  0  0  0  0  0  0  0  0  0
   41.6750   29.4880   42.5580 H   0  0  0  0  0  0  0  0  0  0  0  0
   41.1830   30.4010   40.4090 H   0  0  0  0  0  0  0  0  0  0  0  0
   39.1680   32.2500   39.7160 C   0  0  2  0  0  3  0  0  0  0  0  0
   38.9360   33.5170   39.7060 O   0  0  0  0  0  1  0  0  0  0  0  0
   39.0050   31.6390   38.3710 C   0  0  0  0  0  3  0  0  0  0  0  0
   40.3230   31.2970   37.8060 C   0  0  0  0  0  2  0  0  0  0  0  0
   40.1630   30.0810   36.8840 C   0  0  0  0  0  2  0  0  0  0  0  0
   39.8870   28.9280   37.8460 C   0  0  0  0  0  2  0  0  0  0  0  0
   38.5830   29.1340   38.5680 C   0  0  0  0  0  2  0  0  0  0  0  0
   38.0110   30.5020   38.4060 C   0  0  0  0  0  2  0  0  0  0  0  0
   38.4200   31.1090   48.2280 C   0  0  2  0  0  0  0  0  0  0  0  0
   38.6500   32.5750   48.1350 C   0  0  0  0  0  0  0  0  0  0  0  0
   38.0540   31.7240   46.9940 C   0  0  1  0  0  0  0  0  0  0  0  0
   39.3530   30.5200   48.3300 H   0  0  0  0  0  0  0  0  0  0  0  0
   39.6630   32.9510   48.0120 H   0  0  0  0  0  0  0  0  0  0  0  0
   37.9790   33.2090   48.7310 H   0  0  0  0  0  0  0  0  0  0  0  0
   36.9820   31.9800   46.8140 H   0  0  0  0  0  0  0  0  0  0  0  0
   35.0560   30.2140   49.5390 C   0  0  0  0  0  0  0  0  0  0  0  0
   35.3900   29.5510   50.7710 C   0  0  0  0  0  0  0  0  0  0  0  0
   36.7880   29.4390   51.1210 C   0  0  0  0  0  0  0  0  0  0  0  0
   37.7460   29.9590   50.2840 N   0  0  0  0  0  0  0  0  0  0  0  0
   37.3350   30.5730   49.1330 C   0  0  0  0  0  0  0  0  0  0  0  0
   36.0130   30.7180   48.7300 N   0  0  0  0  0  0  0  0  0  0  0  0
   34.0190   30.2820   49.3030 H   0  0  0  0  0  0  0  0  0  0  0  0
   34.6500   29.1480   51.4180 H   0  0  0  0  0  0  0  0  0  0  0  0
   37.0380   28.9480   52.0330 H   0  0  0  0  0  0  0  0  0  0  0  0
  1  3  1  0  0  0  0
  2  1  2  0  0  0  0
  3  4  1  0  0  0  0
  3 24  1  0  0  0  0
  5  6  1  0  0  0  0
  5  1  1  0  0  0  0
  6 11  1  0  0  0  0
  7 12  1  0  0  0  0
  7  6  2  0  0  0  0
  8  7  1  0  0  0  0
  9  8  2  0  0  0  0
  9 10  1  0  0  0  0
 10  5  2  0  0  0  0
 13  8  1  0  0  0  0
 14 15  1  1  0  0  0
 14  9  1  0  0  0  0
 16 21  1  0  0  0  0
 16 14  1  0  0  0  0
 17 16  1  0  0  0  0
 18 17  1  0  0  0  0
 18 19  1  0  0  0  0
 19 20  1  0  0  0  0
 21 20  1  0  0  0  0
 22 25  1  6  0  0  0
 22 33  1  0  0  0  0
 23 22  1  0  0  0  0
 23 27  1  0  0  0  0
 24 28  1  6  0  0  0
 24 23  1  0  0  0  0
 24 22  1  0  0  0  0
 26 23  1  0  0  0  0
 29 30  1  0  0  0  0
 30 31  2  0  0  0  0
 30 36  1  0  0  0  0
 31 37  1  0  0  0  0
 32 31  1  0  0  0  0
 33 32  2  0  0  0  0
 34 33  1  0  0  0  0
 34 29  2  0  0  0  0
 35 29  1  0  0  0  0
M  END
>  <minimizedAffinity>
-4.97429943

>  <minimizedRMSD>
0.579823971

$$$$
