
 OpenBabel03272506433D

 29 31  0  0  1  0  0  0  0  0999 V2000
   32.3720   28.3030   47.6020 C   0  0  2  0  0  0  0  0  0  0  0  0
   33.6520   28.3210   48.4100 C   0  0  1  0  0  0  0  0  0  0  0  0
   34.2150   27.0730   48.3250 O   0  0  0  0  0  0  0  0  0  0  0  0
   33.5470   26.3360   47.3730 C   0  0  0  0  0  0  0  0  0  0  0  0
   32.7650   27.3340   46.5220 C   0  0  1  0  0  0  0  0  0  0  0  0
   31.5180   27.9220   48.1970 H   0  0  0  0  0  0  0  0  0  0  0  0
   33.4270   28.6330   49.4470 H   0  0  0  0  0  0  0  0  0  0  0  0
   32.8530   25.5890   47.7970 H   0  0  0  0  0  0  0  0  0  0  0  0
   34.3200   25.9050   46.7020 H   0  0  0  0  0  0  0  0  0  0  0  0
   33.3920   27.8410   45.7740 H   0  0  0  0  0  0  0  0  0  0  0  0
   32.0900   29.5710   47.0740 O   0  0  0  0  0  0  0  0  0  0  0  0
   32.0800   30.2370   47.8050 H   0  0  0  0  0  0  0  0  0  0  0  0
   34.7680   29.4960   47.5800 S   0  0  0  0  0  0  0  0  0  0  0  0
   37.3990   29.4920   50.5320 C   0  0  0  0  0  0  0  0  0  0  0  0
   38.0050   30.7400   50.4960 C   0  0  0  0  0  0  0  0  0  0  0  0
   37.5780   31.6330   49.5050 C   0  0  0  0  0  0  0  0  0  0  0  0
   36.6000   31.2360   48.6360 N   0  0  0  0  0  0  0  0  0  0  0  0
   36.0390   30.0130   48.7100 C   0  0  0  0  0  0  0  0  0  0  0  0
   36.4350   29.1280   49.6610 N   0  0  0  0  0  0  0  0  0  0  0  0
   37.7380   28.8170   51.3000 H   0  0  0  0  0  0  0  0  0  0  0  0
   38.7740   31.0710   51.1690 H   0  0  0  0  0  0  0  0  0  0  0  0
   37.9670   32.6350   49.3660 H   0  0  0  0  0  0  0  0  0  0  0  0
   31.6770   26.7190   45.9170 O   0  0  0  0  0  0  0  0  0  0  0  0
   31.4400   27.1680   44.6300 C   0  0  0  0  0  3  0  0  0  0  0  0
   31.4030   26.0150   43.6390 C   0  0  0  0  0  2  0  0  0  0  0  0
   30.2690   26.1340   42.6610 C   0  0  0  0  0  2  0  0  0  0  0  0
   30.1070   27.5350   42.1240 C   0  0  0  0  0  2  0  0  0  0  0  0
   30.1280   28.6000   43.1830 C   0  0  0  0  0  2  0  0  0  0  0  0
   30.1040   27.8770   44.5340 C   0  0  0  0  0  2  0  0  0  0  0  0
  1  6  1  1  0  0  0
  1  2  1  0  0  0  0
  2  7  1  1  0  0  0
  3  2  1  0  0  0  0
  4  8  1  0  0  0  0
  4  3  1  0  0  0  0
  5 10  1  6  0  0  0
  5  4  1  0  0  0  0
  5  1  1  0  0  0  0
  9  4  1  0  0  0  0
 11  1  1  0  0  0  0
 11 12  1  0  0  0  0
 13  2  1  0  0  0  0
 13 18  1  0  0  0  0
 14 20  1  0  0  0  0
 15 14  1  0  0  0  0
 15 21  1  0  0  0  0
 16 15  2  0  0  0  0
 17 18  2  0  0  0  0
 17 16  1  0  0  0  0
 18 19  1  0  0  0  0
 19 14  2  0  0  0  0
 22 16  1  0  0  0  0
 23  5  1  0  0  0  0
 24 23  1  0  0  0  0
 25 24  1  0  0  0  0
 26 25  1  0  0  0  0
 27 26  1  0  0  0  0
 27 28  1  0  0  0  0
 28 29  1  0  0  0  0
 29 24  1  0  0  0  0
M  END
>  <minimizedAffinity>
-3.73196459

>  <minimizedRMSD>
0.707449913

$$$$
