
 OpenBabel03272509403D

 32 34  0  0  1  0  0  0  0  0999 V2000
   37.0620   30.9600   49.0820 C   0  0  0  0  0  0  0  0  0  0  0  0
   36.8140   31.8950   50.0890 C   0  0  0  0  0  0  0  0  0  0  0  0
   37.4370   33.1370   50.0960 C   0  0  0  0  0  0  0  0  0  0  0  0
   38.3330   33.4740   49.0820 C   0  0  0  0  0  0  0  0  0  0  0  0
   38.5610   32.5390   48.1060 C   0  0  0  0  0  0  0  0  0  0  0  0
   37.9330   31.3100   48.1150 C   0  0  0  0  0  0  0  0  0  0  0  0
   36.1260   31.6580   50.8800 H   0  0  0  0  0  0  0  0  0  0  0  0
   37.1990   33.8160   50.9060 H   0  0  0  0  0  0  0  0  0  0  0  0
   38.7900   34.4450   49.1310 H   0  0  0  0  0  0  0  0  0  0  0  0
   39.2700   32.8800   47.3570 H   0  0  0  0  0  0  0  0  0  0  0  0
   36.3680   29.6860   49.1490 C   0  0  2  0  0  0  0  0  0  0  0  0
   36.8880   28.8300   49.9580 O   0  0  0  0  0  0  0  0  0  0  0  0
   33.5980   30.1570   46.8550 C   0  0  0  0  0  0  0  0  0  0  0  0
   32.9420   28.9260   46.8610 C   0  0  0  0  0  0  0  0  0  0  0  0
   33.4520   27.9190   47.6600 C   0  0  0  0  0  0  0  0  0  0  0  0
   34.5660   28.1620   48.4070 N   0  0  0  0  0  0  0  0  0  0  0  0
   35.1720   29.3420   48.3840 C   0  0  0  0  0  0  0  0  0  0  0  0
   34.6740   30.3190   47.6060 N   0  0  0  0  0  0  0  0  0  0  0  0
   33.2000   30.9390   46.2320 H   0  0  0  0  0  0  0  0  0  0  0  0
   32.0510   28.7270   46.2650 H   0  0  0  0  0  0  0  0  0  0  0  0
   32.9800   26.9470   47.7000 H   0  0  0  0  0  0  0  0  0  0  0  0
   38.2900   30.4490   47.0120 C   0  0  0  0  0  0  0  0  0  0  0  0
   38.8860   30.7790   45.8880 C   0  0  0  0  0  0  0  0  0  0  0  0
   39.3150   30.0290   44.7140 C   0  0  0  0  0  0  0  0  0  0  0  0
   40.4110   29.8500   44.7030 H   0  0  0  0  0  0  0  0  0  0  0  0
   38.8640   28.9960   44.7750 H   0  0  0  0  0  0  0  0  0  0  0  0
   38.8170   30.5650   43.3880 C   0  0  0  0  0  0  0  0  0  0  0  0
   39.1630   32.0380   43.3650 C   0  0  0  0  0  0  0  0  0  0  0  0
   38.9380   32.6550   42.0050 C   0  0  0  0  0  0  0  0  0  0  0  0
   39.5170   31.7950   40.9000 C   0  0  0  0  0  0  0  0  0  0  0  0
   40.4600   30.7770   41.5520 C   0  0  0  0  0  0  0  0  0  0  0  0
   39.5470   29.8040   42.3030 C   0  0  0  0  0  0  0  0  0  0  0  0
  1 11  1  0  0  0  0
  1  2  1  0  0  0  0
  2  3  2  0  0  0  0
  2  7  1  0  0  0  0
  3  8  1  0  0  0  0
  4  9  1  0  0  0  0
  4  3  1  0  0  0  0
  5  6  1  0  0  0  0
  5  4  2  0  0  0  0
  6  1  2  0  0  0  0
 10  5  1  0  0  0  0
 11 12  1  6  0  0  0
 13 14  2  0  0  0  0
 13 18  1  0  0  0  0
 14 15  1  0  0  0  0
 15 21  1  0  0  0  0
 15 16  2  0  0  0  0
 17 16  1  0  0  0  0
 17 11  1  0  0  0  0
 18 17  2  0  0  0  0
 19 13  1  0  0  0  0
 20 14  1  0  0  0  0
 22  6  1  0  0  0  0
 23 22  2  0  0  0  0
 24 26  1  0  0  0  0
 24 23  1  0  0  0  0
 25 24  1  0  0  0  0
 27 24  1  0  0  0  0
 28 27  1  0  0  0  0
 29 28  1  0  0  0  0
 30 31  1  0  0  0  0
 30 29  1  0  0  0  0
 31 32  1  0  0  0  0
 32 27  1  0  0  0  0
M  END
>  <minimizedAffinity>
-5.95300055

>  <minimizedRMSD>
2.46162152

$$$$
