
 OpenBabel03262522043D

 36 39  0  0  1  0  0  0  0  0999 V2000
   37.6050   22.9990   31.2140 C   0  0  2  0  0  0  0  0  0  0  0  0
   37.4590   24.4530   30.8480 C   0  0  0  0  0  0  0  0  0  0  0  0
   38.0000   25.2650   31.9070 N   0  0  0  0  0  0  0  0  0  0  0  0
   38.7460   26.2240   32.6680 C   0  0  0  0  0  0  0  0  0  0  0  0
   39.4820   27.2100   32.4400 O   0  0  0  0  0  0  0  0  0  0  0  0
   38.3620   25.6570   33.9590 C   0  0  1  0  0  0  0  0  0  0  0  0
   37.3650   24.8740   33.1410 C   0  0  2  0  0  0  0  0  0  0  0  0
   37.6950   23.0870   33.0350 S   0  0  0  0  0  0  0  0  0  0  0  0
   37.9830   24.6940   29.8970 H   0  0  0  0  0  0  0  0  0  0  0  0
   36.4040   24.7130   30.7130 H   0  0  0  0  0  0  0  0  0  0  0  0
   37.8580   26.3440   34.6760 H   0  0  0  0  0  0  0  0  0  0  0  0
   36.3050   25.1350   33.2700 H   0  0  0  0  0  0  0  0  0  0  0  0
   38.7720   22.2980   30.5970 C   0  0  0  0  0  0  0  0  0  0  0  0
   39.5120   23.0640   30.2730 H   0  0  0  0  0  0  0  0  0  0  0  0
   38.4600   21.7160   29.7050 H   0  0  0  0  0  0  0  0  0  0  0  0
   39.2220   21.6080   31.3470 H   0  0  0  0  0  0  0  0  0  0  0  0
   36.2970   22.2860   30.9030 C   0  0  0  0  0  0  0  0  0  0  0  0
   35.5120   22.9050   31.4120 H   0  0  0  0  0  0  0  0  0  0  0  0
   36.0780   22.3570   29.8250 H   0  0  0  0  0  0  0  0  0  0  0  0
   36.2440   20.9010   31.4420 C   0  0  0  0  0  3  0  0  0  0  0  0
   36.3380   19.8810   30.2910 C   0  0  0  0  0  2  0  0  0  0  0  0
   36.8310   18.5940   30.9160 C   0  0  0  0  0  2  0  0  0  0  0  0
   36.1610   18.4170   32.2440 C   0  0  0  0  0  2  0  0  0  0  0  0
   34.8090   19.0590   32.3050 C   0  0  0  0  0  2  0  0  0  0  0  0
   34.9860   20.5760   32.2000 C   0  0  0  0  0  2  0  0  0  0  0  0
   39.4000   24.8840   34.6630 C   0  0  0  0  0  0  0  0  0  0  0  0
   40.4790   24.7670   34.0130 O   0  0  0  0  0  0  0  0  0  0  0  0
   39.2010   24.3180   35.9720 C   0  0  0  0  0  0  0  0  0  0  0  0
   40.0810   23.3270   36.3780 C   0  0  0  0  0  0  0  0  0  0  0  0
   39.8950   22.7620   37.6600 C   0  0  0  0  0  0  0  0  0  0  0  0
   38.8650   23.2280   38.4140 N   0  0  0  0  0  0  0  0  0  0  0  0
   38.0250   24.1920   37.9930 C   0  0  0  0  0  0  0  0  0  0  0  0
   38.2040   24.7310   36.7670 N   0  0  0  0  0  0  0  0  0  0  0  0
   40.8790   23.0000   35.7340 H   0  0  0  0  0  0  0  0  0  0  0  0
   40.5660   21.9810   38.0160 H   0  0  0  0  0  0  0  0  0  0  0  0
   37.2040   24.5630   38.5940 H   0  0  0  0  0  0  0  0  0  0  0  0
  1 13  1  6  0  0  0
  1  8  1  0  0  0  0
  2  1  1  0  0  0  0
  2  3  1  0  0  0  0
  3  4  1  0  0  0  0
  3  7  1  0  0  0  0
  4  6  1  0  0  0  0
  5  4  2  0  0  0  0
  6 26  1  0  0  0  0
  6 11  1  1  0  0  0
  7 12  1  1  0  0  0
  7  6  1  0  0  0  0
  8  7  1  0  0  0  0
  9  2  1  0  0  0  0
 10  2  1  0  0  0  0
 13 16  1  0  0  0  0
 14 13  1  0  0  0  0
 15 13  1  0  0  0  0
 17  1  1  0  0  0  0
 17 18  1  0  0  0  0
 17 20  1  0  0  0  0
 19 17  1  0  0  0  0
 20 25  1  0  0  0  0
 21 22  1  0  0  0  0
 21 20  1  0  0  0  0
 22 23  1  0  0  0  0
 23 24  1  0  0  0  0
 25 24  1  0  0  0  0
 26 28  1  0  0  0  0
 27 26  2  0  0  0  0
 28 29  2  0  0  0  0
 28 33  1  0  0  0  0
 29 30  1  0  0  0  0
 30 35  1  0  0  0  0
 30 31  2  0  0  0  0
 32 31  1  0  0  0  0
 32 36  1  0  0  0  0
 33 32  2  0  0  0  0
 34 29  1  0  0  0  0
M  END
>  <minimizedAffinity>
-5.52344608

$$$$

 OpenBabel03262522043D

 36 39  0  0  1  0  0  0  0  0999 V2000
   36.8610   27.5880   32.2380 C   0  0  2  0  0  0  0  0  0  0  0  0
   38.2300   27.5640   31.6100 C   0  0  0  0  0  0  0  0  0  0  0  0
   39.0390   26.5770   32.2780 N   0  0  0  0  0  0  0  0  0  0  0  0
   39.8920   25.4650   32.5790 C   0  0  0  0  0  0  0  0  0  0  0  0
   40.6190   24.6640   31.9500 O   0  0  0  0  0  0  0  0  0  0  0  0
   39.6460   25.5290   34.0180 C   0  0  1  0  0  0  0  0  0  0  0  0
   39.0150   26.8600   33.6920 C   0  0  2  0  0  0  0  0  0  0  0  0
   37.2080   26.9220   33.9020 S   0  0  0  0  0  0  0  0  0  0  0  0
   38.1820   27.3250   30.5250 H   0  0  0  0  0  0  0  0  0  0  0  0
   38.7170   28.5390   31.7080 H   0  0  0  0  0  0  0  0  0  0  0  0
   40.5400   25.6470   34.6730 H   0  0  0  0  0  0  0  0  0  0  0  0
   39.5460   27.7580   34.0380 H   0  0  0  0  0  0  0  0  0  0  0  0
   35.8060   26.8250   31.5040 C   0  0  0  0  0  0  0  0  0  0  0  0
   36.3060   26.0920   30.8320 H   0  0  0  0  0  0  0  0  0  0  0  0
   35.1870   27.5020   30.8800 H   0  0  0  0  0  0  0  0  0  0  0  0
   35.1530   26.3040   32.2400 H   0  0  0  0  0  0  0  0  0  0  0  0
   36.4510   29.0380   32.4540 C   0  0  0  0  0  0  0  0  0  0  0  0
   37.3450   29.5130   32.9390 H   0  0  0  0  0  0  0  0  0  0  0  0
   36.3380   29.5450   31.4830 H   0  0  0  0  0  0  0  0  0  0  0  0
   35.2780   29.1860   33.3550 C   0  0  0  0  0  3  0  0  0  0  0  0
   34.0750   29.7440   32.5700 C   0  0  0  0  0  2  0  0  0  0  0  0
   32.8460   29.3450   33.3570 C   0  0  0  0  0  2  0  0  0  0  0  0
   33.1370   29.5010   34.8180 C   0  0  0  0  0  2  0  0  0  0  0  0
   34.1550   30.5640   35.0990 C   0  0  0  0  0  2  0  0  0  0  0  0
   35.4980   30.1160   34.5170 C   0  0  0  0  0  2  0  0  0  0  0  0
   38.7620   24.4890   34.5730 C   0  0  0  0  0  0  0  0  0  0  0  0
   37.9960   23.9610   33.7160 O   0  0  0  0  0  0  0  0  0  0  0  0
   38.7750   24.1110   35.9630 C   0  0  0  0  0  0  0  0  0  0  0  0
   39.7700   23.2380   36.3750 C   0  0  0  0  0  0  0  0  0  0  0  0
   39.7940   22.8570   37.7350 C   0  0  0  0  0  0  0  0  0  0  0  0
   38.8390   23.3730   38.5540 N   0  0  0  0  0  0  0  0  0  0  0  0
   37.8830   24.2180   38.1250 C   0  0  0  0  0  0  0  0  0  0  0  0
   37.8630   24.5820   36.8230 N   0  0  0  0  0  0  0  0  0  0  0  0
   40.5000   22.8640   35.6770 H   0  0  0  0  0  0  0  0  0  0  0  0
   40.5590   22.1730   38.0990 H   0  0  0  0  0  0  0  0  0  0  0  0
   37.1230   24.6290   38.7770 H   0  0  0  0  0  0  0  0  0  0  0  0
  1 13  1  6  0  0  0
  1 17  1  0  0  0  0
  1  8  1  0  0  0  0
  2 10  1  0  0  0  0
  2  1  1  0  0  0  0
  2  3  1  0  0  0  0
  3  4  1  0  0  0  0
  3  7  1  0  0  0  0
  4  6  1  0  0  0  0
  5  4  2  0  0  0  0
  6 26  1  0  0  0  0
  6 11  1  1  0  0  0
  7  8  1  0  0  0  0
  7  6  1  0  0  0  0
  7 12  1  1  0  0  0
  9  2  1  0  0  0  0
 13 16  1  0  0  0  0
 14 13  1  0  0  0  0
 15 13  1  0  0  0  0
 17 18  1  0  0  0  0
 17 20  1  0  0  0  0
 19 17  1  0  0  0  0
 20 25  1  0  0  0  0
 21 20  1  0  0  0  0
 21 22  1  0  0  0  0
 22 23  1  0  0  0  0
 23 24  1  0  0  0  0
 25 24  1  0  0  0  0
 26 28  1  0  0  0  0
 27 26  2  0  0  0  0
 28 29  2  0  0  0  0
 28 33  1  0  0  0  0
 29 30  1  0  0  0  0
 30 35  1  0  0  0  0
 30 31  2  0  0  0  0
 32 31  1  0  0  0  0
 32 36  1  0  0  0  0
 33 32  2  0  0  0  0
 34 29  1  0  0  0  0
M  END
>  <minimizedAffinity>
-5.46510267

$$$$

 OpenBabel03262522043D

 36 39  0  0  1  0  0  0  0  0999 V2000
   39.1180   25.9450   34.2130 C   0  0  2  0  0  0  0  0  0  0  0  0
   39.9650   26.4990   33.0990 C   0  0  0  0  0  0  0  0  0  0  0  0
   39.1080   26.9670   32.0400 N   0  0  0  0  0  0  0  0  0  0  0  0
   38.4580   27.7590   31.0380 C   0  0  0  0  0  0  0  0  0  0  0  0
   38.6480   28.8540   30.4620 O   0  0  0  0  0  0  0  0  0  0  0  0
   37.3620   26.8110   30.8470 C   0  0  1  0  0  0  0  0  0  0  0  0
   38.2280   25.8870   31.6660 C   0  0  2  0  0  0  0  0  0  0  0  0
   37.5850   25.5050   33.3260 S   0  0  0  0  0  0  0  0  0  0  0  0
   40.6080   27.3380   33.4460 H   0  0  0  0  0  0  0  0  0  0  0  0
   40.6280   25.7260   32.6960 H   0  0  0  0  0  0  0  0  0  0  0  0
   37.2100   26.4250   29.8130 H   0  0  0  0  0  0  0  0  0  0  0  0
   38.6720   25.0300   31.1410 H   0  0  0  0  0  0  0  0  0  0  0  0
   38.8900   26.8700   35.3650 C   0  0  0  0  0  0  0  0  0  0  0  0
   39.0860   27.9120   35.0240 H   0  0  0  0  0  0  0  0  0  0  0  0
   39.5830   26.6420   36.2020 H   0  0  0  0  0  0  0  0  0  0  0  0
   37.8390   26.7620   35.7180 H   0  0  0  0  0  0  0  0  0  0  0  0
   39.7210   24.6240   34.6710 C   0  0  0  0  0  0  0  0  0  0  0  0
   39.3320   23.8700   33.9370 H   0  0  0  0  0  0  0  0  0  0  0  0
   40.8130   24.6400   34.5290 H   0  0  0  0  0  0  0  0  0  0  0  0
   39.2930   24.2290   36.0390 C   0  0  0  0  0  3  0  0  0  0  0  0
   40.0970   23.0020   36.5110 C   0  0  0  0  0  2  0  0  0  0  0  0
   40.0260   23.0160   38.0230 C   0  0  0  0  0  2  0  0  0  0  0  0
   38.6450   23.4200   38.4370 C   0  0  0  0  0  2  0  0  0  0  0  0
   37.6010   23.0440   37.4290 C   0  0  0  0  0  2  0  0  0  0  0  0
   37.8400   23.8590   36.1550 C   0  0  0  0  0  2  0  0  0  0  0  0
   36.0630   27.1960   31.4270 C   0  0  0  0  0  0  0  0  0  0  0  0
   35.1430   26.3530   31.2210 O   0  0  0  0  0  0  0  0  0  0  0  0
   35.8660   28.4190   32.1630 C   0  0  0  0  0  0  0  0  0  0  0  0
   35.5070   29.5450   31.4400 C   0  0  0  0  0  0  0  0  0  0  0  0
   35.3120   30.7520   32.1490 C   0  0  0  0  0  0  0  0  0  0  0  0
   35.4910   30.7300   33.4960 N   0  0  0  0  0  0  0  0  0  0  0  0
   35.8420   29.6200   34.1720 C   0  0  0  0  0  0  0  0  0  0  0  0
   36.0260   28.4670   33.4920 N   0  0  0  0  0  0  0  0  0  0  0  0
   35.3800   29.4980   30.3710 H   0  0  0  0  0  0  0  0  0  0  0  0
   35.0290   31.6600   31.6180 H   0  0  0  0  0  0  0  0  0  0  0  0
   35.9840   29.6030   35.2450 H   0  0  0  0  0  0  0  0  0  0  0  0
  1 17  1  1  0  0  0
  1 13  1  0  0  0  0
  2  9  1  0  0  0  0
  2  1  1  0  0  0  0
  3  2  1  0  0  0  0
  4  3  1  0  0  0  0
  5  4  2  0  0  0  0
  6 11  1  6  0  0  0
  6  4  1  0  0  0  0
  6 26  1  0  0  0  0
  6  7  1  0  0  0  0
  7 12  1  6  0  0  0
  7  3  1  0  0  0  0
  7  8  1  0  0  0  0
  8  1  1  0  0  0  0
 10  2  1  0  0  0  0
 13 16  1  0  0  0  0
 13 15  1  0  0  0  0
 14 13  1  0  0  0  0
 17 20  1  0  0  0  0
 18 17  1  0  0  0  0
 19 17  1  0  0  0  0
 20 25  1  0  0  0  0
 20 21  1  0  0  0  0
 21 22  1  0  0  0  0
 22 23  1  0  0  0  0
 24 23  1  0  0  0  0
 25 24  1  0  0  0  0
 26 28  1  0  0  0  0
 27 26  2  0  0  0  0
 28 33  1  0  0  0  0
 29 30  1  0  0  0  0
 29 28  2  0  0  0  0
 30 31  2  0  0  0  0
 31 32  1  0  0  0  0
 32 36  1  0  0  0  0
 33 32  2  0  0  0  0
 34 29  1  0  0  0  0
 35 30  1  0  0  0  0
M  END
>  <minimizedAffinity>
-5.26243782

$$$$

 OpenBabel03262522043D

 36 39  0  0  1  0  0  0  0  0999 V2000
   37.3580   25.9300   31.9810 C   0  0  2  0  0  0  0  0  0  0  0  0
   38.3070   25.2160   31.0550 C   0  0  0  0  0  0  0  0  0  0  0  0
   38.8200   24.0430   31.7130 N   0  0  0  0  0  0  0  0  0  0  0  0
   39.1970   22.7010   32.0480 C   0  0  0  0  0  0  0  0  0  0  0  0
   39.2860   21.5970   31.4660 O   0  0  0  0  0  0  0  0  0  0  0  0
   39.4900   23.0170   33.4430 C   0  0  1  0  0  0  0  0  0  0  0  0
   39.3820   24.4480   32.9780 C   0  0  2  0  0  0  0  0  0  0  0  0
   37.9350   25.3520   33.6140 S   0  0  0  0  0  0  0  0  0  0  0  0
   37.8120   24.9170   30.1060 H   0  0  0  0  0  0  0  0  0  0  0  0
   39.1500   25.8650   30.7910 H   0  0  0  0  0  0  0  0  0  0  0  0
   40.5170   22.7780   33.8060 H   0  0  0  0  0  0  0  0  0  0  0  0
   40.3110   25.0330   32.9560 H   0  0  0  0  0  0  0  0  0  0  0  0
   35.9070   25.6630   31.7390 C   0  0  0  0  0  0  0  0  0  0  0  0
   35.8140   24.7180   31.1590 H   0  0  0  0  0  0  0  0  0  0  0  0
   35.4460   26.4820   31.1470 H   0  0  0  0  0  0  0  0  0  0  0  0
   35.3830   25.5780   32.7180 H   0  0  0  0  0  0  0  0  0  0  0  0
   37.6660   27.4190   31.9400 C   0  0  0  0  0  0  0  0  0  0  0  0
   38.4370   27.5680   32.7420 H   0  0  0  0  0  0  0  0  0  0  0  0
   38.1690   27.6730   30.9940 H   0  0  0  0  0  0  0  0  0  0  0  0
   36.4840   28.2690   32.2450 C   0  0  0  0  0  3  0  0  0  0  0  0
   36.5930   29.6140   31.5000 C   0  0  0  0  0  2  0  0  0  0  0  0
   35.1810   30.1480   31.4020 C   0  0  0  0  0  2  0  0  0  0  0  0
   34.4700   29.8710   32.6900 C   0  0  0  0  0  2  0  0  0  0  0  0
   35.3960   29.8140   33.8660 C   0  0  0  0  0  2  0  0  0  0  0  0
   36.3150   28.6010   33.7030 C   0  0  0  0  0  2  0  0  0  0  0  0
   38.4990   22.5610   34.4340 C   0  0  0  0  0  0  0  0  0  0  0  0
   37.5130   21.9540   33.9270 O   0  0  0  0  0  0  0  0  0  0  0  0
   38.6480   22.7850   35.8490 C   0  0  0  0  0  0  0  0  0  0  0  0
   39.8960   22.5470   36.4030 C   0  0  0  0  0  0  0  0  0  0  0  0
   40.0550   22.7610   37.7910 C   0  0  0  0  0  0  0  0  0  0  0  0
   38.9730   23.1880   38.4940 N   0  0  0  0  0  0  0  0  0  0  0  0
   37.7710   23.4100   37.9290 C   0  0  0  0  0  0  0  0  0  0  0  0
   37.6210   23.2050   36.6010 N   0  0  0  0  0  0  0  0  0  0  0  0
   40.7160   22.2100   35.7920 H   0  0  0  0  0  0  0  0  0  0  0  0
   41.0200   22.5860   38.2650 H   0  0  0  0  0  0  0  0  0  0  0  0
   36.9090   23.7490   38.4890 H   0  0  0  0  0  0  0  0  0  0  0  0
  1 13  1  6  0  0  0
  1  8  1  0  0  0  0
  2  3  1  0  0  0  0
  2  1  1  0  0  0  0
  3  4  1  0  0  0  0
  3  7  1  0  0  0  0
  4  6  1  0  0  0  0
  5  4  2  0  0  0  0
  6 11  1  1  0  0  0
  6 26  1  0  0  0  0
  7 12  1  6  0  0  0
  7  6  1  0  0  0  0
  7  8  1  0  0  0  0
  9  2  1  0  0  0  0
 10  2  1  0  0  0  0
 13 16  1  0  0  0  0
 14 13  1  0  0  0  0
 15 13  1  0  0  0  0
 17  1  1  0  0  0  0
 17 20  1  0  0  0  0
 17 18  1  0  0  0  0
 19 17  1  0  0  0  0
 20 25  1  0  0  0  0
 21 20  1  0  0  0  0
 22 21  1  0  0  0  0
 22 23  1  0  0  0  0
 23 24  1  0  0  0  0
 25 24  1  0  0  0  0
 26 28  1  0  0  0  0
 27 26  2  0  0  0  0
 28 29  2  0  0  0  0
 28 33  1  0  0  0  0
 29 30  1  0  0  0  0
 30 35  1  0  0  0  0
 30 31  2  0  0  0  0
 32 36  1  0  0  0  0
 32 31  1  0  0  0  0
 33 32  2  0  0  0  0
 34 29  1  0  0  0  0
M  END
>  <minimizedAffinity>
-5.13742495

$$$$

 OpenBabel03262522043D

 36 39  0  0  1  0  0  0  0  0999 V2000
   38.5130   25.5340   34.2950 C   0  0  2  0  0  0  0  0  0  0  0  0
   37.3390   26.2780   33.7170 C   0  0  0  0  0  0  0  0  0  0  0  0
   36.8620   25.5780   32.5530 N   0  0  0  0  0  0  0  0  0  0  0  0
   36.0490   24.8980   31.5870 C   0  0  0  0  0  0  0  0  0  0  0  0
   34.8300   24.7070   31.3790 O   0  0  0  0  0  0  0  0  0  0  0  0
   37.1890   24.4220   30.8060 C   0  0  1  0  0  0  0  0  0  0  0  0
   37.9740   25.3900   31.6550 C   0  0  2  0  0  0  0  0  0  0  0  0
   39.1200   24.6160   32.8390 S   0  0  0  0  0  0  0  0  0  0  0  0
   36.5090   26.3760   34.4510 H   0  0  0  0  0  0  0  0  0  0  0  0
   37.6320   27.2910   33.4200 H   0  0  0  0  0  0  0  0  0  0  0  0
   37.2110   24.7070   29.7290 H   0  0  0  0  0  0  0  0  0  0  0  0
   38.3740   26.2800   31.1490 H   0  0  0  0  0  0  0  0  0  0  0  0
   38.2000   24.6510   35.4610 C   0  0  0  0  0  0  0  0  0  0  0  0
   37.1090   24.4350   35.4560 H   0  0  0  0  0  0  0  0  0  0  0  0
   38.4500   25.1540   36.4190 H   0  0  0  0  0  0  0  0  0  0  0  0
   38.7900   23.7100   35.3760 H   0  0  0  0  0  0  0  0  0  0  0  0
   39.6070   26.5370   34.6340 C   0  0  0  0  0  0  0  0  0  0  0  0
   39.1960   27.5240   34.2930 H   0  0  0  0  0  0  0  0  0  0  0  0
   39.7140   26.6220   35.7260 H   0  0  0  0  0  0  0  0  0  0  0  0
   40.8830   26.2740   33.9180 C   0  0  0  0  0  3  0  0  0  0  0  0
   41.9320   25.7110   34.8970 C   0  0  0  0  0  2  0  0  0  0  0  0
   42.9410   24.9740   34.0440 C   0  0  0  0  0  2  0  0  0  0  0  0
   43.1860   25.7640   32.7950 C   0  0  0  0  0  2  0  0  0  0  0  0
   42.9820   27.2360   32.9880 C   0  0  0  0  0  2  0  0  0  0  0  0
   41.5010   27.4880   33.2800 C   0  0  0  0  0  2  0  0  0  0  0  0
   37.5190   22.9930   30.9450 C   0  0  0  0  0  0  0  0  0  0  0  0
   38.5420   22.6390   30.2910 O   0  0  0  0  0  0  0  0  0  0  0  0
   36.7470   22.0870   31.7580 C   0  0  0  0  0  0  0  0  0  0  0  0
   35.7430   21.3690   31.1290 C   0  0  0  0  0  0  0  0  0  0  0  0
   34.9760   20.4780   31.9140 C   0  0  0  0  0  0  0  0  0  0  0  0
   35.2750   20.3830   33.2370 N   0  0  0  0  0  0  0  0  0  0  0  0
   36.2560   21.0950   33.8210 C   0  0  0  0  0  0  0  0  0  0  0  0
   36.9890   21.9460   33.0680 N   0  0  0  0  0  0  0  0  0  0  0  0
   35.5550   21.4880   30.0760 H   0  0  0  0  0  0  0  0  0  0  0  0
   34.1770   19.8940   31.4580 H   0  0  0  0  0  0  0  0  0  0  0  0
   36.4940   21.0190   34.8740 H   0  0  0  0  0  0  0  0  0  0  0  0
  1 17  1  1  0  0  0
  1 13  1  0  0  0  0
  2  1  1  0  0  0  0
  2  9  1  0  0  0  0
  3  2  1  0  0  0  0
  4  3  1  0  0  0  0
  5  4  2  0  0  0  0
  6 11  1  6  0  0  0
  6 26  1  0  0  0  0
  6  4  1  0  0  0  0
  6  7  1  0  0  0  0
  7 12  1  6  0  0  0
  7  3  1  0  0  0  0
  7  8  1  0  0  0  0
  8  1  1  0  0  0  0
 10  2  1  0  0  0  0
 13 15  1  0  0  0  0
 14 13  1  0  0  0  0
 16 13  1  0  0  0  0
 17 19  1  0  0  0  0
 18 17  1  0  0  0  0
 20 17  1  0  0  0  0
 20 21  1  0  0  0  0
 22 21  1  0  0  0  0
 23 24  1  0  0  0  0
 23 22  1  0  0  0  0
 24 25  1  0  0  0  0
 25 20  1  0  0  0  0
 26 28  1  0  0  0  0
 27 26  2  0  0  0  0
 28 33  1  0  0  0  0
 29 28  2  0  0  0  0
 29 30  1  0  0  0  0
 30 31  2  0  0  0  0
 31 32  1  0  0  0  0
 32 36  1  0  0  0  0
 33 32  2  0  0  0  0
 34 29  1  0  0  0  0
 35 30  1  0  0  0  0
M  END
>  <minimizedAffinity>
-5.06366253

$$$$

 OpenBabel03262522043D

 36 39  0  0  1  0  0  0  0  0999 V2000
   37.2370   23.8810   31.6880 C   0  0  2  0  0  0  0  0  0  0  0  0
   36.8310   25.1870   32.3170 C   0  0  0  0  0  0  0  0  0  0  0  0
   37.7400   25.5000   33.3890 N   0  0  0  0  0  0  0  0  0  0  0  0
   38.6810   26.1440   34.2580 C   0  0  0  0  0  0  0  0  0  0  0  0
   39.1510   27.2930   34.4180 O   0  0  0  0  0  0  0  0  0  0  0  0
   38.9830   24.9270   35.0090 C   0  0  1  0  0  0  0  0  0  0  0  0
   37.7810   24.3720   34.2860 C   0  0  2  0  0  0  0  0  0  0  0  0
   38.1560   23.0870   33.0510 S   0  0  0  0  0  0  0  0  0  0  0  0
   36.8340   26.0200   31.5800 H   0  0  0  0  0  0  0  0  0  0  0  0
   35.8170   25.1200   32.7270 H   0  0  0  0  0  0  0  0  0  0  0  0
   38.8190   24.9660   36.1110 H   0  0  0  0  0  0  0  0  0  0  0  0
   36.8870   24.1730   34.8930 H   0  0  0  0  0  0  0  0  0  0  0  0
   38.0330   23.9970   30.4280 C   0  0  0  0  0  0  0  0  0  0  0  0
   38.4790   25.0160   30.3860 H   0  0  0  0  0  0  0  0  0  0  0  0
   37.3860   23.8640   29.5360 H   0  0  0  0  0  0  0  0  0  0  0  0
   38.8290   23.2180   30.4250 H   0  0  0  0  0  0  0  0  0  0  0  0
   35.9910   23.0310   31.4840 C   0  0  0  0  0  0  0  0  0  0  0  0
   35.2340   23.4710   32.1860 H   0  0  0  0  0  0  0  0  0  0  0  0
   35.5870   23.1940   30.4720 H   0  0  0  0  0  0  0  0  0  0  0  0
   36.1960   21.6000   31.8310 C   0  0  0  0  0  3  0  0  0  0  0  0
   36.2740   20.7500   30.5480 C   0  0  0  0  0  2  0  0  0  0  0  0
   37.0130   19.4870   30.9310 C   0  0  0  0  0  2  0  0  0  0  0  0
   36.5550   19.0540   32.2900 C   0  0  0  0  0  2  0  0  0  0  0  0
   35.1480   19.4730   32.5910 C   0  0  0  0  0  2  0  0  0  0  0  0
   35.1040   21.0010   32.6750 C   0  0  0  0  0  2  0  0  0  0  0  0
   40.2830   24.2960   34.7240 C   0  0  0  0  0  0  0  0  0  0  0  0
   40.8880   24.7970   33.7330 O   0  0  0  0  0  0  0  0  0  0  0  0
   40.8130   23.2100   35.5090 C   0  0  0  0  0  0  0  0  0  0  0  0
   40.2620   23.0040   36.7630 C   0  0  0  0  0  0  0  0  0  0  0  0
   40.7740   21.9430   37.5450 C   0  0  0  0  0  0  0  0  0  0  0  0
   41.7750   21.1920   37.0140 N   0  0  0  0  0  0  0  0  0  0  0  0
   42.2920   21.4170   35.7920 C   0  0  0  0  0  0  0  0  0  0  0  0
   41.8010   22.4310   35.0460 N   0  0  0  0  0  0  0  0  0  0  0  0
   39.4690   23.6340   37.1280 H   0  0  0  0  0  0  0  0  0  0  0  0
   40.3680   21.7480   38.5370 H   0  0  0  0  0  0  0  0  0  0  0  0
   43.0900   20.8190   35.3690 H   0  0  0  0  0  0  0  0  0  0  0  0
  1 13  1  6  0  0  0
  1  2  1  0  0  0  0
  1  8  1  0  0  0  0
  2 10  1  0  0  0  0
  2  3  1  0  0  0  0
  3  4  1  0  0  0  0
  3  7  1  0  0  0  0
  4  5  2  0  0  0  0
  4  6  1  0  0  0  0
  6 11  1  1  0  0  0
  7 12  1  1  0  0  0
  7  6  1  0  0  0  0
  8  7  1  0  0  0  0
  9  2  1  0  0  0  0
 14 13  1  0  0  0  0
 15 13  1  0  0  0  0
 16 13  1  0  0  0  0
 17  1  1  0  0  0  0
 17 20  1  0  0  0  0
 17 18  1  0  0  0  0
 19 17  1  0  0  0  0
 20 25  1  0  0  0  0
 21 22  1  0  0  0  0
 21 20  1  0  0  0  0
 22 23  1  0  0  0  0
 23 24  1  0  0  0  0
 24 25  1  0  0  0  0
 26  6  1  0  0  0  0
 26 28  1  0  0  0  0
 27 26  2  0  0  0  0
 28 29  1  0  0  0  0
 29 34  1  0  0  0  0
 29 30  2  0  0  0  0
 30 35  1  0  0  0  0
 31 30  1  0  0  0  0
 32 31  2  0  0  0  0
 33 28  2  0  0  0  0
 33 32  1  0  0  0  0
 36 32  1  0  0  0  0
M  END
>  <minimizedAffinity>
-5.04674482

$$$$

 OpenBabel03262522043D

 36 39  0  0  1  0  0  0  0  0999 V2000
   37.8110   25.7270   32.1400 C   0  0  2  0  0  0  0  0  0  0  0  0
   38.4590   24.7780   31.1670 C   0  0  0  0  0  0  0  0  0  0  0  0
   38.7200   23.5260   31.8300 N   0  0  0  0  0  0  0  0  0  0  0  0
   38.7790   22.1390   32.1880 C   0  0  0  0  0  0  0  0  0  0  0  0
   38.5310   21.0370   31.6500 O   0  0  0  0  0  0  0  0  0  0  0  0
   39.2730   22.3990   33.5380 C   0  0  1  0  0  0  0  0  0  0  0  0
   39.4830   23.8000   33.0220 C   0  0  2  0  0  0  0  0  0  0  0  0
   38.3780   25.0560   33.7410 S   0  0  0  0  0  0  0  0  0  0  0  0
   37.8160   24.5940   30.2790 H   0  0  0  0  0  0  0  0  0  0  0  0
   39.4080   25.1850   30.8030 H   0  0  0  0  0  0  0  0  0  0  0  0
   40.2370   21.9150   33.8200 H   0  0  0  0  0  0  0  0  0  0  0  0
   40.5240   24.1300   32.8930 H   0  0  0  0  0  0  0  0  0  0  0  0
   36.3240   25.8330   32.0370 C   0  0  0  0  0  0  0  0  0  0  0  0
   35.9420   24.9310   31.5090 H   0  0  0  0  0  0  0  0  0  0  0  0
   36.0290   26.7300   31.4520 H   0  0  0  0  0  0  0  0  0  0  0  0
   35.8900   25.9040   33.0610 H   0  0  0  0  0  0  0  0  0  0  0  0
   38.4780   27.0890   32.0080 C   0  0  0  0  0  0  0  0  0  0  0  0
   38.0490   27.6940   32.8500 H   0  0  0  0  0  0  0  0  0  0  0  0
   39.5550   27.0030   32.2240 H   0  0  0  0  0  0  0  0  0  0  0  0
   38.1700   27.7680   30.7210 C   0  0  0  0  0  3  0  0  0  0  0  0
   39.4770   28.1660   30.0080 C   0  0  0  0  0  2  0  0  0  0  0  0
   39.1210   28.3140   28.5450 C   0  0  0  0  0  2  0  0  0  0  0  0
   37.7820   28.9770   28.4390 C   0  0  0  0  0  2  0  0  0  0  0  0
   37.4860   29.8810   29.5970 C   0  0  0  0  0  2  0  0  0  0  0  0
   37.3580   29.0270   30.8600 C   0  0  0  0  0  2  0  0  0  0  0  0
   38.2980   22.2300   34.6300 C   0  0  0  0  0  0  0  0  0  0  0  0
   37.1830   21.7670   34.2510 O   0  0  0  0  0  0  0  0  0  0  0  0
   38.5940   22.5580   36.0010 C   0  0  0  0  0  0  0  0  0  0  0  0
   37.5540   23.0440   36.7770 C   0  0  0  0  0  0  0  0  0  0  0  0
   37.8310   23.3730   38.1230 C   0  0  0  0  0  0  0  0  0  0  0  0
   39.1020   23.1900   38.5710 N   0  0  0  0  0  0  0  0  0  0  0  0
   40.0930   22.7170   37.7930 C   0  0  0  0  0  0  0  0  0  0  0  0
   39.8260   22.4030   36.5060 N   0  0  0  0  0  0  0  0  0  0  0  0
   36.5670   23.1660   36.3640 H   0  0  0  0  0  0  0  0  0  0  0  0
   37.0410   23.7570   38.7670 H   0  0  0  0  0  0  0  0  0  0  0  0
   41.1050   22.5720   38.1490 H   0  0  0  0  0  0  0  0  0  0  0  0
  1 17  1  6  0  0  0
  1  8  1  0  0  0  0
  2  3  1  0  0  0  0
  2  1  1  0  0  0  0
  3  4  1  0  0  0  0
  3  7  1  0  0  0  0
  4  6  1  0  0  0  0
  5  4  2  0  0  0  0
  6 11  1  1  0  0  0
  6 26  1  0  0  0  0
  7 12  1  6  0  0  0
  7  6  1  0  0  0  0
  7  8  1  0  0  0  0
  9  2  1  0  0  0  0
 10  2  1  0  0  0  0
 13  1  1  0  0  0  0
 13 16  1  0  0  0  0
 14 13  1  0  0  0  0
 15 13  1  0  0  0  0
 17 19  1  0  0  0  0
 17 18  1  0  0  0  0
 20 25  1  0  0  0  0
 20 17  1  0  0  0  0
 21 20  1  0  0  0  0
 22 21  1  0  0  0  0
 23 22  1  0  0  0  0
 23 24  1  0  0  0  0
 24 25  1  0  0  0  0
 26 28  1  0  0  0  0
 27 26  2  0  0  0  0
 28 33  2  0  0  0  0
 28 29  1  0  0  0  0
 29 30  2  0  0  0  0
 30 31  1  0  0  0  0
 30 35  1  0  0  0  0
 32 36  1  0  0  0  0
 32 31  2  0  0  0  0
 33 32  1  0  0  0  0
 34 29  1  0  0  0  0
M  END
>  <minimizedAffinity>
-4.9911375

$$$$

 OpenBabel03262522043D

 36 39  0  0  1  0  0  0  0  0999 V2000
   38.8940   26.6420   35.0940 C   0  0  2  0  0  0  0  0  0  0  0  0
   38.4150   26.6030   36.5210 C   0  0  0  0  0  0  0  0  0  0  0  0
   38.2970   25.2320   36.9440 N   0  0  0  0  0  0  0  0  0  0  0  0
   38.4090   23.9910   37.6530 C   0  0  0  0  0  0  0  0  0  0  0  0
   38.8200   23.6020   38.7690 O   0  0  0  0  0  0  0  0  0  0  0  0
   37.8350   23.1970   36.5700 C   0  0  1  0  0  0  0  0  0  0  0  0
   37.4600   24.5400   35.9950 C   0  0  2  0  0  0  0  0  0  0  0  0
   38.3630   25.0050   34.4840 S   0  0  0  0  0  0  0  0  0  0  0  0
   39.1090   27.1390   37.2050 H   0  0  0  0  0  0  0  0  0  0  0  0
   37.4340   27.0830   36.6120 H   0  0  0  0  0  0  0  0  0  0  0  0
   36.9340   22.5890   36.8180 H   0  0  0  0  0  0  0  0  0  0  0  0
   36.3910   24.7930   35.9830 H   0  0  0  0  0  0  0  0  0  0  0  0
   40.3580   26.8920   34.9170 C   0  0  0  0  0  0  0  0  0  0  0  0
   40.8750   26.6460   35.8720 H   0  0  0  0  0  0  0  0  0  0  0  0
   40.5530   27.9580   34.6800 H   0  0  0  0  0  0  0  0  0  0  0  0
   40.7400   26.2550   34.0870 H   0  0  0  0  0  0  0  0  0  0  0  0
   38.0590   27.6570   34.3270 C   0  0  0  0  0  0  0  0  0  0  0  0
   37.1960   27.8810   35.0080 H   0  0  0  0  0  0  0  0  0  0  0  0
   38.6140   28.6030   34.2300 H   0  0  0  0  0  0  0  0  0  0  0  0
   37.5330   27.1280   33.0410 C   0  0  0  0  0  3  0  0  0  0  0  0
   38.4720   27.5200   31.8840 C   0  0  0  0  0  2  0  0  0  0  0  0
   38.2030   26.5260   30.7760 C   0  0  0  0  0  2  0  0  0  0  0  0
   36.7300   26.2650   30.7100 C   0  0  0  0  0  2  0  0  0  0  0  0
   35.9100   27.4300   31.1760 C   0  0  0  0  0  2  0  0  0  0  0  0
   36.1650   27.6360   32.6720 C   0  0  0  0  0  2  0  0  0  0  0  0
   38.7820   22.3790   35.7920 C   0  0  0  0  0  0  0  0  0  0  0  0
   38.2440   21.7370   34.8450 O   0  0  0  0  0  0  0  0  0  0  0  0
   40.1910   22.3240   36.0860 C   0  0  0  0  0  0  0  0  0  0  0  0
   41.0270   23.1520   35.3540 C   0  0  0  0  0  0  0  0  0  0  0  0
   42.4120   23.1060   35.6300 C   0  0  0  0  0  0  0  0  0  0  0  0
   42.8360   22.2520   36.5990 N   0  0  0  0  0  0  0  0  0  0  0  0
   42.0010   21.4580   37.2940 C   0  0  0  0  0  0  0  0  0  0  0  0
   40.6770   21.5040   37.0290 N   0  0  0  0  0  0  0  0  0  0  0  0
   40.6300   23.8080   34.5980 H   0  0  0  0  0  0  0  0  0  0  0  0
   43.1030   23.7420   35.0770 H   0  0  0  0  0  0  0  0  0  0  0  0
   42.3380   20.7780   38.0660 H   0  0  0  0  0  0  0  0  0  0  0  0
  1 17  1  6  0  0  0
  1  2  1  0  0  0  0
  2 10  1  0  0  0  0
  2  3  1  0  0  0  0
  2  9  1  0  0  0  0
  3  4  1  0  0  0  0
  4  5  2  0  0  0  0
  6 11  1  1  0  0  0
  6  4  1  0  0  0  0
  7 12  1  1  0  0  0
  7  6  1  0  0  0  0
  7  3  1  0  0  0  0
  8  1  1  0  0  0  0
  8  7  1  0  0  0  0
 13  1  1  0  0  0  0
 13 14  1  0  0  0  0
 15 13  1  0  0  0  0
 16 13  1  0  0  0  0
 17 18  1  0  0  0  0
 19 17  1  0  0  0  0
 20 17  1  0  0  0  0
 21 20  1  0  0  0  0
 22 21  1  0  0  0  0
 23 22  1  0  0  0  0
 23 24  1  0  0  0  0
 24 25  1  0  0  0  0
 25 20  1  0  0  0  0
 26 28  1  0  0  0  0
 26  6  1  0  0  0  0
 27 26  2  0  0  0  0
 28 33  1  0  0  0  0
 29 30  1  0  0  0  0
 29 28  2  0  0  0  0
 30 31  2  0  0  0  0
 31 32  1  0  0  0  0
 32 36  1  0  0  0  0
 33 32  2  0  0  0  0
 34 29  1  0  0  0  0
 35 30  1  0  0  0  0
M  END
>  <minimizedAffinity>
-4.97349119

$$$$

 OpenBabel03262522043D

 36 39  0  0  1  0  0  0  0  0999 V2000
   38.2680   23.1380   35.4970 C   0  0  2  0  0  0  0  0  0  0  0  0
   39.7710   23.1170   35.4050 C   0  0  0  0  0  0  0  0  0  0  0  0
   40.2220   24.3140   34.7430 N   0  0  0  0  0  0  0  0  0  0  0  0
   40.8880   25.5380   34.4050 C   0  0  0  0  0  0  0  0  0  0  0  0
   41.8610   26.2040   34.8240 O   0  0  0  0  0  0  0  0  0  0  0  0
   39.9980   25.8370   33.2860 C   0  0  1  0  0  0  0  0  0  0  0  0
   39.5300   24.4170   33.4820 C   0  0  2  0  0  0  0  0  0  0  0  0
   37.8320   24.2510   34.1180 S   0  0  0  0  0  0  0  0  0  0  0  0
   40.2460   23.0530   36.4090 H   0  0  0  0  0  0  0  0  0  0  0  0
   40.1110   22.2500   34.8280 H   0  0  0  0  0  0  0  0  0  0  0  0
   40.4780   25.9790   32.2900 H   0  0  0  0  0  0  0  0  0  0  0  0
   39.7950   23.6950   32.6980 H   0  0  0  0  0  0  0  0  0  0  0  0
   37.7140   23.5810   36.8120 C   0  0  0  0  0  0  0  0  0  0  0  0
   38.5020   24.1500   37.3530 H   0  0  0  0  0  0  0  0  0  0  0  0
   37.4250   22.7090   37.4360 H   0  0  0  0  0  0  0  0  0  0  0  0
   36.8180   24.2190   36.6350 H   0  0  0  0  0  0  0  0  0  0  0  0
   37.7380   21.7670   35.1010 C   0  0  0  0  0  0  0  0  0  0  0  0
   38.6290   21.0900   35.1740 H   0  0  0  0  0  0  0  0  0  0  0  0
   37.0280   21.4050   35.8620 H   0  0  0  0  0  0  0  0  0  0  0  0
   37.2110   21.7230   33.7110 C   0  0  0  0  0  3  0  0  0  0  0  0
   35.8600   20.9830   33.6810 C   0  0  0  0  0  2  0  0  0  0  0  0
   35.1570   21.4540   32.4270 C   0  0  0  0  0  2  0  0  0  0  0  0
   36.1640   21.5660   31.3240 C   0  0  0  0  0  2  0  0  0  0  0  0
   37.3120   20.6170   31.4830 C   0  0  0  0  0  2  0  0  0  0  0  0
   38.1060   21.0190   32.7280 C   0  0  0  0  0  2  0  0  0  0  0  0
   39.0070   26.9040   33.5120 C   0  0  0  0  0  0  0  0  0  0  0  0
   38.9870   27.3390   34.6990 O   0  0  0  0  0  0  0  0  0  0  0  0
   38.1450   27.4040   32.4710 C   0  0  0  0  0  0  0  0  0  0  0  0
   36.8810   27.8320   32.8440 C   0  0  0  0  0  0  0  0  0  0  0  0
   36.0240   28.3230   31.8330 C   0  0  0  0  0  0  0  0  0  0  0  0
   36.4960   28.3440   30.5580 N   0  0  0  0  0  0  0  0  0  0  0  0
   37.7290   27.9200   30.2260 C   0  0  0  0  0  0  0  0  0  0  0  0
   38.5470   27.4510   31.1940 N   0  0  0  0  0  0  0  0  0  0  0  0
   36.5650   27.7910   33.8720 H   0  0  0  0  0  0  0  0  0  0  0  0
   35.0230   28.6710   32.0850 H   0  0  0  0  0  0  0  0  0  0  0  0
   38.1050   27.9360   29.2100 H   0  0  0  0  0  0  0  0  0  0  0  0
  1 17  1  6  0  0  0
  1 13  1  0  0  0  0
  2  1  1  0  0  0  0
  2  9  1  0  0  0  0
  3  2  1  0  0  0  0
  4  3  1  0  0  0  0
  4  5  2  0  0  0  0
  6 11  1  6  0  0  0
  6  7  1  0  0  0  0
  6 26  1  0  0  0  0
  6  4  1  0  0  0  0
  7 12  1  6  0  0  0
  7  8  1  0  0  0  0
  7  3  1  0  0  0  0
  8  1  1  0  0  0  0
 10  2  1  0  0  0  0
 13 14  1  0  0  0  0
 13 15  1  0  0  0  0
 16 13  1  0  0  0  0
 17 18  1  0  0  0  0
 17 19  1  0  0  0  0
 20 17  1  0  0  0  0
 21 20  1  0  0  0  0
 22 21  1  0  0  0  0
 23 24  1  0  0  0  0
 23 22  1  0  0  0  0
 24 25  1  0  0  0  0
 25 20  1  0  0  0  0
 26 27  2  0  0  0  0
 28 29  1  0  0  0  0
 28 26  1  0  0  0  0
 29 34  1  0  0  0  0
 30 35  1  0  0  0  0
 30 29  2  0  0  0  0
 31 30  1  0  0  0  0
 32 31  2  0  0  0  0
 32 33  1  0  0  0  0
 33 28  2  0  0  0  0
 36 32  1  0  0  0  0
M  END
>  <minimizedAffinity>
-4.96249866

$$$$
