
 OpenBabel03272510043D

 34 36  0  0  0  0  0  0  0  0999 V2000
   35.0930   29.8750   45.3900 C   0  0  0  0  0  0  0  0  0  0  0  0
   34.9760   29.7330   46.7370 C   0  0  0  0  0  0  0  0  0  0  0  0
   33.8200   29.1780   47.2760 C   0  0  0  0  0  0  0  0  0  0  0  0
   32.7660   28.7610   46.4850 C   0  0  0  0  0  0  0  0  0  0  0  0
   32.8490   28.8930   45.1300 C   0  0  0  0  0  0  0  0  0  0  0  0
   33.9980   29.4410   44.6320 C   0  0  0  0  0  0  0  0  0  0  0  0
   33.7570   29.0730   48.3700 H   0  0  0  0  0  0  0  0  0  0  0  0
   31.9230   28.3460   47.0100 H   0  0  0  0  0  0  0  0  0  0  0  0
   32.0070   28.5570   44.5820 H   0  0  0  0  0  0  0  0  0  0  0  0
   33.9420   29.4970   43.5360 H   0  0  0  0  0  0  0  0  0  0  0  0
   37.7900   31.6900   48.0710 C   0  0  0  0  0  0  0  0  0  0  0  0
   36.7840   31.2280   47.2390 C   0  0  0  0  0  0  0  0  0  0  0  0
   35.9920   30.1820   47.6250 C   0  0  0  0  0  0  0  0  0  0  0  0
   36.2400   29.6390   48.8470 N   0  0  0  0  0  0  0  0  0  0  0  0
   37.2090   30.0860   49.6560 C   0  0  0  0  0  0  0  0  0  0  0  0
   37.9760   31.1050   49.2600 N   0  0  0  0  0  0  0  0  0  0  0  0
   38.4960   32.4850   47.9270 H   0  0  0  0  0  0  0  0  0  0  0  0
   36.8260   31.8740   46.3970 H   0  0  0  0  0  0  0  0  0  0  0  0
   37.3180   29.4410   50.9900 C   0  0  0  0  0  0  0  0  0  0  0  0
   37.7810   30.3170   51.9530 F   0  0  0  0  0  0  0  0  0  0  0  0
   35.9840   29.1380   51.4660 F   0  0  0  0  0  0  0  0  0  0  0  0
   37.9330   28.2820   51.0520 F   0  0  0  0  0  0  0  0  0  0  0  0
   36.4860   30.5060   44.6050 S   0  0  0  0  0  0  0  0  0  0  0  0
   36.1930   31.8070   43.9590 O   0  0  0  0  0  0  0  0  0  0  0  0
   36.4200   29.6730   43.3420 O   0  0  0  0  0  0  0  0  0  0  0  0
   38.0860   29.9910   44.7520 C   0  0  0  0  0  0  0  0  0  0  0  0
   38.2530   28.9430   44.4370 H   0  0  0  0  0  0  0  0  0  0  0  0
   38.2320   29.8420   45.8970 H   0  0  0  0  0  0  0  0  0  0  0  0
   39.1820   30.9310   44.4470 C   0  0  0  0  0  0  0  0  0  0  0  0
   40.2040   30.7190   45.5680 C   0  0  0  0  0  0  0  0  0  0  0  0
   41.2660   31.7500   45.5680 C   0  0  0  0  0  0  0  0  0  0  0  0
   40.7210   33.1590   45.5130 C   0  0  0  0  0  0  0  0  0  0  0  0
   39.8370   33.3540   44.3290 C   0  0  0  0  0  0  0  0  0  0  0  0
   38.6810   32.3530   44.4360 C   0  0  0  0  0  0  0  0  0  0  0  0
  1  2  1  0  0  0  0
  2  3  2  0  0  0  0
  2 13  1  0  0  0  0
  3  7  1  0  0  0  0
  4  8  1  0  0  0  0
  4  3  1  0  0  0  0
  5  4  2  0  0  0  0
  6  5  1  0  0  0  0
  6  1  2  0  0  0  0
  9  5  1  0  0  0  0
 10  6  1  0  0  0  0
 11 16  1  0  0  0  0
 12 13  1  0  0  0  0
 12 11  2  0  0  0  0
 13 14  2  0  0  0  0
 14 15  1  0  0  0  0
 15 19  1  0  0  0  0
 16 15  2  0  0  0  0
 17 11  1  0  0  0  0
 18 12  1  0  0  0  0
 19 22  1  0  0  0  0
 19 21  1  0  0  0  0
 19 20  1  0  0  0  0
 23 26  1  0  0  0  0
 23  1  1  0  0  0  0
 24 23  2  0  0  0  0
 25 23  2  0  0  0  0
 26 28  1  0  0  0  0
 27 26  1  0  0  0  0
 29 26  1  0  0  0  0
 29 30  1  0  0  0  0
 31 30  1  0  0  0  0
 32 31  1  0  0  0  0
 33 34  1  0  0  0  0
 33 32  1  0  0  0  0
 34 29  1  0  0  0  0
M  END
>  <minimizedAffinity>
-5.92146587

>  <minimizedRMSD>
3.04459023

$$$$
