
 OpenBabel03272509183D

 30 32  0  0  0  0  0  0  0  0999 V2000
   37.9570   31.2850   48.0180 C   0  0  0  0  0  0  0  0  0  0  0  0
   37.2260   31.5790   49.1650 C   0  0  0  0  0  0  0  0  0  0  0  0
   37.5450   32.8100   49.7760 C   0  0  0  0  0  0  0  0  0  0  0  0
   38.5360   33.6390   49.2240 C   0  0  0  0  0  0  0  0  0  0  0  0
   39.2080   33.2520   48.0730 C   0  0  0  0  0  0  0  0  0  0  0  0
   38.9180   32.0590   47.4580 C   0  0  0  0  0  0  0  0  0  0  0  0
   36.9720   33.0300   50.6640 H   0  0  0  0  0  0  0  0  0  0  0  0
   38.6490   34.5210   49.8050 H   0  0  0  0  0  0  0  0  0  0  0  0
   39.9090   34.0270   47.8380 H   0  0  0  0  0  0  0  0  0  0  0  0
   34.9680   30.6180   49.0830 C   0  0  0  0  0  0  0  0  0  0  0  0
   36.2180   30.7210   49.7120 C   0  0  0  0  0  0  0  0  0  0  0  0
   36.4300   29.9690   50.8640 C   0  0  0  0  0  0  0  0  0  0  0  0
   35.4210   29.1770   51.3210 N   0  0  0  0  0  0  0  0  0  0  0  0
   34.2190   29.1060   50.6820 C   0  0  0  0  0  0  0  0  0  0  0  0
   33.9980   29.8240   49.5670 N   0  0  0  0  0  0  0  0  0  0  0  0
   34.8050   31.2030   48.1880 H   0  0  0  0  0  0  0  0  0  0  0  0
   33.4320   28.4670   51.0670 H   0  0  0  0  0  0  0  0  0  0  0  0
   37.7190   30.0320   51.5660 C   0  0  0  0  0  0  0  0  0  0  0  0
   37.9970   31.0990   51.7350 H   0  0  0  0  0  0  0  0  0  0  0  0
   37.6040   29.5370   52.5560 H   0  0  0  0  0  0  0  0  0  0  0  0
   38.5300   29.4730   51.0530 H   0  0  0  0  0  0  0  0  0  0  0  0
   37.6950   30.0800   47.3570 O   0  0  0  0  0  0  0  0  0  0  0  0
   37.1380   30.0210   46.5200 H   0  0  0  0  0  0  0  0  0  0  0  0
   39.6000   31.7140   46.3220 O   0  0  0  0  0  0  0  0  0  0  0  0
   39.0720   31.6580   45.0430 C   0  0  0  0  0  3  0  0  0  0  0  0
   39.3440   30.3510   44.3390 C   0  0  0  0  0  2  0  0  0  0  0  0
   40.4000   30.4410   43.2850 C   0  0  0  0  0  2  0  0  0  0  0  0
   40.2040   31.5570   42.3050 C   0  0  0  0  0  2  0  0  0  0  0  0
   39.3720   32.6890   42.7890 C   0  0  0  0  0  2  0  0  0  0  0  0
   39.5940   32.8430   44.2580 C   0  0  0  0  0  2  0  0  0  0  0  0
  1  2  1  0  0  0  0
  2 11  1  0  0  0  0
  2  3  2  0  0  0  0
  3  7  1  0  0  0  0
  4  3  1  0  0  0  0
  4  8  1  0  0  0  0
  5  4  2  0  0  0  0
  6  1  2  0  0  0  0
  6  5  1  0  0  0  0
  9  5  1  0  0  0  0
 10 15  2  0  0  0  0
 10 11  1  0  0  0  0
 11 12  2  0  0  0  0
 12 13  1  0  0  0  0
 12 18  1  0  0  0  0
 14 17  1  0  0  0  0
 14 13  2  0  0  0  0
 15 14  1  0  0  0  0
 16 10  1  0  0  0  0
 18 19  1  0  0  0  0
 18 20  1  0  0  0  0
 21 18  1  0  0  0  0
 22  1  1  0  0  0  0
 23 22  1  0  0  0  0
 24  6  1  0  0  0  0
 25 24  1  0  0  0  0
 26 25  1  0  0  0  0
 27 26  1  0  0  0  0
 28 29  1  0  0  0  0
 28 27  1  0  0  0  0
 29 30  1  0  0  0  0
 30 25  1  0  0  0  0
M  END
>  <minimizedAffinity>
-6.30472517

>  <minimizedRMSD>
2.21967149

$$$$
