
 OpenBabel03272504223D

 36 38  0  0  1  0  0  0  0  0999 V2000
   36.8160   31.5900   48.6600 O   0  0  0  0  0  0  0  0  0  0  0  0
   38.8500   32.3670   47.8400 C   0  0  2  0  0  0  0  0  0  0  0  0
   38.1720   31.3660   48.7540 C   0  0  1  0  0  0  0  0  0  0  0  0
   38.6930   31.9020   50.0950 C   0  0  0  0  0  0  0  0  0  0  0  0
   38.3860   33.2470   49.9730 O   0  0  0  0  0  0  0  0  0  0  0  0
   38.6730   33.6260   48.6800 C   0  0  0  0  0  0  0  0  0  0  0  0
   39.9290   32.1680   47.7250 H   0  0  0  0  0  0  0  0  0  0  0  0
   38.4840   30.3310   48.5890 H   0  0  0  0  0  0  0  0  0  0  0  0
   39.7680   31.7070   50.1320 H   0  0  0  0  0  0  0  0  0  0  0  0
   38.1010   31.4030   50.8890 H   0  0  0  0  0  0  0  0  0  0  0  0
   39.5510   34.2870   48.5890 H   0  0  0  0  0  0  0  0  0  0  0  0
   37.8040   34.2410   48.3300 H   0  0  0  0  0  0  0  0  0  0  0  0
   38.1410   32.4210   46.6510 O   0  0  0  0  0  0  0  0  0  0  0  0
   38.9420   31.8840   45.6500 C   0  0  0  0  0  3  0  0  0  0  0  0
   38.2900   30.7820   44.8890 C   0  0  0  0  0  2  0  0  0  0  0  0
   39.3640   29.9770   44.1830 C   0  0  0  0  0  2  0  0  0  0  0  0
   40.4570   30.8820   43.7190 C   0  0  0  0  0  2  0  0  0  0  0  0
   39.9830   32.2940   43.4510 C   0  0  0  0  0  2  0  0  0  0  0  0
   39.3560   32.9570   44.6400 C   0  0  0  0  0  2  0  0  0  0  0  0
   35.7970   29.8410   47.0280 O   0  0  0  0  0  0  0  0  0  0  0  0
   35.9250   30.1740   48.4840 P   0  0  1  0  0  0  0  0  0  0  0  0
   36.7580   28.8740   49.2490 O   0  0  0  0  0  0  0  0  0  0  0  0
   37.5020   29.2430   49.8060 H   0  0  0  0  0  0  0  0  0  0  0  0
   34.3970   30.3490   49.1980 O   0  0  0  0  0  0  0  0  0  0  0  0
   34.1360   29.1790   49.8910 C   0  0  0  0  0  0  0  0  0  0  0  0
   33.6310   29.3930   50.8770 H   0  0  0  0  0  0  0  0  0  0  0  0
   35.0460   28.6090   50.1790 H   0  0  0  0  0  0  0  0  0  0  0  0
   33.2710   28.2390   49.1450 C   0  0  0  0  0  0  0  0  0  0  0  0
   33.9010   27.3440   48.3120 C   0  0  0  0  0  0  0  0  0  0  0  0
   33.1410   26.4290   47.5780 C   0  0  0  0  0  0  0  0  0  0  0  0
   31.7890   26.4860   47.7410 N   0  0  0  0  0  0  0  0  0  0  0  0
   31.1930   27.3720   48.5620 C   0  0  0  0  0  0  0  0  0  0  0  0
   31.9330   28.2530   49.2670 N   0  0  0  0  0  0  0  0  0  0  0  0
   34.9550   27.2250   48.1220 H   0  0  0  0  0  0  0  0  0  0  0  0
   33.5580   25.6910   46.9010 H   0  0  0  0  0  0  0  0  0  0  0  0
   30.1060   27.3570   48.6390 H   0  0  0  0  0  0  0  0  0  0  0  0
  1  3  1  0  0  0  0
  2  7  1  6  0  0  0
  2  6  1  0  0  0  0
  2  3  1  0  0  0  0
  3  8  1  6  0  0  0
  3  4  1  0  0  0  0
  4  9  1  0  0  0  0
  4 10  1  0  0  0  0
  5  4  1  0  0  0  0
  6  5  1  0  0  0  0
 11  6  1  0  0  0  0
 12  6  1  0  0  0  0
 13  2  1  0  0  0  0
 14 13  1  0  0  0  0
 15 14  1  0  0  0  0
 16 15  1  0  0  0  0
 17 16  1  0  0  0  0
 18 17  1  0  0  0  0
 18 19  1  0  0  0  0
 19 14  1  0  0  0  0
 21 20  2  6  0  0  0
 21  1  1  0  0  0  0
 21 24  1  0  0  0  0
 21 22  1  0  0  0  0
 22 23  1  0  0  0  0
 24 25  1  0  0  0  0
 25 27  1  0  0  0  0
 25 26  1  0  0  0  0
 28 33  1  0  0  0  0
 28 25  1  0  0  0  0
 29 28  2  0  0  0  0
 30 31  2  0  0  0  0
 30 29  1  0  0  0  0
 31 32  1  0  0  0  0
 32 36  1  0  0  0  0
 32 33  2  0  0  0  0
 34 29  1  0  0  0  0
 35 30  1  0  0  0  0
M  END
>  <minimizedAffinity>
-4.8923068

>  <minimizedRMSD>
0.413341731

$$$$
