
 OpenBabel03272509403D

 32 34  0  0  1  0  0  0  0  0999 V2000
   37.0520   30.9680   49.0730 C   0  0  0  0  0  0  0  0  0  0  0  0
   36.7790   31.9060   50.0700 C   0  0  0  0  0  0  0  0  0  0  0  0
   37.3940   33.1530   50.0820 C   0  0  0  0  0  0  0  0  0  0  0  0
   38.3070   33.4890   49.0840 C   0  0  0  0  0  0  0  0  0  0  0  0
   38.5600   32.5500   48.1180 C   0  0  0  0  0  0  0  0  0  0  0  0
   37.9400   31.3180   48.1220 C   0  0  0  0  0  0  0  0  0  0  0  0
   36.0770   31.6690   50.8490 H   0  0  0  0  0  0  0  0  0  0  0  0
   37.1350   33.8350   50.8840 H   0  0  0  0  0  0  0  0  0  0  0  0
   38.7570   34.4630   49.1360 H   0  0  0  0  0  0  0  0  0  0  0  0
   39.2810   32.8920   47.3810 H   0  0  0  0  0  0  0  0  0  0  0  0
   36.3660   29.6890   49.1350 C   0  0  2  0  0  3  0  0  0  0  0  0
   36.8920   28.8310   49.9380 O   0  0  0  0  0  1  0  0  0  0  0  0
   33.6050   30.1490   46.8270 C   0  0  0  0  0  0  0  0  0  0  0  0
   32.9430   28.9220   46.8440 C   0  0  0  0  0  0  0  0  0  0  0  0
   33.4460   27.9200   47.6560 C   0  0  0  0  0  0  0  0  0  0  0  0
   34.5580   28.1660   48.4030 N   0  0  0  0  0  0  0  0  0  0  0  0
   35.1700   29.3420   48.3700 C   0  0  0  0  0  0  0  0  0  0  0  0
   34.6790   30.3140   47.5800 N   0  0  0  0  0  0  0  0  0  0  0  0
   33.2120   30.9270   46.1950 H   0  0  0  0  0  0  0  0  0  0  0  0
   32.0530   28.7210   46.2480 H   0  0  0  0  0  0  0  0  0  0  0  0
   32.9690   26.9510   47.7040 H   0  0  0  0  0  0  0  0  0  0  0  0
   38.3240   30.4530   47.0310 C   0  0  0  0  0  3  0  0  0  0  0  0
   38.9370   30.7810   45.9160 C   0  0  0  0  0  3  0  0  0  0  0  0
   39.3940   30.0270   44.7550 C   0  0  0  0  0  0  0  0  0  0  0  0
   40.3620   30.4000   44.3610 H   0  0  0  0  0  0  0  0  0  0  0  0
   39.6170   28.9720   45.0890 H   0  0  0  0  0  0  0  0  0  0  0  0
   38.3680   29.8500   43.6550 C   0  0  0  0  0  3  0  0  0  0  0  0
   37.7290   31.2060   43.4460 C   0  0  0  0  0  2  0  0  0  0  0  0
   36.8500   31.2380   42.2160 C   0  0  0  0  0  2  0  0  0  0  0  0
   37.5410   30.6100   41.0230 C   0  0  0  0  0  2  0  0  0  0  0  0
   39.0310   30.4880   41.3610 C   0  0  0  0  0  2  0  0  0  0  0  0
   39.1160   29.3900   42.4230 C   0  0  0  0  0  2  0  0  0  0  0  0
  1 11  1  0  0  0  0
  1  2  1  0  0  0  0
  2  3  2  0  0  0  0
  2  7  1  0  0  0  0
  3  8  1  0  0  0  0
  4  9  1  0  0  0  0
  4  3  1  0  0  0  0
  5  6  1  0  0  0  0
  5  4  2  0  0  0  0
  6  1  2  0  0  0  0
 10  5  1  0  0  0  0
 11 12  1  6  0  0  0
 13 14  2  0  0  0  0
 13 18  1  0  0  0  0
 14 15  1  0  0  0  0
 15 21  1  0  0  0  0
 15 16  2  0  0  0  0
 17 16  1  0  0  0  0
 17 11  1  0  0  0  0
 18 17  2  0  0  0  0
 19 13  1  0  0  0  0
 20 14  1  0  0  0  0
 22  6  1  0  0  0  0
 23 22  2  0  0  0  0
 24 26  1  0  0  0  0
 24 23  1  0  0  0  0
 25 24  1  0  0  0  0
 27 24  1  0  0  0  0
 28 27  1  0  0  0  0
 29 28  1  0  0  0  0
 30 31  1  0  0  0  0
 30 29  1  0  0  0  0
 31 32  1  0  0  0  0
 32 27  1  0  0  0  0
M  END
>  <minimizedAffinity>
-5.70181274

>  <minimizedRMSD>
2.08486271

$$$$
