
 OpenBabel03272508573D

 37 40  0  0  1  0  0  0  0  0999 V2000
   38.3530   31.9010   44.4990 C   0  0  0  0  0  0  0  0  0  0  0  0
   37.2530   32.4540   44.4070 O   0  0  0  0  0  0  0  0  0  0  0  0
   38.9220   31.6220   45.8040 N   0  0  0  0  0  0  0  0  0  0  0  0
   39.8950   31.3540   45.9670 H   0  0  0  0  0  0  0  0  0  0  0  0
   39.1290   31.5040   43.3110 C   0  0  0  0  0  0  0  0  0  0  0  0
   40.1160   30.5580   43.4590 C   0  0  0  0  0  0  0  0  0  0  0  0
   40.8350   30.2010   42.3250 C   0  0  0  0  0  0  0  0  0  0  0  0
   40.5250   30.8050   41.1420 C   0  0  0  0  0  0  0  0  0  0  0  0
   39.5380   31.7540   40.9840 C   0  0  0  0  0  0  0  0  0  0  0  0
   38.8560   32.0780   42.1140 N   0  0  0  0  0  0  0  0  0  0  0  0
   40.3450   30.0870   44.4140 H   0  0  0  0  0  0  0  0  0  0  0  0
   41.6000   29.4600   42.4680 H   0  0  0  0  0  0  0  0  0  0  0  0
   41.1450   30.4460   40.3430 H   0  0  0  0  0  0  0  0  0  0  0  0
   39.1970   32.3810   39.6970 C   0  0  2  0  0  3  0  0  0  0  0  0
   38.7030   33.5690   39.7580 O   0  0  0  0  0  1  0  0  0  0  0  0
   39.3090   31.8930   38.2970 C   0  0  0  0  0  3  0  0  0  0  0  0
   38.1960   32.4130   37.4860 C   0  0  0  0  0  2  0  0  0  0  0  0
   38.6700   32.5630   36.0350 C   0  0  0  0  0  2  0  0  0  0  0  0
   39.6410   33.7410   36.0890 C   0  0  0  0  0  2  0  0  0  0  0  0
   40.8390   33.4080   36.9350 C   0  0  0  0  0  2  0  0  0  0  0  0
   40.6870   32.1580   37.7350 C   0  0  0  0  0  2  0  0  0  0  0  0
   38.4330   31.0960   48.1870 C   0  0  2  0  0  0  0  0  0  0  0  0
   38.6770   32.5600   48.1070 C   0  0  0  0  0  0  0  0  0  0  0  0
   38.0670   31.7260   46.9600 C   0  0  1  0  0  0  0  0  0  0  0  0
   39.3600   30.4960   48.2790 H   0  0  0  0  0  0  0  0  0  0  0  0
   39.6940   32.9260   47.9820 H   0  0  0  0  0  0  0  0  0  0  0  0
   38.0170   33.1950   48.7120 H   0  0  0  0  0  0  0  0  0  0  0  0
   36.9970   31.9960   46.7880 H   0  0  0  0  0  0  0  0  0  0  0  0
   35.0660   30.2360   49.5120 C   0  0  0  0  0  0  0  0  0  0  0  0
   35.3980   29.5450   50.7290 C   0  0  0  0  0  0  0  0  0  0  0  0
   36.7970   29.4040   51.0640 C   0  0  0  0  0  0  0  0  0  0  0  0
   37.7570   29.9220   50.2280 N   0  0  0  0  0  0  0  0  0  0  0  0
   37.3470   30.5630   49.0910 C   0  0  0  0  0  0  0  0  0  0  0  0
   36.0230   30.7380   48.7040 N   0  0  0  0  0  0  0  0  0  0  0  0
   34.0280   30.3270   49.2870 H   0  0  0  0  0  0  0  0  0  0  0  0
   34.6570   29.1440   51.3760 H   0  0  0  0  0  0  0  0  0  0  0  0
   37.0460   28.8920   51.9660 H   0  0  0  0  0  0  0  0  0  0  0  0
  1  3  1  0  0  0  0
  2  1  2  0  0  0  0
  3  4  1  0  0  0  0
  3 24  1  0  0  0  0
  5  6  1  0  0  0  0
  5  1  1  0  0  0  0
  6 11  1  0  0  0  0
  7 12  1  0  0  0  0
  7  6  2  0  0  0  0
  8  7  1  0  0  0  0
  9  8  2  0  0  0  0
  9 10  1  0  0  0  0
 10  5  2  0  0  0  0
 13  8  1  0  0  0  0
 14 15  1  1  0  0  0
 14  9  1  0  0  0  0
 16 14  1  0  0  0  0
 17 16  1  0  0  0  0
 18 19  1  0  0  0  0
 18 17  1  0  0  0  0
 19 20  1  0  0  0  0
 20 21  1  0  0  0  0
 21 16  1  0  0  0  0
 22 25  1  6  0  0  0
 22 33  1  0  0  0  0
 23 22  1  0  0  0  0
 23 27  1  0  0  0  0
 24 28  1  6  0  0  0
 24 23  1  0  0  0  0
 24 22  1  0  0  0  0
 26 23  1  0  0  0  0
 29 30  1  0  0  0  0
 30 31  2  0  0  0  0
 30 36  1  0  0  0  0
 31 37  1  0  0  0  0
 32 31  1  0  0  0  0
 33 32  2  0  0  0  0
 34 33  1  0  0  0  0
 34 29  2  0  0  0  0
 35 29  1  0  0  0  0
M  END
>  <minimizedAffinity>
-4.98586941

>  <minimizedRMSD>
0.352531761

$$$$
