
 OpenBabel03272506433D

 29 31  0  0  1  0  0  0  0  0999 V2000
   32.5080   28.4870   47.4410 C   0  0  2  0  0  0  0  0  0  0  0  0
   33.7010   28.5770   48.3690 C   0  0  1  0  0  0  0  0  0  0  0  0
   34.2700   27.3300   48.4360 O   0  0  0  0  0  0  0  0  0  0  0  0
   33.7010   26.5180   47.4810 C   0  0  0  0  0  0  0  0  0  0  0  0
   33.0070   27.4420   46.4820 C   0  0  1  0  0  0  0  0  0  0  0  0
   31.5980   28.1450   47.9750 H   0  0  0  0  0  0  0  0  0  0  0  0
   33.3730   28.9650   49.3520 H   0  0  0  0  0  0  0  0  0  0  0  0
   32.9680   25.7990   47.8900 H   0  0  0  0  0  0  0  0  0  0  0  0
   34.5370   26.0430   46.9250 H   0  0  0  0  0  0  0  0  0  0  0  0
   33.7060   27.8960   45.7650 H   0  0  0  0  0  0  0  0  0  0  0  0
   32.2800   29.7090   46.7920 O   0  0  0  0  0  0  0  0  0  0  0  0
   32.1960   30.4290   47.4660 H   0  0  0  0  0  0  0  0  0  0  0  0
   34.8940   29.6940   47.5680 S   0  0  0  0  0  0  0  0  0  0  0  0
   37.5230   29.5270   50.5160 C   0  0  0  0  0  0  0  0  0  0  0  0
   38.1170   30.7800   50.5610 C   0  0  0  0  0  0  0  0  0  0  0  0
   37.6820   31.7310   49.6280 C   0  0  0  0  0  0  0  0  0  0  0  0
   36.7080   31.3810   48.7340 N   0  0  0  0  0  0  0  0  0  0  0  0
   36.1600   30.1500   48.7300 C   0  0  0  0  0  0  0  0  0  0  0  0
   36.5640   29.2100   49.6230 N   0  0  0  0  0  0  0  0  0  0  0  0
   37.8690   28.8080   51.2400 H   0  0  0  0  0  0  0  0  0  0  0  0
   38.8820   31.0750   51.2540 H   0  0  0  0  0  0  0  0  0  0  0  0
   38.0610   32.7440   49.5540 H   0  0  0  0  0  0  0  0  0  0  0  0
   31.9860   26.7750   45.8200 O   0  0  0  0  0  0  0  0  0  0  0  0
   32.2090   26.6430   44.4620 C   0  0  0  0  0  3  0  0  0  0  0  0
   33.3300   27.5570   43.9930 C   0  0  0  0  0  2  0  0  0  0  0  0
   34.2780   26.8690   43.0500 C   0  0  0  0  0  2  0  0  0  0  0  0
   33.5650   26.0330   42.0170 C   0  0  0  0  0  2  0  0  0  0  0  0
   32.4960   25.1430   42.5820 C   0  0  0  0  0  2  0  0  0  0  0  0
   32.6160   25.2260   44.1070 C   0  0  0  0  0  2  0  0  0  0  0  0
  1  6  1  1  0  0  0
  1  2  1  0  0  0  0
  2  3  1  0  0  0  0
  2  7  1  1  0  0  0
  4  8  1  0  0  0  0
  4  3  1  0  0  0  0
  5 10  1  6  0  0  0
  5  1  1  0  0  0  0
  5  4  1  0  0  0  0
  9  4  1  0  0  0  0
 11  1  1  0  0  0  0
 11 12  1  0  0  0  0
 13  2  1  0  0  0  0
 13 18  1  0  0  0  0
 14 15  1  0  0  0  0
 14 20  1  0  0  0  0
 15 21  1  0  0  0  0
 16 15  2  0  0  0  0
 17 16  1  0  0  0  0
 18 17  2  0  0  0  0
 18 19  1  0  0  0  0
 19 14  2  0  0  0  0
 22 16  1  0  0  0  0
 23  5  1  0  0  0  0
 24 23  1  0  0  0  0
 25 24  1  0  0  0  0
 26 25  1  0  0  0  0
 27 28  1  0  0  0  0
 27 26  1  0  0  0  0
 28 29  1  0  0  0  0
 29 24  1  0  0  0  0
M  END
>  <minimizedAffinity>
-3.76152086

>  <minimizedRMSD>
0.668109834

$$$$
