
 OpenBabel03272508423D

 17 18  0  0  0  0  0  0  0  0999 V2000
   37.8920   30.5220   50.9530 C   0  0  0  0  0  0  0  0  0  0  0  0
   38.4090   31.4470   50.0070 C   0  0  0  0  0  0  0  0  0  0  0  0
   37.6370   31.7480   48.8640 C   0  0  0  0  0  0  0  0  0  0  0  0
   36.4440   31.1330   48.7390 N   0  0  0  0  0  0  0  0  0  0  0  0
   35.9810   30.2660   49.6460 C   0  0  0  0  0  0  0  0  0  0  0  0
   36.6790   29.9570   50.7350 N   0  0  0  0  0  0  0  0  0  0  0  0
   38.5410   30.3450   51.7990 H   0  0  0  0  0  0  0  0  0  0  0  0
   39.3720   31.9220   50.1420 H   0  0  0  0  0  0  0  0  0  0  0  0
   38.0230   32.4520   48.1380 H   0  0  0  0  0  0  0  0  0  0  0  0
   34.6960   29.5870   49.5290 C   0  0  0  0  0  0  0  0  0  0  0  0
   33.8100   29.6110   50.4110 O   0  0  0  0  0  0  0  0  0  0  0  0
   34.4480   28.8300   48.2770 C   0  0  0  0  0  3  0  0  0  0  0  0
   33.6210   27.5940   48.5080 C   0  0  0  0  0  2  0  0  0  0  0  0
   33.7980   26.6970   47.3100 C   0  0  0  0  0  2  0  0  0  0  0  0
   33.8620   27.4740   46.0400 C   0  0  0  0  0  2  0  0  0  0  0  0
   33.2310   28.8330   46.1220 C   0  0  0  0  0  2  0  0  0  0  0  0
   33.7010   29.6680   47.2570 C   0  0  0  0  0  2  0  0  0  0  0  0
  1  7  1  0  0  0  0
  2  8  1  0  0  0  0
  2  1  2  0  0  0  0
  3  2  1  0  0  0  0
  4  3  2  0  0  0  0
  4  5  1  0  0  0  0
  5  6  2  0  0  0  0
  6  1  1  0  0  0  0
  9  3  1  0  0  0  0
 10  5  1  0  0  0  0
 10 11  2  0  0  0  0
 12 13  1  0  0  0  0
 12 10  1  0  0  0  0
 14 13  1  0  0  0  0
 15 16  1  0  0  0  0
 15 14  1  0  0  0  0
 16 17  1  0  0  0  0
 17 12  1  0  0  0  0
M  END
>  <minimizedAffinity>
-4.37488174

>  <minimizedRMSD>
2.43512368

$$$$
