
     RDKit          3D

 29 30  0  0  0  0  0  0  0  0999 V2000
   37.3676   30.2219   51.3270 C   0  0  0  0  0  0  0  0  0  0  0  0
   38.0236   30.6897   50.1629 C   0  0  0  0  0  0  0  0  0  0  0  0
   37.4793   30.2990   48.9276 C   0  0  0  0  0  0  0  0  0  0  0  0
   36.3782   29.5117   48.9024 N   0  0  0  0  0  0  0  0  0  0  0  0
   35.7878   29.0909   50.0418 C   0  0  0  0  0  0  0  0  0  0  0  0
   36.2888   29.4504   51.2453 N   0  0  0  0  0  0  0  0  0  0  0  0
   38.1726   30.7934   47.7140 C   0  0  0  0  0  0  0  0  0  0  0  0
   37.7587   30.5027   52.3023 H   0  0  0  0  0  0  0  0  0  0  0  0
   38.8855   31.3061   50.2767 H   0  0  0  0  0  0  0  0  0  0  0  0
   34.9066   28.4606   49.9182 H   0  0  0  0  0  0  0  0  0  0  0  0
   37.3710   30.9197   46.9550 H   0  0  0  0  0  0  0  0  0  0  0  0
   38.6070   31.7885   47.8618 H   0  0  0  0  0  0  0  0  0  0  0  0
   39.2539   29.8901   47.2106 C   0  0  0  0  0  0  0  0  0  0  0  0
   40.5424   30.7054   47.2493 C   0  0  0  0  0  0  0  0  0  0  0  0
   41.5168   30.2355   46.2023 C   0  0  0  0  0  0  0  0  0  0  0  0
   40.9530   30.6019   44.8451 C   0  0  0  0  0  0  0  0  0  0  0  0
   39.4791   30.3078   44.7487 C   0  0  0  0  0  0  0  0  0  0  0  0
   39.0150   29.3521   45.8267 C   0  0  0  0  0  0  0  0  0  0  0  0
   39.3960   29.0531   47.9201 H   0  0  0  0  0  0  0  0  0  0  0  0
   41.0110   30.5899   48.2666 H   0  0  0  0  0  0  0  0  0  0  0  0
   40.3335   31.7685   47.1001 H   0  0  0  0  0  0  0  0  0  0  0  0
   41.6444   29.1409   46.2515 H   0  0  0  0  0  0  0  0  0  0  0  0
   42.4465   30.7974   46.3164 H   0  0  0  0  0  0  0  0  0  0  0  0
   41.1245   31.7021   44.6864 H   0  0  0  0  0  0  0  0  0  0  0  0
   41.5676   30.0903   44.0763 H   0  0  0  0  0  0  0  0  0  0  0  0
   39.2852   29.8166   43.7742 H   0  0  0  0  0  0  0  0  0  0  0  0
   38.9141   31.2581   44.8098 H   0  0  0  0  0  0  0  0  0  0  0  0
   39.5934   28.4164   45.6816 H   0  0  0  0  0  0  0  0  0  0  0  0
   37.9586   29.1249   45.6206 H   0  0  0  0  0  0  0  0  0  0  0  0
  2  1  2  0
  3  2  1  0
  4  3  2  0
  4  5  1  0
  5  6  2  0
  6  1  1  0
  7  3  1  0
  1  8  1  0
  2  9  1  0
  5 10  1  0
  7 11  1  0
  7 12  1  0
 13 14  1  0
 14 15  1  0
 15 16  1  0
 16 17  1  0
 17 18  1  0
 18 13  1  0
 13 19  1  0
 14 20  1  0
 14 21  1  0
 15 22  1  0
 15 23  1  0
 16 24  1  0
 16 25  1  0
 17 26  1  0
 17 27  1  0
 18 28  1  0
 18 29  1  0
  7 13  1  0
M  ISO  5   8  14   9  14  10  14  11   8  12   8
M  END
>  <DihAtoms>  (1) 
2,6,12,13

>  <DihDeg>  (1) 
179.99874439345106

$$$$
