
 OpenBabel03272509313D

 35 37  0  0  1  0  0  0  0  0999 V2000
   36.3320   30.7280   48.9780 C   0  0  2  0  0  0  0  0  0  0  0  0
   37.2250   31.6640   49.7330 C   0  0  0  0  0  0  0  0  0  0  0  0
   38.1520   30.9520   50.6910 C   0  0  0  0  0  0  0  0  0  0  0  0
   37.3630   30.0860   51.6650 C   0  0  0  0  0  0  0  0  0  0  0  0
   36.1620   29.4140   51.0550 C   0  0  0  0  0  0  0  0  0  0  0  0
   36.3570   29.3440   49.5330 C   0  0  1  0  0  0  0  0  0  0  0  0
   35.2460   31.0680   48.9600 H   0  0  0  0  0  0  0  0  0  0  0  0
   36.5180   32.2310   50.4280 H   0  0  0  0  0  0  0  0  0  0  0  0
   37.7280   32.4310   49.1760 H   0  0  0  0  0  0  0  0  0  0  0  0
   38.6240   31.7380   51.3220 H   0  0  0  0  0  0  0  0  0  0  0  0
   38.9360   30.3680   50.2150 H   0  0  0  0  0  0  0  0  0  0  0  0
   37.0050   30.6840   52.5400 H   0  0  0  0  0  0  0  0  0  0  0  0
   38.0650   29.3350   52.0870 H   0  0  0  0  0  0  0  0  0  0  0  0
   35.2110   29.9290   51.2090 H   0  0  0  0  0  0  0  0  0  0  0  0
   36.1130   28.3670   51.4070 H   0  0  0  0  0  0  0  0  0  0  0  0
   37.3320   28.9250   49.4700 H   0  0  0  0  0  0  0  0  0  0  0  0
   36.7120   30.6720   47.5390 C   0  0  0  0  0  0  0  0  0  0  0  0
   38.0530   30.9470   47.2520 C   0  0  0  0  0  0  0  0  0  0  0  0
   38.4290   30.8940   45.9040 C   0  0  0  0  0  0  0  0  0  0  0  0
   37.4800   30.5790   44.9590 N   0  0  0  0  0  0  0  0  0  0  0  0
   36.1770   30.3160   45.2980 C   0  0  0  0  0  0  0  0  0  0  0  0
   35.8130   30.3680   46.5890 N   0  0  0  0  0  0  0  0  0  0  0  0
   38.8820   31.1930   47.8860 H   0  0  0  0  0  0  0  0  0  0  0  0
   39.4200   31.0840   45.5480 H   0  0  0  0  0  0  0  0  0  0  0  0
   35.5000   30.0790   44.5000 H   0  0  0  0  0  0  0  0  0  0  0  0
   34.1300   28.2530   49.0230 C   0  0  0  0  0  0  0  0  0  0  0  0
   33.2770   28.9020   49.6960 O   0  0  0  0  0  0  0  0  0  0  0  0
   35.5320   28.4020   48.8710 N   0  0  0  0  0  0  0  0  0  0  0  0
   35.8450   27.6700   48.1620 H   0  0  0  0  0  0  0  0  0  0  0  0
   33.2460   27.2330   48.3950 C   0  0  0  0  0  3  0  0  0  0  0  0
   31.8300   27.6760   48.7000 C   0  0  0  0  0  2  0  0  0  0  0  0
   30.8900   26.6900   48.0430 C   0  0  0  0  0  2  0  0  0  0  0  0
   31.6340   25.4670   47.5610 C   0  0  0  0  0  2  0  0  0  0  0  0
   32.6880   25.8220   46.5280 C   0  0  0  0  0  2  0  0  0  0  0  0
   33.4010   27.1220   46.9130 C   0  0  0  0  0  2  0  0  0  0  0  0
  1  7  1  1  0  0  0
  1  6  1  0  0  0  0
  1  2  1  0  0  0  0
  2  8  1  0  0  0  0
  2  3  1  0  0  0  0
  3 10  1  0  0  0  0
  3  4  1  0  0  0  0
  4 13  1  0  0  0  0
  4 12  1  0  0  0  0
  5 14  1  0  0  0  0
  5 15  1  0  0  0  0
  5  4  1  0  0  0  0
  6 16  1  6  0  0  0
  6  5  1  0  0  0  0
  9  2  1  0  0  0  0
 11  3  1  0  0  0  0
 17  1  1  0  0  0  0
 18 17  1  0  0  0  0
 18 23  1  0  0  0  0
 19 18  2  0  0  0  0
 20 21  2  0  0  0  0
 20 19  1  0  0  0  0
 21 22  1  0  0  0  0
 22 17  2  0  0  0  0
 24 19  1  0  0  0  0
 25 21  1  0  0  0  0
 26 27  2  0  0  0  0
 28 26  1  0  0  0  0
 28  6  1  0  0  0  0
 29 28  1  0  0  0  0
 30 31  1  0  0  0  0
 30 26  1  0  0  0  0
 32 31  1  0  0  0  0
 33 32  1  0  0  0  0
 34 35  1  0  0  0  0
 34 33  1  0  0  0  0
 35 30  1  0  0  0  0
M  END
>  <minimizedAffinity>
-6.14309311

>  <minimizedRMSD>
0.490754187

$$$$
