
 OpenBabel03272508423D

 17 18  0  0  0  0  0  0  0  0999 V2000
   37.6000   29.5570   50.0670 C   0  0  0  0  0  0  0  0  0  0  0  0
   37.2730   30.6510   50.9120 C   0  0  0  0  0  0  0  0  0  0  0  0
   36.9350   31.8870   50.3190 C   0  0  0  0  0  0  0  0  0  0  0  0
   36.9450   31.9540   48.9720 N   0  0  0  0  0  0  0  0  0  0  0  0
   37.2570   30.9070   48.2000 C   0  0  0  0  0  0  0  0  0  0  0  0
   37.5800   29.7280   48.7220 N   0  0  0  0  0  0  0  0  0  0  0  0
   37.8460   28.6470   50.5970 H   0  0  0  0  0  0  0  0  0  0  0  0
   37.2760   30.5590   51.9900 H   0  0  0  0  0  0  0  0  0  0  0  0
   36.6840   32.7260   50.9550 H   0  0  0  0  0  0  0  0  0  0  0  0
   37.2760   30.9590   46.7430 C   0  0  0  0  0  0  0  0  0  0  0  0
   36.3680   30.5000   46.0160 O   0  0  0  0  0  0  0  0  0  0  0  0
   38.4540   31.6000   46.1090 C   0  0  0  0  0  0  0  0  0  0  0  0
   39.2020   32.4940   47.0600 C   0  0  0  0  0  0  0  0  0  0  0  0
   40.0750   33.4060   46.2360 C   0  0  0  0  0  0  0  0  0  0  0  0
   40.6650   32.6980   45.0640 C   0  0  0  0  0  0  0  0  0  0  0  0
   40.7310   31.2070   45.2180 C   0  0  0  0  0  0  0  0  0  0  0  0
   39.4490   30.5680   45.6100 C   0  0  0  0  0  0  0  0  0  0  0  0
  1  7  1  0  0  0  0
  1  2  1  0  0  0  0
  2  8  1  0  0  0  0
  3  2  2  0  0  0  0
  3  9  1  0  0  0  0
  4  3  1  0  0  0  0
  5  6  1  0  0  0  0
  5  4  2  0  0  0  0
  6  1  2  0  0  0  0
 10  5  1  0  0  0  0
 11 10  2  0  0  0  0
 12 10  1  0  0  0  0
 12 13  1  0  0  0  0
 14 13  1  0  0  0  0
 15 16  1  0  0  0  0
 15 14  1  0  0  0  0
 16 17  1  0  0  0  0
 17 12  1  0  0  0  0
M  END
>  <minimizedAffinity>
-4.66375923

>  <minimizedRMSD>
5.87499666

$$$$
