
     RDKit          3D

 40 42  0  0  0  0  0  0  0  0999 V2000
   34.7828   29.5441   47.5399 S   0  0  0  0  0  0  0  0  0  0  0  0
   37.3702   29.4829   50.5304 C   0  0  0  0  0  0  0  0  0  0  0  0
   37.9909   30.7231   50.5137 C   0  0  0  0  0  0  0  0  0  0  0  0
   37.5896   31.6296   49.5251 C   0  0  0  0  0  0  0  0  0  0  0  0
   36.6199   31.2526   48.6384 N   0  0  0  0  0  0  0  0  0  0  0  0
   36.0443   30.0361   48.6927 C   0  0  0  0  0  0  0  0  0  0  0  0
   36.4151   29.1379   49.6416 N   0  0  0  0  0  0  0  0  0  0  0  0
   32.3895   28.3487   47.4744 C   0  0  2  0  0  0  0  0  0  0  0  0
   33.6198   28.4054   48.3540 C   0  0  1  0  0  0  0  0  0  0  0  0
   34.1859   27.1548   48.3557 O   0  0  0  0  0  0  0  0  0  0  0  0
   33.5740   26.3759   47.4003 C   0  0  0  0  0  0  0  0  0  0  0  0
   32.8432   27.3348   46.4618 C   0  0  1  0  0  0  0  0  0  0  0  0
   32.1387   29.5933   46.8764 O   0  0  0  0  0  0  0  0  0  0  0  0
   31.7923   26.6929   45.8225 O   0  0  0  0  0  0  0  0  0  0  0  0
   37.6901   28.7970   51.2971 H   0  0  0  0  0  0  0  0  0  0  0  0
   38.7544   31.0389   51.2008 H   0  0  0  0  0  0  0  0  0  0  0  0
   37.9928   32.6287   49.4010 H   0  0  0  0  0  0  0  0  0  0  0  0
   31.5009   27.9931   48.0354 H   0  0  0  0  0  0  0  0  0  0  0  0
   33.3352   28.7613   49.3623 H   0  0  0  0  0  0  0  0  0  0  0  0
   32.8546   25.6474   47.8154 H   0  0  0  0  0  0  0  0  0  0  0  0
   34.3838   25.9183   46.7941 H   0  0  0  0  0  0  0  0  0  0  0  0
   33.5131   27.8104   45.7313 H   0  0  0  0  0  0  0  0  0  0  0  0
   32.0872   30.2898   47.5757 H   0  0  0  0  0  0  0  0  0  0  0  0
   31.8398   26.8040   44.4443 C   0  0  0  0  0  0  0  0  0  0  0  0
   32.1556   28.2283   44.0140 C   0  0  0  0  0  0  0  0  0  0  0  0
   33.1692   28.2826   42.9053 C   0  0  0  0  0  0  0  0  0  0  0  0
   32.9098   27.2578   41.8292 C   0  0  0  0  0  0  0  0  0  0  0  0
   32.6373   25.8773   42.3533 C   0  0  0  0  0  0  0  0  0  0  0  0
   32.9195   25.9153   43.8594 C   0  0  0  0  0  0  0  0  0  0  0  0
   30.9041   26.5374   43.9371 H   0  0  0  0  0  0  0  0  0  0  0  0
   31.2465   28.7489   43.6601 H   0  0  0  0  0  0  0  0  0  0  0  0
   32.5734   28.8085   44.8772 H   0  0  0  0  0  0  0  0  0  0  0  0
   33.0495   29.2896   42.4185 H   0  0  0  0  0  0  0  0  0  0  0  0
   34.1871   28.2766   43.3017 H   0  0  0  0  0  0  0  0  0  0  0  0
   33.8439   27.2021   41.2187 H   0  0  0  0  0  0  0  0  0  0  0  0
   32.1211   27.6401   41.1374 H   0  0  0  0  0  0  0  0  0  0  0  0
   31.5212   25.7275   42.2716 H   0  0  0  0  0  0  0  0  0  0  0  0
   33.1875   25.0842   41.8379 H   0  0  0  0  0  0  0  0  0  0  0  0
   33.9229   26.3645   43.9645 H   0  0  0  0  0  0  0  0  0  0  0  0
   32.8488   24.8861   44.2553 H   0  0  0  0  0  0  0  0  0  0  0  0
  1  6  1  0
  3  2  2  0
  4  3  1  0
  5  6  1  0
  5  4  2  0
  6  7  2  0
  7  2  1  0
  8 13  1  0
  8  9  1  0
  9  1  1  0
  9 10  1  0
 11 10  1  0
 12 14  1  0
 12 11  1  0
 12  8  1  0
  2 15  1  0
  3 16  1  0
  4 17  1  0
  8 18  1  1
  9 19  1  1
 11 20  1  0
 11 21  1  0
 12 22  1  6
 13 23  1  0
 24 25  1  0
 25 26  1  0
 26 27  1  0
 27 28  1  0
 28 29  1  0
 29 24  1  0
 24 30  1  0
 25 31  1  0
 25 32  1  0
 26 33  1  0
 26 34  1  0
 27 35  1  0
 27 36  1  0
 28 37  1  0
 28 38  1  0
 29 39  1  0
 29 40  1  0
 14 24  1  0
M  ISO  8  15  14  16  14  17  14  18  13  19  13  20  13  21  13  22  13
M  ISO  1  23   3
M  END
>  <DihAtoms>  (1) 
11,13,23,24

>  <DihDeg>  (1) 
119.95345415140399

$$$$
