
 OpenBabel03272501193D

 27 29  0  0  0  0  0  0  0  0999 V2000
   37.9400   22.8190   33.7290 C   0  0  0  0  0  0  0  0  0  0  0  0
   38.2000   23.8500   34.6130 C   0  0  0  0  0  0  0  0  0  0  0  0
   38.1840   25.1260   34.0520 C   0  0  0  0  0  0  0  0  0  0  0  0
   37.9210   25.3230   32.6960 C   0  0  0  0  0  0  0  0  0  0  0  0
   37.6710   24.2240   31.8900 C   0  0  0  0  0  0  0  0  0  0  0  0
   37.6800   22.9350   32.4140 C   0  0  0  0  0  0  0  0  0  0  0  0
   38.3860   25.9400   34.7390 H   0  0  0  0  0  0  0  0  0  0  0  0
   37.9270   26.3440   32.3440 H   0  0  0  0  0  0  0  0  0  0  0  0
   37.4840   24.5070   30.8680 H   0  0  0  0  0  0  0  0  0  0  0  0
   37.5270   24.0130   36.9710 C   0  0  0  0  0  0  0  0  0  0  0  0
   38.4710   23.6530   36.0120 C   0  0  0  0  0  0  0  0  0  0  0  0
   39.6660   23.1050   36.4770 C   0  0  0  0  0  0  0  0  0  0  0  0
   39.8430   22.9540   37.8210 N   0  0  0  0  0  0  0  0  0  0  0  0
   38.8920   23.3210   38.7100 C   0  0  0  0  0  0  0  0  0  0  0  0
   37.7340   23.8500   38.2870 N   0  0  0  0  0  0  0  0  0  0  0  0
   36.5980   24.4390   36.5940 H   0  0  0  0  0  0  0  0  0  0  0  0
   40.4220   22.8150   35.7560 H   0  0  0  0  0  0  0  0  0  0  0  0
   39.1010   23.1720   39.7620 H   0  0  0  0  0  0  0  0  0  0  0  0
   37.9390   21.5100   34.2160 O   0  0  0  0  0  0  0  0  0  0  0  0
   37.1980   20.8530   34.0140 H   0  0  0  0  0  0  0  0  0  0  0  0
   37.4280   21.8740   31.5820 O   0  0  0  0  0  0  0  0  0  0  0  0
   36.2450   21.4050   31.0650 C   0  0  0  0  0  3  0  0  0  0  0  0
   35.0820   21.4570   32.0340 C   0  0  0  0  0  2  0  0  0  0  0  0
   34.4880   20.0730   32.1980 C   0  0  0  0  0  2  0  0  0  0  0  0
   35.5930   19.1880   32.7500 C   0  0  0  0  0  2  0  0  0  0  0  0
   36.6240   18.9990   31.6650 C   0  0  0  0  0  2  0  0  0  0  0  0
   36.4810   20.0010   30.5530 C   0  0  0  0  0  2  0  0  0  0  0  0
  1 19  1  0  0  0  0
  1  2  1  0  0  0  0
  2 11  1  0  0  0  0
  3  2  2  0  0  0  0
  3  7  1  0  0  0  0
  4  3  1  0  0  0  0
  5  6  1  0  0  0  0
  5  4  2  0  0  0  0
  6  1  2  0  0  0  0
  8  4  1  0  0  0  0
  9  5  1  0  0  0  0
 10 15  1  0  0  0  0
 11 12  1  0  0  0  0
 11 10  2  0  0  0  0
 12 13  2  0  0  0  0
 13 14  1  0  0  0  0
 14 18  1  0  0  0  0
 15 14  2  0  0  0  0
 16 10  1  0  0  0  0
 17 12  1  0  0  0  0
 20 19  1  0  0  0  0
 21  6  1  0  0  0  0
 22 21  1  0  0  0  0
 22 23  1  0  0  0  0
 23 24  1  0  0  0  0
 24 25  1  0  0  0  0
 26 25  1  0  0  0  0
 27 22  1  0  0  0  0
 27 26  1  0  0  0  0
M  END
>  <minimizedAffinity>
-5.20008802

$$$$

 OpenBabel03272501193D

 27 29  0  0  0  0  0  0  0  0999 V2000
   37.6100   22.7480   32.6880 C   0  0  0  0  0  0  0  0  0  0  0  0
   36.4860   22.2250   32.0760 C   0  0  0  0  0  0  0  0  0  0  0  0
   35.6290   23.1680   31.5090 C   0  0  0  0  0  0  0  0  0  0  0  0
   35.9080   24.5330   31.5680 C   0  0  0  0  0  0  0  0  0  0  0  0
   37.0620   24.9610   32.2040 C   0  0  0  0  0  0  0  0  0  0  0  0
   37.9400   24.0490   32.7820 C   0  0  0  0  0  0  0  0  0  0  0  0
   34.7460   22.7650   31.0280 H   0  0  0  0  0  0  0  0  0  0  0  0
   35.1920   25.1950   31.1040 H   0  0  0  0  0  0  0  0  0  0  0  0
   37.1630   26.0330   32.1820 H   0  0  0  0  0  0  0  0  0  0  0  0
   35.5290   20.1870   33.0620 C   0  0  0  0  0  0  0  0  0  0  0  0
   36.1930   20.8180   32.0120 C   0  0  0  0  0  0  0  0  0  0  0  0
   36.5490   20.0240   30.9230 C   0  0  0  0  0  0  0  0  0  0  0  0
   36.2350   18.6970   30.9430 N   0  0  0  0  0  0  0  0  0  0  0  0
   35.5900   18.1340   31.9890 C   0  0  0  0  0  0  0  0  0  0  0  0
   35.2360   18.8770   33.0490 N   0  0  0  0  0  0  0  0  0  0  0  0
   35.2570   20.8190   33.9050 H   0  0  0  0  0  0  0  0  0  0  0  0
   37.0670   20.4840   30.0890 H   0  0  0  0  0  0  0  0  0  0  0  0
   35.3720   17.0750   31.9380 H   0  0  0  0  0  0  0  0  0  0  0  0
   38.5170   21.8660   33.2800 O   0  0  0  0  0  0  0  0  0  0  0  0
   39.5130   21.9180   33.1180 H   0  0  0  0  0  0  0  0  0  0  0  0
   39.0720   24.5130   33.4030 O   0  0  0  0  0  0  0  0  0  0  0  0
   39.3710   24.6380   34.7380 C   0  0  0  0  0  3  0  0  0  0  0  0
   38.1570   24.7210   35.6390 C   0  0  0  0  0  2  0  0  0  0  0  0
   38.2100   25.9950   36.4570 C   0  0  0  0  0  2  0  0  0  0  0  0
   38.2110   27.1480   35.4670 C   0  0  0  0  0  2  0  0  0  0  0  0
   39.5350   27.1400   34.7450 C   0  0  0  0  0  2  0  0  0  0  0  0
   40.2730   25.8410   34.9070 C   0  0  0  0  0  2  0  0  0  0  0  0
  1  6  1  0  0  0  0
  1 19  1  0  0  0  0
  2  1  2  0  0  0  0
  3  4  2  0  0  0  0
  3  2  1  0  0  0  0
  4  5  1  0  0  0  0
  5  6  2  0  0  0  0
  6 21  1  0  0  0  0
  7  3  1  0  0  0  0
  8  4  1  0  0  0  0
  9  5  1  0  0  0  0
 10 16  1  0  0  0  0
 11  2  1  0  0  0  0
 11 10  2  0  0  0  0
 12 13  2  0  0  0  0
 12 11  1  0  0  0  0
 13 14  1  0  0  0  0
 14 15  2  0  0  0  0
 15 10  1  0  0  0  0
 17 12  1  0  0  0  0
 18 14  1  0  0  0  0
 20 19  1  0  0  0  0
 21 22  1  0  0  0  0
 22 27  1  0  0  0  0
 22 23  1  0  0  0  0
 23 24  1  0  0  0  0
 25 24  1  0  0  0  0
 26 27  1  0  0  0  0
 26 25  1  0  0  0  0
M  END
>  <minimizedAffinity>
-5.12077999

$$$$

 OpenBabel03272501193D

 27 29  0  0  0  0  0  0  0  0999 V2000
   37.2810   23.2210   32.3370 C   0  0  0  0  0  0  0  0  0  0  0  0
   36.1740   22.5430   31.8610 C   0  0  0  0  0  0  0  0  0  0  0  0
   35.2020   23.3430   31.2650 C   0  0  0  0  0  0  0  0  0  0  0  0
   35.3580   24.7260   31.1650 C   0  0  0  0  0  0  0  0  0  0  0  0
   36.5040   25.3150   31.6720 C   0  0  0  0  0  0  0  0  0  0  0  0
   37.4960   24.5480   32.2750 C   0  0  0  0  0  0  0  0  0  0  0  0
   34.3310   22.8190   30.8900 H   0  0  0  0  0  0  0  0  0  0  0  0
   34.5570   25.2720   30.6880 H   0  0  0  0  0  0  0  0  0  0  0  0
   36.5060   26.3830   31.5350 H   0  0  0  0  0  0  0  0  0  0  0  0
   36.3290   20.2930   30.8850 C   0  0  0  0  0  0  0  0  0  0  0  0
   36.0080   21.1160   31.9610 C   0  0  0  0  0  0  0  0  0  0  0  0
   35.5260   20.4930   33.1120 C   0  0  0  0  0  0  0  0  0  0  0  0
   35.3980   19.1360   33.1220 N   0  0  0  0  0  0  0  0  0  0  0  0
   35.7250   18.3820   32.0480 C   0  0  0  0  0  0  0  0  0  0  0  0
   36.1900   18.9580   30.9290 N   0  0  0  0  0  0  0  0  0  0  0  0
   36.7040   20.7920   29.9930 H   0  0  0  0  0  0  0  0  0  0  0  0
   35.2670   21.1070   33.9670 H   0  0  0  0  0  0  0  0  0  0  0  0
   35.5970   17.3100   32.1260 H   0  0  0  0  0  0  0  0  0  0  0  0
   38.2990   22.4870   32.9490 O   0  0  0  0  0  0  0  0  0  0  0  0
   39.2750   22.6050   32.7130 H   0  0  0  0  0  0  0  0  0  0  0  0
   38.6170   25.1690   32.7650 O   0  0  0  0  0  0  0  0  0  0  0  0
   39.0360   26.4730   32.6550 C   0  0  0  0  0  3  0  0  0  0  0  0
   40.4660   26.6260   32.1820 C   0  0  0  0  0  2  0  0  0  0  0  0
   41.2580   27.4290   33.1940 C   0  0  0  0  0  2  0  0  0  0  0  0
   41.2150   26.6500   34.4980 C   0  0  0  0  0  2  0  0  0  0  0  0
   39.8050   26.7100   35.0300 C   0  0  0  0  0  2  0  0  0  0  0  0
   38.8140   27.1510   33.9890 C   0  0  0  0  0  2  0  0  0  0  0  0
  1 19  1  0  0  0  0
  2 11  1  0  0  0  0
  2  1  2  0  0  0  0
  3  2  1  0  0  0  0
  4  3  2  0  0  0  0
  4  5  1  0  0  0  0
  5  6  2  0  0  0  0
  6  1  1  0  0  0  0
  6 21  1  0  0  0  0
  7  3  1  0  0  0  0
  8  4  1  0  0  0  0
  9  5  1  0  0  0  0
 10 15  2  0  0  0  0
 10 11  1  0  0  0  0
 11 12  2  0  0  0  0
 12 13  1  0  0  0  0
 12 17  1  0  0  0  0
 14 18  1  0  0  0  0
 14 13  2  0  0  0  0
 15 14  1  0  0  0  0
 16 10  1  0  0  0  0
 20 19  1  0  0  0  0
 22 21  1  0  0  0  0
 22 27  1  0  0  0  0
 23 22  1  0  0  0  0
 23 24  1  0  0  0  0
 24 25  1  0  0  0  0
 25 26  1  0  0  0  0
 27 26  1  0  0  0  0
M  END
>  <minimizedAffinity>
-5.02140617

$$$$

 OpenBabel03272501193D

 27 29  0  0  0  0  0  0  0  0999 V2000
   37.0330   28.0920   34.3440 C   0  0  0  0  0  0  0  0  0  0  0  0
   37.7520   27.1980   33.5730 C   0  0  0  0  0  0  0  0  0  0  0  0
   37.2760   27.0190   32.2750 C   0  0  0  0  0  0  0  0  0  0  0  0
   36.1540   27.7060   31.8110 C   0  0  0  0  0  0  0  0  0  0  0  0
   35.4990   28.5830   32.6590 C   0  0  0  0  0  0  0  0  0  0  0  0
   35.9450   28.7860   33.9620 C   0  0  0  0  0  0  0  0  0  0  0  0
   37.8350   26.3190   31.6660 H   0  0  0  0  0  0  0  0  0  0  0  0
   35.8520   27.5090   30.7930 H   0  0  0  0  0  0  0  0  0  0  0  0
   34.6510   29.0480   32.1850 H   0  0  0  0  0  0  0  0  0  0  0  0
   40.1770   27.0600   33.9490 C   0  0  0  0  0  0  0  0  0  0  0  0
   38.9110   26.4870   34.0470 C   0  0  0  0  0  0  0  0  0  0  0  0
   38.8340   25.2170   34.6160 C   0  0  0  0  0  0  0  0  0  0  0  0
   39.9820   24.6130   35.0380 N   0  0  0  0  0  0  0  0  0  0  0  0
   41.1870   25.2140   34.9200 C   0  0  0  0  0  0  0  0  0  0  0  0
   41.2870   26.4360   34.3760 N   0  0  0  0  0  0  0  0  0  0  0  0
   40.2220   28.0520   33.5040 H   0  0  0  0  0  0  0  0  0  0  0  0
   37.8630   24.7440   34.7060 H   0  0  0  0  0  0  0  0  0  0  0  0
   42.0560   24.6760   35.2760 H   0  0  0  0  0  0  0  0  0  0  0  0
   37.4480   28.3250   35.6570 O   0  0  0  0  0  0  0  0  0  0  0  0
   37.5560   29.2540   36.0380 H   0  0  0  0  0  0  0  0  0  0  0  0
   35.2680   29.6630   34.7710 O   0  0  0  0  0  0  0  0  0  0  0  0
   35.2630   31.0370   34.7920 C   0  0  0  0  0  3  0  0  0  0  0  0
   35.8930   31.6400   36.0300 C   0  0  0  0  0  2  0  0  0  0  0  0
   34.8970   32.5490   36.7220 C   0  0  0  0  0  2  0  0  0  0  0  0
   33.7090   31.6810   37.1050 C   0  0  0  0  0  2  0  0  0  0  0  0
   32.9960   31.2820   35.8360 C   0  0  0  0  0  2  0  0  0  0  0  0
   33.8360   31.5040   34.6090 C   0  0  0  0  0  2  0  0  0  0  0  0
  1 19  1  0  0  0  0
  2 11  1  0  0  0  0
  2  1  2  0  0  0  0
  3  2  1  0  0  0  0
  4  3  2  0  0  0  0
  4  5  1  0  0  0  0
  5  6  2  0  0  0  0
  6  1  1  0  0  0  0
  6 21  1  0  0  0  0
  7  3  1  0  0  0  0
  8  4  1  0  0  0  0
  9  5  1  0  0  0  0
 10 11  2  0  0  0  0
 10 15  1  0  0  0  0
 11 12  1  0  0  0  0
 12 17  1  0  0  0  0
 12 13  2  0  0  0  0
 14 13  1  0  0  0  0
 14 18  1  0  0  0  0
 15 14  2  0  0  0  0
 16 10  1  0  0  0  0
 19 20  1  0  0  0  0
 21 22  1  0  0  0  0
 22 23  1  0  0  0  0
 23 24  1  0  0  0  0
 24 25  1  0  0  0  0
 26 25  1  0  0  0  0
 27 22  1  0  0  0  0
 27 26  1  0  0  0  0
M  END
>  <minimizedAffinity>
-4.99987507

$$$$

 OpenBabel03272501193D

 27 29  0  0  0  0  0  0  0  0999 V2000
   38.8250   26.1750   33.7430 C   0  0  0  0  0  0  0  0  0  0  0  0
   38.5480   26.8620   32.5750 C   0  0  0  0  0  0  0  0  0  0  0  0
   37.4540   27.7230   32.6420 C   0  0  0  0  0  0  0  0  0  0  0  0
   36.7090   27.8650   33.8130 C   0  0  0  0  0  0  0  0  0  0  0  0
   37.0660   27.1330   34.9340 C   0  0  0  0  0  0  0  0  0  0  0  0
   38.1520   26.2630   34.9050 C   0  0  0  0  0  0  0  0  0  0  0  0
   37.2300   28.2640   31.7300 H   0  0  0  0  0  0  0  0  0  0  0  0
   35.8770   28.5530   33.7790 H   0  0  0  0  0  0  0  0  0  0  0  0
   36.4160   27.3300   35.7700 H   0  0  0  0  0  0  0  0  0  0  0  0
   38.9260   25.8020   30.3900 C   0  0  0  0  0  0  0  0  0  0  0  0
   39.3120   26.7190   31.3640 C   0  0  0  0  0  0  0  0  0  0  0  0
   40.4560   27.4730   31.1040 C   0  0  0  0  0  0  0  0  0  0  0  0
   41.1240   27.2740   29.9310 N   0  0  0  0  0  0  0  0  0  0  0  0
   40.7050   26.3690   29.0190 C   0  0  0  0  0  0  0  0  0  0  0  0
   39.6070   25.6320   29.2460 N   0  0  0  0  0  0  0  0  0  0  0  0
   38.0300   25.2210   30.6060 H   0  0  0  0  0  0  0  0  0  0  0  0
   40.7840   28.1960   31.8420 H   0  0  0  0  0  0  0  0  0  0  0  0
   41.2840   26.2640   28.1100 H   0  0  0  0  0  0  0  0  0  0  0  0
   39.9070   25.2920   33.7550 O   0  0  0  0  0  0  0  0  0  0  0  0
   40.6030   25.2930   34.4880 H   0  0  0  0  0  0  0  0  0  0  0  0
   38.4720   25.5560   36.0350 O   0  0  0  0  0  0  0  0  0  0  0  0
   37.7730   24.5840   36.7100 C   0  0  0  0  0  3  0  0  0  0  0  0
   38.0430   24.5480   38.1990 C   0  0  0  0  0  2  0  0  0  0  0  0
   38.5300   23.1700   38.6000 C   0  0  0  0  0  2  0  0  0  0  0  0
   39.8150   22.9220   37.8260 C   0  0  0  0  0  2  0  0  0  0  0  0
   39.4560   22.7560   36.3700 C   0  0  0  0  0  2  0  0  0  0  0  0
   38.0720   23.2520   36.0570 C   0  0  0  0  0  2  0  0  0  0  0  0
  1 19  1  0  0  0  0
  1  6  1  0  0  0  0
  2  3  1  0  0  0  0
  2  1  2  0  0  0  0
  3  4  2  0  0  0  0
  4  5  1  0  0  0  0
  5  9  1  0  0  0  0
  6  5  2  0  0  0  0
  6 21  1  0  0  0  0
  7  3  1  0  0  0  0
  8  4  1  0  0  0  0
 10 16  1  0  0  0  0
 10 11  1  0  0  0  0
 11  2  1  0  0  0  0
 12 11  2  0  0  0  0
 12 17  1  0  0  0  0
 13 12  1  0  0  0  0
 14 15  1  0  0  0  0
 14 13  2  0  0  0  0
 15 10  2  0  0  0  0
 18 14  1  0  0  0  0
 19 20  1  0  0  0  0
 21 22  1  0  0  0  0
 22 23  1  0  0  0  0
 23 24  1  0  0  0  0
 25 24  1  0  0  0  0
 26 25  1  0  0  0  0
 27 26  1  0  0  0  0
 27 22  1  0  0  0  0
M  END
>  <minimizedAffinity>
-4.9239912

$$$$

 OpenBabel03272501193D

 27 29  0  0  0  0  0  0  0  0999 V2000
   38.7210   23.2580   34.1050 C   0  0  0  0  0  0  0  0  0  0  0  0
   39.3250   24.1440   34.9790 C   0  0  0  0  0  0  0  0  0  0  0  0
   38.9880   23.9720   36.3210 C   0  0  0  0  0  0  0  0  0  0  0  0
   38.1050   22.9710   36.7280 C   0  0  0  0  0  0  0  0  0  0  0  0
   37.5510   22.1310   35.7760 C   0  0  0  0  0  0  0  0  0  0  0  0
   37.8630   22.2730   34.4270 C   0  0  0  0  0  0  0  0  0  0  0  0
   39.4580   24.6620   37.0110 H   0  0  0  0  0  0  0  0  0  0  0  0
   37.8990   22.9070   37.7860 H   0  0  0  0  0  0  0  0  0  0  0  0
   36.8880   21.4040   36.2150 H   0  0  0  0  0  0  0  0  0  0  0  0
   41.6120   24.9610   34.6060 C   0  0  0  0  0  0  0  0  0  0  0  0
   40.2370   25.1770   34.5650 C   0  0  0  0  0  0  0  0  0  0  0  0
   39.8060   26.4230   34.1110 C   0  0  0  0  0  0  0  0  0  0  0  0
   40.7380   27.3470   33.7390 N   0  0  0  0  0  0  0  0  0  0  0  0
   42.0630   27.0860   33.7980 C   0  0  0  0  0  0  0  0  0  0  0  0
   42.5020   25.8950   34.2320 N   0  0  0  0  0  0  0  0  0  0  0  0
   41.9340   23.9840   34.9620 H   0  0  0  0  0  0  0  0  0  0  0  0
   38.7410   26.6220   34.0670 H   0  0  0  0  0  0  0  0  0  0  0  0
   42.7450   27.8660   33.4870 H   0  0  0  0  0  0  0  0  0  0  0  0
   39.0080   23.3670   32.7430 O   0  0  0  0  0  0  0  0  0  0  0  0
   39.2620   22.5720   32.1740 H   0  0  0  0  0  0  0  0  0  0  0  0
   37.2920   21.4210   33.5160 O   0  0  0  0  0  0  0  0  0  0  0  0
   35.9740   21.2200   33.1850 C   0  0  0  0  0  3  0  0  0  0  0  0
   35.4920   19.8000   33.3980 C   0  0  0  0  0  2  0  0  0  0  0  0
   34.9410   19.2450   32.1000 C   0  0  0  0  0  2  0  0  0  0  0  0
   36.0830   19.2680   31.0970 C   0  0  0  0  0  2  0  0  0  0  0  0
   36.3790   20.7090   30.7630 C   0  0  0  0  0  2  0  0  0  0  0  0
   35.7760   21.6670   31.7530 C   0  0  0  0  0  2  0  0  0  0  0  0
  1  6  2  0  0  0  0
  1  2  1  0  0  0  0
  2  3  2  0  0  0  0
  3  4  1  0  0  0  0
  3  7  1  0  0  0  0
  4  8  1  0  0  0  0
  5  9  1  0  0  0  0
  5  4  2  0  0  0  0
  6  5  1  0  0  0  0
 10 16  1  0  0  0  0
 11 10  1  0  0  0  0
 11  2  1  0  0  0  0
 12 11  2  0  0  0  0
 13 14  2  0  0  0  0
 13 12  1  0  0  0  0
 14 15  1  0  0  0  0
 15 10  2  0  0  0  0
 17 12  1  0  0  0  0
 18 14  1  0  0  0  0
 19  1  1  0  0  0  0
 20 19  1  0  0  0  0
 21  6  1  0  0  0  0
 22 23  1  0  0  0  0
 22 21  1  0  0  0  0
 24 23  1  0  0  0  0
 25 24  1  0  0  0  0
 26 25  1  0  0  0  0
 26 27  1  0  0  0  0
 27 22  1  0  0  0  0
M  END
>  <minimizedAffinity>
-4.88925076

$$$$

 OpenBabel03272501193D

 27 29  0  0  0  0  0  0  0  0999 V2000
   36.3570   28.5230   33.6700 C   0  0  0  0  0  0  0  0  0  0  0  0
   35.7440   29.7590   33.5900 C   0  0  0  0  0  0  0  0  0  0  0  0
   35.7460   30.3390   32.3220 C   0  0  0  0  0  0  0  0  0  0  0  0
   36.3300   29.6980   31.2300 C   0  0  0  0  0  0  0  0  0  0  0  0
   36.9210   28.4580   31.4100 C   0  0  0  0  0  0  0  0  0  0  0  0
   36.9390   27.8490   32.6610 C   0  0  0  0  0  0  0  0  0  0  0  0
   35.2670   31.3080   32.2520 H   0  0  0  0  0  0  0  0  0  0  0  0
   36.2880   30.2170   30.2830 H   0  0  0  0  0  0  0  0  0  0  0  0
   37.3350   28.0700   30.4940 H   0  0  0  0  0  0  0  0  0  0  0  0
   33.7770   30.2860   34.9660 C   0  0  0  0  0  0  0  0  0  0  0  0
   35.1400   30.4250   34.7140 C   0  0  0  0  0  0  0  0  0  0  0  0
   35.8660   31.2280   35.5920 C   0  0  0  0  0  0  0  0  0  0  0  0
   35.2150   31.8240   36.6320 N   0  0  0  0  0  0  0  0  0  0  0  0
   33.8880   31.6560   36.8310 C   0  0  0  0  0  0  0  0  0  0  0  0
   33.1680   30.8880   36.0000 N   0  0  0  0  0  0  0  0  0  0  0  0
   33.2220   29.6560   34.2720 H   0  0  0  0  0  0  0  0  0  0  0  0
   36.9290   31.3560   35.4240 H   0  0  0  0  0  0  0  0  0  0  0  0
   33.4370   32.1590   37.6770 H   0  0  0  0  0  0  0  0  0  0  0  0
   36.3960   27.8770   34.9080 O   0  0  0  0  0  0  0  0  0  0  0  0
   36.1350   26.9080   35.0270 H   0  0  0  0  0  0  0  0  0  0  0  0
   37.5350   26.6210   32.7980 O   0  0  0  0  0  0  0  0  0  0  0  0
   38.8210   26.2170   32.5320 C   0  0  0  0  0  3  0  0  0  0  0  0
   39.0800   24.7510   32.8090 C   0  0  0  0  0  2  0  0  0  0  0  0
   40.2240   24.6090   33.7920 C   0  0  0  0  0  2  0  0  0  0  0  0
   39.7940   25.3180   35.0670 C   0  0  0  0  0  2  0  0  0  0  0  0
   39.7570   26.7990   34.7850 C   0  0  0  0  0  2  0  0  0  0  0  0
   39.7630   27.1070   33.3130 C   0  0  0  0  0  2  0  0  0  0  0  0
  1 19  1  0  0  0  0
  2  1  1  0  0  0  0
  2 11  1  0  0  0  0
  3  2  2  0  0  0  0
  4  5  2  0  0  0  0
  4  3  1  0  0  0  0
  5  6  1  0  0  0  0
  6 21  1  0  0  0  0
  6  1  2  0  0  0  0
  7  3  1  0  0  0  0
  8  4  1  0  0  0  0
  9  5  1  0  0  0  0
 10 15  1  0  0  0  0
 11 10  2  0  0  0  0
 11 12  1  0  0  0  0
 12 13  2  0  0  0  0
 13 14  1  0  0  0  0
 14 18  1  0  0  0  0
 15 14  2  0  0  0  0
 16 10  1  0  0  0  0
 17 12  1  0  0  0  0
 19 20  1  0  0  0  0
 22 21  1  0  0  0  0
 22 23  1  0  0  0  0
 22 27  1  0  0  0  0
 23 24  1  0  0  0  0
 24 25  1  0  0  0  0
 26 25  1  0  0  0  0
 27 26  1  0  0  0  0
M  END
>  <minimizedAffinity>
-4.8553257

$$$$

 OpenBabel03272501193D

 27 29  0  0  0  0  0  0  0  0999 V2000
   35.9220   29.1000   33.3350 C   0  0  0  0  0  0  0  0  0  0  0  0
   35.5130   30.4090   33.5100 C   0  0  0  0  0  0  0  0  0  0  0  0
   35.6340   31.2220   32.3840 C   0  0  0  0  0  0  0  0  0  0  0  0
   36.1330   30.7260   31.1790 C   0  0  0  0  0  0  0  0  0  0  0  0
   36.5170   29.3980   31.1010 C   0  0  0  0  0  0  0  0  0  0  0  0
   36.4110   28.5570   32.2050 C   0  0  0  0  0  0  0  0  0  0  0  0
   35.3160   32.2490   32.5140 H   0  0  0  0  0  0  0  0  0  0  0  0
   36.1930   31.4230   30.3560 H   0  0  0  0  0  0  0  0  0  0  0  0
   36.8830   29.1390   30.1220 H   0  0  0  0  0  0  0  0  0  0  0  0
   33.6390   30.8250   35.0450 C   0  0  0  0  0  0  0  0  0  0  0  0
   34.9970   30.9250   34.7500 C   0  0  0  0  0  0  0  0  0  0  0  0
   35.8070   31.5410   35.7040 C   0  0  0  0  0  0  0  0  0  0  0  0
   35.2370   32.0040   36.8530 N   0  0  0  0  0  0  0  0  0  0  0  0
   33.9120   31.8810   37.0900 C   0  0  0  0  0  0  0  0  0  0  0  0
   33.1120   31.2920   36.1880 N   0  0  0  0  0  0  0  0  0  0  0  0
   33.0190   30.3420   34.2920 H   0  0  0  0  0  0  0  0  0  0  0  0
   36.8680   31.6340   35.5040 H   0  0  0  0  0  0  0  0  0  0  0  0
   33.5270   32.2710   38.0230 H   0  0  0  0  0  0  0  0  0  0  0  0
   35.8310   28.2230   34.4180 O   0  0  0  0  0  0  0  0  0  0  0  0
   35.4180   27.3040   34.3430 H   0  0  0  0  0  0  0  0  0  0  0  0
   36.8020   27.2470   32.0870 O   0  0  0  0  0  0  0  0  0  0  0  0
   36.6880   26.3720   31.0340 C   0  0  0  0  0  3  0  0  0  0  0  0
   35.5010   25.4370   31.1320 C   0  0  0  0  0  2  0  0  0  0  0  0
   35.9740   23.9990   31.0730 C   0  0  0  0  0  2  0  0  0  0  0  0
   36.9020   23.7960   32.2600 C   0  0  0  0  0  2  0  0  0  0  0  0
   38.1600   24.5890   32.0060 C   0  0  0  0  0  2  0  0  0  0  0  0
   37.9900   25.6090   30.9150 C   0  0  0  0  0  2  0  0  0  0  0  0
  1  2  1  0  0  0  0
  1 19  1  0  0  0  0
  2 11  1  0  0  0  0
  3  7  1  0  0  0  0
  3  2  2  0  0  0  0
  4  3  1  0  0  0  0
  5  4  2  0  0  0  0
  5  6  1  0  0  0  0
  6  1  2  0  0  0  0
  8  4  1  0  0  0  0
  9  5  1  0  0  0  0
 10 15  1  0  0  0  0
 11 10  2  0  0  0  0
 11 12  1  0  0  0  0
 12 13  2  0  0  0  0
 13 14  1  0  0  0  0
 14 18  1  0  0  0  0
 15 14  2  0  0  0  0
 16 10  1  0  0  0  0
 17 12  1  0  0  0  0
 20 19  1  0  0  0  0
 21  6  1  0  0  0  0
 22 23  1  0  0  0  0
 22 21  1  0  0  0  0
 24 23  1  0  0  0  0
 24 25  1  0  0  0  0
 26 25  1  0  0  0  0
 27 22  1  0  0  0  0
 27 26  1  0  0  0  0
M  END
>  <minimizedAffinity>
-4.80557537

$$$$

 OpenBabel03272501193D

 27 29  0  0  0  0  0  0  0  0999 V2000
   39.3470   22.3350   34.8770 C   0  0  0  0  0  0  0  0  0  0  0  0
   40.0340   22.9930   35.8810 C   0  0  0  0  0  0  0  0  0  0  0  0
   39.2650   23.3480   36.9880 C   0  0  0  0  0  0  0  0  0  0  0  0
   37.9040   23.0500   37.0550 C   0  0  0  0  0  0  0  0  0  0  0  0
   37.3040   22.3870   35.9970 C   0  0  0  0  0  0  0  0  0  0  0  0
   38.0400   22.0160   34.8750 C   0  0  0  0  0  0  0  0  0  0  0  0
   39.7970   23.8640   37.7790 H   0  0  0  0  0  0  0  0  0  0  0  0
   37.3820   23.3610   37.9480 H   0  0  0  0  0  0  0  0  0  0  0  0
   36.2550   22.2160   36.1690 H   0  0  0  0  0  0  0  0  0  0  0  0
   42.3750   22.4450   36.3890 C   0  0  0  0  0  0  0  0  0  0  0  0
   41.4380   23.3020   35.8170 C   0  0  0  0  0  0  0  0  0  0  0  0
   41.9280   24.4500   35.1960 C   0  0  0  0  0  0  0  0  0  0  0  0
   43.2740   24.6690   35.1820 N   0  0  0  0  0  0  0  0  0  0  0  0
   44.1420   23.8030   35.7520 C   0  0  0  0  0  0  0  0  0  0  0  0
   43.6950   22.6910   36.3560 N   0  0  0  0  0  0  0  0  0  0  0  0
   41.9790   21.5520   36.8690 H   0  0  0  0  0  0  0  0  0  0  0  0
   41.2240   25.1380   34.7420 H   0  0  0  0  0  0  0  0  0  0  0  0
   45.1970   24.0400   35.7030 H   0  0  0  0  0  0  0  0  0  0  0  0
   40.0490   21.9460   33.7340 O   0  0  0  0  0  0  0  0  0  0  0  0
   39.9840   21.0160   33.3440 H   0  0  0  0  0  0  0  0  0  0  0  0
   37.4090   21.3610   33.8480 O   0  0  0  0  0  0  0  0  0  0  0  0
   36.0760   21.2860   33.5220 C   0  0  0  0  0  3  0  0  0  0  0  0
   35.5390   19.8730   33.4370 C   0  0  0  0  0  2  0  0  0  0  0  0
   34.9370   19.6330   32.0680 C   0  0  0  0  0  2  0  0  0  0  0  0
   36.0570   19.8320   31.0590 C   0  0  0  0  0  2  0  0  0  0  0  0
   36.4070   21.2990   31.0360 C   0  0  0  0  0  2  0  0  0  0  0  0
   35.8670   22.0400   32.2270 C   0  0  0  0  0  2  0  0  0  0  0  0
  1  2  1  0  0  0  0
  2  3  2  0  0  0  0
  3  4  1  0  0  0  0
  3  7  1  0  0  0  0
  4  8  1  0  0  0  0
  5  9  1  0  0  0  0
  5  4  2  0  0  0  0
  6  1  2  0  0  0  0
  6  5  1  0  0  0  0
 10 16  1  0  0  0  0
 11  2  1  0  0  0  0
 11 10  2  0  0  0  0
 12 11  1  0  0  0  0
 13 12  2  0  0  0  0
 13 14  1  0  0  0  0
 14 15  2  0  0  0  0
 15 10  1  0  0  0  0
 17 12  1  0  0  0  0
 18 14  1  0  0  0  0
 19  1  1  0  0  0  0
 20 19  1  0  0  0  0
 21  6  1  0  0  0  0
 22 21  1  0  0  0  0
 23 22  1  0  0  0  0
 24 23  1  0  0  0  0
 25 24  1  0  0  0  0
 26 25  1  0  0  0  0
 26 27  1  0  0  0  0
 27 22  1  0  0  0  0
M  END
>  <minimizedAffinity>
-4.79718781

$$$$
