
 OpenBabel03272506433D

 29 31  0  0  1  0  0  0  0  0999 V2000
   32.4010   28.3110   47.5900 C   0  0  2  0  0  0  0  0  0  0  0  0
   33.6570   28.3760   48.4340 C   0  0  1  0  0  0  0  0  0  0  0  0
   34.2340   27.1310   48.4160 O   0  0  0  0  0  0  0  0  0  0  0  0
   33.6010   26.3490   47.4760 C   0  0  0  0  0  0  0  0  0  0  0  0
   32.8350   27.3040   46.5620 C   0  0  1  0  0  0  0  0  0  0  0  0
   31.5330   27.9450   48.1750 H   0  0  0  0  0  0  0  0  0  0  0  0
   33.3980   28.7260   49.4510 H   0  0  0  0  0  0  0  0  0  0  0  0
   32.9010   25.6120   47.9090 H   0  0  0  0  0  0  0  0  0  0  0  0
   34.3980   25.9000   46.8450 H   0  0  0  0  0  0  0  0  0  0  0  0
   33.4800   27.7870   45.8130 H   0  0  0  0  0  0  0  0  0  0  0  0
   32.1230   29.5540   47.0030 O   0  0  0  0  0  0  0  0  0  0  0  0
   32.0850   30.2490   47.7060 H   0  0  0  0  0  0  0  0  0  0  0  0
   34.7850   29.5270   47.5900 S   0  0  0  0  0  0  0  0  0  0  0  0
   37.4290   29.5160   50.5310 C   0  0  0  0  0  0  0  0  0  0  0  0
   38.0430   30.7590   50.4880 C   0  0  0  0  0  0  0  0  0  0  0  0
   37.6190   31.6520   49.4950 C   0  0  0  0  0  0  0  0  0  0  0  0
   36.6340   31.2590   48.6320 N   0  0  0  0  0  0  0  0  0  0  0  0
   36.0660   30.0400   48.7130 C   0  0  0  0  0  0  0  0  0  0  0  0
   36.4590   29.1560   49.6650 N   0  0  0  0  0  0  0  0  0  0  0  0
   37.7680   28.8420   51.3000 H   0  0  0  0  0  0  0  0  0  0  0  0
   38.8180   31.0880   51.1560 H   0  0  0  0  0  0  0  0  0  0  0  0
   38.0140   32.6510   49.3520 H   0  0  0  0  0  0  0  0  0  0  0  0
   31.7720   26.6540   45.9500 O   0  0  0  0  0  0  0  0  0  0  0  0
   31.6630   26.9330   44.6000 C   0  0  0  0  0  3  0  0  0  0  0  0
   30.5170   27.8940   44.3240 C   0  0  0  0  0  2  0  0  0  0  0  0
   30.8930   28.9710   43.3450 C   0  0  0  0  0  2  0  0  0  0  0  0
   31.6720   28.4410   42.1680 C   0  0  0  0  0  2  0  0  0  0  0  0
   32.8000   27.5240   42.5440 C   0  0  0  0  0  2  0  0  0  0  0  0
   32.9250   27.5850   44.0710 C   0  0  0  0  0  2  0  0  0  0  0  0
  1  6  1  1  0  0  0
  1  2  1  0  0  0  0
  2  7  1  1  0  0  0
  3  2  1  0  0  0  0
  4  8  1  0  0  0  0
  4  3  1  0  0  0  0
  5 10  1  6  0  0  0
  5  4  1  0  0  0  0
  5  1  1  0  0  0  0
  9  4  1  0  0  0  0
 11  1  1  0  0  0  0
 11 12  1  0  0  0  0
 13  2  1  0  0  0  0
 13 18  1  0  0  0  0
 14 20  1  0  0  0  0
 15 14  1  0  0  0  0
 15 21  1  0  0  0  0
 16 15  2  0  0  0  0
 17 18  2  0  0  0  0
 17 16  1  0  0  0  0
 18 19  1  0  0  0  0
 19 14  2  0  0  0  0
 22 16  1  0  0  0  0
 23  5  1  0  0  0  0
 24 23  1  0  0  0  0
 25 24  1  0  0  0  0
 26 25  1  0  0  0  0
 27 28  1  0  0  0  0
 27 26  1  0  0  0  0
 28 29  1  0  0  0  0
 29 24  1  0  0  0  0
M  END
>  <minimizedAffinity>
-3.77228308

>  <minimizedRMSD>
0.272822112

$$$$
