
     RDKit          3D

 28 29  0  0  0  0  0  0  0  0999 V2000
   37.2613   30.1772   51.4448 C   0  0  0  0  0  0  0  0  0  0  0  0
   38.0925   30.7529   50.4478 C   0  0  0  0  0  0  0  0  0  0  0  0
   37.8017   30.4929   49.0907 C   0  0  0  0  0  0  0  0  0  0  0  0
   36.7406   29.7049   48.8216 N   0  0  0  0  0  0  0  0  0  0  0  0
   35.9745   29.1757   49.7818 C   0  0  0  0  0  0  0  0  0  0  0  0
   36.2167   29.3978   51.0696 N   0  0  0  0  0  0  0  0  0  0  0  0
   34.8251   28.3199   49.5133 C   0  0  0  0  0  0  0  0  0  0  0  0
   33.6377   28.7116   49.5493 O   0  0  0  0  0  0  0  0  0  0  0  0
   37.5490   30.4230   52.4575 H   0  0  0  0  0  0  0  0  0  0  0  0
   38.9360   31.3807   50.7027 H   0  0  0  0  0  0  0  0  0  0  0  0
   38.4303   30.9280   48.3253 H   0  0  0  0  0  0  0  0  0  0  0  0
   35.1072   26.9022   49.1794 C   0  0  0  0  0  0  0  0  0  0  0  0
   34.0015   25.9787   49.6135 C   0  0  0  0  0  0  0  0  0  0  0  0
   34.5593   24.5787   49.6352 C   0  0  0  0  0  0  0  0  0  0  0  0
   35.4962   24.3383   48.5012 C   0  0  0  0  0  0  0  0  0  0  0  0
   35.2968   25.2606   47.3349 C   0  0  0  0  0  0  0  0  0  0  0  0
   35.2760   26.7040   47.6838 C   0  0  0  0  0  0  0  0  0  0  0  0
   36.0394   26.5259   49.6457 H   0  0  0  0  0  0  0  0  0  0  0  0
   33.5513   26.2727   50.5741 H   0  0  0  0  0  0  0  0  0  0  0  0
   33.2357   25.9815   48.7853 H   0  0  0  0  0  0  0  0  0  0  0  0
   33.7766   23.8044   49.7350 H   0  0  0  0  0  0  0  0  0  0  0  0
   35.1837   24.5099   50.5664 H   0  0  0  0  0  0  0  0  0  0  0  0
   36.5610   24.3404   48.7866 H   0  0  0  0  0  0  0  0  0  0  0  0
   35.2862   23.3062   48.1098 H   0  0  0  0  0  0  0  0  0  0  0  0
   36.1919   25.0905   46.6675 H   0  0  0  0  0  0  0  0  0  0  0  0
   34.4298   24.9004   46.7376 H   0  0  0  0  0  0  0  0  0  0  0  0
   36.1997   27.2408   47.3815 H   0  0  0  0  0  0  0  0  0  0  0  0
   34.3990   27.1675   47.1575 H   0  0  0  0  0  0  0  0  0  0  0  0
  2  1  2  0
  3  2  1  0
  4  3  2  0
  4  5  1  0
  5  6  2  0
  6  1  1  0
  7  8  2  0
  7  5  1  0
  1  9  1  0
  2 10  1  0
  3 11  1  0
 12 13  1  0
 13 14  1  0
 14 15  1  0
 15 16  1  0
 16 17  1  0
 17 12  1  0
 12 18  1  0
 13 19  1  0
 13 20  1  0
 14 21  1  0
 14 22  1  0
 15 23  1  0
 15 24  1  0
 16 25  1  0
 16 26  1  0
 17 27  1  0
 17 28  1  0
  7 12  1  0
M  ISO  3   9  14  10  14  11  14
M  END
>  <DihAtoms>  (1) 
7,6,11,12

>  <DihDeg>  (1) 
119.99403310228196

$$$$
