
 OpenBabel03262523593D

 26 28  0  0  0  0  0  0  0  0999 V2000
   38.3850   32.6410   47.5640 C   0  0  0  0  0  0  0  0  0  0  0  0
   39.2650   31.9440   46.6930 C   0  0  0  0  0  0  0  0  0  0  0  0
   39.0190   30.5940   46.5240 C   0  0  0  0  0  0  0  0  0  0  0  0
   37.9780   30.0160   47.1770 N   0  0  0  0  0  0  0  0  0  0  0  0
   37.1620   30.7020   47.9930 C   0  0  0  0  0  0  0  0  0  0  0  0
   37.3600   32.0390   48.1980 N   0  0  0  0  0  0  0  0  0  0  0  0
   38.5220   33.7070   47.7410 H   0  0  0  0  0  0  0  0  0  0  0  0
   39.6770   30.0440   45.8650 H   0  0  0  0  0  0  0  0  0  0  0  0
   37.6740   30.3110   51.0590 Br  0  0  0  0  0  0  0  0  0  0  0  0
   36.1170   29.8380   50.0560 C   0  0  0  0  0  0  0  0  0  0  0  0
   36.0480   30.0800   48.6950 C   0  0  0  0  0  0  0  0  0  0  0  0
   34.8950   29.7120   48.0380 C   0  0  0  0  0  0  0  0  0  0  0  0
   33.8150   29.1210   48.6600 C   0  0  0  0  0  0  0  0  0  0  0  0
   33.9260   28.8940   50.0320 C   0  0  0  0  0  0  0  0  0  0  0  0
   35.0790   29.2570   50.7150 C   0  0  0  0  0  0  0  0  0  0  0  0
   34.8080   29.8880   46.9710 H   0  0  0  0  0  0  0  0  0  0  0  0
   32.9280   28.8470   48.1070 H   0  0  0  0  0  0  0  0  0  0  0  0
   33.0890   28.4300   50.5410 H   0  0  0  0  0  0  0  0  0  0  0  0
   35.0750   29.0430   51.7780 H   0  0  0  0  0  0  0  0  0  0  0  0
   40.2590   32.6650   46.1150 O   0  0  0  0  0  0  0  0  0  0  0  0
   40.7000   32.7260   44.8090 C   0  0  0  0  0  3  0  0  0  0  0  0
   40.3740   31.4420   44.0280 C   0  0  0  0  0  2  0  0  0  0  0  0
   38.8770   31.2560   43.9170 C   0  0  0  0  0  2  0  0  0  0  0  0
   38.2530   32.5560   43.5120 C   0  0  0  0  0  2  0  0  0  0  0  0
   39.2760   33.5330   42.9870 C   0  0  0  0  0  2  0  0  0  0  0  0
   40.2680   33.9420   44.0560 C   0  0  0  0  0  2  0  0  0  0  0  0
  1  7  1  0  0  0  0
  1  6  1  0  0  0  0
  2  1  2  0  0  0  0
  3  2  1  0  0  0  0
  3  4  2  0  0  0  0
  4  5  1  0  0  0  0
  5  6  2  0  0  0  0
  5 11  1  0  0  0  0
  8  3  1  0  0  0  0
 10 15  1  0  0  0  0
 10  9  1  0  0  0  0
 11 10  2  0  0  0  0
 12 13  2  0  0  0  0
 12 11  1  0  0  0  0
 13 14  1  0  0  0  0
 14 18  1  0  0  0  0
 14 15  2  0  0  0  0
 15 19  1  0  0  0  0
 16 12  1  0  0  0  0
 17 13  1  0  0  0  0
 20  2  1  0  0  0  0
 21 20  1  0  0  0  0
 22 21  1  0  0  0  0
 23 22  1  0  0  0  0
 24 23  1  0  0  0  0
 25 24  1  0  0  0  0
 25 26  1  0  0  0  0
 26 21  1  0  0  0  0
M  END
>  <minimizedAffinity>
-4.97890759

>  <minimizedRMSD>
2.28189254

$$$$
