
 OpenBabel03272509313D

 35 37  0  0  1  0  0  0  0  0999 V2000
   36.3120   30.7200   48.9910 C   0  0  2  0  0  0  0  0  0  0  0  0
   37.2470   31.6030   49.7580 C   0  0  0  0  0  0  0  0  0  0  0  0
   38.1350   30.8360   50.7120 C   0  0  0  0  0  0  0  0  0  0  0  0
   37.3000   30.0010   51.6750 C   0  0  0  0  0  0  0  0  0  0  0  0
   36.0700   29.3960   51.0550 C   0  0  0  0  0  0  0  0  0  0  0  0
   36.2660   29.3310   49.5320 C   0  0  1  0  0  0  0  0  0  0  0  0
   35.2440   31.1140   48.9740 H   0  0  0  0  0  0  0  0  0  0  0  0
   36.5670   32.1980   50.4570 H   0  0  0  0  0  0  0  0  0  0  0  0
   37.7900   32.3500   49.2100 H   0  0  0  0  0  0  0  0  0  0  0  0
   38.6430   31.5920   51.3530 H   0  0  0  0  0  0  0  0  0  0  0  0
   38.8910   30.2200   50.2320 H   0  0  0  0  0  0  0  0  0  0  0  0
   36.9690   30.6080   52.5550 H   0  0  0  0  0  0  0  0  0  0  0  0
   37.9630   29.2120   52.0910 H   0  0  0  0  0  0  0  0  0  0  0  0
   35.1450   29.9560   51.2110 H   0  0  0  0  0  0  0  0  0  0  0  0
   35.9680   28.3490   51.3950 H   0  0  0  0  0  0  0  0  0  0  0  0
   37.2200   28.8650   49.4680 H   0  0  0  0  0  0  0  0  0  0  0  0
   36.6940   30.6600   47.5530 C   0  0  0  0  0  0  0  0  0  0  0  0
   38.0380   30.9230   47.2680 C   0  0  0  0  0  0  0  0  0  0  0  0
   38.4150   30.8650   45.9210 C   0  0  0  0  0  0  0  0  0  0  0  0
   37.4650   30.5580   44.9740 N   0  0  0  0  0  0  0  0  0  0  0  0
   36.1600   30.3060   45.3110 C   0  0  0  0  0  0  0  0  0  0  0  0
   35.7940   30.3630   46.6020 N   0  0  0  0  0  0  0  0  0  0  0  0
   38.8680   31.1620   47.9030 H   0  0  0  0  0  0  0  0  0  0  0  0
   39.4090   31.0460   45.5660 H   0  0  0  0  0  0  0  0  0  0  0  0
   35.4820   30.0740   44.5130 H   0  0  0  0  0  0  0  0  0  0  0  0
   33.9970   28.3210   49.0440 C   0  0  0  0  0  0  0  0  0  0  0  0
   33.1810   28.9670   49.7630 O   0  0  0  0  0  0  0  0  0  0  0  0
   35.3980   28.4380   48.8580 N   0  0  0  0  0  0  0  0  0  0  0  0
   35.6720   27.7250   48.1140 H   0  0  0  0  0  0  0  0  0  0  0  0
   33.0690   27.3510   48.4020 C   0  0  0  0  0  3  0  0  0  0  0  0
   32.1740   28.1760   47.4980 C   0  0  0  0  0  2  0  0  0  0  0  0
   31.2380   27.2250   46.7880 C   0  0  0  0  0  2  0  0  0  0  0  0
   31.2930   25.8460   47.4020 C   0  0  0  0  0  2  0  0  0  0  0  0
   32.6840   25.2440   47.3050 C   0  0  0  0  0  2  0  0  0  0  0  0
   33.7500   26.3100   47.5750 C   0  0  0  0  0  2  0  0  0  0  0  0
  1  7  1  1  0  0  0
  1  6  1  0  0  0  0
  1  2  1  0  0  0  0
  2  8  1  0  0  0  0
  2  3  1  0  0  0  0
  3 10  1  0  0  0  0
  3  4  1  0  0  0  0
  4 13  1  0  0  0  0
  4 12  1  0  0  0  0
  5 14  1  0  0  0  0
  5 15  1  0  0  0  0
  5  4  1  0  0  0  0
  6 16  1  6  0  0  0
  6  5  1  0  0  0  0
  9  2  1  0  0  0  0
 11  3  1  0  0  0  0
 17  1  1  0  0  0  0
 18 17  1  0  0  0  0
 18 23  1  0  0  0  0
 19 18  2  0  0  0  0
 20 21  2  0  0  0  0
 20 19  1  0  0  0  0
 21 22  1  0  0  0  0
 22 17  2  0  0  0  0
 24 19  1  0  0  0  0
 25 21  1  0  0  0  0
 26 27  2  0  0  0  0
 28 26  1  0  0  0  0
 28  6  1  0  0  0  0
 29 28  1  0  0  0  0
 30 26  1  0  0  0  0
 31 30  1  0  0  0  0
 32 33  1  0  0  0  0
 32 31  1  0  0  0  0
 34 33  1  0  0  0  0
 34 35  1  0  0  0  0
 35 30  1  0  0  0  0
M  END
>  <minimizedAffinity>
-6.09244871

>  <minimizedRMSD>
0.482176751

$$$$
