REMARK  Name = 
REMARK  3 active torsions:
REMARK  status: ('A' for Active; 'I' for Inactive)
REMARK    1  A    between atoms: C_3  and  C_12
REMARK    2  A    between atoms: C_9  and  O_14
REMARK    3  A    between atoms: O_14  and  C_21
REMARK                            x       y       z     vdW  Elec       q    Type
REMARK                         _______ _______ _______ _____ _____    ______ ____
ROOT
ATOM      1  C   UNL     1      37.876  33.232  49.456  0.00  0.00    +0.000 A 
ATOM      2  C   UNL     1      38.910  33.272  48.483  0.00  0.00    +0.000 A 
ATOM      3  C   UNL     1      38.933  32.236  47.568  0.00  0.00    +0.000 A 
ATOM      4  N   UNL     1      37.993  31.259  47.640  0.00  0.00    +0.000 NA
ATOM      5  C   UNL     1      37.026  31.248  48.571  0.00  0.00    +0.000 A 
ATOM      6  N   UNL     1      36.957  32.248  49.501  0.00  0.00    +0.000 NA
ATOM      7  H   UNL     1      37.800  34.018  50.207  0.00  0.00    +0.000 HD
ATOM      8  H   UNL     1      39.712  32.247  46.818  0.00  0.00    +0.000 HD
ENDROOT
BRANCH   5  11
ATOM      9 BR   UNL     1      37.279  29.457  51.128  0.00  0.00    +0.000 Br
ATOM     10  C   UNL     1      35.996  29.320  49.718  0.00  0.00    +0.000 A 
ATOM     11  C   UNL     1      36.020  30.198  48.648  0.00  0.00    +0.000 A 
ATOM     12  C   UNL     1      35.065  30.039  47.669  0.00  0.00    +0.000 A 
ATOM     13  C   UNL     1      34.093  29.060  47.699  0.00  0.00    +0.000 A 
ATOM     14  C   UNL     1      34.105  28.196  48.795  0.00  0.00    +0.000 A 
ATOM     15  C   UNL     1      35.059  28.338  49.794  0.00  0.00    +0.000 A 
ATOM     16  H   UNL     1      35.055  30.710  46.817  0.00  0.00    +0.000 HD
ATOM     17  H   UNL     1      33.361  28.970  46.910  0.00  0.00    +0.000 HD
ATOM     18  H   UNL     1      33.350  27.419  48.839  0.00  0.00    +0.000 HD
ATOM     19  H   UNL     1      34.990  27.622  50.605  0.00  0.00    +0.000 HD
ENDBRANCH   5  11
BRANCH   2  20
ATOM     20  O   UNL     1      39.774  34.318  48.545  0.00  0.00    +0.000 OA
BRANCH  20  21
ATOM     21  C   UNL     1      40.863  34.647  47.765  0.00  0.00    +0.000 C 
ATOM     22  C   UNL     1      41.200  33.546  46.746  0.00  0.00    +0.000 C 
ATOM     23  C   UNL     1      40.065  33.371  45.762  0.00  0.00    +0.000 C 
ATOM     24  C   UNL     1      39.622  34.720  45.285  0.00  0.00    +0.000 C 
ATOM     25  C   UNL     1      40.630  35.794  45.614  0.00  0.00    +0.000 C 
ATOM     26  C   UNL     1      40.784  35.987  47.108  0.00  0.00    +0.000 C 
ENDBRANCH  20  21
ENDBRANCH   2  20
TORSDOF 3
