
 OpenBabel03262521103D

 21 22  0  0  0  0  0  0  0  0999 V2000
   39.0400   27.3470   35.6130 O   0  0  0  0  0  0  0  0  0  0  0  0
   37.8360   26.7310   34.9300 P   0  0  1  0  0  0  0  0  0  0  0  0
   36.5900   27.8850   34.7470 O   0  0  0  0  0  0  0  0  0  0  0  0
   35.6980   27.4910   34.8670 H   0  0  0  0  0  0  0  0  0  0  0  0
   38.1900   26.2040   33.3280 O   0  0  0  0  0  0  0  0  0  0  0  0
   37.2380   25.5710   32.5320 C   0  0  0  0  0  0  0  0  0  0  0  0
   37.1480   24.1790   32.3340 C   0  0  0  0  0  0  0  0  0  0  0  0
   36.1400   23.7100   31.5090 C   0  0  0  0  0  0  0  0  0  0  0  0
   35.2880   24.5960   30.9310 N   0  0  0  0  0  0  0  0  0  0  0  0
   35.4020   25.9330   31.1430 C   0  0  0  0  0  0  0  0  0  0  0  0
   36.3820   26.4170   31.9460 N   0  0  0  0  0  0  0  0  0  0  0  0
   37.8950   23.5880   32.8580 H   0  0  0  0  0  0  0  0  0  0  0  0
   36.1060   22.6560   31.3870 H   0  0  0  0  0  0  0  0  0  0  0  0
   34.6900   26.5960   30.6520 H   0  0  0  0  0  0  0  0  0  0  0  0
   37.3400   25.4270   35.8470 O   0  0  0  0  0  0  0  0  0  0  0  0
   38.3020   24.8020   36.5960 C   0  0  0  0  0  3  0  0  0  0  0  0
   39.2570   24.0350   35.7510 C   0  0  0  0  0  2  0  0  0  0  0  0
   39.7320   22.7390   36.3330 C   0  0  0  0  0  2  0  0  0  0  0  0
   39.8160   22.6760   37.8080 C   0  0  0  0  0  2  0  0  0  0  0  0
   38.9580   23.6310   38.5720 C   0  0  0  0  0  2  0  0  0  0  0  0
   37.7460   23.8930   37.6650 C   0  0  0  0  0  2  0  0  0  0  0  0
  2  1  2  1  0  0  0
  2 15  1  0  0  0  0
  3  4  1  0  0  0  0
  3  2  1  0  0  0  0
  5  2  1  0  0  0  0
  6  5  1  0  0  0  0
  7  6  1  0  0  0  0
  7 12  1  0  0  0  0
  8  7  2  0  0  0  0
  9 10  2  0  0  0  0
  9  8  1  0  0  0  0
 10 11  1  0  0  0  0
 11  6  2  0  0  0  0
 13  8  1  0  0  0  0
 14 10  1  0  0  0  0
 15 16  1  0  0  0  0
 16 21  1  0  0  0  0
 17 18  1  0  0  0  0
 17 16  1  0  0  0  0
 18 19  1  0  0  0  0
 19 20  1  0  0  0  0
 21 20  1  0  0  0  0
M  END
>  <minimizedAffinity>
-4.67205477

$$$$

 OpenBabel03262521103D

 21 22  0  0  0  0  0  0  0  0999 V2000
   39.3200   27.1220   33.6590 O   0  0  0  0  0  0  0  0  0  0  0  0
   38.1100   26.8110   34.5150 P   0  0  1  0  0  0  0  0  0  0  0  0
   38.1120   27.7620   35.9330 O   0  0  0  0  0  0  0  0  0  0  0  0
   37.7690   27.2690   36.7110 H   0  0  0  0  0  0  0  0  0  0  0  0
   36.6290   27.1990   33.7230 O   0  0  0  0  0  0  0  0  0  0  0  0
   36.2790   28.5120   33.4160 C   0  0  0  0  0  0  0  0  0  0  0  0
   36.3580   29.0890   32.1330 C   0  0  0  0  0  0  0  0  0  0  0  0
   35.9710   30.4120   31.9970 C   0  0  0  0  0  0  0  0  0  0  0  0
   35.5350   31.0920   33.0890 N   0  0  0  0  0  0  0  0  0  0  0  0
   35.4700   30.5050   34.3120 C   0  0  0  0  0  0  0  0  0  0  0  0
   35.8440   29.2120   34.4710 N   0  0  0  0  0  0  0  0  0  0  0  0
   36.7250   28.4290   31.3510 H   0  0  0  0  0  0  0  0  0  0  0  0
   36.0450   30.8080   31.0150 H   0  0  0  0  0  0  0  0  0  0  0  0
   35.1120   31.1010   35.1520 H   0  0  0  0  0  0  0  0  0  0  0  0
   38.1400   25.1780   34.8660 O   0  0  0  0  0  0  0  0  0  0  0  0
   38.5530   24.8300   36.1250 C   0  0  0  0  0  3  0  0  0  0  0  0
   39.7170   23.9020   36.0940 C   0  0  0  0  0  2  0  0  0  0  0  0
   39.7200   22.8410   37.1510 C   0  0  0  0  0  2  0  0  0  0  0  0
   39.0740   23.1940   38.4350 C   0  0  0  0  0  2  0  0  0  0  0  0
   38.0530   24.2830   38.3960 C   0  0  0  0  0  2  0  0  0  0  0  0
   37.4630   24.2290   36.9790 C   0  0  0  0  0  2  0  0  0  0  0  0
  2  1  2  6  0  0  0
  2 15  1  0  0  0  0
  2  3  1  0  0  0  0
  3  4  1  0  0  0  0
  5  2  1  0  0  0  0
  6  5  1  0  0  0  0
  6 11  1  0  0  0  0
  7  6  2  0  0  0  0
  8  7  1  0  0  0  0
  8  9  2  0  0  0  0
  9 10  1  0  0  0  0
 10 11  2  0  0  0  0
 10 14  1  0  0  0  0
 12  7  1  0  0  0  0
 13  8  1  0  0  0  0
 15 16  1  0  0  0  0
 16 21  1  0  0  0  0
 17 16  1  0  0  0  0
 17 18  1  0  0  0  0
 18 19  1  0  0  0  0
 20 19  1  0  0  0  0
 21 20  1  0  0  0  0
M  END
>  <minimizedAffinity>
-4.56907225

$$$$

 OpenBabel03262521103D

 21 22  0  0  0  0  0  0  0  0999 V2000
   37.2670   27.8870   34.7800 O   0  0  0  0  0  0  0  0  0  0  0  0
   38.0960   26.6200   34.8060 P   0  0  1  0  0  0  0  0  0  0  0  0
   39.6340   26.9170   35.4850 O   0  0  0  0  0  0  0  0  0  0  0  0
   40.3420   26.3980   35.0440 H   0  0  0  0  0  0  0  0  0  0  0  0
   37.3990   25.4000   35.8050 O   0  0  0  0  0  0  0  0  0  0  0  0
   38.1800   24.5410   36.5740 C   0  0  0  0  0  0  0  0  0  0  0  0
   37.9530   24.2420   37.9310 C   0  0  0  0  0  0  0  0  0  0  0  0
   38.8270   23.3650   38.5520 C   0  0  0  0  0  0  0  0  0  0  0  0
   39.8540   22.8340   37.8390 N   0  0  0  0  0  0  0  0  0  0  0  0
   40.0450   23.1430   36.5310 C   0  0  0  0  0  0  0  0  0  0  0  0
   39.2030   24.0000   35.9010 N   0  0  0  0  0  0  0  0  0  0  0  0
   37.0950   24.7380   38.3770 H   0  0  0  0  0  0  0  0  0  0  0  0
   38.6210   23.1660   39.5750 H   0  0  0  0  0  0  0  0  0  0  0  0
   40.8860   22.6870   36.0100 H   0  0  0  0  0  0  0  0  0  0  0  0
   38.2120   26.0550   33.2380 O   0  0  0  0  0  0  0  0  0  0  0  0
   37.1880   25.2600   32.7960 C   0  0  0  0  0  3  0  0  0  0  0  0
   37.5780   23.8240   32.7420 C   0  0  0  0  0  2  0  0  0  0  0  0
   37.0170   23.0480   31.5910 C   0  0  0  0  0  2  0  0  0  0  0  0
   35.6960   23.4870   31.0880 C   0  0  0  0  0  2  0  0  0  0  0  0
   35.3070   24.9020   31.3660 C   0  0  0  0  0  2  0  0  0  0  0  0
   36.6340   25.6720   31.4530 C   0  0  0  0  0  2  0  0  0  0  0  0
  2  1  2  1  0  0  0
  2  3  1  0  0  0  0
  2  5  1  0  0  0  0
  4  3  1  0  0  0  0
  5  6  1  0  0  0  0
  6  7  1  0  0  0  0
  7 12  1  0  0  0  0
  7  8  2  0  0  0  0
  8 13  1  0  0  0  0
  9  8  1  0  0  0  0
 10  9  2  0  0  0  0
 11 10  1  0  0  0  0
 11  6  2  0  0  0  0
 14 10  1  0  0  0  0
 15  2  1  0  0  0  0
 16 15  1  0  0  0  0
 17 16  1  0  0  0  0
 18 17  1  0  0  0  0
 19 20  1  0  0  0  0
 19 18  1  0  0  0  0
 20 21  1  0  0  0  0
 21 16  1  0  0  0  0
M  END
>  <minimizedAffinity>
-4.53356743

$$$$

 OpenBabel03262521103D

 21 22  0  0  0  0  0  0  0  0999 V2000
   35.2910   26.8000   31.3810 O   0  0  0  0  0  0  0  0  0  0  0  0
   36.5180   27.6400   31.0900 P   0  0  1  0  0  0  0  0  0  0  0  0
   36.7080   27.8700   29.4090 O   0  0  0  0  0  0  0  0  0  0  0  0
   37.6520   27.8660   29.1380 H   0  0  0  0  0  0  0  0  0  0  0  0
   36.3930   29.2300   31.7430 O   0  0  0  0  0  0  0  0  0  0  0  0
   35.2750   29.6480   32.4610 C   0  0  0  0  0  0  0  0  0  0  0  0
   35.0970   29.4770   33.8480 C   0  0  0  0  0  0  0  0  0  0  0  0
   33.9230   29.9510   34.4090 C   0  0  0  0  0  0  0  0  0  0  0  0
   33.0020   30.5530   33.6130 N   0  0  0  0  0  0  0  0  0  0  0  0
   33.2060   30.7030   32.2790 C   0  0  0  0  0  0  0  0  0  0  0  0
   34.3470   30.2460   31.7060 N   0  0  0  0  0  0  0  0  0  0  0  0
   35.9140   28.9770   34.3620 H   0  0  0  0  0  0  0  0  0  0  0  0
   33.8280   29.8030   35.4560 H   0  0  0  0  0  0  0  0  0  0  0  0
   32.4310   31.1940   31.6910 H   0  0  0  0  0  0  0  0  0  0  0  0
   37.8370   26.8650   31.7600 O   0  0  0  0  0  0  0  0  0  0  0  0
   38.2070   27.2620   33.0180 C   0  0  0  0  0  3  0  0  0  0  0  0
   39.6650   27.0800   33.2550 C   0  0  0  0  0  2  0  0  0  0  0  0
   40.0420   26.6390   34.6360 C   0  0  0  0  0  2  0  0  0  0  0  0
   39.1530   27.0870   35.7310 C   0  0  0  0  0  2  0  0  0  0  0  0
   37.7500   27.4390   35.3570 C   0  0  0  0  0  2  0  0  0  0  0  0
   37.4380   26.5790   34.1230 C   0  0  0  0  0  2  0  0  0  0  0  0
  2  1  2  1  0  0  0
  2  5  1  0  0  0  0
  2 15  1  0  0  0  0
  3  2  1  0  0  0  0
  4  3  1  0  0  0  0
  5  6  1  0  0  0  0
  6  7  1  0  0  0  0
  7 12  1  0  0  0  0
  7  8  2  0  0  0  0
  8 13  1  0  0  0  0
  9  8  1  0  0  0  0
 10  9  2  0  0  0  0
 11 10  1  0  0  0  0
 11  6  2  0  0  0  0
 14 10  1  0  0  0  0
 15 16  1  0  0  0  0
 16 17  1  0  0  0  0
 16 21  1  0  0  0  0
 17 18  1  0  0  0  0
 18 19  1  0  0  0  0
 20 19  1  0  0  0  0
 21 20  1  0  0  0  0
M  END
>  <minimizedAffinity>
-4.3916769

$$$$

 OpenBabel03262521103D

 21 22  0  0  0  0  0  0  0  0999 V2000
   39.6100   21.6060   33.9240 O   0  0  0  0  0  0  0  0  0  0  0  0
   38.9520   22.3860   35.0430 P   0  0  1  0  0  0  0  0  0  0  0  0
   39.4400   21.7870   36.5650 O   0  0  0  0  0  0  0  0  0  0  0  0
   38.7120   21.8090   37.2240 H   0  0  0  0  0  0  0  0  0  0  0  0
   39.4190   24.0450   35.0490 O   0  0  0  0  0  0  0  0  0  0  0  0
   38.5620   25.0550   34.6180 C   0  0  0  0  0  0  0  0  0  0  0  0
   37.8340   25.9120   35.4670 C   0  0  0  0  0  0  0  0  0  0  0  0
   37.0230   26.8660   34.8760 C   0  0  0  0  0  0  0  0  0  0  0  0
   36.9610   26.9390   33.5210 N   0  0  0  0  0  0  0  0  0  0  0  0
   37.6770   26.0970   32.7310 C   0  0  0  0  0  0  0  0  0  0  0  0
   38.4770   25.1540   33.2860 N   0  0  0  0  0  0  0  0  0  0  0  0
   37.9790   25.7410   36.5310 H   0  0  0  0  0  0  0  0  0  0  0  0
   36.4920   27.4920   35.5500 H   0  0  0  0  0  0  0  0  0  0  0  0
   37.5870   26.2030   31.6500 H   0  0  0  0  0  0  0  0  0  0  0  0
   37.2980   22.2760   34.8370 O   0  0  0  0  0  0  0  0  0  0  0  0
   36.8590   21.4510   33.8360 C   0  0  0  0  0  3  0  0  0  0  0  0
   36.5660   22.1990   32.5830 C   0  0  0  0  0  2  0  0  0  0  0  0
   35.3830   21.7120   31.8050 C   0  0  0  0  0  2  0  0  0  0  0  0
   35.0870   20.2650   31.9020 C   0  0  0  0  0  2  0  0  0  0  0  0
   35.5980   19.5550   33.1130 C   0  0  0  0  0  2  0  0  0  0  0  0
   35.6520   20.6260   34.2120 C   0  0  0  0  0  2  0  0  0  0  0  0
  2  1  2  6  0  0  0
  2  5  1  0  0  0  0
  2  3  1  0  0  0  0
  3  4  1  0  0  0  0
  6  5  1  0  0  0  0
  6  7  1  0  0  0  0
  7 12  1  0  0  0  0
  8  7  2  0  0  0  0
  8 13  1  0  0  0  0
  9  8  1  0  0  0  0
 10 11  1  0  0  0  0
 10  9  2  0  0  0  0
 11  6  2  0  0  0  0
 14 10  1  0  0  0  0
 15  2  1  0  0  0  0
 16 21  1  0  0  0  0
 16 15  1  0  0  0  0
 17 16  1  0  0  0  0
 18 19  1  0  0  0  0
 18 17  1  0  0  0  0
 19 20  1  0  0  0  0
 20 21  1  0  0  0  0
M  END
>  <minimizedAffinity>
-4.38510466

$$$$

 OpenBabel03262521103D

 21 22  0  0  0  0  0  0  0  0999 V2000
   38.6070   22.5460   35.5900 O   0  0  0  0  0  0  0  0  0  0  0  0
   38.5730   23.2080   36.9520 P   0  0  1  0  0  0  0  0  0  0  0  0
   37.2960   22.5820   37.8970 O   0  0  0  0  0  0  0  0  0  0  0  0
   36.8760   23.2710   38.4570 H   0  0  0  0  0  0  0  0  0  0  0  0
   39.9980   22.8950   37.8690 O   0  0  0  0  0  0  0  0  0  0  0  0
   41.1770   22.4550   37.2740 C   0  0  0  0  0  0  0  0  0  0  0  0
   41.9880   23.2290   36.4200 C   0  0  0  0  0  0  0  0  0  0  0  0
   43.1320   22.6380   35.9090 C   0  0  0  0  0  0  0  0  0  0  0  0
   43.4250   21.3560   36.2450 N   0  0  0  0  0  0  0  0  0  0  0  0
   42.6210   20.6370   37.0720 C   0  0  0  0  0  0  0  0  0  0  0  0
   41.4960   21.1930   37.5840 N   0  0  0  0  0  0  0  0  0  0  0  0
   41.6340   24.2400   36.2370 H   0  0  0  0  0  0  0  0  0  0  0  0
   43.7150   23.2550   35.2710 H   0  0  0  0  0  0  0  0  0  0  0  0
   42.9070   19.6120   37.3060 H   0  0  0  0  0  0  0  0  0  0  0  0
   38.4150   24.8540   36.7150 O   0  0  0  0  0  0  0  0  0  0  0  0
   38.4350   25.2910   35.4170 C   0  0  0  0  0  3  0  0  0  0  0  0
   39.7640   25.8400   35.0310 C   0  0  0  0  0  2  0  0  0  0  0  0
   39.7280   27.0270   34.1190 C   0  0  0  0  0  2  0  0  0  0  0  0
   38.5850   27.1000   33.1830 C   0  0  0  0  0  2  0  0  0  0  0  0
   37.3530   26.3470   33.5660 C   0  0  0  0  0  2  0  0  0  0  0  0
   37.3680   26.3120   35.1020 C   0  0  0  0  0  2  0  0  0  0  0  0
  2  1  2  6  0  0  0
  2  5  1  0  0  0  0
  2  3  1  0  0  0  0
  3  4  1  0  0  0  0
  6 11  1  0  0  0  0
  6  5  1  0  0  0  0
  7  6  2  0  0  0  0
  8  9  2  0  0  0  0
  8  7  1  0  0  0  0
  9 10  1  0  0  0  0
 10 14  1  0  0  0  0
 10 11  2  0  0  0  0
 12  7  1  0  0  0  0
 13  8  1  0  0  0  0
 15  2  1  0  0  0  0
 16 15  1  0  0  0  0
 17 16  1  0  0  0  0
 18 17  1  0  0  0  0
 19 20  1  0  0  0  0
 19 18  1  0  0  0  0
 20 21  1  0  0  0  0
 21 16  1  0  0  0  0
M  END
>  <minimizedAffinity>
-4.38361788

$$$$

 OpenBabel03262521103D

 21 22  0  0  0  0  0  0  0  0999 V2000
   35.0370   24.9260   30.7170 O   0  0  0  0  0  0  0  0  0  0  0  0
   36.3540   25.0990   31.4450 P   0  0  1  0  0  0  0  0  0  0  0  0
   37.6120   25.4430   30.3440 O   0  0  0  0  0  0  0  0  0  0  0  0
   38.4600   25.0210   30.6040 H   0  0  0  0  0  0  0  0  0  0  0  0
   36.3340   26.4380   32.5290 O   0  0  0  0  0  0  0  0  0  0  0  0
   37.3580   26.6600   33.4470 C   0  0  0  0  0  0  0  0  0  0  0  0
   37.1680   26.9810   34.8050 C   0  0  0  0  0  0  0  0  0  0  0  0
   38.2960   27.1720   35.5850 C   0  0  0  0  0  0  0  0  0  0  0  0
   39.5240   27.0420   35.0210 N   0  0  0  0  0  0  0  0  0  0  0  0
   39.6730   26.7310   33.7070 C   0  0  0  0  0  0  0  0  0  0  0  0
   38.5830   26.5410   32.9220 N   0  0  0  0  0  0  0  0  0  0  0  0
   36.1310   27.0530   35.1230 H   0  0  0  0  0  0  0  0  0  0  0  0
   38.1100   27.4120   36.6030 H   0  0  0  0  0  0  0  0  0  0  0  0
   40.6830   26.6410   33.3090 H   0  0  0  0  0  0  0  0  0  0  0  0
   36.6510   23.6960   32.3010 O   0  0  0  0  0  0  0  0  0  0  0  0
   36.3350   22.5180   31.6780 C   0  0  0  0  0  3  0  0  0  0  0  0
   35.1790   21.8370   32.3210 C   0  0  0  0  0  2  0  0  0  0  0  0
   35.2610   20.3420   32.3730 C   0  0  0  0  0  2  0  0  0  0  0  0
   35.9980   19.6890   31.2700 C   0  0  0  0  0  2  0  0  0  0  0  0
   37.0070   20.5220   30.5490 C   0  0  0  0  0  2  0  0  0  0  0  0
   37.4890   21.5500   31.5840 C   0  0  0  0  0  2  0  0  0  0  0  0
  2  1  2  6  0  0  0
  2 15  1  0  0  0  0
  2  5  1  0  0  0  0
  3  4  1  0  0  0  0
  3  2  1  0  0  0  0
  5  6  1  0  0  0  0
  6  7  1  0  0  0  0
  7 12  1  0  0  0  0
  7  8  2  0  0  0  0
  8 13  1  0  0  0  0
  9  8  1  0  0  0  0
 10  9  2  0  0  0  0
 11  6  2  0  0  0  0
 11 10  1  0  0  0  0
 14 10  1  0  0  0  0
 16 15  1  0  0  0  0
 16 17  1  0  0  0  0
 17 18  1  0  0  0  0
 19 18  1  0  0  0  0
 20 19  1  0  0  0  0
 20 21  1  0  0  0  0
 21 16  1  0  0  0  0
M  END
>  <minimizedAffinity>
-4.36859179

$$$$

 OpenBabel03262521103D

 21 22  0  0  0  0  0  0  0  0999 V2000
   37.5940   24.9190   33.5520 O   0  0  0  0  0  0  0  0  0  0  0  0
   38.2170   23.5390   33.4890 P   0  0  1  0  0  0  0  0  0  0  0  0
   39.9200   23.6430   33.5430 O   0  0  0  0  0  0  0  0  0  0  0  0
   40.3520   22.9690   32.9720 H   0  0  0  0  0  0  0  0  0  0  0  0
   37.7880   22.5630   34.8420 O   0  0  0  0  0  0  0  0  0  0  0  0
   38.2470   22.8410   36.1270 C   0  0  0  0  0  0  0  0  0  0  0  0
   37.5050   23.5070   37.1230 C   0  0  0  0  0  0  0  0  0  0  0  0
   38.1110   23.7050   38.3520 C   0  0  0  0  0  0  0  0  0  0  0  0
   39.3770   23.2570   38.5490 N   0  0  0  0  0  0  0  0  0  0  0  0
   40.0650   22.6170   37.5680 C   0  0  0  0  0  0  0  0  0  0  0  0
   39.4940   22.4110   36.3560 N   0  0  0  0  0  0  0  0  0  0  0  0
   36.5050   23.8120   36.8270 H   0  0  0  0  0  0  0  0  0  0  0  0
   37.5180   24.2110   39.0740 H   0  0  0  0  0  0  0  0  0  0  0  0
   41.0780   22.2790   37.7840 H   0  0  0  0  0  0  0  0  0  0  0  0
   37.6880   22.8060   32.0840 O   0  0  0  0  0  0  0  0  0  0  0  0
   37.0690   21.5910   32.2220 C   0  0  0  0  0  3  0  0  0  0  0  0
   37.4250   20.6540   31.1220 C   0  0  0  0  0  2  0  0  0  0  0  0
   36.3150   19.7650   30.6520 C   0  0  0  0  0  2  0  0  0  0  0  0
   35.3070   19.3850   31.6660 C   0  0  0  0  0  2  0  0  0  0  0  0
   35.1620   20.2930   32.8430 C   0  0  0  0  0  2  0  0  0  0  0  0
   35.5660   21.6830   32.3280 C   0  0  0  0  0  2  0  0  0  0  0  0
  2  3  1  0  0  0  0
  2  1  2  1  0  0  0
  2  5  1  0  0  0  0
  4  3  1  0  0  0  0
  5  6  1  0  0  0  0
  6 11  2  0  0  0  0
  6  7  1  0  0  0  0
  7  8  2  0  0  0  0
  8  9  1  0  0  0  0
  8 13  1  0  0  0  0
 10 14  1  0  0  0  0
 10  9  2  0  0  0  0
 11 10  1  0  0  0  0
 12  7  1  0  0  0  0
 15 16  1  0  0  0  0
 15  2  1  0  0  0  0
 16 21  1  0  0  0  0
 17 16  1  0  0  0  0
 18 17  1  0  0  0  0
 18 19  1  0  0  0  0
 19 20  1  0  0  0  0
 21 20  1  0  0  0  0
M  END
>  <minimizedAffinity>
-4.34537506

$$$$

 OpenBabel03262521103D

 21 22  0  0  0  0  0  0  0  0999 V2000
   34.9450   24.7370   30.8410 O   0  0  0  0  0  0  0  0  0  0  0  0
   36.3520   24.6580   31.3980 P   0  0  1  0  0  0  0  0  0  0  0  0
   37.5030   24.6750   30.1370 O   0  0  0  0  0  0  0  0  0  0  0  0
   38.2720   24.0930   30.3280 H   0  0  0  0  0  0  0  0  0  0  0  0
   36.7470   26.0190   32.3780 O   0  0  0  0  0  0  0  0  0  0  0  0
   36.5570   27.3260   31.9360 C   0  0  0  0  0  0  0  0  0  0  0  0
   36.0550   28.3800   32.7250 C   0  0  0  0  0  0  0  0  0  0  0  0
   35.9260   29.6240   32.1310 C   0  0  0  0  0  0  0  0  0  0  0  0
   36.2840   29.7790   30.8300 N   0  0  0  0  0  0  0  0  0  0  0  0
   36.7650   28.7420   30.0970 C   0  0  0  0  0  0  0  0  0  0  0  0
   36.9000   27.5140   30.6560 N   0  0  0  0  0  0  0  0  0  0  0  0
   35.8090   28.1130   33.7500 H   0  0  0  0  0  0  0  0  0  0  0  0
   35.5450   30.3900   32.7590 H   0  0  0  0  0  0  0  0  0  0  0  0
   37.0350   28.9260   29.0570 H   0  0  0  0  0  0  0  0  0  0  0  0
   36.4590   23.2640   32.3130 O   0  0  0  0  0  0  0  0  0  0  0  0
   36.1160   22.0940   31.6900 C   0  0  0  0  0  3  0  0  0  0  0  0
   35.0670   21.3490   32.4400 C   0  0  0  0  0  2  0  0  0  0  0  0
   35.2090   19.8580   32.4320 C   0  0  0  0  0  2  0  0  0  0  0  0
   35.8360   19.2660   31.2290 C   0  0  0  0  0  2  0  0  0  0  0  0
   36.7230   20.1600   30.4260 C   0  0  0  0  0  2  0  0  0  0  0  0
   37.2860   21.1750   31.4320 C   0  0  0  0  0  2  0  0  0  0  0  0
  2  1  2  6  0  0  0
  2 15  1  0  0  0  0
  2  5  1  0  0  0  0
  3  4  1  0  0  0  0
  3  2  1  0  0  0  0
  6  5  1  0  0  0  0
  6  7  1  0  0  0  0
  7 12  1  0  0  0  0
  8  7  2  0  0  0  0
  8 13  1  0  0  0  0
  9  8  1  0  0  0  0
 10 11  1  0  0  0  0
 10  9  2  0  0  0  0
 11  6  2  0  0  0  0
 14 10  1  0  0  0  0
 16 15  1  0  0  0  0
 16 17  1  0  0  0  0
 18 17  1  0  0  0  0
 19 18  1  0  0  0  0
 20 19  1  0  0  0  0
 20 21  1  0  0  0  0
 21 16  1  0  0  0  0
M  END
>  <minimizedAffinity>
-4.33618784

$$$$
