
 OpenBabel03272501183D

 27 29  0  0  0  0  0  0  0  0999 V2000
   38.7190   31.7020   47.8810 C   0  0  0  0  0  0  0  0  0  0  0  0
   38.1120   31.9960   49.0890 C   0  0  0  0  0  0  0  0  0  0  0  0
   38.3980   33.2600   49.6020 C   0  0  0  0  0  0  0  0  0  0  0  0
   39.2370   34.1470   48.9270 C   0  0  0  0  0  0  0  0  0  0  0  0
   39.7980   33.7610   47.7210 C   0  0  0  0  0  0  0  0  0  0  0  0
   39.5370   32.5070   47.1780 C   0  0  0  0  0  0  0  0  0  0  0  0
   37.9260   33.4970   50.5480 H   0  0  0  0  0  0  0  0  0  0  0  0
   39.4050   35.1060   49.3940 H   0  0  0  0  0  0  0  0  0  0  0  0
   40.4240   34.5310   47.3010 H   0  0  0  0  0  0  0  0  0  0  0  0
   35.9410   30.8730   49.3480 C   0  0  0  0  0  0  0  0  0  0  0  0
   37.2460   31.0850   49.7890 C   0  0  0  0  0  0  0  0  0  0  0  0
   37.6520   30.3800   50.9210 C   0  0  0  0  0  0  0  0  0  0  0  0
   36.7660   29.5370   51.5260 N   0  0  0  0  0  0  0  0  0  0  0  0
   35.5100   29.3680   51.0560 C   0  0  0  0  0  0  0  0  0  0  0  0
   35.0960   30.0340   49.9680 N   0  0  0  0  0  0  0  0  0  0  0  0
   35.6380   31.4290   48.4620 H   0  0  0  0  0  0  0  0  0  0  0  0
   38.6610   30.5220   51.2900 H   0  0  0  0  0  0  0  0  0  0  0  0
   34.8610   28.6830   51.5860 H   0  0  0  0  0  0  0  0  0  0  0  0
   38.4820   30.4530   47.3030 O   0  0  0  0  0  0  0  0  0  0  0  0
   38.2230   30.3420   46.3320 H   0  0  0  0  0  0  0  0  0  0  0  0
   40.1120   32.1630   45.9810 O   0  0  0  0  0  0  0  0  0  0  0  0
   39.7650   32.4960   44.6950 C   0  0  0  0  0  0  0  0  0  0  0  0
   38.2750   32.6520   44.4760 C   0  0  0  0  0  0  0  0  0  0  0  0
   37.8170   31.7200   43.3730 C   0  0  0  0  0  0  0  0  0  0  0  0
   38.1350   30.3080   43.8370 C   0  0  0  0  0  0  0  0  0  0  0  0
   39.6350   30.1440   43.8330 C   0  0  0  0  0  0  0  0  0  0  0  0
   40.3590   31.4600   43.7650 C   0  0  0  0  0  0  0  0  0  0  0  0
  1  2  1  0  0  0  0
  2  3  2  0  0  0  0
  2 11  1  0  0  0  0
  3  7  1  0  0  0  0
  4  8  1  0  0  0  0
  4  3  1  0  0  0  0
  5  4  2  0  0  0  0
  6  5  1  0  0  0  0
  6  1  2  0  0  0  0
  9  5  1  0  0  0  0
 10 11  2  0  0  0  0
 10 15  1  0  0  0  0
 11 12  1  0  0  0  0
 12 17  1  0  0  0  0
 12 13  2  0  0  0  0
 14 13  1  0  0  0  0
 14 18  1  0  0  0  0
 15 14  2  0  0  0  0
 16 10  1  0  0  0  0
 19  1  1  0  0  0  0
 20 19  1  0  0  0  0
 21  6  1  0  0  0  0
 22 21  1  0  0  0  0
 23 22  1  0  0  0  0
 24 25  1  0  0  0  0
 24 23  1  0  0  0  0
 26 25  1  0  0  0  0
 27 26  1  0  0  0  0
 27 22  1  0  0  0  0
M  END
>  <minimizedAffinity>
-6.25371504

>  <minimizedRMSD>
2.31676865

$$$$
