REMARK  Name = 
REMARK  4 active torsions:
REMARK  status: ('A' for Active; 'I' for Inactive)
REMARK    1  A    between atoms: C_3  and  C_7
REMARK    2  A    between atoms: C_7  and  C_8
REMARK    3  A    between atoms: C_8  and  S_9
REMARK    4  A    between atoms: S_9  and  C_17
REMARK                            x       y       z     vdW  Elec       q    Type
REMARK                         _______ _______ _______ _____ _____    ______ ____
ROOT
ATOM      1  C   UNL     1      37.453  31.135  47.842  0.00  0.00    +0.000 C 
ATOM      2  H   UNL     1      37.682  30.359  47.085  0.00  0.00    +0.000 HD
ATOM      3  H   UNL     1      36.777  31.919  47.444  0.00  0.00    +0.000 HD
ENDROOT
BRANCH   1   6
ATOM      4  C   UNL     1      37.062  29.407  51.164  0.00  0.00    +0.000 A 
ATOM      5  C   UNL     1      37.684  30.010  50.072  0.00  0.00    +0.000 A 
ATOM      6  C   UNL     1      36.907  30.485  49.036  0.00  0.00    +0.000 A 
ATOM      7  N   UNL     1      35.539  30.331  49.149  0.00  0.00    +0.000 NA
ATOM      8  C   UNL     1      34.986  29.748  50.211  0.00  0.00    +0.000 A 
ATOM      9  N   UNL     1      35.717  29.277  51.231  0.00  0.00    +0.000 NA
ATOM     10  H   UNL     1      37.725  29.054  51.945  0.00  0.00    +0.000 HD
ATOM     11  H   UNL     1      38.739  30.101  50.044  0.00  0.00    +0.000 HD
ATOM     12  H   UNL     1      33.910  29.627  50.298  0.00  0.00    +0.000 HD
ENDBRANCH   1   6
BRANCH   1  13
ATOM     13  C   UNL     1      38.759  31.855  48.175  0.00  0.00    +0.000 C 
ATOM     14  H   UNL     1      39.548  31.206  48.547  0.00  0.00    +0.000 HD
ATOM     15  H   UNL     1      39.119  32.191  47.155  0.00  0.00    +0.000 HD
BRANCH  13  16
ATOM     16  S   UNL     1      38.446  33.355  49.096  0.00  0.00    +0.000 S 
BRANCH  16  17
ATOM     17  C   UNL     1      39.521  34.728  48.644  0.00  0.00    +0.000 C 
ATOM     18  C   UNL     1      39.561  35.709  49.790  0.00  0.00    +0.000 C 
ATOM     19  C   UNL     1      39.710  37.131  49.268  0.00  0.00    +0.000 C 
ATOM     20  C   UNL     1      40.555  37.118  48.016  0.00  0.00    +0.000 C 
ATOM     21  C   UNL     1      39.843  36.454  46.865  0.00  0.00    +0.000 C 
ATOM     22  C   UNL     1      38.917  35.402  47.431  0.00  0.00    +0.000 C 
ENDBRANCH  16  17
ENDBRANCH  13  16
ENDBRANCH   1  13
TORSDOF 4
