
     RDKit          3D

 37 39  0  0  0  0  0  0  0  0999 V2000
   37.1149   30.2747   50.3147 C   0  0  0  0  0  0  0  0  0  0  0  0
   37.5079   30.1317   51.4939 O   0  0  0  0  0  0  0  0  0  0  0  0
   37.7926   31.0916   49.3346 C   0  0  0  0  0  0  0  0  0  0  0  0
   38.1132   32.3924   49.7010 C   0  0  0  0  0  0  0  0  0  0  0  0
   38.7638   33.1939   48.7760 C   0  0  0  0  0  0  0  0  0  0  0  0
   39.0571   32.6719   47.5570 N   0  0  0  0  0  0  0  0  0  0  0  0
   38.7369   31.4086   47.2236 C   0  0  0  0  0  0  0  0  0  0  0  0
   38.1093   30.6274   48.1086 N   0  0  0  0  0  0  0  0  0  0  0  0
   35.9137   29.5833   49.9084 C   0  0  0  0  0  0  0  0  0  0  0  0
   34.6833   29.8967   50.3969 C   0  0  0  0  0  0  0  0  0  0  0  0
   33.7631   29.0297   49.7869 C   0  0  0  0  0  0  0  0  0  0  0  0
   34.5279   28.2196   48.9384 C   0  0  0  0  0  0  0  0  0  0  0  0
   35.7578   28.5965   49.0612 O   0  0  0  0  0  0  0  0  0  0  0  0
   33.9805   27.1556   48.0900 C   0  0  0  0  0  0  0  0  0  0  0  0
   32.7329   26.9184   48.1048 O   0  0  0  0  0  0  0  0  0  0  0  0
   37.9026   32.8572   50.6581 H   0  0  0  0  0  0  0  0  0  0  0  0
   39.0290   34.2194   49.0331 H   0  0  0  0  0  0  0  0  0  0  0  0
   38.9593   30.9685   46.2593 H   0  0  0  0  0  0  0  0  0  0  0  0
   34.3360   30.6368   51.1119 H   0  0  0  0  0  0  0  0  0  0  0  0
   32.6899   28.9772   49.9245 H   0  0  0  0  0  0  0  0  0  0  0  0
   34.9218   26.3863   47.2345 C   0  0  0  0  0  0  0  0  0  0  0  0
   35.3458   27.2128   46.0557 C   0  0  0  0  0  0  0  0  0  0  0  0
   35.9133   26.4001   44.9239 C   0  0  0  0  0  0  0  0  0  0  0  0
   35.0786   25.1941   44.5919 C   0  0  0  0  0  0  0  0  0  0  0  0
   35.0918   24.3359   45.8539 C   0  0  0  0  0  0  0  0  0  0  0  0
   34.2657   25.1010   46.8776 C   0  0  0  0  0  0  0  0  0  0  0  0
   35.8158   26.1623   47.8682 H   0  0  0  0  0  0  0  0  0  0  0  0
   36.1740   27.8692   46.3997 H   0  0  0  0  0  0  0  0  0  0  0  0
   34.5149   27.8176   45.6373 H   0  0  0  0  0  0  0  0  0  0  0  0
   36.0624   27.0887   44.0669 H   0  0  0  0  0  0  0  0  0  0  0  0
   36.9185   26.0055   45.2487 H   0  0  0  0  0  0  0  0  0  0  0  0
   35.5366   24.6928   43.7256 H   0  0  0  0  0  0  0  0  0  0  0  0
   34.0302   25.4454   44.3634 H   0  0  0  0  0  0  0  0  0  0  0  0
   36.1464   24.2612   46.2122 H   0  0  0  0  0  0  0  0  0  0  0  0
   34.7122   23.3317   45.6803 H   0  0  0  0  0  0  0  0  0  0  0  0
   34.2671   24.4486   47.7948 H   0  0  0  0  0  0  0  0  0  0  0  0
   33.2350   25.2000   46.5078 H   0  0  0  0  0  0  0  0  0  0  0  0
  1  2  2  0
  3  4  2  0
  3  1  1  0
  5  4  1  0
  6  5  2  0
  7  6  1  0
  7  8  2  0
  8  3  1  0
  9  1  1  0
  9 10  2  0
 11 10  1  0
 12 13  1  0
 12 11  2  0
 13  9  1  0
 14 15  2  0
 14 12  1  0
  4 16  1  0
  5 17  1  0
  7 18  1  0
 10 19  1  0
 11 20  1  0
 21 22  1  0
 22 23  1  0
 23 24  1  0
 24 25  1  0
 25 26  1  0
 26 21  1  0
 21 27  1  0
 22 28  1  0
 22 29  1  0
 23 30  1  0
 23 31  1  0
 24 32  1  0
 24 33  1  0
 25 34  1  0
 25 35  1  0
 26 36  1  0
 26 37  1  0
 14 21  1  0
M  ISO  5  16  14  17  14  18  14  19  14  20  14
M  END
>  <DihAtoms>  (1) 
14,13,20,21

>  <DihDeg>  (1) 
119.9888290701053

$$$$
