
 OpenBabel03272506403D

 34 36  0  0  1  0  0  0  0  0999 V2000
   37.4660   27.8680   35.5800 O   0  0  0  0  0  0  0  0  0  0  0  0
   37.1110   27.7820   34.3970 C   0  0  0  0  0  0  0  0  0  0  0  0
   37.6520   26.7720   33.5120 C   0  0  2  0  0  0  0  0  0  0  0  0
   36.7420   26.9620   32.2500 C   0  0  0  0  0  0  0  0  0  0  0  0
   36.3660   28.4170   32.3430 C   0  0  0  0  0  0  0  0  0  0  0  0
   36.1470   28.6400   33.7660 N   0  0  0  0  0  0  0  0  0  0  0  0
   38.6870   26.9600   33.1770 H   0  0  0  0  0  0  0  0  0  0  0  0
   37.2830   26.6890   31.3410 H   0  0  0  0  0  0  0  0  0  0  0  0
   35.8350   26.3740   32.4360 H   0  0  0  0  0  0  0  0  0  0  0  0
   35.4680   28.6540   31.7480 H   0  0  0  0  0  0  0  0  0  0  0  0
   37.2350   29.0460   32.0670 H   0  0  0  0  0  0  0  0  0  0  0  0
   35.1680   29.5320   34.3730 C   0  0  0  0  0  0  0  0  0  0  0  0
   34.6540   29.0480   35.2300 H   0  0  0  0  0  0  0  0  0  0  0  0
   34.4300   29.7710   33.5940 H   0  0  0  0  0  0  0  0  0  0  0  0
   35.8050   30.8200   34.7950 C   0  0  0  0  0  3  0  0  0  0  0  0
   35.5750   31.8270   33.6600 C   0  0  0  0  0  2  0  0  0  0  0  0
   36.3550   33.0870   33.8480 C   0  0  0  0  0  2  0  0  0  0  0  0
   36.7450   33.2240   35.2960 C   0  0  0  0  0  2  0  0  0  0  0  0
   35.5500   32.8800   36.1720 C   0  0  0  0  0  2  0  0  0  0  0  0
   35.1610   31.4300   36.0240 C   0  0  0  0  0  2  0  0  0  0  0  0
   37.4270   25.4300   33.9380 O   0  0  0  0  0  0  0  0  0  0  0  0
   38.4520   24.7950   34.6370 C   0  0  0  0  0  0  0  0  0  0  0  0
   39.7350   24.9640   34.1490 C   0  0  0  0  0  0  0  0  0  0  0  0
   40.7780   24.3440   34.8210 C   0  0  0  0  0  0  0  0  0  0  0  0
   40.4960   23.6010   35.9260 N   0  0  0  0  0  0  0  0  0  0  0  0
   39.2460   23.4460   36.3860 C   0  0  0  0  0  0  0  0  0  0  0  0
   38.2470   24.0420   35.7400 N   0  0  0  0  0  0  0  0  0  0  0  0
   38.3630   23.4080   38.5890 C   0  0  0  0  0  0  0  0  0  0  0  0
   38.0460   24.6250   38.5920 O   0  0  0  0  0  0  0  0  0  0  0  0
   38.9810   22.6570   37.5460 N   0  0  0  0  0  0  0  0  0  0  0  0
   40.0170   25.5350   33.2880 H   0  0  0  0  0  0  0  0  0  0  0  0
   41.7890   24.4420   34.4870 H   0  0  0  0  0  0  0  0  0  0  0  0
   38.0630   23.0390   39.5620 H   0  0  0  0  0  0  0  0  0  0  0  0
   39.1630   21.6490   37.7410 H   0  0  0  0  0  0  0  0  0  0  0  0
  2  1  2  0  0  0  0
  3  7  1  6  0  0  0
  3 21  1  0  0  0  0
  3  2  1  0  0  0  0
  4  5  1  0  0  0  0
  4  9  1  0  0  0  0
  4  3  1  0  0  0  0
  5  6  1  0  0  0  0
  6 12  1  0  0  0  0
  6  2  1  0  0  0  0
  8  4  1  0  0  0  0
 10  5  1  0  0  0  0
 11  5  1  0  0  0  0
 12 15  1  0  0  0  0
 12 13  1  0  0  0  0
 14 12  1  0  0  0  0
 15 20  1  0  0  0  0
 16 17  1  0  0  0  0
 16 15  1  0  0  0  0
 17 18  1  0  0  0  0
 18 19  1  0  0  0  0
 20 19  1  0  0  0  0
 21 22  1  0  0  0  0
 22 27  1  0  0  0  0
 23 22  2  0  0  0  0
 23 24  1  0  0  0  0
 24 25  2  0  0  0  0
 25 26  1  0  0  0  0
 26 30  1  0  0  0  0
 27 26  2  0  0  0  0
 28 29  2  0  0  0  0
 28 33  1  0  0  0  0
 30 34  1  0  0  0  0
 30 28  1  0  0  0  0
 31 23  1  0  0  0  0
 32 24  1  0  0  0  0
M  END
>  <minimizedAffinity>
-5.85742998

$$$$

 OpenBabel03272506403D

 34 36  0  0  1  0  0  0  0  0999 V2000
   37.6070   27.8940   35.4710 O   0  0  0  0  0  0  0  0  0  0  0  0
   37.1730   27.7490   34.3210 C   0  0  0  0  0  0  0  0  0  0  0  0
   37.6200   26.6670   33.4700 C   0  0  2  0  0  0  0  0  0  0  0  0
   36.6370   26.8140   32.2580 C   0  0  0  0  0  0  0  0  0  0  0  0
   36.3190   28.2860   32.2810 C   0  0  0  0  0  0  0  0  0  0  0  0
   36.2010   28.6040   33.6990 N   0  0  0  0  0  0  0  0  0  0  0  0
   38.6370   26.7940   33.0600 H   0  0  0  0  0  0  0  0  0  0  0  0
   37.1080   26.4660   31.3360 H   0  0  0  0  0  0  0  0  0  0  0  0
   35.7250   26.2750   32.5370 H   0  0  0  0  0  0  0  0  0  0  0  0
   35.3940   28.5210   31.7300 H   0  0  0  0  0  0  0  0  0  0  0  0
   37.1900   28.8630   31.9130 H   0  0  0  0  0  0  0  0  0  0  0  0
   35.2950   29.5690   34.3080 C   0  0  0  0  0  0  0  0  0  0  0  0
   35.6180   30.6120   34.1080 H   0  0  0  0  0  0  0  0  0  0  0  0
   35.3140   29.3820   35.3910 H   0  0  0  0  0  0  0  0  0  0  0  0
   33.8880   29.3510   33.8420 C   0  0  0  0  0  3  0  0  0  0  0  0
   32.9850   29.4620   35.0770 C   0  0  0  0  0  2  0  0  0  0  0  0
   31.5800   29.0390   34.7970 C   0  0  0  0  0  2  0  0  0  0  0  0
   31.3250   29.0980   33.3140 C   0  0  0  0  0  2  0  0  0  0  0  0
   31.9020   30.3910   32.7570 C   0  0  0  0  0  2  0  0  0  0  0  0
   33.4050   30.4180   32.8800 C   0  0  0  0  0  2  0  0  0  0  0  0
   37.3770   25.3640   33.9940 O   0  0  0  0  0  0  0  0  0  0  0  0
   38.4150   24.7430   34.6870 C   0  0  0  0  0  0  0  0  0  0  0  0
   39.6910   24.9180   34.1830 C   0  0  0  0  0  0  0  0  0  0  0  0
   40.7460   24.3120   34.8490 C   0  0  0  0  0  0  0  0  0  0  0  0
   40.4820   23.5770   35.9630 N   0  0  0  0  0  0  0  0  0  0  0  0
   39.2390   23.4160   36.4390 C   0  0  0  0  0  0  0  0  0  0  0  0
   38.2280   23.9990   35.7980 N   0  0  0  0  0  0  0  0  0  0  0  0
   38.3800   23.3900   38.6510 C   0  0  0  0  0  0  0  0  0  0  0  0
   38.0540   24.6050   38.6470 O   0  0  0  0  0  0  0  0  0  0  0  0
   38.9930   22.6360   37.6080 N   0  0  0  0  0  0  0  0  0  0  0  0
   39.9580   25.4840   33.3140 H   0  0  0  0  0  0  0  0  0  0  0  0
   41.7530   24.4160   34.5030 H   0  0  0  0  0  0  0  0  0  0  0  0
   38.0940   23.0280   39.6310 H   0  0  0  0  0  0  0  0  0  0  0  0
   39.1850   21.6300   37.8100 H   0  0  0  0  0  0  0  0  0  0  0  0
  2  1  2  0  0  0  0
  3  7  1  6  0  0  0
  3 21  1  0  0  0  0
  3  2  1  0  0  0  0
  4  5  1  0  0  0  0
  4  9  1  0  0  0  0
  4  3  1  0  0  0  0
  5  6  1  0  0  0  0
  6 12  1  0  0  0  0
  6  2  1  0  0  0  0
  8  4  1  0  0  0  0
 10  5  1  0  0  0  0
 11  5  1  0  0  0  0
 12 14  1  0  0  0  0
 13 12  1  0  0  0  0
 15 12  1  0  0  0  0
 15 16  1  0  0  0  0
 17 16  1  0  0  0  0
 18 17  1  0  0  0  0
 19 20  1  0  0  0  0
 19 18  1  0  0  0  0
 20 15  1  0  0  0  0
 21 22  1  0  0  0  0
 22 27  1  0  0  0  0
 23 22  2  0  0  0  0
 23 24  1  0  0  0  0
 24 25  2  0  0  0  0
 25 26  1  0  0  0  0
 26 30  1  0  0  0  0
 27 26  2  0  0  0  0
 28 33  1  0  0  0  0
 29 28  2  0  0  0  0
 30 34  1  0  0  0  0
 30 28  1  0  0  0  0
 31 23  1  0  0  0  0
 32 24  1  0  0  0  0
M  END
>  <minimizedAffinity>
-5.41345119

$$$$

 OpenBabel03272506403D

 34 36  0  0  1  0  0  0  0  0999 V2000
   36.3110   27.9130   34.6140 O   0  0  0  0  0  0  0  0  0  0  0  0
   36.0800   28.7190   33.7040 C   0  0  0  0  0  0  0  0  0  0  0  0
   35.3130   29.9260   33.9330 C   0  0  2  0  0  0  0  0  0  0  0  0
   35.4970   30.6620   32.5620 C   0  0  0  0  0  0  0  0  0  0  0  0
   35.6950   29.5150   31.6070 C   0  0  0  0  0  0  0  0  0  0  0  0
   36.5250   28.5730   32.3460 N   0  0  0  0  0  0  0  0  0  0  0  0
   34.2270   29.7660   34.0540 H   0  0  0  0  0  0  0  0  0  0  0  0
   34.6320   31.2920   32.3440 H   0  0  0  0  0  0  0  0  0  0  0  0
   36.4490   31.2030   32.6300 H   0  0  0  0  0  0  0  0  0  0  0  0
   36.1750   29.8340   30.6670 H   0  0  0  0  0  0  0  0  0  0  0  0
   34.7300   28.9990   31.4360 H   0  0  0  0  0  0  0  0  0  0  0  0
   37.5600   27.7020   31.8030 C   0  0  0  0  0  0  0  0  0  0  0  0
   38.5080   27.7950   32.3720 H   0  0  0  0  0  0  0  0  0  0  0  0
   37.7260   28.0180   30.7630 H   0  0  0  0  0  0  0  0  0  0  0  0
   37.0980   26.2780   31.7680 C   0  0  0  0  0  3  0  0  0  0  0  0
   35.8050   26.2460   30.9430 C   0  0  0  0  0  2  0  0  0  0  0  0
   35.1120   24.9250   31.0190 C   0  0  0  0  0  2  0  0  0  0  0  0
   36.0930   23.8690   31.4560 C   0  0  0  0  0  2  0  0  0  0  0  0
   37.3980   24.0510   30.6950 C   0  0  0  0  0  2  0  0  0  0  0  0
   38.0650   25.3540   31.0550 C   0  0  0  0  0  2  0  0  0  0  0  0
   35.8700   30.8040   34.9080 O   0  0  0  0  0  0  0  0  0  0  0  0
   34.9900   31.4380   35.7830 C   0  0  0  0  0  0  0  0  0  0  0  0
   35.4200   32.6270   36.3450 C   0  0  0  0  0  0  0  0  0  0  0  0
   34.5670   33.2830   37.2210 C   0  0  0  0  0  0  0  0  0  0  0  0
   33.3520   32.7320   37.4880 N   0  0  0  0  0  0  0  0  0  0  0  0
   32.9500   31.5780   36.9370 C   0  0  0  0  0  0  0  0  0  0  0  0
   33.7700   30.9510   36.0960 N   0  0  0  0  0  0  0  0  0  0  0  0
   30.8490   30.8780   36.0830 C   0  0  0  0  0  0  0  0  0  0  0  0
   31.1210   31.1730   34.8910 O   0  0  0  0  0  0  0  0  0  0  0  0
   31.6710   31.0230   37.2390 N   0  0  0  0  0  0  0  0  0  0  0  0
   36.3610   33.1060   36.1720 H   0  0  0  0  0  0  0  0  0  0  0  0
   34.8490   34.2050   37.6820 H   0  0  0  0  0  0  0  0  0  0  0  0
   29.8420   30.4820   36.0490 H   0  0  0  0  0  0  0  0  0  0  0  0
   31.2580   30.7160   38.1470 H   0  0  0  0  0  0  0  0  0  0  0  0
  2  3  1  0  0  0  0
  2  1  2  0  0  0  0
  3  7  1  1  0  0  0
  3 21  1  0  0  0  0
  4  9  1  0  0  0  0
  4  3  1  0  0  0  0
  5  6  1  0  0  0  0
  5  4  1  0  0  0  0
  6  2  1  0  0  0  0
  8  4  1  0  0  0  0
 10  5  1  0  0  0  0
 11  5  1  0  0  0  0
 12  6  1  0  0  0  0
 12 13  1  0  0  0  0
 14 12  1  0  0  0  0
 15 12  1  0  0  0  0
 16 17  1  0  0  0  0
 16 15  1  0  0  0  0
 17 18  1  0  0  0  0
 19 20  1  0  0  0  0
 19 18  1  0  0  0  0
 20 15  1  0  0  0  0
 21 22  1  0  0  0  0
 22 27  2  0  0  0  0
 22 23  1  0  0  0  0
 23 24  2  0  0  0  0
 24 25  1  0  0  0  0
 24 32  1  0  0  0  0
 26 30  1  0  0  0  0
 26 25  2  0  0  0  0
 27 26  1  0  0  0  0
 28 30  1  0  0  0  0
 29 28  2  0  0  0  0
 30 34  1  0  0  0  0
 31 23  1  0  0  0  0
 33 28  1  0  0  0  0
M  END
>  <minimizedAffinity>
-5.40983248

$$$$

 OpenBabel03272506403D

 34 36  0  0  1  0  0  0  0  0999 V2000
   38.9120   23.5160   30.6720 O   0  0  0  0  0  0  0  0  0  0  0  0
   37.7330   23.5060   31.0500 C   0  0  0  0  0  0  0  0  0  0  0  0
   36.9830   22.2740   31.1690 C   0  0  2  0  0  0  0  0  0  0  0  0
   35.6760   22.7860   31.8660 C   0  0  0  0  0  0  0  0  0  0  0  0
   35.5970   24.2130   31.3880 C   0  0  0  0  0  0  0  0  0  0  0  0
   36.9790   24.6740   31.4100 N   0  0  0  0  0  0  0  0  0  0  0  0
   36.6670   21.8320   30.2080 H   0  0  0  0  0  0  0  0  0  0  0  0
   34.8220   22.1650   31.5860 H   0  0  0  0  0  0  0  0  0  0  0  0
   35.8900   22.8100   32.9400 H   0  0  0  0  0  0  0  0  0  0  0  0
   34.9480   24.8310   32.0300 H   0  0  0  0  0  0  0  0  0  0  0  0
   35.2870   24.2350   30.3250 H   0  0  0  0  0  0  0  0  0  0  0  0
   37.4500   26.0150   31.7310 C   0  0  0  0  0  0  0  0  0  0  0  0
   36.6310   26.7610   31.6600 H   0  0  0  0  0  0  0  0  0  0  0  0
   38.2310   26.2610   30.9970 H   0  0  0  0  0  0  0  0  0  0  0  0
   38.0840   26.0500   33.0870 C   0  0  0  0  0  3  0  0  0  0  0  0
   39.2630   27.0290   33.0050 C   0  0  0  0  0  2  0  0  0  0  0  0
   40.1250   26.9880   34.2250 C   0  0  0  0  0  2  0  0  0  0  0  0
   39.3480   26.3890   35.3680 C   0  0  0  0  0  2  0  0  0  0  0  0
   37.9490   26.9870   35.3910 C   0  0  0  0  0  2  0  0  0  0  0  0
   37.1660   26.5990   34.1610 C   0  0  0  0  0  2  0  0  0  0  0  0
   37.5430   21.3260   32.0740 O   0  0  0  0  0  0  0  0  0  0  0  0
   37.1780   21.4220   33.4160 C   0  0  0  0  0  0  0  0  0  0  0  0
   36.0980   20.6590   33.8230 C   0  0  0  0  0  0  0  0  0  0  0  0
   35.7090   20.7320   35.1530 C   0  0  0  0  0  0  0  0  0  0  0  0
   36.4010   21.5470   35.9940 N   0  0  0  0  0  0  0  0  0  0  0  0
   37.4450   22.2820   35.5840 C   0  0  0  0  0  0  0  0  0  0  0  0
   37.8170   22.2090   34.3080 N   0  0  0  0  0  0  0  0  0  0  0  0
   39.5280   22.7840   36.6060 C   0  0  0  0  0  0  0  0  0  0  0  0
   40.1510   21.8580   36.0250 O   0  0  0  0  0  0  0  0  0  0  0  0
   38.1490   23.1310   36.4900 N   0  0  0  0  0  0  0  0  0  0  0  0
   35.5170   20.0020   33.2090 H   0  0  0  0  0  0  0  0  0  0  0  0
   34.8820   20.1630   35.5200 H   0  0  0  0  0  0  0  0  0  0  0  0
   40.2690   23.2740   37.2240 H   0  0  0  0  0  0  0  0  0  0  0  0
   37.8220   23.9400   37.0610 H   0  0  0  0  0  0  0  0  0  0  0  0
  1  2  2  0  0  0  0
  2  3  1  0  0  0  0
  2  6  1  0  0  0  0
  3  7  1  6  0  0  0
  3  4  1  0  0  0  0
  3 21  1  0  0  0  0
  4  9  1  0  0  0  0
  5  6  1  0  0  0  0
  5  4  1  0  0  0  0
  5 10  1  0  0  0  0
  6 12  1  0  0  0  0
  8  4  1  0  0  0  0
 11  5  1  0  0  0  0
 12 15  1  0  0  0  0
 13 12  1  0  0  0  0
 14 12  1  0  0  0  0
 15 20  1  0  0  0  0
 16 15  1  0  0  0  0
 16 17  1  0  0  0  0
 17 18  1  0  0  0  0
 18 19  1  0  0  0  0
 20 19  1  0  0  0  0
 21 22  1  0  0  0  0
 22 23  2  0  0  0  0
 22 27  1  0  0  0  0
 23 24  1  0  0  0  0
 24 32  1  0  0  0  0
 24 25  2  0  0  0  0
 26 25  1  0  0  0  0
 26 30  1  0  0  0  0
 27 26  2  0  0  0  0
 28 33  1  0  0  0  0
 29 28  2  0  0  0  0
 30 28  1  0  0  0  0
 30 34  1  0  0  0  0
 31 23  1  0  0  0  0
M  END
>  <minimizedAffinity>
-5.37879324

$$$$

 OpenBabel03272506403D

 34 36  0  0  1  0  0  0  0  0999 V2000
   37.2290   26.2720   35.0370 O   0  0  0  0  0  0  0  0  0  0  0  0
   37.9570   26.3920   34.0440 C   0  0  0  0  0  0  0  0  0  0  0  0
   39.2570   25.7590   33.9720 C   0  0  2  0  0  0  0  0  0  0  0  0
   39.6450   26.0410   32.4800 C   0  0  0  0  0  0  0  0  0  0  0  0
   38.9020   27.3190   32.1920 C   0  0  0  0  0  0  0  0  0  0  0  0
   37.6230   27.1490   32.8700 N   0  0  0  0  0  0  0  0  0  0  0  0
   40.0380   26.2370   34.5890 H   0  0  0  0  0  0  0  0  0  0  0  0
   40.7290   26.1110   32.3710 H   0  0  0  0  0  0  0  0  0  0  0  0
   39.1770   25.2470   31.8860 H   0  0  0  0  0  0  0  0  0  0  0  0
   38.7730   27.4920   31.1110 H   0  0  0  0  0  0  0  0  0  0  0  0
   39.4040   28.1660   32.7000 H   0  0  0  0  0  0  0  0  0  0  0  0
   36.3250   27.6430   32.4280 C   0  0  0  0  0  0  0  0  0  0  0  0
   35.4970   27.0210   32.8270 H   0  0  0  0  0  0  0  0  0  0  0  0
   36.3230   27.5920   31.3300 H   0  0  0  0  0  0  0  0  0  0  0  0
   36.1410   29.0800   32.8090 C   0  0  0  0  0  3  0  0  0  0  0  0
   35.1410   29.6820   31.8130 C   0  0  0  0  0  2  0  0  0  0  0  0
   35.0390   31.1680   31.9340 C   0  0  0  0  0  2  0  0  0  0  0  0
   35.5470   31.5960   33.2860 C   0  0  0  0  0  2  0  0  0  0  0  0
   34.9900   30.6620   34.3500 C   0  0  0  0  0  2  0  0  0  0  0  0
   35.5180   29.2600   34.1790 C   0  0  0  0  0  2  0  0  0  0  0  0
   39.2290   24.3380   34.0890 O   0  0  0  0  0  0  0  0  0  0  0  0
   39.7490   23.7770   35.2550 C   0  0  0  0  0  0  0  0  0  0  0  0
   41.1090   23.5240   35.2700 C   0  0  0  0  0  0  0  0  0  0  0  0
   41.6570   22.9650   36.4150 C   0  0  0  0  0  0  0  0  0  0  0  0
   40.8400   22.6920   37.4670 N   0  0  0  0  0  0  0  0  0  0  0  0
   39.5220   22.9420   37.4370 C   0  0  0  0  0  0  0  0  0  0  0  0
   38.9990   23.4790   36.3370 N   0  0  0  0  0  0  0  0  0  0  0  0
   38.0340   23.7960   39.0760 C   0  0  0  0  0  0  0  0  0  0  0  0
   38.1110   24.9850   38.6740 O   0  0  0  0  0  0  0  0  0  0  0  0
   38.6890   22.6420   38.5550 N   0  0  0  0  0  0  0  0  0  0  0  0
   41.8000   23.7170   34.4750 H   0  0  0  0  0  0  0  0  0  0  0  0
   42.7030   22.7500   36.4800 H   0  0  0  0  0  0  0  0  0  0  0  0
   37.3520   23.8300   39.9170 H   0  0  0  0  0  0  0  0  0  0  0  0
   38.4920   21.7360   39.0350 H   0  0  0  0  0  0  0  0  0  0  0  0
  2  1  2  0  0  0  0
  3  2  1  0  0  0  0
  3 21  1  0  0  0  0
  3  7  1  1  0  0  0
  4  3  1  0  0  0  0
  5  4  1  0  0  0  0
  5 11  1  0  0  0  0
  5  6  1  0  0  0  0
  6  2  1  0  0  0  0
  8  4  1  0  0  0  0
  9  4  1  0  0  0  0
 10  5  1  0  0  0  0
 12 15  1  0  0  0  0
 12 13  1  0  0  0  0
 12  6  1  0  0  0  0
 14 12  1  0  0  0  0
 15 20  1  0  0  0  0
 16 17  1  0  0  0  0
 16 15  1  0  0  0  0
 17 18  1  0  0  0  0
 18 19  1  0  0  0  0
 20 19  1  0  0  0  0
 21 22  1  0  0  0  0
 22 23  2  0  0  0  0
 22 27  1  0  0  0  0
 23 24  1  0  0  0  0
 24 32  1  0  0  0  0
 24 25  2  0  0  0  0
 26 25  1  0  0  0  0
 26 30  1  0  0  0  0
 27 26  2  0  0  0  0
 28 33  1  0  0  0  0
 29 28  2  0  0  0  0
 30 34  1  0  0  0  0
 30 28  1  0  0  0  0
 31 23  1  0  0  0  0
M  END
>  <minimizedAffinity>
-5.31571245

$$$$

 OpenBabel03272506403D

 34 36  0  0  1  0  0  0  0  0999 V2000
   37.4090   25.7320   34.0230 O   0  0  0  0  0  0  0  0  0  0  0  0
   36.9750   26.4990   33.1530 C   0  0  0  0  0  0  0  0  0  0  0  0
   36.7920   26.0690   31.7830 C   0  0  2  0  0  0  0  0  0  0  0  0
   36.0470   27.3080   31.1780 C   0  0  0  0  0  0  0  0  0  0  0  0
   36.5530   28.4370   32.0370 C   0  0  0  0  0  0  0  0  0  0  0  0
   36.6070   27.8690   33.3780 N   0  0  0  0  0  0  0  0  0  0  0  0
   37.7270   25.9590   31.2050 H   0  0  0  0  0  0  0  0  0  0  0  0
   36.2710   27.4100   30.1140 H   0  0  0  0  0  0  0  0  0  0  0  0
   34.9840   27.1690   31.4090 H   0  0  0  0  0  0  0  0  0  0  0  0
   35.8960   29.3210   31.9920 H   0  0  0  0  0  0  0  0  0  0  0  0
   37.6010   28.6730   31.7650 H   0  0  0  0  0  0  0  0  0  0  0  0
   36.3410   28.5590   34.6330 C   0  0  0  0  0  0  0  0  0  0  0  0
   37.2740   28.7270   35.2100 H   0  0  0  0  0  0  0  0  0  0  0  0
   35.6650   27.9140   35.2130 H   0  0  0  0  0  0  0  0  0  0  0  0
   35.6250   29.8530   34.3920 C   0  0  0  0  0  3  0  0  0  0  0  0
   34.1230   29.5630   34.5110 C   0  0  0  0  0  2  0  0  0  0  0  0
   33.2820   30.7160   34.0680 C   0  0  0  0  0  2  0  0  0  0  0  0
   34.1040   31.9780   34.1030 C   0  0  0  0  0  2  0  0  0  0  0  0
   34.9080   32.0170   35.3940 C   0  0  0  0  0  2  0  0  0  0  0  0
   35.9260   30.9050   35.4410 C   0  0  0  0  0  2  0  0  0  0  0  0
   35.8920   24.9750   31.6220 O   0  0  0  0  0  0  0  0  0  0  0  0
   36.4390   23.7320   31.3060 C   0  0  0  0  0  0  0  0  0  0  0  0
   37.7280   23.7290   30.8040 C   0  0  0  0  0  0  0  0  0  0  0  0
   38.3000   22.5070   30.4790 C   0  0  0  0  0  0  0  0  0  0  0  0
   37.5740   21.3720   30.6680 N   0  0  0  0  0  0  0  0  0  0  0  0
   36.3240   21.3920   31.1550 C   0  0  0  0  0  0  0  0  0  0  0  0
   35.7780   22.5650   31.4670 N   0  0  0  0  0  0  0  0  0  0  0  0
   35.2020   19.9790   32.6970 C   0  0  0  0  0  0  0  0  0  0  0  0
   35.4360   20.7100   33.6930 O   0  0  0  0  0  0  0  0  0  0  0  0
   35.5860   20.1850   31.3390 N   0  0  0  0  0  0  0  0  0  0  0  0
   38.3450   24.5860   30.6350 H   0  0  0  0  0  0  0  0  0  0  0  0
   39.2930   22.4470   30.0880 H   0  0  0  0  0  0  0  0  0  0  0  0
   34.6380   19.1430   33.0910 H   0  0  0  0  0  0  0  0  0  0  0  0
   35.2920   19.4540   30.6550 H   0  0  0  0  0  0  0  0  0  0  0  0
  2  6  1  0  0  0  0
  2  1  2  0  0  0  0
  3  7  1  6  0  0  0
  3  2  1  0  0  0  0
  4  9  1  0  0  0  0
  4  3  1  0  0  0  0
  4  5  1  0  0  0  0
  5  6  1  0  0  0  0
  6 12  1  0  0  0  0
  8  4  1  0  0  0  0
 10  5  1  0  0  0  0
 11  5  1  0  0  0  0
 12 13  1  0  0  0  0
 12 14  1  0  0  0  0
 15 16  1  0  0  0  0
 15 12  1  0  0  0  0
 15 20  1  0  0  0  0
 17 18  1  0  0  0  0
 17 16  1  0  0  0  0
 18 19  1  0  0  0  0
 19 20  1  0  0  0  0
 21  3  1  0  0  0  0
 22 27  1  0  0  0  0
 22 21  1  0  0  0  0
 23 22  2  0  0  0  0
 24 25  2  0  0  0  0
 24 23  1  0  0  0  0
 25 26  1  0  0  0  0
 26 30  1  0  0  0  0
 26 27  2  0  0  0  0
 28 33  1  0  0  0  0
 28 29  2  0  0  0  0
 30 28  1  0  0  0  0
 31 23  1  0  0  0  0
 32 24  1  0  0  0  0
 34 30  1  0  0  0  0
M  END
>  <minimizedAffinity>
-5.17851782

$$$$

 OpenBabel03272506403D

 34 36  0  0  1  0  0  0  0  0999 V2000
   37.8920   26.3390   35.8390 O   0  0  0  0  0  0  0  0  0  0  0  0
   37.9930   25.3780   35.0660 C   0  0  0  0  0  0  0  0  0  0  0  0
   37.6400   25.4880   33.6660 C   0  0  2  0  0  0  0  0  0  0  0  0
   38.1420   24.1070   33.1220 C   0  0  0  0  0  0  0  0  0  0  0  0
   38.0260   23.2230   34.3350 C   0  0  0  0  0  0  0  0  0  0  0  0
   38.4590   24.0720   35.4380 N   0  0  0  0  0  0  0  0  0  0  0  0
   36.5540   25.5220   33.4660 H   0  0  0  0  0  0  0  0  0  0  0  0
   37.5410   23.7880   32.2680 H   0  0  0  0  0  0  0  0  0  0  0  0
   39.2100   24.2330   32.9060 H   0  0  0  0  0  0  0  0  0  0  0  0
   38.6460   22.3150   34.2500 H   0  0  0  0  0  0  0  0  0  0  0  0
   36.9600   22.9930   34.5300 H   0  0  0  0  0  0  0  0  0  0  0  0
   39.1940   23.6580   36.6260 C   0  0  0  0  0  0  0  0  0  0  0  0
   38.5190   23.2140   37.3880 H   0  0  0  0  0  0  0  0  0  0  0  0
   39.6650   24.5620   37.0390 H   0  0  0  0  0  0  0  0  0  0  0  0
   40.2930   22.7040   36.2710 C   0  0  0  0  0  3  0  0  0  0  0  0
   41.4720   23.5470   35.7680 C   0  0  0  0  0  2  0  0  0  0  0  0
   42.5540   22.7120   35.1640 C   0  0  0  0  0  2  0  0  0  0  0  0
   42.4230   21.2930   35.6520 C   0  0  0  0  0  2  0  0  0  0  0  0
   42.1530   21.3000   37.1490 C   0  0  0  0  0  2  0  0  0  0  0  0
   40.8190   21.9290   37.4630 C   0  0  0  0  0  2  0  0  0  0  0  0
   38.3820   26.4680   32.9440 O   0  0  0  0  0  0  0  0  0  0  0  0
   37.6690   27.3430   32.1270 C   0  0  0  0  0  0  0  0  0  0  0  0
   36.7340   28.1530   32.7480 C   0  0  0  0  0  0  0  0  0  0  0  0
   36.0070   29.0350   31.9620 C   0  0  0  0  0  0  0  0  0  0  0  0
   36.2430   29.0670   30.6230 N   0  0  0  0  0  0  0  0  0  0  0  0
   37.1520   28.2750   30.0350 C   0  0  0  0  0  0  0  0  0  0  0  0
   37.8480   27.4290   30.7910 N   0  0  0  0  0  0  0  0  0  0  0  0
   38.7170   28.6780   28.2970 C   0  0  0  0  0  0  0  0  0  0  0  0
   39.6710   28.9310   29.0760 O   0  0  0  0  0  0  0  0  0  0  0  0
   37.3740   28.3280   28.6260 N   0  0  0  0  0  0  0  0  0  0  0  0
   36.5070   28.1720   33.7940 H   0  0  0  0  0  0  0  0  0  0  0  0
   35.2730   29.6840   32.3910 H   0  0  0  0  0  0  0  0  0  0  0  0
   39.1330   28.7820   27.3030 H   0  0  0  0  0  0  0  0  0  0  0  0
   36.7270   28.1550   27.8260 H   0  0  0  0  0  0  0  0  0  0  0  0
  2  6  1  0  0  0  0
  2  1  2  0  0  0  0
  3  7  1  6  0  0  0
  3  2  1  0  0  0  0
  4  3  1  0  0  0  0
  4  5  1  0  0  0  0
  5 11  1  0  0  0  0
  5  6  1  0  0  0  0
  6 12  1  0  0  0  0
  8  4  1  0  0  0  0
  9  4  1  0  0  0  0
 10  5  1  0  0  0  0
 12 14  1  0  0  0  0
 12 13  1  0  0  0  0
 15 12  1  0  0  0  0
 15 20  1  0  0  0  0
 16 15  1  0  0  0  0
 17 18  1  0  0  0  0
 17 16  1  0  0  0  0
 18 19  1  0  0  0  0
 19 20  1  0  0  0  0
 21  3  1  0  0  0  0
 22 23  1  0  0  0  0
 22 21  1  0  0  0  0
 23 31  1  0  0  0  0
 24 32  1  0  0  0  0
 24 23  2  0  0  0  0
 25 24  1  0  0  0  0
 26 25  2  0  0  0  0
 26 27  1  0  0  0  0
 27 22  2  0  0  0  0
 28 30  1  0  0  0  0
 28 29  2  0  0  0  0
 30 26  1  0  0  0  0
 33 28  1  0  0  0  0
 34 30  1  0  0  0  0
M  END
>  <minimizedAffinity>
-5.17376137

$$$$

 OpenBabel03272506403D

 34 36  0  0  1  0  0  0  0  0999 V2000
   39.2710   27.2860   35.6550 O   0  0  0  0  0  0  0  0  0  0  0  0
   39.7670   26.9720   34.5660 C   0  0  0  0  0  0  0  0  0  0  0  0
   41.1370   26.5160   34.4570 C   0  0  2  0  0  0  0  0  0  0  0  0
   41.1830   26.0620   32.9580 C   0  0  0  0  0  0  0  0  0  0  0  0
   40.1470   26.9520   32.3220 C   0  0  0  0  0  0  0  0  0  0  0  0
   39.0760   27.0140   33.3080 N   0  0  0  0  0  0  0  0  0  0  0  0
   41.8970   27.3100   34.5630 H   0  0  0  0  0  0  0  0  0  0  0  0
   42.1910   26.1760   32.5520 H   0  0  0  0  0  0  0  0  0  0  0  0
   40.7950   25.0370   32.9360 H   0  0  0  0  0  0  0  0  0  0  0  0
   39.7940   26.5560   31.3570 H   0  0  0  0  0  0  0  0  0  0  0  0
   40.5420   27.9840   32.2380 H   0  0  0  0  0  0  0  0  0  0  0  0
   37.6450   27.0960   33.0430 C   0  0  0  0  0  0  0  0  0  0  0  0
   37.3650   28.0870   32.6290 H   0  0  0  0  0  0  0  0  0  0  0  0
   37.1350   26.9460   34.0060 H   0  0  0  0  0  0  0  0  0  0  0  0
   37.2060   25.9950   32.1280 C   0  0  0  0  0  3  0  0  0  0  0  0
   37.1790   24.7060   32.9590 C   0  0  0  0  0  2  0  0  0  0  0  0
   36.9790   23.4880   32.1170 C   0  0  0  0  0  2  0  0  0  0  0  0
   36.3760   23.8860   30.7960 C   0  0  0  0  0  2  0  0  0  0  0  0
   35.2590   24.8900   31.0360 C   0  0  0  0  0  2  0  0  0  0  0  0
   35.7940   26.1790   31.6080 C   0  0  0  0  0  2  0  0  0  0  0  0
   41.4320   25.3440   35.2120 O   0  0  0  0  0  0  0  0  0  0  0  0
   40.4780   24.3270   35.2230 C   0  0  0  0  0  0  0  0  0  0  0  0
   40.6660   23.2890   34.3270 C   0  0  0  0  0  0  0  0  0  0  0  0
   39.7340   22.2610   34.3120 C   0  0  0  0  0  0  0  0  0  0  0  0
   38.6820   22.3180   35.1730 N   0  0  0  0  0  0  0  0  0  0  0  0
   38.5130   23.3310   36.0350 C   0  0  0  0  0  0  0  0  0  0  0  0
   39.4090   24.3160   36.0480 N   0  0  0  0  0  0  0  0  0  0  0  0
   37.7900   23.3860   38.2950 C   0  0  0  0  0  0  0  0  0  0  0  0
   38.9530   23.3770   38.7740 O   0  0  0  0  0  0  0  0  0  0  0  0
   37.3980   23.3640   36.9240 N   0  0  0  0  0  0  0  0  0  0  0  0
   41.4710   23.1910   33.6290 H   0  0  0  0  0  0  0  0  0  0  0  0
   39.8320   21.4350   33.6410 H   0  0  0  0  0  0  0  0  0  0  0  0
   37.1340   23.4130   39.1560 H   0  0  0  0  0  0  0  0  0  0  0  0
   36.3720   23.3760   36.7310 H   0  0  0  0  0  0  0  0  0  0  0  0
  2  1  2  0  0  0  0
  3  7  1  1  0  0  0
  3  2  1  0  0  0  0
  3 21  1  0  0  0  0
  4  3  1  0  0  0  0
  5  4  1  0  0  0  0
  5  6  1  0  0  0  0
  6  2  1  0  0  0  0
  8  4  1  0  0  0  0
  9  4  1  0  0  0  0
 10  5  1  0  0  0  0
 11  5  1  0  0  0  0
 12  6  1  0  0  0  0
 12 14  1  0  0  0  0
 13 12  1  0  0  0  0
 15 16  1  0  0  0  0
 15 12  1  0  0  0  0
 17 16  1  0  0  0  0
 18 19  1  0  0  0  0
 18 17  1  0  0  0  0
 19 20  1  0  0  0  0
 20 15  1  0  0  0  0
 21 22  1  0  0  0  0
 22 27  1  0  0  0  0
 23 22  2  0  0  0  0
 24 23  1  0  0  0  0
 24 25  2  0  0  0  0
 25 26  1  0  0  0  0
 26 27  2  0  0  0  0
 26 30  1  0  0  0  0
 28 29  2  0  0  0  0
 28 33  1  0  0  0  0
 30 28  1  0  0  0  0
 31 23  1  0  0  0  0
 32 24  1  0  0  0  0
 34 30  1  0  0  0  0
M  END
>  <minimizedAffinity>
-5.14656305

$$$$

 OpenBabel03272506403D

 34 36  0  0  1  0  0  0  0  0999 V2000
   37.8710   24.1560   31.8170 O   0  0  0  0  0  0  0  0  0  0  0  0
   38.3630   25.0470   32.5220 C   0  0  0  0  0  0  0  0  0  0  0  0
   38.0070   26.4390   32.3460 C   0  0  2  0  0  0  0  0  0  0  0  0
   38.7160   27.0870   33.5840 C   0  0  0  0  0  0  0  0  0  0  0  0
   39.8730   26.1510   33.8170 C   0  0  0  0  0  0  0  0  0  0  0  0
   39.3160   24.8270   33.5730 N   0  0  0  0  0  0  0  0  0  0  0  0
   38.4470   26.9170   31.4530 H   0  0  0  0  0  0  0  0  0  0  0  0
   39.0020   28.1190   33.3670 H   0  0  0  0  0  0  0  0  0  0  0  0
   38.0250   26.9730   34.4270 H   0  0  0  0  0  0  0  0  0  0  0  0
   40.2830   26.2420   34.8360 H   0  0  0  0  0  0  0  0  0  0  0  0
   40.6420   26.3050   33.0340 H   0  0  0  0  0  0  0  0  0  0  0  0
   39.6660   23.5890   34.2580 C   0  0  0  0  0  0  0  0  0  0  0  0
   40.7280   23.3160   34.0850 H   0  0  0  0  0  0  0  0  0  0  0  0
   39.0150   22.8040   33.8470 H   0  0  0  0  0  0  0  0  0  0  0  0
   39.3750   23.6880   35.7240 C   0  0  0  0  0  3  0  0  0  0  0  0
   38.0460   22.9610   35.9670 C   0  0  0  0  0  2  0  0  0  0  0  0
   37.5200   23.1780   37.3490 C   0  0  0  0  0  2  0  0  0  0  0  0
   38.6450   23.6180   38.2490 C   0  0  0  0  0  2  0  0  0  0  0  0
   39.8690   22.7550   37.9800 C   0  0  0  0  0  2  0  0  0  0  0  0
   40.3990   22.9740   36.5850 C   0  0  0  0  0  2  0  0  0  0  0  0
   36.6210   26.7210   32.5170 O   0  0  0  0  0  0  0  0  0  0  0  0
   36.1570   27.9630   32.0840 C   0  0  0  0  0  0  0  0  0  0  0  0
   36.6800   28.4410   30.8950 C   0  0  0  0  0  0  0  0  0  0  0  0
   36.2400   29.6740   30.4370 C   0  0  0  0  0  0  0  0  0  0  0  0
   35.3180   30.3550   31.1700 N   0  0  0  0  0  0  0  0  0  0  0  0
   34.8220   29.8780   32.3210 C   0  0  0  0  0  0  0  0  0  0  0  0
   35.2450   28.6950   32.7590 N   0  0  0  0  0  0  0  0  0  0  0  0
   32.6320   29.9100   33.2340 C   0  0  0  0  0  0  0  0  0  0  0  0
   32.3280   28.7660   32.8100 O   0  0  0  0  0  0  0  0  0  0  0  0
   33.8580   30.6180   33.0700 N   0  0  0  0  0  0  0  0  0  0  0  0
   37.4050   27.9510   30.2780 H   0  0  0  0  0  0  0  0  0  0  0  0
   36.6110   30.0900   29.5240 H   0  0  0  0  0  0  0  0  0  0  0  0
   31.7510   30.2540   33.7620 H   0  0  0  0  0  0  0  0  0  0  0  0
   33.9120   31.5660   33.5020 H   0  0  0  0  0  0  0  0  0  0  0  0
  1  2  2  0  0  0  0
  2  6  1  0  0  0  0
  3  7  1  6  0  0  0
  3 21  1  0  0  0  0
  3  2  1  0  0  0  0
  3  4  1  0  0  0  0
  4  5  1  0  0  0  0
  4  9  1  0  0  0  0
  5 10  1  0  0  0  0
  6  5  1  0  0  0  0
  6 12  1  0  0  0  0
  8  4  1  0  0  0  0
 11  5  1  0  0  0  0
 12 15  1  0  0  0  0
 13 12  1  0  0  0  0
 14 12  1  0  0  0  0
 15 16  1  0  0  0  0
 15 20  1  0  0  0  0
 16 17  1  0  0  0  0
 17 18  1  0  0  0  0
 19 18  1  0  0  0  0
 20 19  1  0  0  0  0
 22 21  1  0  0  0  0
 22 27  1  0  0  0  0
 23 22  2  0  0  0  0
 24 23  1  0  0  0  0
 24 25  2  0  0  0  0
 25 26  1  0  0  0  0
 26 27  2  0  0  0  0
 26 30  1  0  0  0  0
 28 33  1  0  0  0  0
 29 28  2  0  0  0  0
 30 28  1  0  0  0  0
 30 34  1  0  0  0  0
 31 23  1  0  0  0  0
 32 24  1  0  0  0  0
M  END
>  <minimizedAffinity>
-5.06879234

$$$$
