
     RDKit          3D

 46 48  0  0  0  0  0  0  0  0999 V2000
   36.0756   30.6897   49.0670 C   0  0  2  0  0  0  0  0  0  0  0  0
   37.0087   31.6458   49.7439 C   0  0  0  0  0  0  0  0  0  0  0  0
   38.0380   30.9543   50.6093 C   0  0  0  0  0  0  0  0  0  0  0  0
   37.3642   30.0627   51.6447 C   0  0  0  0  0  0  0  0  0  0  0  0
   36.1304   29.3635   51.1423 C   0  0  0  0  0  0  0  0  0  0  0  0
   36.1869   29.3053   49.6076 C   0  0  1  0  0  0  0  0  0  0  0  0
   36.3236   30.6507   47.5988 C   0  0  0  0  0  0  0  0  0  0  0  0
   37.5758   31.1143   47.1815 C   0  0  0  0  0  0  0  0  0  0  0  0
   37.8284   31.0792   45.8045 C   0  0  0  0  0  0  0  0  0  0  0  0
   36.8527   30.6005   44.9592 N   0  0  0  0  0  0  0  0  0  0  0  0
   35.6416   30.1575   45.4253 C   0  0  0  0  0  0  0  0  0  0  0  0
   35.3963   30.1907   46.7447 N   0  0  0  0  0  0  0  0  0  0  0  0
   33.9370   28.2032   49.2441 C   0  0  0  0  0  0  0  0  0  0  0  0
   33.1193   28.8742   49.9377 O   0  0  0  0  0  0  0  0  0  0  0  0
   35.3296   28.3454   49.0174 N   0  0  0  0  0  0  0  0  0  0  0  0
   34.9843   31.0018   49.1509 H   0  0  0  0  0  0  0  0  0  0  0  0
   36.3537   32.1910   50.5049 H   0  0  0  0  0  0  0  0  0  0  0  0
   37.4393   32.4287   49.1487 H   0  0  0  0  0  0  0  0  0  0  0  0
   38.5448   31.7500   51.2003 H   0  0  0  0  0  0  0  0  0  0  0  0
   38.7898   30.3942   50.0588 H   0  0  0  0  0  0  0  0  0  0  0  0
   37.0725   30.6481   52.5533 H   0  0  0  0  0  0  0  0  0  0  0  0
   38.1208   29.3292   51.9952 H   0  0  0  0  0  0  0  0  0  0  0  0
   35.1840   29.8523   51.3861 H   0  0  0  0  0  0  0  0  0  0  0  0
   36.1407   28.3126   51.4894 H   0  0  0  0  0  0  0  0  0  0  0  0
   37.1629   28.9123   49.4531 H   0  0  0  0  0  0  0  0  0  0  0  0
   38.4142   31.4983   47.7281 H   0  0  0  0  0  0  0  0  0  0  0  0
   38.7423   31.4035   45.3511 H   0  0  0  0  0  0  0  0  0  0  0  0
   34.9367   29.7997   44.6996 H   0  0  0  0  0  0  0  0  0  0  0  0
   35.6074   27.5900   48.3162 H   0  0  0  0  0  0  0  0  0  0  0  0
   33.0229   27.1657   48.6916 C   0  0  0  0  0  0  0  0  0  0  0  0
   33.8908   26.2765   47.8238 C   0  0  0  0  0  0  0  0  0  0  0  0
   33.0119   25.1774   47.2711 C   0  0  0  0  0  0  0  0  0  0  0  0
   31.5511   25.4745   47.5129 C   0  0  0  0  0  0  0  0  0  0  0  0
   31.2386   25.5811   48.9947 C   0  0  0  0  0  0  0  0  0  0  0  0
   32.3623   26.3192   49.7292 C   0  0  0  0  0  0  0  0  0  0  0  0
   32.2851   27.7037   48.0587 H   0  0  0  0  0  0  0  0  0  0  0  0
   34.2985   26.9033   47.0006 H   0  0  0  0  0  0  0  0  0  0  0  0
   34.6945   25.8480   48.4454 H   0  0  0  0  0  0  0  0  0  0  0  0
   33.2975   24.1720   47.6353 H   0  0  0  0  0  0  0  0  0  0  0  0
   33.1283   25.1729   46.1519 H   0  0  0  0  0  0  0  0  0  0  0  0
   31.2513   26.3562   46.9288 H   0  0  0  0  0  0  0  0  0  0  0  0
   30.9623   24.6229   47.1255 H   0  0  0  0  0  0  0  0  0  0  0  0
   30.2919   26.1613   49.0519 H   0  0  0  0  0  0  0  0  0  0  0  0
   31.0887   24.5713   49.3760 H   0  0  0  0  0  0  0  0  0  0  0  0
   31.9066   26.9341   50.5255 H   0  0  0  0  0  0  0  0  0  0  0  0
   33.0597   25.5660   50.1024 H   0  0  0  0  0  0  0  0  0  0  0  0
  1  6  1  0
  1  2  1  0
  2  3  1  0
  3  4  1  0
  5  4  1  0
  6  5  1  0
  7  1  1  0
  8  7  2  0
  9  8  1  0
 10 11  1  0
 10  9  2  0
 11 12  2  0
 12  7  1  0
 13 14  2  0
 15 13  1  0
 15  6  1  0
  1 16  1  6
  2 17  1  0
  2 18  1  0
  3 19  1  0
  3 20  1  0
  4 21  1  0
  4 22  1  0
  5 23  1  0
  5 24  1  0
  6 25  1  1
  8 26  1  0
  9 27  1  0
 11 28  1  0
 15 29  1  0
 30 31  1  0
 31 32  1  0
 32 33  1  0
 33 34  1  0
 34 35  1  0
 35 30  1  0
 30 36  1  0
 31 37  1  0
 31 38  1  0
 32 39  1  0
 32 40  1  0
 33 41  1  0
 33 42  1  0
 34 43  1  0
 34 44  1  0
 35 45  1  0
 35 46  1  0
 13 30  1  0
M  ISO  8  16  13  17  13  18  13  19  13  20  13  21  13  22  13  23  13
M  ISO  5  24  13  25  13  26  14  27  14  28  14
M  END
>  <DihAtoms>  (1) 
13,12,29,30

>  <DihDeg>  (1) 
-0.003013153678130469

$$$$
