
 OpenBabel03272506433D

 29 31  0  0  1  0  0  0  0  0999 V2000
   32.3720   28.3570   47.5740 C   0  0  2  0  0  0  0  0  0  0  0  0
   33.6560   28.3380   48.3770 C   0  0  1  0  0  0  0  0  0  0  0  0
   34.1880   27.0770   48.2770 O   0  0  0  0  0  0  0  0  0  0  0  0
   33.5000   26.3650   47.3210 C   0  0  0  0  0  0  0  0  0  0  0  0
   32.7370   27.3900   46.4830 C   0  0  1  0  0  0  0  0  0  0  0  0
   31.5110   27.9910   48.1690 H   0  0  0  0  0  0  0  0  0  0  0  0
   33.4420   28.6440   49.4180 H   0  0  0  0  0  0  0  0  0  0  0  0
   32.7890   25.6310   47.7410 H   0  0  0  0  0  0  0  0  0  0  0  0
   34.2590   25.9230   46.6430 H   0  0  0  0  0  0  0  0  0  0  0  0
   33.3730   27.8890   45.7380 H   0  0  0  0  0  0  0  0  0  0  0  0
   32.1180   29.6370   47.0590 O   0  0  0  0  0  0  0  0  0  0  0  0
   32.1270   30.2960   47.7970 H   0  0  0  0  0  0  0  0  0  0  0  0
   34.7950   29.4930   47.5530 S   0  0  0  0  0  0  0  0  0  0  0  0
   37.3910   29.4890   50.5360 C   0  0  0  0  0  0  0  0  0  0  0  0
   37.9970   30.7360   50.5080 C   0  0  0  0  0  0  0  0  0  0  0  0
   37.5820   31.6300   49.5120 C   0  0  0  0  0  0  0  0  0  0  0  0
   36.6150   31.2330   48.6310 N   0  0  0  0  0  0  0  0  0  0  0  0
   36.0530   30.0100   48.6980 C   0  0  0  0  0  0  0  0  0  0  0  0
   36.4380   29.1250   49.6540 N   0  0  0  0  0  0  0  0  0  0  0  0
   37.7210   28.8130   51.3080 H   0  0  0  0  0  0  0  0  0  0  0  0
   38.7580   31.0670   51.1900 H   0  0  0  0  0  0  0  0  0  0  0  0
   37.9730   32.6320   49.3790 H   0  0  0  0  0  0  0  0  0  0  0  0
   31.6330   26.8070   45.8770 O   0  0  0  0  0  0  0  0  0  0  0  0
   31.4730   27.1810   44.5540 C   0  0  0  0  0  3  0  0  0  0  0  0
   30.3530   28.1980   44.3990 C   0  0  0  0  0  2  0  0  0  0  0  0
   30.7250   29.3250   43.4760 C   0  0  0  0  0  2  0  0  0  0  0  0
   31.4290   28.8480   42.2300 C   0  0  0  0  0  2  0  0  0  0  0  0
   32.5370   27.8700   42.4900 C   0  0  0  0  0  2  0  0  0  0  0  0
   32.7340   27.8230   44.0100 C   0  0  0  0  0  2  0  0  0  0  0  0
  1  6  1  1  0  0  0
  1  2  1  0  0  0  0
  2  7  1  1  0  0  0
  3  2  1  0  0  0  0
  4  8  1  0  0  0  0
  4  3  1  0  0  0  0
  5 10  1  6  0  0  0
  5  4  1  0  0  0  0
  5  1  1  0  0  0  0
  9  4  1  0  0  0  0
 11  1  1  0  0  0  0
 11 12  1  0  0  0  0
 13  2  1  0  0  0  0
 13 18  1  0  0  0  0
 14 20  1  0  0  0  0
 15 14  1  0  0  0  0
 15 21  1  0  0  0  0
 16 15  2  0  0  0  0
 17 18  2  0  0  0  0
 17 16  1  0  0  0  0
 18 19  1  0  0  0  0
 19 14  2  0  0  0  0
 22 16  1  0  0  0  0
 23  5  1  0  0  0  0
 24 23  1  0  0  0  0
 25 24  1  0  0  0  0
 26 25  1  0  0  0  0
 27 28  1  0  0  0  0
 27 26  1  0  0  0  0
 28 29  1  0  0  0  0
 29 24  1  0  0  0  0
M  END
>  <minimizedAffinity>
-3.75534225

>  <minimizedRMSD>
0.938647091

$$$$
