REMARK  Name = 
REMARK  4 active torsions:
REMARK  status: ('A' for Active; 'I' for Inactive)
REMARK    1  A    between atoms: C_1  and  C_7
REMARK    2  A    between atoms: C_2  and  C_10
REMARK    3  A    between atoms: C_10  and  C_11
REMARK    4  A    between atoms: C_11  and  C_23
REMARK                            x       y       z     vdW  Elec       q    Type
REMARK                         _______ _______ _______ _____ _____    ______ ____
ROOT
ATOM      1  C   UNL     1      37.154  31.223  48.596  0.00  0.00    +0.000 A 
ATOM      2  C   UNL     1      38.069  32.257  48.395  0.00  0.00    +0.000 A 
ATOM      3  C   UNL     1      38.423  32.438  47.079  0.00  0.00    +0.000 A 
ATOM      4  N   UNL     1      37.918  31.669  46.093  0.00  0.00    +0.000 NA
ATOM      5  C   UNL     1      37.043  30.682  46.310  0.00  0.00    +0.000 A 
ATOM      6  N   UNL     1      36.663  30.461  47.562  0.00  0.00    +0.000 NA
ATOM      7  H   UNL     1      39.128  33.218  46.819  0.00  0.00    +0.000 HD
ATOM      8  H   UNL     1      36.587  30.020  45.601  0.00  0.00    +0.000 HD
ENDROOT
BRANCH   1   9
ATOM      9  C   UNL     1      36.638  31.043  50.017  0.00  0.00    +0.000 C 
ATOM     10  C   UNL     1      35.889  29.907  50.402  0.00  0.00    +0.000 C 
ATOM     11  C   UNL     1      37.384  29.817  50.657  0.00  0.00    +0.000 C 
ATOM     12  H   UNL     1      36.785  31.927  50.697  0.00  0.00    +0.000 HD
ATOM     13  H   UNL     1      35.442  29.255  49.600  0.00  0.00    +0.000 HD
ATOM     14  H   UNL     1      35.242  29.930  51.291  0.00  0.00    +0.000 HD
ATOM     15  H   UNL     1      37.709  29.903  51.695  0.00  0.00    +0.000 HD
ATOM     16  H   UNL     1      37.883  29.117  49.999  0.00  0.00    +0.000 HD
ENDBRANCH   1   9
BRANCH   2  17
ATOM     17  C   UNL     1      38.620  33.046  49.508  0.00  0.00    +0.000 C 
ATOM     18  H   UNL     1      37.817  33.514  50.122  0.00  0.00    +0.000 HD
ATOM     19  H   UNL     1      39.147  32.340  50.185  0.00  0.00    +0.000 HD
BRANCH  17  20
ATOM     20  C   UNL     1      39.553  34.129  49.139  0.00  0.00    +0.000 C 
ATOM     21  H   UNL     1      40.426  33.672  48.595  0.00  0.00    +0.000 HD
ATOM     22  H   UNL     1      39.062  34.816  48.398  0.00  0.00    +0.000 HD
BRANCH  20  23
ATOM     23  C   UNL     1      40.098  34.914  50.283  0.00  0.00    +0.000 C 
ATOM     24  C   UNL     1      39.493  34.331  51.559  0.00  0.00    +0.000 C 
ATOM     25  C   UNL     1      38.117  34.941  51.808  0.00  0.00    +0.000 C 
ATOM     26  C   UNL     1      38.370  36.368  52.243  0.00  0.00    +0.000 C 
ATOM     27  C   UNL     1      39.425  37.050  51.416  0.00  0.00    +0.000 C 
ATOM     28  C   UNL     1      39.687  36.358  50.100  0.00  0.00    +0.000 C 
ENDBRANCH  20  23
ENDBRANCH  17  20
ENDBRANCH   2  17
TORSDOF 4
