
 OpenBabel03272508573D

 37 40  0  0  1  0  0  0  0  0999 V2000
   38.3340   31.9160   44.4840 C   0  0  0  0  0  0  0  0  0  0  0  0
   37.2240   32.4500   44.3970 O   0  0  0  0  0  0  0  0  0  0  0  0
   38.9170   31.6520   45.7860 N   0  0  0  0  0  0  0  0  0  0  0  0
   39.8960   31.4020   45.9430 H   0  0  0  0  0  0  0  0  0  0  0  0
   39.1080   31.5250   43.2920 C   0  0  0  0  0  0  0  0  0  0  0  0
   40.1400   30.6300   43.4450 C   0  0  0  0  0  0  0  0  0  0  0  0
   40.8560   30.2790   42.3070 C   0  0  0  0  0  0  0  0  0  0  0  0
   40.4980   30.8380   41.1160 C   0  0  0  0  0  0  0  0  0  0  0  0
   39.4650   31.7360   40.9530 C   0  0  0  0  0  0  0  0  0  0  0  0
   38.7880   32.0560   42.0870 N   0  0  0  0  0  0  0  0  0  0  0  0
   40.4070   30.1950   44.4060 H   0  0  0  0  0  0  0  0  0  0  0  0
   41.6580   29.5780   42.4540 H   0  0  0  0  0  0  0  0  0  0  0  0
   41.1200   30.4880   40.3150 H   0  0  0  0  0  0  0  0  0  0  0  0
   39.0730   32.3140   39.6570 C   0  0  2  0  0  3  0  0  0  0  0  0
   38.9960   33.5980   39.6100 O   0  0  0  0  0  1  0  0  0  0  0  0
   38.7330   31.6840   38.3540 C   0  0  0  0  0  3  0  0  0  0  0  0
   38.0170   30.4150   38.5760 C   0  0  0  0  0  2  0  0  0  0  0  0
   37.0650   30.1740   37.3970 C   0  0  0  0  0  2  0  0  0  0  0  0
   35.9750   31.2270   37.5890 C   0  0  0  0  0  2  0  0  0  0  0  0
   36.5410   32.6140   37.4490 C   0  0  0  0  0  2  0  0  0  0  0  0
   38.0320   32.6620   37.4400 C   0  0  0  0  0  2  0  0  0  0  0  0
   38.4380   31.1020   48.1650 C   0  0  2  0  0  0  0  0  0  0  0  0
   38.6920   32.5650   48.1010 C   0  0  0  0  0  0  0  0  0  0  0  0
   38.0700   31.7480   46.9480 C   0  0  1  0  0  0  0  0  0  0  0  0
   39.3620   30.4950   48.2450 H   0  0  0  0  0  0  0  0  0  0  0  0
   39.7090   32.9260   47.9750 H   0  0  0  0  0  0  0  0  0  0  0  0
   38.0380   33.1970   48.7170 H   0  0  0  0  0  0  0  0  0  0  0  0
   37.0000   32.0270   46.7850 H   0  0  0  0  0  0  0  0  0  0  0  0
   35.0730   30.2290   49.4890 C   0  0  0  0  0  0  0  0  0  0  0  0
   35.4080   29.5400   50.7060 C   0  0  0  0  0  0  0  0  0  0  0  0
   36.8070   29.4040   51.0420 C   0  0  0  0  0  0  0  0  0  0  0  0
   37.7650   29.9250   50.2060 N   0  0  0  0  0  0  0  0  0  0  0  0
   37.3540   30.5640   49.0690 C   0  0  0  0  0  0  0  0  0  0  0  0
   36.0290   30.7340   48.6810 N   0  0  0  0  0  0  0  0  0  0  0  0
   34.0350   30.3160   49.2630 H   0  0  0  0  0  0  0  0  0  0  0  0
   34.6680   29.1360   51.3530 H   0  0  0  0  0  0  0  0  0  0  0  0
   37.0580   28.8940   51.9440 H   0  0  0  0  0  0  0  0  0  0  0  0
  1  3  1  0  0  0  0
  2  1  2  0  0  0  0
  3  4  1  0  0  0  0
  3 24  1  0  0  0  0
  5  6  1  0  0  0  0
  5  1  1  0  0  0  0
  6 11  1  0  0  0  0
  7 12  1  0  0  0  0
  7  6  2  0  0  0  0
  8  7  1  0  0  0  0
  9  8  2  0  0  0  0
  9 10  1  0  0  0  0
 10  5  2  0  0  0  0
 13  8  1  0  0  0  0
 14 15  1  1  0  0  0
 14  9  1  0  0  0  0
 16 17  1  0  0  0  0
 16 14  1  0  0  0  0
 18 19  1  0  0  0  0
 18 17  1  0  0  0  0
 20 19  1  0  0  0  0
 21 20  1  0  0  0  0
 21 16  1  0  0  0  0
 22 25  1  6  0  0  0
 22 33  1  0  0  0  0
 23 22  1  0  0  0  0
 23 27  1  0  0  0  0
 24 28  1  6  0  0  0
 24 23  1  0  0  0  0
 24 22  1  0  0  0  0
 26 23  1  0  0  0  0
 29 30  1  0  0  0  0
 30 31  2  0  0  0  0
 30 36  1  0  0  0  0
 31 37  1  0  0  0  0
 32 31  1  0  0  0  0
 33 32  2  0  0  0  0
 34 33  1  0  0  0  0
 34 29  2  0  0  0  0
 35 29  1  0  0  0  0
M  END
>  <minimizedAffinity>
-4.879848

>  <minimizedRMSD>
0.503425896

$$$$
