
 OpenBabel03272500543D

 29 31  0  0  0  0  0  0  0  0999 V2000
   36.9950   31.4470   42.8140 C   0  0  0  0  0  0  0  0  0  0  0  0
   37.3980   31.1540   41.5120 C   0  0  0  0  0  0  0  0  0  0  0  0
   38.6150   31.5750   41.0030 C   0  0  0  0  0  0  0  0  0  0  0  0
   39.4820   32.3330   41.8390 C   0  0  0  0  0  0  0  0  0  0  0  0
   39.0500   32.5990   43.1090 C   0  0  0  0  0  0  0  0  0  0  0  0
   37.8590   32.1860   43.6150 C   0  0  0  0  0  0  0  0  0  0  0  0
   36.7410   30.5730   40.8580 H   0  0  0  0  0  0  0  0  0  0  0  0
   38.8340   31.2870   39.9610 H   0  0  0  0  0  0  0  0  0  0  0  0
   40.3700   32.5730   41.2890 H   0  0  0  0  0  0  0  0  0  0  0  0
   39.8330   33.2070   43.5090 H   0  0  0  0  0  0  0  0  0  0  0  0
   35.5870   29.6900   43.7090 C   0  0  0  0  0  0  0  0  0  0  0  0
   35.6690   30.9870   43.1760 C   0  0  0  0  0  0  0  0  0  0  0  0
   34.4650   31.6920   43.0530 C   0  0  0  0  0  0  0  0  0  0  0  0
   33.3100   31.1260   43.4340 N   0  0  0  0  0  0  0  0  0  0  0  0
   33.2460   29.8900   43.9410 C   0  0  0  0  0  0  0  0  0  0  0  0
   34.3860   29.1850   44.0720 N   0  0  0  0  0  0  0  0  0  0  0  0
   36.4450   29.0300   43.8610 H   0  0  0  0  0  0  0  0  0  0  0  0
   34.5760   32.6850   42.6370 H   0  0  0  0  0  0  0  0  0  0  0  0
   32.3030   29.4740   44.2330 H   0  0  0  0  0  0  0  0  0  0  0  0
   38.0280   31.5140   45.8620 C   0  0  0  0  0  0  0  0  0  0  0  0
   38.7340   30.5510   45.3960 O   0  0  0  0  0  0  0  0  0  0  0  0
   37.4490   32.4390   44.9220 N   0  0  0  0  0  0  0  0  0  0  0  0
   36.8220   33.1860   45.1730 H   0  0  0  0  0  0  0  0  0  0  0  0
   37.7810   31.7190   47.3310 C   0  0  0  0  0  0  0  0  0  0  0  0
   38.8080   32.5590   48.0050 C   0  0  0  0  0  0  0  0  0  0  0  0
   38.0830   33.0560   49.2610 C   0  0  0  0  0  0  0  0  0  0  0  0
   37.4740   31.9580   50.0480 C   0  0  0  0  0  0  0  0  0  0  0  0
   37.5900   30.5810   49.5140 C   0  0  0  0  0  0  0  0  0  0  0  0
   37.7470   30.4090   48.0650 C   0  0  0  0  0  0  0  0  0  0  0  0
  1 12  1  0  0  0  0
  1  6  1  0  0  0  0
  2  1  2  0  0  0  0
  3  2  1  0  0  0  0
  3  4  2  0  0  0  0
  4  5  1  0  0  0  0
  5 10  1  0  0  0  0
  5  6  2  0  0  0  0
  6 22  1  0  0  0  0
  7  2  1  0  0  0  0
  8  3  1  0  0  0  0
  9  4  1  0  0  0  0
 11 17  1  0  0  0  0
 11 16  1  0  0  0  0
 12 11  2  0  0  0  0
 13 12  1  0  0  0  0
 13 14  2  0  0  0  0
 14 15  1  0  0  0  0
 15 16  2  0  0  0  0
 15 19  1  0  0  0  0
 18 13  1  0  0  0  0
 20 24  1  0  0  0  0
 21 20  2  0  0  0  0
 22 23  1  0  0  0  0
 22 20  1  0  0  0  0
 24 25  1  0  0  0  0
 24 29  1  0  0  0  0
 25 26  1  0  0  0  0
 26 27  1  0  0  0  0
 28 27  1  0  0  0  0
 29 28  1  0  0  0  0
M  END
>  <minimizedAffinity>
-5.22974253

>  <minimizedRMSD>
5.52047539

$$$$
