
 OpenBabel03272507303D

 26 28  0  0  0  0  0  0  0  0999 V2000
   35.8240   29.1300   49.8010 C   0  0  0  0  0  0  0  0  0  0  0  0
   34.8240   29.6440   50.5680 C   0  0  0  0  0  0  0  0  0  0  0  0
   33.6200   29.0930   50.1000 C   0  0  0  0  0  0  0  0  0  0  0  0
   33.9880   28.2530   49.0420 C   0  0  0  0  0  0  0  0  0  0  0  0
   35.2730   28.3250   48.9280 O   0  0  0  0  0  0  0  0  0  0  0  0
   34.8110   30.3410   51.4010 H   0  0  0  0  0  0  0  0  0  0  0  0
   32.6130   29.2630   50.4610 H   0  0  0  0  0  0  0  0  0  0  0  0
   37.2130   29.4760   49.9960 C   0  0  0  0  0  0  0  0  0  0  0  0
   37.8620   28.8460   50.8600 O   0  0  0  0  0  0  0  0  0  0  0  0
   37.7710   30.5300   49.1810 C   0  0  0  0  0  0  0  0  0  0  0  0
   38.1290   31.7090   49.8200 C   0  0  0  0  0  0  0  0  0  0  0  0
   38.6670   32.7340   49.0570 C   0  0  0  0  0  0  0  0  0  0  0  0
   38.8180   32.5380   47.7220 N   0  0  0  0  0  0  0  0  0  0  0  0
   38.4640   31.3870   47.1230 C   0  0  0  0  0  0  0  0  0  0  0  0
   37.9450   30.3920   47.8500 N   0  0  0  0  0  0  0  0  0  0  0  0
   38.0300   31.9170   50.8800 H   0  0  0  0  0  0  0  0  0  0  0  0
   38.9580   33.6710   49.5290 H   0  0  0  0  0  0  0  0  0  0  0  0
   38.5740   31.2040   46.0600 H   0  0  0  0  0  0  0  0  0  0  0  0
   33.0450   27.4600   48.2450 C   0  0  0  0  0  0  0  0  0  0  0  0
   33.4570   26.4400   47.6120 O   0  0  0  0  0  0  0  0  0  0  0  0
   31.6210   27.8910   48.2100 C   0  0  0  0  0  3  0  0  0  0  0  0
   30.7230   26.7420   48.5610 C   0  0  0  0  0  2  0  0  0  0  0  0
   29.2970   26.9370   48.1220 C   0  0  0  0  0  2  0  0  0  0  0  0
   29.1810   27.4310   46.7070 C   0  0  0  0  0  2  0  0  0  0  0  0
   29.8790   28.7880   46.6950 C   0  0  0  0  0  2  0  0  0  0  0  0
   31.3600   28.4890   46.8750 C   0  0  0  0  0  2  0  0  0  0  0  0
  1  8  1  0  0  0  0
  1  2  2  0  0  0  0
  2  6  1  0  0  0  0
  3  7  1  0  0  0  0
  3  2  1  0  0  0  0
  4  3  2  0  0  0  0
  5  4  1  0  0  0  0
  5  1  1  0  0  0  0
  8  9  2  0  0  0  0
 10 11  1  0  0  0  0
 10  8  1  0  0  0  0
 11 16  1  0  0  0  0
 12 17  1  0  0  0  0
 12 11  2  0  0  0  0
 13 12  1  0  0  0  0
 14 13  2  0  0  0  0
 14 15  1  0  0  0  0
 15 10  2  0  0  0  0
 18 14  1  0  0  0  0
 19  4  1  0  0  0  0
 20 19  2  0  0  0  0
 21 19  1  0  0  0  0
 21 22  1  0  0  0  0
 23 22  1  0  0  0  0
 24 23  1  0  0  0  0
 25 24  1  0  0  0  0
 25 26  1  0  0  0  0
 26 21  1  0  0  0  0
M  END
>  <minimizedAffinity>
-5.42728519

>  <minimizedRMSD>
3.2043829

$$$$
