REMARK  Name = 
REMARK  4 active torsions:
REMARK  status: ('A' for Active; 'I' for Inactive)
REMARK    1  A    between atoms: O_1  and  C_2
REMARK    2  A    between atoms: O_1  and  C_13
REMARK    3  A    between atoms: N_16  and  C_17
REMARK    4  A    between atoms: C_17  and  C_29
REMARK                            x       y       z     vdW  Elec       q    Type
REMARK                         _______ _______ _______ _____ _____    ______ ____
ROOT
ATOM      1  O   UNL     1      35.478  28.682  50.056  0.00  0.00    +0.000 OA
ATOM      2  C   UNL     1      35.259  29.051  48.895  0.00  0.00    +0.000 C 
ATOM      3  C   UNL     1      35.922  30.205  48.326  0.00  0.00    +0.000 C 
ATOM      4  C   UNL     1      35.469  30.102  46.829  0.00  0.00    +0.000 C 
ATOM      5  C   UNL     1      34.141  29.401  46.944  0.00  0.00    +0.000 C 
ATOM      6  N   UNL     1      34.351  28.406  47.988  0.00  0.00    +0.000 N 
ATOM      7  H   UNL     1      35.551  31.178  48.694  0.00  0.00    +0.000 HD
ATOM      8  H   UNL     1      35.422  31.093  46.372  0.00  0.00    +0.000 HD
ATOM      9  H   UNL     1      36.167  29.409  46.345  0.00  0.00    +0.000 HD
ATOM     10  H   UNL     1      33.831  28.938  45.993  0.00  0.00    +0.000 HD
ATOM     11  H   UNL     1      33.381  30.102  47.342  0.00  0.00    +0.000 HD
ENDROOT
BRANCH   6  12
ATOM     12  C   UNL     1      33.763  27.075  48.061  0.00  0.00    +0.000 C 
ATOM     13  H   UNL     1      34.462  26.347  48.523  0.00  0.00    +0.000 HD
ATOM     14  H   UNL     1      33.546  26.767  47.028  0.00  0.00    +0.000 HD
BRANCH  12  15
ATOM     15  C   UNL     1      32.461  27.104  48.801  0.00  0.00    +0.000 C 
ATOM     16  C   UNL     1      32.300  25.737  49.478  0.00  0.00    +0.000 C 
ATOM     17  C   UNL     1      30.938  25.546  50.062  0.00  0.00    +0.000 C 
ATOM     18  C   UNL     1      30.286  26.889  50.262  0.00  0.00    +0.000 C 
ATOM     19  C   UNL     1      31.295  27.851  50.871  0.00  0.00    +0.000 C 
ATOM     20  C   UNL     1      32.434  28.125  49.921  0.00  0.00    +0.000 C 
ENDBRANCH  12  15
ENDBRANCH   6  12
BRANCH   3  21
ATOM     21  O   UNL     1      37.344  30.114  48.294  0.00  0.00    +0.000 OA
BRANCH  21  22
ATOM     22  C   UNL     1      38.065  31.305  48.221  0.00  0.00    +0.000 A 
ATOM     23  C   UNL     1      38.217  32.013  49.400  0.00  0.00    +0.000 A 
ATOM     24  C   UNL     1      38.929  33.203  49.361  0.00  0.00    +0.000 A 
ATOM     25  N   UNL     1      39.444  33.620  48.173  0.00  0.00    +0.000 NA
ATOM     26  C   UNL     1      39.287  32.923  47.038  0.00  0.00    +0.000 A 
ATOM     27  N   UNL     1      38.604  31.781  47.078  0.00  0.00    +0.000 NA
ATOM     28  C   UNL     1      40.768  32.469  45.240  0.00  0.00    +0.000 C 
ATOM     29  O   UNL     1      41.136  31.354  45.691  0.00  0.00    +0.000 OA
ATOM     30  N   UNL     1      39.836  33.388  45.806  0.00  0.00    +0.000 N 
ATOM     31  H   UNL     1      37.836  31.735  50.361  0.00  0.00    +0.000 HD
ATOM     32  H   UNL     1      39.077  33.789  50.243  0.00  0.00    +0.000 HD
ATOM     33  H   UNL     1      41.316  32.590  44.314  0.00  0.00    +0.000 HD
ATOM     34  H   UNL     1      39.665  34.268  45.272  0.00  0.00    +0.000 HD
ENDBRANCH  21  22
ENDBRANCH   3  21
TORSDOF 4
