REMARK  Name = 
REMARK  3 active torsions:
REMARK  status: ('A' for Active; 'I' for Inactive)
REMARK    1  A    between atoms: C_1  and  C_7
REMARK    2  A    between atoms: C_3  and  C_12
REMARK    3  A    between atoms: N_10  and  C_20
REMARK                            x       y       z     vdW  Elec       q    Type
REMARK                         _______ _______ _______ _____ _____    ______ ____
ROOT
ATOM      1  C   UNL     1      39.093  31.104  45.908  0.00  0.00    +0.000 A 
ATOM      2  C   UNL     1      39.906  32.216  45.902  0.00  0.00    +0.000 A 
ATOM      3  C   UNL     1      40.934  32.039  44.956  0.00  0.00    +0.000 A 
ATOM      4  N   UNL     1      40.687  30.798  44.423  0.00  0.00    +0.000 N 
ATOM      5  N   UNL     1      39.615  30.265  44.983  0.00  0.00    +0.000 NA
ATOM      6  H   UNL     1      39.818  33.105  46.501  0.00  0.00    +0.000 HD
ATOM      7  H   UNL     1      41.741  32.723  44.702  0.00  0.00    +0.000 HD
ENDROOT
BRANCH   1   8
ATOM      8  C   UNL     1      37.920  30.874  46.731  0.00  0.00    +0.000 A 
ATOM      9  C   UNL     1      38.053  31.030  48.138  0.00  0.00    +0.000 A 
ATOM     10  C   UNL     1      36.934  30.811  48.928  0.00  0.00    +0.000 A 
ATOM     11  N   UNL     1      35.774  30.459  48.315  0.00  0.00    +0.000 NA
ATOM     12  C   UNL     1      35.666  30.315  46.983  0.00  0.00    +0.000 A 
ATOM     13  N   UNL     1      36.756  30.528  46.203  0.00  0.00    +0.000 NA
ATOM     14  H   UNL     1      39.019  31.316  48.564  0.00  0.00    +0.000 HD
ATOM     15  H   UNL     1      34.729  30.035  46.529  0.00  0.00    +0.000 HD
BRANCH  10  16
ATOM     16  C   UNL     1      37.056  30.971  50.406  0.00  0.00    +0.000 C 
ATOM     17  F   UNL     1      36.550  32.236  50.678  0.00  0.00    +0.000 F 
ATOM     18  F   UNL     1      36.305  30.058  51.105  0.00  0.00    +0.000 F 
ATOM     19  F   UNL     1      38.375  30.950  50.829  0.00  0.00    +0.000 F 
ENDBRANCH  10  16
ENDBRANCH   1   8
BRANCH   4  20
ATOM     20  C   UNL     1      41.529  30.244  43.405  0.00  0.00    +0.000 C 
ATOM     21  C   UNL     1      42.133  31.321  42.566  0.00  0.00    +0.000 C 
ATOM     22  C   UNL     1      42.591  30.836  41.214  0.00  0.00    +0.000 C 
ATOM     23  C   UNL     1      42.871  29.371  41.137  0.00  0.00    +0.000 C 
ATOM     24  C   UNL     1      41.805  28.493  41.737  0.00  0.00    +0.000 C 
ATOM     25  C   UNL     1      40.759  29.312  42.471  0.00  0.00    +0.000 C 
ENDBRANCH   4  20
TORSDOF 3
