
 OpenBabel03272509413D

 32 34  0  0  1  0  0  0  0  0999 V2000
   36.5090   28.7260   32.5380 C   0  0  0  0  0  0  0  0  0  0  0  0
   36.0490   29.8220   31.8060 C   0  0  0  0  0  0  0  0  0  0  0  0
   35.3940   30.8830   32.4220 C   0  0  0  0  0  0  0  0  0  0  0  0
   35.1810   30.8660   33.7990 C   0  0  0  0  0  0  0  0  0  0  0  0
   35.6400   29.7780   34.4950 C   0  0  0  0  0  0  0  0  0  0  0  0
   36.2890   28.7340   33.8670 C   0  0  0  0  0  0  0  0  0  0  0  0
   36.2020   29.8580   30.7430 H   0  0  0  0  0  0  0  0  0  0  0  0
   35.0640   31.7030   31.7950 H   0  0  0  0  0  0  0  0  0  0  0  0
   34.6700   31.7070   34.2290 H   0  0  0  0  0  0  0  0  0  0  0  0
   35.4340   29.8440   35.5590 H   0  0  0  0  0  0  0  0  0  0  0  0
   37.1850   27.6610   31.8170 C   0  0  2  0  0  3  0  0  0  0  0  0
   38.2910   28.0050   31.2570 O   0  0  0  0  0  1  0  0  0  0  0  0
   34.9470   24.9590   30.8930 C   0  0  0  0  0  0  0  0  0  0  0  0
   35.5900   23.8140   31.3620 C   0  0  0  0  0  0  0  0  0  0  0  0
   36.8060   23.9640   32.0040 C   0  0  0  0  0  0  0  0  0  0  0  0
   37.3280   25.2140   32.1550 N   0  0  0  0  0  0  0  0  0  0  0  0
   36.6970   26.2880   31.7000 C   0  0  0  0  0  0  0  0  0  0  0  0
   35.5140   26.1390   31.0770 N   0  0  0  0  0  0  0  0  0  0  0  0
   34.0010   24.8390   30.3940 H   0  0  0  0  0  0  0  0  0  0  0  0
   35.1760   22.8120   31.2440 H   0  0  0  0  0  0  0  0  0  0  0  0
   37.3440   23.1080   32.3860 H   0  0  0  0  0  0  0  0  0  0  0  0
   36.7040   27.6710   34.7520 C   0  0  0  0  0  3  0  0  0  0  0  0
   37.8420   27.5530   35.3990 C   0  0  0  0  0  3  0  0  0  0  0  0
   38.3820   26.5620   36.3200 C   0  0  0  0  0  0  0  0  0  0  0  0
   39.4530   26.7380   36.5540 H   0  0  0  0  0  0  0  0  0  0  0  0
   37.8570   26.6840   37.3120 H   0  0  0  0  0  0  0  0  0  0  0  0
   38.1170   25.1180   35.9450 C   0  0  0  0  0  3  0  0  0  0  0  0
   39.3250   24.6520   35.1610 C   0  0  0  0  0  2  0  0  0  0  0  0
   39.3080   23.1610   34.9220 C   0  0  0  0  0  2  0  0  0  0  0  0
   38.9710   22.3970   36.1870 C   0  0  0  0  0  2  0  0  0  0  0  0
   39.1260   23.3650   37.3660 C   0  0  0  0  0  2  0  0  0  0  0  0
   37.9600   24.3480   37.2380 C   0  0  0  0  0  2  0  0  0  0  0  0
  1  6  1  0  0  0  0
  2  3  1  0  0  0  0
  2  1  2  0  0  0  0
  3  4  2  0  0  0  0
  4  9  1  0  0  0  0
  4  5  1  0  0  0  0
  5 10  1  0  0  0  0
  6  5  2  0  0  0  0
  6 22  1  0  0  0  0
  7  2  1  0  0  0  0
  8  3  1  0  0  0  0
 11 12  1  6  0  0  0
 11  1  1  0  0  0  0
 13 18  2  0  0  0  0
 13 14  1  0  0  0  0
 14 15  2  0  0  0  0
 15 16  1  0  0  0  0
 15 21  1  0  0  0  0
 17 11  1  0  0  0  0
 17 16  2  0  0  0  0
 18 17  1  0  0  0  0
 19 13  1  0  0  0  0
 20 14  1  0  0  0  0
 22 23  2  0  0  0  0
 23 24  1  0  0  0  0
 24 25  1  0  0  0  0
 24 26  1  0  0  0  0
 27 24  1  0  0  0  0
 27 32  1  0  0  0  0
 28 27  1  0  0  0  0
 29 28  1  0  0  0  0
 29 30  1  0  0  0  0
 30 31  1  0  0  0  0
 32 31  1  0  0  0  0
M  END
>  <minimizedAffinity>
-6.0038147

$$$$

 OpenBabel03272509413D

 32 34  0  0  1  0  0  0  0  0999 V2000
   37.2660   21.8350   33.4450 C   0  0  0  0  0  0  0  0  0  0  0  0
   36.5800   20.6530   33.7240 C   0  0  0  0  0  0  0  0  0  0  0  0
   35.4000   20.3250   33.0650 C   0  0  0  0  0  0  0  0  0  0  0  0
   34.8770   21.1860   32.1020 C   0  0  0  0  0  0  0  0  0  0  0  0
   35.5690   22.3420   31.8480 C   0  0  0  0  0  0  0  0  0  0  0  0
   36.7380   22.6510   32.5110 C   0  0  0  0  0  0  0  0  0  0  0  0
   36.9640   19.9720   34.4620 H   0  0  0  0  0  0  0  0  0  0  0  0
   34.9180   19.3910   33.3290 H   0  0  0  0  0  0  0  0  0  0  0  0
   33.9630   20.8910   31.6210 H   0  0  0  0  0  0  0  0  0  0  0  0
   35.0940   22.9550   31.0870 H   0  0  0  0  0  0  0  0  0  0  0  0
   38.4920   22.1010   34.1790 C   0  0  2  0  0  3  0  0  0  0  0  0
   39.5750   21.8200   33.5420 O   0  0  0  0  0  1  0  0  0  0  0  0
   39.8070   22.6620   37.5120 C   0  0  0  0  0  0  0  0  0  0  0  0
   38.8850   23.5310   38.0970 C   0  0  0  0  0  0  0  0  0  0  0  0
   37.7970   23.9310   37.3420 C   0  0  0  0  0  0  0  0  0  0  0  0
   37.6650   23.4680   36.0680 N   0  0  0  0  0  0  0  0  0  0  0  0
   38.5560   22.6420   35.5340 C   0  0  0  0  0  0  0  0  0  0  0  0
   39.6120   22.2540   36.2700 N   0  0  0  0  0  0  0  0  0  0  0  0
   40.6530   22.3520   38.1010 H   0  0  0  0  0  0  0  0  0  0  0  0
   38.9870   23.9040   39.1160 H   0  0  0  0  0  0  0  0  0  0  0  0
   37.0550   24.6030   37.7490 H   0  0  0  0  0  0  0  0  0  0  0  0
   37.3330   23.9070   32.1190 C   0  0  0  0  0  3  0  0  0  0  0  0
   36.8340   25.1150   32.2500 C   0  0  0  0  0  3  0  0  0  0  0  0
   37.3180   26.4500   31.9200 C   0  0  0  0  0  0  0  0  0  0  0  0
   37.9680   26.4550   31.0210 H   0  0  0  0  0  0  0  0  0  0  0  0
   36.4290   27.0810   31.6260 H   0  0  0  0  0  0  0  0  0  0  0  0
   37.9400   27.2130   33.0710 C   0  0  0  0  0  3  0  0  0  0  0  0
   37.1990   26.7840   34.3190 C   0  0  0  0  0  2  0  0  0  0  0  0
   37.8660   27.2860   35.5780 C   0  0  0  0  0  2  0  0  0  0  0  0
   39.3630   27.0490   35.5490 C   0  0  0  0  0  2  0  0  0  0  0  0
   39.6510   26.0480   34.4230 C   0  0  0  0  0  2  0  0  0  0  0  0
   39.3990   26.8190   33.1240 C   0  0  0  0  0  2  0  0  0  0  0  0
  1  2  1  0  0  0  0
  1 11  1  0  0  0  0
  2  7  1  0  0  0  0
  3  8  1  0  0  0  0
  3  2  2  0  0  0  0
  4  3  1  0  0  0  0
  5  4  2  0  0  0  0
  5  6  1  0  0  0  0
  6  1  2  0  0  0  0
  9  4  1  0  0  0  0
 10  5  1  0  0  0  0
 11 12  1  1  0  0  0
 11 17  1  0  0  0  0
 13 14  1  0  0  0  0
 13 19  1  0  0  0  0
 14 20  1  0  0  0  0
 15 21  1  0  0  0  0
 15 14  2  0  0  0  0
 16 15  1  0  0  0  0
 17 16  2  0  0  0  0
 17 18  1  0  0  0  0
 18 13  2  0  0  0  0
 22 23  2  0  0  0  0
 22  6  1  0  0  0  0
 24 23  1  0  0  0  0
 24 27  1  0  0  0  0
 25 24  1  0  0  0  0
 26 24  1  0  0  0  0
 27 32  1  0  0  0  0
 27 28  1  0  0  0  0
 28 29  1  0  0  0  0
 30 29  1  0  0  0  0
 31 30  1  0  0  0  0
 32 31  1  0  0  0  0
M  END
>  <minimizedAffinity>
-5.78608227

$$$$

 OpenBabel03272509413D

 32 34  0  0  1  0  0  0  0  0999 V2000
   38.8250   26.2240   33.9520 C   0  0  0  0  0  0  0  0  0  0  0  0
   40.0050   26.9580   34.0900 C   0  0  0  0  0  0  0  0  0  0  0  0
   40.7670   27.3220   32.9860 C   0  0  0  0  0  0  0  0  0  0  0  0
   40.3590   26.9540   31.7050 C   0  0  0  0  0  0  0  0  0  0  0  0
   39.1980   26.2320   31.5960 C   0  0  0  0  0  0  0  0  0  0  0  0
   38.4550   25.8790   32.7030 C   0  0  0  0  0  0  0  0  0  0  0  0
   40.3390   27.2540   35.0680 H   0  0  0  0  0  0  0  0  0  0  0  0
   41.6700   27.8930   33.1630 H   0  0  0  0  0  0  0  0  0  0  0  0
   40.9800   27.2580   30.8830 H   0  0  0  0  0  0  0  0  0  0  0  0
   38.9530   25.9860   30.5670 H   0  0  0  0  0  0  0  0  0  0  0  0
   38.0890   25.8850   35.1580 C   0  0  2  0  0  3  0  0  0  0  0  0
   37.0070   26.5590   35.3380 O   0  0  0  0  0  1  0  0  0  0  0  0
   38.1400   24.0780   38.3020 C   0  0  0  0  0  0  0  0  0  0  0  0
   39.0860   23.0730   38.0990 C   0  0  0  0  0  0  0  0  0  0  0  0
   39.7170   23.0110   36.8690 C   0  0  0  0  0  0  0  0  0  0  0  0
   39.3960   23.9240   35.9100 N   0  0  0  0  0  0  0  0  0  0  0  0
   38.4930   24.8700   36.1290 C   0  0  0  0  0  0  0  0  0  0  0  0
   37.8810   24.9290   37.3250 N   0  0  0  0  0  0  0  0  0  0  0  0
   37.6510   24.1240   39.2600 H   0  0  0  0  0  0  0  0  0  0  0  0
   39.3460   22.3400   38.8630 H   0  0  0  0  0  0  0  0  0  0  0  0
   40.4580   22.2510   36.6610 H   0  0  0  0  0  0  0  0  0  0  0  0
   37.2630   25.1200   32.4050 C   0  0  0  0  0  3  0  0  0  0  0  0
   37.1760   23.8590   32.0420 C   0  0  0  0  0  3  0  0  0  0  0  0
   36.0630   22.9730   31.7290 C   0  0  0  0  0  0  0  0  0  0  0  0
   35.0880   23.3790   32.0700 H   0  0  0  0  0  0  0  0  0  0  0  0
   35.9640   22.9190   30.6060 H   0  0  0  0  0  0  0  0  0  0  0  0
   36.2490   21.5290   32.1480 C   0  0  0  0  0  3  0  0  0  0  0  0
   34.8810   20.8860   32.0830 C   0  0  0  0  0  2  0  0  0  0  0  0
   34.9490   19.3850   32.2460 C   0  0  0  0  0  2  0  0  0  0  0  0
   36.0370   18.7790   31.3830 C   0  0  0  0  0  2  0  0  0  0  0  0
   36.4560   19.8380   30.3560 C   0  0  0  0  0  2  0  0  0  0  0  0
   37.2080   20.9030   31.1580 C   0  0  0  0  0  2  0  0  0  0  0  0
  1  2  1  0  0  0  0
  1 11  1  0  0  0  0
  2  7  1  0  0  0  0
  3  8  1  0  0  0  0
  3  2  2  0  0  0  0
  4  3  1  0  0  0  0
  5  4  2  0  0  0  0
  5  6  1  0  0  0  0
  6  1  2  0  0  0  0
  9  4  1  0  0  0  0
 10  5  1  0  0  0  0
 11 12  1  1  0  0  0
 11 17  1  0  0  0  0
 13 19  1  0  0  0  0
 14 13  1  0  0  0  0
 14 20  1  0  0  0  0
 15 14  2  0  0  0  0
 16 17  2  0  0  0  0
 16 15  1  0  0  0  0
 17 18  1  0  0  0  0
 18 13  2  0  0  0  0
 21 15  1  0  0  0  0
 22  6  1  0  0  0  0
 23 22  2  0  0  0  0
 24 23  1  0  0  0  0
 24 25  1  0  0  0  0
 24 27  1  0  0  0  0
 26 24  1  0  0  0  0
 28 27  1  0  0  0  0
 28 29  1  0  0  0  0
 30 29  1  0  0  0  0
 31 32  1  0  0  0  0
 31 30  1  0  0  0  0
 32 27  1  0  0  0  0
M  END
>  <minimizedAffinity>
-5.68389797

$$$$

 OpenBabel03272509413D

 32 34  0  0  1  0  0  0  0  0999 V2000
   38.2160   24.9050   35.1820 C   0  0  0  0  0  0  0  0  0  0  0  0
   38.0430   26.0410   35.9750 C   0  0  0  0  0  0  0  0  0  0  0  0
   37.6740   27.2620   35.4230 C   0  0  0  0  0  0  0  0  0  0  0  0
   37.4680   27.3720   34.0490 C   0  0  0  0  0  0  0  0  0  0  0  0
   37.6450   26.2430   33.2920 C   0  0  0  0  0  0  0  0  0  0  0  0
   38.0130   25.0390   33.8570 C   0  0  0  0  0  0  0  0  0  0  0  0
   38.1960   25.9800   37.0370 H   0  0  0  0  0  0  0  0  0  0  0  0
   37.5550   28.1040   36.0950 H   0  0  0  0  0  0  0  0  0  0  0  0
   37.1840   28.3360   33.6680 H   0  0  0  0  0  0  0  0  0  0  0  0
   37.4660   26.4150   32.2350 H   0  0  0  0  0  0  0  0  0  0  0  0
   38.6030   23.6680   35.8390 C   0  0  2  0  0  3  0  0  0  0  0  0
   37.6210   22.9270   36.2180 O   0  0  0  0  0  1  0  0  0  0  0  0
   41.3150   21.6820   37.2040 C   0  0  0  0  0  0  0  0  0  0  0  0
   42.4640   22.2710   36.6740 C   0  0  0  0  0  0  0  0  0  0  0  0
   42.3110   23.3630   35.8380 C   0  0  0  0  0  0  0  0  0  0  0  0
   41.0570   23.8210   35.5650 N   0  0  0  0  0  0  0  0  0  0  0  0
   39.9800   23.2440   36.0810 C   0  0  0  0  0  0  0  0  0  0  0  0
   40.1320   22.1830   36.8940 N   0  0  0  0  0  0  0  0  0  0  0  0
   41.4360   20.8330   37.8530 H   0  0  0  0  0  0  0  0  0  0  0  0
   43.4690   21.9080   36.8900 H   0  0  0  0  0  0  0  0  0  0  0  0
   43.1700   23.8550   35.4030 H   0  0  0  0  0  0  0  0  0  0  0  0
   38.1560   23.9560   32.9130 C   0  0  0  0  0  3  0  0  0  0  0  0
   37.2690   23.5110   32.0500 C   0  0  0  0  0  3  0  0  0  0  0  0
   37.2790   22.4570   31.0440 C   0  0  0  0  0  0  0  0  0  0  0  0
   37.3540   22.8570   30.0120 H   0  0  0  0  0  0  0  0  0  0  0  0
   38.2240   21.8540   31.1790 H   0  0  0  0  0  0  0  0  0  0  0  0
   36.1730   21.4300   31.1730 C   0  0  0  0  0  3  0  0  0  0  0  0
   36.8410   20.0730   31.1120 C   0  0  0  0  0  2  0  0  0  0  0  0
   35.8890   18.9540   31.4640 C   0  0  0  0  0  2  0  0  0  0  0  0
   35.0900   19.2730   32.7110 C   0  0  0  0  0  2  0  0  0  0  0  0
   35.7740   20.4550   33.4090 C   0  0  0  0  0  2  0  0  0  0  0  0
   35.5070   21.6650   32.5110 C   0  0  0  0  0  2  0  0  0  0  0  0
  1 11  1  0  0  0  0
  1  2  1  0  0  0  0
  2  7  1  0  0  0  0
  3  2  2  0  0  0  0
  3  8  1  0  0  0  0
  4  3  1  0  0  0  0
  5  6  1  0  0  0  0
  5  4  2  0  0  0  0
  6  1  2  0  0  0  0
  9  4  1  0  0  0  0
 10  5  1  0  0  0  0
 11 17  1  0  0  0  0
 11 12  1  1  0  0  0
 13 19  1  0  0  0  0
 14 20  1  0  0  0  0
 14 13  2  0  0  0  0
 15 14  1  0  0  0  0
 16 15  2  0  0  0  0
 16 17  1  0  0  0  0
 17 18  2  0  0  0  0
 18 13  1  0  0  0  0
 21 15  1  0  0  0  0
 22  6  1  0  0  0  0
 23 22  2  0  0  0  0
 24 27  1  0  0  0  0
 24 26  1  0  0  0  0
 24 23  1  0  0  0  0
 25 24  1  0  0  0  0
 27 32  1  0  0  0  0
 28 27  1  0  0  0  0
 28 29  1  0  0  0  0
 29 30  1  0  0  0  0
 30 31  1  0  0  0  0
 32 31  1  0  0  0  0
M  END
>  <minimizedAffinity>
-5.66148949

$$$$

 OpenBabel03272509413D

 32 34  0  0  1  0  0  0  0  0999 V2000
   37.7780   26.8230   33.2140 C   0  0  0  0  0  0  0  0  0  0  0  0
   38.9770   26.2320   33.6150 C   0  0  0  0  0  0  0  0  0  0  0  0
   39.5010   26.4410   34.8850 C   0  0  0  0  0  0  0  0  0  0  0  0
   38.8270   27.2570   35.7920 C   0  0  0  0  0  0  0  0  0  0  0  0
   37.6530   27.8280   35.3740 C   0  0  0  0  0  0  0  0  0  0  0  0
   37.1480   27.6090   34.1090 C   0  0  0  0  0  0  0  0  0  0  0  0
   39.5140   25.5970   32.9330 H   0  0  0  0  0  0  0  0  0  0  0  0
   40.4350   25.9500   35.1320 H   0  0  0  0  0  0  0  0  0  0  0  0
   39.2710   27.3890   36.7610 H   0  0  0  0  0  0  0  0  0  0  0  0
   37.1930   28.4480   36.1390 H   0  0  0  0  0  0  0  0  0  0  0  0
   37.3000   26.5520   31.8690 C   0  0  2  0  0  3  0  0  0  0  0  0
   36.5170   25.5360   31.7680 O   0  0  0  0  0  1  0  0  0  0  0  0
   39.2510   27.6220   29.0050 C   0  0  0  0  0  0  0  0  0  0  0  0
   38.4970   28.6570   28.4510 C   0  0  0  0  0  0  0  0  0  0  0  0
   37.3040   28.9960   29.0640 C   0  0  0  0  0  0  0  0  0  0  0  0
   36.9110   28.3140   30.1770 N   0  0  0  0  0  0  0  0  0  0  0  0
   37.6470   27.3340   30.6840 C   0  0  0  0  0  0  0  0  0  0  0  0
   38.8060   27.0070   30.0860 N   0  0  0  0  0  0  0  0  0  0  0  0
   40.1780   27.3610   28.5250 H   0  0  0  0  0  0  0  0  0  0  0  0
   38.8070   29.2050   27.5600 H   0  0  0  0  0  0  0  0  0  0  0  0
   36.6830   29.7900   28.6740 H   0  0  0  0  0  0  0  0  0  0  0  0
   35.9020   28.2890   33.8390 C   0  0  0  0  0  3  0  0  0  0  0  0
   35.7110   29.5700   33.6160 C   0  0  0  0  0  3  0  0  0  0  0  0
   34.5360   30.3790   33.3190 C   0  0  0  0  0  0  0  0  0  0  0  0
   34.5500   30.7850   32.2860 H   0  0  0  0  0  0  0  0  0  0  0  0
   33.6320   29.7030   33.3410 H   0  0  0  0  0  0  0  0  0  0  0  0
   34.2130   31.4490   34.3410 C   0  0  0  0  0  3  0  0  0  0  0  0
   33.6030   30.7350   35.5280 C   0  0  0  0  0  2  0  0  0  0  0  0
   33.4470   31.6480   36.7230 C   0  0  0  0  0  2  0  0  0  0  0  0
   34.7040   32.4550   36.9760 C   0  0  0  0  0  2  0  0  0  0  0  0
   35.8380   31.8090   36.1700 C   0  0  0  0  0  2  0  0  0  0  0  0
   35.5190   32.1200   34.7050 C   0  0  0  0  0  2  0  0  0  0  0  0
  1  2  2  0  0  0  0
  1  6  1  0  0  0  0
  2  3  1  0  0  0  0
  3  8  1  0  0  0  0
  3  4  2  0  0  0  0
  4  9  1  0  0  0  0
  5  4  1  0  0  0  0
  5 10  1  0  0  0  0
  6  5  2  0  0  0  0
  7  2  1  0  0  0  0
 11 12  1  6  0  0  0
 11  1  1  0  0  0  0
 13 18  1  0  0  0  0
 14 13  2  0  0  0  0
 14 15  1  0  0  0  0
 15 16  2  0  0  0  0
 16 17  1  0  0  0  0
 17 11  1  0  0  0  0
 18 17  2  0  0  0  0
 19 13  1  0  0  0  0
 20 14  1  0  0  0  0
 21 15  1  0  0  0  0
 22  6  1  0  0  0  0
 23 22  2  0  0  0  0
 24 26  1  0  0  0  0
 24 23  1  0  0  0  0
 24 27  1  0  0  0  0
 25 24  1  0  0  0  0
 27 32  1  0  0  0  0
 27 28  1  0  0  0  0
 28 29  1  0  0  0  0
 29 30  1  0  0  0  0
 31 30  1  0  0  0  0
 32 31  1  0  0  0  0
M  END
>  <minimizedAffinity>
-5.57610655

$$$$

 OpenBabel03272509413D

 32 34  0  0  1  0  0  0  0  0999 V2000
   38.3200   25.1550   35.5550 C   0  0  0  0  0  0  0  0  0  0  0  0
   38.2240   25.3820   36.9280 C   0  0  0  0  0  0  0  0  0  0  0  0
   37.9720   24.3460   37.8200 C   0  0  0  0  0  0  0  0  0  0  0  0
   37.8100   23.0440   37.3490 C   0  0  0  0  0  0  0  0  0  0  0  0
   37.9070   22.8470   35.9960 C   0  0  0  0  0  0  0  0  0  0  0  0
   38.1580   23.8880   35.1260 C   0  0  0  0  0  0  0  0  0  0  0  0
   38.3460   26.3780   37.3150 H   0  0  0  0  0  0  0  0  0  0  0  0
   37.9110   24.5920   38.8740 H   0  0  0  0  0  0  0  0  0  0  0  0
   37.6160   22.2770   38.0760 H   0  0  0  0  0  0  0  0  0  0  0  0
   37.7680   21.8070   35.7130 H   0  0  0  0  0  0  0  0  0  0  0  0
   38.5860   26.2930   34.6920 C   0  0  2  0  0  3  0  0  0  0  0  0
   39.8290   26.6070   34.5780 O   0  0  0  0  0  1  0  0  0  0  0  0
   35.9650   28.7550   34.2150 C   0  0  0  0  0  0  0  0  0  0  0  0
   35.6180   28.6230   32.8710 C   0  0  0  0  0  0  0  0  0  0  0  0
   36.2890   27.6780   32.1140 C   0  0  0  0  0  0  0  0  0  0  0  0
   37.2540   26.9180   32.7030 N   0  0  0  0  0  0  0  0  0  0  0  0
   37.5650   27.0630   33.9840 C   0  0  0  0  0  0  0  0  0  0  0  0
   36.9120   27.9820   34.7170 N   0  0  0  0  0  0  0  0  0  0  0  0
   35.4420   29.4910   34.8020 H   0  0  0  0  0  0  0  0  0  0  0  0
   34.8470   29.2290   32.3950 H   0  0  0  0  0  0  0  0  0  0  0  0
   36.0580   27.5370   31.0670 H   0  0  0  0  0  0  0  0  0  0  0  0
   38.2270   23.5000   33.7360 C   0  0  0  0  0  3  0  0  0  0  0  0
   37.2360   23.1850   32.9330 C   0  0  0  0  0  3  0  0  0  0  0  0
   37.1570   22.7960   31.5300 C   0  0  0  0  0  0  0  0  0  0  0  0
   37.0250   23.6670   30.8550 H   0  0  0  0  0  0  0  0  0  0  0  0
   38.1540   22.3600   31.2320 H   0  0  0  0  0  0  0  0  0  0  0  0
   36.1700   21.6890   31.2220 C   0  0  0  0  0  3  0  0  0  0  0  0
   36.9860   20.4240   31.0560 C   0  0  0  0  0  2  0  0  0  0  0  0
   36.1160   19.1920   30.9770 C   0  0  0  0  0  2  0  0  0  0  0  0
   35.0540   19.1890   32.0580 C   0  0  0  0  0  2  0  0  0  0  0  0
   35.4480   20.2470   33.0960 C   0  0  0  0  0  2  0  0  0  0  0  0
   35.2290   21.5940   32.4020 C   0  0  0  0  0  2  0  0  0  0  0  0
  1  2  1  0  0  0  0
  2  7  1  0  0  0  0
  2  3  2  0  0  0  0
  3  8  1  0  0  0  0
  4  3  1  0  0  0  0
  4  9  1  0  0  0  0
  5  4  2  0  0  0  0
  6  1  2  0  0  0  0
  6  5  1  0  0  0  0
 10  5  1  0  0  0  0
 11 12  1  1  0  0  0
 11  1  1  0  0  0  0
 13 18  1  0  0  0  0
 13 19  1  0  0  0  0
 14 13  2  0  0  0  0
 15 16  2  0  0  0  0
 15 14  1  0  0  0  0
 16 17  1  0  0  0  0
 17 11  1  0  0  0  0
 17 18  2  0  0  0  0
 20 14  1  0  0  0  0
 21 15  1  0  0  0  0
 22  6  1  0  0  0  0
 23 22  2  0  0  0  0
 24 23  1  0  0  0  0
 25 24  1  0  0  0  0
 26 24  1  0  0  0  0
 27 24  1  0  0  0  0
 27 32  1  0  0  0  0
 28 27  1  0  0  0  0
 29 28  1  0  0  0  0
 29 30  1  0  0  0  0
 30 31  1  0  0  0  0
 32 31  1  0  0  0  0
M  END
>  <minimizedAffinity>
-5.56654072

$$$$

 OpenBabel03272509413D

 32 34  0  0  1  0  0  0  0  0999 V2000
   38.9530   26.8900   33.8040 C   0  0  0  0  0  0  0  0  0  0  0  0
   40.2290   26.6730   33.2810 C   0  0  0  0  0  0  0  0  0  0  0  0
   40.5320   26.9720   31.9570 C   0  0  0  0  0  0  0  0  0  0  0  0
   39.5510   27.5000   31.1200 C   0  0  0  0  0  0  0  0  0  0  0  0
   38.3060   27.7020   31.6560 C   0  0  0  0  0  0  0  0  0  0  0  0
   38.0230   27.4000   32.9720 C   0  0  0  0  0  0  0  0  0  0  0  0
   41.0020   26.2670   33.9080 H   0  0  0  0  0  0  0  0  0  0  0  0
   41.5420   26.7800   31.6160 H   0  0  0  0  0  0  0  0  0  0  0  0
   39.8320   27.7140   30.1050 H   0  0  0  0  0  0  0  0  0  0  0  0
   37.6030   28.1150   30.9380 H   0  0  0  0  0  0  0  0  0  0  0  0
   38.7210   26.5510   35.1970 C   0  0  2  0  0  3  0  0  0  0  0  0
   38.8580   27.5290   36.0220 O   0  0  0  0  0  1  0  0  0  0  0  0
   37.7750   23.9970   37.5940 C   0  0  0  0  0  0  0  0  0  0  0  0
   37.6610   22.8390   36.8250 C   0  0  0  0  0  0  0  0  0  0  0  0
   37.9110   22.9290   35.4670 C   0  0  0  0  0  0  0  0  0  0  0  0
   38.2570   24.1350   34.9340 N   0  0  0  0  0  0  0  0  0  0  0  0
   38.3590   25.2220   35.6870 C   0  0  0  0  0  0  0  0  0  0  0  0
   38.1160   25.1310   37.0060 N   0  0  0  0  0  0  0  0  0  0  0  0
   37.5810   23.9230   38.6500 H   0  0  0  0  0  0  0  0  0  0  0  0
   37.3850   21.8720   37.2470 H   0  0  0  0  0  0  0  0  0  0  0  0
   37.8360   22.0610   34.8280 H   0  0  0  0  0  0  0  0  0  0  0  0
   36.6620   27.6750   33.3690 C   0  0  0  0  0  3  0  0  0  0  0  0
   36.1650   28.8010   33.8300 C   0  0  0  0  0  3  0  0  0  0  0  0
   34.8340   29.2220   34.2480 C   0  0  0  0  0  0  0  0  0  0  0  0
   34.0530   28.9550   33.5070 H   0  0  0  0  0  0  0  0  0  0  0  0
   34.5560   28.6340   35.1700 H   0  0  0  0  0  0  0  0  0  0  0  0
   34.7220   30.6670   34.6900 C   0  0  0  0  0  3  0  0  0  0  0  0
   35.9500   30.9530   35.5280 C   0  0  0  0  0  2  0  0  0  0  0  0
   36.0940   32.4230   35.8430 C   0  0  0  0  0  2  0  0  0  0  0  0
   35.8860   33.2810   34.6120 C   0  0  0  0  0  2  0  0  0  0  0  0
   35.9670   32.3600   33.3880 C   0  0  0  0  0  2  0  0  0  0  0  0
   34.6940   31.5110   33.4350 C   0  0  0  0  0  2  0  0  0  0  0  0
  1 11  1  0  0  0  0
  2  1  1  0  0  0  0
  2  7  1  0  0  0  0
  3  2  2  0  0  0  0
  4  5  2  0  0  0  0
  4  3  1  0  0  0  0
  5  6  1  0  0  0  0
  6 22  1  0  0  0  0
  6  1  2  0  0  0  0
  8  3  1  0  0  0  0
  9  4  1  0  0  0  0
 10  5  1  0  0  0  0
 11 17  1  0  0  0  0
 11 12  1  1  0  0  0
 13 19  1  0  0  0  0
 14 20  1  0  0  0  0
 14 13  2  0  0  0  0
 15 14  1  0  0  0  0
 16 15  2  0  0  0  0
 16 17  1  0  0  0  0
 17 18  2  0  0  0  0
 18 13  1  0  0  0  0
 21 15  1  0  0  0  0
 22 23  2  0  0  0  0
 23 24  1  0  0  0  0
 24 27  1  0  0  0  0
 24 26  1  0  0  0  0
 25 24  1  0  0  0  0
 27 28  1  0  0  0  0
 28 29  1  0  0  0  0
 30 29  1  0  0  0  0
 31 32  1  0  0  0  0
 31 30  1  0  0  0  0
 32 27  1  0  0  0  0
M  END
>  <minimizedAffinity>
-5.55411577

$$$$

 OpenBabel03272509413D

 32 34  0  0  1  0  0  0  0  0999 V2000
   37.3940   25.4890   32.5640 C   0  0  0  0  0  0  0  0  0  0  0  0
   37.1340   24.2830   31.9110 C   0  0  0  0  0  0  0  0  0  0  0  0
   36.0410   24.1370   31.0640 C   0  0  0  0  0  0  0  0  0  0  0  0
   35.1760   25.2090   30.8510 C   0  0  0  0  0  0  0  0  0  0  0  0
   35.4530   26.3820   31.5040 C   0  0  0  0  0  0  0  0  0  0  0  0
   36.5420   26.5080   32.3410 C   0  0  0  0  0  0  0  0  0  0  0  0
   37.7870   23.4430   32.0600 H   0  0  0  0  0  0  0  0  0  0  0  0
   35.8970   23.1740   30.5880 H   0  0  0  0  0  0  0  0  0  0  0  0
   34.3460   25.0480   30.1890 H   0  0  0  0  0  0  0  0  0  0  0  0
   34.7320   27.1640   31.2840 H   0  0  0  0  0  0  0  0  0  0  0  0
   38.5580   25.5570   33.4320 C   0  0  2  0  0  3  0  0  0  0  0  0
   39.5040   26.3190   33.0080 O   0  0  0  0  0  1  0  0  0  0  0  0
   37.8010   24.5730   36.8400 C   0  0  0  0  0  0  0  0  0  0  0  0
   38.7740   23.6190   37.1400 C   0  0  0  0  0  0  0  0  0  0  0  0
   39.7030   23.3060   36.1630 C   0  0  0  0  0  0  0  0  0  0  0  0
   39.6370   23.9350   34.9560 N   0  0  0  0  0  0  0  0  0  0  0  0
   38.7020   24.8390   34.6960 C   0  0  0  0  0  0  0  0  0  0  0  0
   37.8000   25.1410   35.6470 N   0  0  0  0  0  0  0  0  0  0  0  0
   37.0790   24.8140   37.6010 H   0  0  0  0  0  0  0  0  0  0  0  0
   38.8300   23.1130   38.1040 H   0  0  0  0  0  0  0  0  0  0  0  0
   40.4770   22.5730   36.3460 H   0  0  0  0  0  0  0  0  0  0  0  0
   36.6810   27.8130   32.9470 C   0  0  0  0  0  3  0  0  0  0  0  0
   35.8430   28.8240   32.8920 C   0  0  0  0  0  3  0  0  0  0  0  0
   35.8440   30.1680   33.4550 C   0  0  0  0  0  0  0  0  0  0  0  0
   36.8100   30.6910   33.3030 H   0  0  0  0  0  0  0  0  0  0  0  0
   35.0970   30.7880   32.8800 H   0  0  0  0  0  0  0  0  0  0  0  0
   35.3690   30.2670   34.8900 C   0  0  0  0  0  3  0  0  0  0  0  0
   35.7210   31.6610   35.3610 C   0  0  0  0  0  2  0  0  0  0  0  0
   35.0970   31.9850   36.6990 C   0  0  0  0  0  2  0  0  0  0  0  0
   33.6340   31.5920   36.7410 C   0  0  0  0  0  2  0  0  0  0  0  0
   33.1800   31.3420   35.2980 C   0  0  0  0  0  2  0  0  0  0  0  0
   33.8730   30.0430   34.8760 C   0  0  0  0  0  2  0  0  0  0  0  0
  1 11  1  0  0  0  0
  2  7  1  0  0  0  0
  2  1  2  0  0  0  0
  3  2  1  0  0  0  0
  4  3  2  0  0  0  0
  4  5  1  0  0  0  0
  5  6  2  0  0  0  0
  6  1  1  0  0  0  0
  6 22  1  0  0  0  0
  8  3  1  0  0  0  0
  9  4  1  0  0  0  0
 10  5  1  0  0  0  0
 11 12  1  6  0  0  0
 11 17  1  0  0  0  0
 13 14  1  0  0  0  0
 13 19  1  0  0  0  0
 14 20  1  0  0  0  0
 15 21  1  0  0  0  0
 15 14  2  0  0  0  0
 16 15  1  0  0  0  0
 17 16  2  0  0  0  0
 17 18  1  0  0  0  0
 18 13  2  0  0  0  0
 23 22  2  0  0  0  0
 23 24  1  0  0  0  0
 24 27  1  0  0  0  0
 25 24  1  0  0  0  0
 26 24  1  0  0  0  0
 27 28  1  0  0  0  0
 28 29  1  0  0  0  0
 29 30  1  0  0  0  0
 31 30  1  0  0  0  0
 32 27  1  0  0  0  0
 32 31  1  0  0  0  0
M  END
>  <minimizedAffinity>
-5.53075933

$$$$

 OpenBabel03272509413D

 32 34  0  0  1  0  0  0  0  0999 V2000
   37.0640   27.4860   31.5520 C   0  0  0  0  0  0  0  0  0  0  0  0
   38.2010   27.4560   30.7420 C   0  0  0  0  0  0  0  0  0  0  0  0
   38.4640   28.4670   29.8240 C   0  0  0  0  0  0  0  0  0  0  0  0
   37.5830   29.5390   29.6950 C   0  0  0  0  0  0  0  0  0  0  0  0
   36.4740   29.5440   30.5000 C   0  0  0  0  0  0  0  0  0  0  0  0
   36.2290   28.5320   31.4060 C   0  0  0  0  0  0  0  0  0  0  0  0
   38.8950   26.6400   30.8240 H   0  0  0  0  0  0  0  0  0  0  0  0
   39.3650   28.3830   29.2280 H   0  0  0  0  0  0  0  0  0  0  0  0
   37.8290   30.2950   28.9720 H   0  0  0  0  0  0  0  0  0  0  0  0
   35.8420   30.4120   30.3370 H   0  0  0  0  0  0  0  0  0  0  0  0
   36.8650   26.3900   32.4850 C   0  0  2  0  0  3  0  0  0  0  0  0
   36.1350   25.4280   32.0410 O   0  0  0  0  0  1  0  0  0  0  0  0
   38.0890   27.6170   35.6720 C   0  0  0  0  0  0  0  0  0  0  0  0
   38.4440   26.4590   36.3650 C   0  0  0  0  0  0  0  0  0  0  0  0
   38.2630   25.2400   35.7350 C   0  0  0  0  0  0  0  0  0  0  0  0
   37.7510   25.2140   34.4730 N   0  0  0  0  0  0  0  0  0  0  0  0
   37.4210   26.3290   33.8350 C   0  0  0  0  0  0  0  0  0  0  0  0
   37.5980   27.5120   34.4500 N   0  0  0  0  0  0  0  0  0  0  0  0
   38.2300   28.5630   36.1650 H   0  0  0  0  0  0  0  0  0  0  0  0
   38.8540   26.4760   37.3750 H   0  0  0  0  0  0  0  0  0  0  0  0
   38.5230   24.3140   36.2300 H   0  0  0  0  0  0  0  0  0  0  0  0
   35.0140   28.6980   32.1710 C   0  0  0  0  0  3  0  0  0  0  0  0
   34.8000   29.5040   33.1870 C   0  0  0  0  0  3  0  0  0  0  0  0
   33.6440   29.7830   34.0280 C   0  0  0  0  0  0  0  0  0  0  0  0
   32.6840   29.6530   33.4870 H   0  0  0  0  0  0  0  0  0  0  0  0
   33.6110   29.0060   34.8460 H   0  0  0  0  0  0  0  0  0  0  0  0
   33.6950   31.0980   34.7790 C   0  0  0  0  0  3  0  0  0  0  0  0
   33.2580   30.7960   36.1970 C   0  0  0  0  0  2  0  0  0  0  0  0
   33.4850   31.9680   37.1240 C   0  0  0  0  0  2  0  0  0  0  0  0
   34.8650   32.5650   36.9400 C   0  0  0  0  0  2  0  0  0  0  0  0
   35.7040   31.5570   36.1450 C   0  0  0  0  0  2  0  0  0  0  0  0
   35.1270   31.5810   34.7270 C   0  0  0  0  0  2  0  0  0  0  0  0
  1 11  1  0  0  0  0
  2  7  1  0  0  0  0
  2  1  2  0  0  0  0
  3  2  1  0  0  0  0
  4  3  2  0  0  0  0
  4  5  1  0  0  0  0
  5  6  2  0  0  0  0
  6  1  1  0  0  0  0
  6 22  1  0  0  0  0
  8  3  1  0  0  0  0
  9  4  1  0  0  0  0
 10  5  1  0  0  0  0
 11 12  1  1  0  0  0
 11 17  1  0  0  0  0
 13 19  1  0  0  0  0
 13 14  1  0  0  0  0
 14 20  1  0  0  0  0
 15 21  1  0  0  0  0
 15 14  2  0  0  0  0
 16 15  1  0  0  0  0
 17 18  1  0  0  0  0
 17 16  2  0  0  0  0
 18 13  2  0  0  0  0
 22 23  2  0  0  0  0
 23 24  1  0  0  0  0
 24 27  1  0  0  0  0
 24 26  1  0  0  0  0
 25 24  1  0  0  0  0
 27 28  1  0  0  0  0
 28 29  1  0  0  0  0
 30 29  1  0  0  0  0
 31 30  1  0  0  0  0
 32 27  1  0  0  0  0
 32 31  1  0  0  0  0
M  END
>  <minimizedAffinity>
-5.51879644

$$$$
