
 OpenBabel03272503493D

 34 36  0  0  1  0  0  0  0  0999 V2000
   33.1890   27.3030   45.8540 C   0  0  1  0  0  0  0  0  0  0  0  0
   33.9210   27.4520   47.2070 C   0  0  2  0  0  0  0  0  0  0  0  0
   33.7720   26.2270   47.7750 O   0  0  0  0  0  0  0  0  0  0  0  0
   34.0690   25.3310   46.7620 C   0  0  0  0  0  0  0  0  0  0  0  0
   33.5680   25.9030   45.4720 C   0  0  2  0  0  0  0  0  0  0  0  0
   33.6570   28.0110   45.1530 H   0  0  0  0  0  0  0  0  0  0  0  0
   34.9700   27.7590   46.9570 H   0  0  0  0  0  0  0  0  0  0  0  0
   33.4920   24.4030   46.9740 H   0  0  0  0  0  0  0  0  0  0  0  0
   35.1670   25.1840   46.7800 H   0  0  0  0  0  0  0  0  0  0  0  0
   32.7200   25.3230   45.0590 H   0  0  0  0  0  0  0  0  0  0  0  0
   31.8340   27.5110   46.0180 O   0  0  0  0  0  0  0  0  0  0  0  0
   31.5120   28.0460   45.2340 H   0  0  0  0  0  0  0  0  0  0  0  0
   33.3050   28.5030   47.8210 O   0  0  0  0  0  0  0  0  0  0  0  0
   35.3560   29.7970   46.7790 O   0  0  0  0  0  0  0  0  0  0  0  0
   34.0940   29.9750   47.6100 P   0  0  1  0  0  0  0  0  0  0  0  0
   33.1220   31.0300   46.7090 O   0  0  0  0  0  0  0  0  0  0  0  0
   32.1660   30.8840   46.9630 H   0  0  0  0  0  0  0  0  0  0  0  0
   34.3860   30.6040   49.1690 O   0  0  0  0  0  0  0  0  0  0  0  0
   35.6220   30.4950   49.7830 C   0  0  0  0  0  0  0  0  0  0  0  0
   35.9620   29.4820   50.7070 C   0  0  0  0  0  0  0  0  0  0  0  0
   37.2410   29.4970   51.2450 C   0  0  0  0  0  0  0  0  0  0  0  0
   38.1040   30.4820   50.8600 N   0  0  0  0  0  0  0  0  0  0  0  0
   37.7520   31.4460   49.9690 C   0  0  0  0  0  0  0  0  0  0  0  0
   36.4990   31.4500   49.4280 N   0  0  0  0  0  0  0  0  0  0  0  0
   35.1990   28.7520   50.9400 H   0  0  0  0  0  0  0  0  0  0  0  0
   37.5090   28.7250   51.9520 H   0  0  0  0  0  0  0  0  0  0  0  0
   38.4800   32.1990   49.7030 H   0  0  0  0  0  0  0  0  0  0  0  0
   34.5890   25.9320   44.5220 O   0  0  0  0  0  0  0  0  0  0  0  0
   34.9990   24.6710   44.1380 C   0  0  0  0  0  3  0  0  0  0  0  0
   34.3270   24.2190   42.8560 C   0  0  0  0  0  2  0  0  0  0  0  0
   34.9860   24.9390   41.6920 C   0  0  0  0  0  2  0  0  0  0  0  0
   36.4010   24.4940   41.4750 C   0  0  0  0  0  2  0  0  0  0  0  0
   36.8390   23.7280   42.7110 C   0  0  0  0  0  2  0  0  0  0  0  0
   36.4940   24.6330   43.8850 C   0  0  0  0  0  2  0  0  0  0  0  0
  1  6  1  6  0  0  0
  1 11  1  0  0  0  0
  1  2  1  0  0  0  0
  2  7  1  6  0  0  0
  2  3  1  0  0  0  0
  2 13  1  0  0  0  0
  4  9  1  0  0  0  0
  4  8  1  0  0  0  0
  4  3  1  0  0  0  0
  5 10  1  6  0  0  0
  5  1  1  0  0  0  0
  5  4  1  0  0  0  0
 12 11  1  0  0  0  0
 15 14  2  6  0  0  0
 15 13  1  0  0  0  0
 15 18  1  0  0  0  0
 16 17  1  0  0  0  0
 16 15  1  0  0  0  0
 18 19  1  0  0  0  0
 19 20  1  0  0  0  0
 20 25  1  0  0  0  0
 20 21  2  0  0  0  0
 21 26  1  0  0  0  0
 22 21  1  0  0  0  0
 23 22  2  0  0  0  0
 24 19  2  0  0  0  0
 24 23  1  0  0  0  0
 27 23  1  0  0  0  0
 28  5  1  0  0  0  0
 29 28  1  0  0  0  0
 30 29  1  0  0  0  0
 31 30  1  0  0  0  0
 32 31  1  0  0  0  0
 32 33  1  0  0  0  0
 33 34  1  0  0  0  0
 34 29  1  0  0  0  0
M  END
>  <minimizedAffinity>
-4.1230731

>  <minimizedRMSD>
1.88267589

$$$$
