
 OpenBabel03272500003D

 26 28  0  0  0  0  0  0  0  0999 V2000
   35.9330   30.5900   47.3230 C   0  0  0  0  0  0  0  0  0  0  0  0
   36.6300   30.5590   46.0860 C   0  0  0  0  0  0  0  0  0  0  0  0
   35.9320   30.0630   45.0000 C   0  0  0  0  0  0  0  0  0  0  0  0
   34.6520   29.6430   45.1630 N   0  0  0  0  0  0  0  0  0  0  0  0
   34.0180   29.6860   46.3460 C   0  0  0  0  0  0  0  0  0  0  0  0
   34.6610   30.1660   47.4520 N   0  0  0  0  0  0  0  0  0  0  0  0
   36.4240   30.9690   48.2190 H   0  0  0  0  0  0  0  0  0  0  0  0
   36.4440   30.0300   44.0480 H   0  0  0  0  0  0  0  0  0  0  0  0
   33.7810   26.9620   47.8740 Br  0  0  0  0  0  0  0  0  0  0  0  0
   32.3700   28.0450   47.1740 C   0  0  0  0  0  0  0  0  0  0  0  0
   32.6440   29.2330   46.5190 C   0  0  0  0  0  0  0  0  0  0  0  0
   31.5780   29.9610   46.0410 C   0  0  0  0  0  0  0  0  0  0  0  0
   30.2610   29.5720   46.1810 C   0  0  0  0  0  0  0  0  0  0  0  0
   30.0290   28.3680   46.8480 C   0  0  0  0  0  0  0  0  0  0  0  0
   31.0900   27.6180   47.3380 C   0  0  0  0  0  0  0  0  0  0  0  0
   31.7580   30.8960   45.5220 H   0  0  0  0  0  0  0  0  0  0  0  0
   29.4530   30.1730   45.7910 H   0  0  0  0  0  0  0  0  0  0  0  0
   29.0010   28.0440   46.9690 H   0  0  0  0  0  0  0  0  0  0  0  0
   30.8130   26.6990   47.8410 H   0  0  0  0  0  0  0  0  0  0  0  0
   37.9090   31.0150   46.0880 O   0  0  0  0  0  0  0  0  0  0  0  0
   38.4360   32.2500   45.7720 C   0  0  0  0  0  3  0  0  0  0  0  0
   39.8790   32.4110   46.2740 C   0  0  0  0  0  2  0  0  0  0  0  0
   40.7910   31.4200   45.5840 C   0  0  0  0  0  2  0  0  0  0  0  0
   40.5050   31.4360   44.1150 C   0  0  0  0  0  2  0  0  0  0  0  0
   39.6960   32.6450   43.7100 C   0  0  0  0  0  2  0  0  0  0  0  0
   38.3150   32.6350   44.3340 C   0  0  0  0  0  2  0  0  0  0  0  0
  1  6  1  0  0  0  0
  1  7  1  0  0  0  0
  2 20  1  0  0  0  0
  2  1  2  0  0  0  0
  3  4  2  0  0  0  0
  3  2  1  0  0  0  0
  4  5  1  0  0  0  0
  5 11  1  0  0  0  0
  5  6  2  0  0  0  0
  8  3  1  0  0  0  0
 10 15  1  0  0  0  0
 10  9  1  0  0  0  0
 11 10  2  0  0  0  0
 12 13  2  0  0  0  0
 12 11  1  0  0  0  0
 13 14  1  0  0  0  0
 14 18  1  0  0  0  0
 14 15  2  0  0  0  0
 15 19  1  0  0  0  0
 16 12  1  0  0  0  0
 17 13  1  0  0  0  0
 21 20  1  0  0  0  0
 21 22  1  0  0  0  0
 23 22  1  0  0  0  0
 24 23  1  0  0  0  0
 25 24  1  0  0  0  0
 25 26  1  0  0  0  0
 26 21  1  0  0  0  0
M  END
>  <minimizedAffinity>
-4.73763084

>  <minimizedRMSD>
4.65440369

$$$$
