REMARK  Name = 
REMARK  4 active torsions:
REMARK  status: ('A' for Active; 'I' for Inactive)
REMARK    1  A    between atoms: C_1  and  C_16
REMARK    2  A    between atoms: C_4  and  C_8
REMARK    3  A    between atoms: C_18  and  C_20
REMARK    4  A    between atoms: C_20  and  C_29
REMARK                            x       y       z     vdW  Elec       q    Type
REMARK                         _______ _______ _______ _____ _____    ______ ____
ROOT
ATOM      1  C   UNL     1      37.676  31.298  48.202  0.00  0.00    +0.000 A 
ATOM      2  C   UNL     1      38.536  32.310  48.087  0.00  0.00    +0.000 A 
ATOM      3  C   UNL     1      38.925  32.709  46.868  0.00  0.00    +0.000 A 
ATOM      4  C   UNL     1      38.410  32.044  45.781  0.00  0.00    +0.000 A 
ATOM      5  S   UNL     1      37.325  30.799  46.575  0.00  0.00    +0.000 S 
ATOM      6  H   UNL     1      38.892  32.778  49.001  0.00  0.00    +0.000 HD
ATOM      7  H   UNL     1      39.612  33.510  46.622  0.00  0.00    +0.000 HD
ENDROOT
BRANCH   4  10
ATOM      8 CL   UNL     1      41.154  31.236  44.722  0.00  0.00    +0.000 Cl
ATOM      9  C   UNL     1      39.786  31.827  43.809  0.00  0.00    +0.000 A 
ATOM     10  C   UNL     1      38.580  32.172  44.353  0.00  0.00    +0.000 A 
ATOM     11  C   UNL     1      37.509  32.628  43.691  0.00  0.00    +0.000 A 
ATOM     12  C   UNL     1      37.608  32.775  42.298  0.00  0.00    +0.000 A 
ATOM     13  C   UNL     1      38.775  32.453  41.684  0.00  0.00    +0.000 A 
ATOM     14 CL   UNL     1      38.952  32.617  39.951  0.00  0.00    +0.000 Cl
ATOM     15  C   UNL     1      39.861  31.982  42.419  0.00  0.00    +0.000 A 
ATOM     16  H   UNL     1      36.552  32.903  44.113  0.00  0.00    +0.000 HD
ATOM     17  H   UNL     1      36.809  33.130  41.689  0.00  0.00    +0.000 HD
ATOM     18  H   UNL     1      40.773  31.737  41.886  0.00  0.00    +0.000 HD
ENDBRANCH   4  10
BRANCH   1  21
ATOM     19  C   UNL     1      37.159  29.921  51.676  0.00  0.00    +0.000 A 
ATOM     20  C   UNL     1      37.789  30.555  50.593  0.00  0.00    +0.000 A 
ATOM     21  C   UNL     1      37.074  30.645  49.383  0.00  0.00    +0.000 A 
ATOM     22  N   UNL     1      35.855  30.133  49.326  0.00  0.00    +0.000 NA
ATOM     23  C   UNL     1      35.270  29.532  50.369  0.00  0.00    +0.000 A 
ATOM     24  N   UNL     1      35.919  29.431  51.528  0.00  0.00    +0.000 NA
ATOM     25  H   UNL     1      37.748  29.878  52.579  0.00  0.00    +0.000 HD
ATOM     26  H   UNL     1      38.792  30.981  50.624  0.00  0.00    +0.000 HD
BRANCH  23  27
ATOM     27  C   UNL     1      33.928  29.005  50.198  0.00  0.00    +0.000 C 
ATOM     28  O   UNL     1      33.653  28.311  49.194  0.00  0.00    +0.000 OA
BRANCH  27  29
ATOM     29  C   UNL     1      32.892  29.298  51.223  0.00  0.00    +0.000 C 
ATOM     30  C   UNL     1      33.160  30.647  51.884  0.00  0.00    +0.000 C 
ATOM     31  C   UNL     1      32.159  30.718  53.043  0.00  0.00    +0.000 C 
ATOM     32  C   UNL     1      30.805  30.851  52.409  0.00  0.00    +0.000 C 
ATOM     33  C   UNL     1      30.441  29.751  51.468  0.00  0.00    +0.000 C 
ATOM     34  C   UNL     1      31.540  29.305  50.556  0.00  0.00    +0.000 C 
ENDBRANCH  27  29
ENDBRANCH  23  27
ENDBRANCH   1  21
TORSDOF 4
