
 OpenBabel03272508573D

 37 40  0  0  1  0  0  0  0  0999 V2000
   38.3850   31.8610   44.5420 C   0  0  0  0  0  0  0  0  0  0  0  0
   37.3040   32.4470   44.4350 O   0  0  0  0  0  0  0  0  0  0  0  0
   38.9240   31.5580   45.8550 N   0  0  0  0  0  0  0  0  0  0  0  0
   39.8860   31.2610   46.0320 H   0  0  0  0  0  0  0  0  0  0  0  0
   39.1690   31.4460   43.3650 C   0  0  0  0  0  0  0  0  0  0  0  0
   40.2310   30.5920   43.5520 C   0  0  0  0  0  0  0  0  0  0  0  0
   40.9550   30.2170   42.4280 C   0  0  0  0  0  0  0  0  0  0  0  0
   40.5760   30.7120   41.2150 C   0  0  0  0  0  0  0  0  0  0  0  0
   39.5140   31.5680   41.0180 C   0  0  0  0  0  0  0  0  0  0  0  0
   38.8290   31.9130   42.1390 N   0  0  0  0  0  0  0  0  0  0  0  0
   40.5140   30.2070   44.5300 H   0  0  0  0  0  0  0  0  0  0  0  0
   41.7800   29.5490   42.6020 H   0  0  0  0  0  0  0  0  0  0  0  0
   41.2080   30.3490   40.4270 H   0  0  0  0  0  0  0  0  0  0  0  0
   39.1000   32.0770   39.7000 C   0  0  2  0  0  3  0  0  0  0  0  0
   39.0080   33.3570   39.5910 O   0  0  0  0  0  1  0  0  0  0  0  0
   38.7530   31.3800   38.4340 C   0  0  0  0  0  3  0  0  0  0  0  0
   39.9760   31.0520   37.6820 C   0  0  0  0  0  2  0  0  0  0  0  0
   39.7250   29.7790   36.8630 C   0  0  0  0  0  2  0  0  0  0  0  0
   39.6610   28.6760   37.9180 C   0  0  0  0  0  2  0  0  0  0  0  0
   38.4830   28.8770   38.8310 C   0  0  0  0  0  2  0  0  0  0  0  0
   37.8300   30.2110   38.6910 C   0  0  0  0  0  2  0  0  0  0  0  0
   38.4120   31.0920   48.2450 C   0  0  2  0  0  0  0  0  0  0  0  0
   38.6390   32.5560   48.1280 C   0  0  0  0  0  0  0  0  0  0  0  0
   38.0540   31.6830   46.9980 C   0  0  1  0  0  0  0  0  0  0  0  0
   39.3460   30.5070   48.3650 H   0  0  0  0  0  0  0  0  0  0  0  0
   39.6520   32.9320   48.0050 H   0  0  0  0  0  0  0  0  0  0  0  0
   37.9630   33.1990   48.7070 H   0  0  0  0  0  0  0  0  0  0  0  0
   36.9830   31.9340   46.8050 H   0  0  0  0  0  0  0  0  0  0  0  0
   35.0410   30.2040   49.5430 C   0  0  0  0  0  0  0  0  0  0  0  0
   35.3670   29.5710   50.7930 C   0  0  0  0  0  0  0  0  0  0  0  0
   36.7620   29.4780   51.1600 C   0  0  0  0  0  0  0  0  0  0  0  0
   37.7250   29.9850   50.3200 N   0  0  0  0  0  0  0  0  0  0  0  0
   37.3220   30.5690   49.1510 C   0  0  0  0  0  0  0  0  0  0  0  0
   36.0020   30.6960   48.7320 N   0  0  0  0  0  0  0  0  0  0  0  0
   34.0060   30.2600   49.2950 H   0  0  0  0  0  0  0  0  0  0  0  0
   34.6230   29.1790   51.4420 H   0  0  0  0  0  0  0  0  0  0  0  0
   37.0060   29.0100   52.0850 H   0  0  0  0  0  0  0  0  0  0  0  0
  1  3  1  0  0  0  0
  2  1  2  0  0  0  0
  3  4  1  0  0  0  0
  3 24  1  0  0  0  0
  5  6  1  0  0  0  0
  5  1  1  0  0  0  0
  6 11  1  0  0  0  0
  7 12  1  0  0  0  0
  7  6  2  0  0  0  0
  8  7  1  0  0  0  0
  9  8  2  0  0  0  0
  9 10  1  0  0  0  0
 10  5  2  0  0  0  0
 13  8  1  0  0  0  0
 14 15  1  1  0  0  0
 14  9  1  0  0  0  0
 16 21  1  0  0  0  0
 16 14  1  0  0  0  0
 17 16  1  0  0  0  0
 18 17  1  0  0  0  0
 18 19  1  0  0  0  0
 19 20  1  0  0  0  0
 21 20  1  0  0  0  0
 22 25  1  6  0  0  0
 22 33  1  0  0  0  0
 23 22  1  0  0  0  0
 23 27  1  0  0  0  0
 24 28  1  6  0  0  0
 24 23  1  0  0  0  0
 24 22  1  0  0  0  0
 26 23  1  0  0  0  0
 29 30  1  0  0  0  0
 30 31  2  0  0  0  0
 30 36  1  0  0  0  0
 31 37  1  0  0  0  0
 32 31  1  0  0  0  0
 33 32  2  0  0  0  0
 34 33  1  0  0  0  0
 34 29  2  0  0  0  0
 35 29  1  0  0  0  0
M  END
>  <minimizedAffinity>
-4.91711044

>  <minimizedRMSD>
1.04444075

$$$$
