
 OpenBabel03272508023D

 25 27  0  0  0  0  0  0  0  0999 V2000
   38.5720   30.5280   45.3430 C   0  0  0  0  0  0  0  0  0  0  0  0
   39.6760   31.3310   45.1580 C   0  0  0  0  0  0  0  0  0  0  0  0
   40.3780   30.9050   44.0140 C   0  0  0  0  0  0  0  0  0  0  0  0
   39.6460   29.8390   43.5510 N   0  0  0  0  0  0  0  0  0  0  0  0
   38.5990   29.6300   44.3310 N   0  0  0  0  0  0  0  0  0  0  0  0
   39.9990   32.1630   45.7590 H   0  0  0  0  0  0  0  0  0  0  0  0
   41.2900   31.3200   43.5900 H   0  0  0  0  0  0  0  0  0  0  0  0
   37.5810   30.6210   46.4000 C   0  0  0  0  0  0  0  0  0  0  0  0
   37.9960   31.1400   47.6570 C   0  0  0  0  0  0  0  0  0  0  0  0
   37.0520   31.2300   48.6700 C   0  0  0  0  0  0  0  0  0  0  0  0
   35.7860   30.8170   48.4060 N   0  0  0  0  0  0  0  0  0  0  0  0
   35.4110   30.3280   47.2110 C   0  0  0  0  0  0  0  0  0  0  0  0
   36.3280   30.2370   46.2150 N   0  0  0  0  0  0  0  0  0  0  0  0
   39.0340   31.4540   47.8000 H   0  0  0  0  0  0  0  0  0  0  0  0
   34.3950   30.0100   47.0350 H   0  0  0  0  0  0  0  0  0  0  0  0
   37.4710   31.7730   49.9950 C   0  0  0  0  0  0  0  0  0  0  0  0
   36.8150   32.9920   50.1120 F   0  0  0  0  0  0  0  0  0  0  0  0
   37.0760   30.9800   51.0450 F   0  0  0  0  0  0  0  0  0  0  0  0
   38.8320   32.0240   50.0530 F   0  0  0  0  0  0  0  0  0  0  0  0
   40.0410   29.1180   42.3780 C   0  0  0  0  0  3  0  0  0  0  0  0
   41.4880   29.3350   42.0800 C   0  0  0  0  0  2  0  0  0  0  0  0
   41.8480   29.0530   40.6440 C   0  0  0  0  0  2  0  0  0  0  0  0
   40.9100   28.1340   39.9320 C   0  0  0  0  0  2  0  0  0  0  0  0
   39.4510   28.4610   40.1100 C   0  0  0  0  0  2  0  0  0  0  0  0
   39.2480   29.5520   41.1470 C   0  0  0  0  0  2  0  0  0  0  0  0
  1  8  1  0  0  0  0
  2  1  1  0  0  0  0
  2  6  1  0  0  0  0
  3  2  2  0  0  0  0
  4  3  1  0  0  0  0
  4  5  1  0  0  0  0
  5  1  2  0  0  0  0
  7  3  1  0  0  0  0
  8  9  1  0  0  0  0
  9 14  1  0  0  0  0
  9 10  2  0  0  0  0
 10 16  1  0  0  0  0
 11 10  1  0  0  0  0
 12 11  2  0  0  0  0
 13  8  2  0  0  0  0
 13 12  1  0  0  0  0
 15 12  1  0  0  0  0
 16 19  1  0  0  0  0
 16 17  1  0  0  0  0
 16 18  1  0  0  0  0
 20  4  1  0  0  0  0
 21 20  1  0  0  0  0
 22 21  1  0  0  0  0
 23 24  1  0  0  0  0
 23 22  1  0  0  0  0
 24 25  1  0  0  0  0
 25 20  1  0  0  0  0
M  END
>  <minimizedAffinity>
-5.65947533

>  <minimizedRMSD>
1.5993433

$$$$
