
     RDKit          3D

 41 43  0  0  0  0  0  0  0  0999 V2000
   37.9995   31.3925   47.6305 C   0  0  0  0  0  0  0  0  0  0  0  0
   37.0802   31.3272   48.6726 C   0  0  0  0  0  0  0  0  0  0  0  0
   37.1925   32.3539   49.6325 C   0  0  0  0  0  0  0  0  0  0  0  0
   38.1804   33.3454   49.4964 C   0  0  0  0  0  0  0  0  0  0  0  0
   39.0501   33.3186   48.4156 C   0  0  0  0  0  0  0  0  0  0  0  0
   38.9627   32.3312   47.4667 C   0  0  0  0  0  0  0  0  0  0  0  0
   34.9366   30.3480   47.9804 C   0  0  0  0  0  0  0  0  0  0  0  0
   36.0803   30.3090   48.7935 C   0  0  0  0  0  0  0  0  0  0  0  0
   36.1946   29.2602   49.7019 C   0  0  0  0  0  0  0  0  0  0  0  0
   35.2014   28.3323   49.7574 N   0  0  0  0  0  0  0  0  0  0  0  0
   34.1051   28.4056   48.9497 C   0  0  0  0  0  0  0  0  0  0  0  0
   33.9778   29.4113   48.0664 N   0  0  0  0  0  0  0  0  0  0  0  0
   37.3702   29.1631   50.5804 C   0  0  0  0  0  0  0  0  0  0  0  0
   37.9472   30.4051   46.6403 O   0  0  0  0  0  0  0  0  0  0  0  0
   39.8373   32.3407   46.4127 O   0  0  0  0  0  0  0  0  0  0  0  0
   36.4753   32.2956   50.4374 H   0  0  0  0  0  0  0  0  0  0  0  0
   38.1260   34.0372   50.3009 H   0  0  0  0  0  0  0  0  0  0  0  0
   39.7080   34.1584   48.5170 H   0  0  0  0  0  0  0  0  0  0  0  0
   34.8487   31.1630   47.2751 H   0  0  0  0  0  0  0  0  0  0  0  0
   33.3269   27.6528   49.0136 H   0  0  0  0  0  0  0  0  0  0  0  0
   37.5369   30.1434   51.0848 H   0  0  0  0  0  0  0  0  0  0  0  0
   37.1636   28.3951   51.3578 H   0  0  0  0  0  0  0  0  0  0  0  0
   38.2836   28.8102   50.0566 H   0  0  0  0  0  0  0  0  0  0  0  0
   37.5313   30.5550   45.7348 H   0  0  0  0  0  0  0  0  0  0  0  0
   40.8359   33.2751   46.1958 C   0  0  0  0  0  0  0  0  0  0  0  0
   40.5127   34.6394   46.7540 C   0  0  0  0  0  0  0  0  0  0  0  0
   40.1324   35.6435   45.7150 C   0  0  0  0  0  0  0  0  0  0  0  0
   41.0880   35.7389   44.5664 C   0  0  0  0  0  0  0  0  0  0  0  0
   41.9235   34.5333   44.3317 C   0  0  0  0  0  0  0  0  0  0  0  0
   41.1262   33.3268   44.7096 C   0  0  0  0  0  0  0  0  0  0  0  0
   41.7826   32.9754   46.6686 H   0  0  0  0  0  0  0  0  0  0  0  0
   39.6467   34.5148   47.4376 H   0  0  0  0  0  0  0  0  0  0  0  0
   41.3378   35.0565   47.3654 H   0  0  0  0  0  0  0  0  0  0  0  0
   40.1326   36.6372   46.2120 H   0  0  0  0  0  0  0  0  0  0  0  0
   39.0934   35.4807   45.3607 H   0  0  0  0  0  0  0  0  0  0  0  0
   41.7869   36.6086   44.6778 H   0  0  0  0  0  0  0  0  0  0  0  0
   40.5086   35.9630   43.6482 H   0  0  0  0  0  0  0  0  0  0  0  0
   42.1353   34.4553   43.2439 H   0  0  0  0  0  0  0  0  0  0  0  0
   42.9180   34.5752   44.8169 H   0  0  0  0  0  0  0  0  0  0  0  0
   40.1473   33.4060   44.1719 H   0  0  0  0  0  0  0  0  0  0  0  0
   41.6652   32.4276   44.4187 H   0  0  0  0  0  0  0  0  0  0  0  0
  1  2  2  0
  2  8  1  0
  2  3  1  0
  4  3  2  0
  5  4  1  0
  6  1  1  0
  6  5  2  0
  7 12  2  0
  7  8  1  0
  8  9  2  0
  9 10  1  0
  9 13  1  0
 11 10  2  0
 12 11  1  0
 14  1  1  0
 15  6  1  0
  3 16  1  0
  4 17  1  0
  5 18  1  0
  7 19  1  0
 11 20  1  0
 13 21  1  0
 13 22  1  0
 13 23  1  0
 14 24  1  0
 25 26  1  0
 26 27  1  0
 27 28  1  0
 28 29  1  0
 29 30  1  0
 30 25  1  0
 25 31  1  0
 26 32  1  0
 26 33  1  0
 27 34  1  0
 27 35  1  0
 28 36  1  0
 28 37  1  0
 29 38  1  0
 29 39  1  0
 30 40  1  0
 30 41  1  0
 15 25  1  0
M  ISO  8  16  14  17  14  18  14  19  14  20  14  21   8  22   8  23   8
M  ISO  1  24   3
M  END
>  <DihAtoms>  (1) 
5,14,24,25

>  <DihDeg>  (1) 
-119.3736934615648

$$$$
