REMARK  Name = 
REMARK  8 active torsions:
REMARK  status: ('A' for Active; 'I' for Inactive)
REMARK    1  A    between atoms: P_2  and  O_3
REMARK    2  A    between atoms: P_2  and  O_4
REMARK    3  A    between atoms: P_2  and  O_11
REMARK    4  A    between atoms: O_4  and  C_5
REMARK    5  A    between atoms: O_11  and  C_13
REMARK    6  A    between atoms: C_12  and  O_17
REMARK    7  A    between atoms: C_16  and  O_18
REMARK    8  A    between atoms: O_18  and  C_29
REMARK                            x       y       z     vdW  Elec       q    Type
REMARK                         _______ _______ _______ _____ _____    ______ ____
ROOT
ATOM      1  C   UNL     1      33.084  27.337  45.874  0.00  0.00    +0.000 C 
ATOM      2  C   UNL     1      33.919  27.481  47.166  0.00  0.00    +0.000 C 
ATOM      3  O   UNL     1      33.836  26.246  47.727  0.00  0.00    +0.000 OA
ATOM      4  C   UNL     1      34.066  25.369  46.681  0.00  0.00    +0.000 C 
ATOM      5  C   UNL     1      33.454  25.949  45.443  0.00  0.00    +0.000 C 
ATOM      6  H   UNL     1      33.482  28.062  45.148  0.00  0.00    +0.000 HD
ATOM      7  H   UNL     1      34.939  27.810  46.838  0.00  0.00    +0.000 HD
ATOM      8  H   UNL     1      33.523  24.428  46.925  0.00  0.00    +0.000 HD
ATOM      9  H   UNL     1      35.164  25.241  46.609  0.00  0.00    +0.000 HD
ATOM     10  H   UNL     1      32.586  25.359  45.090  0.00  0.00    +0.000 HD
ENDROOT
BRANCH   1  11
ATOM     11  O   UNL     1      31.743  27.519  46.148  0.00  0.00    +0.000 OA
ATOM     12  H   UNL     1      31.350  28.058  45.400  0.00  0.00    +0.000 HD
ENDBRANCH   1  11
BRANCH   2  13
ATOM     13  O   UNL     1      33.336  28.513  47.842  0.00  0.00    +0.000 OA
BRANCH  13  15
ATOM     14  O   UNL     1      35.353  29.834  46.767  0.00  0.00    +0.000 OA
ATOM     15  P   UNL     1      34.099  29.996  47.614  0.00  0.00    +0.000 P 
BRANCH  15  16
ATOM     16  O   UNL     1      33.099  31.032  46.722  0.00  0.00    +0.000 OA
ATOM     17  H   UNL     1      32.149  30.872  46.989  0.00  0.00    +0.000 HD
ENDBRANCH  15  16
BRANCH  15  18
ATOM     18  O   UNL     1      34.402  30.637  49.166  0.00  0.00    +0.000 OA
BRANCH  18  19
ATOM     19  C   UNL     1      35.636  30.512  49.782  0.00  0.00    +0.000 A 
ATOM     20  C   UNL     1      35.962  29.494  50.705  0.00  0.00    +0.000 A 
ATOM     21  C   UNL     1      37.241  29.492  51.245  0.00  0.00    +0.000 A 
ATOM     22  N   UNL     1      38.116  30.467  50.862  0.00  0.00    +0.000 NA
ATOM     23  C   UNL     1      37.777  31.436  49.972  0.00  0.00    +0.000 A 
ATOM     24  N   UNL     1      36.525  31.456  49.429  0.00  0.00    +0.000 NA
ATOM     25  H   UNL     1      35.190  28.773  50.936  0.00  0.00    +0.000 HD
ATOM     26  H   UNL     1      37.498  28.716  51.952  0.00  0.00    +0.000 HD
ATOM     27  H   UNL     1      38.515  32.181  49.708  0.00  0.00    +0.000 HD
ENDBRANCH  18  19
ENDBRANCH  15  18
ENDBRANCH  13  15
ENDBRANCH   2  13
BRANCH   5  28
ATOM     28  O   UNL     1      34.396  26.008  44.415  0.00  0.00    +0.000 OA
BRANCH  28  29
ATOM     29  C   UNL     1      33.993  25.333  43.281  0.00  0.00    +0.000 C 
ATOM     30  C   UNL     1      33.729  23.866  43.554  0.00  0.00    +0.000 C 
ATOM     31  C   UNL     1      32.394  23.744  44.269  0.00  0.00    +0.000 C 
ATOM     32  C   UNL     1      31.239  24.109  43.385  0.00  0.00    +0.000 C 
ATOM     33  C   UNL     1      31.798  24.826  42.168  0.00  0.00    +0.000 C 
ATOM     34  C   UNL     1      32.705  25.913  42.726  0.00  0.00    +0.000 C 
ENDBRANCH  28  29
ENDBRANCH   5  28
TORSDOF 8
