
 OpenBabel03272509183D

 30 32  0  0  0  0  0  0  0  0999 V2000
   37.2130   31.3740   47.1020 C   0  0  0  0  0  0  0  0  0  0  0  0
   36.8720   30.9710   48.3900 C   0  0  0  0  0  0  0  0  0  0  0  0
   37.6250   31.5690   49.4220 C   0  0  0  0  0  0  0  0  0  0  0  0
   38.6330   32.4990   49.1140 C   0  0  0  0  0  0  0  0  0  0  0  0
   38.8950   32.8330   47.7940 C   0  0  0  0  0  0  0  0  0  0  0  0
   38.1780   32.2660   46.7700 C   0  0  0  0  0  0  0  0  0  0  0  0
   37.3530   31.2520   50.4170 H   0  0  0  0  0  0  0  0  0  0  0  0
   39.0990   32.8500   50.0030 H   0  0  0  0  0  0  0  0  0  0  0  0
   39.6920   33.5490   47.7980 H   0  0  0  0  0  0  0  0  0  0  0  0
   34.6290   30.0620   47.9740 C   0  0  0  0  0  0  0  0  0  0  0  0
   35.8400   30.0230   48.6830 C   0  0  0  0  0  0  0  0  0  0  0  0
   35.9880   29.0420   49.6600 C   0  0  0  0  0  0  0  0  0  0  0  0
   34.9600   28.1780   49.8800 N   0  0  0  0  0  0  0  0  0  0  0  0
   33.7980   28.2500   49.1710 C   0  0  0  0  0  0  0  0  0  0  0  0
   33.6380   29.1900   48.2220 N   0  0  0  0  0  0  0  0  0  0  0  0
   34.5150   30.8240   47.2150 H   0  0  0  0  0  0  0  0  0  0  0  0
   32.9940   27.5490   49.3650 H   0  0  0  0  0  0  0  0  0  0  0  0
   37.2340   28.9480   50.4350 C   0  0  0  0  0  0  0  0  0  0  0  0
   37.4950   29.9530   50.8410 H   0  0  0  0  0  0  0  0  0  0  0  0
   37.0650   28.2550   51.2880 H   0  0  0  0  0  0  0  0  0  0  0  0
   38.0770   28.5050   49.8630 H   0  0  0  0  0  0  0  0  0  0  0  0
   36.5080   30.8220   46.0280 O   0  0  0  0  0  0  0  0  0  0  0  0
   35.7730   31.3100   45.5430 H   0  0  0  0  0  0  0  0  0  0  0  0
   38.4630   32.6240   45.4790 O   0  0  0  0  0  0  0  0  0  0  0  0
   39.6270   32.3260   44.7920 C   0  0  0  0  0  3  0  0  0  0  0  0
   39.7960   33.1230   43.5220 C   0  0  0  0  0  2  0  0  0  0  0  0
   39.5340   32.3390   42.2770 C   0  0  0  0  0  2  0  0  0  0  0  0
   40.2650   31.0340   42.2010 C   0  0  0  0  0  2  0  0  0  0  0  0
   40.6800   30.4600   43.5060 C   0  0  0  0  0  2  0  0  0  0  0  0
   39.6590   30.8330   44.5320 C   0  0  0  0  0  2  0  0  0  0  0  0
  1  2  1  0  0  0  0
  2 11  1  0  0  0  0
  2  3  2  0  0  0  0
  3  7  1  0  0  0  0
  4  3  1  0  0  0  0
  4  8  1  0  0  0  0
  5  9  1  0  0  0  0
  5  4  2  0  0  0  0
  6  1  2  0  0  0  0
  6  5  1  0  0  0  0
 10 15  2  0  0  0  0
 10 11  1  0  0  0  0
 11 12  2  0  0  0  0
 12 13  1  0  0  0  0
 12 18  1  0  0  0  0
 14 17  1  0  0  0  0
 14 13  2  0  0  0  0
 15 14  1  0  0  0  0
 16 10  1  0  0  0  0
 18 19  1  0  0  0  0
 18 20  1  0  0  0  0
 21 18  1  0  0  0  0
 22  1  1  0  0  0  0
 23 22  1  0  0  0  0
 24  6  1  0  0  0  0
 25 24  1  0  0  0  0
 26 25  1  0  0  0  0
 27 26  1  0  0  0  0
 28 27  1  0  0  0  0
 28 29  1  0  0  0  0
 29 30  1  0  0  0  0
 30 25  1  0  0  0  0
M  END
>  <minimizedAffinity>
-6.3104043

>  <minimizedRMSD>
2.43787313

$$$$
