
 OpenBabel03272504243D

 36 38  0  0  1  0  0  0  0  0999 V2000
   36.7840   25.6160   32.8810 O   0  0  0  0  0  0  0  0  0  0  0  0
   36.6490   24.1080   31.1140 C   0  0  2  0  0  0  0  0  0  0  0  0
   37.0090   25.5220   31.5250 C   0  0  1  0  0  0  0  0  0  0  0  0
   35.9000   26.2630   30.7650 C   0  0  0  0  0  0  0  0  0  0  0  0
   34.7860   25.5460   31.1670 O   0  0  0  0  0  0  0  0  0  0  0  0
   35.1310   24.2110   31.1820 C   0  0  0  0  0  0  0  0  0  0  0  0
   36.9420   23.8860   30.0750 H   0  0  0  0  0  0  0  0  0  0  0  0
   38.0020   25.8430   31.1960 H   0  0  0  0  0  0  0  0  0  0  0  0
   36.1120   26.1660   29.6960 H   0  0  0  0  0  0  0  0  0  0  0  0
   35.8930   27.3050   31.1460 H   0  0  0  0  0  0  0  0  0  0  0  0
   34.6590   23.6170   30.3830 H   0  0  0  0  0  0  0  0  0  0  0  0
   34.7270   23.7910   32.1390 H   0  0  0  0  0  0  0  0  0  0  0  0
   37.1630   23.2370   32.0600 O   0  0  0  0  0  0  0  0  0  0  0  0
   36.4020   22.0740   32.0290 C   0  0  0  0  0  3  0  0  0  0  0  0
   36.9690   21.0110   31.1540 C   0  0  0  0  0  2  0  0  0  0  0  0
   35.8720   20.0190   30.8210 C   0  0  0  0  0  2  0  0  0  0  0  0
   34.9700   19.8440   31.9950 C   0  0  0  0  0  2  0  0  0  0  0  0
   35.6600   20.1050   33.3180 C   0  0  0  0  0  2  0  0  0  0  0  0
   36.2470   21.4780   33.4310 C   0  0  0  0  0  2  0  0  0  0  0  0
   38.6090   27.4500   32.6190 O   0  0  0  0  0  0  0  0  0  0  0  0
   37.6410   26.8700   33.6060 P   0  0  1  0  0  0  0  0  0  0  0  0
   36.5480   28.1200   34.0650 O   0  0  0  0  0  0  0  0  0  0  0  0
   35.6100   27.7820   33.9880 H   0  0  0  0  0  0  0  0  0  0  0  0
   38.4500   26.3080   34.9860 O   0  0  0  0  0  0  0  0  0  0  0  0
   38.5010   24.9270   34.8920 C   0  0  0  0  0  0  0  0  0  0  0  0
   39.3130   24.5960   34.1810 H   0  0  0  0  0  0  0  0  0  0  0  0
   37.5790   24.4660   34.4740 H   0  0  0  0  0  0  0  0  0  0  0  0
   38.7510   24.2630   36.1900 C   0  0  0  0  0  0  0  0  0  0  0  0
   37.9300   24.6170   37.2360 C   0  0  0  0  0  0  0  0  0  0  0  0
   38.1130   24.0260   38.4890 C   0  0  0  0  0  0  0  0  0  0  0  0
   39.1200   23.1130   38.5950 N   0  0  0  0  0  0  0  0  0  0  0  0
   39.9120   22.7810   37.5570 C   0  0  0  0  0  0  0  0  0  0  0  0
   39.7300   23.3560   36.3490 N   0  0  0  0  0  0  0  0  0  0  0  0
   37.1160   25.3220   37.2460 H   0  0  0  0  0  0  0  0  0  0  0  0
   37.5120   24.2490   39.3640 H   0  0  0  0  0  0  0  0  0  0  0  0
   40.6960   22.0420   37.7180 H   0  0  0  0  0  0  0  0  0  0  0  0
  1 21  1  0  0  0  0
  2  7  1  6  0  0  0
  2  6  1  0  0  0  0
  2  3  1  0  0  0  0
  2 13  1  0  0  0  0
  3  8  1  6  0  0  0
  3  1  1  0  0  0  0
  4 10  1  0  0  0  0
  4  5  1  0  0  0  0
  4  3  1  0  0  0  0
  5  6  1  0  0  0  0
  6 12  1  0  0  0  0
  9  4  1  0  0  0  0
 11  6  1  0  0  0  0
 14 13  1  0  0  0  0
 14 19  1  0  0  0  0
 15 14  1  0  0  0  0
 16 15  1  0  0  0  0
 16 17  1  0  0  0  0
 17 18  1  0  0  0  0
 18 19  1  0  0  0  0
 21 20  2  6  0  0  0
 21 22  1  0  0  0  0
 21 24  1  0  0  0  0
 23 22  1  0  0  0  0
 25 24  1  0  0  0  0
 25 28  1  0  0  0  0
 26 25  1  0  0  0  0
 27 25  1  0  0  0  0
 28 33  2  0  0  0  0
 28 29  1  0  0  0  0
 29 34  1  0  0  0  0
 29 30  2  0  0  0  0
 30 31  1  0  0  0  0
 30 35  1  0  0  0  0
 32 36  1  0  0  0  0
 32 31  2  0  0  0  0
 33 32  1  0  0  0  0
M  END
>  <minimizedAffinity>
-5.32589626

$$$$

 OpenBabel03272504243D

 36 38  0  0  1  0  0  0  0  0999 V2000
   38.9570   24.9110   35.5550 O   0  0  0  0  0  0  0  0  0  0  0  0
   38.1450   22.7350   35.4170 C   0  0  2  0  0  0  0  0  0  0  0  0
   37.9720   24.0950   36.0650 C   0  0  1  0  0  0  0  0  0  0  0  0
   38.3240   23.7000   37.5070 C   0  0  0  0  0  0  0  0  0  0  0  0
   39.5170   23.0270   37.3070 O   0  0  0  0  0  0  0  0  0  0  0  0
   39.3800   22.2580   36.1710 C   0  0  0  0  0  0  0  0  0  0  0  0
   37.3080   22.0530   35.6440 H   0  0  0  0  0  0  0  0  0  0  0  0
   36.9560   24.4940   35.9970 H   0  0  0  0  0  0  0  0  0  0  0  0
   37.5220   23.0540   37.8760 H   0  0  0  0  0  0  0  0  0  0  0  0
   38.4590   24.6440   38.0720 H   0  0  0  0  0  0  0  0  0  0  0  0
   39.3300   21.1750   36.3650 H   0  0  0  0  0  0  0  0  0  0  0  0
   40.3160   22.4080   35.5730 H   0  0  0  0  0  0  0  0  0  0  0  0
   38.3890   22.9240   34.0680 O   0  0  0  0  0  0  0  0  0  0  0  0
   37.4610   22.1750   33.3540 C   0  0  0  0  0  3  0  0  0  0  0  0
   36.4600   21.4860   34.2160 C   0  0  0  0  0  2  0  0  0  0  0  0
   35.8260   20.3620   33.4210 C   0  0  0  0  0  2  0  0  0  0  0  0
   35.6700   20.7710   31.9950 C   0  0  0  0  0  2  0  0  0  0  0  0
   35.5310   22.2700   31.8200 C   0  0  0  0  0  2  0  0  0  0  0  0
   36.6870   23.0500   32.3650 C   0  0  0  0  0  2  0  0  0  0  0  0
   36.9060   26.4570   35.1470 O   0  0  0  0  0  0  0  0  0  0  0  0
   38.4050   26.4570   35.1850 P   0  0  1  0  0  0  0  0  0  0  0  0
   38.8990   27.5520   36.4200 O   0  0  0  0  0  0  0  0  0  0  0  0
   39.5700   27.1030   37.0090 H   0  0  0  0  0  0  0  0  0  0  0  0
   39.0450   26.9700   33.7010 O   0  0  0  0  0  0  0  0  0  0  0  0
   38.2250   26.4620   32.7070 C   0  0  0  0  0  0  0  0  0  0  0  0
   37.3720   25.8680   33.1470 H   0  0  0  0  0  0  0  0  0  0  0  0
   38.7290   25.7390   32.0290 H   0  0  0  0  0  0  0  0  0  0  0  0
   37.6380   27.5090   31.8440 C   0  0  0  0  0  0  0  0  0  0  0  0
   38.2580   27.7380   30.6370 C   0  0  0  0  0  0  0  0  0  0  0  0
   37.7520   28.7140   29.7740 C   0  0  0  0  0  0  0  0  0  0  0  0
   36.6480   29.3930   30.1970 N   0  0  0  0  0  0  0  0  0  0  0  0
   36.0570   29.1530   31.3830 C   0  0  0  0  0  0  0  0  0  0  0  0
   36.5510   28.2090   32.2120 N   0  0  0  0  0  0  0  0  0  0  0  0
   39.1260   27.2540   30.2220 H   0  0  0  0  0  0  0  0  0  0  0  0
   38.1800   28.9570   28.8070 H   0  0  0  0  0  0  0  0  0  0  0  0
   35.1780   29.7370   31.6520 H   0  0  0  0  0  0  0  0  0  0  0  0
  1  3  1  0  0  0  0
  2  7  1  1  0  0  0
  2  3  1  0  0  0  0
  2  6  1  0  0  0  0
  3  8  1  6  0  0  0
  3  4  1  0  0  0  0
  4  9  1  0  0  0  0
  4 10  1  0  0  0  0
  5  4  1  0  0  0  0
  6 11  1  0  0  0  0
  6  5  1  0  0  0  0
 12  6  1  0  0  0  0
 13  2  1  0  0  0  0
 14 13  1  0  0  0  0
 14 15  1  0  0  0  0
 16 15  1  0  0  0  0
 17 16  1  0  0  0  0
 18 17  1  0  0  0  0
 18 19  1  0  0  0  0
 19 14  1  0  0  0  0
 21 20  2  6  0  0  0
 21  1  1  0  0  0  0
 21 22  1  0  0  0  0
 22 23  1  0  0  0  0
 24 21  1  0  0  0  0
 25 26  1  0  0  0  0
 25 24  1  0  0  0  0
 27 25  1  0  0  0  0
 28 33  1  0  0  0  0
 28 25  1  0  0  0  0
 29 28  2  0  0  0  0
 30 31  2  0  0  0  0
 30 29  1  0  0  0  0
 31 32  1  0  0  0  0
 32 36  1  0  0  0  0
 32 33  2  0  0  0  0
 34 29  1  0  0  0  0
 35 30  1  0  0  0  0
M  END
>  <minimizedAffinity>
-5.09563637

$$$$

 OpenBabel03272504243D

 36 38  0  0  1  0  0  0  0  0999 V2000
   38.2100   26.7280   33.1750 O   0  0  0  0  0  0  0  0  0  0  0  0
   37.7290   25.8350   35.2680 C   0  0  2  0  0  0  0  0  0  0  0  0
   37.1510   26.4580   34.0130 C   0  0  1  0  0  0  0  0  0  0  0  0
   36.6370   27.7660   34.6320 C   0  0  0  0  0  0  0  0  0  0  0  0
   37.7620   28.1880   35.3200 O   0  0  0  0  0  0  0  0  0  0  0  0
   38.3350   27.0790   35.9050 C   0  0  0  0  0  0  0  0  0  0  0  0
   36.9480   25.4400   35.9390 H   0  0  0  0  0  0  0  0  0  0  0  0
   36.3380   25.8810   33.5640 H   0  0  0  0  0  0  0  0  0  0  0  0
   35.8000   27.5120   35.2900 H   0  0  0  0  0  0  0  0  0  0  0  0
   36.3790   28.4380   33.7890 H   0  0  0  0  0  0  0  0  0  0  0  0
   38.2370   27.0490   37.0020 H   0  0  0  0  0  0  0  0  0  0  0  0
   39.4370   27.1520   35.7100 H   0  0  0  0  0  0  0  0  0  0  0  0
   38.6910   24.9110   34.8920 O   0  0  0  0  0  0  0  0  0  0  0  0
   39.0990   24.2280   36.0320 C   0  0  0  0  0  3  0  0  0  0  0  0
   37.9750   23.6200   36.7980 C   0  0  0  0  0  2  0  0  0  0  0  0
   38.4500   23.3310   38.2080 C   0  0  0  0  0  2  0  0  0  0  0  0
   39.8760   22.8970   38.1880 C   0  0  0  0  0  2  0  0  0  0  0  0
   40.2760   22.2350   36.8860 C   0  0  0  0  0  2  0  0  0  0  0  0
   40.0760   23.1030   35.6820 C   0  0  0  0  0  2  0  0  0  0  0  0
   37.7430   27.6150   30.7750 O   0  0  0  0  0  0  0  0  0  0  0  0
   37.8890   26.3500   31.5660 P   0  0  1  0  0  0  0  0  0  0  0  0
   39.2160   25.4700   30.9090 O   0  0  0  0  0  0  0  0  0  0  0  0
   39.8260   25.1910   31.6500 H   0  0  0  0  0  0  0  0  0  0  0  0
   36.4870   25.4030   31.4540 O   0  0  0  0  0  0  0  0  0  0  0  0
   36.8630   24.1800   30.9240 C   0  0  0  0  0  0  0  0  0  0  0  0
   37.9570   24.1750   30.6470 H   0  0  0  0  0  0  0  0  0  0  0  0
   36.3490   23.9210   29.9730 H   0  0  0  0  0  0  0  0  0  0  0  0
   36.6340   23.0480   31.8480 C   0  0  0  0  0  0  0  0  0  0  0  0
   35.4740   22.3290   31.6710 C   0  0  0  0  0  0  0  0  0  0  0  0
   35.1980   21.2460   32.5110 C   0  0  0  0  0  0  0  0  0  0  0  0
   36.1200   20.9680   33.4760 N   0  0  0  0  0  0  0  0  0  0  0  0
   37.2490   21.6860   33.6300 C   0  0  0  0  0  0  0  0  0  0  0  0
   37.5100   22.7310   32.8160 N   0  0  0  0  0  0  0  0  0  0  0  0
   34.6940   22.4740   30.9430 H   0  0  0  0  0  0  0  0  0  0  0  0
   34.3090   20.6290   32.4410 H   0  0  0  0  0  0  0  0  0  0  0  0
   37.9390   21.4030   34.4240 H   0  0  0  0  0  0  0  0  0  0  0  0
  1  3  1  0  0  0  0
  2  6  1  0  0  0  0
  2  7  1  1  0  0  0
  3  8  1  6  0  0  0
  3  4  1  0  0  0  0
  3  2  1  0  0  0  0
  4  9  1  0  0  0  0
  4  5  1  0  0  0  0
  5  6  1  0  0  0  0
  6 11  1  0  0  0  0
 10  4  1  0  0  0  0
 12  6  1  0  0  0  0
 13  2  1  0  0  0  0
 13 14  1  0  0  0  0
 14 15  1  0  0  0  0
 15 16  1  0  0  0  0
 17 16  1  0  0  0  0
 18 17  1  0  0  0  0
 19 14  1  0  0  0  0
 19 18  1  0  0  0  0
 21 20  2  6  0  0  0
 21  1  1  0  0  0  0
 22 21  1  0  0  0  0
 22 23  1  0  0  0  0
 24 21  1  0  0  0  0
 25 24  1  0  0  0  0
 25 28  1  0  0  0  0
 26 25  1  0  0  0  0
 27 25  1  0  0  0  0
 28 33  1  0  0  0  0
 29 28  2  0  0  0  0
 29 30  1  0  0  0  0
 30 31  2  0  0  0  0
 31 32  1  0  0  0  0
 32 36  1  0  0  0  0
 33 32  2  0  0  0  0
 34 29  1  0  0  0  0
 35 30  1  0  0  0  0
M  END
>  <minimizedAffinity>
-5.02945232

$$$$

 OpenBabel03272504243D

 36 38  0  0  1  0  0  0  0  0999 V2000
   37.3330   28.2690   33.7970 O   0  0  0  0  0  0  0  0  0  0  0  0
   35.4840   28.7920   32.4870 C   0  0  2  0  0  0  0  0  0  0  0  0
   36.4020   27.6850   32.9670 C   0  0  1  0  0  0  0  0  0  0  0  0
   37.0550   27.3400   31.6210 C   0  0  0  0  0  0  0  0  0  0  0  0
   37.4360   28.5980   31.1870 O   0  0  0  0  0  0  0  0  0  0  0  0
   36.4170   29.4740   31.4940 C   0  0  0  0  0  0  0  0  0  0  0  0
   34.6090   28.4030   31.9380 H   0  0  0  0  0  0  0  0  0  0  0  0
   35.8780   26.8240   33.3890 H   0  0  0  0  0  0  0  0  0  0  0  0
   36.2880   26.8810   30.9900 H   0  0  0  0  0  0  0  0  0  0  0  0
   37.9240   26.6880   31.8460 H   0  0  0  0  0  0  0  0  0  0  0  0
   35.8600   29.8410   30.6170 H   0  0  0  0  0  0  0  0  0  0  0  0
   36.9030   30.3820   31.9360 H   0  0  0  0  0  0  0  0  0  0  0  0
   35.1770   29.6020   33.5670 O   0  0  0  0  0  0  0  0  0  0  0  0
   33.8730   29.3190   33.9580 C   0  0  0  0  0  3  0  0  0  0  0  0
   33.4170   30.1130   35.1340 C   0  0  0  0  0  2  0  0  0  0  0  0
   32.2210   29.4170   35.7540 C   0  0  0  0  0  2  0  0  0  0  0  0
   31.3770   28.8060   34.6870 C   0  0  0  0  0  2  0  0  0  0  0  0
   31.4890   29.5240   33.3580 C   0  0  0  0  0  2  0  0  0  0  0  0
   32.8850   29.5800   32.8190 C   0  0  0  0  0  2  0  0  0  0  0  0
   39.5990   27.0060   33.9750 O   0  0  0  0  0  0  0  0  0  0  0  0
   38.2620   27.1450   34.6380 P   0  0  1  0  0  0  0  0  0  0  0  0
   38.5280   27.7070   36.2440 O   0  0  0  0  0  0  0  0  0  0  0  0
   37.9280   28.4880   36.4230 H   0  0  0  0  0  0  0  0  0  0  0  0
   37.4620   25.6510   34.6990 O   0  0  0  0  0  0  0  0  0  0  0  0
   38.4370   24.6720   34.8080 C   0  0  0  0  0  0  0  0  0  0  0  0
   39.4370   25.0510   34.4490 H   0  0  0  0  0  0  0  0  0  0  0  0
   38.2520   23.7750   34.1780 H   0  0  0  0  0  0  0  0  0  0  0  0
   38.6190   24.1830   36.1920 C   0  0  0  0  0  0  0  0  0  0  0  0
   39.6550   23.3050   36.4080 C   0  0  0  0  0  0  0  0  0  0  0  0
   39.8810   22.8050   37.6940 C   0  0  0  0  0  0  0  0  0  0  0  0
   39.0370   23.2320   38.6750 N   0  0  0  0  0  0  0  0  0  0  0  0
   38.0280   24.0930   38.4400 C   0  0  0  0  0  0  0  0  0  0  0  0
   37.8150   24.5720   37.1960 N   0  0  0  0  0  0  0  0  0  0  0  0
   40.3680   22.9150   35.7010 H   0  0  0  0  0  0  0  0  0  0  0  0
   40.6740   22.1100   37.9490 H   0  0  0  0  0  0  0  0  0  0  0  0
   37.3940   24.3890   39.2760 H   0  0  0  0  0  0  0  0  0  0  0  0
  1 21  1  0  0  0  0
  2  7  1  6  0  0  0
  2  3  1  0  0  0  0
  2 13  1  0  0  0  0
  3  8  1  1  0  0  0
  3  1  1  0  0  0  0
  4 10  1  0  0  0  0
  4  3  1  0  0  0  0
  5  6  1  0  0  0  0
  5  4  1  0  0  0  0
  6 12  1  0  0  0  0
  6  2  1  0  0  0  0
  9  4  1  0  0  0  0
 11  6  1  0  0  0  0
 13 14  1  0  0  0  0
 14 15  1  0  0  0  0
 15 16  1  0  0  0  0
 17 16  1  0  0  0  0
 18 17  1  0  0  0  0
 19 18  1  0  0  0  0
 19 14  1  0  0  0  0
 21 20  2  6  0  0  0
 21 24  1  0  0  0  0
 21 22  1  0  0  0  0
 22 23  1  0  0  0  0
 24 25  1  0  0  0  0
 25 28  1  0  0  0  0
 26 25  1  0  0  0  0
 27 25  1  0  0  0  0
 28 29  2  0  0  0  0
 28 33  1  0  0  0  0
 29 30  1  0  0  0  0
 30 35  1  0  0  0  0
 30 31  2  0  0  0  0
 32 31  1  0  0  0  0
 32 36  1  0  0  0  0
 33 32  2  0  0  0  0
 34 29  1  0  0  0  0
M  END
>  <minimizedAffinity>
-5.02268934

$$$$

 OpenBabel03272504243D

 36 38  0  0  1  0  0  0  0  0999 V2000
   39.6370   24.8220   35.3820 O   0  0  0  0  0  0  0  0  0  0  0  0
   38.0690   23.1290   35.0890 C   0  0  2  0  0  0  0  0  0  0  0  0
   38.3390   24.4900   35.7000 C   0  0  1  0  0  0  0  0  0  0  0  0
   38.2560   24.0880   37.1800 C   0  0  0  0  0  0  0  0  0  0  0  0
   39.1020   22.9930   37.1990 O   0  0  0  0  0  0  0  0  0  0  0  0
   38.8680   22.2620   36.0540 C   0  0  0  0  0  0  0  0  0  0  0  0
   37.0060   22.8420   35.1550 H   0  0  0  0  0  0  0  0  0  0  0  0
   37.5900   25.2470   35.4490 H   0  0  0  0  0  0  0  0  0  0  0  0
   37.2140   23.8310   37.3930 H   0  0  0  0  0  0  0  0  0  0  0  0
   38.6540   24.9420   37.7650 H   0  0  0  0  0  0  0  0  0  0  0  0
   38.3630   21.2990   36.2300 H   0  0  0  0  0  0  0  0  0  0  0  0
   39.8740   21.9950   35.6380 H   0  0  0  0  0  0  0  0  0  0  0  0
   38.5940   23.1160   33.8070 O   0  0  0  0  0  0  0  0  0  0  0  0
   37.5510   23.3350   32.9140 C   0  0  0  0  0  3  0  0  0  0  0  0
   38.0050   23.7290   31.5510 C   0  0  0  0  0  2  0  0  0  0  0  0
   36.8480   24.3870   30.8260 C   0  0  0  0  0  2  0  0  0  0  0  0
   35.5670   23.7220   31.2010 C   0  0  0  0  0  2  0  0  0  0  0  0
   35.7470   22.2750   31.6080 C   0  0  0  0  0  2  0  0  0  0  0  0
   36.6810   22.0850   32.7630 C   0  0  0  0  0  2  0  0  0  0  0  0
   39.0350   27.3310   35.7050 O   0  0  0  0  0  0  0  0  0  0  0  0
   39.7920   26.3970   34.8100 P   0  0  1  0  0  0  0  0  0  0  0  0
   41.4510   26.8610   34.8500 O   0  0  0  0  0  0  0  0  0  0  0  0
   42.0140   26.0520   35.0210 H   0  0  0  0  0  0  0  0  0  0  0  0
   39.2260   26.5000   33.2150 O   0  0  0  0  0  0  0  0  0  0  0  0
   38.0200   27.1810   33.2540 C   0  0  0  0  0  0  0  0  0  0  0  0
   38.0260   27.9740   34.0570 H   0  0  0  0  0  0  0  0  0  0  0  0
   37.1480   26.5440   33.5180 H   0  0  0  0  0  0  0  0  0  0  0  0
   37.6840   27.8460   31.9770 C   0  0  0  0  0  0  0  0  0  0  0  0
   36.5610   28.6410   31.9680 C   0  0  0  0  0  0  0  0  0  0  0  0
   36.1880   29.2980   30.7920 C   0  0  0  0  0  0  0  0  0  0  0  0
   36.9830   29.1020   29.7020 N   0  0  0  0  0  0  0  0  0  0  0  0
   38.0780   28.3180   29.7330 C   0  0  0  0  0  0  0  0  0  0  0  0
   38.4320   27.6860   30.8720 N   0  0  0  0  0  0  0  0  0  0  0  0
   35.8790   28.8540   32.7740 H   0  0  0  0  0  0  0  0  0  0  0  0
   35.3190   29.9410   30.7000 H   0  0  0  0  0  0  0  0  0  0  0  0
   38.6640   28.2100   28.8210 H   0  0  0  0  0  0  0  0  0  0  0  0
  1  3  1  0  0  0  0
  2  7  1  1  0  0  0
  2  3  1  0  0  0  0
  2  6  1  0  0  0  0
  3  8  1  6  0  0  0
  3  4  1  0  0  0  0
  4  5  1  0  0  0  0
  4  9  1  0  0  0  0
  4 10  1  0  0  0  0
  6 11  1  0  0  0  0
  6  5  1  0  0  0  0
 12  6  1  0  0  0  0
 13  2  1  0  0  0  0
 14 13  1  0  0  0  0
 15 14  1  0  0  0  0
 16 17  1  0  0  0  0
 16 15  1  0  0  0  0
 17 18  1  0  0  0  0
 18 19  1  0  0  0  0
 19 14  1  0  0  0  0
 21 22  1  0  0  0  0
 21  1  1  0  0  0  0
 21 20  2  1  0  0  0
 22 23  1  0  0  0  0
 24 25  1  0  0  0  0
 24 21  1  0  0  0  0
 25 27  1  0  0  0  0
 25 26  1  0  0  0  0
 28 25  1  0  0  0  0
 29 28  1  0  0  0  0
 29 34  1  0  0  0  0
 30 29  2  0  0  0  0
 31 32  2  0  0  0  0
 31 30  1  0  0  0  0
 32 33  1  0  0  0  0
 33 28  2  0  0  0  0
 35 30  1  0  0  0  0
 36 32  1  0  0  0  0
M  END
>  <minimizedAffinity>
-5.02117634

$$$$

 OpenBabel03272504243D

 36 38  0  0  1  0  0  0  0  0999 V2000
   37.6760   27.9070   32.8020 O   0  0  0  0  0  0  0  0  0  0  0  0
   35.5130   28.7610   32.8770 C   0  0  2  0  0  0  0  0  0  0  0  0
   36.3960   27.6360   32.3730 C   0  0  1  0  0  0  0  0  0  0  0  0
   36.2840   27.9240   30.8690 C   0  0  0  0  0  0  0  0  0  0  0  0
   36.5760   29.2760   30.8410 O   0  0  0  0  0  0  0  0  0  0  0  0
   35.9480   29.8630   31.9180 C   0  0  0  0  0  0  0  0  0  0  0  0
   34.4410   28.5580   32.7170 H   0  0  0  0  0  0  0  0  0  0  0  0
   36.0250   26.6360   32.6170 H   0  0  0  0  0  0  0  0  0  0  0  0
   35.2570   27.6990   30.5660 H   0  0  0  0  0  0  0  0  0  0  0  0
   37.0620   27.3110   30.3680 H   0  0  0  0  0  0  0  0  0  0  0  0
   35.0970   30.5070   31.6460 H   0  0  0  0  0  0  0  0  0  0  0  0
   36.7000   30.5500   32.3870 H   0  0  0  0  0  0  0  0  0  0  0  0
   35.8620   29.0330   34.1890 O   0  0  0  0  0  0  0  0  0  0  0  0
   35.3010   30.2560   34.5370 C   0  0  0  0  0  3  0  0  0  0  0  0
   33.8860   30.1560   34.9920 C   0  0  0  0  0  2  0  0  0  0  0  0
   33.2450   31.5260   34.8870 C   0  0  0  0  0  2  0  0  0  0  0  0
   34.2390   32.5830   35.2330 C   0  0  0  0  0  2  0  0  0  0  0  0
   35.3160   32.0970   36.1810 C   0  0  0  0  0  2  0  0  0  0  0  0
   36.0960   30.9300   35.6580 C   0  0  0  0  0  2  0  0  0  0  0  0
   38.9780   25.7770   32.0760 O   0  0  0  0  0  0  0  0  0  0  0  0
   38.5130   26.5290   33.2860 P   0  0  1  0  0  0  0  0  0  0  0  0
   39.9080   26.9920   34.1850 O   0  0  0  0  0  0  0  0  0  0  0  0
   39.8480   27.9650   34.4070 H   0  0  0  0  0  0  0  0  0  0  0  0
   37.5250   25.5530   34.2590 O   0  0  0  0  0  0  0  0  0  0  0  0
   37.8070   25.8760   35.5760 C   0  0  0  0  0  0  0  0  0  0  0  0
   36.8650   26.1360   36.1430 H   0  0  0  0  0  0  0  0  0  0  0  0
   38.4440   26.7800   35.6960 H   0  0  0  0  0  0  0  0  0  0  0  0
   38.4810   24.7860   36.3130 C   0  0  0  0  0  0  0  0  0  0  0  0
   37.9470   24.4380   37.5320 C   0  0  0  0  0  0  0  0  0  0  0  0
   38.5380   23.4140   38.2790 C   0  0  0  0  0  0  0  0  0  0  0  0
   39.6340   22.8130   37.7350 N   0  0  0  0  0  0  0  0  0  0  0  0
   40.1410   23.1720   36.5400 C   0  0  0  0  0  0  0  0  0  0  0  0
   39.5660   24.1610   35.8240 N   0  0  0  0  0  0  0  0  0  0  0  0
   37.0900   24.8520   38.0370 H   0  0  0  0  0  0  0  0  0  0  0  0
   38.1810   23.0790   39.2470 H   0  0  0  0  0  0  0  0  0  0  0  0
   41.0200   22.6450   36.1710 H   0  0  0  0  0  0  0  0  0  0  0  0
  1 21  1  0  0  0  0
  2  7  1  6  0  0  0
  2 13  1  0  0  0  0
  3  8  1  1  0  0  0
  3  1  1  0  0  0  0
  3  2  1  0  0  0  0
  4  3  1  0  0  0  0
  5  4  1  0  0  0  0
  5  6  1  0  0  0  0
  6 12  1  0  0  0  0
  6  2  1  0  0  0  0
  9  4  1  0  0  0  0
 10  4  1  0  0  0  0
 11  6  1  0  0  0  0
 13 14  1  0  0  0  0
 14 15  1  0  0  0  0
 14 19  1  0  0  0  0
 16 15  1  0  0  0  0
 16 17  1  0  0  0  0
 17 18  1  0  0  0  0
 19 18  1  0  0  0  0
 21 20  2  6  0  0  0
 21 22  1  0  0  0  0
 21 24  1  0  0  0  0
 22 23  1  0  0  0  0
 24 25  1  0  0  0  0
 25 27  1  0  0  0  0
 25 26  1  0  0  0  0
 25 28  1  0  0  0  0
 28 29  1  0  0  0  0
 29 34  1  0  0  0  0
 29 30  2  0  0  0  0
 30 35  1  0  0  0  0
 31 30  1  0  0  0  0
 32 31  2  0  0  0  0
 33 28  2  0  0  0  0
 33 32  1  0  0  0  0
 36 32  1  0  0  0  0
M  END
>  <minimizedAffinity>
-4.94506407

$$$$

 OpenBabel03272504243D

 36 38  0  0  1  0  0  0  0  0999 V2000
   36.6150   23.5240   32.4280 O   0  0  0  0  0  0  0  0  0  0  0  0
   38.1700   22.4850   33.8120 C   0  0  2  0  0  0  0  0  0  0  0  0
   37.6880   22.6620   32.3860 C   0  0  1  0  0  0  0  0  0  0  0  0
   37.1900   21.2300   32.1410 C   0  0  0  0  0  0  0  0  0  0  0  0
   36.4000   21.0350   33.2600 O   0  0  0  0  0  0  0  0  0  0  0  0
   37.0560   21.5880   34.3380 C   0  0  0  0  0  0  0  0  0  0  0  0
   39.1230   21.9340   33.8680 H   0  0  0  0  0  0  0  0  0  0  0  0
   38.4780   22.9370   31.6800 H   0  0  0  0  0  0  0  0  0  0  0  0
   38.0670   20.5770   32.1140 H   0  0  0  0  0  0  0  0  0  0  0  0
   36.5990   21.2540   31.2030 H   0  0  0  0  0  0  0  0  0  0  0  0
   37.4520   20.8460   35.0520 H   0  0  0  0  0  0  0  0  0  0  0  0
   36.2890   22.1690   34.9120 H   0  0  0  0  0  0  0  0  0  0  0  0
   38.1820   23.7270   34.4240 O   0  0  0  0  0  0  0  0  0  0  0  0
   38.3530   23.5310   35.7900 C   0  0  0  0  0  3  0  0  0  0  0  0
   39.7810   23.4920   36.2130 C   0  0  0  0  0  2  0  0  0  0  0  0
   39.8670   22.8200   37.5690 C   0  0  0  0  0  2  0  0  0  0  0  0
   38.6830   23.1890   38.3970 C   0  0  0  0  0  2  0  0  0  0  0  0
   38.0980   24.5370   38.0280 C   0  0  0  0  0  2  0  0  0  0  0  0
   37.6670   24.6350   36.5980 C   0  0  0  0  0  2  0  0  0  0  0  0
   37.8880   24.5900   30.4260 O   0  0  0  0  0  0  0  0  0  0  0  0
   36.8070   24.8650   31.4280 P   0  0  1  0  0  0  0  0  0  0  0  0
   35.3460   25.1460   30.5610 O   0  0  0  0  0  0  0  0  0  0  0  0
   34.6160   24.5870   30.9540 H   0  0  0  0  0  0  0  0  0  0  0  0
   37.1770   26.2380   32.3520 O   0  0  0  0  0  0  0  0  0  0  0  0
   38.1960   26.9070   31.6950 C   0  0  0  0  0  0  0  0  0  0  0  0
   37.8870   27.9590   31.4260 H   0  0  0  0  0  0  0  0  0  0  0  0
   38.4780   26.4570   30.7180 H   0  0  0  0  0  0  0  0  0  0  0  0
   39.4400   27.0000   32.4890 C   0  0  0  0  0  0  0  0  0  0  0  0
   39.3290   26.7870   33.8440 C   0  0  0  0  0  0  0  0  0  0  0  0
   40.4670   26.8600   34.6510 C   0  0  0  0  0  0  0  0  0  0  0  0
   41.6450   27.1450   34.0260 N   0  0  0  0  0  0  0  0  0  0  0  0
   41.7300   27.3500   32.6980 C   0  0  0  0  0  0  0  0  0  0  0  0
   40.6270   27.2790   31.9230 N   0  0  0  0  0  0  0  0  0  0  0  0
   38.4480   26.5570   34.4210 H   0  0  0  0  0  0  0  0  0  0  0  0
   40.4660   26.7060   35.7250 H   0  0  0  0  0  0  0  0  0  0  0  0
   42.7070   27.5740   32.2700 H   0  0  0  0  0  0  0  0  0  0  0  0
  2  7  1  1  0  0  0
  2  6  1  0  0  0  0
  2 13  1  0  0  0  0
  3  8  1  6  0  0  0
  3  1  1  0  0  0  0
  3  2  1  0  0  0  0
  4  3  1  0  0  0  0
  4  5  1  0  0  0  0
  5  6  1  0  0  0  0
  6 12  1  0  0  0  0
  6 11  1  0  0  0  0
  9  4  1  0  0  0  0
 10  4  1  0  0  0  0
 13 14  1  0  0  0  0
 14 15  1  0  0  0  0
 14 19  1  0  0  0  0
 15 16  1  0  0  0  0
 16 17  1  0  0  0  0
 18 17  1  0  0  0  0
 19 18  1  0  0  0  0
 21 20  2  6  0  0  0
 21 24  1  0  0  0  0
 21  1  1  0  0  0  0
 22 23  1  0  0  0  0
 22 21  1  0  0  0  0
 25 24  1  0  0  0  0
 25 28  1  0  0  0  0
 26 25  1  0  0  0  0
 27 25  1  0  0  0  0
 28 29  1  0  0  0  0
 29 34  1  0  0  0  0
 29 30  2  0  0  0  0
 30 35  1  0  0  0  0
 31 30  1  0  0  0  0
 32 31  2  0  0  0  0
 33 28  2  0  0  0  0
 33 32  1  0  0  0  0
 36 32  1  0  0  0  0
M  END
>  <minimizedAffinity>
-4.87094402

$$$$

 OpenBabel03272504243D

 36 38  0  0  1  0  0  0  0  0999 V2000
   38.5360   25.1520   36.6270 O   0  0  0  0  0  0  0  0  0  0  0  0
   39.4690   23.0300   36.4310 C   0  0  2  0  0  0  0  0  0  0  0  0
   38.2370   23.8800   36.1910 C   0  0  1  0  0  0  0  0  0  0  0  0
   37.2980   23.1970   37.1960 C   0  0  0  0  0  0  0  0  0  0  0  0
   38.0890   23.1950   38.3310 O   0  0  0  0  0  0  0  0  0  0  0  0
   39.3750   22.8810   37.9450 C   0  0  0  0  0  0  0  0  0  0  0  0
   39.3850   22.0300   35.9730 H   0  0  0  0  0  0  0  0  0  0  0  0
   37.8450   23.8180   35.1720 H   0  0  0  0  0  0  0  0  0  0  0  0
   37.0840   22.1930   36.8170 H   0  0  0  0  0  0  0  0  0  0  0  0
   36.4100   23.8540   37.2990 H   0  0  0  0  0  0  0  0  0  0  0  0
   39.7090   21.8810   38.2640 H   0  0  0  0  0  0  0  0  0  0  0  0
   40.0500   23.6010   38.4760 H   0  0  0  0  0  0  0  0  0  0  0  0
   40.5810   23.7550   36.0390 O   0  0  0  0  0  0  0  0  0  0  0  0
   41.6840   22.9100   36.0880 C   0  0  0  0  0  3  0  0  0  0  0  0
   41.7900   21.9970   34.9150 C   0  0  0  0  0  2  0  0  0  0  0  0
   42.7000   20.8410   35.2810 C   0  0  0  0  0  2  0  0  0  0  0  0
   43.8030   21.3200   36.1620 C   0  0  0  0  0  2  0  0  0  0  0  0
   44.1440   22.7800   35.9470 C   0  0  0  0  0  2  0  0  0  0  0  0
   42.9880   23.7070   36.1660 C   0  0  0  0  0  2  0  0  0  0  0  0
   36.7430   26.5000   35.3130 O   0  0  0  0  0  0  0  0  0  0  0  0
   38.2240   26.3340   35.4710 P   0  0  1  0  0  0  0  0  0  0  0  0
   38.8670   27.8410   36.0040 O   0  0  0  0  0  0  0  0  0  0  0  0
   39.4600   27.6840   36.7940 H   0  0  0  0  0  0  0  0  0  0  0  0
   38.9450   25.9160   33.9940 O   0  0  0  0  0  0  0  0  0  0  0  0
   38.0500   26.2590   32.9940 C   0  0  0  0  0  0  0  0  0  0  0  0
   38.5700   26.7950   32.1470 H   0  0  0  0  0  0  0  0  0  0  0  0
   37.2630   26.9760   33.3160 H   0  0  0  0  0  0  0  0  0  0  0  0
   37.3460   25.0940   32.4150 C   0  0  0  0  0  0  0  0  0  0  0  0
   36.1940   25.3530   31.7110 C   0  0  0  0  0  0  0  0  0  0  0  0
   35.4810   24.2950   31.1380 C   0  0  0  0  0  0  0  0  0  0  0  0
   35.9890   23.0440   31.3210 N   0  0  0  0  0  0  0  0  0  0  0  0
   37.1200   22.8140   32.0150 C   0  0  0  0  0  0  0  0  0  0  0  0
   37.8040   23.8400   32.5660 N   0  0  0  0  0  0  0  0  0  0  0  0
   35.7200   26.3010   31.5150 H   0  0  0  0  0  0  0  0  0  0  0  0
   34.5650   24.4120   30.5690 H   0  0  0  0  0  0  0  0  0  0  0  0
   37.4650   21.7850   32.1190 H   0  0  0  0  0  0  0  0  0  0  0  0
  2  7  1  6  0  0  0
  2  6  1  0  0  0  0
  3  8  1  6  0  0  0
  3  2  1  0  0  0  0
  3  1  1  0  0  0  0
  3  4  1  0  0  0  0
  4 10  1  0  0  0  0
  4  5  1  0  0  0  0
  6 11  1  0  0  0  0
  6  5  1  0  0  0  0
  6 12  1  0  0  0  0
  9  4  1  0  0  0  0
 13 14  1  0  0  0  0
 13  2  1  0  0  0  0
 14 19  1  0  0  0  0
 15 16  1  0  0  0  0
 15 14  1  0  0  0  0
 16 17  1  0  0  0  0
 18 17  1  0  0  0  0
 18 19  1  0  0  0  0
 21 20  2  6  0  0  0
 21 22  1  0  0  0  0
 21  1  1  0  0  0  0
 22 23  1  0  0  0  0
 24 21  1  0  0  0  0
 25 27  1  0  0  0  0
 25 24  1  0  0  0  0
 26 25  1  0  0  0  0
 28 33  1  0  0  0  0
 28 25  1  0  0  0  0
 29 28  2  0  0  0  0
 30 31  2  0  0  0  0
 30 29  1  0  0  0  0
 31 32  1  0  0  0  0
 32 36  1  0  0  0  0
 32 33  2  0  0  0  0
 34 29  1  0  0  0  0
 35 30  1  0  0  0  0
M  END
>  <minimizedAffinity>
-4.85163784

$$$$

 OpenBabel03272504243D

 36 38  0  0  1  0  0  0  0  0999 V2000
   39.0610   24.7390   35.7140 O   0  0  0  0  0  0  0  0  0  0  0  0
   38.2820   22.5480   35.6560 C   0  0  2  0  0  0  0  0  0  0  0  0
   38.1460   23.9050   36.3180 C   0  0  1  0  0  0  0  0  0  0  0  0
   38.6430   23.5190   37.7180 C   0  0  0  0  0  0  0  0  0  0  0  0
   39.8240   22.8700   37.4040 O   0  0  0  0  0  0  0  0  0  0  0  0
   39.5930   22.0970   36.2870 C   0  0  0  0  0  0  0  0  0  0  0  0
   37.4850   21.8500   35.9620 H   0  0  0  0  0  0  0  0  0  0  0  0
   37.1200   24.2850   36.3480 H   0  0  0  0  0  0  0  0  0  0  0  0
   37.8940   22.8590   38.1630 H   0  0  0  0  0  0  0  0  0  0  0  0
   38.8140   24.4680   38.2680 H   0  0  0  0  0  0  0  0  0  0  0  0
   39.5830   21.0130   36.4840 H   0  0  0  0  0  0  0  0  0  0  0  0
   40.4640   22.2630   35.6010 H   0  0  0  0  0  0  0  0  0  0  0  0
   38.3910   22.7400   34.2890 O   0  0  0  0  0  0  0  0  0  0  0  0
   37.3560   22.0440   33.6740 C   0  0  0  0  0  3  0  0  0  0  0  0
   37.8220   21.0320   32.6840 C   0  0  0  0  0  2  0  0  0  0  0  0
   36.6690   20.6900   31.7620 C   0  0  0  0  0  2  0  0  0  0  0  0
   35.3870   20.6920   32.5250 C   0  0  0  0  0  2  0  0  0  0  0  0
   35.5700   20.3720   33.9940 C   0  0  0  0  0  2  0  0  0  0  0  0
   36.4930   21.3120   34.7050 C   0  0  0  0  0  2  0  0  0  0  0  0
   38.2940   26.9390   36.8710 O   0  0  0  0  0  0  0  0  0  0  0  0
   38.4920   26.3120   35.5240 P   0  0  1  0  0  0  0  0  0  0  0  0
   39.6660   27.2470   34.6770 O   0  0  0  0  0  0  0  0  0  0  0  0
   40.3630   26.6370   34.3000 H   0  0  0  0  0  0  0  0  0  0  0  0
   37.0440   26.3100   34.6410 O   0  0  0  0  0  0  0  0  0  0  0  0
   37.3310   26.8250   33.3880 C   0  0  0  0  0  0  0  0  0  0  0  0
   38.3080   27.3890   33.3930 H   0  0  0  0  0  0  0  0  0  0  0  0
   36.5940   27.5750   33.0260 H   0  0  0  0  0  0  0  0  0  0  0  0
   37.4240   25.7870   32.3380 C   0  0  0  0  0  0  0  0  0  0  0  0
   36.2390   25.2500   31.8910 C   0  0  0  0  0  0  0  0  0  0  0  0
   36.2570   24.2650   30.9000 C   0  0  0  0  0  0  0  0  0  0  0  0
   37.4810   23.8920   30.4290 N   0  0  0  0  0  0  0  0  0  0  0  0
   38.6290   24.4320   30.8820 C   0  0  0  0  0  0  0  0  0  0  0  0
   38.6040   25.3830   31.8400 N   0  0  0  0  0  0  0  0  0  0  0  0
   35.2330   25.4810   32.2010 H   0  0  0  0  0  0  0  0  0  0  0  0
   35.3700   23.7900   30.4930 H   0  0  0  0  0  0  0  0  0  0  0  0
   39.5690   24.0820   30.4560 H   0  0  0  0  0  0  0  0  0  0  0  0
  1  3  1  0  0  0  0
  2  7  1  1  0  0  0
  2  6  1  0  0  0  0
  2  3  1  0  0  0  0
  3  8  1  6  0  0  0
  3  4  1  0  0  0  0
  4  9  1  0  0  0  0
  4 10  1  0  0  0  0
  5  4  1  0  0  0  0
  6 11  1  0  0  0  0
  6  5  1  0  0  0  0
 12  6  1  0  0  0  0
 13  2  1  0  0  0  0
 14 13  1  0  0  0  0
 14 19  1  0  0  0  0
 15 14  1  0  0  0  0
 16 17  1  0  0  0  0
 16 15  1  0  0  0  0
 17 18  1  0  0  0  0
 18 19  1  0  0  0  0
 21  1  1  0  0  0  0
 21 20  2  1  0  0  0
 22 21  1  0  0  0  0
 23 22  1  0  0  0  0
 24 21  1  0  0  0  0
 25 26  1  0  0  0  0
 25 24  1  0  0  0  0
 27 25  1  0  0  0  0
 28 25  1  0  0  0  0
 29 34  1  0  0  0  0
 29 28  1  0  0  0  0
 30 29  2  0  0  0  0
 31 32  2  0  0  0  0
 31 30  1  0  0  0  0
 32 33  1  0  0  0  0
 33 28  2  0  0  0  0
 35 30  1  0  0  0  0
 36 32  1  0  0  0  0
M  END
>  <minimizedAffinity>
-4.8406353

$$$$
