
 OpenBabel03262521303D

 28 30  0  0  1  0  0  0  0  0999 V2000
   38.4440   31.8010   48.5710 C   0  0  1  0  0  0  0  0  0  0  0  0
   37.9840   30.3740   48.6180 C   0  0  2  0  0  0  0  0  0  0  0  0
   37.9860   29.8660   47.3360 O   0  0  0  0  0  0  0  0  0  0  0  0
   38.8670   30.6540   46.5930 C   0  0  0  0  0  0  0  0  0  0  0  0
   38.5140   32.0450   47.0860 C   0  0  2  0  0  0  0  0  0  0  0  0
   39.5080   31.8680   48.9300 H   0  0  0  0  0  0  0  0  0  0  0  0
   38.7080   29.7930   49.2240 H   0  0  0  0  0  0  0  0  0  0  0  0
   38.6850   30.5230   45.5250 H   0  0  0  0  0  0  0  0  0  0  0  0
   39.9070   30.4500   46.8990 H   0  0  0  0  0  0  0  0  0  0  0  0
   37.5000   32.3330   46.7230 H   0  0  0  0  0  0  0  0  0  0  0  0
   35.2680   29.3210   51.0290 C   0  0  0  0  0  0  0  0  0  0  0  0
   36.5630   29.4810   50.4830 C   0  0  0  0  0  0  0  0  0  0  0  0
   36.6690   30.1710   49.2620 C   0  0  0  0  0  0  0  0  0  0  0  0
   35.5400   30.6460   48.6680 N   0  0  0  0  0  0  0  0  0  0  0  0
   34.3210   30.4720   49.2200 C   0  0  0  0  0  0  0  0  0  0  0  0
   34.1910   29.8200   50.3820 N   0  0  0  0  0  0  0  0  0  0  0  0
   35.1410   28.7980   51.9650 H   0  0  0  0  0  0  0  0  0  0  0  0
   37.4390   29.0900   50.9830 H   0  0  0  0  0  0  0  0  0  0  0  0
   33.5230   30.9070   48.6300 H   0  0  0  0  0  0  0  0  0  0  0  0
   37.6860   32.6830   49.2660 O   0  0  0  0  0  0  0  0  0  0  0  0
   36.8220   32.8750   48.7950 H   0  0  0  0  0  0  0  0  0  0  0  0
   39.4600   32.9760   46.7400 O   0  0  0  0  0  0  0  0  0  0  0  0
   39.4250   33.3300   45.3980 C   0  0  0  0  0  0  0  0  0  0  0  0
   40.7050   32.8540   44.7630 C   0  0  0  0  0  0  0  0  0  0  0  0
   40.4880   31.6050   43.9280 C   0  0  0  0  0  0  0  0  0  0  0  0
   39.5440   31.8730   42.7700 C   0  0  0  0  0  0  0  0  0  0  0  0
   38.3510   32.6480   43.2460 C   0  0  0  0  0  0  0  0  0  0  0  0
   38.2810   32.5860   44.7570 C   0  0  0  0  0  0  0  0  0  0  0  0
  1  2  1  0  0  0  0
  1  6  1  1  0  0  0
  1 20  1  0  0  0  0
  2  7  1  1  0  0  0
  2 13  1  0  0  0  0
  3  2  1  0  0  0  0
  4  9  1  0  0  0  0
  4  5  1  0  0  0  0
  4  3  1  0  0  0  0
  5 10  1  6  0  0  0
  5  1  1  0  0  0  0
  8  4  1  0  0  0  0
 11 17  1  0  0  0  0
 12 18  1  0  0  0  0
 12 11  1  0  0  0  0
 13 12  2  0  0  0  0
 14 15  2  0  0  0  0
 14 13  1  0  0  0  0
 15 16  1  0  0  0  0
 16 11  2  0  0  0  0
 19 15  1  0  0  0  0
 21 20  1  0  0  0  0
 22  5  1  0  0  0  0
 23 22  1  0  0  0  0
 24 23  1  0  0  0  0
 25 24  1  0  0  0  0
 26 27  1  0  0  0  0
 26 25  1  0  0  0  0
 27 28  1  0  0  0  0
 28 23  1  0  0  0  0
M  END
>  <minimizedAffinity>
-4.86416769

>  <minimizedRMSD>
2.63633275

$$$$
