
 OpenBabel03272503503D

 34 36  0  0  1  0  0  0  0  0999 V2000
   33.2010   27.2040   45.7670 C   0  0  1  0  0  0  0  0  0  0  0  0
   33.8740   27.4530   47.1350 C   0  0  2  0  0  0  0  0  0  0  0  0
   33.7330   26.2600   47.7710 O   0  0  0  0  0  0  0  0  0  0  0  0
   34.0920   25.3140   46.8260 C   0  0  0  0  0  0  0  0  0  0  0  0
   33.6290   25.7950   45.4850 C   0  0  2  0  0  0  0  0  0  0  0  0
   33.6780   27.8810   45.0420 H   0  0  0  0  0  0  0  0  0  0  0  0
   34.9240   27.7730   46.9070 H   0  0  0  0  0  0  0  0  0  0  0  0
   33.5300   24.3850   47.0720 H   0  0  0  0  0  0  0  0  0  0  0  0
   35.1910   25.1980   46.8950 H   0  0  0  0  0  0  0  0  0  0  0  0
   32.8130   25.1680   45.0760 H   0  0  0  0  0  0  0  0  0  0  0  0
   31.8360   27.3850   45.8660 O   0  0  0  0  0  0  0  0  0  0  0  0
   31.5310   27.8630   45.0390 H   0  0  0  0  0  0  0  0  0  0  0  0
   33.2080   28.5220   47.6600 O   0  0  0  0  0  0  0  0  0  0  0  0
   35.2360   29.8230   46.5810 O   0  0  0  0  0  0  0  0  0  0  0  0
   34.0160   29.9870   47.4760 P   0  0  1  0  0  0  0  0  0  0  0  0
   33.0260   31.0990   46.6680 O   0  0  0  0  0  0  0  0  0  0  0  0
   32.0800   30.9590   46.9590 H   0  0  0  0  0  0  0  0  0  0  0  0
   34.3910   30.5420   49.0460 O   0  0  0  0  0  0  0  0  0  0  0  0
   35.6600   30.4110   49.5860 C   0  0  0  0  0  0  0  0  0  0  0  0
   36.1210   29.2550   50.2540 C   0  0  0  0  0  0  0  0  0  0  0  0
   37.4200   29.2640   50.7450 C   0  0  0  0  0  0  0  0  0  0  0  0
   38.1830   30.3810   50.5620 N   0  0  0  0  0  0  0  0  0  0  0  0
   37.7140   31.4800   49.9150 C   0  0  0  0  0  0  0  0  0  0  0  0
   36.4410   31.4920   49.4240 N   0  0  0  0  0  0  0  0  0  0  0  0
   35.4300   28.4280   50.3420 H   0  0  0  0  0  0  0  0  0  0  0  0
   37.7800   28.3830   51.2570 H   0  0  0  0  0  0  0  0  0  0  0  0
   38.3680   32.3340   49.8010 H   0  0  0  0  0  0  0  0  0  0  0  0
   34.6860   25.7940   44.5750 O   0  0  0  0  0  0  0  0  0  0  0  0
   34.9960   24.5300   44.1160 C   0  0  0  0  0  3  0  0  0  0  0  0
   34.5760   24.3280   42.6730 C   0  0  0  0  0  2  0  0  0  0  0  0
   35.5720   25.0480   41.7790 C   0  0  0  0  0  2  0  0  0  0  0  0
   36.9260   24.4050   41.8020 C   0  0  0  0  0  2  0  0  0  0  0  0
   36.9660   23.4540   42.9860 C   0  0  0  0  0  2  0  0  0  0  0  0
   36.4910   24.2760   44.1750 C   0  0  0  0  0  2  0  0  0  0  0  0
  1  6  1  6  0  0  0
  1 11  1  0  0  0  0
  1  2  1  0  0  0  0
  2  7  1  6  0  0  0
  2 13  1  0  0  0  0
  2  3  1  0  0  0  0
  4  9  1  0  0  0  0
  4  8  1  0  0  0  0
  4  3  1  0  0  0  0
  5 10  1  6  0  0  0
  5  1  1  0  0  0  0
  5  4  1  0  0  0  0
 12 11  1  0  0  0  0
 15 14  2  6  0  0  0
 15 13  1  0  0  0  0
 15 18  1  0  0  0  0
 16 17  1  0  0  0  0
 16 15  1  0  0  0  0
 18 19  1  0  0  0  0
 19 20  1  0  0  0  0
 20 25  1  0  0  0  0
 20 21  2  0  0  0  0
 21 26  1  0  0  0  0
 22 21  1  0  0  0  0
 23 22  2  0  0  0  0
 24 19  2  0  0  0  0
 24 23  1  0  0  0  0
 27 23  1  0  0  0  0
 28  5  1  0  0  0  0
 29 34  1  0  0  0  0
 29 28  1  0  0  0  0
 30 29  1  0  0  0  0
 31 32  1  0  0  0  0
 31 30  1  0  0  0  0
 32 33  1  0  0  0  0
 33 34  1  0  0  0  0
M  END
>  <minimizedAffinity>
-4.09928656

>  <minimizedRMSD>
2.14899206

$$$$
