
 OpenBabel03262522013D

 17 18  0  0  0  0  0  0  0  0999 V2000
   36.3970   23.9280   31.9290 C   0  0  0  0  0  0  0  0  0  0  0  0
   35.2320   24.0560   31.1740 C   0  0  0  0  0  0  0  0  0  0  0  0
   34.8250   25.3360   30.7900 C   0  0  0  0  0  0  0  0  0  0  0  0
   35.5970   26.3930   31.1790 N   0  0  0  0  0  0  0  0  0  0  0  0
   36.7090   26.2460   31.9030 C   0  0  0  0  0  0  0  0  0  0  0  0
   37.0840   25.0120   32.2620 N   0  0  0  0  0  0  0  0  0  0  0  0
   34.6240   23.1980   30.8700 H   0  0  0  0  0  0  0  0  0  0  0  0
   33.9490   25.5010   30.2160 H   0  0  0  0  0  0  0  0  0  0  0  0
   37.2860   27.1270   32.1840 H   0  0  0  0  0  0  0  0  0  0  0  0
   36.8120   22.5920   32.3240 C   0  0  0  0  0  0  0  0  0  0  0  0
   37.8660   22.3890   33.0070 O   0  0  0  0  0  0  0  0  0  0  0  0
   35.9160   21.4650   31.8730 C   0  0  0  0  0  3  0  0  0  0  0  0
   35.3880   20.7850   33.0680 C   0  0  0  0  0  2  0  0  0  0  0  0
   35.4440   19.3020   33.0970 C   0  0  0  0  0  2  0  0  0  0  0  0
   35.8080   18.6580   31.7810 C   0  0  0  0  0  2  0  0  0  0  0  0
   37.1380   19.3120   31.3900 C   0  0  0  0  0  2  0  0  0  0  0  0
   36.6820   20.6850   30.8790 C   0  0  0  0  0  2  0  0  0  0  0  0
  1  6  1  0  0  0  0
  1 10  1  0  0  0  0
  2  1  2  0  0  0  0
  3  2  1  0  0  0  0
  3  4  2  0  0  0  0
  4  5  1  0  0  0  0
  5  9  1  0  0  0  0
  5  6  2  0  0  0  0
  7  2  1  0  0  0  0
  8  3  1  0  0  0  0
 10 11  2  0  0  0  0
 12 10  1  0  0  0  0
 12 13  1  0  0  0  0
 13 14  1  0  0  0  0
 15 14  1  0  0  0  0
 16 15  1  0  0  0  0
 17 16  1  0  0  0  0
 17 12  1  0  0  0  0
M  END
>  <minimizedAffinity>
-4.09651375

$$$$

 OpenBabel03262522013D

 17 18  0  0  0  0  0  0  0  0999 V2000
   37.5450   22.3650   35.4510 C   0  0  0  0  0  0  0  0  0  0  0  0
   37.4100   21.9930   34.1140 C   0  0  0  0  0  0  0  0  0  0  0  0
   36.4130   21.0740   33.7760 C   0  0  0  0  0  0  0  0  0  0  0  0
   35.6260   20.5910   34.7810 N   0  0  0  0  0  0  0  0  0  0  0  0
   35.7740   20.9610   36.0550 C   0  0  0  0  0  0  0  0  0  0  0  0
   36.7330   21.8430   36.3600 N   0  0  0  0  0  0  0  0  0  0  0  0
   38.0500   22.3900   33.3200 H   0  0  0  0  0  0  0  0  0  0  0  0
   36.2590   20.7500   32.7780 H   0  0  0  0  0  0  0  0  0  0  0  0
   35.1140   20.5420   36.8150 H   0  0  0  0  0  0  0  0  0  0  0  0
   38.5840   23.3210   35.7920 C   0  0  0  0  0  0  0  0  0  0  0  0
   39.3880   23.1250   36.7590 O   0  0  0  0  0  0  0  0  0  0  0  0
   38.6490   24.5570   34.9310 C   0  0  0  0  0  3  0  0  0  0  0  0
   40.0640   24.9250   34.7500 C   0  0  0  0  0  2  0  0  0  0  0  0
   40.4380   26.3470   34.9530 C   0  0  0  0  0  2  0  0  0  0  0  0
   39.2690   27.2950   35.0750 C   0  0  0  0  0  2  0  0  0  0  0  0
   38.4240   26.7170   36.2140 C   0  0  0  0  0  2  0  0  0  0  0  0
   37.7200   25.5400   35.5260 C   0  0  0  0  0  2  0  0  0  0  0  0
  1 10  1  0  0  0  0
  1  6  1  0  0  0  0
  2  1  2  0  0  0  0
  3  2  1  0  0  0  0
  3  4  2  0  0  0  0
  4  5  1  0  0  0  0
  5  6  2  0  0  0  0
  5  9  1  0  0  0  0
  7  2  1  0  0  0  0
  8  3  1  0  0  0  0
 10 11  2  0  0  0  0
 12 17  1  0  0  0  0
 12 10  1  0  0  0  0
 13 12  1  0  0  0  0
 13 14  1  0  0  0  0
 14 15  1  0  0  0  0
 15 16  1  0  0  0  0
 17 16  1  0  0  0  0
M  END
>  <minimizedAffinity>
-4.06722116

$$$$

 OpenBabel03262522013D

 17 18  0  0  0  0  0  0  0  0999 V2000
   38.2660   25.2820   33.7150 C   0  0  0  0  0  0  0  0  0  0  0  0
   39.4050   26.0420   33.4480 C   0  0  0  0  0  0  0  0  0  0  0  0
   39.2820   27.1540   32.6120 C   0  0  0  0  0  0  0  0  0  0  0  0
   38.0460   27.4340   32.1030 N   0  0  0  0  0  0  0  0  0  0  0  0
   36.9690   26.6910   32.3720 C   0  0  0  0  0  0  0  0  0  0  0  0
   37.1060   25.6300   33.1760 N   0  0  0  0  0  0  0  0  0  0  0  0
   40.3890   25.8040   33.8650 H   0  0  0  0  0  0  0  0  0  0  0  0
   40.1080   27.7720   32.3690 H   0  0  0  0  0  0  0  0  0  0  0  0
   36.0070   26.9640   31.9370 H   0  0  0  0  0  0  0  0  0  0  0  0
   38.4050   24.1270   34.5860 C   0  0  0  0  0  0  0  0  0  0  0  0
   38.0310   22.9650   34.2270 O   0  0  0  0  0  0  0  0  0  0  0  0
   39.0180   24.3930   35.9380 C   0  0  0  0  0  3  0  0  0  0  0  0
   40.0160   23.3440   36.2110 C   0  0  0  0  0  2  0  0  0  0  0  0
   39.9830   22.6900   37.5430 C   0  0  0  0  0  2  0  0  0  0  0  0
   39.0830   23.3620   38.5520 C   0  0  0  0  0  2  0  0  0  0  0  0
   37.7140   23.4210   37.8670 C   0  0  0  0  0  2  0  0  0  0  0  0
   37.8990   24.5840   36.8830 C   0  0  0  0  0  2  0  0  0  0  0  0
  1 10  1  0  0  0  0
  2  1  1  0  0  0  0
  2  7  1  0  0  0  0
  3  2  2  0  0  0  0
  4  5  2  0  0  0  0
  4  3  1  0  0  0  0
  5  6  1  0  0  0  0
  6  1  2  0  0  0  0
  8  3  1  0  0  0  0
  9  5  1  0  0  0  0
 10 12  1  0  0  0  0
 11 10  2  0  0  0  0
 12 13  1  0  0  0  0
 12 17  1  0  0  0  0
 13 14  1  0  0  0  0
 14 15  1  0  0  0  0
 16 15  1  0  0  0  0
 17 16  1  0  0  0  0
M  END
>  <minimizedAffinity>
-4.03853941

$$$$

 OpenBabel03262522013D

 17 18  0  0  0  0  0  0  0  0999 V2000
   37.4060   26.4130   33.9960 C   0  0  0  0  0  0  0  0  0  0  0  0
   36.9210   27.7200   33.9690 C   0  0  0  0  0  0  0  0  0  0  0  0
   36.1430   28.1190   32.8790 C   0  0  0  0  0  0  0  0  0  0  0  0
   35.9010   27.1990   31.8990 N   0  0  0  0  0  0  0  0  0  0  0  0
   36.3770   25.9520   31.9460 C   0  0  0  0  0  0  0  0  0  0  0  0
   37.1200   25.5880   32.9980 N   0  0  0  0  0  0  0  0  0  0  0  0
   37.1240   28.4450   34.7630 H   0  0  0  0  0  0  0  0  0  0  0  0
   35.7440   29.0980   32.7990 H   0  0  0  0  0  0  0  0  0  0  0  0
   36.1500   25.2610   31.1340 H   0  0  0  0  0  0  0  0  0  0  0  0
   38.2140   26.0080   35.1340 C   0  0  0  0  0  0  0  0  0  0  0  0
   38.8970   26.8450   35.8050 O   0  0  0  0  0  0  0  0  0  0  0  0
   38.1920   24.5370   35.4650 C   0  0  0  0  0  3  0  0  0  0  0  0
   37.8550   24.3870   36.8910 C   0  0  0  0  0  2  0  0  0  0  0  0
   38.6880   23.4650   37.7040 C   0  0  0  0  0  2  0  0  0  0  0  0
   39.6290   22.5970   36.9050 C   0  0  0  0  0  2  0  0  0  0  0  0
   40.4490   23.5860   36.0710 C   0  0  0  0  0  2  0  0  0  0  0  0
   39.4600   23.9680   34.9620 C   0  0  0  0  0  2  0  0  0  0  0  0
  1 10  1  0  0  0  0
  2  1  1  0  0  0  0
  2  7  1  0  0  0  0
  3  2  2  0  0  0  0
  4  5  2  0  0  0  0
  4  3  1  0  0  0  0
  5  6  1  0  0  0  0
  6  1  2  0  0  0  0
  8  3  1  0  0  0  0
  9  5  1  0  0  0  0
 10 12  1  0  0  0  0
 10 11  2  0  0  0  0
 12 13  1  0  0  0  0
 13 14  1  0  0  0  0
 15 14  1  0  0  0  0
 16 15  1  0  0  0  0
 17 12  1  0  0  0  0
 17 16  1  0  0  0  0
M  END
>  <minimizedAffinity>
-4.02296448

$$$$

 OpenBabel03262522013D

 17 18  0  0  0  0  0  0  0  0999 V2000
   35.9250   28.7420   33.1190 C   0  0  0  0  0  0  0  0  0  0  0  0
   36.7150   27.9350   33.9380 C   0  0  0  0  0  0  0  0  0  0  0  0
   37.0430   26.6530   33.4910 C   0  0  0  0  0  0  0  0  0  0  0  0
   36.5680   26.2630   32.2720 N   0  0  0  0  0  0  0  0  0  0  0  0
   35.8130   27.0530   31.5050 C   0  0  0  0  0  0  0  0  0  0  0  0
   35.5090   28.2790   31.9490 N   0  0  0  0  0  0  0  0  0  0  0  0
   37.0870   28.2640   34.9130 H   0  0  0  0  0  0  0  0  0  0  0  0
   37.6390   25.9910   34.0650 H   0  0  0  0  0  0  0  0  0  0  0  0
   35.4630   26.6870   30.5390 H   0  0  0  0  0  0  0  0  0  0  0  0
   35.5890   30.0740   33.5920 C   0  0  0  0  0  0  0  0  0  0  0  0
   35.6090   31.0870   32.8220 O   0  0  0  0  0  0  0  0  0  0  0  0
   35.2170   30.1790   35.0500 C   0  0  0  0  0  3  0  0  0  0  0  0
   33.7720   30.4490   35.1420 C   0  0  0  0  0  2  0  0  0  0  0  0
   33.3290   31.5340   36.0530 C   0  0  0  0  0  2  0  0  0  0  0  0
   34.4050   32.0640   36.9710 C   0  0  0  0  0  2  0  0  0  0  0  0
   35.5400   32.4810   36.0300 C   0  0  0  0  0  2  0  0  0  0  0  0
   36.1670   31.1290   35.6650 C   0  0  0  0  0  2  0  0  0  0  0  0
  1 10  1  0  0  0  0
  1  2  1  0  0  0  0
  2  7  1  0  0  0  0
  3  2  2  0  0  0  0
  3  8  1  0  0  0  0
  4  3  1  0  0  0  0
  5  6  1  0  0  0  0
  5  4  2  0  0  0  0
  6  1  2  0  0  0  0
  9  5  1  0  0  0  0
 10 12  1  0  0  0  0
 11 10  2  0  0  0  0
 12 13  1  0  0  0  0
 12 17  1  0  0  0  0
 13 14  1  0  0  0  0
 14 15  1  0  0  0  0
 16 15  1  0  0  0  0
 17 16  1  0  0  0  0
M  END
>  <minimizedAffinity>
-4.02178049

$$$$

 OpenBabel03262522013D

 17 18  0  0  0  0  0  0  0  0999 V2000
   39.3210   25.7530   34.8250 C   0  0  0  0  0  0  0  0  0  0  0  0
   39.0710   26.8860   35.5990 C   0  0  0  0  0  0  0  0  0  0  0  0
   37.8760   27.5800   35.3960 C   0  0  0  0  0  0  0  0  0  0  0  0
   37.0170   27.1060   34.4460 N   0  0  0  0  0  0  0  0  0  0  0  0
   37.2780   26.0180   33.7160 C   0  0  0  0  0  0  0  0  0  0  0  0
   38.4280   25.3660   33.9250 N   0  0  0  0  0  0  0  0  0  0  0  0
   39.7700   27.2530   36.3570 H   0  0  0  0  0  0  0  0  0  0  0  0
   37.6260   28.4480   35.9510 H   0  0  0  0  0  0  0  0  0  0  0  0
   36.5540   25.6860   32.9720 H   0  0  0  0  0  0  0  0  0  0  0  0
   40.5670   25.0380   35.0440 C   0  0  0  0  0  0  0  0  0  0  0  0
   41.6970   25.6150   34.9560 O   0  0  0  0  0  0  0  0  0  0  0  0
   40.4340   23.5740   35.3810 C   0  0  0  0  0  3  0  0  0  0  0  0
   39.7160   23.4550   36.6620 C   0  0  0  0  0  2  0  0  0  0  0  0
   40.2810   22.5420   37.6860 C   0  0  0  0  0  2  0  0  0  0  0  0
   41.3940   21.6500   37.1910 C   0  0  0  0  0  2  0  0  0  0  0  0
   42.4250   22.6150   36.5980 C   0  0  0  0  0  2  0  0  0  0  0  0
   41.7830   22.9840   35.2540 C   0  0  0  0  0  2  0  0  0  0  0  0
  1 10  1  0  0  0  0
  1  2  1  0  0  0  0
  2  7  1  0  0  0  0
  3  2  2  0  0  0  0
  3  8  1  0  0  0  0
  4  3  1  0  0  0  0
  5  6  1  0  0  0  0
  5  4  2  0  0  0  0
  6  1  2  0  0  0  0
  9  5  1  0  0  0  0
 10 12  1  0  0  0  0
 11 10  2  0  0  0  0
 12 13  1  0  0  0  0
 13 14  1  0  0  0  0
 15 14  1  0  0  0  0
 16 15  1  0  0  0  0
 17 12  1  0  0  0  0
 17 16  1  0  0  0  0
M  END
>  <minimizedAffinity>
-3.99180365

$$$$

 OpenBabel03262522013D

 17 18  0  0  0  0  0  0  0  0999 V2000
   37.2100   25.3410   31.7200 C   0  0  0  0  0  0  0  0  0  0  0  0
   37.0650   23.9890   32.0310 C   0  0  0  0  0  0  0  0  0  0  0  0
   35.8550   23.3620   31.7230 C   0  0  0  0  0  0  0  0  0  0  0  0
   34.8800   24.1130   31.1320 N   0  0  0  0  0  0  0  0  0  0  0  0
   35.0420   25.4070   30.8440 C   0  0  0  0  0  0  0  0  0  0  0  0
   36.2080   25.9920   31.1460 N   0  0  0  0  0  0  0  0  0  0  0  0
   37.8570   23.4010   32.5050 H   0  0  0  0  0  0  0  0  0  0  0  0
   35.6810   22.3370   31.9340 H   0  0  0  0  0  0  0  0  0  0  0  0
   34.2270   25.9560   30.3710 H   0  0  0  0  0  0  0  0  0  0  0  0
   38.4720   25.9850   32.0440 C   0  0  0  0  0  0  0  0  0  0  0  0
   39.5430   25.7220   31.4100 O   0  0  0  0  0  0  0  0  0  0  0  0
   38.4300   26.9810   33.1760 C   0  0  0  0  0  3  0  0  0  0  0  0
   39.7830   27.0910   33.7480 C   0  0  0  0  0  2  0  0  0  0  0  0
   39.9140   27.0310   35.2250 C   0  0  0  0  0  2  0  0  0  0  0  0
   38.6080   27.1180   35.9780 C   0  0  0  0  0  2  0  0  0  0  0  0
   37.7530   25.9880   35.3940 C   0  0  0  0  0  2  0  0  0  0  0  0
   37.3080   26.5830   34.0520 C   0  0  0  0  0  2  0  0  0  0  0  0
  1  2  1  0  0  0  0
  1 10  1  0  0  0  0
  2  7  1  0  0  0  0
  3  8  1  0  0  0  0
  3  2  2  0  0  0  0
  4  3  1  0  0  0  0
  5  4  2  0  0  0  0
  5  6  1  0  0  0  0
  6  1  2  0  0  0  0
  9  5  1  0  0  0  0
 10 12  1  0  0  0  0
 11 10  2  0  0  0  0
 12 13  1  0  0  0  0
 12 17  1  0  0  0  0
 13 14  1  0  0  0  0
 14 15  1  0  0  0  0
 16 15  1  0  0  0  0
 17 16  1  0  0  0  0
M  END
>  <minimizedAffinity>
-3.88891673

$$$$

 OpenBabel03262522013D

 17 18  0  0  0  0  0  0  0  0999 V2000
   38.7110   23.9710   35.9770 C   0  0  0  0  0  0  0  0  0  0  0  0
   39.7500   23.1500   36.4150 C   0  0  0  0  0  0  0  0  0  0  0  0
   39.8300   22.8460   37.7760 C   0  0  0  0  0  0  0  0  0  0  0  0
   38.8790   23.3730   38.6030 N   0  0  0  0  0  0  0  0  0  0  0  0
   37.8920   24.1570   38.1610 C   0  0  0  0  0  0  0  0  0  0  0  0
   37.8320   24.4370   36.8530 N   0  0  0  0  0  0  0  0  0  0  0  0
   40.5050   22.7360   35.7390 H   0  0  0  0  0  0  0  0  0  0  0  0
   40.5950   22.2290   38.1730 H   0  0  0  0  0  0  0  0  0  0  0  0
   37.1610   24.5480   38.8680 H   0  0  0  0  0  0  0  0  0  0  0  0
   38.6370   24.2810   34.5600 C   0  0  0  0  0  0  0  0  0  0  0  0
   39.0800   23.4840   33.6730 O   0  0  0  0  0  0  0  0  0  0  0  0
   38.0040   25.6040   34.2080 C   0  0  0  0  0  3  0  0  0  0  0  0
   37.1640   25.4150   33.0140 C   0  0  0  0  0  2  0  0  0  0  0  0
   37.2980   26.4010   31.9130 C   0  0  0  0  0  2  0  0  0  0  0  0
   38.1030   27.6290   32.2620 C   0  0  0  0  0  2  0  0  0  0  0  0
   39.4450   27.0800   32.7570 C   0  0  0  0  0  2  0  0  0  0  0  0
   39.0940   26.6010   34.1710 C   0  0  0  0  0  2  0  0  0  0  0  0
  1  2  2  0  0  0  0
  1  6  1  0  0  0  0
  2  3  1  0  0  0  0
  3  8  1  0  0  0  0
  3  4  2  0  0  0  0
  5  4  1  0  0  0  0
  5  9  1  0  0  0  0
  6  5  2  0  0  0  0
  7  2  1  0  0  0  0
 10  1  1  0  0  0  0
 11 10  2  0  0  0  0
 12 10  1  0  0  0  0
 13 12  1  0  0  0  0
 14 15  1  0  0  0  0
 14 13  1  0  0  0  0
 15 16  1  0  0  0  0
 16 17  1  0  0  0  0
 17 12  1  0  0  0  0
M  END
>  <minimizedAffinity>
-3.88263083

$$$$

 OpenBabel03262522013D

 17 18  0  0  0  0  0  0  0  0999 V2000
   37.9630   22.8060   34.7340 C   0  0  0  0  0  0  0  0  0  0  0  0
   38.2130   24.1310   34.3740 C   0  0  0  0  0  0  0  0  0  0  0  0
   38.3690   25.0780   35.3890 C   0  0  0  0  0  0  0  0  0  0  0  0
   38.2690   24.6480   36.6820 N   0  0  0  0  0  0  0  0  0  0  0  0
   38.0300   23.3740   37.0020 C   0  0  0  0  0  0  0  0  0  0  0  0
   37.8830   22.4800   36.0160 N   0  0  0  0  0  0  0  0  0  0  0  0
   38.2900   24.4590   33.3330 H   0  0  0  0  0  0  0  0  0  0  0  0
   38.5600   26.1000   35.1830 H   0  0  0  0  0  0  0  0  0  0  0  0
   37.9610   23.0890   38.0520 H   0  0  0  0  0  0  0  0  0  0  0  0
   37.8020   21.8290   33.6710 C   0  0  0  0  0  0  0  0  0  0  0  0
   38.7960   21.2230   33.1580 O   0  0  0  0  0  0  0  0  0  0  0  0
   36.3850   21.5810   33.2160 C   0  0  0  0  0  3  0  0  0  0  0  0
   35.8880   20.3670   33.8850 C   0  0  0  0  0  2  0  0  0  0  0  0
   35.2000   19.3510   33.0500 C   0  0  0  0  0  2  0  0  0  0  0  0
   34.8700   19.8070   31.6490 C   0  0  0  0  0  2  0  0  0  0  0  0
   36.2110   20.2670   31.0690 C   0  0  0  0  0  2  0  0  0  0  0  0
   36.3970   21.6350   31.7390 C   0  0  0  0  0  2  0  0  0  0  0  0
  1  6  1  0  0  0  0
  2  1  2  0  0  0  0
  2  3  1  0  0  0  0
  3  4  2  0  0  0  0
  4  5  1  0  0  0  0
  5  9  1  0  0  0  0
  6  5  2  0  0  0  0
  7  2  1  0  0  0  0
  8  3  1  0  0  0  0
 10  1  1  0  0  0  0
 11 10  2  0  0  0  0
 12 10  1  0  0  0  0
 12 13  1  0  0  0  0
 14 13  1  0  0  0  0
 15 14  1  0  0  0  0
 16 15  1  0  0  0  0
 16 17  1  0  0  0  0
 17 12  1  0  0  0  0
M  END
>  <minimizedAffinity>
-3.87017751

$$$$
