
     RDKit          3D

 36 38  0  0  0  0  0  0  0  0999 V2000
   37.9198   30.8738   46.7310 C   0  0  0  0  0  0  0  0  0  0  0  0
   38.0525   31.0304   48.1378 C   0  0  0  0  0  0  0  0  0  0  0  0
   36.9338   30.8110   48.9278 C   0  0  0  0  0  0  0  0  0  0  0  0
   35.7740   30.4591   48.3152 N   0  0  0  0  0  0  0  0  0  0  0  0
   35.6663   30.3154   46.9833 C   0  0  0  0  0  0  0  0  0  0  0  0
   36.7558   30.5281   46.2035 N   0  0  0  0  0  0  0  0  0  0  0  0
   39.0932   31.1043   45.9079 C   0  0  0  0  0  0  0  0  0  0  0  0
   39.9060   32.2160   45.9020 C   0  0  0  0  0  0  0  0  0  0  0  0
   40.9339   32.0386   44.9560 C   0  0  0  0  0  0  0  0  0  0  0  0
   40.6868   30.7984   44.4228 N   0  0  0  0  0  0  0  0  0  0  0  0
   39.6147   30.2647   44.9835 N   0  0  0  0  0  0  0  0  0  0  0  0
   37.0562   30.9712   50.4055 C   0  0  0  0  0  0  0  0  0  0  0  0
   36.5504   32.2355   50.6784 F   0  0  0  0  0  0  0  0  0  0  0  0
   36.3054   30.0576   51.1053 F   0  0  0  0  0  0  0  0  0  0  0  0
   38.3751   30.9500   50.8289 F   0  0  0  0  0  0  0  0  0  0  0  0
   39.0193   31.3164   48.5636 H   0  0  0  0  0  0  0  0  0  0  0  0
   34.7293   30.0345   46.5286 H   0  0  0  0  0  0  0  0  0  0  0  0
   39.8182   33.1055   46.5012 H   0  0  0  0  0  0  0  0  0  0  0  0
   41.7410   32.7234   44.7017 H   0  0  0  0  0  0  0  0  0  0  0  0
   41.5289   30.2439   43.4052 C   0  0  0  0  0  0  0  0  0  0  0  0
   40.7148   29.6434   42.3069 C   0  0  0  0  0  0  0  0  0  0  0  0
   41.4730   28.6246   41.4941 C   0  0  0  0  0  0  0  0  0  0  0  0
   42.9590   28.7687   41.5373 C   0  0  0  0  0  0  0  0  0  0  0  0
   43.5338   28.9527   42.9170 C   0  0  0  0  0  0  0  0  0  0  0  0
   42.4413   29.1477   43.9529 C   0  0  0  0  0  0  0  0  0  0  0  0
   42.1707   31.0317   42.9349 H   0  0  0  0  0  0  0  0  0  0  0  0
   40.3184   30.4533   41.6469 H   0  0  0  0  0  0  0  0  0  0  0  0
   39.8315   29.1443   42.7561 H   0  0  0  0  0  0  0  0  0  0  0  0
   41.1717   28.7550   40.4341 H   0  0  0  0  0  0  0  0  0  0  0  0
   41.1799   27.5951   41.7927 H   0  0  0  0  0  0  0  0  0  0  0  0
   43.3274   29.5322   40.8099 H   0  0  0  0  0  0  0  0  0  0  0  0
   43.3802   27.8026   41.1520 H   0  0  0  0  0  0  0  0  0  0  0  0
   44.2430   28.1596   43.2075 H   0  0  0  0  0  0  0  0  0  0  0  0
   44.1267   29.9029   42.9263 H   0  0  0  0  0  0  0  0  0  0  0  0
   41.8930   28.1775   44.0107 H   0  0  0  0  0  0  0  0  0  0  0  0
   42.9091   29.4427   44.9019 H   0  0  0  0  0  0  0  0  0  0  0  0
  1  2  2  0
  2  3  1  0
  3 12  1  0
  4  3  2  0
  5  4  1  0
  6  1  1  0
  6  5  2  0
  7  1  1  0
  8  7  1  0
  9  8  2  0
 10  9  1  0
 10 11  1  0
 11  7  2  0
 12 13  1  0
 12 15  1  0
 12 14  1  0
  2 16  1  0
  5 17  1  0
  8 18  1  0
  9 19  1  0
 20 21  1  0
 21 22  1  0
 22 23  1  0
 23 24  1  0
 24 25  1  0
 25 20  1  0
 20 26  1  0
 21 27  1  0
 21 28  1  0
 22 29  1  0
 22 30  1  0
 23 31  1  0
 23 32  1  0
 24 33  1  0
 24 34  1  0
 25 35  1  0
 25 36  1  0
 10 20  1  0
M  ISO  4  16  14  17  14  18  14  19  14
M  END
>  <DihAtoms>  (1) 
8,9,19,20

>  <DihDeg>  (1) 
-89.72970187134267

$$$$
