
 OpenBabel03272504223D

 36 38  0  0  1  0  0  0  0  0999 V2000
   36.7630   31.5600   48.6850 O   0  0  0  0  0  0  0  0  0  0  0  0
   38.7790   32.2810   47.7750 C   0  0  2  0  0  0  0  0  0  0  0  0
   38.1160   31.3060   48.7280 C   0  0  1  0  0  0  0  0  0  0  0  0
   38.7010   31.8460   50.0410 C   0  0  0  0  0  0  0  0  0  0  0  0
   38.4210   33.1950   49.9150 O   0  0  0  0  0  0  0  0  0  0  0  0
   38.6640   33.5530   48.6060 C   0  0  0  0  0  0  0  0  0  0  0  0
   39.8470   32.0560   47.6210 H   0  0  0  0  0  0  0  0  0  0  0  0
   38.3980   30.2620   48.5640 H   0  0  0  0  0  0  0  0  0  0  0  0
   39.7730   31.6270   50.0380 H   0  0  0  0  0  0  0  0  0  0  0  0
   38.1310   31.3700   50.8640 H   0  0  0  0  0  0  0  0  0  0  0  0
   39.5520   34.1920   48.4720 H   0  0  0  0  0  0  0  0  0  0  0  0
   37.7960   34.1840   48.2830 H   0  0  0  0  0  0  0  0  0  0  0  0
   38.0250   32.3370   46.6150 O   0  0  0  0  0  0  0  0  0  0  0  0
   38.7860   31.8040   45.5820 C   0  0  0  0  0  3  0  0  0  0  0  0
   40.1940   31.5040   45.9700 C   0  0  0  0  0  2  0  0  0  0  0  0
   41.0300   31.3940   44.7110 C   0  0  0  0  0  2  0  0  0  0  0  0
   40.2320   30.7590   43.6220 C   0  0  0  0  0  2  0  0  0  0  0  0
   39.1500   29.8340   44.1420 C   0  0  0  0  0  2  0  0  0  0  0  0
   38.1710   30.5050   45.0530 C   0  0  0  0  0  2  0  0  0  0  0  0
   35.6510   29.8620   47.0600 O   0  0  0  0  0  0  0  0  0  0  0  0
   35.8360   30.1660   48.5160 P   0  0  1  0  0  0  0  0  0  0  0  0
   36.6670   28.8360   49.2290 O   0  0  0  0  0  0  0  0  0  0  0  0
   37.4370   29.1780   49.7660 H   0  0  0  0  0  0  0  0  0  0  0  0
   34.3370   30.3600   49.2860 O   0  0  0  0  0  0  0  0  0  0  0  0
   34.0700   29.1790   49.9590 C   0  0  0  0  0  0  0  0  0  0  0  0
   33.6210   29.3800   50.9740 H   0  0  0  0  0  0  0  0  0  0  0  0
   34.9740   28.5710   50.1850 H   0  0  0  0  0  0  0  0  0  0  0  0
   33.1390   28.2910   49.2300 C   0  0  0  0  0  0  0  0  0  0  0  0
   33.6980   27.3910   48.3530 C   0  0  0  0  0  0  0  0  0  0  0  0
   32.8730   26.5220   47.6330 C   0  0  0  0  0  0  0  0  0  0  0  0
   31.5310   26.6280   47.8530 N   0  0  0  0  0  0  0  0  0  0  0  0
   31.0050   27.5180   48.7170 C   0  0  0  0  0  0  0  0  0  0  0  0
   31.8080   28.3540   49.4090 N   0  0  0  0  0  0  0  0  0  0  0  0
   34.7380   27.2350   48.1160 H   0  0  0  0  0  0  0  0  0  0  0  0
   33.2320   25.7850   46.9230 H   0  0  0  0  0  0  0  0  0  0  0  0
   29.9230   27.5430   48.8400 H   0  0  0  0  0  0  0  0  0  0  0  0
  1  3  1  0  0  0  0
  2  7  1  6  0  0  0
  2  6  1  0  0  0  0
  2  3  1  0  0  0  0
  3  8  1  6  0  0  0
  3  4  1  0  0  0  0
  4 10  1  0  0  0  0
  5  4  1  0  0  0  0
  6  5  1  0  0  0  0
  9  4  1  0  0  0  0
 11  6  1  0  0  0  0
 12  6  1  0  0  0  0
 13  2  1  0  0  0  0
 14 15  1  0  0  0  0
 14 13  1  0  0  0  0
 16 15  1  0  0  0  0
 17 18  1  0  0  0  0
 17 16  1  0  0  0  0
 18 19  1  0  0  0  0
 19 14  1  0  0  0  0
 21 20  2  6  0  0  0
 21  1  1  0  0  0  0
 21 22  1  0  0  0  0
 21 24  1  0  0  0  0
 22 23  1  0  0  0  0
 24 25  1  0  0  0  0
 25 27  1  0  0  0  0
 25 26  1  0  0  0  0
 28 33  1  0  0  0  0
 28 25  1  0  0  0  0
 29 28  2  0  0  0  0
 30 31  2  0  0  0  0
 30 29  1  0  0  0  0
 31 32  1  0  0  0  0
 32 36  1  0  0  0  0
 32 33  2  0  0  0  0
 34 29  1  0  0  0  0
 35 30  1  0  0  0  0
M  END
>  <minimizedAffinity>
-4.90205622

>  <minimizedRMSD>
0.483833641

$$$$
