
     RDKit          3D

 39 41  0  0  0  0  0  0  0  0999 V2000
   37.1543   31.2226   48.5962 C   0  0  0  0  0  0  0  0  0  0  0  0
   38.0686   32.2568   48.3948 C   0  0  0  0  0  0  0  0  0  0  0  0
   38.4232   32.4379   47.0786 C   0  0  0  0  0  0  0  0  0  0  0  0
   37.9176   31.6694   46.0929 N   0  0  0  0  0  0  0  0  0  0  0  0
   37.0430   30.6823   46.3103 C   0  0  0  0  0  0  0  0  0  0  0  0
   36.6633   30.4608   47.5623 N   0  0  0  0  0  0  0  0  0  0  0  0
   36.6381   31.0432   50.0168 C   0  0  0  0  0  0  0  0  0  0  0  0
   35.8887   29.9073   50.4022 C   0  0  0  0  0  0  0  0  0  0  0  0
   37.3837   29.8166   50.6575 C   0  0  0  0  0  0  0  0  0  0  0  0
   38.6197   33.0463   49.5080 C   0  0  0  0  0  0  0  0  0  0  0  0
   39.5529   34.1289   49.1393 C   0  0  0  0  0  0  0  0  0  0  0  0
   39.1282   33.2183   46.8194 H   0  0  0  0  0  0  0  0  0  0  0  0
   36.5866   30.0201   45.6014 H   0  0  0  0  0  0  0  0  0  0  0  0
   36.7852   31.9267   50.6973 H   0  0  0  0  0  0  0  0  0  0  0  0
   35.4416   29.2546   49.5996 H   0  0  0  0  0  0  0  0  0  0  0  0
   35.2420   29.9303   51.2909 H   0  0  0  0  0  0  0  0  0  0  0  0
   37.7095   29.9027   51.6947 H   0  0  0  0  0  0  0  0  0  0  0  0
   37.8835   29.1174   49.9990 H   0  0  0  0  0  0  0  0  0  0  0  0
   37.8170   33.5145   50.1217 H   0  0  0  0  0  0  0  0  0  0  0  0
   39.1467   32.3402   50.1847 H   0  0  0  0  0  0  0  0  0  0  0  0
   40.4262   33.6723   48.5948 H   0  0  0  0  0  0  0  0  0  0  0  0
   39.0625   34.8155   48.3984 H   0  0  0  0  0  0  0  0  0  0  0  0
   40.0977   34.9144   50.2829 C   0  0  0  0  0  0  0  0  0  0  0  0
   39.4934   34.3306   51.5594 C   0  0  0  0  0  0  0  0  0  0  0  0
   38.1173   34.9412   51.8076 C   0  0  0  0  0  0  0  0  0  0  0  0
   38.3701   36.3677   52.2426 C   0  0  0  0  0  0  0  0  0  0  0  0
   39.4248   37.0495   51.4159 C   0  0  0  0  0  0  0  0  0  0  0  0
   39.6869   36.3580   50.1001 C   0  0  0  0  0  0  0  0  0  0  0  0
   41.1850   34.7769   50.3680 H   0  0  0  0  0  0  0  0  0  0  0  0
   40.1253   34.5002   52.4349 H   0  0  0  0  0  0  0  0  0  0  0  0
   39.3122   33.2325   51.4327 H   0  0  0  0  0  0  0  0  0  0  0  0
   37.4935   34.8712   50.8967 H   0  0  0  0  0  0  0  0  0  0  0  0
   37.7014   34.3853   52.6743 H   0  0  0  0  0  0  0  0  0  0  0  0
   37.3936   36.9060   52.2610 H   0  0  0  0  0  0  0  0  0  0  0  0
   38.7728   36.3093   53.2927 H   0  0  0  0  0  0  0  0  0  0  0  0
   39.0515   38.0682   51.1658 H   0  0  0  0  0  0  0  0  0  0  0  0
   40.3828   37.1700   51.9438 H   0  0  0  0  0  0  0  0  0  0  0  0
   38.8368   36.4250   49.4053 H   0  0  0  0  0  0  0  0  0  0  0  0
   40.5422   36.8867   49.6308 H   0  0  0  0  0  0  0  0  0  0  0  0
  1  7  1  0
  2  1  1  0
  2 10  1  0
  3  2  2  0
  4  5  2  0
  4  3  1  0
  5  6  1  0
  6  1  2  0
  7  8  1  0
  7  9  1  0
  8  9  1  0
 11 10  1  0
  3 12  1  0
  5 13  1  0
  7 14  1  0
  8 15  1  0
  8 16  1  0
  9 17  1  0
  9 18  1  0
 10 19  1  0
 10 20  1  0
 11 21  1  0
 11 22  1  0
 23 24  1  0
 24 25  1  0
 25 26  1  0
 26 27  1  0
 27 28  1  0
 28 23  1  0
 23 29  1  0
 24 30  1  0
 24 31  1  0
 25 32  1  0
 25 33  1  0
 26 34  1  0
 26 35  1  0
 27 36  1  0
 27 37  1  0
 28 38  1  0
 28 39  1  0
 11 23  1  0
M  ISO  8  12  14  13  14  14  13  15  13  16  13  17  13  18  13  19   8
M  ISO  3  20   8  21   8  22   8
M  END
>  <DihAtoms>  (1) 
9,10,22,23

>  <DihDeg>  (1) 
179.999882623446

$$$$
