
 OpenBabel03272503543D

 41 44  0  0  1  0  0  0  0  0999 V2000
   39.1850   25.3580   32.5140 C   0  0  1  0  0  0  0  0  0  0  0  0
   39.4850   26.6520   31.7150 C   0  0  0  0  0  0  0  0  0  0  0  0
   40.9620   26.9340   32.0080 C   0  0  0  0  0  0  0  0  0  0  0  0
   41.0240   27.3830   33.4180 C   0  0  0  0  0  0  0  0  0  0  0  0
   40.5330   26.2940   34.3430 C   0  0  0  0  0  0  0  0  0  0  0  0
   39.1590   25.7990   33.9500 C   0  0  2  0  0  0  0  0  0  0  0  0
   40.0390   24.7250   32.2110 H   0  0  0  0  0  0  0  0  0  0  0  0
   39.3420   26.4680   30.6310 H   0  0  0  0  0  0  0  0  0  0  0  0
   38.9170   27.4990   32.1060 H   0  0  0  0  0  0  0  0  0  0  0  0
   41.5230   25.9550   31.9350 H   0  0  0  0  0  0  0  0  0  0  0  0
   41.4010   27.6620   31.3120 H   0  0  0  0  0  0  0  0  0  0  0  0
   40.2760   28.2200   33.5300 H   0  0  0  0  0  0  0  0  0  0  0  0
   41.9700   27.7730   33.7750 H   0  0  0  0  0  0  0  0  0  0  0  0
   41.2780   25.5010   34.3620 H   0  0  0  0  0  0  0  0  0  0  0  0
   40.4010   26.7920   35.3340 H   0  0  0  0  0  0  0  0  0  0  0  0
   38.4760   26.6690   34.0320 H   0  0  0  0  0  0  0  0  0  0  0  0
   36.7550   25.3760   31.8700 C   0  0  0  0  0  0  0  0  0  0  0  0
   35.6380   24.7000   31.3980 C   0  0  0  0  0  0  0  0  0  0  0  0
   35.7070   23.3210   31.1170 C   0  0  0  0  0  0  0  0  0  0  0  0
   36.9160   22.6930   31.3310 C   0  0  0  0  0  0  0  0  0  0  0  0
   38.0240   23.3510   31.7960 C   0  0  0  0  0  0  0  0  0  0  0  0
   37.9370   24.7270   32.0710 C   0  0  0  0  0  0  0  0  0  0  0  0
   34.6840   25.1940   31.2290 H   0  0  0  0  0  0  0  0  0  0  0  0
   34.8340   22.7990   30.7490 H   0  0  0  0  0  0  0  0  0  0  0  0
   36.9150   21.6360   31.1000 H   0  0  0  0  0  0  0  0  0  0  0  0
   38.8960   22.7330   31.9160 H   0  0  0  0  0  0  0  0  0  0  0  0
   36.2980   29.1120   31.5410 C   0  0  0  0  0  0  0  0  0  0  0  0
   36.5060   27.7740   31.1560 C   0  0  0  0  0  0  0  0  0  0  0  0
   36.5540   26.7850   32.1390 C   0  0  0  0  0  0  0  0  0  0  0  0
   36.3940   27.1980   33.4120 N   0  0  0  0  0  0  0  0  0  0  0  0
   36.1950   28.4800   33.7740 C   0  0  0  0  0  0  0  0  0  0  0  0
   36.1490   29.4200   32.8420 N   0  0  0  0  0  0  0  0  0  0  0  0
   36.2770   29.8010   30.7070 H   0  0  0  0  0  0  0  0  0  0  0  0
   36.6300   27.4790   30.1410 H   0  0  0  0  0  0  0  0  0  0  0  0
   36.0730   28.7570   34.8020 H   0  0  0  0  0  0  0  0  0  0  0  0
   38.7220   24.7480   34.9280 C   0  0  0  0  0  3  0  0  0  0  0  0
   38.4250   25.4540   36.2590 C   0  0  0  0  0  2  0  0  0  0  0  0
   37.5860   24.4370   37.0450 C   0  0  0  0  0  2  0  0  0  0  0  0
   38.3600   23.1800   37.2540 C   0  0  0  0  0  2  0  0  0  0  0  0
   39.7550   23.3030   36.6930 C   0  0  0  0  0  2  0  0  0  0  0  0
   39.7270   23.7050   35.2180 C   0  0  0  0  0  2  0  0  0  0  0  0
  1  7  1  6  0  0  0
  1  6  1  0  0  0  0
  2  3  1  0  0  0  0
  2  9  1  0  0  0  0
  2  1  1  0  0  0  0
  3  4  1  0  0  0  0
  4 12  1  0  0  0  0
  4 13  1  0  0  0  0
  4  5  1  0  0  0  0
  5 14  1  0  0  0  0
  5 15  1  0  0  0  0
  6 16  1  1  0  0  0
  6  5  1  0  0  0  0
  6 36  1  0  0  0  0
  8  2  1  0  0  0  0
 10  3  1  0  0  0  0
 11  3  1  0  0  0  0
 17 22  1  0  0  0  0
 17 29  1  0  0  0  0
 18 17  2  0  0  0  0
 19 20  2  0  0  0  0
 19 18  1  0  0  0  0
 20 21  1  0  0  0  0
 21 26  1  0  0  0  0
 21 22  2  0  0  0  0
 22  1  1  0  0  0  0
 23 18  1  0  0  0  0
 24 19  1  0  0  0  0
 25 20  1  0  0  0  0
 27 32  1  0  0  0  0
 28 27  2  0  0  0  0
 28 29  1  0  0  0  0
 29 30  2  0  0  0  0
 30 31  1  0  0  0  0
 31 35  1  0  0  0  0
 32 31  2  0  0  0  0
 33 27  1  0  0  0  0
 34 28  1  0  0  0  0
 36 41  1  0  0  0  0
 36 37  1  0  0  0  0
 37 38  1  0  0  0  0
 38 39  1  0  0  0  0
 40 39  1  0  0  0  0
 41 40  1  0  0  0  0
M  END
>  <minimizedAffinity>
-5.66428614

$$$$

 OpenBabel03272503543D

 41 44  0  0  1  0  0  0  0  0999 V2000
   38.0780   26.4460   33.1820 C   0  0  1  0  0  0  0  0  0  0  0  0
   38.1740   25.9380   34.6430 C   0  0  0  0  0  0  0  0  0  0  0  0
   38.9710   27.0300   35.3630 C   0  0  0  0  0  0  0  0  0  0  0  0
   40.3630   26.9170   34.8710 C   0  0  0  0  0  0  0  0  0  0  0  0
   40.4200   27.1610   33.3810 C   0  0  0  0  0  0  0  0  0  0  0  0
   39.4630   26.2660   32.6270 C   0  0  2  0  0  0  0  0  0  0  0  0
   37.7470   27.4890   33.3470 H   0  0  0  0  0  0  0  0  0  0  0  0
   37.1600   25.8560   35.0820 H   0  0  0  0  0  0  0  0  0  0  0  0
   38.7660   25.0220   34.7050 H   0  0  0  0  0  0  0  0  0  0  0  0
   38.5690   28.0320   35.0270 H   0  0  0  0  0  0  0  0  0  0  0  0
   38.9010   26.9550   36.4570 H   0  0  0  0  0  0  0  0  0  0  0  0
   40.6720   25.8400   35.0030 H   0  0  0  0  0  0  0  0  0  0  0  0
   41.1180   27.5120   35.3730 H   0  0  0  0  0  0  0  0  0  0  0  0
   40.2390   28.2190   33.2010 H   0  0  0  0  0  0  0  0  0  0  0  0
   41.4430   26.8350   33.0720 H   0  0  0  0  0  0  0  0  0  0  0  0
   39.7820   25.2230   32.8290 H   0  0  0  0  0  0  0  0  0  0  0  0
   36.1100   26.3090   31.6240 C   0  0  0  0  0  0  0  0  0  0  0  0
   35.2040   25.5390   30.9060 C   0  0  0  0  0  0  0  0  0  0  0  0
   35.2380   24.1340   30.9940 C   0  0  0  0  0  0  0  0  0  0  0  0
   36.1960   23.5760   31.8140 C   0  0  0  0  0  0  0  0  0  0  0  0
   37.0940   24.3250   32.5280 C   0  0  0  0  0  0  0  0  0  0  0  0
   37.0460   25.7270   32.4270 C   0  0  0  0  0  0  0  0  0  0  0  0
   34.4490   25.9780   30.2590 H   0  0  0  0  0  0  0  0  0  0  0  0
   34.5300   23.5390   30.4320 H   0  0  0  0  0  0  0  0  0  0  0  0
   36.1780   22.4940   31.8470 H   0  0  0  0  0  0  0  0  0  0  0  0
   37.7810   23.7540   33.1260 H   0  0  0  0  0  0  0  0  0  0  0  0
   36.3840   29.8810   30.4250 C   0  0  0  0  0  0  0  0  0  0  0  0
   36.6110   28.4930   30.4850 C   0  0  0  0  0  0  0  0  0  0  0  0
   35.9640   27.7410   31.4650 C   0  0  0  0  0  0  0  0  0  0  0  0
   35.1520   28.4190   32.3000 N   0  0  0  0  0  0  0  0  0  0  0  0
   34.9370   29.7470   32.2380 C   0  0  0  0  0  0  0  0  0  0  0  0
   35.5520   30.4620   31.3070 N   0  0  0  0  0  0  0  0  0  0  0  0
   36.9320   30.3720   29.6320 H   0  0  0  0  0  0  0  0  0  0  0  0
   37.2600   27.9860   29.8100 H   0  0  0  0  0  0  0  0  0  0  0  0
   34.2800   30.2400   32.9260 H   0  0  0  0  0  0  0  0  0  0  0  0
   39.5970   26.5370   31.1570 C   0  0  0  0  0  3  0  0  0  0  0  0
   40.1070   25.2480   30.4970 C   0  0  0  0  0  2  0  0  0  0  0  0
   39.8020   25.4430   29.0060 C   0  0  0  0  0  2  0  0  0  0  0  0
   40.5170   26.6430   28.4850 C   0  0  0  0  0  2  0  0  0  0  0  0
   41.3780   27.2680   29.5550 C   0  0  0  0  0  2  0  0  0  0  0  0
   40.5570   27.6020   30.8010 C   0  0  0  0  0  2  0  0  0  0  0  0
  1  7  1  1  0  0  0
  1  2  1  0  0  0  0
  2  9  1  0  0  0  0
  2  8  1  0  0  0  0
  2  3  1  0  0  0  0
  3 11  1  0  0  0  0
  4 12  1  0  0  0  0
  4  3  1  0  0  0  0
  4 13  1  0  0  0  0
  5  4  1  0  0  0  0
  6 16  1  1  0  0  0
  6  1  1  0  0  0  0
  6  5  1  0  0  0  0
 10  3  1  0  0  0  0
 14  5  1  0  0  0  0
 15  5  1  0  0  0  0
 17 22  1  0  0  0  0
 18 19  1  0  0  0  0
 18 17  2  0  0  0  0
 19 20  2  0  0  0  0
 20 25  1  0  0  0  0
 20 21  1  0  0  0  0
 21 26  1  0  0  0  0
 22 21  2  0  0  0  0
 22  1  1  0  0  0  0
 23 18  1  0  0  0  0
 24 19  1  0  0  0  0
 27 28  2  0  0  0  0
 27 32  1  0  0  0  0
 28 29  1  0  0  0  0
 29 17  1  0  0  0  0
 29 30  2  0  0  0  0
 31 30  1  0  0  0  0
 31 35  1  0  0  0  0
 32 31  2  0  0  0  0
 33 27  1  0  0  0  0
 34 28  1  0  0  0  0
 36  6  1  0  0  0  0
 37 36  1  0  0  0  0
 38 37  1  0  0  0  0
 39 38  1  0  0  0  0
 39 40  1  0  0  0  0
 40 41  1  0  0  0  0
 41 36  1  0  0  0  0
M  END
>  <minimizedAffinity>
-5.5699439

$$$$

 OpenBabel03272503543D

 41 44  0  0  1  0  0  0  0  0999 V2000
   38.4310   26.1970   31.3790 C   0  0  1  0  0  0  0  0  0  0  0  0
   38.4410   24.6830   31.7110 C   0  0  0  0  0  0  0  0  0  0  0  0
   37.2590   24.1220   30.9150 C   0  0  0  0  0  0  0  0  0  0  0  0
   36.0370   24.6100   31.5930 C   0  0  0  0  0  0  0  0  0  0  0  0
   35.9820   26.1200   31.5650 C   0  0  0  0  0  0  0  0  0  0  0  0
   37.2440   26.7390   32.1230 C   0  0  2  0  0  0  0  0  0  0  0  0
   38.3470   26.1670   30.2770 H   0  0  0  0  0  0  0  0  0  0  0  0
   39.3870   24.2260   31.3590 H   0  0  0  0  0  0  0  0  0  0  0  0
   38.2240   24.5090   32.7670 H   0  0  0  0  0  0  0  0  0  0  0  0
   37.2860   24.5820   29.8830 H   0  0  0  0  0  0  0  0  0  0  0  0
   37.2870   23.0260   30.8300 H   0  0  0  0  0  0  0  0  0  0  0  0
   36.1360   24.3420   32.6850 H   0  0  0  0  0  0  0  0  0  0  0  0
   35.0890   24.2000   31.2660 H   0  0  0  0  0  0  0  0  0  0  0  0
   35.7740   26.4350   30.5440 H   0  0  0  0  0  0  0  0  0  0  0  0
   35.1700   26.3950   32.2810 H   0  0  0  0  0  0  0  0  0  0  0  0
   37.3170   26.4060   33.1790 H   0  0  0  0  0  0  0  0  0  0  0  0
   40.2250   26.8770   33.0040 C   0  0  0  0  0  0  0  0  0  0  0  0
   41.4590   27.4660   33.2450 C   0  0  0  0  0  0  0  0  0  0  0  0
   42.1930   28.0380   32.1880 C   0  0  0  0  0  0  0  0  0  0  0  0
   41.6330   27.9850   30.9290 C   0  0  0  0  0  0  0  0  0  0  0  0
   40.4160   27.4070   30.6790 C   0  0  0  0  0  0  0  0  0  0  0  0
   39.6970   26.8400   31.7470 C   0  0  0  0  0  0  0  0  0  0  0  0
   41.9020   27.5090   34.2370 H   0  0  0  0  0  0  0  0  0  0  0  0
   43.1550   28.4950   32.3810 H   0  0  0  0  0  0  0  0  0  0  0  0
   42.2370   28.4390   30.1530 H   0  0  0  0  0  0  0  0  0  0  0  0
   40.1050   27.4400   29.6510 H   0  0  0  0  0  0  0  0  0  0  0  0
   38.1760   26.4580   36.1490 C   0  0  0  0  0  0  0  0  0  0  0  0
   38.7800   27.0950   35.0490 C   0  0  0  0  0  0  0  0  0  0  0  0
   39.5600   26.3400   34.1720 C   0  0  0  0  0  0  0  0  0  0  0  0
   39.6770   25.0280   34.4550 N   0  0  0  0  0  0  0  0  0  0  0  0
   39.0960   24.4230   35.5090 C   0  0  0  0  0  0  0  0  0  0  0  0
   38.3550   25.1390   36.3420 N   0  0  0  0  0  0  0  0  0  0  0  0
   37.5940   27.1290   36.7680 H   0  0  0  0  0  0  0  0  0  0  0  0
   38.6690   28.1350   34.8530 H   0  0  0  0  0  0  0  0  0  0  0  0
   39.2200   23.3740   35.6900 H   0  0  0  0  0  0  0  0  0  0  0  0
   37.1060   28.2340   32.0960 C   0  0  0  0  0  3  0  0  0  0  0  0
   35.8310   28.5910   32.8740 C   0  0  0  0  0  2  0  0  0  0  0  0
   35.9870   30.0870   33.1830 C   0  0  0  0  0  2  0  0  0  0  0  0
   36.0930   30.8680   31.9180 C   0  0  0  0  0  2  0  0  0  0  0  0
   35.9490   29.9710   30.7130 C   0  0  0  0  0  2  0  0  0  0  0  0
   36.9610   28.8250   30.7510 C   0  0  0  0  0  2  0  0  0  0  0  0
  1  7  1  6  0  0  0
  1  2  1  0  0  0  0
  1 22  1  0  0  0  0
  1  6  1  0  0  0  0
  2  9  1  0  0  0  0
  3  4  1  0  0  0  0
  3  2  1  0  0  0  0
  4 12  1  0  0  0  0
  5  4  1  0  0  0  0
  5  6  1  0  0  0  0
  5 15  1  0  0  0  0
  6 16  1  1  0  0  0
  8  2  1  0  0  0  0
 10  3  1  0  0  0  0
 11  3  1  0  0  0  0
 13  4  1  0  0  0  0
 14  5  1  0  0  0  0
 17 18  1  0  0  0  0
 17 29  1  0  0  0  0
 18 23  1  0  0  0  0
 19 24  1  0  0  0  0
 19 18  2  0  0  0  0
 20 19  1  0  0  0  0
 21 20  2  0  0  0  0
 21 22  1  0  0  0  0
 22 17  2  0  0  0  0
 25 20  1  0  0  0  0
 26 21  1  0  0  0  0
 27 32  1  0  0  0  0
 27 33  1  0  0  0  0
 28 27  2  0  0  0  0
 29 30  2  0  0  0  0
 29 28  1  0  0  0  0
 30 31  1  0  0  0  0
 31 35  1  0  0  0  0
 31 32  2  0  0  0  0
 34 28  1  0  0  0  0
 36  6  1  0  0  0  0
 36 37  1  0  0  0  0
 37 38  1  0  0  0  0
 39 38  1  0  0  0  0
 40 41  1  0  0  0  0
 40 39  1  0  0  0  0
 41 36  1  0  0  0  0
M  END
>  <minimizedAffinity>
-5.55911303

$$$$

 OpenBabel03272503543D

 41 44  0  0  1  0  0  0  0  0999 V2000
   39.1090   24.0730   33.2610 C   0  0  1  0  0  0  0  0  0  0  0  0
   39.2140   23.3770   31.8800 C   0  0  0  0  0  0  0  0  0  0  0  0
   37.8420   22.7250   31.6880 C   0  0  0  0  0  0  0  0  0  0  0  0
   37.7880   21.5900   32.6380 C   0  0  0  0  0  0  0  0  0  0  0  0
   37.9100   22.0830   34.0610 C   0  0  0  0  0  0  0  0  0  0  0  0
   39.1360   22.9460   34.2550 C   0  0  2  0  0  0  0  0  0  0  0  0
   38.1460   24.6060   33.1510 H   0  0  0  0  0  0  0  0  0  0  0  0
   39.3890   24.1330   31.0890 H   0  0  0  0  0  0  0  0  0  0  0  0
   39.9490   22.5690   31.9000 H   0  0  0  0  0  0  0  0  0  0  0  0
   37.0550   23.4730   32.0040 H   0  0  0  0  0  0  0  0  0  0  0  0
   37.6610   22.4160   30.6490 H   0  0  0  0  0  0  0  0  0  0  0  0
   38.7160   20.9710   32.4640 H   0  0  0  0  0  0  0  0  0  0  0  0
   36.9500   20.9080   32.5530 H   0  0  0  0  0  0  0  0  0  0  0  0
   36.9860   22.5960   34.3240 H   0  0  0  0  0  0  0  0  0  0  0  0
   38.0880   21.1650   34.6720 H   0  0  0  0  0  0  0  0  0  0  0  0
   40.0110   22.3050   34.0260 H   0  0  0  0  0  0  0  0  0  0  0  0
   40.0020   26.3900   33.6500 C   0  0  0  0  0  0  0  0  0  0  0  0
   41.0810   27.2330   33.8790 C   0  0  0  0  0  0  0  0  0  0  0  0
   42.3910   26.7170   33.9160 C   0  0  0  0  0  0  0  0  0  0  0  0
   42.5410   25.3610   33.7160 C   0  0  0  0  0  0  0  0  0  0  0  0
   41.4840   24.5200   33.4890 C   0  0  0  0  0  0  0  0  0  0  0  0
   40.1830   25.0530   33.4560 C   0  0  0  0  0  0  0  0  0  0  0  0
   40.9640   28.3020   34.0370 H   0  0  0  0  0  0  0  0  0  0  0  0
   43.2290   27.3780   34.0960 H   0  0  0  0  0  0  0  0  0  0  0  0
   43.5670   25.0170   33.7540 H   0  0  0  0  0  0  0  0  0  0  0  0
   41.7510   23.4880   33.3490 H   0  0  0  0  0  0  0  0  0  0  0  0
   36.6740   27.9150   34.5830 C   0  0  0  0  0  0  0  0  0  0  0  0
   37.9120   27.2650   34.7400 C   0  0  0  0  0  0  0  0  0  0  0  0
   38.7080   27.0410   33.6170 C   0  0  0  0  0  0  0  0  0  0  0  0
   38.2170   27.4740   32.4390 N   0  0  0  0  0  0  0  0  0  0  0  0
   37.0310   28.0960   32.2940 C   0  0  0  0  0  0  0  0  0  0  0  0
   36.2750   28.3100   33.3610 N   0  0  0  0  0  0  0  0  0  0  0  0
   36.1330   28.0410   35.5120 H   0  0  0  0  0  0  0  0  0  0  0  0
   38.2730   26.9340   35.6850 H   0  0  0  0  0  0  0  0  0  0  0  0
   36.6840   28.4230   31.3350 H   0  0  0  0  0  0  0  0  0  0  0  0
   39.2100   23.3710   35.6930 C   0  0  0  0  0  3  0  0  0  0  0  0
   39.6780   22.1550   36.5060 C   0  0  0  0  0  2  0  0  0  0  0  0
   40.1500   22.7540   37.8380 C   0  0  0  0  0  2  0  0  0  0  0  0
   39.0250   23.4630   38.5130 C   0  0  0  0  0  2  0  0  0  0  0  0
   37.7470   23.3260   37.7240 C   0  0  0  0  0  2  0  0  0  0  0  0
   37.9290   23.8070   36.2850 C   0  0  0  0  0  2  0  0  0  0  0  0
  1  7  1  1  0  0  0
  1 22  1  0  0  0  0
  1  6  1  0  0  0  0
  2  9  1  0  0  0  0
  2  1  1  0  0  0  0
  3  2  1  0  0  0  0
  3 10  1  0  0  0  0
  3  4  1  0  0  0  0
  4  5  1  0  0  0  0
  5  6  1  0  0  0  0
  5 14  1  0  0  0  0
  5 15  1  0  0  0  0
  6 16  1  6  0  0  0
  6 36  1  0  0  0  0
  8  2  1  0  0  0  0
 11  3  1  0  0  0  0
 12  4  1  0  0  0  0
 13  4  1  0  0  0  0
 17 18  1  0  0  0  0
 18 19  2  0  0  0  0
 18 23  1  0  0  0  0
 19 24  1  0  0  0  0
 20 25  1  0  0  0  0
 20 19  1  0  0  0  0
 21 20  2  0  0  0  0
 22 21  1  0  0  0  0
 22 17  2  0  0  0  0
 26 21  1  0  0  0  0
 27 28  1  0  0  0  0
 27 33  1  0  0  0  0
 28 34  1  0  0  0  0
 29 17  1  0  0  0  0
 29 28  2  0  0  0  0
 30 29  1  0  0  0  0
 31 30  2  0  0  0  0
 31 32  1  0  0  0  0
 32 27  2  0  0  0  0
 35 31  1  0  0  0  0
 36 41  1  0  0  0  0
 36 37  1  0  0  0  0
 37 38  1  0  0  0  0
 38 39  1  0  0  0  0
 40 39  1  0  0  0  0
 41 40  1  0  0  0  0
M  END
>  <minimizedAffinity>
-5.54115677

$$$$

 OpenBabel03272503543D

 41 44  0  0  1  0  0  0  0  0999 V2000
   37.4420   24.2040   32.0790 C   0  0  1  0  0  0  0  0  0  0  0  0
   37.4590   25.4690   31.1840 C   0  0  0  0  0  0  0  0  0  0  0  0
   36.1030   26.1290   31.4510 C   0  0  0  0  0  0  0  0  0  0  0  0
   35.0900   25.2670   30.8020 C   0  0  0  0  0  0  0  0  0  0  0  0
   35.0990   23.8850   31.4130 C   0  0  0  0  0  0  0  0  0  0  0  0
   36.4810   23.2710   31.3980 C   0  0  2  0  0  0  0  0  0  0  0  0
   37.1080   24.6350   33.0420 H   0  0  0  0  0  0  0  0  0  0  0  0
   38.2780   26.1440   31.5020 H   0  0  0  0  0  0  0  0  0  0  0  0
   37.4790   25.2040   30.1250 H   0  0  0  0  0  0  0  0  0  0  0  0
   35.9150   26.0980   32.5660 H   0  0  0  0  0  0  0  0  0  0  0  0
   36.0610   27.1700   31.1000 H   0  0  0  0  0  0  0  0  0  0  0  0
   35.4220   25.1150   29.7340 H   0  0  0  0  0  0  0  0  0  0  0  0
   34.0740   25.6420   30.7510 H   0  0  0  0  0  0  0  0  0  0  0  0
   34.6780   23.9530   32.4150 H   0  0  0  0  0  0  0  0  0  0  0  0
   34.4830   23.2580   30.7230 H   0  0  0  0  0  0  0  0  0  0  0  0
   36.7760   23.1900   30.3320 H   0  0  0  0  0  0  0  0  0  0  0  0
   39.3350   23.2480   33.4300 C   0  0  0  0  0  0  0  0  0  0  0  0
   40.5990   22.6760   33.4790 C   0  0  0  0  0  0  0  0  0  0  0  0
   41.3420   22.4890   32.2970 C   0  0  0  0  0  0  0  0  0  0  0  0
   40.7610   22.8970   31.1150 C   0  0  0  0  0  0  0  0  0  0  0  0
   39.5150   23.4630   31.0540 C   0  0  0  0  0  0  0  0  0  0  0  0
   38.7870   23.6410   32.2450 C   0  0  0  0  0  0  0  0  0  0  0  0
   41.0580   22.3540   34.4100 H   0  0  0  0  0  0  0  0  0  0  0  0
   42.3270   22.0430   32.3410 H   0  0  0  0  0  0  0  0  0  0  0  0
   41.3740   22.7320   30.2380 H   0  0  0  0  0  0  0  0  0  0  0  0
   39.1910   23.7330   30.0650 H   0  0  0  0  0  0  0  0  0  0  0  0
   37.3650   22.6660   36.6000 C   0  0  0  0  0  0  0  0  0  0  0  0
   37.9540   22.3970   35.3500 C   0  0  0  0  0  0  0  0  0  0  0  0
   38.6780   23.4030   34.7110 C   0  0  0  0  0  0  0  0  0  0  0  0
   38.7590   24.5840   35.3560 N   0  0  0  0  0  0  0  0  0  0  0  0
   38.1940   24.8350   36.5520 C   0  0  0  0  0  0  0  0  0  0  0  0
   37.5060   23.8800   37.1600 N   0  0  0  0  0  0  0  0  0  0  0  0
   36.8260   21.8220   37.0110 H   0  0  0  0  0  0  0  0  0  0  0  0
   37.8710   21.4530   34.8650 H   0  0  0  0  0  0  0  0  0  0  0  0
   38.2880   25.7920   37.0250 H   0  0  0  0  0  0  0  0  0  0  0  0
   36.4080   21.8930   31.9860 C   0  0  0  0  0  3  0  0  0  0  0  0
   36.8480   20.9050   30.8960 C   0  0  0  0  0  2  0  0  0  0  0  0
   37.1740   19.6170   31.6660 C   0  0  0  0  0  2  0  0  0  0  0  0
   35.9660   19.1290   32.3910 C   0  0  0  0  0  2  0  0  0  0  0  0
   34.7710   20.0020   32.1020 C   0  0  0  0  0  2  0  0  0  0  0  0
   35.0630   21.4680   32.4240 C   0  0  0  0  0  2  0  0  0  0  0  0
  1 22  1  0  0  0  0
  1  7  1  1  0  0  0
  2  3  1  0  0  0  0
  2  8  1  0  0  0  0
  2  1  1  0  0  0  0
  3 10  1  0  0  0  0
  4  5  1  0  0  0  0
  4  3  1  0  0  0  0
  5 14  1  0  0  0  0
  6 16  1  6  0  0  0
  6  5  1  0  0  0  0
  6 36  1  0  0  0  0
  6  1  1  0  0  0  0
  9  2  1  0  0  0  0
 11  3  1  0  0  0  0
 12  4  1  0  0  0  0
 13  4  1  0  0  0  0
 15  5  1  0  0  0  0
 17 18  1  0  0  0  0
 17 29  1  0  0  0  0
 18 23  1  0  0  0  0
 19 24  1  0  0  0  0
 19 18  2  0  0  0  0
 20 19  1  0  0  0  0
 21 20  2  0  0  0  0
 21 22  1  0  0  0  0
 22 17  2  0  0  0  0
 25 20  1  0  0  0  0
 26 21  1  0  0  0  0
 27 33  1  0  0  0  0
 27 32  1  0  0  0  0
 28 27  2  0  0  0  0
 29 28  1  0  0  0  0
 29 30  2  0  0  0  0
 30 31  1  0  0  0  0
 31 35  1  0  0  0  0
 31 32  2  0  0  0  0
 34 28  1  0  0  0  0
 36 41  1  0  0  0  0
 37 38  1  0  0  0  0
 37 36  1  0  0  0  0
 38 39  1  0  0  0  0
 40 39  1  0  0  0  0
 40 41  1  0  0  0  0
M  END
>  <minimizedAffinity>
-5.51353407

$$$$

 OpenBabel03272503543D

 41 44  0  0  1  0  0  0  0  0999 V2000
   38.5920   26.3940   34.2570 C   0  0  1  0  0  0  0  0  0  0  0  0
   38.2980   27.6980   35.0420 C   0  0  0  0  0  0  0  0  0  0  0  0
   36.7900   27.9020   34.8690 C   0  0  0  0  0  0  0  0  0  0  0  0
   36.5880   28.3030   33.4580 C   0  0  0  0  0  0  0  0  0  0  0  0
   37.0500   27.2080   32.5250 C   0  0  0  0  0  0  0  0  0  0  0  0
   38.4750   26.7890   32.8110 C   0  0  2  0  0  0  0  0  0  0  0  0
   37.7980   25.7320   34.6500 H   0  0  0  0  0  0  0  0  0  0  0  0
   38.5420   27.5550   36.1130 H   0  0  0  0  0  0  0  0  0  0  0  0
   38.7900   28.5570   34.5790 H   0  0  0  0  0  0  0  0  0  0  0  0
   36.2850   26.9020   35.0180 H   0  0  0  0  0  0  0  0  0  0  0  0
   36.3780   28.6320   35.5800 H   0  0  0  0  0  0  0  0  0  0  0  0
   37.2820   29.1690   33.2590 H   0  0  0  0  0  0  0  0  0  0  0  0
   35.5970   28.6370   33.1730 H   0  0  0  0  0  0  0  0  0  0  0  0
   36.3460   26.3820   32.5930 H   0  0  0  0  0  0  0  0  0  0  0  0
   37.0730   27.6800   31.5130 H   0  0  0  0  0  0  0  0  0  0  0  0
   39.1060   27.6860   32.6470 H   0  0  0  0  0  0  0  0  0  0  0  0
   40.1090   24.6140   35.1770 C   0  0  0  0  0  0  0  0  0  0  0  0
   41.3940   24.1480   35.4240 C   0  0  0  0  0  0  0  0  0  0  0  0
   42.5130   24.9340   35.0870 C   0  0  0  0  0  0  0  0  0  0  0  0
   42.2710   26.1630   34.5120 C   0  0  0  0  0  0  0  0  0  0  0  0
   41.0080   26.6340   34.2640 C   0  0  0  0  0  0  0  0  0  0  0  0
   39.9020   25.8350   34.6070 C   0  0  0  0  0  0  0  0  0  0  0  0
   41.5860   23.1790   35.8770 H   0  0  0  0  0  0  0  0  0  0  0  0
   43.5120   24.5660   35.2810 H   0  0  0  0  0  0  0  0  0  0  0  0
   43.1640   26.7270   34.2730 H   0  0  0  0  0  0  0  0  0  0  0  0
   40.9710   27.6090   33.8140 H   0  0  0  0  0  0  0  0  0  0  0  0
   37.5390   21.8500   35.3280 C   0  0  0  0  0  0  0  0  0  0  0  0
   38.5810   22.6500   34.8220 C   0  0  0  0  0  0  0  0  0  0  0  0
   39.0420   23.7240   35.5840 C   0  0  0  0  0  0  0  0  0  0  0  0
   38.4390   23.9160   36.7740 N   0  0  0  0  0  0  0  0  0  0  0  0
   37.4430   23.1470   37.2530 C   0  0  0  0  0  0  0  0  0  0  0  0
   37.0040   22.1260   36.5300 N   0  0  0  0  0  0  0  0  0  0  0  0
   37.2540   21.0440   34.6630 H   0  0  0  0  0  0  0  0  0  0  0  0
   39.0370   22.4720   33.8770 H   0  0  0  0  0  0  0  0  0  0  0  0
   36.9960   23.3410   38.2070 H   0  0  0  0  0  0  0  0  0  0  0  0
   38.8770   25.7280   31.8290 C   0  0  0  0  0  3  0  0  0  0  0  0
   38.7870   26.3440   30.4250 C   0  0  0  0  0  2  0  0  0  0  0  0
   39.6100   25.3940   29.5450 C   0  0  0  0  0  2  0  0  0  0  0  0
   39.0260   24.0220   29.5790 C   0  0  0  0  0  2  0  0  0  0  0  0
   37.7680   23.9890   30.4090 C   0  0  0  0  0  2  0  0  0  0  0  0
   38.0200   24.5250   31.8190 C   0  0  0  0  0  2  0  0  0  0  0  0
  1 22  1  0  0  0  0
  1  7  1  1  0  0  0
  1  2  1  0  0  0  0
  2  8  1  0  0  0  0
  3 10  1  0  0  0  0
  3  2  1  0  0  0  0
  3 11  1  0  0  0  0
  4  3  1  0  0  0  0
  5 14  1  0  0  0  0
  5  6  1  0  0  0  0
  5  4  1  0  0  0  0
  6 16  1  6  0  0  0
  6  1  1  0  0  0  0
  9  2  1  0  0  0  0
 12  4  1  0  0  0  0
 13  4  1  0  0  0  0
 15  5  1  0  0  0  0
 17 18  1  0  0  0  0
 17 29  1  0  0  0  0
 18 23  1  0  0  0  0
 19 24  1  0  0  0  0
 19 18  2  0  0  0  0
 20 19  1  0  0  0  0
 21 20  2  0  0  0  0
 21 22  1  0  0  0  0
 22 17  2  0  0  0  0
 25 20  1  0  0  0  0
 26 21  1  0  0  0  0
 27 32  1  0  0  0  0
 28 27  2  0  0  0  0
 28 29  1  0  0  0  0
 29 30  2  0  0  0  0
 30 31  1  0  0  0  0
 31 35  1  0  0  0  0
 32 31  2  0  0  0  0
 33 27  1  0  0  0  0
 34 28  1  0  0  0  0
 36  6  1  0  0  0  0
 37 36  1  0  0  0  0
 38 39  1  0  0  0  0
 38 37  1  0  0  0  0
 39 40  1  0  0  0  0
 40 41  1  0  0  0  0
 41 36  1  0  0  0  0
M  END
>  <minimizedAffinity>
-5.47448826

$$$$

 OpenBabel03272503543D

 41 44  0  0  1  0  0  0  0  0999 V2000
   38.8170   23.2720   35.6910 C   0  0  1  0  0  0  0  0  0  0  0  0
   39.0980   22.8240   37.1480 C   0  0  0  0  0  0  0  0  0  0  0  0
   37.8800   23.3240   37.9310 C   0  0  0  0  0  0  0  0  0  0  0  0
   38.0090   24.7970   37.9980 C   0  0  0  0  0  0  0  0  0  0  0  0
   37.9870   25.3950   36.6100 C   0  0  0  0  0  0  0  0  0  0  0  0
   39.0210   24.7610   35.7080 C   0  0  2  0  0  0  0  0  0  0  0  0
   37.7750   22.9220   35.5650 H   0  0  0  0  0  0  0  0  0  0  0  0
   39.1540   21.7190   37.1980 H   0  0  0  0  0  0  0  0  0  0  0  0
   39.9700   23.3380   37.5580 H   0  0  0  0  0  0  0  0  0  0  0  0
   36.9560   23.0880   37.3240 H   0  0  0  0  0  0  0  0  0  0  0  0
   37.7950   22.8610   38.9240 H   0  0  0  0  0  0  0  0  0  0  0  0
   39.0410   25.0200   38.3940 H   0  0  0  0  0  0  0  0  0  0  0  0
   37.3170   25.3290   38.6400 H   0  0  0  0  0  0  0  0  0  0  0  0
   36.9750   25.3090   36.2180 H   0  0  0  0  0  0  0  0  0  0  0  0
   38.3140   26.4540   36.7450 H   0  0  0  0  0  0  0  0  0  0  0  0
   40.0090   24.9680   36.1670 H   0  0  0  0  0  0  0  0  0  0  0  0
   39.2660   22.0260   33.5550 C   0  0  0  0  0  0  0  0  0  0  0  0
   40.1700   21.4280   32.6870 C   0  0  0  0  0  0  0  0  0  0  0  0
   41.5400   21.3750   33.0120 C   0  0  0  0  0  0  0  0  0  0  0  0
   41.9260   21.9350   34.2110 C   0  0  0  0  0  0  0  0  0  0  0  0
   41.0430   22.5280   35.0750 C   0  0  0  0  0  0  0  0  0  0  0  0
   39.6800   22.5720   34.7340 C   0  0  0  0  0  0  0  0  0  0  0  0
   39.8670   20.9860   31.7420 H   0  0  0  0  0  0  0  0  0  0  0  0
   42.2400   20.9080   32.3320 H   0  0  0  0  0  0  0  0  0  0  0  0
   42.9880   21.8670   34.4120 H   0  0  0  0  0  0  0  0  0  0  0  0
   41.4870   22.9200   35.9720 H   0  0  0  0  0  0  0  0  0  0  0  0
   35.9880   22.7460   31.8210 C   0  0  0  0  0  0  0  0  0  0  0  0
   37.3460   22.8700   32.1690 C   0  0  0  0  0  0  0  0  0  0  0  0
   37.8860   22.0030   33.1190 C   0  0  0  0  0  0  0  0  0  0  0  0
   37.0430   21.0910   33.6430 N   0  0  0  0  0  0  0  0  0  0  0  0
   35.7440   20.9760   33.3060 C   0  0  0  0  0  0  0  0  0  0  0  0
   35.2310   21.7990   32.4030 N   0  0  0  0  0  0  0  0  0  0  0  0
   35.6670   23.4640   31.0770 H   0  0  0  0  0  0  0  0  0  0  0  0
   37.9870   23.6020   31.7370 H   0  0  0  0  0  0  0  0  0  0  0  0
   35.1140   20.2320   33.7520 H   0  0  0  0  0  0  0  0  0  0  0  0
   38.9660   25.4240   34.3620 C   0  0  0  0  0  3  0  0  0  0  0  0
   39.9280   26.6200   34.4000 C   0  0  0  0  0  2  0  0  0  0  0  0
   40.1570   26.9640   32.9220 C   0  0  0  0  0  2  0  0  0  0  0  0
   38.8650   27.3220   32.2690 C   0  0  0  0  0  2  0  0  0  0  0  0
   37.7320   27.3060   33.2640 C   0  0  0  0  0  2  0  0  0  0  0  0
   37.6430   25.9580   33.9800 C   0  0  0  0  0  2  0  0  0  0  0  0
  1  7  1  6  0  0  0
  1  6  1  0  0  0  0
  1  2  1  0  0  0  0
  2  8  1  0  0  0  0
  2  9  1  0  0  0  0
  2  3  1  0  0  0  0
  3  4  1  0  0  0  0
  3 11  1  0  0  0  0
  4 12  1  0  0  0  0
  4 13  1  0  0  0  0
  5 15  1  0  0  0  0
  5  4  1  0  0  0  0
  6 16  1  1  0  0  0
  6  5  1  0  0  0  0
 10  3  1  0  0  0  0
 14  5  1  0  0  0  0
 17 22  1  0  0  0  0
 18 19  1  0  0  0  0
 18 17  2  0  0  0  0
 19 20  2  0  0  0  0
 20 25  1  0  0  0  0
 20 21  1  0  0  0  0
 21 26  1  0  0  0  0
 22 21  2  0  0  0  0
 22  1  1  0  0  0  0
 23 18  1  0  0  0  0
 24 19  1  0  0  0  0
 27 28  2  0  0  0  0
 27 32  1  0  0  0  0
 28 29  1  0  0  0  0
 29 17  1  0  0  0  0
 29 30  2  0  0  0  0
 31 30  1  0  0  0  0
 31 35  1  0  0  0  0
 32 31  2  0  0  0  0
 33 27  1  0  0  0  0
 34 28  1  0  0  0  0
 36 37  1  0  0  0  0
 36  6  1  0  0  0  0
 38 37  1  0  0  0  0
 39 38  1  0  0  0  0
 39 40  1  0  0  0  0
 40 41  1  0  0  0  0
 41 36  1  0  0  0  0
M  END
>  <minimizedAffinity>
-5.37237787

$$$$

 OpenBabel03272503543D

 41 44  0  0  1  0  0  0  0  0999 V2000
   39.8330   22.8890   33.3720 C   0  0  1  0  0  0  0  0  0  0  0  0
   40.7480   22.1930   32.3320 C   0  0  0  0  0  0  0  0  0  0  0  0
   42.1360   22.7790   32.6090 C   0  0  0  0  0  0  0  0  0  0  0  0
   42.0920   24.1820   32.1390 C   0  0  0  0  0  0  0  0  0  0  0  0
   41.0580   24.9690   32.9100 C   0  0  0  0  0  0  0  0  0  0  0  0
   39.7010   24.3010   32.8750 C   0  0  2  0  0  0  0  0  0  0  0  0
   40.4250   22.7480   34.2960 H   0  0  0  0  0  0  0  0  0  0  0  0
   40.7550   21.0990   32.5100 H   0  0  0  0  0  0  0  0  0  0  0  0
   40.4790   22.4820   31.3140 H   0  0  0  0  0  0  0  0  0  0  0  0
   42.2870   22.7980   33.7290 H   0  0  0  0  0  0  0  0  0  0  0  0
   42.9420   22.1990   32.1390 H   0  0  0  0  0  0  0  0  0  0  0  0
   41.7100   24.1620   31.0770 H   0  0  0  0  0  0  0  0  0  0  0  0
   43.0280   24.7280   32.1130 H   0  0  0  0  0  0  0  0  0  0  0  0
   41.4280   25.1180   33.9230 H   0  0  0  0  0  0  0  0  0  0  0  0
   40.9370   25.9240   32.3450 H   0  0  0  0  0  0  0  0  0  0  0  0
   39.3970   24.2640   31.8100 H   0  0  0  0  0  0  0  0  0  0  0  0
   37.8840   22.0000   34.6880 C   0  0  0  0  0  0  0  0  0  0  0  0
   36.6440   21.3750   34.7140 C   0  0  0  0  0  0  0  0  0  0  0  0
   36.0470   20.9300   33.5180 C   0  0  0  0  0  0  0  0  0  0  0  0
   36.7430   21.1420   32.3470 C   0  0  0  0  0  0  0  0  0  0  0  0
   37.9670   21.7560   32.3100 C   0  0  0  0  0  0  0  0  0  0  0  0
   38.5480   22.1950   33.5130 C   0  0  0  0  0  0  0  0  0  0  0  0
   36.0940   21.2070   35.6360 H   0  0  0  0  0  0  0  0  0  0  0  0
   35.0800   20.4440   33.5430 H   0  0  0  0  0  0  0  0  0  0  0  0
   36.2410   20.7810   31.4590 H   0  0  0  0  0  0  0  0  0  0  0  0
   38.3930   21.8520   31.3270 H   0  0  0  0  0  0  0  0  0  0  0  0
   40.0990   22.6050   37.6870 C   0  0  0  0  0  0  0  0  0  0  0  0
   39.7100   22.1660   36.4070 C   0  0  0  0  0  0  0  0  0  0  0  0
   38.4020   22.3960   35.9800 C   0  0  0  0  0  0  0  0  0  0  0  0
   37.5930   23.0350   36.8490 N   0  0  0  0  0  0  0  0  0  0  0  0
   37.9710   23.4530   38.0720 C   0  0  0  0  0  0  0  0  0  0  0  0
   39.2130   23.2360   38.4780 N   0  0  0  0  0  0  0  0  0  0  0  0
   41.1320   22.3800   37.9230 H   0  0  0  0  0  0  0  0  0  0  0  0
   40.3730   21.6640   35.7440 H   0  0  0  0  0  0  0  0  0  0  0  0
   37.2890   23.9580   38.7260 H   0  0  0  0  0  0  0  0  0  0  0  0
   38.7200   25.1510   33.6300 C   0  0  0  0  0  3  0  0  0  0  0  0
   38.4010   26.3710   32.7540 C   0  0  0  0  0  2  0  0  0  0  0  0
   37.1090   26.9380   33.3570 C   0  0  0  0  0  2  0  0  0  0  0  0
   37.3300   27.3280   34.7780 C   0  0  0  0  0  2  0  0  0  0  0  0
   38.7680   27.1150   35.1820 C   0  0  0  0  0  2  0  0  0  0  0  0
   39.2080   25.6740   34.9220 C   0  0  0  0  0  2  0  0  0  0  0  0
  1 22  1  0  0  0  0
  1  7  1  1  0  0  0
  2  8  1  0  0  0  0
  2  3  1  0  0  0  0
  2  1  1  0  0  0  0
  3 10  1  0  0  0  0
  4  3  1  0  0  0  0
  4  5  1  0  0  0  0
  5 14  1  0  0  0  0
  6 16  1  6  0  0  0
  6  5  1  0  0  0  0
  6  1  1  0  0  0  0
  6 36  1  0  0  0  0
  9  2  1  0  0  0  0
 11  3  1  0  0  0  0
 12  4  1  0  0  0  0
 13  4  1  0  0  0  0
 15  5  1  0  0  0  0
 17 18  1  0  0  0  0
 17 29  1  0  0  0  0
 18 23  1  0  0  0  0
 19 24  1  0  0  0  0
 19 18  2  0  0  0  0
 20 19  1  0  0  0  0
 21 20  2  0  0  0  0
 21 22  1  0  0  0  0
 22 17  2  0  0  0  0
 25 20  1  0  0  0  0
 26 21  1  0  0  0  0
 27 33  1  0  0  0  0
 27 32  1  0  0  0  0
 28 27  2  0  0  0  0
 29 28  1  0  0  0  0
 29 30  2  0  0  0  0
 30 31  1  0  0  0  0
 31 32  2  0  0  0  0
 31 35  1  0  0  0  0
 34 28  1  0  0  0  0
 36 41  1  0  0  0  0
 37 38  1  0  0  0  0
 37 36  1  0  0  0  0
 38 39  1  0  0  0  0
 39 40  1  0  0  0  0
 41 40  1  0  0  0  0
M  END
>  <minimizedAffinity>
-5.36032248

$$$$

 OpenBabel03272503543D

 41 44  0  0  1  0  0  0  0  0999 V2000
   39.5740   25.7200   34.4930 C   0  0  1  0  0  0  0  0  0  0  0  0
   41.0570   26.1640   34.5550 C   0  0  0  0  0  0  0  0  0  0  0  0
   41.1210   27.3740   33.6180 C   0  0  0  0  0  0  0  0  0  0  0  0
   40.9830   26.8380   32.2440 C   0  0  0  0  0  0  0  0  0  0  0  0
   39.6500   26.1480   32.0750 C   0  0  0  0  0  0  0  0  0  0  0  0
   39.4230   25.0940   33.1350 C   0  0  2  0  0  0  0  0  0  0  0  0
   39.0610   26.6880   34.6460 H   0  0  0  0  0  0  0  0  0  0  0  0
   41.3160   26.4710   35.5880 H   0  0  0  0  0  0  0  0  0  0  0  0
   41.7160   25.4010   34.1340 H   0  0  0  0  0  0  0  0  0  0  0  0
   40.2180   28.0210   33.8250 H   0  0  0  0  0  0  0  0  0  0  0  0
   42.0370   27.9660   33.7510 H   0  0  0  0  0  0  0  0  0  0  0  0
   41.7510   26.0190   32.1310 H   0  0  0  0  0  0  0  0  0  0  0  0
   41.1510   27.5250   31.4230 H   0  0  0  0  0  0  0  0  0  0  0  0
   38.8720   26.9090   32.0620 H   0  0  0  0  0  0  0  0  0  0  0  0
   39.7310   25.5920   31.1100 H   0  0  0  0  0  0  0  0  0  0  0  0
   40.2290   24.3440   33.0100 H   0  0  0  0  0  0  0  0  0  0  0  0
   39.9050   23.6720   35.9120 C   0  0  0  0  0  0  0  0  0  0  0  0
   39.5390   22.9060   37.0110 C   0  0  0  0  0  0  0  0  0  0  0  0
   38.4590   23.3000   37.8250 C   0  0  0  0  0  0  0  0  0  0  0  0
   37.8000   24.4610   37.4800 C   0  0  0  0  0  0  0  0  0  0  0  0
   38.1520   25.2240   36.3980 C   0  0  0  0  0  0  0  0  0  0  0  0
   39.2330   24.8150   35.5970 C   0  0  0  0  0  0  0  0  0  0  0  0
   40.0580   21.9900   37.2840 H   0  0  0  0  0  0  0  0  0  0  0  0
   38.1780   22.7000   38.6800 H   0  0  0  0  0  0  0  0  0  0  0  0
   36.9790   24.7180   38.1370 H   0  0  0  0  0  0  0  0  0  0  0  0
   37.5480   26.1010   36.2500 H   0  0  0  0  0  0  0  0  0  0  0  0
   42.0440   21.8830   33.3630 C   0  0  0  0  0  0  0  0  0  0  0  0
   40.8860   22.3170   34.0350 C   0  0  0  0  0  0  0  0  0  0  0  0
   41.0180   23.1540   35.1440 C   0  0  0  0  0  0  0  0  0  0  0  0
   42.2760   23.4890   35.4930 N   0  0  0  0  0  0  0  0  0  0  0  0
   43.3810   23.0710   34.8460 C   0  0  0  0  0  0  0  0  0  0  0  0
   43.2560   22.2760   33.7930 N   0  0  0  0  0  0  0  0  0  0  0  0
   41.8350   21.2380   32.5190 H   0  0  0  0  0  0  0  0  0  0  0  0
   39.9050   22.0340   33.7340 H   0  0  0  0  0  0  0  0  0  0  0  0
   44.3600   23.3670   35.1640 H   0  0  0  0  0  0  0  0  0  0  0  0
   38.1000   24.4300   32.8860 C   0  0  0  0  0  3  0  0  0  0  0  0
   38.2580   23.5470   31.6400 C   0  0  0  0  0  2  0  0  0  0  0  0
   37.0600   22.5890   31.7040 C   0  0  0  0  0  2  0  0  0  0  0  0
   35.7820   23.3570   31.6720 C   0  0  0  0  0  2  0  0  0  0  0  0
   36.0420   24.8350   31.5180 C   0  0  0  0  0  2  0  0  0  0  0  0
   36.9780   25.3500   32.6130 C   0  0  0  0  0  2  0  0  0  0  0  0
  1  2  1  0  0  0  0
  1  7  1  1  0  0  0
  1 22  1  0  0  0  0
  2  8  1  0  0  0  0
  3 11  1  0  0  0  0
  3 10  1  0  0  0  0
  3  2  1  0  0  0  0
  4  3  1  0  0  0  0
  5  4  1  0  0  0  0
  5  6  1  0  0  0  0
  6 16  1  6  0  0  0
  6  1  1  0  0  0  0
  9  2  1  0  0  0  0
 12  4  1  0  0  0  0
 13  4  1  0  0  0  0
 14  5  1  0  0  0  0
 15  5  1  0  0  0  0
 17 18  1  0  0  0  0
 18 23  1  0  0  0  0
 18 19  2  0  0  0  0
 19 24  1  0  0  0  0
 20 19  1  0  0  0  0
 20 25  1  0  0  0  0
 21 20  2  0  0  0  0
 22 17  2  0  0  0  0
 22 21  1  0  0  0  0
 26 21  1  0  0  0  0
 27 32  2  0  0  0  0
 27 28  1  0  0  0  0
 28 29  2  0  0  0  0
 29 30  1  0  0  0  0
 29 17  1  0  0  0  0
 31 35  1  0  0  0  0
 31 30  2  0  0  0  0
 32 31  1  0  0  0  0
 33 27  1  0  0  0  0
 34 28  1  0  0  0  0
 36  6  1  0  0  0  0
 37 38  1  0  0  0  0
 37 36  1  0  0  0  0
 39 38  1  0  0  0  0
 40 39  1  0  0  0  0
 40 41  1  0  0  0  0
 41 36  1  0  0  0  0
M  END
>  <minimizedAffinity>
-5.3152051

$$$$
