
     RDKit          3D

 51 54  0  0  0  0  0  0  0  0999 V2000
   37.3317   30.1745   51.5118 C   0  0  0  0  0  0  0  0  0  0  0  0
   38.0674   30.8598   50.5150 C   0  0  0  0  0  0  0  0  0  0  0  0
   37.7070   30.6537   49.1945 C   0  0  0  0  0  0  0  0  0  0  0  0
   36.6656   29.8009   48.9699 N   0  0  0  0  0  0  0  0  0  0  0  0
   35.9864   29.1657   49.9275 C   0  0  0  0  0  0  0  0  0  0  0  0
   36.3332   29.3627   51.2150 N   0  0  0  0  0  0  0  0  0  0  0  0
   38.9343   33.2684   49.0036 F   0  0  0  0  0  0  0  0  0  0  0  0
   38.9180   32.4770   47.9290 C   0  0  0  0  0  0  0  0  0  0  0  0
   38.3390   31.2631   48.0472 C   0  0  0  0  0  0  0  0  0  0  0  0
   38.3735   30.5110   46.8665 C   0  0  0  0  0  0  0  0  0  0  0  0
   38.9466   30.9828   45.7109 C   0  0  0  0  0  0  0  0  0  0  0  0
   39.5201   32.2262   45.6525 C   0  0  0  0  0  0  0  0  0  0  0  0
   39.4983   32.9768   46.7905 C   0  0  0  0  0  0  0  0  0  0  0  0
   34.9903   28.3692   49.4435 O   0  0  0  0  0  0  0  0  0  0  0  0
   34.4532   28.6492   48.1591 C   0  0  0  0  0  0  0  0  0  0  0  0
   33.5674   27.5276   47.6986 C   0  0  0  0  0  0  0  0  0  0  0  0
   32.1269   27.9045   47.6898 C   0  0  0  0  0  0  0  0  0  0  0  0
   31.3524   27.5044   48.7795 C   0  0  0  0  0  0  0  0  0  0  0  0
   30.0163   27.7997   48.8698 C   0  0  0  0  0  0  0  0  0  0  0  0
   29.4399   28.4820   47.9010 N   0  0  0  0  0  0  0  0  0  0  0  0
   30.2028   28.8745   46.8304 C   0  0  0  0  0  0  0  0  0  0  0  0
   31.5176   28.6005   46.7114 N   0  0  0  0  0  0  0  0  0  0  0  0
   37.6205   30.3419   52.5383 H   0  0  0  0  0  0  0  0  0  0  0  0
   38.8744   31.5198   50.7008 H   0  0  0  0  0  0  0  0  0  0  0  0
   37.9500   29.5164   46.8007 H   0  0  0  0  0  0  0  0  0  0  0  0
   38.9664   30.3863   44.7986 H   0  0  0  0  0  0  0  0  0  0  0  0
   39.9635   32.5692   44.7272 H   0  0  0  0  0  0  0  0  0  0  0  0
   39.9446   33.9618   46.7698 H   0  0  0  0  0  0  0  0  0  0  0  0
   35.2735   28.8970   47.4594 H   0  0  0  0  0  0  0  0  0  0  0  0
   33.8324   29.5689   48.2532 H   0  0  0  0  0  0  0  0  0  0  0  0
   33.6993   26.6017   48.2656 H   0  0  0  0  0  0  0  0  0  0  0  0
   33.8201   27.3207   46.6175 H   0  0  0  0  0  0  0  0  0  0  0  0
   31.7964   26.9387   49.5986 H   0  0  0  0  0  0  0  0  0  0  0  0
   29.4549   27.4720   49.7281 H   0  0  0  0  0  0  0  0  0  0  0  0
   29.5853   29.6466   45.7176 C   0  0  0  0  0  0  0  0  0  0  0  0
   30.4812   29.4750   44.5082 C   0  0  0  0  0  0  0  0  0  0  0  0
   31.4037   30.6698   44.4402 C   0  0  0  0  0  0  0  0  0  0  0  0
   30.5523   31.8437   44.0014 C   0  0  0  0  0  0  0  0  0  0  0  0
   29.3412   31.9737   44.8677 C   0  0  0  0  0  0  0  0  0  0  0  0
   29.3603   31.0891   46.0904 C   0  0  0  0  0  0  0  0  0  0  0  0
   28.6020   29.1572   45.4538 H   0  0  0  0  0  0  0  0  0  0  0  0
   31.0393   28.5184   44.6019 H   0  0  0  0  0  0  0  0  0  0  0  0
   29.8971   29.4732   43.5615 H   0  0  0  0  0  0  0  0  0  0  0  0
   31.8366   30.8192   45.4491 H   0  0  0  0  0  0  0  0  0  0  0  0
   32.1828   30.4476   43.6781 H   0  0  0  0  0  0  0  0  0  0  0  0
   30.2338   31.6019   42.9508 H   0  0  0  0  0  0  0  0  0  0  0  0
   31.1434   32.7705   43.9360 H   0  0  0  0  0  0  0  0  0  0  0  0
   29.2772   33.0241   45.2389 H   0  0  0  0  0  0  0  0  0  0  0  0
   28.3975   31.8088   44.3056 H   0  0  0  0  0  0  0  0  0  0  0  0
   28.3581   31.1712   46.5600 H   0  0  0  0  0  0  0  0  0  0  0  0
   30.1276   31.4223   46.8177 H   0  0  0  0  0  0  0  0  0  0  0  0
  2  1  2  0
  3  2  1  0
  4  3  2  0
  4  5  1  0
  5  6  2  0
  6  1  1  0
  8  9  2  0
  8  7  1  0
  9  3  1  0
 10  9  1  0
 11 10  2  0
 12 11  1  0
 12 13  2  0
 13  8  1  0
 14  5  1  0
 15 14  1  0
 16 15  1  0
 17 16  1  0
 17 18  2  0
 18 19  1  0
 20 19  2  0
 21 20  1  0
 22 21  2  0
 22 17  1  0
  1 23  1  0
  2 24  1  0
 10 25  1  0
 11 26  1  0
 12 27  1  0
 13 28  1  0
 15 29  1  0
 15 30  1  0
 16 31  1  0
 16 32  1  0
 18 33  1  0
 19 34  1  0
 35 36  1  0
 36 37  1  0
 37 38  1  0
 38 39  1  0
 39 40  1  0
 40 35  1  0
 35 41  1  0
 36 42  1  0
 36 43  1  0
 37 44  1  0
 37 45  1  0
 38 46  1  0
 38 47  1  0
 39 48  1  0
 39 49  1  0
 40 50  1  0
 40 51  1  0
 21 35  1  0
M  ISO  8  23  14  24  14  25  14  26  14  27  14  28  14  29   8  30   8
M  ISO  4  31   8  32   8  33  14  34  14
M  END
>  <DihAtoms>  (1) 
19,20,34,35

>  <DihDeg>  (1) 
-114.04839390416655

$$$$
