
 OpenBabel03272510033D

 18 19  0  0  0  0  0  0  0  0999 V2000
   38.2170   22.8000   34.8790 C   0  0  0  0  0  0  0  0  0  0  0  0
   38.1650   24.0430   34.2260 C   0  0  0  0  0  0  0  0  0  0  0  0
   38.1320   25.1880   35.0000 C   0  0  0  0  0  0  0  0  0  0  0  0
   38.1520   25.0590   36.3660 N   0  0  0  0  0  0  0  0  0  0  0  0
   38.2020   23.8430   36.9510 C   0  0  0  0  0  0  0  0  0  0  0  0
   38.2340   22.7340   36.2070 N   0  0  0  0  0  0  0  0  0  0  0  0
   38.2460   21.8540   34.3570 H   0  0  0  0  0  0  0  0  0  0  0  0
   38.1560   23.9700   33.1690 H   0  0  0  0  0  0  0  0  0  0  0  0
   38.0790   26.4660   34.3090 C   0  0  0  0  0  3  0  0  0  0  0  0
   39.3240   26.9590   33.6750 C   0  0  0  0  0  2  0  0  0  0  0  0
   39.2770   26.9180   32.1610 C   0  0  0  0  0  2  0  0  0  0  0  0
   38.1740   27.8580   31.7240 C   0  0  0  0  0  2  0  0  0  0  0  0
   36.9180   27.6900   32.5370 C   0  0  0  0  0  2  0  0  0  0  0  0
   37.0140   26.3470   33.2100 C   0  0  0  0  0  2  0  0  0  0  0  0
   38.2200   23.7950   38.4290 C   0  0  0  0  0  0  0  0  0  0  0  0
   37.8540   24.9980   39.0150 F   0  0  0  0  0  0  0  0  0  0  0  0
   37.3310   22.8420   38.9130 F   0  0  0  0  0  0  0  0  0  0  0  0
   39.4450   23.4570   38.9560 F   0  0  0  0  0  0  0  0  0  0  0  0
  1  6  1  0  0  0  0
  2  1  2  0  0  0  0
  2  3  1  0  0  0  0
  3  4  2  0  0  0  0
  4  5  1  0  0  0  0
  5 15  1  0  0  0  0
  6  5  2  0  0  0  0
  7  1  1  0  0  0  0
  8  2  1  0  0  0  0
  9  3  1  0  0  0  0
 10  9  1  0  0  0  0
 11 10  1  0  0  0  0
 12 11  1  0  0  0  0
 12 13  1  0  0  0  0
 13 14  1  0  0  0  0
 14  9  1  0  0  0  0
 15 17  1  0  0  0  0
 15 18  1  0  0  0  0
 15 16  1  0  0  0  0
M  END
>  <minimizedAffinity>
-5.14000654

$$$$

 OpenBabel03272510033D

 18 19  0  0  0  0  0  0  0  0999 V2000
   39.8360   23.6920   34.9790 C   0  0  0  0  0  0  0  0  0  0  0  0
   39.4470   24.9060   34.3900 C   0  0  0  0  0  0  0  0  0  0  0  0
   38.6590   25.7690   35.1280 C   0  0  0  0  0  0  0  0  0  0  0  0
   38.2940   25.4010   36.3990 N   0  0  0  0  0  0  0  0  0  0  0  0
   38.6910   24.2220   36.9260 C   0  0  0  0  0  0  0  0  0  0  0  0
   39.4530   23.3860   36.2150 N   0  0  0  0  0  0  0  0  0  0  0  0
   40.4510   22.9570   34.4780 H   0  0  0  0  0  0  0  0  0  0  0  0
   39.8130   25.0390   33.4040 H   0  0  0  0  0  0  0  0  0  0  0  0
   38.2650   27.0220   34.5040 C   0  0  0  0  0  3  0  0  0  0  0  0
   38.4800   27.1610   33.0450 C   0  0  0  0  0  2  0  0  0  0  0  0
   37.1880   27.1550   32.2510 C   0  0  0  0  0  2  0  0  0  0  0  0
   36.3940   28.3690   32.6850 C   0  0  0  0  0  2  0  0  0  0  0  0
   36.3770   28.5430   34.1800 C   0  0  0  0  0  2  0  0  0  0  0  0
   36.7670   27.2160   34.7750 C   0  0  0  0  0  2  0  0  0  0  0  0
   38.2520   23.9050   38.3020 C   0  0  0  0  0  0  0  0  0  0  0  0
   37.2840   22.9130   38.3470 F   0  0  0  0  0  0  0  0  0  0  0  0
   39.3120   23.4470   39.0760 F   0  0  0  0  0  0  0  0  0  0  0  0
   37.7390   24.9860   38.9810 F   0  0  0  0  0  0  0  0  0  0  0  0
  1  6  1  0  0  0  0
  2  1  2  0  0  0  0
  2  3  1  0  0  0  0
  3  4  2  0  0  0  0
  4  5  1  0  0  0  0
  5 15  1  0  0  0  0
  6  5  2  0  0  0  0
  7  1  1  0  0  0  0
  8  2  1  0  0  0  0
  9 14  1  0  0  0  0
  9  3  1  0  0  0  0
 10  9  1  0  0  0  0
 11 12  1  0  0  0  0
 11 10  1  0  0  0  0
 12 13  1  0  0  0  0
 13 14  1  0  0  0  0
 15 16  1  0  0  0  0
 15 18  1  0  0  0  0
 15 17  1  0  0  0  0
M  END
>  <minimizedAffinity>
-5.03054142

$$$$

 OpenBabel03272510033D

 18 19  0  0  0  0  0  0  0  0999 V2000
   38.4760   24.9820   34.7480 C   0  0  0  0  0  0  0  0  0  0  0  0
   38.1400   23.8580   33.9760 C   0  0  0  0  0  0  0  0  0  0  0  0
   37.8210   22.6840   34.6340 C   0  0  0  0  0  0  0  0  0  0  0  0
   37.8480   22.6720   36.0060 N   0  0  0  0  0  0  0  0  0  0  0  0
   38.1780   23.7780   36.7080 C   0  0  0  0  0  0  0  0  0  0  0  0
   38.4860   24.9140   36.0750 N   0  0  0  0  0  0  0  0  0  0  0  0
   38.7380   25.9400   34.3210 H   0  0  0  0  0  0  0  0  0  0  0  0
   38.1660   24.0330   32.9310 H   0  0  0  0  0  0  0  0  0  0  0  0
   37.4750   21.5290   33.8210 C   0  0  0  0  0  3  0  0  0  0  0  0
   36.0950   21.0020   33.9280 C   0  0  0  0  0  2  0  0  0  0  0  0
   35.2630   21.2610   32.6880 C   0  0  0  0  0  2  0  0  0  0  0  0
   35.9200   20.5140   31.5460 C   0  0  0  0  0  2  0  0  0  0  0  0
   37.4140   20.6970   31.5220 C   0  0  0  0  0  2  0  0  0  0  0  0
   37.7150   21.9140   32.3550 C   0  0  0  0  0  2  0  0  0  0  0  0
   38.1810   23.6770   38.1830 C   0  0  0  0  0  0  0  0  0  0  0  0
   37.2680   22.7510   38.6650 F   0  0  0  0  0  0  0  0  0  0  0  0
   39.4250   23.2760   38.6570 F   0  0  0  0  0  0  0  0  0  0  0  0
   37.9100   24.8660   38.8190 F   0  0  0  0  0  0  0  0  0  0  0  0
  1  6  1  0  0  0  0
  2  3  1  0  0  0  0
  2  1  2  0  0  0  0
  3  4  2  0  0  0  0
  4  5  1  0  0  0  0
  5 15  1  0  0  0  0
  6  5  2  0  0  0  0
  7  1  1  0  0  0  0
  8  2  1  0  0  0  0
  9 10  1  0  0  0  0
  9  3  1  0  0  0  0
 11 10  1  0  0  0  0
 12 11  1  0  0  0  0
 13 12  1  0  0  0  0
 13 14  1  0  0  0  0
 14  9  1  0  0  0  0
 15 17  1  0  0  0  0
 15 16  1  0  0  0  0
 15 18  1  0  0  0  0
M  END
>  <minimizedAffinity>
-4.92902708

$$$$

 OpenBabel03272510033D

 18 19  0  0  0  0  0  0  0  0999 V2000
   38.2000   23.6830   38.5630 C   0  0  0  0  0  0  0  0  0  0  0  0
   37.7740   24.6130   37.6010 C   0  0  0  0  0  0  0  0  0  0  0  0
   38.4960   24.7180   36.4270 C   0  0  0  0  0  0  0  0  0  0  0  0
   39.5930   23.9110   36.2560 N   0  0  0  0  0  0  0  0  0  0  0  0
   39.9670   23.0300   37.2090 C   0  0  0  0  0  0  0  0  0  0  0  0
   39.2710   22.9260   38.3450 N   0  0  0  0  0  0  0  0  0  0  0  0
   37.6970   23.5320   39.5090 H   0  0  0  0  0  0  0  0  0  0  0  0
   36.9100   25.1570   37.8860 H   0  0  0  0  0  0  0  0  0  0  0  0
   38.0420   25.6840   35.4410 C   0  0  0  0  0  3  0  0  0  0  0  0
   38.7520   26.9830   35.3730 C   0  0  0  0  0  2  0  0  0  0  0  0
   39.5950   27.1340   34.1220 C   0  0  0  0  0  2  0  0  0  0  0  0
   38.6490   27.1010   32.9400 C   0  0  0  0  0  2  0  0  0  0  0  0
   37.6280   26.0010   33.0500 C   0  0  0  0  0  2  0  0  0  0  0  0
   38.1560   25.0190   34.0620 C   0  0  0  0  0  2  0  0  0  0  0  0
   41.1610   22.1990   36.9440 C   0  0  0  0  0  0  0  0  0  0  0  0
   41.0860   21.5100   35.7420 F   0  0  0  0  0  0  0  0  0  0  0  0
   42.3110   22.9780   36.8720 F   0  0  0  0  0  0  0  0  0  0  0  0
   41.4110   21.2630   37.9200 F   0  0  0  0  0  0  0  0  0  0  0  0
  1  7  1  0  0  0  0
  2  8  1  0  0  0  0
  2  1  2  0  0  0  0
  3  2  1  0  0  0  0
  4  3  2  0  0  0  0
  4  5  1  0  0  0  0
  5  6  2  0  0  0  0
  6  1  1  0  0  0  0
  9  3  1  0  0  0  0
 10  9  1  0  0  0  0
 11 10  1  0  0  0  0
 12 13  1  0  0  0  0
 12 11  1  0  0  0  0
 13 14  1  0  0  0  0
 14  9  1  0  0  0  0
 15  5  1  0  0  0  0
 15 18  1  0  0  0  0
 16 15  1  0  0  0  0
 17 15  1  0  0  0  0
M  END
>  <minimizedAffinity>
-4.84080648

$$$$

 OpenBabel03272510033D

 18 19  0  0  0  0  0  0  0  0999 V2000
   38.1930   23.4940   32.0350 C   0  0  0  0  0  0  0  0  0  0  0  0
   38.7980   23.8620   33.2490 C   0  0  0  0  0  0  0  0  0  0  0  0
   38.4110   23.2000   34.4000 C   0  0  0  0  0  0  0  0  0  0  0  0
   37.4580   22.2170   34.3040 N   0  0  0  0  0  0  0  0  0  0  0  0
   36.9030   21.8970   33.1150 C   0  0  0  0  0  0  0  0  0  0  0  0
   37.2740   22.5340   32.0010 N   0  0  0  0  0  0  0  0  0  0  0  0
   38.4330   23.9560   31.0870 H   0  0  0  0  0  0  0  0  0  0  0  0
   39.5140   24.6370   33.1520 H   0  0  0  0  0  0  0  0  0  0  0  0
   39.0460   23.5920   35.6470 C   0  0  0  0  0  3  0  0  0  0  0  0
   38.2960   24.5000   36.5460 C   0  0  0  0  0  2  0  0  0  0  0  0
   37.8070   23.8170   37.8070 C   0  0  0  0  0  2  0  0  0  0  0  0
   39.0330   23.3720   38.5760 C   0  0  0  0  0  2  0  0  0  0  0  0
   40.0590   22.7130   37.6930 C   0  0  0  0  0  2  0  0  0  0  0  0
   39.3470   22.3070   36.4310 C   0  0  0  0  0  2  0  0  0  0  0  0
   35.8840   20.8250   33.1020 C   0  0  0  0  0  0  0  0  0  0  0  0
   34.8300   21.0900   32.2410 F   0  0  0  0  0  0  0  0  0  0  0  0
   36.4290   19.6160   32.6860 F   0  0  0  0  0  0  0  0  0  0  0  0
   35.3300   20.5750   34.3360 F   0  0  0  0  0  0  0  0  0  0  0  0
  1  2  1  0  0  0  0
  2  3  2  0  0  0  0
  3  9  1  0  0  0  0
  4  3  1  0  0  0  0
  5  4  2  0  0  0  0
  6  1  2  0  0  0  0
  6  5  1  0  0  0  0
  7  1  1  0  0  0  0
  8  2  1  0  0  0  0
  9 14  1  0  0  0  0
  9 10  1  0  0  0  0
 10 11  1  0  0  0  0
 11 12  1  0  0  0  0
 13 12  1  0  0  0  0
 14 13  1  0  0  0  0
 15  5  1  0  0  0  0
 15 18  1  0  0  0  0
 16 15  1  0  0  0  0
 17 15  1  0  0  0  0
M  END
>  <minimizedAffinity>
-4.75396442

$$$$

 OpenBabel03272510033D

 18 19  0  0  0  0  0  0  0  0999 V2000
   35.2080   25.3320   31.0170 C   0  0  0  0  0  0  0  0  0  0  0  0
   35.4200   23.9480   31.1280 C   0  0  0  0  0  0  0  0  0  0  0  0
   36.4320   23.5050   31.9590 C   0  0  0  0  0  0  0  0  0  0  0  0
   37.1820   24.4350   32.6350 N   0  0  0  0  0  0  0  0  0  0  0  0
   36.9430   25.7570   32.4970 C   0  0  0  0  0  0  0  0  0  0  0  0
   35.9650   26.1890   31.6950 N   0  0  0  0  0  0  0  0  0  0  0  0
   34.4410   25.7690   30.3930 H   0  0  0  0  0  0  0  0  0  0  0  0
   34.7560   23.3660   30.5410 H   0  0  0  0  0  0  0  0  0  0  0  0
   36.6380   22.0700   32.0630 C   0  0  0  0  0  3  0  0  0  0  0  0
   36.8160   21.4970   33.4180 C   0  0  0  0  0  2  0  0  0  0  0  0
   35.6320   20.6650   33.8710 C   0  0  0  0  0  2  0  0  0  0  0  0
   35.5220   19.4920   32.9200 C   0  0  0  0  0  2  0  0  0  0  0  0
   35.6670   19.9020   31.4790 C   0  0  0  0  0  2  0  0  0  0  0  0
   35.4220   21.3860   31.4240 C   0  0  0  0  0  2  0  0  0  0  0  0
   37.7980   26.6900   33.2630 C   0  0  0  0  0  0  0  0  0  0  0  0
   38.7580   26.0430   34.0260 F   0  0  0  0  0  0  0  0  0  0  0  0
   38.4900   27.5490   32.4160 F   0  0  0  0  0  0  0  0  0  0  0  0
   37.0960   27.5050   34.1200 F   0  0  0  0  0  0  0  0  0  0  0  0
  1  2  2  0  0  0  0
  1  6  1  0  0  0  0
  2  3  1  0  0  0  0
  3  9  1  0  0  0  0
  3  4  2  0  0  0  0
  5  4  1  0  0  0  0
  5 15  1  0  0  0  0
  6  5  2  0  0  0  0
  7  1  1  0  0  0  0
  8  2  1  0  0  0  0
  9 10  1  0  0  0  0
 10 11  1  0  0  0  0
 12 11  1  0  0  0  0
 13 12  1  0  0  0  0
 14 13  1  0  0  0  0
 14  9  1  0  0  0  0
 15 16  1  0  0  0  0
 15 18  1  0  0  0  0
 17 15  1  0  0  0  0
M  END
>  <minimizedAffinity>
-4.75073719

$$$$

 OpenBabel03272510033D

 18 19  0  0  0  0  0  0  0  0999 V2000
   37.7700   22.1240   34.9120 C   0  0  0  0  0  0  0  0  0  0  0  0
   38.6750   22.8870   34.1560 C   0  0  0  0  0  0  0  0  0  0  0  0
   39.4180   23.8550   34.8070 C   0  0  0  0  0  0  0  0  0  0  0  0
   39.2370   24.0260   36.1560 N   0  0  0  0  0  0  0  0  0  0  0  0
   38.3530   23.2690   36.8430 C   0  0  0  0  0  0  0  0  0  0  0  0
   37.6340   22.3320   36.2170 N   0  0  0  0  0  0  0  0  0  0  0  0
   37.1490   21.3470   34.4890 H   0  0  0  0  0  0  0  0  0  0  0  0
   38.6960   22.6310   33.1280 H   0  0  0  0  0  0  0  0  0  0  0  0
   40.3510   24.6350   34.0110 C   0  0  0  0  0  3  0  0  0  0  0  0
   39.8400   25.8630   33.3580 C   0  0  0  0  0  2  0  0  0  0  0  0
   40.3750   27.1350   33.9820 C   0  0  0  0  0  2  0  0  0  0  0  0
   41.8760   27.1350   33.7770 C   0  0  0  0  0  2  0  0  0  0  0  0
   42.5000   25.8020   34.0930 C   0  0  0  0  0  2  0  0  0  0  0  0
   41.5060   25.0470   34.9340 C   0  0  0  0  0  2  0  0  0  0  0  0
   38.2200   23.5200   38.2940 C   0  0  0  0  0  0  0  0  0  0  0  0
   37.3520   22.6380   38.9190 F   0  0  0  0  0  0  0  0  0  0  0  0
   39.4430   23.3840   38.9430 F   0  0  0  0  0  0  0  0  0  0  0  0
   37.7800   24.7870   38.5980 F   0  0  0  0  0  0  0  0  0  0  0  0
  1  6  1  0  0  0  0
  2  3  1  0  0  0  0
  2  1  2  0  0  0  0
  3  4  2  0  0  0  0
  4  5  1  0  0  0  0
  5 15  1  0  0  0  0
  6  5  2  0  0  0  0
  7  1  1  0  0  0  0
  8  2  1  0  0  0  0
  9  3  1  0  0  0  0
  9 14  1  0  0  0  0
 10 11  1  0  0  0  0
 10  9  1  0  0  0  0
 12 11  1  0  0  0  0
 12 13  1  0  0  0  0
 13 14  1  0  0  0  0
 15 18  1  0  0  0  0
 15 16  1  0  0  0  0
 15 17  1  0  0  0  0
M  END
>  <minimizedAffinity>
-4.70783091

$$$$

 OpenBabel03272510033D

 18 19  0  0  0  0  0  0  0  0999 V2000
   40.4920   22.2840   35.3630 C   0  0  0  0  0  0  0  0  0  0  0  0
   39.5610   22.0200   34.3460 C   0  0  0  0  0  0  0  0  0  0  0  0
   38.2250   22.2730   34.5990 C   0  0  0  0  0  0  0  0  0  0  0  0
   37.8720   22.7690   35.8290 N   0  0  0  0  0  0  0  0  0  0  0  0
   38.8030   23.0080   36.7780 C   0  0  0  0  0  0  0  0  0  0  0  0
   40.0940   22.7650   36.5370 N   0  0  0  0  0  0  0  0  0  0  0  0
   41.5550   22.1180   35.2550 H   0  0  0  0  0  0  0  0  0  0  0  0
   39.9950   21.6400   33.4560 H   0  0  0  0  0  0  0  0  0  0  0  0
   37.2740   21.9950   33.5360 C   0  0  0  0  0  3  0  0  0  0  0  0
   37.8030   21.4520   32.2630 C   0  0  0  0  0  2  0  0  0  0  0  0
   37.4340   20.0000   32.0370 C   0  0  0  0  0  2  0  0  0  0  0  0
   35.9250   19.9350   31.9350 C   0  0  0  0  0  2  0  0  0  0  0  0
   35.2390   20.7450   33.0020 C   0  0  0  0  0  2  0  0  0  0  0  0
   36.2570   20.9840   34.0850 C   0  0  0  0  0  2  0  0  0  0  0  0
   38.3350   23.5430   38.0760 C   0  0  0  0  0  0  0  0  0  0  0  0
   39.3200   23.5350   39.0520 F   0  0  0  0  0  0  0  0  0  0  0  0
   37.9200   24.8640   37.9560 F   0  0  0  0  0  0  0  0  0  0  0  0
   37.2590   22.8640   38.5970 F   0  0  0  0  0  0  0  0  0  0  0  0
  1  6  1  0  0  0  0
  2  3  1  0  0  0  0
  2  1  2  0  0  0  0
  3  4  2  0  0  0  0
  4  5  1  0  0  0  0
  5 15  1  0  0  0  0
  6  5  2  0  0  0  0
  7  1  1  0  0  0  0
  8  2  1  0  0  0  0
  9 14  1  0  0  0  0
  9  3  1  0  0  0  0
 10  9  1  0  0  0  0
 11 10  1  0  0  0  0
 12 11  1  0  0  0  0
 12 13  1  0  0  0  0
 13 14  1  0  0  0  0
 15 18  1  0  0  0  0
 15 16  1  0  0  0  0
 17 15  1  0  0  0  0
M  END
>  <minimizedAffinity>
-4.67462206

$$$$

 OpenBabel03272510033D

 18 19  0  0  0  0  0  0  0  0999 V2000
   38.4510   23.0360   36.8090 C   0  0  0  0  0  0  0  0  0  0  0  0
   38.1660   22.3920   35.5940 C   0  0  0  0  0  0  0  0  0  0  0  0
   37.9980   23.1710   34.4640 C   0  0  0  0  0  0  0  0  0  0  0  0
   38.1170   24.5330   34.5820 N   0  0  0  0  0  0  0  0  0  0  0  0
   38.3920   25.1090   35.7720 C   0  0  0  0  0  0  0  0  0  0  0  0
   38.5550   24.3590   36.8660 N   0  0  0  0  0  0  0  0  0  0  0  0
   38.5980   22.5080   37.7420 H   0  0  0  0  0  0  0  0  0  0  0  0
   38.1080   21.3360   35.6730 H   0  0  0  0  0  0  0  0  0  0  0  0
   37.7040   22.4890   33.2140 C   0  0  0  0  0  3  0  0  0  0  0  0
   36.9140   21.2380   33.2820 C   0  0  0  0  0  2  0  0  0  0  0  0
   35.5100   21.3910   32.7310 C   0  0  0  0  0  2  0  0  0  0  0  0
   35.6430   21.7350   31.2630 C   0  0  0  0  0  2  0  0  0  0  0  0
   36.6870   22.7890   31.0090 C   0  0  0  0  0  2  0  0  0  0  0  0
   36.9370   23.4770   32.3250 C   0  0  0  0  0  2  0  0  0  0  0  0
   38.5030   26.5840   35.8090 C   0  0  0  0  0  0  0  0  0  0  0  0
   37.5890   27.2170   34.9800 F   0  0  0  0  0  0  0  0  0  0  0  0
   38.2700   27.0750   37.0880 F   0  0  0  0  0  0  0  0  0  0  0  0
   39.7470   27.0530   35.4550 F   0  0  0  0  0  0  0  0  0  0  0  0
  1  6  1  0  0  0  0
  1  7  1  0  0  0  0
  2  8  1  0  0  0  0
  2  1  2  0  0  0  0
  3  4  2  0  0  0  0
  3  2  1  0  0  0  0
  4  5  1  0  0  0  0
  5 15  1  0  0  0  0
  5  6  2  0  0  0  0
  9 10  1  0  0  0  0
  9  3  1  0  0  0  0
 11 10  1  0  0  0  0
 12 11  1  0  0  0  0
 13 12  1  0  0  0  0
 13 14  1  0  0  0  0
 14  9  1  0  0  0  0
 15 17  1  0  0  0  0
 16 15  1  0  0  0  0
 18 15  1  0  0  0  0
M  END
>  <minimizedAffinity>
-4.65363503

$$$$
