
 OpenBabel03272504133D

 18 19  0  0  1  0  0  0  0  0999 V2000
   38.5950   23.9900   37.0230 C   0  0  0  0  0  0  0  0  0  0  0  0
   37.8900   24.9250   36.2520 C   0  0  0  0  0  0  0  0  0  0  0  0
   38.1860   25.0350   34.8960 C   0  0  0  0  0  0  0  0  0  0  0  0
   39.1640   24.2090   34.3950 N   0  0  0  0  0  0  0  0  0  0  0  0
   39.8170   23.3280   35.1650 C   0  0  0  0  0  0  0  0  0  0  0  0
   39.5390   23.2150   36.4660 N   0  0  0  0  0  0  0  0  0  0  0  0
   37.1290   25.5550   36.6800 H   0  0  0  0  0  0  0  0  0  0  0  0
   40.5830   22.6920   34.7370 H   0  0  0  0  0  0  0  0  0  0  0  0
   37.4760   26.0050   34.0180 C   0  0  2  0  0  3  0  0  0  0  0  0
   38.3940   26.6310   32.9930 C   0  0  0  0  0  2  0  0  0  0  0  0
   37.4900   27.3180   32.0200 C   0  0  0  0  0  2  0  0  0  0  0  0
   36.7270   28.4040   32.6770 C   0  0  0  0  0  3  0  0  0  0  0  0
   36.4560   28.3080   34.1190 C   0  0  0  0  0  3  0  0  0  0  0  0
   36.8540   27.0850   34.8540 C   0  0  0  0  0  2  0  0  0  0  0  0
   38.2690   23.8800   38.4810 C   0  0  0  0  0  0  0  0  0  0  0  0
   37.8860   25.1250   38.9690 F   0  0  0  0  0  0  0  0  0  0  0  0
   37.3050   22.9280   38.6270 F   0  0  0  0  0  0  0  0  0  0  0  0
   39.4450   23.5300   39.1400 F   0  0  0  0  0  0  0  0  0  0  0  0
  1 15  1  0  0  0  0
  2  7  1  0  0  0  0
  2  1  2  0  0  0  0
  3  2  1  0  0  0  0
  4  3  2  0  0  0  0
  4  5  1  0  0  0  0
  5  6  2  0  0  0  0
  6  1  1  0  0  0  0
  8  5  1  0  0  0  0
  9 14  1  0  0  0  0
  9  3  1  1  0  0  0
 10  9  1  0  0  0  0
 11 12  1  0  0  0  0
 11 10  1  0  0  0  0
 12 13  2  0  0  0  0
 13 14  1  0  0  0  0
 15 17  1  0  0  0  0
 15 16  1  0  0  0  0
 15 18  1  0  0  0  0
M  END
>  <minimizedAffinity>
-5.13299513

$$$$

 OpenBabel03272504133D

 18 19  0  0  1  0  0  0  0  0999 V2000
   38.1770   23.8760   36.8970 C   0  0  0  0  0  0  0  0  0  0  0  0
   37.7710   22.7760   36.1270 C   0  0  0  0  0  0  0  0  0  0  0  0
   37.7640   22.8950   34.7400 C   0  0  0  0  0  0  0  0  0  0  0  0
   38.1600   24.1000   34.2090 N   0  0  0  0  0  0  0  0  0  0  0  0
   38.5410   25.1280   34.9790 C   0  0  0  0  0  0  0  0  0  0  0  0
   38.5520   25.0230   36.3100 N   0  0  0  0  0  0  0  0  0  0  0  0
   37.4670   21.8480   36.5800 H   0  0  0  0  0  0  0  0  0  0  0  0
   38.8490   26.0640   34.5260 H   0  0  0  0  0  0  0  0  0  0  0  0
   37.3460   21.7690   33.8620 C   0  0  2  0  0  3  0  0  0  0  0  0
   36.9060   22.2390   32.4940 C   0  0  0  0  0  2  0  0  0  0  0  0
   36.8240   21.0020   31.6580 C   0  0  0  0  0  2  0  0  0  0  0  0
   35.7920   20.0750   32.1780 C   0  0  0  0  0  3  0  0  0  0  0  0
   35.4560   20.1210   33.6090 C   0  0  0  0  0  3  0  0  0  0  0  0
   36.2260   21.0090   34.5100 C   0  0  0  0  0  2  0  0  0  0  0  0
   38.1800   23.7370   38.3890 C   0  0  0  0  0  0  0  0  0  0  0  0
   37.9170   24.9720   38.9740 F   0  0  0  0  0  0  0  0  0  0  0  0
   37.2700   22.7800   38.7260 F   0  0  0  0  0  0  0  0  0  0  0  0
   39.4720   23.3770   38.7650 F   0  0  0  0  0  0  0  0  0  0  0  0
  1 15  1  0  0  0  0
  2  7  1  0  0  0  0
  2  1  2  0  0  0  0
  3  2  1  0  0  0  0
  4  3  2  0  0  0  0
  4  5  1  0  0  0  0
  5  6  2  0  0  0  0
  6  1  1  0  0  0  0
  8  5  1  0  0  0  0
  9 14  1  0  0  0  0
  9  3  1  1  0  0  0
 10  9  1  0  0  0  0
 11 12  1  0  0  0  0
 11 10  1  0  0  0  0
 12 13  2  0  0  0  0
 13 14  1  0  0  0  0
 15 17  1  0  0  0  0
 15 18  1  0  0  0  0
 15 16  1  0  0  0  0
M  END
>  <minimizedAffinity>
-5.05134916

$$$$

 OpenBabel03272504133D

 18 19  0  0  1  0  0  0  0  0999 V2000
   38.2120   23.6200   36.8730 C   0  0  0  0  0  0  0  0  0  0  0  0
   38.1640   24.8300   36.1660 C   0  0  0  0  0  0  0  0  0  0  0  0
   38.1000   24.7920   34.7760 C   0  0  0  0  0  0  0  0  0  0  0  0
   38.0880   23.5530   34.1800 N   0  0  0  0  0  0  0  0  0  0  0  0
   38.1360   22.4180   34.8910 C   0  0  0  0  0  0  0  0  0  0  0  0
   38.1970   22.4450   36.2240 N   0  0  0  0  0  0  0  0  0  0  0  0
   38.1750   25.7820   36.6690 H   0  0  0  0  0  0  0  0  0  0  0  0
   38.1250   21.4580   34.3870 H   0  0  0  0  0  0  0  0  0  0  0  0
   38.0460   26.0360   33.9620 C   0  0  2  0  0  3  0  0  0  0  0  0
   36.9390   26.0020   32.9330 C   0  0  0  0  0  2  0  0  0  0  0  0
   36.8220   27.4070   32.4320 C   0  0  0  0  0  2  0  0  0  0  0  0
   38.0670   27.8360   31.7540 C   0  0  0  0  0  3  0  0  0  0  0  0
   39.3380   27.2090   32.1440 C   0  0  0  0  0  3  0  0  0  0  0  0
   39.3600   26.2490   33.2720 C   0  0  0  0  0  2  0  0  0  0  0  0
   38.2820   23.6730   38.3690 C   0  0  0  0  0  0  0  0  0  0  0  0
   37.3080   22.8390   38.9120 F   0  0  0  0  0  0  0  0  0  0  0  0
   39.5470   23.3340   38.7460 F   0  0  0  0  0  0  0  0  0  0  0  0
   37.9600   24.9740   38.7500 F   0  0  0  0  0  0  0  0  0  0  0  0
  1 15  1  0  0  0  0
  2  7  1  0  0  0  0
  2  1  2  0  0  0  0
  3  2  1  0  0  0  0
  4  3  2  0  0  0  0
  4  5  1  0  0  0  0
  5  6  2  0  0  0  0
  6  1  1  0  0  0  0
  8  5  1  0  0  0  0
  9  3  1  6  0  0  0
 10  9  1  0  0  0  0
 11 10  1  0  0  0  0
 12 13  2  0  0  0  0
 12 11  1  0  0  0  0
 13 14  1  0  0  0  0
 14  9  1  0  0  0  0
 15 17  1  0  0  0  0
 15 18  1  0  0  0  0
 15 16  1  0  0  0  0
M  END
>  <minimizedAffinity>
-4.98817062

$$$$

 OpenBabel03272504133D

 18 19  0  0  1  0  0  0  0  0999 V2000
   38.8900   23.0600   37.1110 C   0  0  0  0  0  0  0  0  0  0  0  0
   38.0570   22.7700   36.0210 C   0  0  0  0  0  0  0  0  0  0  0  0
   38.6230   22.2330   34.8690 C   0  0  0  0  0  0  0  0  0  0  0  0
   39.9810   22.0200   34.8740 N   0  0  0  0  0  0  0  0  0  0  0  0
   40.7450   22.3110   35.9360 C   0  0  0  0  0  0  0  0  0  0  0  0
   40.2100   22.8260   37.0460 N   0  0  0  0  0  0  0  0  0  0  0  0
   36.9960   22.9510   36.0550 H   0  0  0  0  0  0  0  0  0  0  0  0
   41.8140   22.1300   35.9060 H   0  0  0  0  0  0  0  0  0  0  0  0
   37.7980   21.9010   33.6760 C   0  0  2  0  0  3  0  0  0  0  0  0
   37.4030   23.1300   32.8890 C   0  0  0  0  0  2  0  0  0  0  0  0
   36.8660   22.6140   31.5920 C   0  0  0  0  0  2  0  0  0  0  0  0
   35.6500   21.7960   31.8070 C   0  0  0  0  0  3  0  0  0  0  0  0
   35.4760   21.1110   33.0960 C   0  0  0  0  0  3  0  0  0  0  0  0
   36.5620   21.1650   34.1020 C   0  0  0  0  0  2  0  0  0  0  0  0
   38.2710   23.6380   38.3460 C   0  0  0  0  0  0  0  0  0  0  0  0
   37.8760   24.9500   38.1010 F   0  0  0  0  0  0  0  0  0  0  0  0
   37.2390   22.8300   38.7190 F   0  0  0  0  0  0  0  0  0  0  0  0
   39.2650   23.6890   39.3210 F   0  0  0  0  0  0  0  0  0  0  0  0
  1 15  1  0  0  0  0
  2  7  1  0  0  0  0
  2  1  2  0  0  0  0
  3  4  2  0  0  0  0
  3  2  1  0  0  0  0
  4  5  1  0  0  0  0
  5  6  2  0  0  0  0
  6  1  1  0  0  0  0
  8  5  1  0  0  0  0
  9 14  1  0  0  0  0
  9  3  1  1  0  0  0
 10  9  1  0  0  0  0
 11 12  1  0  0  0  0
 11 10  1  0  0  0  0
 12 13  2  0  0  0  0
 13 14  1  0  0  0  0
 15 17  1  0  0  0  0
 15 18  1  0  0  0  0
 16 15  1  0  0  0  0
M  END
>  <minimizedAffinity>
-4.89294672

$$$$

 OpenBabel03272504133D

 18 19  0  0  1  0  0  0  0  0999 V2000
   37.1440   26.2600   33.1370 C   0  0  0  0  0  0  0  0  0  0  0  0
   37.7060   26.0040   34.3960 C   0  0  0  0  0  0  0  0  0  0  0  0
   38.1150   24.7080   34.6960 C   0  0  0  0  0  0  0  0  0  0  0  0
   37.9380   23.7510   33.7260 N   0  0  0  0  0  0  0  0  0  0  0  0
   37.3960   24.0350   32.5340 C   0  0  0  0  0  0  0  0  0  0  0  0
   37.0020   25.2750   32.2360 N   0  0  0  0  0  0  0  0  0  0  0  0
   37.8280   26.7810   35.1310 H   0  0  0  0  0  0  0  0  0  0  0  0
   37.2720   23.2540   31.7910 H   0  0  0  0  0  0  0  0  0  0  0  0
   38.7200   24.3660   36.0120 C   0  0  2  0  0  3  0  0  0  0  0  0
   39.0060   22.8870   36.1460 C   0  0  0  0  0  2  0  0  0  0  0  0
   39.8750   22.7600   37.3570 C   0  0  0  0  0  2  0  0  0  0  0  0
   39.1570   23.2010   38.5750 C   0  0  0  0  0  3  0  0  0  0  0  0
   38.0760   24.1890   38.4420 C   0  0  0  0  0  3  0  0  0  0  0  0
   37.8040   24.7960   37.1190 C   0  0  0  0  0  2  0  0  0  0  0  0
   36.7070   27.6580   32.8240 C   0  0  0  0  0  0  0  0  0  0  0  0
   36.4770   28.3520   34.0080 F   0  0  0  0  0  0  0  0  0  0  0  0
   37.6630   28.2350   32.0420 F   0  0  0  0  0  0  0  0  0  0  0  0
   35.4840   27.5690   32.1630 F   0  0  0  0  0  0  0  0  0  0  0  0
  1  2  1  0  0  0  0
  2  3  2  0  0  0  0
  2  7  1  0  0  0  0
  4  3  1  0  0  0  0
  5  4  2  0  0  0  0
  6  5  1  0  0  0  0
  6  1  2  0  0  0  0
  8  5  1  0  0  0  0
  9  3  1  6  0  0  0
  9 10  1  0  0  0  0
  9 14  1  0  0  0  0
 10 11  1  0  0  0  0
 11 12  1  0  0  0  0
 13 12  2  0  0  0  0
 14 13  1  0  0  0  0
 15  1  1  0  0  0  0
 15 16  1  0  0  0  0
 17 15  1  0  0  0  0
 18 15  1  0  0  0  0
M  END
>  <minimizedAffinity>
-4.78073931

$$$$

 OpenBabel03272504133D

 18 19  0  0  1  0  0  0  0  0999 V2000
   40.0410   23.0180   37.0240 C   0  0  0  0  0  0  0  0  0  0  0  0
   39.6610   23.7560   35.8950 C   0  0  0  0  0  0  0  0  0  0  0  0
   38.4800   24.4920   35.9410 C   0  0  0  0  0  0  0  0  0  0  0  0
   37.7540   24.4450   37.1070 N   0  0  0  0  0  0  0  0  0  0  0  0
   38.1500   23.7270   38.1660 C   0  0  0  0  0  0  0  0  0  0  0  0
   39.2810   23.0180   38.1310 N   0  0  0  0  0  0  0  0  0  0  0  0
   40.2570   23.7680   34.9980 H   0  0  0  0  0  0  0  0  0  0  0  0
   37.5520   23.7130   39.0710 H   0  0  0  0  0  0  0  0  0  0  0  0
   38.0170   25.2990   34.7790 C   0  0  2  0  0  3  0  0  0  0  0  0
   39.1580   25.7220   33.8810 C   0  0  0  0  0  2  0  0  0  0  0  0
   38.5100   26.2350   32.6350 C   0  0  0  0  0  2  0  0  0  0  0  0
   37.6810   27.4300   32.9180 C   0  0  0  0  0  3  0  0  0  0  0  0
   37.1120   27.5940   34.2640 C   0  0  0  0  0  3  0  0  0  0  0  0
   37.2880   26.5170   35.2650 C   0  0  0  0  0  2  0  0  0  0  0  0
   41.3130   22.2290   36.9640 C   0  0  0  0  0  0  0  0  0  0  0  0
   42.4010   23.0980   36.9470 F   0  0  0  0  0  0  0  0  0  0  0  0
   41.3300   21.3720   38.0230 F   0  0  0  0  0  0  0  0  0  0  0  0
   41.3180   21.5490   35.7480 F   0  0  0  0  0  0  0  0  0  0  0  0
  1  6  1  0  0  0  0
  2  3  1  0  0  0  0
  2  1  2  0  0  0  0
  3  4  2  0  0  0  0
  4  5  1  0  0  0  0
  5  8  1  0  0  0  0
  6  5  2  0  0  0  0
  7  2  1  0  0  0  0
  9 14  1  0  0  0  0
  9  3  1  1  0  0  0
 10  9  1  0  0  0  0
 11 12  1  0  0  0  0
 11 10  1  0  0  0  0
 12 13  2  0  0  0  0
 13 14  1  0  0  0  0
 15  1  1  0  0  0  0
 15 17  1  0  0  0  0
 16 15  1  0  0  0  0
 18 15  1  0  0  0  0
M  END
>  <minimizedAffinity>
-4.72215986

$$$$

 OpenBabel03272504133D

 18 19  0  0  1  0  0  0  0  0999 V2000
   38.9080   23.3900   37.1440 C   0  0  0  0  0  0  0  0  0  0  0  0
   38.3160   23.8770   35.9700 C   0  0  0  0  0  0  0  0  0  0  0  0
   38.8560   23.5050   34.7420 C   0  0  0  0  0  0  0  0  0  0  0  0
   39.9510   22.6750   34.7610 N   0  0  0  0  0  0  0  0  0  0  0  0
   40.4900   22.2300   35.9050 C   0  0  0  0  0  0  0  0  0  0  0  0
   39.9780   22.5810   37.0870 N   0  0  0  0  0  0  0  0  0  0  0  0
   37.4580   24.5270   35.9950 H   0  0  0  0  0  0  0  0  0  0  0  0
   41.3540   21.5750   35.8830 H   0  0  0  0  0  0  0  0  0  0  0  0
   38.2780   23.9840   33.4570 C   0  0  2  0  0  3  0  0  0  0  0  0
   37.5200   25.2830   33.6160 C   0  0  0  0  0  2  0  0  0  0  0  0
   37.2820   25.7750   32.2240 C   0  0  0  0  0  2  0  0  0  0  0  0
   36.4260   24.8330   31.4660 C   0  0  0  0  0  3  0  0  0  0  0  0
   36.4290   23.4120   31.8430 C   0  0  0  0  0  3  0  0  0  0  0  0
   37.3610   22.9400   32.8930 C   0  0  0  0  0  2  0  0  0  0  0  0
   38.3190   23.7960   38.4600 C   0  0  0  0  0  0  0  0  0  0  0  0
   37.9410   25.1350   38.4090 F   0  0  0  0  0  0  0  0  0  0  0  0
   37.2800   22.9580   38.7340 F   0  0  0  0  0  0  0  0  0  0  0  0
   39.3300   23.6960   39.4130 F   0  0  0  0  0  0  0  0  0  0  0  0
  1 15  1  0  0  0  0
  2  7  1  0  0  0  0
  2  1  2  0  0  0  0
  3  4  2  0  0  0  0
  3  2  1  0  0  0  0
  4  5  1  0  0  0  0
  5  6  2  0  0  0  0
  6  1  1  0  0  0  0
  8  5  1  0  0  0  0
  9 10  1  0  0  0  0
  9  3  1  1  0  0  0
 11 10  1  0  0  0  0
 12 13  2  0  0  0  0
 12 11  1  0  0  0  0
 13 14  1  0  0  0  0
 14  9  1  0  0  0  0
 15 17  1  0  0  0  0
 15 18  1  0  0  0  0
 16 15  1  0  0  0  0
M  END
>  <minimizedAffinity>
-4.66913414

$$$$

 OpenBabel03272504133D

 18 19  0  0  1  0  0  0  0  0999 V2000
   36.6530   28.0540   34.0560 C   0  0  0  0  0  0  0  0  0  0  0  0
   36.1540   29.0930   34.8540 C   0  0  0  0  0  0  0  0  0  0  0  0
   35.1840   29.9400   34.3230 C   0  0  0  0  0  0  0  0  0  0  0  0
   34.7750   29.6970   33.0330 N   0  0  0  0  0  0  0  0  0  0  0  0
   35.2760   28.6930   32.3020 C   0  0  0  0  0  0  0  0  0  0  0  0
   36.2060   27.8760   32.8030 N   0  0  0  0  0  0  0  0  0  0  0  0
   36.5000   29.2520   35.8610 H   0  0  0  0  0  0  0  0  0  0  0  0
   34.9300   28.5300   31.2870 H   0  0  0  0  0  0  0  0  0  0  0  0
   34.6100   31.0620   35.1130 C   0  0  2  0  0  3  0  0  0  0  0  0
   35.5630   31.5650   36.1740 C   0  0  0  0  0  2  0  0  0  0  0  0
   34.9780   32.8570   36.6500 C   0  0  0  0  0  2  0  0  0  0  0  0
   33.6570   32.6420   37.2840 C   0  0  0  0  0  3  0  0  0  0  0  0
   32.8530   31.4830   36.8700 C   0  0  0  0  0  3  0  0  0  0  0  0
   33.3300   30.6250   35.7610 C   0  0  0  0  0  2  0  0  0  0  0  0
   37.6960   27.1490   34.6370 C   0  0  0  0  0  0  0  0  0  0  0  0
   37.0840   26.0440   35.2210 F   0  0  0  0  0  0  0  0  0  0  0  0
   38.5670   26.8160   33.6440 F   0  0  0  0  0  0  0  0  0  0  0  0
   38.3260   27.8530   35.6620 F   0  0  0  0  0  0  0  0  0  0  0  0
  1 15  1  0  0  0  0
  1  2  1  0  0  0  0
  2  7  1  0  0  0  0
  3  2  2  0  0  0  0
  4  3  1  0  0  0  0
  5  6  1  0  0  0  0
  5  4  2  0  0  0  0
  6  1  2  0  0  0  0
  8  5  1  0  0  0  0
  9  3  1  1  0  0  0
  9 14  1  0  0  0  0
  9 10  1  0  0  0  0
 10 11  1  0  0  0  0
 11 12  1  0  0  0  0
 13 12  2  0  0  0  0
 14 13  1  0  0  0  0
 15 16  1  0  0  0  0
 15 18  1  0  0  0  0
 17 15  1  0  0  0  0
M  END
>  <minimizedAffinity>
-4.63714504

$$$$

 OpenBabel03272504133D

 18 19  0  0  1  0  0  0  0  0999 V2000
   35.8570   23.6430   31.6190 C   0  0  0  0  0  0  0  0  0  0  0  0
   36.7890   24.2950   32.4390 C   0  0  0  0  0  0  0  0  0  0  0  0
   36.8350   25.6860   32.4260 C   0  0  0  0  0  0  0  0  0  0  0  0
   35.9510   26.3380   31.5990 N   0  0  0  0  0  0  0  0  0  0  0  0
   35.0750   25.6790   30.8300 C   0  0  0  0  0  0  0  0  0  0  0  0
   35.0230   24.3440   30.8360 N   0  0  0  0  0  0  0  0  0  0  0  0
   37.4660   23.7490   33.0740 H   0  0  0  0  0  0  0  0  0  0  0  0
   34.3910   26.2250   30.1890 H   0  0  0  0  0  0  0  0  0  0  0  0
   37.7980   26.4440   33.2710 C   0  0  2  0  0  3  0  0  0  0  0  0
   39.1630   25.7950   33.3090 C   0  0  0  0  0  2  0  0  0  0  0  0
   40.0690   26.8160   33.9200 C   0  0  0  0  0  2  0  0  0  0  0  0
   39.6670   27.1200   35.3120 C   0  0  0  0  0  3  0  0  0  0  0  0
   38.2600   26.9380   35.6980 C   0  0  0  0  0  3  0  0  0  0  0  0
   37.2650   26.5620   34.6680 C   0  0  0  0  0  2  0  0  0  0  0  0
   35.8170   22.1450   31.6400 C   0  0  0  0  0  0  0  0  0  0  0  0
   35.1510   21.7120   32.7830 F   0  0  0  0  0  0  0  0  0  0  0  0
   35.2290   21.7220   30.4860 F   0  0  0  0  0  0  0  0  0  0  0  0
   37.1330   21.7000   31.7440 F   0  0  0  0  0  0  0  0  0  0  0  0
  1 15  1  0  0  0  0
  1  2  1  0  0  0  0
  2  7  1  0  0  0  0
  3  2  2  0  0  0  0
  4  3  1  0  0  0  0
  5  6  1  0  0  0  0
  5  4  2  0  0  0  0
  6  1  2  0  0  0  0
  8  5  1  0  0  0  0
  9  3  1  6  0  0  0
  9 10  1  0  0  0  0
  9 14  1  0  0  0  0
 10 11  1  0  0  0  0
 11 12  1  0  0  0  0
 12 13  2  0  0  0  0
 14 13  1  0  0  0  0
 15 18  1  0  0  0  0
 15 16  1  0  0  0  0
 17 15  1  0  0  0  0
M  END
>  <minimizedAffinity>
-4.57847881

$$$$
