REMARK  Name = 
REMARK  4 active torsions:
REMARK  status: ('A' for Active; 'I' for Inactive)
REMARK    1  A    between atoms: C_1  and  C_2
REMARK    2  A    between atoms: C_1  and  C_9
REMARK    3  A    between atoms: C_8  and  C_14
REMARK    4  A    between atoms: C_12  and  C_27
REMARK                            x       y       z     vdW  Elec       q    Type
REMARK                         _______ _______ _______ _____ _____    ______ ____
ROOT
ATOM      1  C   UNL     1      34.679  28.397  49.745  0.00  0.00    +0.000 C 
ATOM      2  C   UNL     1      34.419  28.069  48.506  0.00  0.00    +0.000 C 
ENDROOT
BRANCH   1   7
ATOM      3  C   UNL     1      37.370  30.227  51.419  0.00  0.00    +0.000 A 
ATOM      4  C   UNL     1      38.120  30.695  50.322  0.00  0.00    +0.000 A 
ATOM      5  C   UNL     1      37.675  30.365  49.026  0.00  0.00    +0.000 A 
ATOM      6  N   UNL     1      36.552  29.616  48.914  0.00  0.00    +0.000 NA
ATOM      7  C   UNL     1      35.859  29.184  49.986  0.00  0.00    +0.000 A 
ATOM      8  N   UNL     1      36.285  29.501  51.228  0.00  0.00    +0.000 NA
ATOM      9  H   UNL     1      37.737  30.497  52.397  0.00  0.00    +0.000 HD
ATOM     10  H   UNL     1      39.004  31.284  50.372  0.00  0.00    +0.000 HD
BRANCH   5  11
ATOM     11  C   UNL     1      38.344  30.775  47.764  0.00  0.00    +0.000 C 
ATOM     12  C   UNL     1      37.361  31.314  46.752  0.00  0.00    +0.000 C 
ATOM     13  C   UNL     1      38.215  31.820  45.585  0.00  0.00    +0.000 C 
ATOM     14  C   UNL     1      38.948  33.084  45.961  0.00  0.00    +0.000 C 
ATOM     15  C   UNL     1      38.923  33.207  47.459  0.00  0.00    +0.000 C 
ATOM     16  C   UNL     1      39.379  31.865  48.017  0.00  0.00    +0.000 C 
ENDBRANCH   5  11
ENDBRANCH   1   7
BRANCH   2  17
ATOM     17  C   UNL     1      33.282  27.275  48.002  0.00  0.00    +0.000 C 
ATOM     18  H   UNL     1      32.601  27.968  47.445  0.00  0.00    +0.000 HD
ATOM     19  H   UNL     1      32.685  26.800  48.809  0.00  0.00    +0.000 HD
BRANCH  17  20
ATOM     20  C   UNL     1      33.707  26.210  47.045  0.00  0.00    +0.000 A 
ATOM     21  C   UNL     1      33.925  24.898  47.376  0.00  0.00    +0.000 A 
ATOM     22  C   UNL     1      34.317  23.987  46.417  0.00  0.00    +0.000 A 
ATOM     23  C   UNL     1      34.501  24.386  45.079  0.00  0.00    +0.000 A 
ATOM     24  C   UNL     1      34.285  25.693  44.743  0.00  0.00    +0.000 A 
ATOM     25  C   UNL     1      33.891  26.592  45.722  0.00  0.00    +0.000 A 
ATOM     26  H   UNL     1      33.771  24.637  48.420  0.00  0.00    +0.000 HD
ATOM     27  H   UNL     1      34.471  22.979  46.739  0.00  0.00    +0.000 HD
ATOM     28  H   UNL     1      34.805  23.590  44.427  0.00  0.00    +0.000 HD
ATOM     29  H   UNL     1      34.432  25.977  43.709  0.00  0.00    +0.000 HD
ATOM     30  H   UNL     1      33.736  27.619  45.386  0.00  0.00    +0.000 HD
ENDBRANCH  17  20
ENDBRANCH   2  17
TORSDOF 4
