
 OpenBabel03272507343D

 33 36  0  0  1  0  0  0  0  0999 V2000
   35.8470   29.2410   49.8070 C   0  0  0  0  0  0  0  0  0  0  0  0
   34.7550   29.6580   50.5340 C   0  0  0  0  0  0  0  0  0  0  0  0
   33.6240   29.0260   49.9940 C   0  0  0  0  0  0  0  0  0  0  0  0
   34.1080   28.2550   48.9600 C   0  0  0  0  0  0  0  0  0  0  0  0
   35.4130   28.4140   48.8870 O   0  0  0  0  0  0  0  0  0  0  0  0
   34.6790   30.3390   51.3770 H   0  0  0  0  0  0  0  0  0  0  0  0
   32.5910   29.0910   50.2800 H   0  0  0  0  0  0  0  0  0  0  0  0
   37.1930   29.7030   50.0970 C   0  0  0  0  0  0  0  0  0  0  0  0
   37.7800   29.2720   51.1010 O   0  0  0  0  0  0  0  0  0  0  0  0
   37.7680   30.6490   49.1830 C   0  0  0  0  0  0  0  0  0  0  0  0
   38.1300   31.8820   49.6900 C   0  0  0  0  0  0  0  0  0  0  0  0
   38.6900   32.8260   48.8310 C   0  0  0  0  0  0  0  0  0  0  0  0
   38.8570   32.4790   47.5050 N   0  0  0  0  0  0  0  0  0  0  0  0
   38.4940   31.2750   47.0520 C   0  0  0  0  0  0  0  0  0  0  0  0
   37.9550   30.3650   47.8750 N   0  0  0  0  0  0  0  0  0  0  0  0
   38.0150   32.1950   50.7320 H   0  0  0  0  0  0  0  0  0  0  0  0
   38.9950   33.8020   49.1490 H   0  0  0  0  0  0  0  0  0  0  0  0
   38.6800   31.1310   45.9870 H   0  0  0  0  0  0  0  0  0  0  0  0
   33.3100   27.3970   48.0830 C   0  0  0  0  0  0  0  0  0  0  0  0
   32.0420   27.4040   48.2270 O   0  0  0  0  0  0  0  0  0  0  0  0
   33.9780   26.5310   47.0540 C   0  0  1  0  0  0  0  0  0  0  0  0
   33.7340   25.0090   47.4120 C   0  0  0  0  0  0  0  0  0  0  0  0
   33.1780   25.6630   46.2040 C   0  0  2  0  0  0  0  0  0  0  0  0
   35.0750   26.6980   47.0340 H   0  0  0  0  0  0  0  0  0  0  0  0
   33.0700   24.7920   48.2480 H   0  0  0  0  0  0  0  0  0  0  0  0
   34.6050   24.3600   47.3630 H   0  0  0  0  0  0  0  0  0  0  0  0
   32.0680   25.8830   46.2640 H   0  0  0  0  0  0  0  0  0  0  0  0
   33.6090   25.0950   44.9100 C   0  0  0  0  0  0  0  0  0  0  0  0
   33.6660   26.0240   43.7380 C   0  0  0  0  0  0  0  0  0  0  0  0
   35.0100   26.6410   43.5000 C   0  0  0  0  0  0  0  0  0  0  0  0
   36.0890   25.6140   43.2450 C   0  0  0  0  0  0  0  0  0  0  0  0
   35.7520   24.2750   43.8550 C   0  0  0  0  0  0  0  0  0  0  0  0
   34.9820   24.4880   45.1170 C   0  0  0  0  0  0  0  0  0  0  0  0
  1  8  1  0  0  0  0
  1  2  2  0  0  0  0
  2  6  1  0  0  0  0
  3  7  1  0  0  0  0
  3  2  1  0  0  0  0
  4  3  2  0  0  0  0
  5  4  1  0  0  0  0
  5  1  1  0  0  0  0
  8  9  2  0  0  0  0
 10 11  1  0  0  0  0
 10  8  1  0  0  0  0
 11 16  1  0  0  0  0
 12 17  1  0  0  0  0
 12 11  2  0  0  0  0
 13 12  1  0  0  0  0
 14 13  2  0  0  0  0
 14 15  1  0  0  0  0
 15 10  2  0  0  0  0
 18 14  1  0  0  0  0
 19 20  2  0  0  0  0
 19  4  1  0  0  0  0
 21 24  1  6  0  0  0
 21 22  1  0  0  0  0
 21 19  1  0  0  0  0
 22 25  1  0  0  0  0
 23 27  1  1  0  0  0
 23 21  1  0  0  0  0
 23 22  1  0  0  0  0
 26 22  1  0  0  0  0
 28 33  1  0  0  0  0
 28 23  1  0  0  0  0
 29 28  1  0  0  0  0
 30 29  1  0  0  0  0
 31 30  1  0  0  0  0
 31 32  1  0  0  0  0
 32 33  1  0  0  0  0
M  END
>  <minimizedAffinity>
-5.2168231

>  <minimizedRMSD>
0.524340749

$$$$
