
 OpenBabel03272508053D

 32 35  0  0  0  0  0  0  0  0999 V2000
   38.9000   30.8810   45.7380 C   0  0  0  0  0  0  0  0  0  0  0  0
   40.1370   31.4330   46.0110 C   0  0  0  0  0  0  0  0  0  0  0  0
   40.9550   31.3980   44.8750 C   0  0  0  0  0  0  0  0  0  0  0  0
   40.1650   30.8180   43.9570 N   0  0  0  0  0  0  0  0  0  0  0  0
   38.9680   30.5150   44.4550 N   0  0  0  0  0  0  0  0  0  0  0  0
   40.4750   31.8510   46.9640 H   0  0  0  0  0  0  0  0  0  0  0  0
   41.9600   31.7280   44.7090 H   0  0  0  0  0  0  0  0  0  0  0  0
   37.7940   30.7450   46.6680 C   0  0  0  0  0  0  0  0  0  0  0  0
   38.0270   30.9880   48.0370 C   0  0  0  0  0  0  0  0  0  0  0  0
   36.9550   30.8550   48.9130 C   0  0  0  0  0  0  0  0  0  0  0  0
   35.7400   30.4980   48.3960 N   0  0  0  0  0  0  0  0  0  0  0  0
   35.5400   30.2700   47.0760 C   0  0  0  0  0  0  0  0  0  0  0  0
   36.5770   30.3980   46.2220 N   0  0  0  0  0  0  0  0  0  0  0  0
   38.9990   31.2680   48.4160 H   0  0  0  0  0  0  0  0  0  0  0  0
   34.5540   29.9920   46.7360 H   0  0  0  0  0  0  0  0  0  0  0  0
   37.1690   31.1030   50.3610 C   0  0  0  0  0  0  0  0  0  0  0  0
   36.6580   32.3530   50.6080 F   0  0  0  0  0  0  0  0  0  0  0  0
   36.5080   30.1780   51.1700 F   0  0  0  0  0  0  0  0  0  0  0  0
   38.5230   31.1180   50.6840 F   0  0  0  0  0  0  0  0  0  0  0  0
   40.4660   30.5080   42.5540 C   0  0  0  0  0  0  0  0  0  0  0  0
   40.0160   31.3240   41.5040 C   0  0  0  0  0  0  0  0  0  0  0  0
   40.3070   31.0010   40.2390 C   0  0  0  0  0  0  0  0  0  0  0  0
   41.0750   29.8270   39.9720 C   0  0  0  0  0  0  0  0  0  0  0  0
   41.3730   29.1800   41.6970 S   0  0  0  0  0  0  0  0  0  0  0  0
   39.4280   32.2270   41.6840 H   0  0  0  0  0  0  0  0  0  0  0  0
   40.0430   31.5100   39.3230 H   0  0  0  0  0  0  0  0  0  0  0  0
   41.5620   29.1850   38.8160 C   0  0  0  0  0  3  0  0  0  0  0  0
   41.7580   30.2040   37.7440 C   0  0  0  0  0  2  0  0  0  0  0  0
   43.2410   30.5120   37.5330 C   0  0  0  0  0  2  0  0  0  0  0  0
   43.8400   29.2270   36.9510 C   0  0  0  0  0  2  0  0  0  0  0  0
   43.6110   28.0660   37.8910 C   0  0  0  0  0  2  0  0  0  0  0  0
   42.8580   28.4690   39.1300 C   0  0  0  0  0  2  0  0  0  0  0  0
  1  2  1  0  0  0  0
  1  8  1  0  0  0  0
  2  6  1  0  0  0  0
  3  2  2  0  0  0  0
  4  5  1  0  0  0  0
  4  3  1  0  0  0  0
  5  1  2  0  0  0  0
  7  3  1  0  0  0  0
  8  9  1  0  0  0  0
  9 14  1  0  0  0  0
  9 10  2  0  0  0  0
 10 16  1  0  0  0  0
 11 10  1  0  0  0  0
 12 11  2  0  0  0  0
 13  8  2  0  0  0  0
 13 12  1  0  0  0  0
 15 12  1  0  0  0  0
 16 17  1  0  0  0  0
 16 19  1  0  0  0  0
 16 18  1  0  0  0  0
 20  4  1  0  0  0  0
 21 25  1  0  0  0  0
 21 20  2  0  0  0  0
 22 21  1  0  0  0  0
 23 22  2  0  0  0  0
 23 24  1  0  0  0  0
 24 20  1  0  0  0  0
 26 22  1  0  0  0  0
 27 32  1  0  0  0  0
 27 23  1  0  0  0  0
 28 27  1  0  0  0  0
 29 28  1  0  0  0  0
 30 29  1  0  0  0  0
 30 31  1  0  0  0  0
 31 32  1  0  0  0  0
M  END
>  <minimizedAffinity>
-6.23965597

>  <minimizedRMSD>
0.276438594

$$$$
