
 OpenBabel03272505123D

 36 39  0  0  0  0  0  0  0  0999 V2000
   36.4170   30.8960   45.7110 Cl  0  0  0  0  0  0  0  0  0  0  0  0
   36.6990   30.7900   47.4280 C   0  0  0  0  0  0  0  0  0  0  0  0
   37.9590   31.1320   47.8810 C   0  0  0  0  0  0  0  0  0  0  0  0
   38.1950   31.0500   49.2490 C   0  0  0  0  0  0  0  0  0  0  0  0
   37.1860   30.6410   50.0920 C   0  0  0  0  0  0  0  0  0  0  0  0
   35.9480   30.3150   49.5590 C   0  0  0  0  0  0  0  0  0  0  0  0
   35.6470   30.3720   48.2230 C   0  0  0  0  0  0  0  0  0  0  0  0
   39.1770   31.3140   49.6260 H   0  0  0  0  0  0  0  0  0  0  0  0
   37.3310   30.5660   51.1590 H   0  0  0  0  0  0  0  0  0  0  0  0
   35.1790   29.9960   50.2590 H   0  0  0  0  0  0  0  0  0  0  0  0
   40.2320   33.3240   46.0750 C   0  0  0  0  0  0  0  0  0  0  0  0
   40.9390   32.4700   45.2170 C   0  0  0  0  0  0  0  0  0  0  0  0
   40.6140   31.1030   45.2730 C   0  0  0  0  0  0  0  0  0  0  0  0
   39.6440   30.6940   46.1460 N   0  0  0  0  0  0  0  0  0  0  0  0
   39.0070   31.5640   46.9380 C   0  0  0  0  0  0  0  0  0  0  0  0
   39.2890   32.8670   46.9120 N   0  0  0  0  0  0  0  0  0  0  0  0
   40.5320   34.3590   45.9810 H   0  0  0  0  0  0  0  0  0  0  0  0
   41.7080   32.8430   44.5360 H   0  0  0  0  0  0  0  0  0  0  0  0
   41.1110   30.3990   44.6520 H   0  0  0  0  0  0  0  0  0  0  0  0
   34.0770   29.9610   47.5350 S   0  0  0  0  0  0  0  0  0  0  0  0
   33.8920   29.1410   44.5020 Cl  0  0  0  0  0  0  0  0  0  0  0  0
   33.8770   27.9350   45.7700 C   0  0  0  0  0  0  0  0  0  0  0  0
   33.9540   28.2170   47.1420 C   0  0  0  0  0  0  0  0  0  0  0  0
   33.9320   27.1870   48.0430 C   0  0  0  0  0  0  0  0  0  0  0  0
   33.8350   25.8850   47.6240 C   0  0  0  0  0  0  0  0  0  0  0  0
   33.7560   25.5670   46.2750 C   0  0  0  0  0  0  0  0  0  0  0  0
   33.7790   26.5990   45.3800 C   0  0  0  0  0  0  0  0  0  0  0  0
   33.9990   27.5270   49.0770 H   0  0  0  0  0  0  0  0  0  0  0  0
   33.8230   25.1190   48.3620 H   0  0  0  0  0  0  0  0  0  0  0  0
   33.6810   24.5220   46.0050 H   0  0  0  0  0  0  0  0  0  0  0  0
   33.6930   26.2580   43.9350 C   0  0  0  0  0  3  0  0  0  0  0  0
   32.6890   25.1840   43.6610 C   0  0  0  0  0  2  0  0  0  0  0  0
   32.5700   24.9610   42.1870 C   0  0  0  0  0  2  0  0  0  0  0  0
   33.5390   25.7980   41.3850 C   0  0  0  0  0  2  0  0  0  0  0  0
   34.9460   25.7210   41.8850 C   0  0  0  0  0  2  0  0  0  0  0  0
   35.0390   25.8420   43.3890 C   0  0  0  0  0  2  0  0  0  0  0  0
  1  2  1  0  0  0  0
  2  3  2  0  0  0  0
  2  7  1  0  0  0  0
  3  4  1  0  0  0  0
  4  8  1  0  0  0  0
  4  5  2  0  0  0  0
  5  9  1  0  0  0  0
  6  5  1  0  0  0  0
  6 10  1  0  0  0  0
  7  6  2  0  0  0  0
 11 16  1  0  0  0  0
 12 13  1  0  0  0  0
 12 11  2  0  0  0  0
 13 14  2  0  0  0  0
 14 15  1  0  0  0  0
 15  3  1  0  0  0  0
 16 15  2  0  0  0  0
 17 11  1  0  0  0  0
 18 12  1  0  0  0  0
 19 13  1  0  0  0  0
 20  7  1  0  0  0  0
 21 22  1  0  0  0  0
 22 23  1  0  0  0  0
 23 20  1  0  0  0  0
 23 24  2  0  0  0  0
 24 28  1  0  0  0  0
 25 24  1  0  0  0  0
 25 29  1  0  0  0  0
 26 25  2  0  0  0  0
 27 22  2  0  0  0  0
 27 26  1  0  0  0  0
 30 26  1  0  0  0  0
 31 27  1  0  0  0  0
 32 31  1  0  0  0  0
 33 32  1  0  0  0  0
 34 35  1  0  0  0  0
 34 33  1  0  0  0  0
 35 36  1  0  0  0  0
 36 31  1  0  0  0  0
M  END
>  <minimizedAffinity>
-5.71205044

>  <minimizedRMSD>
0.2294873

$$$$
