
 OpenBabel03272508053D

 32 35  0  0  0  0  0  0  0  0999 V2000
   38.9040   30.8470   45.6940 C   0  0  0  0  0  0  0  0  0  0  0  0
   40.1470   31.3950   45.9510 C   0  0  0  0  0  0  0  0  0  0  0  0
   40.9570   31.3400   44.8100 C   0  0  0  0  0  0  0  0  0  0  0  0
   40.1560   30.7550   43.9050 N   0  0  0  0  0  0  0  0  0  0  0  0
   38.9610   30.4660   44.4140 N   0  0  0  0  0  0  0  0  0  0  0  0
   40.4940   31.8220   46.8970 H   0  0  0  0  0  0  0  0  0  0  0  0
   41.9620   31.6630   44.6330 H   0  0  0  0  0  0  0  0  0  0  0  0
   37.8040   30.7310   46.6330 C   0  0  0  0  0  0  0  0  0  0  0  0
   38.0480   30.9880   47.9970 C   0  0  0  0  0  0  0  0  0  0  0  0
   36.9810   30.8730   48.8820 C   0  0  0  0  0  0  0  0  0  0  0  0
   35.7600   30.5170   48.3780 N   0  0  0  0  0  0  0  0  0  0  0  0
   35.5490   30.2740   47.0620 C   0  0  0  0  0  0  0  0  0  0  0  0
   36.5820   30.3850   46.2000 N   0  0  0  0  0  0  0  0  0  0  0  0
   39.0240   31.2670   48.3660 H   0  0  0  0  0  0  0  0  0  0  0  0
   34.5600   29.9990   46.7320 H   0  0  0  0  0  0  0  0  0  0  0  0
   37.2060   31.1370   50.3250 C   0  0  0  0  0  0  0  0  0  0  0  0
   36.6930   32.3880   50.5630 F   0  0  0  0  0  0  0  0  0  0  0  0
   36.5560   30.2190   51.1490 F   0  0  0  0  0  0  0  0  0  0  0  0
   38.5630   31.1600   50.6370 F   0  0  0  0  0  0  0  0  0  0  0  0
   40.4460   30.4260   42.5040 C   0  0  0  0  0  0  0  0  0  0  0  0
   40.0990   31.2920   41.4550 C   0  0  0  0  0  0  0  0  0  0  0  0
   40.3750   30.9500   40.1910 C   0  0  0  0  0  0  0  0  0  0  0  0
   41.0210   29.7040   39.9250 C   0  0  0  0  0  0  0  0  0  0  0  0
   41.2240   29.0170   41.6480 S   0  0  0  0  0  0  0  0  0  0  0  0
   39.6040   32.2490   41.6340 H   0  0  0  0  0  0  0  0  0  0  0  0
   40.1800   31.4900   39.2760 H   0  0  0  0  0  0  0  0  0  0  0  0
   41.4580   29.0240   38.7710 C   0  0  0  0  0  3  0  0  0  0  0  0
   42.8020   29.5480   38.3810 C   0  0  0  0  0  2  0  0  0  0  0  0
   43.9080   28.5490   38.7230 C   0  0  0  0  0  2  0  0  0  0  0  0
   43.6770   27.3570   37.7870 C   0  0  0  0  0  2  0  0  0  0  0  0
   42.2920   26.7890   37.9900 C   0  0  0  0  0  2  0  0  0  0  0  0
   41.5110   27.5370   39.0360 C   0  0  0  0  0  2  0  0  0  0  0  0
  1  2  1  0  0  0  0
  1  8  1  0  0  0  0
  2  6  1  0  0  0  0
  3  2  2  0  0  0  0
  4  5  1  0  0  0  0
  4  3  1  0  0  0  0
  5  1  2  0  0  0  0
  7  3  1  0  0  0  0
  8  9  1  0  0  0  0
  9 14  1  0  0  0  0
  9 10  2  0  0  0  0
 10 16  1  0  0  0  0
 11 10  1  0  0  0  0
 12 11  2  0  0  0  0
 13  8  2  0  0  0  0
 13 12  1  0  0  0  0
 15 12  1  0  0  0  0
 16 17  1  0  0  0  0
 16 19  1  0  0  0  0
 16 18  1  0  0  0  0
 20  4  1  0  0  0  0
 21 25  1  0  0  0  0
 21 20  2  0  0  0  0
 22 21  1  0  0  0  0
 23 22  2  0  0  0  0
 23 24  1  0  0  0  0
 24 20  1  0  0  0  0
 26 22  1  0  0  0  0
 27 32  1  0  0  0  0
 27 23  1  0  0  0  0
 28 29  1  0  0  0  0
 28 27  1  0  0  0  0
 30 31  1  0  0  0  0
 30 29  1  0  0  0  0
 31 32  1  0  0  0  0
M  END
>  <minimizedAffinity>
-6.26946783

>  <minimizedRMSD>
0.329727143

$$$$
