
 OpenBabel03272507333D

 33 36  0  0  1  0  0  0  0  0999 V2000
   35.7670   29.1430   49.8140 C   0  0  0  0  0  0  0  0  0  0  0  0
   34.6480   29.5880   50.4790 C   0  0  0  0  0  0  0  0  0  0  0  0
   33.5370   28.9480   49.9080 C   0  0  0  0  0  0  0  0  0  0  0  0
   34.0600   28.1440   48.9200 C   0  0  0  0  0  0  0  0  0  0  0  0
   35.3690   28.2910   48.9010 O   0  0  0  0  0  0  0  0  0  0  0  0
   34.5410   30.2940   51.2980 H   0  0  0  0  0  0  0  0  0  0  0  0
   32.4930   29.0280   50.1460 H   0  0  0  0  0  0  0  0  0  0  0  0
   37.1030   29.6040   50.1500 C   0  0  0  0  0  0  0  0  0  0  0  0
   37.6730   29.1400   51.1500 O   0  0  0  0  0  0  0  0  0  0  0  0
   37.6900   30.5870   49.2850 C   0  0  0  0  0  0  0  0  0  0  0  0
   38.0210   31.8070   49.8430 C   0  0  0  0  0  0  0  0  0  0  0  0
   38.5910   32.7870   49.0310 C   0  0  0  0  0  0  0  0  0  0  0  0
   38.7980   32.4870   47.7000 N   0  0  0  0  0  0  0  0  0  0  0  0
   38.4640   31.2940   47.1960 C   0  0  0  0  0  0  0  0  0  0  0  0
   37.9160   30.3500   47.9740 N   0  0  0  0  0  0  0  0  0  0  0  0
   37.8730   32.0830   50.8910 H   0  0  0  0  0  0  0  0  0  0  0  0
   38.8730   33.7550   49.3890 H   0  0  0  0  0  0  0  0  0  0  0  0
   38.6820   31.1890   46.1330 H   0  0  0  0  0  0  0  0  0  0  0  0
   33.2960   27.2660   48.0340 C   0  0  0  0  0  0  0  0  0  0  0  0
   32.0280   27.2220   48.1780 O   0  0  0  0  0  0  0  0  0  0  0  0
   33.9950   26.4370   46.9950 C   0  0  1  0  0  0  0  0  0  0  0  0
   33.7970   24.9030   47.3270 C   0  0  0  0  0  0  0  0  0  0  0  0
   33.2270   25.5590   46.1260 C   0  0  2  0  0  0  0  0  0  0  0  0
   35.0860   26.6390   46.9830 H   0  0  0  0  0  0  0  0  0  0  0  0
   33.1360   24.6520   48.1550 H   0  0  0  0  0  0  0  0  0  0  0  0
   34.6880   24.2820   47.2720 H   0  0  0  0  0  0  0  0  0  0  0  0
   32.1110   25.7430   46.1830 H   0  0  0  0  0  0  0  0  0  0  0  0
   33.6820   25.0260   44.8250 C   0  0  0  0  0  3  0  0  0  0  0  0
   33.7260   25.9780   43.6720 C   0  0  0  0  0  2  0  0  0  0  0  0
   35.0580   26.6310   43.4560 C   0  0  0  0  0  2  0  0  0  0  0  0
   36.1620   25.6350   43.1920 C   0  0  0  0  0  2  0  0  0  0  0  0
   35.8520   24.2770   43.7730 C   0  0  0  0  0  2  0  0  0  0  0  0
   35.0680   24.4480   45.0330 C   0  0  0  0  0  2  0  0  0  0  0  0
  1  8  1  0  0  0  0
  1  2  2  0  0  0  0
  2  6  1  0  0  0  0
  3  7  1  0  0  0  0
  3  2  1  0  0  0  0
  4  3  2  0  0  0  0
  5  4  1  0  0  0  0
  5  1  1  0  0  0  0
  8  9  2  0  0  0  0
 10 11  1  0  0  0  0
 10  8  1  0  0  0  0
 11 16  1  0  0  0  0
 12 17  1  0  0  0  0
 12 11  2  0  0  0  0
 13 12  1  0  0  0  0
 14 13  2  0  0  0  0
 14 15  1  0  0  0  0
 15 10  2  0  0  0  0
 18 14  1  0  0  0  0
 19 20  2  0  0  0  0
 19  4  1  0  0  0  0
 21 24  1  6  0  0  0
 21 22  1  0  0  0  0
 21 19  1  0  0  0  0
 22 25  1  0  0  0  0
 23 27  1  1  0  0  0
 23 21  1  0  0  0  0
 23 22  1  0  0  0  0
 26 22  1  0  0  0  0
 28 33  1  0  0  0  0
 28 23  1  0  0  0  0
 29 28  1  0  0  0  0
 30 29  1  0  0  0  0
 31 30  1  0  0  0  0
 31 32  1  0  0  0  0
 32 33  1  0  0  0  0
M  END
>  <minimizedAffinity>
-5.21604443

>  <minimizedRMSD>
0.58837831

$$$$
