
 OpenBabel03272508123D

 31 33  0  0  0  0  0  0  0  0999 V2000
   36.6450   29.4110   44.0780 Cl  0  0  0  0  0  0  0  0  0  0  0  0
   38.2880   29.8120   43.5170 C   0  0  0  0  0  0  0  0  0  0  0  0
   39.2950   30.3110   44.3450 C   0  0  0  0  0  0  0  0  0  0  0  0
   40.5160   30.5730   43.7670 C   0  0  0  0  0  0  0  0  0  0  0  0
   40.7370   30.3540   42.4290 C   0  0  0  0  0  0  0  0  0  0  0  0
   39.7580   29.8660   41.6020 C   0  0  0  0  0  0  0  0  0  0  0  0
   38.5420   29.5980   42.1500 C   0  0  0  0  0  0  0  0  0  0  0  0
   41.2470   30.9570   44.4670 H   0  0  0  0  0  0  0  0  0  0  0  0
   41.7150   30.5790   42.0250 H   0  0  0  0  0  0  0  0  0  0  0  0
   39.9420   29.6950   40.5420 H   0  0  0  0  0  0  0  0  0  0  0  0
   37.4560   29.0620   41.2650 C   0  0  0  0  0  3  0  0  0  0  0  0
   36.4180   30.1700   41.2060 C   0  0  0  0  0  2  0  0  0  0  0  0
   35.2350   29.6800   40.4340 C   0  0  0  0  0  2  0  0  0  0  0  0
   35.5130   28.3980   39.6890 C   0  0  0  0  0  2  0  0  0  0  0  0
   35.9650   27.2890   40.6170 C   0  0  0  0  0  2  0  0  0  0  0  0
   36.8360   27.8020   41.7530 C   0  0  0  0  0  2  0  0  0  0  0  0
   38.8830   30.4590   45.6390 O   0  0  0  0  0  0  0  0  0  0  0  0
   39.4440   32.5150   47.1040 O   0  0  0  0  0  0  0  0  0  0  0  0
   38.3020   31.8410   46.4120 P   0  0  1  0  0  0  0  0  0  0  0  0
   37.7170   32.8480   45.1670 O   0  0  0  0  0  0  0  0  0  0  0  0
   37.4890   32.3540   44.3490 H   0  0  0  0  0  0  0  0  0  0  0  0
   37.0250   31.4140   47.4390 O   0  0  0  0  0  0  0  0  0  0  0  0
   37.6160   30.5300   50.9820 C   0  0  0  0  0  0  0  0  0  0  0  0
   37.7030   31.2960   49.8180 C   0  0  0  0  0  0  0  0  0  0  0  0
   37.0730   30.8450   48.6610 C   0  0  0  0  0  0  0  0  0  0  0  0
   36.3930   29.6520   48.7370 N   0  0  0  0  0  0  0  0  0  0  0  0
   36.3320   28.9420   49.8800 C   0  0  0  0  0  0  0  0  0  0  0  0
   36.9420   29.3830   50.9920 N   0  0  0  0  0  0  0  0  0  0  0  0
   38.1370   30.9560   51.8430 H   0  0  0  0  0  0  0  0  0  0  0  0
   38.2110   32.2320   49.6770 H   0  0  0  0  0  0  0  0  0  0  0  0
   35.7780   27.9910   49.9030 H   0  0  0  0  0  0  0  0  0  0  0  0
  2  1  1  0  0  0  0
  2  3  1  0  0  0  0
  3 17  1  0  0  0  0
  4  3  2  0  0  0  0
  4  8  1  0  0  0  0
  5  4  1  0  0  0  0
  6  7  1  0  0  0  0
  6  5  2  0  0  0  0
  7  2  2  0  0  0  0
  9  5  1  0  0  0  0
 10  6  1  0  0  0  0
 11 16  1  0  0  0  0
 11  7  1  0  0  0  0
 12 11  1  0  0  0  0
 13 12  1  0  0  0  0
 14 13  1  0  0  0  0
 14 15  1  0  0  0  0
 15 16  1  0  0  0  0
 17 19  1  0  0  0  0
 19 18  2  1  0  0  0
 19 22  1  0  0  0  0
 20 19  1  0  0  0  0
 21 20  1  0  0  0  0
 22 25  1  0  0  0  0
 23 28  1  0  0  0  0
 23 29  1  0  0  0  0
 24 23  2  0  0  0  0
 25 26  2  0  0  0  0
 25 24  1  0  0  0  0
 26 27  1  0  0  0  0
 27 31  1  0  0  0  0
 27 28  2  0  0  0  0
 30 24  1  0  0  0  0
M  END
>  <minimizedAffinity>
-4.83076906

>  <minimizedRMSD>
0.106914818

$$$$
