
 OpenBabel03272507343D

 33 36  0  0  1  0  0  0  0  0999 V2000
   35.8610   29.1640   49.8140 C   0  0  0  0  0  0  0  0  0  0  0  0
   34.8490   29.6530   50.6090 C   0  0  0  0  0  0  0  0  0  0  0  0
   33.6420   29.1200   50.1300 C   0  0  0  0  0  0  0  0  0  0  0  0
   34.0040   28.3310   49.0590 C   0  0  0  0  0  0  0  0  0  0  0  0
   35.3110   28.3880   48.9120 O   0  0  0  0  0  0  0  0  0  0  0  0
   34.8770   30.3240   51.4630 H   0  0  0  0  0  0  0  0  0  0  0  0
   32.6370   29.2610   50.4770 H   0  0  0  0  0  0  0  0  0  0  0  0
   37.2540   29.5150   50.0300 C   0  0  0  0  0  0  0  0  0  0  0  0
   37.9060   28.9100   50.8950 O   0  0  0  0  0  0  0  0  0  0  0  0
   37.7970   30.5600   49.2100 C   0  0  0  0  0  0  0  0  0  0  0  0
   38.1340   31.7450   49.8340 C   0  0  0  0  0  0  0  0  0  0  0  0
   38.6630   32.7840   49.0690 C   0  0  0  0  0  0  0  0  0  0  0  0
   38.8240   32.5740   47.7140 N   0  0  0  0  0  0  0  0  0  0  0  0
   38.4850   31.4120   47.1460 C   0  0  0  0  0  0  0  0  0  0  0  0
   37.9770   30.4130   47.8790 N   0  0  0  0  0  0  0  0  0  0  0  0
   38.0230   31.9510   50.9030 H   0  0  0  0  0  0  0  0  0  0  0  0
   38.9480   33.7310   49.4800 H   0  0  0  0  0  0  0  0  0  0  0  0
   38.6640   31.3800   46.0710 H   0  0  0  0  0  0  0  0  0  0  0  0
   33.0910   27.5530   48.2210 C   0  0  0  0  0  0  0  0  0  0  0  0
   31.8640   27.4890   48.5660 O   0  0  0  0  0  0  0  0  0  0  0  0
   33.5990   26.8450   46.9980 C   0  0  1  0  0  0  0  0  0  0  0  0
   33.8140   25.3130   47.3300 C   0  0  0  0  0  0  0  0  0  0  0  0
   32.7960   25.8070   46.3720 C   0  0  2  0  0  0  0  0  0  0  0  0
   34.5760   27.2570   46.6680 H   0  0  0  0  0  0  0  0  0  0  0  0
   33.4920   24.9630   48.3090 H   0  0  0  0  0  0  0  0  0  0  0  0
   34.7530   24.8780   46.9940 H   0  0  0  0  0  0  0  0  0  0  0  0
   31.7340   25.7700   46.7640 H   0  0  0  0  0  0  0  0  0  0  0  0
   32.9400   25.3320   44.9800 C   0  0  0  0  0  3  0  0  0  0  0  0
   33.6830   24.0510   44.7650 C   0  0  0  0  0  2  0  0  0  0  0  0
   32.8150   22.8310   44.7050 C   0  0  0  0  0  2  0  0  0  0  0  0
   31.7970   22.8920   43.5910 C   0  0  0  0  0  2  0  0  0  0  0  0
   31.4690   24.3120   43.1980 C   0  0  0  0  0  2  0  0  0  0  0  0
   31.5440   25.1870   44.4060 C   0  0  0  0  0  2  0  0  0  0  0  0
  1  8  1  0  0  0  0
  1  2  2  0  0  0  0
  2  6  1  0  0  0  0
  3  7  1  0  0  0  0
  3  2  1  0  0  0  0
  4  3  2  0  0  0  0
  5  4  1  0  0  0  0
  5  1  1  0  0  0  0
  8  9  2  0  0  0  0
 10 11  1  0  0  0  0
 10  8  1  0  0  0  0
 11 16  1  0  0  0  0
 12 17  1  0  0  0  0
 12 11  2  0  0  0  0
 13 12  1  0  0  0  0
 14 13  2  0  0  0  0
 14 15  1  0  0  0  0
 15 10  2  0  0  0  0
 18 14  1  0  0  0  0
 19 20  2  0  0  0  0
 19  4  1  0  0  0  0
 21 24  1  6  0  0  0
 21 22  1  0  0  0  0
 21 19  1  0  0  0  0
 22 25  1  0  0  0  0
 23 27  1  1  0  0  0
 23 21  1  0  0  0  0
 23 22  1  0  0  0  0
 26 22  1  0  0  0  0
 28 23  1  0  0  0  0
 29 28  1  0  0  0  0
 30 29  1  0  0  0  0
 31 30  1  0  0  0  0
 32 31  1  0  0  0  0
 32 33  1  0  0  0  0
 33 28  1  0  0  0  0
M  END
>  <minimizedAffinity>
-4.87937307

>  <minimizedRMSD>
0.0774052218

$$$$
