
 OpenBabel03272507333D

 33 36  0  0  1  0  0  0  0  0999 V2000
   35.8600   29.1600   49.8210 C   0  0  0  0  0  0  0  0  0  0  0  0
   34.8490   29.6530   50.6140 C   0  0  0  0  0  0  0  0  0  0  0  0
   33.6420   29.1180   50.1380 C   0  0  0  0  0  0  0  0  0  0  0  0
   34.0020   28.3240   49.0710 C   0  0  0  0  0  0  0  0  0  0  0  0
   35.3090   28.3800   48.9230 O   0  0  0  0  0  0  0  0  0  0  0  0
   34.8770   30.3290   51.4650 H   0  0  0  0  0  0  0  0  0  0  0  0
   32.6360   29.2600   50.4840 H   0  0  0  0  0  0  0  0  0  0  0  0
   37.2530   29.5110   50.0340 C   0  0  0  0  0  0  0  0  0  0  0  0
   37.9060   28.9100   50.9010 O   0  0  0  0  0  0  0  0  0  0  0  0
   37.7950   30.5550   49.2110 C   0  0  0  0  0  0  0  0  0  0  0  0
   38.1430   31.7380   49.8320 C   0  0  0  0  0  0  0  0  0  0  0  0
   38.6720   32.7740   49.0630 C   0  0  0  0  0  0  0  0  0  0  0  0
   38.8220   32.5630   47.7070 N   0  0  0  0  0  0  0  0  0  0  0  0
   38.4730   31.4030   47.1410 C   0  0  0  0  0  0  0  0  0  0  0  0
   37.9650   30.4060   47.8780 N   0  0  0  0  0  0  0  0  0  0  0  0
   38.0400   31.9440   50.9020 H   0  0  0  0  0  0  0  0  0  0  0  0
   38.9640   33.7190   49.4710 H   0  0  0  0  0  0  0  0  0  0  0  0
   38.6440   31.3690   46.0650 H   0  0  0  0  0  0  0  0  0  0  0  0
   33.0890   27.5410   48.2380 C   0  0  0  0  0  0  0  0  0  0  0  0
   31.8670   27.4600   48.5960 O   0  0  0  0  0  0  0  0  0  0  0  0
   33.5910   26.8500   47.0030 C   0  0  1  0  0  0  0  0  0  0  0  0
   33.8170   25.3160   47.3150 C   0  0  0  0  0  0  0  0  0  0  0  0
   32.7880   25.8140   46.3720 C   0  0  2  0  0  0  0  0  0  0  0  0
   34.5630   27.2700   46.6700 H   0  0  0  0  0  0  0  0  0  0  0  0
   33.5040   24.9530   48.2940 H   0  0  0  0  0  0  0  0  0  0  0  0
   34.7550   24.8890   46.9680 H   0  0  0  0  0  0  0  0  0  0  0  0
   31.7290   25.7680   46.7710 H   0  0  0  0  0  0  0  0  0  0  0  0
   32.9230   25.3560   44.9730 C   0  0  0  0  0  3  0  0  0  0  0  0
   32.3160   24.0340   44.6230 C   0  0  0  0  0  2  0  0  0  0  0  0
   30.9230   24.1140   44.0790 C   0  0  0  0  0  2  0  0  0  0  0  0
   30.8350   24.9380   42.8160 C   0  0  0  0  0  2  0  0  0  0  0  0
   31.9540   25.9460   42.7170 C   0  0  0  0  0  2  0  0  0  0  0  0
   32.3100   26.4220   44.0860 C   0  0  0  0  0  2  0  0  0  0  0  0
  1  8  1  0  0  0  0
  1  2  2  0  0  0  0
  2  6  1  0  0  0  0
  3  7  1  0  0  0  0
  3  2  1  0  0  0  0
  4  3  2  0  0  0  0
  5  4  1  0  0  0  0
  5  1  1  0  0  0  0
  8  9  2  0  0  0  0
 10 11  1  0  0  0  0
 10  8  1  0  0  0  0
 11 16  1  0  0  0  0
 12 17  1  0  0  0  0
 12 11  2  0  0  0  0
 13 12  1  0  0  0  0
 14 13  2  0  0  0  0
 14 15  1  0  0  0  0
 15 10  2  0  0  0  0
 18 14  1  0  0  0  0
 19 20  2  0  0  0  0
 19  4  1  0  0  0  0
 21 24  1  6  0  0  0
 21 22  1  0  0  0  0
 21 19  1  0  0  0  0
 22 25  1  0  0  0  0
 23 27  1  1  0  0  0
 23 21  1  0  0  0  0
 23 22  1  0  0  0  0
 26 22  1  0  0  0  0
 28 23  1  0  0  0  0
 29 28  1  0  0  0  0
 30 29  1  0  0  0  0
 31 30  1  0  0  0  0
 32 31  1  0  0  0  0
 32 33  1  0  0  0  0
 33 28  1  0  0  0  0
M  END
>  <minimizedAffinity>
-4.86635876

>  <minimizedRMSD>
0.0579558313

$$$$
