
 OpenBabel03262523143D

 26 28  0  0  0  0  0  0  0  0999 V2000
   39.2970   25.4290   35.0290 C   0  0  0  0  0  0  0  0  0  0  0  0
   40.3240   26.3230   34.9660 C   0  0  0  0  0  0  0  0  0  0  0  0
   40.4200   27.0290   33.7950 C   0  0  0  0  0  0  0  0  0  0  0  0
   39.5550   26.8680   32.7410 C   0  0  0  0  0  0  0  0  0  0  0  0
   38.5430   25.9400   32.8950 C   0  0  0  0  0  0  0  0  0  0  0  0
   38.4120   25.2250   34.0290 N   0  0  0  0  0  0  0  0  0  0  0  0
   41.0430   26.5020   35.7550 H   0  0  0  0  0  0  0  0  0  0  0  0
   41.2000   27.7770   33.6170 H   0  0  0  0  0  0  0  0  0  0  0  0
   39.6030   27.4010   31.8200 H   0  0  0  0  0  0  0  0  0  0  0  0
   39.7280   22.8380   37.6090 C   0  0  0  0  0  0  0  0  0  0  0  0
   38.7220   23.1750   38.5360 C   0  0  0  0  0  0  0  0  0  0  0  0
   37.9100   24.2820   38.2690 C   0  0  0  0  0  0  0  0  0  0  0  0
   38.1570   24.9520   37.1250 N   0  0  0  0  0  0  0  0  0  0  0  0
   39.1170   24.6320   36.2410 C   0  0  0  0  0  0  0  0  0  0  0  0
   39.8890   23.5700   36.5040 N   0  0  0  0  0  0  0  0  0  0  0  0
   38.6100   22.5790   39.4120 H   0  0  0  0  0  0  0  0  0  0  0  0
   37.1370   24.5680   38.9500 H   0  0  0  0  0  0  0  0  0  0  0  0
   40.6020   21.7300   37.7970 N   0  0  0  0  0  0  0  0  0  0  0  0
   41.2210   21.7110   38.6590 H   0  0  0  0  0  0  0  0  0  0  0  0
   40.6260   20.9430   37.0860 H   0  0  0  0  0  0  0  0  0  0  0  0
   37.5300   25.6680   31.8180 C   0  0  0  0  0  3  0  0  0  0  0  0
   36.9590   24.2910   32.1680 C   0  0  0  0  0  2  0  0  0  0  0  0
   35.9480   23.8530   31.1310 C   0  0  0  0  0  2  0  0  0  0  0  0
   34.8730   24.8860   30.9170 C   0  0  0  0  0  2  0  0  0  0  0  0
   35.3630   26.2960   30.8950 C   0  0  0  0  0  2  0  0  0  0  0  0
   36.3720   26.6310   31.9540 C   0  0  0  0  0  2  0  0  0  0  0  0
  1 14  1  0  0  0  0
  2  1  1  0  0  0  0
  2  7  1  0  0  0  0
  3  2  2  0  0  0  0
  4  5  2  0  0  0  0
  4  3  1  0  0  0  0
  5  6  1  0  0  0  0
  6  1  2  0  0  0  0
  8  3  1  0  0  0  0
  9  4  1  0  0  0  0
 10 18  1  0  0  0  0
 10 11  1  0  0  0  0
 11 16  1  0  0  0  0
 12 11  2  0  0  0  0
 12 17  1  0  0  0  0
 13 12  1  0  0  0  0
 14 15  1  0  0  0  0
 14 13  2  0  0  0  0
 15 10  2  0  0  0  0
 18 19  1  0  0  0  0
 20 18  1  0  0  0  0
 21 26  1  0  0  0  0
 21 22  1  0  0  0  0
 21  5  1  0  0  0  0
 23 22  1  0  0  0  0
 24 23  1  0  0  0  0
 25 24  1  0  0  0  0
 25 26  1  0  0  0  0
M  END
>  <minimizedAffinity>
-5.88651037

$$$$

 OpenBabel03262523143D

 26 28  0  0  0  0  0  0  0  0999 V2000
   38.1190   23.6320   34.3220 C   0  0  0  0  0  0  0  0  0  0  0  0
   38.4470   24.7700   33.6440 C   0  0  0  0  0  0  0  0  0  0  0  0
   38.1070   24.7820   32.3160 C   0  0  0  0  0  0  0  0  0  0  0  0
   37.4780   23.7370   31.6860 C   0  0  0  0  0  0  0  0  0  0  0  0
   37.1840   22.6270   32.4530 C   0  0  0  0  0  0  0  0  0  0  0  0
   37.5000   22.5720   33.7600 N   0  0  0  0  0  0  0  0  0  0  0  0
   38.9420   25.6300   34.0740 H   0  0  0  0  0  0  0  0  0  0  0  0
   38.3140   25.6350   31.6600 H   0  0  0  0  0  0  0  0  0  0  0  0
   37.2000   23.7180   30.6570 H   0  0  0  0  0  0  0  0  0  0  0  0
   39.6960   22.6020   37.4860 C   0  0  0  0  0  0  0  0  0  0  0  0
   39.0010   23.3840   38.4290 C   0  0  0  0  0  0  0  0  0  0  0  0
   38.0040   24.2530   37.9740 C   0  0  0  0  0  0  0  0  0  0  0  0
   37.7810   24.2750   36.6440 N   0  0  0  0  0  0  0  0  0  0  0  0
   38.4440   23.5300   35.7430 C   0  0  0  0  0  0  0  0  0  0  0  0
   39.3960   22.7010   36.1880 N   0  0  0  0  0  0  0  0  0  0  0  0
   39.2540   23.2920   39.4600 H   0  0  0  0  0  0  0  0  0  0  0  0
   37.4560   24.8620   38.6610 H   0  0  0  0  0  0  0  0  0  0  0  0
   40.7260   21.6920   37.8560 N   0  0  0  0  0  0  0  0  0  0  0  0
   41.5830   22.0690   38.3540 H   0  0  0  0  0  0  0  0  0  0  0  0
   40.6280   20.6590   37.6350 H   0  0  0  0  0  0  0  0  0  0  0  0
   36.4970   21.4150   31.8840 C   0  0  0  0  0  3  0  0  0  0  0  0
   37.3470   20.2340   32.3610 C   0  0  0  0  0  2  0  0  0  0  0  0
   36.8020   18.9310   31.8200 C   0  0  0  0  0  2  0  0  0  0  0  0
   35.3400   18.7540   32.1340 C   0  0  0  0  0  2  0  0  0  0  0  0
   34.5200   19.9930   31.9900 C   0  0  0  0  0  2  0  0  0  0  0  0
   35.1500   21.2370   32.5460 C   0  0  0  0  0  2  0  0  0  0  0  0
  1 14  1  0  0  0  0
  2  7  1  0  0  0  0
  2  1  2  0  0  0  0
  3  2  1  0  0  0  0
  4  3  2  0  0  0  0
  4  5  1  0  0  0  0
  5  6  2  0  0  0  0
  6  1  1  0  0  0  0
  8  3  1  0  0  0  0
  9  4  1  0  0  0  0
 10 18  1  0  0  0  0
 10 11  1  0  0  0  0
 11 16  1  0  0  0  0
 12 11  2  0  0  0  0
 12 17  1  0  0  0  0
 13 12  1  0  0  0  0
 14 15  1  0  0  0  0
 14 13  2  0  0  0  0
 15 10  2  0  0  0  0
 18 19  1  0  0  0  0
 20 18  1  0  0  0  0
 21 22  1  0  0  0  0
 21  5  1  0  0  0  0
 21 26  1  0  0  0  0
 23 24  1  0  0  0  0
 23 22  1  0  0  0  0
 25 24  1  0  0  0  0
 25 26  1  0  0  0  0
M  END
>  <minimizedAffinity>
-5.85902309

$$$$

 OpenBabel03262523143D

 26 28  0  0  0  0  0  0  0  0999 V2000
   38.6030   24.6430   34.6400 C   0  0  0  0  0  0  0  0  0  0  0  0
   39.3750   24.0710   33.6720 C   0  0  0  0  0  0  0  0  0  0  0  0
   39.2090   24.5770   32.4100 C   0  0  0  0  0  0  0  0  0  0  0  0
   38.3330   25.5910   32.1100 C   0  0  0  0  0  0  0  0  0  0  0  0
   37.5940   26.1110   33.1540 C   0  0  0  0  0  0  0  0  0  0  0  0
   37.7250   25.6440   34.4100 N   0  0  0  0  0  0  0  0  0  0  0  0
   40.0830   23.2700   33.8360 H   0  0  0  0  0  0  0  0  0  0  0  0
   39.7680   24.2050   31.5450 H   0  0  0  0  0  0  0  0  0  0  0  0
   38.1830   26.0060   31.1400 H   0  0  0  0  0  0  0  0  0  0  0  0
   39.6910   22.7740   37.6190 C   0  0  0  0  0  0  0  0  0  0  0  0
   38.8670   23.3170   38.6250 C   0  0  0  0  0  0  0  0  0  0  0  0
   37.9520   24.3140   38.2730 C   0  0  0  0  0  0  0  0  0  0  0  0
   37.9280   24.6850   36.9770 N   0  0  0  0  0  0  0  0  0  0  0  0
   38.7130   24.1670   36.0170 C   0  0  0  0  0  0  0  0  0  0  0  0
   39.5860   23.2130   36.3620 N   0  0  0  0  0  0  0  0  0  0  0  0
   38.9660   22.9530   39.6220 H   0  0  0  0  0  0  0  0  0  0  0  0
   37.3110   24.7500   39.0100 H   0  0  0  0  0  0  0  0  0  0  0  0
   40.6520   21.7560   37.8830 N   0  0  0  0  0  0  0  0  0  0  0  0
   41.4270   21.9580   38.5780 H   0  0  0  0  0  0  0  0  0  0  0  0
   40.5840   20.8190   37.3900 H   0  0  0  0  0  0  0  0  0  0  0  0
   36.6010   27.2240   32.9600 C   0  0  0  0  0  3  0  0  0  0  0  0
   36.6230   27.9920   34.2850 C   0  0  0  0  0  2  0  0  0  0  0  0
   35.6240   29.1270   34.2610 C   0  0  0  0  0  2  0  0  0  0  0  0
   35.8190   30.0280   33.0700 C   0  0  0  0  0  2  0  0  0  0  0  0
   36.1290   29.3140   31.7960 C   0  0  0  0  0  2  0  0  0  0  0  0
   37.1210   28.1950   31.9240 C   0  0  0  0  0  2  0  0  0  0  0  0
  1 14  1  0  0  0  0
  2  7  1  0  0  0  0
  2  1  2  0  0  0  0
  3  2  1  0  0  0  0
  4  3  2  0  0  0  0
  4  5  1  0  0  0  0
  5  6  2  0  0  0  0
  6  1  1  0  0  0  0
  8  3  1  0  0  0  0
  9  4  1  0  0  0  0
 10 18  1  0  0  0  0
 10 11  1  0  0  0  0
 11 16  1  0  0  0  0
 12 11  2  0  0  0  0
 12 17  1  0  0  0  0
 13 12  1  0  0  0  0
 14 15  1  0  0  0  0
 14 13  2  0  0  0  0
 15 10  2  0  0  0  0
 18 19  1  0  0  0  0
 20 18  1  0  0  0  0
 21  5  1  0  0  0  0
 21 22  1  0  0  0  0
 23 22  1  0  0  0  0
 24 23  1  0  0  0  0
 25 26  1  0  0  0  0
 25 24  1  0  0  0  0
 26 21  1  0  0  0  0
M  END
>  <minimizedAffinity>
-5.85345745

$$$$

 OpenBabel03262523143D

 26 28  0  0  0  0  0  0  0  0999 V2000
   37.3840   24.8420   32.6630 C   0  0  0  0  0  0  0  0  0  0  0  0
   36.4720   25.5670   31.9540 C   0  0  0  0  0  0  0  0  0  0  0  0
   35.5450   24.8310   31.2620 C   0  0  0  0  0  0  0  0  0  0  0  0
   35.5130   23.4590   31.2650 C   0  0  0  0  0  0  0  0  0  0  0  0
   36.4760   22.8090   32.0130 C   0  0  0  0  0  0  0  0  0  0  0  0
   37.4050   23.4920   32.7080 N   0  0  0  0  0  0  0  0  0  0  0  0
   36.4370   26.6470   31.9060 H   0  0  0  0  0  0  0  0  0  0  0  0
   34.7590   25.2910   30.6540 H   0  0  0  0  0  0  0  0  0  0  0  0
   34.8060   22.8600   30.7380 H   0  0  0  0  0  0  0  0  0  0  0  0
   39.0340   26.9330   35.2060 C   0  0  0  0  0  0  0  0  0  0  0  0
   40.3890   26.8360   34.8330 C   0  0  0  0  0  0  0  0  0  0  0  0
   40.7220   26.0570   33.7190 C   0  0  0  0  0  0  0  0  0  0  0  0
   39.7030   25.4510   33.0780 N   0  0  0  0  0  0  0  0  0  0  0  0
   38.4100   25.5430   33.4330 C   0  0  0  0  0  0  0  0  0  0  0  0
   38.1000   26.2900   34.4990 N   0  0  0  0  0  0  0  0  0  0  0  0
   41.1190   27.3560   35.4090 H   0  0  0  0  0  0  0  0  0  0  0  0
   41.7400   25.9590   33.4070 H   0  0  0  0  0  0  0  0  0  0  0  0
   38.6010   27.7010   36.3230 N   0  0  0  0  0  0  0  0  0  0  0  0
   38.9720   27.4520   37.2850 H   0  0  0  0  0  0  0  0  0  0  0  0
   37.9210   28.5040   36.1870 H   0  0  0  0  0  0  0  0  0  0  0  0
   36.5510   21.3100   32.1000 C   0  0  0  0  0  3  0  0  0  0  0  0
   35.4740   20.9310   33.1210 C   0  0  0  0  0  2  0  0  0  0  0  0
   35.4620   19.4370   33.3560 C   0  0  0  0  0  2  0  0  0  0  0  0
   35.3350   18.6630   32.0700 C   0  0  0  0  0  2  0  0  0  0  0  0
   36.1380   19.2080   30.9360 C   0  0  0  0  0  2  0  0  0  0  0  0
   36.0970   20.7010   30.7920 C   0  0  0  0  0  2  0  0  0  0  0  0
  1  6  1  0  0  0  0
  1 14  1  0  0  0  0
  2  1  2  0  0  0  0
  3  4  2  0  0  0  0
  3  2  1  0  0  0  0
  4  5  1  0  0  0  0
  5 21  1  0  0  0  0
  5  6  2  0  0  0  0
  7  2  1  0  0  0  0
  8  3  1  0  0  0  0
  9  4  1  0  0  0  0
 10 18  1  0  0  0  0
 11 10  1  0  0  0  0
 11 16  1  0  0  0  0
 12 11  2  0  0  0  0
 13 14  2  0  0  0  0
 13 12  1  0  0  0  0
 14 15  1  0  0  0  0
 15 10  2  0  0  0  0
 17 12  1  0  0  0  0
 18 19  1  0  0  0  0
 20 18  1  0  0  0  0
 21 22  1  0  0  0  0
 22 23  1  0  0  0  0
 24 23  1  0  0  0  0
 25 24  1  0  0  0  0
 26 25  1  0  0  0  0
 26 21  1  0  0  0  0
M  END
>  <minimizedAffinity>
-5.84007454

$$$$

 OpenBabel03262523143D

 26 28  0  0  0  0  0  0  0  0999 V2000
   37.2980   25.2350   32.7650 C   0  0  0  0  0  0  0  0  0  0  0  0
   37.0320   24.1100   32.0410 C   0  0  0  0  0  0  0  0  0  0  0  0
   37.3670   22.9270   32.6470 C   0  0  0  0  0  0  0  0  0  0  0  0
   37.9310   22.8500   33.8960 C   0  0  0  0  0  0  0  0  0  0  0  0
   38.1630   24.0410   34.5550 C   0  0  0  0  0  0  0  0  0  0  0  0
   37.8500   25.2260   33.9970 N   0  0  0  0  0  0  0  0  0  0  0  0
   36.5910   24.0950   31.0540 H   0  0  0  0  0  0  0  0  0  0  0  0
   37.2050   21.9530   32.1730 H   0  0  0  0  0  0  0  0  0  0  0  0
   38.2010   21.9470   34.3930 H   0  0  0  0  0  0  0  0  0  0  0  0
   36.8000   27.9810   30.3630 C   0  0  0  0  0  0  0  0  0  0  0  0
   36.3500   29.0240   31.1980 C   0  0  0  0  0  0  0  0  0  0  0  0
   36.2220   28.7760   32.5690 C   0  0  0  0  0  0  0  0  0  0  0  0
   36.5460   27.5370   32.9930 N   0  0  0  0  0  0  0  0  0  0  0  0
   36.9740   26.5420   32.1970 C   0  0  0  0  0  0  0  0  0  0  0  0
   37.0940   26.7890   30.8870 N   0  0  0  0  0  0  0  0  0  0  0  0
   36.1200   29.9690   30.7610 H   0  0  0  0  0  0  0  0  0  0  0  0
   35.8840   29.5430   33.2320 H   0  0  0  0  0  0  0  0  0  0  0  0
   36.9600   28.1410   28.9580 N   0  0  0  0  0  0  0  0  0  0  0  0
   36.1120   28.4030   28.3770 H   0  0  0  0  0  0  0  0  0  0  0  0
   37.9110   27.9990   28.5100 H   0  0  0  0  0  0  0  0  0  0  0  0
   38.7760   24.0950   35.9280 C   0  0  0  0  0  3  0  0  0  0  0  0
   37.5850   24.2840   36.8720 C   0  0  0  0  0  2  0  0  0  0  0  0
   38.0530   24.4080   38.3040 C   0  0  0  0  0  2  0  0  0  0  0  0
   38.9350   23.2570   38.7130 C   0  0  0  0  0  2  0  0  0  0  0  0
   39.9120   22.8240   37.6710 C   0  0  0  0  0  2  0  0  0  0  0  0
   39.3570   22.7440   36.2790 C   0  0  0  0  0  2  0  0  0  0  0  0
  1  6  1  0  0  0  0
  2  3  1  0  0  0  0
  2  1  2  0  0  0  0
  3  4  2  0  0  0  0
  4  9  1  0  0  0  0
  4  5  1  0  0  0  0
  5 21  1  0  0  0  0
  6  5  2  0  0  0  0
  7  2  1  0  0  0  0
  8  3  1  0  0  0  0
 10 15  2  0  0  0  0
 10 11  1  0  0  0  0
 11 12  2  0  0  0  0
 12 13  1  0  0  0  0
 12 17  1  0  0  0  0
 14  1  1  0  0  0  0
 14 13  2  0  0  0  0
 15 14  1  0  0  0  0
 16 11  1  0  0  0  0
 18 10  1  0  0  0  0
 19 18  1  0  0  0  0
 20 18  1  0  0  0  0
 21 26  1  0  0  0  0
 21 22  1  0  0  0  0
 22 23  1  0  0  0  0
 23 24  1  0  0  0  0
 25 24  1  0  0  0  0
 26 25  1  0  0  0  0
M  END
>  <minimizedAffinity>
-5.76698685

$$$$

 OpenBabel03262523143D

 26 28  0  0  0  0  0  0  0  0999 V2000
   36.1270   23.6170   31.7390 C   0  0  0  0  0  0  0  0  0  0  0  0
   35.1730   24.1250   30.9080 C   0  0  0  0  0  0  0  0  0  0  0  0
   35.0940   25.4930   30.8690 C   0  0  0  0  0  0  0  0  0  0  0  0
   35.9060   26.3200   31.6050 C   0  0  0  0  0  0  0  0  0  0  0  0
   36.8440   25.7160   32.4190 C   0  0  0  0  0  0  0  0  0  0  0  0
   36.9570   24.3760   32.4880 N   0  0  0  0  0  0  0  0  0  0  0  0
   34.5000   23.5360   30.3000 H   0  0  0  0  0  0  0  0  0  0  0  0
   34.3700   26.0260   30.2420 H   0  0  0  0  0  0  0  0  0  0  0  0
   35.8680   27.3840   31.5960 H   0  0  0  0  0  0  0  0  0  0  0  0
   35.3670   20.0220   31.9650 C   0  0  0  0  0  0  0  0  0  0  0  0
   36.6540   19.4530   32.0450 C   0  0  0  0  0  0  0  0  0  0  0  0
   37.7640   20.3040   32.0210 C   0  0  0  0  0  0  0  0  0  0  0  0
   37.5120   21.6250   31.9210 N   0  0  0  0  0  0  0  0  0  0  0  0
   36.2850   22.1680   31.8440 C   0  0  0  0  0  0  0  0  0  0  0  0
   35.2290   21.3470   31.8690 N   0  0  0  0  0  0  0  0  0  0  0  0
   36.7440   18.3940   32.1220 H   0  0  0  0  0  0  0  0  0  0  0  0
   38.7550   19.9080   32.0790 H   0  0  0  0  0  0  0  0  0  0  0  0
   34.1800   19.2360   31.9820 N   0  0  0  0  0  0  0  0  0  0  0  0
   34.0390   18.5110   31.2200 H   0  0  0  0  0  0  0  0  0  0  0  0
   33.4580   19.3780   32.7460 H   0  0  0  0  0  0  0  0  0  0  0  0
   37.7940   26.5070   33.2760 C   0  0  0  0  0  3  0  0  0  0  0  0
   36.9740   26.8780   34.5150 C   0  0  0  0  0  2  0  0  0  0  0  0
   37.7910   27.7300   35.4600 C   0  0  0  0  0  2  0  0  0  0  0  0
   39.1060   27.0860   35.8110 C   0  0  0  0  0  2  0  0  0  0  0  0
   39.7940   26.4170   34.6670 C   0  0  0  0  0  2  0  0  0  0  0  0
   38.8980   25.6040   33.7790 C   0  0  0  0  0  2  0  0  0  0  0  0
  1 14  1  0  0  0  0
  1  6  1  0  0  0  0
  2  1  2  0  0  0  0
  3  2  1  0  0  0  0
  3  4  2  0  0  0  0
  4  5  1  0  0  0  0
  5  6  2  0  0  0  0
  5 21  1  0  0  0  0
  7  2  1  0  0  0  0
  8  3  1  0  0  0  0
  9  4  1  0  0  0  0
 10 18  1  0  0  0  0
 10 11  1  0  0  0  0
 11 16  1  0  0  0  0
 12 11  2  0  0  0  0
 12 17  1  0  0  0  0
 13 12  1  0  0  0  0
 14 15  1  0  0  0  0
 14 13  2  0  0  0  0
 15 10  2  0  0  0  0
 18 20  1  0  0  0  0
 19 18  1  0  0  0  0
 21 26  1  0  0  0  0
 21 22  1  0  0  0  0
 22 23  1  0  0  0  0
 23 24  1  0  0  0  0
 25 24  1  0  0  0  0
 26 25  1  0  0  0  0
M  END
>  <minimizedAffinity>
-5.65599346

$$$$

 OpenBabel03262523143D

 26 28  0  0  0  0  0  0  0  0999 V2000
   34.8740   29.6920   33.9960 C   0  0  0  0  0  0  0  0  0  0  0  0
   34.6140   29.9990   32.6930 C   0  0  0  0  0  0  0  0  0  0  0  0
   35.3710   29.3290   31.7670 C   0  0  0  0  0  0  0  0  0  0  0  0
   36.3320   28.4060   32.1000 C   0  0  0  0  0  0  0  0  0  0  0  0
   36.5250   28.1580   33.4450 C   0  0  0  0  0  0  0  0  0  0  0  0
   35.8040   28.7940   34.3880 N   0  0  0  0  0  0  0  0  0  0  0  0
   33.8740   30.7140   32.3580 H   0  0  0  0  0  0  0  0  0  0  0  0
   35.2610   29.4840   30.6880 H   0  0  0  0  0  0  0  0  0  0  0  0
   36.9350   27.8700   31.4050 H   0  0  0  0  0  0  0  0  0  0  0  0
   34.0040   31.8280   36.8650 C   0  0  0  0  0  0  0  0  0  0  0  0
   32.6270   31.5710   37.0170 C   0  0  0  0  0  0  0  0  0  0  0  0
   32.0130   30.6730   36.1370 C   0  0  0  0  0  0  0  0  0  0  0  0
   32.8000   30.1120   35.1970 N   0  0  0  0  0  0  0  0  0  0  0  0
   34.1140   30.3570   35.0520 C   0  0  0  0  0  0  0  0  0  0  0  0
   34.6930   31.2180   35.8980 N   0  0  0  0  0  0  0  0  0  0  0  0
   32.0940   32.0680   37.7940 H   0  0  0  0  0  0  0  0  0  0  0  0
   30.9700   30.4540   36.2220 H   0  0  0  0  0  0  0  0  0  0  0  0
   34.7120   32.7270   37.7120 N   0  0  0  0  0  0  0  0  0  0  0  0
   34.4040   33.7410   37.7480 H   0  0  0  0  0  0  0  0  0  0  0  0
   35.5300   32.3800   38.2920 H   0  0  0  0  0  0  0  0  0  0  0  0
   37.5450   27.1710   33.9420 C   0  0  0  0  0  3  0  0  0  0  0  0
   38.7290   27.3280   32.9830 C   0  0  0  0  0  2  0  0  0  0  0  0
   39.8300   26.3520   33.3300 C   0  0  0  0  0  2  0  0  0  0  0  0
   40.2420   26.4520   34.7760 C   0  0  0  0  0  2  0  0  0  0  0  0
   39.1100   26.6300   35.7320 C   0  0  0  0  0  2  0  0  0  0  0  0
   38.0610   27.6100   35.2940 C   0  0  0  0  0  2  0  0  0  0  0  0
  1  6  1  0  0  0  0
  1 14  1  0  0  0  0
  2  1  2  0  0  0  0
  3  4  2  0  0  0  0
  3  2  1  0  0  0  0
  4  5  1  0  0  0  0
  5 21  1  0  0  0  0
  5  6  2  0  0  0  0
  7  2  1  0  0  0  0
  8  3  1  0  0  0  0
  9  4  1  0  0  0  0
 10 11  1  0  0  0  0
 10 18  1  0  0  0  0
 11 16  1  0  0  0  0
 12 17  1  0  0  0  0
 12 11  2  0  0  0  0
 13 12  1  0  0  0  0
 14 13  2  0  0  0  0
 14 15  1  0  0  0  0
 15 10  2  0  0  0  0
 18 19  1  0  0  0  0
 18 20  1  0  0  0  0
 21 26  1  0  0  0  0
 22 23  1  0  0  0  0
 22 21  1  0  0  0  0
 23 24  1  0  0  0  0
 24 25  1  0  0  0  0
 26 25  1  0  0  0  0
M  END
>  <minimizedAffinity>
-5.41360569

$$$$

 OpenBabel03262523143D

 26 28  0  0  0  0  0  0  0  0999 V2000
   38.3550   24.1370   34.2630 C   0  0  0  0  0  0  0  0  0  0  0  0
   37.8750   23.2780   33.3190 C   0  0  0  0  0  0  0  0  0  0  0  0
   37.1320   23.8560   32.3220 C   0  0  0  0  0  0  0  0  0  0  0  0
   36.8750   25.2030   32.2530 C   0  0  0  0  0  0  0  0  0  0  0  0
   37.4040   25.9950   33.2530 C   0  0  0  0  0  0  0  0  0  0  0  0
   38.1390   25.4700   34.2510 N   0  0  0  0  0  0  0  0  0  0  0  0
   38.0370   22.2090   33.3100 H   0  0  0  0  0  0  0  0  0  0  0  0
   36.6890   23.2780   31.5040 H   0  0  0  0  0  0  0  0  0  0  0  0
   36.3030   25.6800   31.4910 H   0  0  0  0  0  0  0  0  0  0  0  0
   39.3760   22.9620   37.6010 C   0  0  0  0  0  0  0  0  0  0  0  0
   40.7260   22.6160   37.3910 C   0  0  0  0  0  0  0  0  0  0  0  0
   41.2700   22.7880   36.1140 C   0  0  0  0  0  0  0  0  0  0  0  0
   40.4460   23.2800   35.1660 N   0  0  0  0  0  0  0  0  0  0  0  0
   39.1590   23.6100   35.3650 C   0  0  0  0  0  0  0  0  0  0  0  0
   38.6470   23.4430   36.5900 N   0  0  0  0  0  0  0  0  0  0  0  0
   41.2910   22.2340   38.2090 H   0  0  0  0  0  0  0  0  0  0  0  0
   42.2900   22.5360   35.9180 H   0  0  0  0  0  0  0  0  0  0  0  0
   38.7370   22.8220   38.8650 N   0  0  0  0  0  0  0  0  0  0  0  0
   38.6830   21.8570   39.3030 H   0  0  0  0  0  0  0  0  0  0  0  0
   38.3270   23.6700   39.3520 H   0  0  0  0  0  0  0  0  0  0  0  0
   37.1970   27.4840   33.2930 C   0  0  0  0  0  3  0  0  0  0  0  0
   36.2850   27.7760   32.0970 C   0  0  0  0  0  2  0  0  0  0  0  0
   36.0240   29.2610   31.9750 C   0  0  0  0  0  2  0  0  0  0  0  0
   35.5000   29.8510   33.2580 C   0  0  0  0  0  2  0  0  0  0  0  0
   36.1590   29.3350   34.4930 C   0  0  0  0  0  2  0  0  0  0  0  0
   36.3870   27.8520   34.5160 C   0  0  0  0  0  2  0  0  0  0  0  0
  1 14  1  0  0  0  0
  2  1  2  0  0  0  0
  3  2  1  0  0  0  0
  4  3  2  0  0  0  0
  4  5  1  0  0  0  0
  5 21  1  0  0  0  0
  5  6  2  0  0  0  0
  6  1  1  0  0  0  0
  7  2  1  0  0  0  0
  8  3  1  0  0  0  0
  9  4  1  0  0  0  0
 10 18  1  0  0  0  0
 11 10  1  0  0  0  0
 11 16  1  0  0  0  0
 12 11  2  0  0  0  0
 13 14  2  0  0  0  0
 13 12  1  0  0  0  0
 14 15  1  0  0  0  0
 15 10  2  0  0  0  0
 17 12  1  0  0  0  0
 18 19  1  0  0  0  0
 18 20  1  0  0  0  0
 21 26  1  0  0  0  0
 22 21  1  0  0  0  0
 23 22  1  0  0  0  0
 23 24  1  0  0  0  0
 24 25  1  0  0  0  0
 25 26  1  0  0  0  0
M  END
>  <minimizedAffinity>
-5.40217161

$$$$

 OpenBabel03262523143D

 26 28  0  0  0  0  0  0  0  0999 V2000
   35.5030   29.4750   33.6580 C   0  0  0  0  0  0  0  0  0  0  0  0
   35.5020   29.9020   32.3630 C   0  0  0  0  0  0  0  0  0  0  0  0
   36.3520   29.2330   31.5210 C   0  0  0  0  0  0  0  0  0  0  0  0
   37.1600   28.2000   31.9260 C   0  0  0  0  0  0  0  0  0  0  0  0
   37.0940   27.8350   33.2570 C   0  0  0  0  0  0  0  0  0  0  0  0
   36.2730   28.4650   34.1180 N   0  0  0  0  0  0  0  0  0  0  0  0
   34.8940   30.7080   31.9740 H   0  0  0  0  0  0  0  0  0  0  0  0
   36.4460   29.4780   30.4580 H   0  0  0  0  0  0  0  0  0  0  0  0
   37.8300   27.6610   31.2970 H   0  0  0  0  0  0  0  0  0  0  0  0
   34.3150   31.5470   36.4600 C   0  0  0  0  0  0  0  0  0  0  0  0
   32.9240   31.3280   36.4190 C   0  0  0  0  0  0  0  0  0  0  0  0
   32.4090   30.4780   35.4350 C   0  0  0  0  0  0  0  0  0  0  0  0
   33.3000   29.9220   34.5880 N   0  0  0  0  0  0  0  0  0  0  0  0
   34.6270   30.1310   34.6270 C   0  0  0  0  0  0  0  0  0  0  0  0
   35.1110   30.9460   35.5720 N   0  0  0  0  0  0  0  0  0  0  0  0
   32.3050   31.8170   37.1360 H   0  0  0  0  0  0  0  0  0  0  0  0
   31.3590   30.2890   35.3730 H   0  0  0  0  0  0  0  0  0  0  0  0
   34.9280   32.3960   37.4250 N   0  0  0  0  0  0  0  0  0  0  0  0
   34.6450   33.4180   37.4550 H   0  0  0  0  0  0  0  0  0  0  0  0
   35.6520   32.0060   38.0950 H   0  0  0  0  0  0  0  0  0  0  0  0
   37.9260   26.7200   33.8280 C   0  0  0  0  0  3  0  0  0  0  0  0
   37.5240   26.6590   35.3050 C   0  0  0  0  0  2  0  0  0  0  0  0
   38.3250   25.6030   36.0330 C   0  0  0  0  0  2  0  0  0  0  0  0
   38.2390   24.2600   35.3560 C   0  0  0  0  0  2  0  0  0  0  0  0
   38.3020   24.3120   33.8660 C   0  0  0  0  0  2  0  0  0  0  0  0
   37.4850   25.4010   33.2350 C   0  0  0  0  0  2  0  0  0  0  0  0
  1  6  1  0  0  0  0
  1 14  1  0  0  0  0
  2  1  2  0  0  0  0
  3  4  2  0  0  0  0
  3  2  1  0  0  0  0
  4  5  1  0  0  0  0
  5 21  1  0  0  0  0
  5  6  2  0  0  0  0
  7  2  1  0  0  0  0
  8  3  1  0  0  0  0
  9  4  1  0  0  0  0
 10 18  1  0  0  0  0
 11 10  1  0  0  0  0
 11 16  1  0  0  0  0
 12 11  2  0  0  0  0
 13 14  2  0  0  0  0
 13 12  1  0  0  0  0
 14 15  1  0  0  0  0
 15 10  2  0  0  0  0
 17 12  1  0  0  0  0
 18 19  1  0  0  0  0
 18 20  1  0  0  0  0
 21 22  1  0  0  0  0
 22 23  1  0  0  0  0
 24 23  1  0  0  0  0
 25 24  1  0  0  0  0
 26 21  1  0  0  0  0
 26 25  1  0  0  0  0
M  END
>  <minimizedAffinity>
-5.20822477

$$$$
