REMARK  Name = 
REMARK  2 active torsions:
REMARK  status: ('A' for Active; 'I' for Inactive)
REMARK    1  A    between atoms: C_2  and  C_9
REMARK    2  A    between atoms: C_13  and  C_20
REMARK                            x       y       z     vdW  Elec       q    Type
REMARK                         _______ _______ _______ _____ _____    ______ ____
ROOT
ATOM      1 CL   UNL     1      38.396  30.589  46.787  0.00  0.00    +0.000 Cl
ATOM      2  C   UNL     1      38.826  32.033  47.678  0.00  0.00    +0.000 A 
ATOM      3  C   UNL     1      38.338  32.188  48.942  0.00  0.00    +0.000 A 
ATOM      4  C   UNL     1      38.718  33.360  49.601  0.00  0.00    +0.000 A 
ATOM      5  C   UNL     1      39.546  34.284  48.963  0.00  0.00    +0.000 A 
ATOM      6  C   UNL     1      40.007  34.076  47.691  0.00  0.00    +0.000 A 
ATOM      7  C   UNL     1      39.642  32.927  47.028  0.00  0.00    +0.000 A 
ATOM      8  H   UNL     1      38.341  33.501  50.604  0.00  0.00    +0.000 HD
ATOM      9  H   UNL     1      39.779  35.156  49.562  0.00  0.00    +0.000 HD
ATOM     10  H   UNL     1      40.644  34.836  47.262  0.00  0.00    +0.000 HD
ENDROOT
BRANCH   3  12
ATOM     11  C   UNL     1      37.932  30.430  50.665  0.00  0.00    +0.000 A 
ATOM     12  C   UNL     1      37.471  31.230  49.620  0.00  0.00    +0.000 A 
ATOM     13  C   UNL     1      36.137  31.084  49.237  0.00  0.00    +0.000 A 
ATOM     14  N   UNL     1      35.361  30.183  49.890  0.00  0.00    +0.000 NA
ATOM     15  C   UNL     1      35.845  29.425  50.899  0.00  0.00    +0.000 A 
ATOM     16  N   UNL     1      37.139  29.550  51.288  0.00  0.00    +0.000 NA
ATOM     17  H   UNL     1      38.972  30.528  50.980  0.00  0.00    +0.000 HD
ATOM     18  H   UNL     1      35.708  31.677  48.427  0.00  0.00    +0.000 HD
ATOM     19  H   UNL     1      35.144  28.741  51.349  0.00  0.00    +0.000 HD
ENDBRANCH   3  12
BRANCH   7  20
ATOM     20  C   UNL     1      40.125  32.672  45.650  0.00  0.00    +0.000 C 
ATOM     21  C   UNL     1      39.147  31.849  44.857  0.00  0.00    +0.000 C 
ATOM     22  C   UNL     1      39.575  31.872  43.412  0.00  0.00    +0.000 C 
ATOM     23  C   UNL     1      40.991  32.295  43.196  0.00  0.00    +0.000 C 
ATOM     24  C   UNL     1      41.964  31.762  44.222  0.00  0.00    +0.000 C 
ATOM     25  C   UNL     1      41.457  31.953  45.632  0.00  0.00    +0.000 C 
ENDBRANCH   7  20
TORSDOF 2
