
 OpenBabel03272508323D

 42 46  0  0  1  0  0  0  0  0999 V2000
   36.7410   20.7580   32.7180 N   0  0  0  0  0  0  0  0  0  0  0  0
   35.8060   19.7800   33.2340 C   0  0  0  0  0  0  0  0  0  0  0  0
   35.0510   19.0720   32.1700 C   0  0  0  0  0  0  0  0  0  0  0  0
   35.7930   19.1010   30.9300 N   0  0  0  0  0  0  0  0  0  0  0  0
   35.7930   20.4840   30.4670 C   0  0  0  0  0  0  0  0  0  0  0  0
   36.8010   21.1980   31.3100 C   0  0  1  0  0  0  0  0  0  0  0  0
   35.0890   20.3300   33.8790 H   0  0  0  0  0  0  0  0  0  0  0  0
   36.3160   19.0560   33.9340 H   0  0  0  0  0  0  0  0  0  0  0  0
   34.0410   19.5190   31.9840 H   0  0  0  0  0  0  0  0  0  0  0  0
   34.8820   18.0300   32.4420 H   0  0  0  0  0  0  0  0  0  0  0  0
   36.7700   18.8490   31.1330 H   0  0  0  0  0  0  0  0  0  0  0  0
   34.7600   20.8610   30.6050 H   0  0  0  0  0  0  0  0  0  0  0  0
   36.1220   20.4660   29.4120 H   0  0  0  0  0  0  0  0  0  0  0  0
   37.8230   20.8910   30.9880 H   0  0  0  0  0  0  0  0  0  0  0  0
   35.5990   23.4170   31.5430 C   0  0  0  0  0  0  0  0  0  0  0  0
   36.7190   22.6670   31.1810 C   0  0  0  0  0  0  0  0  0  0  0  0
   37.8530   23.2970   30.7050 C   0  0  0  0  0  0  0  0  0  0  0  0
   37.8310   24.6700   30.6120 C   0  0  0  0  0  0  0  0  0  0  0  0
   36.6880   25.4160   30.9820 C   0  0  0  0  0  0  0  0  0  0  0  0
   35.5260   24.7930   31.4630 C   0  0  0  0  0  0  0  0  0  0  0  0
   36.9300   26.7920   30.7810 O   0  0  0  0  0  0  0  0  0  0  0  0
   38.3240   26.9260   30.6680 C   0  0  0  0  0  0  0  0  0  0  0  0
   38.7480   25.6430   30.2070 O   0  0  0  0  0  0  0  0  0  0  0  0
   34.7210   22.9110   31.9100 H   0  0  0  0  0  0  0  0  0  0  0  0
   38.7780   22.9720   30.2980 H   0  0  0  0  0  0  0  0  0  0  0  0
   34.6570   25.3580   31.7430 H   0  0  0  0  0  0  0  0  0  0  0  0
   38.6490   27.7340   30.0050 H   0  0  0  0  0  0  0  0  0  0  0  0
   38.7210   27.0250   31.7200 H   0  0  0  0  0  0  0  0  0  0  0  0
   37.2480   21.8640   34.8570 C   0  0  0  0  0  0  0  0  0  0  0  0
   37.6810   21.3440   33.6190 C   0  0  0  0  0  0  0  0  0  0  0  0
   39.0250   21.4110   33.3360 C   0  0  0  0  0  0  0  0  0  0  0  0
   39.8590   21.9730   34.2680 N   0  0  0  0  0  0  0  0  0  0  0  0
   39.4190   22.4550   35.4330 C   0  0  0  0  0  0  0  0  0  0  0  0
   38.1110   22.4070   35.7390 N   0  0  0  0  0  0  0  0  0  0  0  0
   36.1660   21.7860   35.0290 H   0  0  0  0  0  0  0  0  0  0  0  0
   39.4170   21.0330   32.4090 H   0  0  0  0  0  0  0  0  0  0  0  0
   40.3560   23.0660   36.4380 C   0  0  0  0  0  3  0  0  0  0  0  0
   40.7790   22.1380   37.5120 C   0  0  0  0  0  2  0  0  0  0  0  0
   41.9520   21.2680   37.2370 C   0  0  0  0  0  2  0  0  0  0  0  0
   43.0920   22.0370   36.5860 C   0  0  0  0  0  2  0  0  0  0  0  0
   42.4980   22.6200   35.3020 C   0  0  0  0  0  2  0  0  0  0  0  0
   41.5020   23.6630   35.7030 C   0  0  0  0  0  2  0  0  0  0  0  0
  1  2  1  0  0  0  0
  1 30  1  0  0  0  0
  2  7  1  0  0  0  0
  2  8  1  0  0  0  0
  3 10  1  0  0  0  0
  3  2  1  0  0  0  0
  4 11  1  0  0  0  0
  4  3  1  0  0  0  0
  5 12  1  0  0  0  0
  5  4  1  0  0  0  0
  5  6  1  0  0  0  0
  6 14  1  6  0  0  0
  6  1  1  0  0  0  0
  9  3  1  0  0  0  0
 13  5  1  0  0  0  0
 15 24  1  0  0  0  0
 16  6  1  0  0  0  0
 16 15  2  0  0  0  0
 17 16  1  0  0  0  0
 18 17  2  0  0  0  0
 18 19  1  0  0  0  0
 19 20  2  0  0  0  0
 20 15  1  0  0  0  0
 20 26  1  0  0  0  0
 21 19  1  0  0  0  0
 22 21  1  0  0  0  0
 22 28  1  0  0  0  0
 23 18  1  0  0  0  0
 23 22  1  0  0  0  0
 25 17  1  0  0  0  0
 27 22  1  0  0  0  0
 29 35  1  0  0  0  0
 29 34  1  0  0  0  0
 30 29  2  0  0  0  0
 31 30  1  0  0  0  0
 31 32  2  0  0  0  0
 32 33  1  0  0  0  0
 33 34  2  0  0  0  0
 33 37  1  0  0  0  0
 36 31  1  0  0  0  0
 37 38  1  0  0  0  0
 39 38  1  0  0  0  0
 40 39  1  0  0  0  0
 41 42  1  0  0  0  0
 41 40  1  0  0  0  0
 42 37  1  0  0  0  0
M  END
>  <minimizedAffinity>
-6.22447538

$$$$

 OpenBabel03272508323D

 42 46  0  0  1  0  0  0  0  0999 V2000
   38.9450   25.8340   31.3800 N   0  0  0  0  0  0  0  0  0  0  0  0
   38.7450   26.8780   30.3960 C   0  0  0  0  0  0  0  0  0  0  0  0
   39.8190   27.9030   30.4020 C   0  0  0  0  0  0  0  0  0  0  0  0
   41.0350   27.3470   30.9490 N   0  0  0  0  0  0  0  0  0  0  0  0
   40.7950   27.1150   32.3700 C   0  0  0  0  0  0  0  0  0  0  0  0
   39.9650   25.8740   32.4460 C   0  0  1  0  0  0  0  0  0  0  0  0
   37.7790   27.3670   30.6370 H   0  0  0  0  0  0  0  0  0  0  0  0
   38.5910   26.4440   29.3650 H   0  0  0  0  0  0  0  0  0  0  0  0
   39.5480   28.8100   31.0010 H   0  0  0  0  0  0  0  0  0  0  0  0
   40.0290   28.2530   29.3900 H   0  0  0  0  0  0  0  0  0  0  0  0
   41.1930   26.4280   30.5140 H   0  0  0  0  0  0  0  0  0  0  0  0
   40.2730   28.0160   32.7500 H   0  0  0  0  0  0  0  0  0  0  0  0
   41.7820   26.9430   32.8350 H   0  0  0  0  0  0  0  0  0  0  0  0
   40.6090   24.9930   32.2180 H   0  0  0  0  0  0  0  0  0  0  0  0
   38.4760   26.5340   34.3880 C   0  0  0  0  0  0  0  0  0  0  0  0
   39.3790   25.6570   33.7850 C   0  0  0  0  0  0  0  0  0  0  0  0
   39.7460   24.4890   34.4250 C   0  0  0  0  0  0  0  0  0  0  0  0
   39.1870   24.2290   35.6560 C   0  0  0  0  0  0  0  0  0  0  0  0
   38.2750   25.1290   36.2550 C   0  0  0  0  0  0  0  0  0  0  0  0
   37.8940   26.3230   35.6220 C   0  0  0  0  0  0  0  0  0  0  0  0
   37.8650   24.6280   37.5090 O   0  0  0  0  0  0  0  0  0  0  0  0
   38.2060   23.2660   37.5110 C   0  0  0  0  0  0  0  0  0  0  0  0
   39.2880   23.1900   36.5820 O   0  0  0  0  0  0  0  0  0  0  0  0
   38.2020   27.4430   33.8790 H   0  0  0  0  0  0  0  0  0  0  0  0
   40.4490   23.7160   34.2330 H   0  0  0  0  0  0  0  0  0  0  0  0
   37.2020   27.0060   36.0760 H   0  0  0  0  0  0  0  0  0  0  0  0
   38.4750   22.8670   38.4940 H   0  0  0  0  0  0  0  0  0  0  0  0
   37.3430   22.7200   37.0290 H   0  0  0  0  0  0  0  0  0  0  0  0
   36.7300   24.7850   31.6060 C   0  0  0  0  0  0  0  0  0  0  0  0
   38.1090   24.6780   31.3260 C   0  0  0  0  0  0  0  0  0  0  0  0
   38.5950   23.4370   30.9890 C   0  0  0  0  0  0  0  0  0  0  0  0
   37.7160   22.3850   30.9430 N   0  0  0  0  0  0  0  0  0  0  0  0
   36.4150   22.5190   31.2110 C   0  0  0  0  0  0  0  0  0  0  0  0
   35.9090   23.7190   31.5460 N   0  0  0  0  0  0  0  0  0  0  0  0
   36.3970   25.7990   31.8710 H   0  0  0  0  0  0  0  0  0  0  0  0
   39.6360   23.2900   30.7660 H   0  0  0  0  0  0  0  0  0  0  0  0
   35.4730   21.3480   31.1530 C   0  0  0  0  0  3  0  0  0  0  0  0
   36.1230   20.0670   30.7920 C   0  0  0  0  0  2  0  0  0  0  0  0
   36.7290   19.2760   31.8950 C   0  0  0  0  0  2  0  0  0  0  0  0
   35.8130   19.1960   33.1080 C   0  0  0  0  0  2  0  0  0  0  0  0
   35.5640   20.6500   33.5160 C   0  0  0  0  0  2  0  0  0  0  0  0
   34.7340   21.2810   32.4400 C   0  0  0  0  0  2  0  0  0  0  0  0
  1  6  1  0  0  0  0
  2  3  1  0  0  0  0
  2  7  1  0  0  0  0
  2  1  1  0  0  0  0
  3  4  1  0  0  0  0
  3  9  1  0  0  0  0
  4  5  1  0  0  0  0
  5  6  1  0  0  0  0
  5 12  1  0  0  0  0
  5 13  1  0  0  0  0
  6 14  1  6  0  0  0
  6 16  1  0  0  0  0
  8  2  1  0  0  0  0
 10  3  1  0  0  0  0
 11  4  1  0  0  0  0
 15 20  1  0  0  0  0
 16 15  2  0  0  0  0
 16 17  1  0  0  0  0
 17 18  2  0  0  0  0
 18 19  1  0  0  0  0
 18 23  1  0  0  0  0
 19 21  1  0  0  0  0
 20 26  1  0  0  0  0
 20 19  2  0  0  0  0
 21 22  1  0  0  0  0
 22 27  1  0  0  0  0
 23 22  1  0  0  0  0
 24 15  1  0  0  0  0
 25 17  1  0  0  0  0
 28 22  1  0  0  0  0
 29 35  1  0  0  0  0
 30  1  1  0  0  0  0
 30 29  2  0  0  0  0
 31 30  1  0  0  0  0
 32 31  2  0  0  0  0
 32 33  1  0  0  0  0
 33 34  2  0  0  0  0
 34 29  1  0  0  0  0
 36 31  1  0  0  0  0
 37 33  1  0  0  0  0
 37 42  1  0  0  0  0
 38 37  1  0  0  0  0
 38 39  1  0  0  0  0
 39 40  1  0  0  0  0
 40 41  1  0  0  0  0
 42 41  1  0  0  0  0
M  END
>  <minimizedAffinity>
-6.08965397

$$$$

 OpenBabel03272508323D

 42 46  0  0  1  0  0  0  0  0999 V2000
   36.6910   20.5010   32.6260 N   0  0  0  0  0  0  0  0  0  0  0  0
   35.8500   19.3760   32.9800 C   0  0  0  0  0  0  0  0  0  0  0  0
   35.3920   18.5940   31.8040 C   0  0  0  0  0  0  0  0  0  0  0  0
   36.3060   18.7750   30.7000 N   0  0  0  0  0  0  0  0  0  0  0  0
   36.1640   20.1560   30.2510 C   0  0  0  0  0  0  0  0  0  0  0  0
   36.9020   20.9880   31.2490 C   0  0  1  0  0  0  0  0  0  0  0  0
   34.9630   19.7900   33.5040 H   0  0  0  0  0  0  0  0  0  0  0  0
   36.3500   18.7170   33.7480 H   0  0  0  0  0  0  0  0  0  0  0  0
   34.3670   18.8880   31.4610 H   0  0  0  0  0  0  0  0  0  0  0  0
   35.3460   17.5300   32.0390 H   0  0  0  0  0  0  0  0  0  0  0  0
   37.2660   18.6690   31.0550 H   0  0  0  0  0  0  0  0  0  0  0  0
   35.0760   20.3650   30.2240 H   0  0  0  0  0  0  0  0  0  0  0  0
   36.6530   20.2210   29.2630 H   0  0  0  0  0  0  0  0  0  0  0  0
   37.9980   20.8510   31.0940 H   0  0  0  0  0  0  0  0  0  0  0  0
   35.3610   22.9970   31.3570 C   0  0  0  0  0  0  0  0  0  0  0  0
   36.6140   22.4310   31.1180 C   0  0  0  0  0  0  0  0  0  0  0  0
   37.6850   23.2340   30.7730 C   0  0  0  0  0  0  0  0  0  0  0  0
   37.4660   24.5900   30.6840 C   0  0  0  0  0  0  0  0  0  0  0  0
   36.1890   25.1480   30.9280 C   0  0  0  0  0  0  0  0  0  0  0  0
   35.0890   24.3480   31.2740 C   0  0  0  0  0  0  0  0  0  0  0  0
   36.2420   26.5480   30.7610 O   0  0  0  0  0  0  0  0  0  0  0  0
   37.6030   26.8920   30.8030 C   0  0  0  0  0  0  0  0  0  0  0  0
   38.2640   25.6970   30.3870 O   0  0  0  0  0  0  0  0  0  0  0  0
   34.5340   22.3580   31.6210 H   0  0  0  0  0  0  0  0  0  0  0  0
   38.6870   23.0600   30.4700 H   0  0  0  0  0  0  0  0  0  0  0  0
   34.1200   24.7700   31.4590 H   0  0  0  0  0  0  0  0  0  0  0  0
   37.8730   27.7530   30.1840 H   0  0  0  0  0  0  0  0  0  0  0  0
   37.8630   27.0280   31.8940 H   0  0  0  0  0  0  0  0  0  0  0  0
   38.7310   21.5500   33.5180 C   0  0  0  0  0  0  0  0  0  0  0  0
   37.3740   21.1960   33.6710 C   0  0  0  0  0  0  0  0  0  0  0  0
   36.7490   21.5580   34.8400 C   0  0  0  0  0  0  0  0  0  0  0  0
   37.4770   22.2410   35.7810 N   0  0  0  0  0  0  0  0  0  0  0  0
   38.7610   22.5640   35.6070 C   0  0  0  0  0  0  0  0  0  0  0  0
   39.4010   22.2220   34.4750 N   0  0  0  0  0  0  0  0  0  0  0  0
   39.1790   21.2340   32.5650 H   0  0  0  0  0  0  0  0  0  0  0  0
   35.7170   21.3160   35.0170 H   0  0  0  0  0  0  0  0  0  0  0  0
   39.5360   23.3140   36.6560 C   0  0  0  0  0  3  0  0  0  0  0  0
   39.3700   24.7830   36.5930 C   0  0  0  0  0  2  0  0  0  0  0  0
   38.2070   25.3690   37.3110 C   0  0  0  0  0  2  0  0  0  0  0  0
   38.0390   24.7770   38.7020 C   0  0  0  0  0  2  0  0  0  0  0  0
   37.8740   23.2720   38.4770 C   0  0  0  0  0  2  0  0  0  0  0  0
   39.1870   22.7470   37.9850 C   0  0  0  0  0  2  0  0  0  0  0  0
  1  2  1  0  0  0  0
  1 30  1  0  0  0  0
  2  7  1  0  0  0  0
  2  8  1  0  0  0  0
  3 10  1  0  0  0  0
  3  2  1  0  0  0  0
  4 11  1  0  0  0  0
  4  3  1  0  0  0  0
  5  4  1  0  0  0  0
  5  6  1  0  0  0  0
  6 14  1  6  0  0  0
  6  1  1  0  0  0  0
  9  3  1  0  0  0  0
 12  5  1  0  0  0  0
 13  5  1  0  0  0  0
 15 24  1  0  0  0  0
 16  6  1  0  0  0  0
 16 15  2  0  0  0  0
 17 16  1  0  0  0  0
 18 17  2  0  0  0  0
 18 19  1  0  0  0  0
 19 20  2  0  0  0  0
 20 15  1  0  0  0  0
 20 26  1  0  0  0  0
 21 22  1  0  0  0  0
 21 19  1  0  0  0  0
 22 28  1  0  0  0  0
 23 18  1  0  0  0  0
 23 22  1  0  0  0  0
 25 17  1  0  0  0  0
 27 22  1  0  0  0  0
 29 30  2  0  0  0  0
 29 34  1  0  0  0  0
 30 31  1  0  0  0  0
 31 36  1  0  0  0  0
 31 32  2  0  0  0  0
 33 32  1  0  0  0  0
 33 37  1  0  0  0  0
 34 33  2  0  0  0  0
 35 29  1  0  0  0  0
 37 42  1  0  0  0  0
 38 37  1  0  0  0  0
 38 39  1  0  0  0  0
 39 40  1  0  0  0  0
 41 40  1  0  0  0  0
 42 41  1  0  0  0  0
M  END
>  <minimizedAffinity>
-5.58205652

$$$$

 OpenBabel03272508323D

 42 46  0  0  1  0  0  0  0  0999 V2000
   34.9640   30.4380   32.6560 N   0  0  0  0  0  0  0  0  0  0  0  0
   35.3250   30.9280   31.3410 C   0  0  0  0  0  0  0  0  0  0  0  0
   34.7120   32.2400   31.0160 C   0  0  0  0  0  0  0  0  0  0  0  0
   34.3900   32.9540   32.2300 N   0  0  0  0  0  0  0  0  0  0  0  0
   33.2960   32.2310   32.8720 C   0  0  0  0  0  0  0  0  0  0  0  0
   33.9200   31.0320   33.5130 C   0  0  1  0  0  0  0  0  0  0  0  0
   34.9720   30.1740   30.6080 H   0  0  0  0  0  0  0  0  0  0  0  0
   36.4460   30.9490   31.2070 H   0  0  0  0  0  0  0  0  0  0  0  0
   33.7760   32.1420   30.4090 H   0  0  0  0  0  0  0  0  0  0  0  0
   35.3960   32.8550   30.4310 H   0  0  0  0  0  0  0  0  0  0  0  0
   35.2010   32.8990   32.8620 H   0  0  0  0  0  0  0  0  0  0  0  0
   32.5780   31.9740   32.0680 H   0  0  0  0  0  0  0  0  0  0  0  0
   32.8800   32.9030   33.6430 H   0  0  0  0  0  0  0  0  0  0  0  0
   34.4850   31.3590   34.4170 H   0  0  0  0  0  0  0  0  0  0  0  0
   32.1040   29.3190   33.0770 C   0  0  0  0  0  0  0  0  0  0  0  0
   32.9240   30.0340   33.9520 C   0  0  0  0  0  0  0  0  0  0  0  0
   32.8600   29.7990   35.3120 C   0  0  0  0  0  0  0  0  0  0  0  0
   31.9760   28.8430   35.7570 C   0  0  0  0  0  0  0  0  0  0  0  0
   31.1500   28.1280   34.8580 C   0  0  0  0  0  0  0  0  0  0  0  0
   31.1970   28.3560   33.4730 C   0  0  0  0  0  0  0  0  0  0  0  0
   30.3380   27.2230   35.5730 O   0  0  0  0  0  0  0  0  0  0  0  0
   30.9260   27.0950   36.8420 C   0  0  0  0  0  0  0  0  0  0  0  0
   31.6360   28.3240   37.0070 O   0  0  0  0  0  0  0  0  0  0  0  0
   32.1620   29.5150   32.0190 H   0  0  0  0  0  0  0  0  0  0  0  0
   33.2970   30.2430   36.1720 H   0  0  0  0  0  0  0  0  0  0  0  0
   30.5710   27.8150   32.7900 H   0  0  0  0  0  0  0  0  0  0  0  0
   30.2170   26.9140   37.6550 H   0  0  0  0  0  0  0  0  0  0  0  0
   31.7140   26.2920   36.7490 H   0  0  0  0  0  0  0  0  0  0  0  0
   35.8500   28.1600   32.3710 C   0  0  0  0  0  0  0  0  0  0  0  0
   35.6590   29.3040   33.1740 C   0  0  0  0  0  0  0  0  0  0  0  0
   36.1790   29.2820   34.4470 C   0  0  0  0  0  0  0  0  0  0  0  0
   36.8490   28.1580   34.8560 N   0  0  0  0  0  0  0  0  0  0  0  0
   37.0160   27.0900   34.0720 C   0  0  0  0  0  0  0  0  0  0  0  0
   36.5180   27.0800   32.8230 N   0  0  0  0  0  0  0  0  0  0  0  0
   35.4130   28.2320   31.3650 H   0  0  0  0  0  0  0  0  0  0  0  0
   36.0660   30.1220   35.1080 H   0  0  0  0  0  0  0  0  0  0  0  0
   37.7570   25.8700   34.5460 C   0  0  0  0  0  3  0  0  0  0  0  0
   38.3050   25.0340   33.4540 C   0  0  0  0  0  2  0  0  0  0  0  0
   39.6440   25.4020   32.9220 C   0  0  0  0  0  2  0  0  0  0  0  0
   40.6340   25.7110   34.0350 C   0  0  0  0  0  2  0  0  0  0  0  0
   39.9990   26.8550   34.8280 C   0  0  0  0  0  2  0  0  0  0  0  0
   38.7910   26.3040   35.5210 C   0  0  0  0  0  2  0  0  0  0  0  0
  1 30  1  0  0  0  0
  1  6  1  0  0  0  0
  2  1  1  0  0  0  0
  3  2  1  0  0  0  0
  3  4  1  0  0  0  0
  4 11  1  0  0  0  0
  4  5  1  0  0  0  0
  5  6  1  0  0  0  0
  5 13  1  0  0  0  0
  6 16  1  0  0  0  0
  6 14  1  1  0  0  0
  7  2  1  0  0  0  0
  8  2  1  0  0  0  0
  9  3  1  0  0  0  0
 10  3  1  0  0  0  0
 12  5  1  0  0  0  0
 15 20  2  0  0  0  0
 15 16  1  0  0  0  0
 16 17  2  0  0  0  0
 17 18  1  0  0  0  0
 17 25  1  0  0  0  0
 18 23  1  0  0  0  0
 19 21  1  0  0  0  0
 19 18  2  0  0  0  0
 20 19  1  0  0  0  0
 21 22  1  0  0  0  0
 22 23  1  0  0  0  0
 22 27  1  0  0  0  0
 24 15  1  0  0  0  0
 26 20  1  0  0  0  0
 28 22  1  0  0  0  0
 29 34  2  0  0  0  0
 29 30  1  0  0  0  0
 30 31  2  0  0  0  0
 31 32  1  0  0  0  0
 31 36  1  0  0  0  0
 33 37  1  0  0  0  0
 33 32  2  0  0  0  0
 34 33  1  0  0  0  0
 35 29  1  0  0  0  0
 37 42  1  0  0  0  0
 38 37  1  0  0  0  0
 39 38  1  0  0  0  0
 39 40  1  0  0  0  0
 40 41  1  0  0  0  0
 41 42  1  0  0  0  0
M  END
>  <minimizedAffinity>
-5.57760715

$$$$

 OpenBabel03272508323D

 42 46  0  0  1  0  0  0  0  0999 V2000
   36.3350   27.7400   32.1360 N   0  0  0  0  0  0  0  0  0  0  0  0
   35.9560   28.2710   33.4300 C   0  0  0  0  0  0  0  0  0  0  0  0
   35.5520   29.6990   33.3830 C   0  0  0  0  0  0  0  0  0  0  0  0
   35.0980   30.0440   32.0550 N   0  0  0  0  0  0  0  0  0  0  0  0
   36.2670   30.0040   31.1820 C   0  0  0  0  0  0  0  0  0  0  0  0
   36.5350   28.5570   30.9230 C   0  0  1  0  0  0  0  0  0  0  0  0
   36.8420   28.1690   34.0910 H   0  0  0  0  0  0  0  0  0  0  0  0
   35.1650   27.6310   33.9180 H   0  0  0  0  0  0  0  0  0  0  0  0
   36.3860   30.3940   33.6590 H   0  0  0  0  0  0  0  0  0  0  0  0
   34.7400   29.8960   34.0830 H   0  0  0  0  0  0  0  0  0  0  0  0
   34.4550   29.3080   31.7330 H   0  0  0  0  0  0  0  0  0  0  0  0
   37.0850   30.5100   31.7320 H   0  0  0  0  0  0  0  0  0  0  0  0
   35.9810   30.5130   30.2440 H   0  0  0  0  0  0  0  0  0  0  0  0
   35.7620   28.1660   30.2210 H   0  0  0  0  0  0  0  0  0  0  0  0
   39.0080   28.0100   31.0270 C   0  0  0  0  0  0  0  0  0  0  0  0
   37.8550   28.3200   30.3040 C   0  0  0  0  0  0  0  0  0  0  0  0
   37.8970   28.3830   28.9240 C   0  0  0  0  0  0  0  0  0  0  0  0
   39.1000   28.1240   28.3070 C   0  0  0  0  0  0  0  0  0  0  0  0
   40.2600   27.8130   29.0540 C   0  0  0  0  0  0  0  0  0  0  0  0
   40.2370   27.7490   30.4570 C   0  0  0  0  0  0  0  0  0  0  0  0
   41.3480   27.6030   28.1810 O   0  0  0  0  0  0  0  0  0  0  0  0
   40.7890   27.3980   26.9090 C   0  0  0  0  0  0  0  0  0  0  0  0
   39.5340   28.0770   26.9810 O   0  0  0  0  0  0  0  0  0  0  0  0
   38.9610   27.9680   32.1030 H   0  0  0  0  0  0  0  0  0  0  0  0
   37.2120   28.6660   28.1630 H   0  0  0  0  0  0  0  0  0  0  0  0
   41.1170   27.5140   31.0250 H   0  0  0  0  0  0  0  0  0  0  0  0
   41.4060   27.7540   26.0790 H   0  0  0  0  0  0  0  0  0  0  0  0
   40.5430   26.2970   26.8430 H   0  0  0  0  0  0  0  0  0  0  0  0
   37.3220   25.6360   32.9440 C   0  0  0  0  0  0  0  0  0  0  0  0
   36.5280   26.3310   32.0080 C   0  0  0  0  0  0  0  0  0  0  0  0
   35.9480   25.6020   30.9980 C   0  0  0  0  0  0  0  0  0  0  0  0
   36.1710   24.2490   30.9630 N   0  0  0  0  0  0  0  0  0  0  0  0
   36.9260   23.6170   31.8650 C   0  0  0  0  0  0  0  0  0  0  0  0
   37.5090   24.3030   32.8640 N   0  0  0  0  0  0  0  0  0  0  0  0
   37.7620   26.2690   33.7280 H   0  0  0  0  0  0  0  0  0  0  0  0
   35.3330   26.0740   30.2530 H   0  0  0  0  0  0  0  0  0  0  0  0
   37.1540   22.1320   31.8030 C   0  0  0  0  0  3  0  0  0  0  0  0
   37.6180   21.5380   33.0780 C   0  0  0  0  0  2  0  0  0  0  0  0
   36.5780   21.1420   34.0630 C   0  0  0  0  0  2  0  0  0  0  0  0
   35.4260   20.3970   33.4060 C   0  0  0  0  0  2  0  0  0  0  0  0
   34.8770   21.3610   32.3520 C   0  0  0  0  0  2  0  0  0  0  0  0
   35.9170   21.4930   31.2820 C   0  0  0  0  0  2  0  0  0  0  0  0
  1  2  1  0  0  0  0
  2  8  1  0  0  0  0
  2  7  1  0  0  0  0
  3  2  1  0  0  0  0
  3  9  1  0  0  0  0
  3 10  1  0  0  0  0
  4  3  1  0  0  0  0
  5 12  1  0  0  0  0
  5  4  1  0  0  0  0
  6 14  1  6  0  0  0
  6  5  1  0  0  0  0
  6  1  1  0  0  0  0
 11  4  1  0  0  0  0
 13  5  1  0  0  0  0
 15 24  1  0  0  0  0
 16  6  1  0  0  0  0
 16 15  2  0  0  0  0
 17 16  1  0  0  0  0
 18 17  2  0  0  0  0
 18 19  1  0  0  0  0
 19 20  2  0  0  0  0
 20 26  1  0  0  0  0
 20 15  1  0  0  0  0
 21 19  1  0  0  0  0
 22 23  1  0  0  0  0
 22 21  1  0  0  0  0
 23 18  1  0  0  0  0
 25 17  1  0  0  0  0
 27 22  1  0  0  0  0
 28 22  1  0  0  0  0
 29 35  1  0  0  0  0
 30  1  1  0  0  0  0
 30 29  2  0  0  0  0
 31 30  1  0  0  0  0
 32 31  2  0  0  0  0
 32 33  1  0  0  0  0
 33 34  2  0  0  0  0
 34 29  1  0  0  0  0
 36 31  1  0  0  0  0
 37 33  1  0  0  0  0
 37 38  1  0  0  0  0
 38 39  1  0  0  0  0
 40 39  1  0  0  0  0
 41 40  1  0  0  0  0
 42 37  1  0  0  0  0
 42 41  1  0  0  0  0
M  END
>  <minimizedAffinity>
-5.56050062

$$$$

 OpenBabel03272508323D

 42 46  0  0  1  0  0  0  0  0999 V2000
   38.6990   23.2330   36.1500 N   0  0  0  0  0  0  0  0  0  0  0  0
   39.3460   22.6990   37.3300 C   0  0  0  0  0  0  0  0  0  0  0  0
   39.0520   23.4740   38.5620 C   0  0  0  0  0  0  0  0  0  0  0  0
   37.8040   24.1870   38.4150 N   0  0  0  0  0  0  0  0  0  0  0  0
   38.0240   25.2280   37.4170 C   0  0  0  0  0  0  0  0  0  0  0  0
   38.0060   24.5350   36.0920 C   0  0  1  0  0  0  0  0  0  0  0  0
   40.4390   22.7280   37.1380 H   0  0  0  0  0  0  0  0  0  0  0  0
   39.1130   21.6020   37.4640 H   0  0  0  0  0  0  0  0  0  0  0  0
   39.8530   24.2170   38.8070 H   0  0  0  0  0  0  0  0  0  0  0  0
   38.9690   22.8140   39.4260 H   0  0  0  0  0  0  0  0  0  0  0  0
   37.1050   23.5380   38.0270 H   0  0  0  0  0  0  0  0  0  0  0  0
   39.0020   25.6900   37.6560 H   0  0  0  0  0  0  0  0  0  0  0  0
   37.1720   25.9270   37.4930 H   0  0  0  0  0  0  0  0  0  0  0  0
   36.9550   24.2550   35.8450 H   0  0  0  0  0  0  0  0  0  0  0  0
   39.7920   25.9270   34.9560 C   0  0  0  0  0  0  0  0  0  0  0  0
   38.5070   25.3840   34.9930 C   0  0  0  0  0  0  0  0  0  0  0  0
   37.6320   25.5980   33.9450 C   0  0  0  0  0  0  0  0  0  0  0  0
   38.0780   26.3480   32.8810 C   0  0  0  0  0  0  0  0  0  0  0  0
   39.3840   26.8930   32.8590 C   0  0  0  0  0  0  0  0  0  0  0  0
   40.2840   26.6900   33.9160 C   0  0  0  0  0  0  0  0  0  0  0  0
   39.5770   27.6200   31.6650 O   0  0  0  0  0  0  0  0  0  0  0  0
   38.5580   27.2060   30.7910 C   0  0  0  0  0  0  0  0  0  0  0  0
   37.5230   26.7630   31.6680 O   0  0  0  0  0  0  0  0  0  0  0  0
   40.4620   25.7550   35.7820 H   0  0  0  0  0  0  0  0  0  0  0  0
   36.6100   25.3760   33.7630 H   0  0  0  0  0  0  0  0  0  0  0  0
   41.2750   27.1040   33.9010 H   0  0  0  0  0  0  0  0  0  0  0  0
   38.2130   27.9790   30.0980 H   0  0  0  0  0  0  0  0  0  0  0  0
   38.9420   26.2800   30.2710 H   0  0  0  0  0  0  0  0  0  0  0  0
   39.9420   22.1800   34.3060 C   0  0  0  0  0  0  0  0  0  0  0  0
   38.7190   22.4560   34.9510 C   0  0  0  0  0  0  0  0  0  0  0  0
   37.5740   21.9400   34.3940 C   0  0  0  0  0  0  0  0  0  0  0  0
   37.6890   21.1880   33.2520 N   0  0  0  0  0  0  0  0  0  0  0  0
   38.8620   20.9420   32.6650 C   0  0  0  0  0  0  0  0  0  0  0  0
   40.0000   21.4340   33.1850 N   0  0  0  0  0  0  0  0  0  0  0  0
   40.8240   22.6190   34.7940 H   0  0  0  0  0  0  0  0  0  0  0  0
   36.6110   22.1160   34.8370 H   0  0  0  0  0  0  0  0  0  0  0  0
   38.9600   20.1140   31.4120 C   0  0  0  0  0  3  0  0  0  0  0  0
   38.6620   18.6780   31.6140 C   0  0  0  0  0  2  0  0  0  0  0  0
   37.2360   18.2620   31.5450 C   0  0  0  0  0  2  0  0  0  0  0  0
   36.5140   18.8940   30.3640 C   0  0  0  0  0  2  0  0  0  0  0  0
   36.6610   20.4040   30.5690 C   0  0  0  0  0  2  0  0  0  0  0  0
   38.1060   20.7430   30.3710 C   0  0  0  0  0  2  0  0  0  0  0  0
  1  2  1  0  0  0  0
  2  8  1  0  0  0  0
  2  3  1  0  0  0  0
  3  9  1  0  0  0  0
  3 10  1  0  0  0  0
  4  3  1  0  0  0  0
  5 13  1  0  0  0  0
  5 12  1  0  0  0  0
  5  4  1  0  0  0  0
  6 14  1  6  0  0  0
  6  1  1  0  0  0  0
  6  5  1  0  0  0  0
  7  2  1  0  0  0  0
 11  4  1  0  0  0  0
 15 16  1  0  0  0  0
 15 24  1  0  0  0  0
 16  6  1  0  0  0  0
 17 16  2  0  0  0  0
 18 17  1  0  0  0  0
 19 18  2  0  0  0  0
 19 20  1  0  0  0  0
 20 15  2  0  0  0  0
 21 19  1  0  0  0  0
 22 21  1  0  0  0  0
 22 23  1  0  0  0  0
 23 18  1  0  0  0  0
 25 17  1  0  0  0  0
 26 20  1  0  0  0  0
 27 22  1  0  0  0  0
 28 22  1  0  0  0  0
 29 35  1  0  0  0  0
 29 30  1  0  0  0  0
 30  1  1  0  0  0  0
 31 36  1  0  0  0  0
 31 30  2  0  0  0  0
 32 31  1  0  0  0  0
 33 34  1  0  0  0  0
 33 32  2  0  0  0  0
 34 29  2  0  0  0  0
 37 38  1  0  0  0  0
 37 33  1  0  0  0  0
 39 38  1  0  0  0  0
 40 41  1  0  0  0  0
 40 39  1  0  0  0  0
 42 41  1  0  0  0  0
 42 37  1  0  0  0  0
M  END
>  <minimizedAffinity>
-5.54773712

$$$$

 OpenBabel03272508323D

 42 46  0  0  1  0  0  0  0  0999 V2000
   37.0940   21.4310   31.0620 N   0  0  0  0  0  0  0  0  0  0  0  0
   37.3800   20.6390   29.8830 C   0  0  0  0  0  0  0  0  0  0  0  0
   36.9660   19.2200   30.0150 C   0  0  0  0  0  0  0  0  0  0  0  0
   35.9130   19.0980   30.9970 N   0  0  0  0  0  0  0  0  0  0  0  0
   36.5090   19.3880   32.2970 C   0  0  0  0  0  0  0  0  0  0  0  0
   36.6550   20.8750   32.3570 C   0  0  1  0  0  0  0  0  0  0  0  0
   38.4780   20.6820   29.7260 H   0  0  0  0  0  0  0  0  0  0  0  0
   36.9450   21.1150   28.9570 H   0  0  0  0  0  0  0  0  0  0  0  0
   37.8100   18.5490   30.3210 H   0  0  0  0  0  0  0  0  0  0  0  0
   36.5930   18.8340   29.0660 H   0  0  0  0  0  0  0  0  0  0  0  0
   35.2140   19.8310   30.8140 H   0  0  0  0  0  0  0  0  0  0  0  0
   37.4770   18.8500   32.3250 H   0  0  0  0  0  0  0  0  0  0  0  0
   35.7880   19.0450   33.0610 H   0  0  0  0  0  0  0  0  0  0  0  0
   35.6490   21.3310   32.5050 H   0  0  0  0  0  0  0  0  0  0  0  0
   38.9020   21.4080   33.4000 C   0  0  0  0  0  0  0  0  0  0  0  0
   37.5120   21.3220   33.4750 C   0  0  0  0  0  0  0  0  0  0  0  0
   36.8520   21.7020   34.6280 C   0  0  0  0  0  0  0  0  0  0  0  0
   37.6130   22.1670   35.6770 C   0  0  0  0  0  0  0  0  0  0  0  0
   39.0220   22.2470   35.5870 C   0  0  0  0  0  0  0  0  0  0  0  0
   39.7090   21.8610   34.4250 C   0  0  0  0  0  0  0  0  0  0  0  0
   39.5500   22.7450   36.7970 O   0  0  0  0  0  0  0  0  0  0  0  0
   38.4710   23.3340   37.4760 C   0  0  0  0  0  0  0  0  0  0  0  0
   37.3330   22.6430   36.9600 O   0  0  0  0  0  0  0  0  0  0  0  0
   39.4030   21.1050   32.4960 H   0  0  0  0  0  0  0  0  0  0  0  0
   35.8460   21.6630   34.9670 H   0  0  0  0  0  0  0  0  0  0  0  0
   40.7790   21.9200   34.3550 H   0  0  0  0  0  0  0  0  0  0  0  0
   38.5340   23.2730   38.5670 H   0  0  0  0  0  0  0  0  0  0  0  0
   38.3920   24.3930   37.0920 H   0  0  0  0  0  0  0  0  0  0  0  0
   36.1480   23.6910   31.2870 C   0  0  0  0  0  0  0  0  0  0  0  0
   37.2380   22.8490   30.9820 C   0  0  0  0  0  0  0  0  0  0  0  0
   38.4240   23.4470   30.6290 C   0  0  0  0  0  0  0  0  0  0  0  0
   38.4780   24.8170   30.5960 N   0  0  0  0  0  0  0  0  0  0  0  0
   37.4290   25.5880   30.8930 C   0  0  0  0  0  0  0  0  0  0  0  0
   36.2540   25.0340   31.2410 N   0  0  0  0  0  0  0  0  0  0  0  0
   35.2250   23.1600   31.5610 H   0  0  0  0  0  0  0  0  0  0  0  0
   39.2910   22.8600   30.3830 H   0  0  0  0  0  0  0  0  0  0  0  0
   37.5150   27.0890   30.8500 C   0  0  0  0  0  3  0  0  0  0  0  0
   36.2020   27.7680   30.7680 C   0  0  0  0  0  2  0  0  0  0  0  0
   35.4940   28.0390   32.0480 C   0  0  0  0  0  2  0  0  0  0  0  0
   36.4290   28.6040   33.1070 C   0  0  0  0  0  2  0  0  0  0  0  0
   37.5280   27.5520   33.2710 C   0  0  0  0  0  2  0  0  0  0  0  0
   38.3310   27.5410   32.0070 C   0  0  0  0  0  2  0  0  0  0  0  0
  1  6  1  0  0  0  0
  2  3  1  0  0  0  0
  2  1  1  0  0  0  0
  3  9  1  0  0  0  0
  3  4  1  0  0  0  0
  4  5  1  0  0  0  0
  5 12  1  0  0  0  0
  5  6  1  0  0  0  0
  5 13  1  0  0  0  0
  6 14  1  1  0  0  0
  6 16  1  0  0  0  0
  7  2  1  0  0  0  0
  8  2  1  0  0  0  0
 10  3  1  0  0  0  0
 11  4  1  0  0  0  0
 15 16  2  0  0  0  0
 15 20  1  0  0  0  0
 16 17  1  0  0  0  0
 17 25  1  0  0  0  0
 17 18  2  0  0  0  0
 18 23  1  0  0  0  0
 19 18  1  0  0  0  0
 19 21  1  0  0  0  0
 20 19  2  0  0  0  0
 21 22  1  0  0  0  0
 22 27  1  0  0  0  0
 23 22  1  0  0  0  0
 24 15  1  0  0  0  0
 26 20  1  0  0  0  0
 28 22  1  0  0  0  0
 29 35  1  0  0  0  0
 30  1  1  0  0  0  0
 30 29  2  0  0  0  0
 31 30  1  0  0  0  0
 32 31  2  0  0  0  0
 32 33  1  0  0  0  0
 33 34  2  0  0  0  0
 34 29  1  0  0  0  0
 36 31  1  0  0  0  0
 37 33  1  0  0  0  0
 37 42  1  0  0  0  0
 38 37  1  0  0  0  0
 38 39  1  0  0  0  0
 39 40  1  0  0  0  0
 40 41  1  0  0  0  0
 42 41  1  0  0  0  0
M  END
>  <minimizedAffinity>
-5.48483992

$$$$

 OpenBabel03272508323D

 42 46  0  0  1  0  0  0  0  0999 V2000
   37.5730   26.5790   31.8340 N   0  0  0  0  0  0  0  0  0  0  0  0
   36.6430   27.6390   32.1660 C   0  0  0  0  0  0  0  0  0  0  0  0
   36.3850   28.5670   31.0370 C   0  0  0  0  0  0  0  0  0  0  0  0
   36.6480   27.9070   29.7790 N   0  0  0  0  0  0  0  0  0  0  0  0
   38.0890   27.6930   29.7040 C   0  0  0  0  0  0  0  0  0  0  0  0
   38.3760   26.5280   30.5960 C   0  0  1  0  0  0  0  0  0  0  0  0
   37.0920   28.2090   33.0060 H   0  0  0  0  0  0  0  0  0  0  0  0
   35.6830   27.2220   32.5890 H   0  0  0  0  0  0  0  0  0  0  0  0
   37.0140   29.4930   31.0850 H   0  0  0  0  0  0  0  0  0  0  0  0
   35.3460   28.8990   31.0370 H   0  0  0  0  0  0  0  0  0  0  0  0
   36.2040   26.9780   29.8030 H   0  0  0  0  0  0  0  0  0  0  0  0
   38.5630   28.6340   30.0460 H   0  0  0  0  0  0  0  0  0  0  0  0
   38.3180   27.4350   28.6550 H   0  0  0  0  0  0  0  0  0  0  0  0
   38.0210   25.5950   30.0990 H   0  0  0  0  0  0  0  0  0  0  0  0
   40.5350   25.2000   30.5780 C   0  0  0  0  0  0  0  0  0  0  0  0
   39.8170   26.3590   30.8740 C   0  0  0  0  0  0  0  0  0  0  0  0
   40.4590   27.4520   31.4250 C   0  0  0  0  0  0  0  0  0  0  0  0
   41.8120   27.3500   31.6580 C   0  0  0  0  0  0  0  0  0  0  0  0
   42.5250   26.1660   31.3540 C   0  0  0  0  0  0  0  0  0  0  0  0
   41.8890   25.0450   30.7980 C   0  0  0  0  0  0  0  0  0  0  0  0
   43.8840   26.3270   31.6970 O   0  0  0  0  0  0  0  0  0  0  0  0
   44.0860   27.7100   31.8390 C   0  0  0  0  0  0  0  0  0  0  0  0
   42.7890   28.2050   32.1710 O   0  0  0  0  0  0  0  0  0  0  0  0
   40.0200   24.3540   30.1520 H   0  0  0  0  0  0  0  0  0  0  0  0
   40.1480   28.3930   31.8070 H   0  0  0  0  0  0  0  0  0  0  0  0
   42.4280   24.1470   30.5670 H   0  0  0  0  0  0  0  0  0  0  0  0
   44.8380   27.9840   32.5850 H   0  0  0  0  0  0  0  0  0  0  0  0
   44.3160   28.1060   30.8070 H   0  0  0  0  0  0  0  0  0  0  0  0
   38.2160   25.7440   34.0570 C   0  0  0  0  0  0  0  0  0  0  0  0
   37.7330   25.4990   32.7550 C   0  0  0  0  0  0  0  0  0  0  0  0
   37.4140   24.2040   32.4270 C   0  0  0  0  0  0  0  0  0  0  0  0
   37.5810   23.2320   33.3810 N   0  0  0  0  0  0  0  0  0  0  0  0
   38.0390   23.4940   34.6070 C   0  0  0  0  0  0  0  0  0  0  0  0
   38.3610   24.7510   34.9580 N   0  0  0  0  0  0  0  0  0  0  0  0
   38.4570   26.7960   34.2640 H   0  0  0  0  0  0  0  0  0  0  0  0
   37.0420   23.9530   31.4500 H   0  0  0  0  0  0  0  0  0  0  0  0
   38.2110   22.4090   35.6340 C   0  0  0  0  0  3  0  0  0  0  0  0
   39.6150   22.1880   36.0490 C   0  0  0  0  0  2  0  0  0  0  0  0
   40.1440   23.0420   37.1460 C   0  0  0  0  0  2  0  0  0  0  0  0
   39.1590   23.1620   38.2990 C   0  0  0  0  0  2  0  0  0  0  0  0
   37.8880   23.7470   37.6790 C   0  0  0  0  0  2  0  0  0  0  0  0
   37.3080   22.7020   36.7770 C   0  0  0  0  0  2  0  0  0  0  0  0
  1  2  1  0  0  0  0
  1 30  1  0  0  0  0
  2  8  1  0  0  0  0
  2  7  1  0  0  0  0
  3  9  1  0  0  0  0
  3  2  1  0  0  0  0
  4 11  1  0  0  0  0
  4  3  1  0  0  0  0
  5  4  1  0  0  0  0
  5 12  1  0  0  0  0
  5  6  1  0  0  0  0
  6 14  1  6  0  0  0
  6 16  1  0  0  0  0
  6  1  1  0  0  0  0
 10  3  1  0  0  0  0
 13  5  1  0  0  0  0
 15 20  2  0  0  0  0
 15 16  1  0  0  0  0
 16 17  2  0  0  0  0
 17 18  1  0  0  0  0
 17 25  1  0  0  0  0
 18 23  1  0  0  0  0
 19 18  2  0  0  0  0
 19 21  1  0  0  0  0
 20 19  1  0  0  0  0
 21 22  1  0  0  0  0
 22 23  1  0  0  0  0
 22 27  1  0  0  0  0
 24 15  1  0  0  0  0
 26 20  1  0  0  0  0
 28 22  1  0  0  0  0
 29 35  1  0  0  0  0
 29 34  1  0  0  0  0
 30 29  2  0  0  0  0
 31 30  1  0  0  0  0
 31 32  2  0  0  0  0
 32 33  1  0  0  0  0
 33 34  2  0  0  0  0
 33 37  1  0  0  0  0
 36 31  1  0  0  0  0
 37 38  1  0  0  0  0
 37 42  1  0  0  0  0
 38 39  1  0  0  0  0
 39 40  1  0  0  0  0
 41 40  1  0  0  0  0
 42 41  1  0  0  0  0
M  END
>  <minimizedAffinity>
-5.42401886

$$$$

 OpenBabel03272508323D

 42 46  0  0  1  0  0  0  0  0999 V2000
   39.4540   26.1410   32.2470 N   0  0  0  0  0  0  0  0  0  0  0  0
   40.6590   26.4120   33.0040 C   0  0  0  0  0  0  0  0  0  0  0  0
   41.8280   25.6190   32.5470 C   0  0  0  0  0  0  0  0  0  0  0  0
   41.6520   25.2210   31.1690 N   0  0  0  0  0  0  0  0  0  0  0  0
   40.5650   24.2470   31.1430 C   0  0  0  0  0  0  0  0  0  0  0  0
   39.3040   25.0390   31.2770 C   0  0  1  0  0  0  0  0  0  0  0  0
   40.4400   26.1540   34.0610 H   0  0  0  0  0  0  0  0  0  0  0  0
   40.8890   27.5160   33.0250 H   0  0  0  0  0  0  0  0  0  0  0  0
   41.9920   24.6960   33.1590 H   0  0  0  0  0  0  0  0  0  0  0  0
   42.7460   26.2040   32.6180 H   0  0  0  0  0  0  0  0  0  0  0  0
   41.3360   26.0420   30.6340 H   0  0  0  0  0  0  0  0  0  0  0  0
   40.7430   23.5580   31.9920 H   0  0  0  0  0  0  0  0  0  0  0  0
   40.6040   23.7550   30.1550 H   0  0  0  0  0  0  0  0  0  0  0  0
   39.1060   25.5680   30.3160 H   0  0  0  0  0  0  0  0  0  0  0  0
   36.9480   24.2240   30.8230 C   0  0  0  0  0  0  0  0  0  0  0  0
   38.1270   24.1960   31.5690 C   0  0  0  0  0  0  0  0  0  0  0  0
   38.2580   23.3170   32.6280 C   0  0  0  0  0  0  0  0  0  0  0  0
   37.1990   22.4830   32.9030 C   0  0  0  0  0  0  0  0  0  0  0  0
   36.0090   22.5260   32.1390 C   0  0  0  0  0  0  0  0  0  0  0  0
   35.8560   23.4140   31.0630 C   0  0  0  0  0  0  0  0  0  0  0  0
   35.0880   21.5790   32.6370 O   0  0  0  0  0  0  0  0  0  0  0  0
   35.8340   20.6980   33.4360 C   0  0  0  0  0  0  0  0  0  0  0  0
   36.9540   21.4830   33.8470 O   0  0  0  0  0  0  0  0  0  0  0  0
   36.8580   24.9170   30.0020 H   0  0  0  0  0  0  0  0  0  0  0  0
   38.9880   23.1520   33.3810 H   0  0  0  0  0  0  0  0  0  0  0  0
   34.9540   23.4480   30.4830 H   0  0  0  0  0  0  0  0  0  0  0  0
   35.2850   20.2820   34.2870 H   0  0  0  0  0  0  0  0  0  0  0  0
   36.2460   19.9090   32.7410 H   0  0  0  0  0  0  0  0  0  0  0  0
   37.7000   27.0720   33.7010 C   0  0  0  0  0  0  0  0  0  0  0  0
   38.3240   26.9930   32.4380 C   0  0  0  0  0  0  0  0  0  0  0  0
   37.8140   27.7720   31.4270 C   0  0  0  0  0  0  0  0  0  0  0  0
   36.7380   28.5760   31.7050 N   0  0  0  0  0  0  0  0  0  0  0  0
   36.1700   28.6310   32.9120 C   0  0  0  0  0  0  0  0  0  0  0  0
   36.6450   27.8810   33.9220 N   0  0  0  0  0  0  0  0  0  0  0  0
   38.1480   26.4280   34.4710 H   0  0  0  0  0  0  0  0  0  0  0  0
   38.2440   27.7550   30.4420 H   0  0  0  0  0  0  0  0  0  0  0  0
   34.9910   29.5230   33.1890 C   0  0  0  0  0  3  0  0  0  0  0  0
   34.8560   29.9210   34.6090 C   0  0  0  0  0  2  0  0  0  0  0  0
   35.6190   31.1160   35.0560 C   0  0  0  0  0  2  0  0  0  0  0  0
   35.5060   32.2670   34.0670 C   0  0  0  0  0  2  0  0  0  0  0  0
   36.0380   31.7100   32.7450 C   0  0  0  0  0  2  0  0  0  0  0  0
   35.0590   30.6840   32.2650 C   0  0  0  0  0  2  0  0  0  0  0  0
  1 30  1  0  0  0  0
  1  2  1  0  0  0  0
  2  8  1  0  0  0  0
  2  7  1  0  0  0  0
  3 10  1  0  0  0  0
  3  2  1  0  0  0  0
  3  9  1  0  0  0  0
  4  3  1  0  0  0  0
  5  4  1  0  0  0  0
  5  6  1  0  0  0  0
  5 12  1  0  0  0  0
  6 14  1  6  0  0  0
  6 16  1  0  0  0  0
  6  1  1  0  0  0  0
 11  4  1  0  0  0  0
 13  5  1  0  0  0  0
 15 20  2  0  0  0  0
 15 16  1  0  0  0  0
 16 17  2  0  0  0  0
 17 18  1  0  0  0  0
 17 25  1  0  0  0  0
 18 23  1  0  0  0  0
 19 21  1  0  0  0  0
 19 18  2  0  0  0  0
 20 19  1  0  0  0  0
 21 22  1  0  0  0  0
 22 23  1  0  0  0  0
 22 27  1  0  0  0  0
 24 15  1  0  0  0  0
 26 20  1  0  0  0  0
 28 22  1  0  0  0  0
 29 34  1  0  0  0  0
 29 35  1  0  0  0  0
 30 29  2  0  0  0  0
 31 32  2  0  0  0  0
 31 30  1  0  0  0  0
 32 33  1  0  0  0  0
 33 37  1  0  0  0  0
 33 34  2  0  0  0  0
 36 31  1  0  0  0  0
 37 38  1  0  0  0  0
 38 39  1  0  0  0  0
 40 39  1  0  0  0  0
 41 40  1  0  0  0  0
 42 41  1  0  0  0  0
 42 37  1  0  0  0  0
M  END
>  <minimizedAffinity>
-5.41004229

$$$$
