
 OpenBabel03272506483D

 39 42  0  0  1  0  0  0  0  0999 V2000
   32.3470   28.5280   47.4180 C   0  0  2  0  0  0  0  0  0  0  0  0
   33.5580   28.4400   48.3010 C   0  0  1  0  0  0  0  0  0  0  0  0
   33.9910   27.1480   48.2920 O   0  0  0  0  0  0  0  0  0  0  0  0
   33.3580   26.4610   47.2620 C   0  0  0  0  0  0  0  0  0  0  0  0
   32.7610   27.4840   46.3330 C   0  0  1  0  0  0  0  0  0  0  0  0
   31.4100   28.2010   47.8550 H   0  0  0  0  0  0  0  0  0  0  0  0
   33.3020   28.8290   49.3080 H   0  0  0  0  0  0  0  0  0  0  0  0
   32.6820   25.7490   47.7050 H   0  0  0  0  0  0  0  0  0  0  0  0
   34.1580   25.8960   46.7080 H   0  0  0  0  0  0  0  0  0  0  0  0
   33.4820   27.9880   45.6980 H   0  0  0  0  0  0  0  0  0  0  0  0
   32.2620   29.8020   46.8170 O   0  0  0  0  0  0  0  0  0  0  0  0
   32.9520   29.8430   46.1180 H   0  0  0  0  0  0  0  0  0  0  0  0
   34.8690   29.4870   47.5510 S   0  0  0  0  0  0  0  0  0  0  0  0
   37.3270   29.3090   50.6530 C   0  0  0  0  0  0  0  0  0  0  0  0
   37.8150   30.6090   50.7990 C   0  0  0  0  0  0  0  0  0  0  0  0
   37.3690   31.5790   49.9050 C   0  0  0  0  0  0  0  0  0  0  0  0
   36.4810   31.2180   48.9350 N   0  0  0  0  0  0  0  0  0  0  0  0
   36.0330   29.9480   48.8270 C   0  0  0  0  0  0  0  0  0  0  0  0
   36.4480   28.9780   49.6820 N   0  0  0  0  0  0  0  0  0  0  0  0
   37.6990   28.6030   51.3610 H   0  0  0  0  0  0  0  0  0  0  0  0
   38.5250   30.8490   51.5920 H   0  0  0  0  0  0  0  0  0  0  0  0
   37.7320   32.5900   49.9990 H   0  0  0  0  0  0  0  0  0  0  0  0
   31.6550   26.9440   45.7230 O   0  0  0  0  0  0  0  0  0  0  0  0
   30.5480   29.0330   43.9680 Cl  0  0  0  0  0  0  0  0  0  0  0  0
   29.7620   28.1760   45.2720 C   0  0  0  0  0  0  0  0  0  0  0  0
   30.3860   27.2040   46.0190 C   0  0  0  0  0  0  0  0  0  0  0  0
   29.6450   26.5690   47.0190 C   0  0  0  0  0  0  0  0  0  0  0  0
   28.3290   26.9140   47.2430 C   0  0  0  0  0  0  0  0  0  0  0  0
   27.6940   27.8890   46.4970 C   0  0  0  0  0  0  0  0  0  0  0  0
   28.4320   28.5150   45.5100 C   0  0  0  0  0  0  0  0  0  0  0  0
   30.0520   25.7950   47.6460 H   0  0  0  0  0  0  0  0  0  0  0  0
   27.7190   26.4480   48.0050 H   0  0  0  0  0  0  0  0  0  0  0  0
   26.6600   28.1500   46.6840 H   0  0  0  0  0  0  0  0  0  0  0  0
   27.7540   29.5660   44.7050 C   0  0  0  0  0  3  0  0  0  0  0  0
   27.6470   30.8800   45.4220 C   0  0  0  0  0  2  0  0  0  0  0  0
   26.4020   31.6540   44.9840 C   0  0  0  0  0  2  0  0  0  0  0  0
   26.1190   31.4830   43.5170 C   0  0  0  0  0  2  0  0  0  0  0  0
   25.7790   30.0290   43.2690 C   0  0  0  0  0  2  0  0  0  0  0  0
   26.3540   29.1370   44.3380 C   0  0  0  0  0  2  0  0  0  0  0  0
  1  6  1  1  0  0  0
  1  2  1  0  0  0  0
  2  7  1  1  0  0  0
  3  2  1  0  0  0  0
  4  8  1  0  0  0  0
  4  3  1  0  0  0  0
  5 10  1  6  0  0  0
  5  4  1  0  0  0  0
  5  1  1  0  0  0  0
  9  4  1  0  0  0  0
 11  1  1  0  0  0  0
 12 11  1  0  0  0  0
 13  2  1  0  0  0  0
 13 18  1  0  0  0  0
 14 15  1  0  0  0  0
 14 20  1  0  0  0  0
 15 21  1  0  0  0  0
 16 22  1  0  0  0  0
 16 15  2  0  0  0  0
 17 16  1  0  0  0  0
 18 17  2  0  0  0  0
 18 19  1  0  0  0  0
 19 14  2  0  0  0  0
 23 26  1  0  0  0  0
 23  5  1  0  0  0  0
 24 25  1  0  0  0  0
 25 30  2  0  0  0  0
 25 26  1  0  0  0  0
 26 27  2  0  0  0  0
 27 28  1  0  0  0  0
 27 31  1  0  0  0  0
 28 32  1  0  0  0  0
 29 33  1  0  0  0  0
 29 28  2  0  0  0  0
 30 29  1  0  0  0  0
 34 35  1  0  0  0  0
 34 30  1  0  0  0  0
 36 35  1  0  0  0  0
 37 36  1  0  0  0  0
 38 37  1  0  0  0  0
 38 39  1  0  0  0  0
 39 34  1  0  0  0  0
M  END
>  <minimizedAffinity>
-5.1770072

>  <minimizedRMSD>
0.614462495

$$$$
