
 OpenBabel03272510023D

 18 19  0  0  0  0  0  0  0  0999 V2000
   37.7530   32.7180   49.5910 C   0  0  0  0  0  0  0  0  0  0  0  0
   38.6910   32.5080   48.5660 C   0  0  0  0  0  0  0  0  0  0  0  0
   38.4480   31.4980   47.6530 C   0  0  0  0  0  0  0  0  0  0  0  0
   37.3070   30.7490   47.7900 N   0  0  0  0  0  0  0  0  0  0  0  0
   36.4330   30.9860   48.7930 C   0  0  0  0  0  0  0  0  0  0  0  0
   36.6640   31.9610   49.6760 N   0  0  0  0  0  0  0  0  0  0  0  0
   37.8590   33.4830   50.3470 H   0  0  0  0  0  0  0  0  0  0  0  0
   39.5170   33.1720   48.6000 H   0  0  0  0  0  0  0  0  0  0  0  0
   39.4280   31.2940   46.5990 C   0  0  0  0  0  3  0  0  0  0  0  0
   39.0390   30.4340   45.4570 C   0  0  0  0  0  2  0  0  0  0  0  0
   38.8340   31.2110   44.1710 C   0  0  0  0  0  2  0  0  0  0  0  0
   40.1670   31.8300   43.8060 C   0  0  0  0  0  2  0  0  0  0  0  0
   40.8480   32.4670   44.9890 C   0  0  0  0  0  2  0  0  0  0  0  0
   39.7900   32.6770   46.0370 C   0  0  0  0  0  2  0  0  0  0  0  0
   35.2280   30.1310   48.8660 C   0  0  0  0  0  0  0  0  0  0  0  0
   34.4140   30.4340   49.9470 F   0  0  0  0  0  0  0  0  0  0  0  0
   34.4360   30.2770   47.7330 F   0  0  0  0  0  0  0  0  0  0  0  0
   35.5090   28.7870   48.9490 F   0  0  0  0  0  0  0  0  0  0  0  0
  1  6  1  0  0  0  0
  1  7  1  0  0  0  0
  2  8  1  0  0  0  0
  2  1  2  0  0  0  0
  3  4  2  0  0  0  0
  3  2  1  0  0  0  0
  4  5  1  0  0  0  0
  5 15  1  0  0  0  0
  5  6  2  0  0  0  0
  9  3  1  0  0  0  0
 10  9  1  0  0  0  0
 11 10  1  0  0  0  0
 12 11  1  0  0  0  0
 12 13  1  0  0  0  0
 13 14  1  0  0  0  0
 14  9  1  0  0  0  0
 15 18  1  0  0  0  0
 15 16  1  0  0  0  0
 17 15  1  0  0  0  0
M  END
>  <minimizedAffinity>
-5.72075224

>  <minimizedRMSD>
2.59182262

$$$$
