
 OpenBabel03272507453D

 30 32  0  0  0  0  0  0  0  0999 V2000
   37.4280   25.0740   32.6220 N   0  0  0  0  0  0  0  0  0  0  0  0
   36.1980   25.2010   31.8880 C   0  0  0  0  0  0  0  0  0  0  0  0
   35.6060   23.9730   31.3350 C   0  0  0  0  0  0  0  0  0  0  0  0
   36.4830   22.8210   31.0580 C   0  0  0  0  0  0  0  0  0  0  0  0
   37.7600   22.8080   31.8720 C   0  0  0  0  0  0  0  0  0  0  0  0
   38.3330   24.2230   31.8840 C   0  0  0  0  0  0  0  0  0  0  0  0
   35.4650   25.6600   32.6060 H   0  0  0  0  0  0  0  0  0  0  0  0
   36.3550   25.9770   31.1090 H   0  0  0  0  0  0  0  0  0  0  0  0
   34.7660   23.6060   31.9920 H   0  0  0  0  0  0  0  0  0  0  0  0
   35.0750   24.2420   30.3880 H   0  0  0  0  0  0  0  0  0  0  0  0
   36.7970   22.8250   29.9900 H   0  0  0  0  0  0  0  0  0  0  0  0
   38.5080   22.1340   31.4250 H   0  0  0  0  0  0  0  0  0  0  0  0
   37.5450   22.5850   32.9440 H   0  0  0  0  0  0  0  0  0  0  0  0
   38.4080   24.5160   30.8070 H   0  0  0  0  0  0  0  0  0  0  0  0
   39.3490   24.2350   32.3310 H   0  0  0  0  0  0  0  0  0  0  0  0
   37.6980   25.6970   33.8800 C   0  0  0  0  0  0  0  0  0  0  0  0
   37.5930   27.0840   34.1110 C   0  0  0  0  0  0  0  0  0  0  0  0
   37.8940   27.5320   35.4000 C   0  0  0  0  0  0  0  0  0  0  0  0
   38.2640   26.6170   36.3400 N   0  0  0  0  0  0  0  0  0  0  0  0
   38.3460   25.3140   36.0650 C   0  0  0  0  0  0  0  0  0  0  0  0
   38.0680   24.8550   34.8510 N   0  0  0  0  0  0  0  0  0  0  0  0
   37.2890   27.6970   33.2750 H   0  0  0  0  0  0  0  0  0  0  0  0
   37.8040   28.5990   35.5450 H   0  0  0  0  0  0  0  0  0  0  0  0
   38.6540   24.6690   36.8960 H   0  0  0  0  0  0  0  0  0  0  0  0
   35.7540   21.4950   31.2580 C   0  0  0  0  0  3  0  0  0  0  0  0
   35.0160   21.4110   32.5530 C   0  0  0  0  0  2  0  0  0  0  0  0
   35.5140   20.3010   33.4550 C   0  0  0  0  0  2  0  0  0  0  0  0
   35.5710   18.9600   32.7800 C   0  0  0  0  0  2  0  0  0  0  0  0
   35.9010   19.0700   31.3260 C   0  0  0  0  0  2  0  0  0  0  0  0
   36.6990   20.3320   31.0290 C   0  0  0  0  0  2  0  0  0  0  0  0
  1 16  1  0  0  0  0
  2  7  1  0  0  0  0
  2  1  1  0  0  0  0
  3  2  1  0  0  0  0
  3  9  1  0  0  0  0
  4 25  1  0  0  0  0
  4  3  1  0  0  0  0
  4  5  1  0  0  0  0
  5  6  1  0  0  0  0
  5 13  1  0  0  0  0
  6 15  1  0  0  0  0
  6  1  1  0  0  0  0
  8  2  1  0  0  0  0
 10  3  1  0  0  0  0
 11  4  1  0  0  0  0
 12  5  1  0  0  0  0
 14  6  1  0  0  0  0
 16 17  2  0  0  0  0
 16 21  1  0  0  0  0
 17 18  1  0  0  0  0
 18 23  1  0  0  0  0
 18 19  2  0  0  0  0
 20 19  1  0  0  0  0
 20 24  1  0  0  0  0
 21 20  2  0  0  0  0
 22 17  1  0  0  0  0
 25 26  1  0  0  0  0
 26 27  1  0  0  0  0
 28 27  1  0  0  0  0
 29 28  1  0  0  0  0
 30 25  1  0  0  0  0
 30 29  1  0  0  0  0
M  END
>  <minimizedAffinity>
-5.38566923

$$$$

 OpenBabel03272507453D

 30 32  0  0  0  0  0  0  0  0999 V2000
   38.7870   24.0000   34.6310 N   0  0  0  0  0  0  0  0  0  0  0  0
   37.9330   24.8790   33.8780 C   0  0  0  0  0  0  0  0  0  0  0  0
   37.3080   24.3400   32.6600 C   0  0  0  0  0  0  0  0  0  0  0  0
   37.9530   23.2100   31.9670 C   0  0  0  0  0  0  0  0  0  0  0  0
   38.8480   22.3720   32.8560 C   0  0  0  0  0  0  0  0  0  0  0  0
   39.6780   23.3140   33.7230 C   0  0  0  0  0  0  0  0  0  0  0  0
   37.1210   25.1920   34.5890 H   0  0  0  0  0  0  0  0  0  0  0  0
   38.5080   25.8080   33.6760 H   0  0  0  0  0  0  0  0  0  0  0  0
   36.2370   24.0460   32.8600 H   0  0  0  0  0  0  0  0  0  0  0  0
   37.1970   25.1790   31.9290 H   0  0  0  0  0  0  0  0  0  0  0  0
   38.5990   23.5840   31.1420 H   0  0  0  0  0  0  0  0  0  0  0  0
   39.5350   21.7550   32.2560 H   0  0  0  0  0  0  0  0  0  0  0  0
   38.2420   21.7820   33.5840 H   0  0  0  0  0  0  0  0  0  0  0  0
   40.1720   24.0130   33.0030 H   0  0  0  0  0  0  0  0  0  0  0  0
   40.4610   22.7560   34.2760 H   0  0  0  0  0  0  0  0  0  0  0  0
   38.7490   23.8420   36.0510 C   0  0  0  0  0  0  0  0  0  0  0  0
   37.7740   24.4280   36.8830 C   0  0  0  0  0  0  0  0  0  0  0  0
   37.8800   24.1740   38.2530 C   0  0  0  0  0  0  0  0  0  0  0  0
   38.9030   23.3900   38.6950 N   0  0  0  0  0  0  0  0  0  0  0  0
   39.7990   22.8590   37.8610 C   0  0  0  0  0  0  0  0  0  0  0  0
   39.7270   23.0810   36.5540 N   0  0  0  0  0  0  0  0  0  0  0  0
   37.0170   25.0300   36.4010 H   0  0  0  0  0  0  0  0  0  0  0  0
   37.1180   24.6380   38.8640 H   0  0  0  0  0  0  0  0  0  0  0  0
   40.5780   22.2450   38.3240 H   0  0  0  0  0  0  0  0  0  0  0  0
   36.9270   22.3000   31.2950 C   0  0  0  0  0  3  0  0  0  0  0  0
   35.5580   22.4150   31.8780 C   0  0  0  0  0  2  0  0  0  0  0  0
   35.0530   21.1210   32.4820 C   0  0  0  0  0  2  0  0  0  0  0  0
   35.1440   19.9480   31.5460 C   0  0  0  0  0  2  0  0  0  0  0  0
   36.3220   20.0430   30.6300 C   0  0  0  0  0  2  0  0  0  0  0  0
   37.4400   20.8750   31.2430 C   0  0  0  0  0  2  0  0  0  0  0  0
  1 16  1  0  0  0  0
  2  7  1  0  0  0  0
  2  1  1  0  0  0  0
  3  9  1  0  0  0  0
  3  2  1  0  0  0  0
  4  3  1  0  0  0  0
  4  5  1  0  0  0  0
  5 13  1  0  0  0  0
  5  6  1  0  0  0  0
  6 15  1  0  0  0  0
  6  1  1  0  0  0  0
  8  2  1  0  0  0  0
 10  3  1  0  0  0  0
 11  4  1  0  0  0  0
 12  5  1  0  0  0  0
 14  6  1  0  0  0  0
 16 21  2  0  0  0  0
 16 17  1  0  0  0  0
 17 18  2  0  0  0  0
 18 19  1  0  0  0  0
 18 23  1  0  0  0  0
 20 24  1  0  0  0  0
 20 19  2  0  0  0  0
 21 20  1  0  0  0  0
 22 17  1  0  0  0  0
 25 26  1  0  0  0  0
 25  4  1  0  0  0  0
 26 27  1  0  0  0  0
 28 27  1  0  0  0  0
 29 30  1  0  0  0  0
 29 28  1  0  0  0  0
 30 25  1  0  0  0  0
M  END
>  <minimizedAffinity>
-5.05113888

$$$$

 OpenBabel03272507453D

 30 32  0  0  0  0  0  0  0  0999 V2000
   36.7530   23.7720   30.9490 N   0  0  0  0  0  0  0  0  0  0  0  0
   38.0480   24.2730   30.5760 C   0  0  0  0  0  0  0  0  0  0  0  0
   38.4990   25.5260   31.2030 C   0  0  0  0  0  0  0  0  0  0  0  0
   37.4900   26.4720   31.7110 C   0  0  0  0  0  0  0  0  0  0  0  0
   36.1590   25.8330   32.0470 C   0  0  0  0  0  0  0  0  0  0  0  0
   35.8010   24.8590   30.9280 C   0  0  0  0  0  0  0  0  0  0  0  0
   38.7750   23.4580   30.8410 H   0  0  0  0  0  0  0  0  0  0  0  0
   38.0750   24.3290   29.4670 H   0  0  0  0  0  0  0  0  0  0  0  0
   39.2160   25.3120   32.0470 H   0  0  0  0  0  0  0  0  0  0  0  0
   39.1450   26.0670   30.4680 H   0  0  0  0  0  0  0  0  0  0  0  0
   37.2740   27.2520   30.9470 H   0  0  0  0  0  0  0  0  0  0  0  0
   35.3620   26.5910   32.1160 H   0  0  0  0  0  0  0  0  0  0  0  0
   36.2440   25.1940   32.9570 H   0  0  0  0  0  0  0  0  0  0  0  0
   35.8640   25.4600   29.9870 H   0  0  0  0  0  0  0  0  0  0  0  0
   34.7630   24.4840   31.0450 H   0  0  0  0  0  0  0  0  0  0  0  0
   36.4690   22.4120   31.2860 C   0  0  0  0  0  0  0  0  0  0  0  0
   35.3450   22.0030   32.0310 C   0  0  0  0  0  0  0  0  0  0  0  0
   35.2140   20.6340   32.2740 C   0  0  0  0  0  0  0  0  0  0  0  0
   36.1650   19.7890   31.7840 N   0  0  0  0  0  0  0  0  0  0  0  0
   37.2100   20.2320   31.0830 C   0  0  0  0  0  0  0  0  0  0  0  0
   37.3650   21.5270   30.8350 N   0  0  0  0  0  0  0  0  0  0  0  0
   34.6680   22.7780   32.3600 H   0  0  0  0  0  0  0  0  0  0  0  0
   34.3420   20.3520   32.8480 H   0  0  0  0  0  0  0  0  0  0  0  0
   37.9140   19.4660   30.7380 H   0  0  0  0  0  0  0  0  0  0  0  0
   37.9960   27.2360   32.9330 C   0  0  0  0  0  3  0  0  0  0  0  0
   39.4490   27.0250   33.2060 C   0  0  0  0  0  2  0  0  0  0  0  0
   39.7190   26.3830   34.5500 C   0  0  0  0  0  2  0  0  0  0  0  0
   39.0530   27.0900   35.6970 C   0  0  0  0  0  2  0  0  0  0  0  0
   37.7430   27.6960   35.3050 C   0  0  0  0  0  2  0  0  0  0  0  0
   37.1130   26.9570   34.1330 C   0  0  0  0  0  2  0  0  0  0  0  0
  1 16  1  0  0  0  0
  2  7  1  0  0  0  0
  2  1  1  0  0  0  0
  2  3  1  0  0  0  0
  3  4  1  0  0  0  0
  3  9  1  0  0  0  0
  4  5  1  0  0  0  0
  4 25  1  0  0  0  0
  5 12  1  0  0  0  0
  5 13  1  0  0  0  0
  6  1  1  0  0  0  0
  6 15  1  0  0  0  0
  6  5  1  0  0  0  0
  8  2  1  0  0  0  0
 10  3  1  0  0  0  0
 11  4  1  0  0  0  0
 14  6  1  0  0  0  0
 16 17  1  0  0  0  0
 17 18  2  0  0  0  0
 17 22  1  0  0  0  0
 18 23  1  0  0  0  0
 19 18  1  0  0  0  0
 20 19  2  0  0  0  0
 21 20  1  0  0  0  0
 21 16  2  0  0  0  0
 24 20  1  0  0  0  0
 25 26  1  0  0  0  0
 25 30  1  0  0  0  0
 26 27  1  0  0  0  0
 27 28  1  0  0  0  0
 29 28  1  0  0  0  0
 30 29  1  0  0  0  0
M  END
>  <minimizedAffinity>
-5.02058792

$$$$

 OpenBabel03272507453D

 30 32  0  0  0  0  0  0  0  0999 V2000
   36.5750   25.6120   31.6530 N   0  0  0  0  0  0  0  0  0  0  0  0
   35.4690   24.8810   31.0950 C   0  0  0  0  0  0  0  0  0  0  0  0
   35.5400   23.4110   31.1300 C   0  0  0  0  0  0  0  0  0  0  0  0
   36.8620   22.7630   31.1960 C   0  0  0  0  0  0  0  0  0  0  0  0
   37.9510   23.6390   31.7780 C   0  0  0  0  0  0  0  0  0  0  0  0
   37.8120   25.0350   31.1780 C   0  0  0  0  0  0  0  0  0  0  0  0
   34.5660   25.2100   31.6760 H   0  0  0  0  0  0  0  0  0  0  0  0
   35.3020   25.2660   30.0670 H   0  0  0  0  0  0  0  0  0  0  0  0
   34.9220   23.0050   31.9820 H   0  0  0  0  0  0  0  0  0  0  0  0
   35.0040   23.0180   30.2320 H   0  0  0  0  0  0  0  0  0  0  0  0
   37.2040   22.4820   30.1750 H   0  0  0  0  0  0  0  0  0  0  0  0
   38.9500   23.2500   31.5250 H   0  0  0  0  0  0  0  0  0  0  0  0
   37.7970   23.7880   32.8730 H   0  0  0  0  0  0  0  0  0  0  0  0
   37.8100   24.8780   30.0710 H   0  0  0  0  0  0  0  0  0  0  0  0
   38.6800   25.6710   31.4500 H   0  0  0  0  0  0  0  0  0  0  0  0
   36.4530   26.7310   32.5350 C   0  0  0  0  0  0  0  0  0  0  0  0
   37.0430   26.7950   33.8130 C   0  0  0  0  0  0  0  0  0  0  0  0
   36.8260   27.9620   34.5490 C   0  0  0  0  0  0  0  0  0  0  0  0
   36.0680   28.9510   33.9980 N   0  0  0  0  0  0  0  0  0  0  0  0
   35.5330   28.8370   32.7810 C   0  0  0  0  0  0  0  0  0  0  0  0
   35.7200   27.7420   32.0550 N   0  0  0  0  0  0  0  0  0  0  0  0
   37.6200   25.9380   34.1280 H   0  0  0  0  0  0  0  0  0  0  0  0
   37.2920   27.9810   35.5250 H   0  0  0  0  0  0  0  0  0  0  0  0
   34.9420   29.6930   32.4370 H   0  0  0  0  0  0  0  0  0  0  0  0
   36.8090   21.4510   31.9770 C   0  0  0  0  0  3  0  0  0  0  0  0
   37.0950   20.2480   31.1400 C   0  0  0  0  0  2  0  0  0  0  0  0
   35.9380   19.2740   31.0770 C   0  0  0  0  0  2  0  0  0  0  0  0
   35.4130   18.8770   32.4280 C   0  0  0  0  0  2  0  0  0  0  0  0
   35.5230   19.9860   33.4270 C   0  0  0  0  0  2  0  0  0  0  0  0
   35.5100   21.3490   32.7500 C   0  0  0  0  0  2  0  0  0  0  0  0
  1 16  1  0  0  0  0
  2  3  1  0  0  0  0
  2  1  1  0  0  0  0
  2  7  1  0  0  0  0
  3  4  1  0  0  0  0
  3  9  1  0  0  0  0
  4  5  1  0  0  0  0
  4 25  1  0  0  0  0
  5 13  1  0  0  0  0
  6 15  1  0  0  0  0
  6  1  1  0  0  0  0
  6  5  1  0  0  0  0
  8  2  1  0  0  0  0
 10  3  1  0  0  0  0
 11  4  1  0  0  0  0
 12  5  1  0  0  0  0
 14  6  1  0  0  0  0
 16 17  1  0  0  0  0
 17 22  1  0  0  0  0
 17 18  2  0  0  0  0
 18 23  1  0  0  0  0
 19 18  1  0  0  0  0
 20 19  2  0  0  0  0
 21 16  2  0  0  0  0
 21 20  1  0  0  0  0
 24 20  1  0  0  0  0
 25 30  1  0  0  0  0
 26 25  1  0  0  0  0
 27 26  1  0  0  0  0
 27 28  1  0  0  0  0
 28 29  1  0  0  0  0
 30 29  1  0  0  0  0
M  END
>  <minimizedAffinity>
-5.00227976

$$$$

 OpenBabel03272507453D

 30 32  0  0  0  0  0  0  0  0999 V2000
   37.9030   26.7460   33.1650 N   0  0  0  0  0  0  0  0  0  0  0  0
   37.5610   25.4430   32.6600 C   0  0  0  0  0  0  0  0  0  0  0  0
   37.9620   24.2770   33.4620 C   0  0  0  0  0  0  0  0  0  0  0  0
   39.1060   24.4050   34.3840 C   0  0  0  0  0  0  0  0  0  0  0  0
   39.3840   25.8260   34.8280 C   0  0  0  0  0  0  0  0  0  0  0  0
   39.2780   26.7360   33.6070 C   0  0  0  0  0  0  0  0  0  0  0  0
   36.4410   25.4420   32.5620 H   0  0  0  0  0  0  0  0  0  0  0  0
   37.9380   25.3820   31.6170 H   0  0  0  0  0  0  0  0  0  0  0  0
   37.0890   23.8860   34.0600 H   0  0  0  0  0  0  0  0  0  0  0  0
   38.1740   23.4320   32.7610 H   0  0  0  0  0  0  0  0  0  0  0  0
   40.0380   24.0450   33.8940 H   0  0  0  0  0  0  0  0  0  0  0  0
   40.4000   25.9190   35.2430 H   0  0  0  0  0  0  0  0  0  0  0  0
   38.5860   26.1900   35.5170 H   0  0  0  0  0  0  0  0  0  0  0  0
   39.9650   26.2860   32.8470 H   0  0  0  0  0  0  0  0  0  0  0  0
   39.6290   27.7610   33.8460 H   0  0  0  0  0  0  0  0  0  0  0  0
   37.0120   27.8630   33.2140 C   0  0  0  0  0  0  0  0  0  0  0  0
   36.3730   28.3100   34.3890 C   0  0  0  0  0  0  0  0  0  0  0  0
   35.5310   29.4180   34.2650 C   0  0  0  0  0  0  0  0  0  0  0  0
   35.3790   29.9890   33.0370 N   0  0  0  0  0  0  0  0  0  0  0  0
   36.0100   29.5240   31.9570 C   0  0  0  0  0  0  0  0  0  0  0  0
   36.8170   28.4730   32.0400 N   0  0  0  0  0  0  0  0  0  0  0  0
   36.5820   27.7640   35.2970 H   0  0  0  0  0  0  0  0  0  0  0  0
   35.0560   29.7360   35.1830 H   0  0  0  0  0  0  0  0  0  0  0  0
   35.8150   30.0590   31.0220 H   0  0  0  0  0  0  0  0  0  0  0  0
   38.9350   23.5240   35.6200 C   0  0  0  0  0  3  0  0  0  0  0  0
   37.7260   23.8600   36.4280 C   0  0  0  0  0  2  0  0  0  0  0  0
   38.0520   24.3090   37.8370 C   0  0  0  0  0  2  0  0  0  0  0  0
   38.9470   23.3560   38.5780 C   0  0  0  0  0  2  0  0  0  0  0  0
   39.9170   22.6680   37.6710 C   0  0  0  0  0  2  0  0  0  0  0  0
   40.2140   23.5030   36.4340 C   0  0  0  0  0  2  0  0  0  0  0  0
  1 16  1  0  0  0  0
  1  6  1  0  0  0  0
  2  1  1  0  0  0  0
  2  3  1  0  0  0  0
  3  9  1  0  0  0  0
  3  4  1  0  0  0  0
  4  5  1  0  0  0  0
  4 25  1  0  0  0  0
  5 12  1  0  0  0  0
  5 13  1  0  0  0  0
  6 15  1  0  0  0  0
  6  5  1  0  0  0  0
  7  2  1  0  0  0  0
  8  2  1  0  0  0  0
 10  3  1  0  0  0  0
 11  4  1  0  0  0  0
 14  6  1  0  0  0  0
 16 17  1  0  0  0  0
 17 22  1  0  0  0  0
 18 17  2  0  0  0  0
 18 23  1  0  0  0  0
 19 18  1  0  0  0  0
 20 21  1  0  0  0  0
 20 19  2  0  0  0  0
 21 16  2  0  0  0  0
 24 20  1  0  0  0  0
 25 26  1  0  0  0  0
 25 30  1  0  0  0  0
 26 27  1  0  0  0  0
 27 28  1  0  0  0  0
 29 28  1  0  0  0  0
 30 29  1  0  0  0  0
M  END
>  <minimizedAffinity>
-4.91702271

$$$$

 OpenBabel03272507453D

 30 32  0  0  0  0  0  0  0  0999 V2000
   38.9270   22.3160   34.2410 N   0  0  0  0  0  0  0  0  0  0  0  0
   39.7980   22.8500   33.2290 C   0  0  0  0  0  0  0  0  0  0  0  0
   39.1730   23.4020   32.0160 C   0  0  0  0  0  0  0  0  0  0  0  0
   37.8360   22.9230   31.6230 C   0  0  0  0  0  0  0  0  0  0  0  0
   37.0210   22.3600   32.7690 C   0  0  0  0  0  0  0  0  0  0  0  0
   37.9330   21.4750   33.6140 C   0  0  0  0  0  0  0  0  0  0  0  0
   40.3820   23.6670   33.7340 H   0  0  0  0  0  0  0  0  0  0  0  0
   40.5500   22.0680   32.9920 H   0  0  0  0  0  0  0  0  0  0  0  0
   39.1260   24.5280   32.0710 H   0  0  0  0  0  0  0  0  0  0  0  0
   39.8700   23.2290   31.1590 H   0  0  0  0  0  0  0  0  0  0  0  0
   37.9240   22.1050   30.8750 H   0  0  0  0  0  0  0  0  0  0  0  0
   36.1870   21.7430   32.3960 H   0  0  0  0  0  0  0  0  0  0  0  0
   36.6980   23.1720   33.4620 H   0  0  0  0  0  0  0  0  0  0  0  0
   38.3850   20.7490   32.8930 H   0  0  0  0  0  0  0  0  0  0  0  0
   37.3490   20.9130   34.3710 H   0  0  0  0  0  0  0  0  0  0  0  0
   39.0410   22.5830   35.6410 C   0  0  0  0  0  0  0  0  0  0  0  0
   40.2030   22.3360   36.3980 C   0  0  0  0  0  0  0  0  0  0  0  0
   40.1480   22.6530   37.7580 C   0  0  0  0  0  0  0  0  0  0  0  0
   38.9930   23.1710   38.2620 N   0  0  0  0  0  0  0  0  0  0  0  0
   37.9210   23.3850   37.4970 C   0  0  0  0  0  0  0  0  0  0  0  0
   37.9400   23.0950   36.2020 N   0  0  0  0  0  0  0  0  0  0  0  0
   41.0510   21.9210   35.8720 H   0  0  0  0  0  0  0  0  0  0  0  0
   41.0550   22.4520   38.3120 H   0  0  0  0  0  0  0  0  0  0  0  0
   37.0470   23.8050   38.0070 H   0  0  0  0  0  0  0  0  0  0  0  0
   37.0260   24.0170   30.9290 C   0  0  0  0  0  3  0  0  0  0  0  0
   37.6900   25.3540   30.9530 C   0  0  0  0  0  2  0  0  0  0  0  0
   36.8890   26.4080   31.6890 C   0  0  0  0  0  2  0  0  0  0  0  0
   35.4680   26.5200   31.2140 C   0  0  0  0  0  2  0  0  0  0  0  0
   34.9130   25.2050   30.7670 C   0  0  0  0  0  2  0  0  0  0  0  0
   35.6070   24.0420   31.4610 C   0  0  0  0  0  2  0  0  0  0  0  0
  1 16  1  0  0  0  0
  2  7  1  0  0  0  0
  2  1  1  0  0  0  0
  3  9  1  0  0  0  0
  3  2  1  0  0  0  0
  4  3  1  0  0  0  0
  4  5  1  0  0  0  0
  5 13  1  0  0  0  0
  5  6  1  0  0  0  0
  6  1  1  0  0  0  0
  6 15  1  0  0  0  0
  8  2  1  0  0  0  0
 10  3  1  0  0  0  0
 11  4  1  0  0  0  0
 12  5  1  0  0  0  0
 14  6  1  0  0  0  0
 16 21  2  0  0  0  0
 16 17  1  0  0  0  0
 17 18  2  0  0  0  0
 18 19  1  0  0  0  0
 18 23  1  0  0  0  0
 20 24  1  0  0  0  0
 20 19  2  0  0  0  0
 21 20  1  0  0  0  0
 22 17  1  0  0  0  0
 25 26  1  0  0  0  0
 25 30  1  0  0  0  0
 25  4  1  0  0  0  0
 26 27  1  0  0  0  0
 28 27  1  0  0  0  0
 29 28  1  0  0  0  0
 29 30  1  0  0  0  0
M  END
>  <minimizedAffinity>
-4.80868053

$$$$

 OpenBabel03272507453D

 30 32  0  0  0  0  0  0  0  0999 V2000
   36.3970   28.0920   31.9560 N   0  0  0  0  0  0  0  0  0  0  0  0
   36.2060   28.5660   33.3010 C   0  0  0  0  0  0  0  0  0  0  0  0
   36.8440   27.8060   34.3870 C   0  0  0  0  0  0  0  0  0  0  0  0
   37.1530   26.3800   34.1730 C   0  0  0  0  0  0  0  0  0  0  0  0
   37.3080   25.9940   32.7170 C   0  0  0  0  0  0  0  0  0  0  0  0
   36.1870   26.6620   31.9250 C   0  0  0  0  0  0  0  0  0  0  0  0
   36.6110   29.6140   33.3110 H   0  0  0  0  0  0  0  0  0  0  0  0
   35.1130   28.6820   33.4590 H   0  0  0  0  0  0  0  0  0  0  0  0
   37.7960   28.3110   34.7190 H   0  0  0  0  0  0  0  0  0  0  0  0
   36.1950   27.8880   35.2940 H   0  0  0  0  0  0  0  0  0  0  0  0
   36.3350   25.7440   34.5770 H   0  0  0  0  0  0  0  0  0  0  0  0
   37.2240   24.9040   32.5850 H   0  0  0  0  0  0  0  0  0  0  0  0
   38.2450   26.4230   32.2900 H   0  0  0  0  0  0  0  0  0  0  0  0
   35.2430   26.3600   32.4440 H   0  0  0  0  0  0  0  0  0  0  0  0
   36.1590   26.2850   30.8820 H   0  0  0  0  0  0  0  0  0  0  0  0
   36.7400   28.9160   30.8390 C   0  0  0  0  0  0  0  0  0  0  0  0
   36.5360   30.3100   30.7980 C   0  0  0  0  0  0  0  0  0  0  0  0
   36.9270   30.9680   29.6290 C   0  0  0  0  0  0  0  0  0  0  0  0
   37.4700   30.2360   28.6170 N   0  0  0  0  0  0  0  0  0  0  0  0
   37.6400   28.9160   28.7110 C   0  0  0  0  0  0  0  0  0  0  0  0
   37.2800   28.2600   29.8070 N   0  0  0  0  0  0  0  0  0  0  0  0
   36.0940   30.7660   31.6710 H   0  0  0  0  0  0  0  0  0  0  0  0
   36.7580   32.0360   29.6270 H   0  0  0  0  0  0  0  0  0  0  0  0
   38.0870   28.4280   27.8370 H   0  0  0  0  0  0  0  0  0  0  0  0
   38.4070   25.9550   34.9340 C   0  0  0  0  0  3  0  0  0  0  0  0
   39.3740   27.0700   35.1590 C   0  0  0  0  0  2  0  0  0  0  0  0
   40.7200   26.8360   34.5060 C   0  0  0  0  0  2  0  0  0  0  0  0
   41.3350   25.5110   34.8580 C   0  0  0  0  0  2  0  0  0  0  0  0
   40.3060   24.4450   35.0640 C   0  0  0  0  0  2  0  0  0  0  0  0
   39.0340   24.7390   34.2820 C   0  0  0  0  0  2  0  0  0  0  0  0
  1  2  1  0  0  0  0
  2  7  1  0  0  0  0
  2  8  1  0  0  0  0
  2  3  1  0  0  0  0
  3  9  1  0  0  0  0
  3 10  1  0  0  0  0
  4  3  1  0  0  0  0
  4 11  1  0  0  0  0
  4 25  1  0  0  0  0
  5  4  1  0  0  0  0
  6  1  1  0  0  0  0
  6 14  1  0  0  0  0
  6  5  1  0  0  0  0
 12  5  1  0  0  0  0
 13  5  1  0  0  0  0
 15  6  1  0  0  0  0
 16  1  1  0  0  0  0
 17 16  1  0  0  0  0
 17 22  1  0  0  0  0
 18 17  2  0  0  0  0
 19 20  2  0  0  0  0
 19 18  1  0  0  0  0
 20 21  1  0  0  0  0
 21 16  2  0  0  0  0
 23 18  1  0  0  0  0
 24 20  1  0  0  0  0
 25 26  1  0  0  0  0
 27 28  1  0  0  0  0
 27 26  1  0  0  0  0
 28 29  1  0  0  0  0
 30 25  1  0  0  0  0
 30 29  1  0  0  0  0
M  END
>  <minimizedAffinity>
-4.74949646

$$$$

 OpenBabel03272507453D

 30 32  0  0  0  0  0  0  0  0999 V2000
   37.5610   26.9460   32.7230 N   0  0  0  0  0  0  0  0  0  0  0  0
   37.1500   27.6140   33.9290 C   0  0  0  0  0  0  0  0  0  0  0  0
   37.4040   26.9290   35.2060 C   0  0  0  0  0  0  0  0  0  0  0  0
   37.5310   25.4600   35.2140 C   0  0  0  0  0  0  0  0  0  0  0  0
   37.9450   24.8690   33.8830 C   0  0  0  0  0  0  0  0  0  0  0  0
   37.1460   25.5630   32.7830 C   0  0  0  0  0  0  0  0  0  0  0  0
   37.6980   28.5940   33.9330 H   0  0  0  0  0  0  0  0  0  0  0  0
   36.0800   27.8870   33.8080 H   0  0  0  0  0  0  0  0  0  0  0  0
   38.3240   27.3490   35.7050 H   0  0  0  0  0  0  0  0  0  0  0  0
   36.5900   27.2120   35.9180 H   0  0  0  0  0  0  0  0  0  0  0  0
   36.5550   24.9910   35.4710 H   0  0  0  0  0  0  0  0  0  0  0  0
   37.7260   23.7900   33.8430 H   0  0  0  0  0  0  0  0  0  0  0  0
   39.0090   25.1160   33.6530 H   0  0  0  0  0  0  0  0  0  0  0  0
   36.0750   25.4540   33.0880 H   0  0  0  0  0  0  0  0  0  0  0  0
   37.2940   25.0580   31.8060 H   0  0  0  0  0  0  0  0  0  0  0  0
   38.2670   27.5660   31.6450 C   0  0  0  0  0  0  0  0  0  0  0  0
   39.6020   27.2690   31.3050 C   0  0  0  0  0  0  0  0  0  0  0  0
   40.1460   27.9660   30.2230 C   0  0  0  0  0  0  0  0  0  0  0  0
   39.3660   28.8750   29.5730 N   0  0  0  0  0  0  0  0  0  0  0  0
   38.1050   29.1160   29.9390 C   0  0  0  0  0  0  0  0  0  0  0  0
   37.5590   28.4720   30.9630 N   0  0  0  0  0  0  0  0  0  0  0  0
   40.1070   26.5260   31.9050 H   0  0  0  0  0  0  0  0  0  0  0  0
   41.1710   27.7170   29.9860 H   0  0  0  0  0  0  0  0  0  0  0  0
   37.5710   29.8670   29.3470 H   0  0  0  0  0  0  0  0  0  0  0  0
   38.5020   24.9830   36.2920 C   0  0  0  0  0  3  0  0  0  0  0  0
   39.7190   24.3150   35.7430 C   0  0  0  0  0  2  0  0  0  0  0  0
   39.8560   22.8700   36.1770 C   0  0  0  0  0  2  0  0  0  0  0  0
   39.7610   22.6800   37.6650 C   0  0  0  0  0  2  0  0  0  0  0  0
   38.8340   23.6640   38.3050 C   0  0  0  0  0  2  0  0  0  0  0  0
   37.7740   24.1490   37.3270 C   0  0  0  0  0  2  0  0  0  0  0  0
  1  6  1  0  0  0  0
  1  2  1  0  0  0  0
  2  7  1  0  0  0  0
  2  3  1  0  0  0  0
  3  4  1  0  0  0  0
  3  9  1  0  0  0  0
  3 10  1  0  0  0  0
  4 11  1  0  0  0  0
  4 25  1  0  0  0  0
  5  4  1  0  0  0  0
  6 14  1  0  0  0  0
  6  5  1  0  0  0  0
  8  2  1  0  0  0  0
 12  5  1  0  0  0  0
 13  5  1  0  0  0  0
 15  6  1  0  0  0  0
 16  1  1  0  0  0  0
 17 16  1  0  0  0  0
 17 22  1  0  0  0  0
 18 17  2  0  0  0  0
 19 20  2  0  0  0  0
 19 18  1  0  0  0  0
 20 21  1  0  0  0  0
 21 16  2  0  0  0  0
 23 18  1  0  0  0  0
 24 20  1  0  0  0  0
 25 30  1  0  0  0  0
 26 27  1  0  0  0  0
 26 25  1  0  0  0  0
 27 28  1  0  0  0  0
 28 29  1  0  0  0  0
 30 29  1  0  0  0  0
M  END
>  <minimizedAffinity>
-4.67386007

$$$$

 OpenBabel03272507453D

 30 32  0  0  0  0  0  0  0  0999 V2000
   38.5170   24.3900   35.2990 N   0  0  0  0  0  0  0  0  0  0  0  0
   37.9390   24.0200   34.0340 C   0  0  0  0  0  0  0  0  0  0  0  0
   37.6060   25.1030   33.0960 C   0  0  0  0  0  0  0  0  0  0  0  0
   37.3450   26.4520   33.6290 C   0  0  0  0  0  0  0  0  0  0  0  0
   37.9840   26.7180   34.9760 C   0  0  0  0  0  0  0  0  0  0  0  0
   37.7650   25.4910   35.8570 C   0  0  0  0  0  0  0  0  0  0  0  0
   38.6910   23.3420   33.5460 H   0  0  0  0  0  0  0  0  0  0  0  0
   37.0650   23.3680   34.2470 H   0  0  0  0  0  0  0  0  0  0  0  0
   38.4030   25.2010   32.3040 H   0  0  0  0  0  0  0  0  0  0  0  0
   36.7120   24.7840   32.5040 H   0  0  0  0  0  0  0  0  0  0  0  0
   36.2520   26.6070   33.7690 H   0  0  0  0  0  0  0  0  0  0  0  0
   37.5210   27.5870   35.4700 H   0  0  0  0  0  0  0  0  0  0  0  0
   39.0920   26.7990   34.8810 H   0  0  0  0  0  0  0  0  0  0  0  0
   36.6620   25.3070   35.8340 H   0  0  0  0  0  0  0  0  0  0  0  0
   38.0730   25.6950   36.9040 H   0  0  0  0  0  0  0  0  0  0  0  0
   39.6530   23.7590   35.8940 C   0  0  0  0  0  0  0  0  0  0  0  0
   39.5800   22.8830   36.9960 C   0  0  0  0  0  0  0  0  0  0  0  0
   40.7860   22.3510   37.4580 C   0  0  0  0  0  0  0  0  0  0  0  0
   41.9410   22.7060   36.8280 N   0  0  0  0  0  0  0  0  0  0  0  0
   41.9510   23.5410   35.7880 C   0  0  0  0  0  0  0  0  0  0  0  0
   40.8230   24.0640   35.3230 N   0  0  0  0  0  0  0  0  0  0  0  0
   38.5980   22.6870   37.4010 H   0  0  0  0  0  0  0  0  0  0  0  0
   40.6980   21.6830   38.3030 H   0  0  0  0  0  0  0  0  0  0  0  0
   42.9360   23.7570   35.3580 H   0  0  0  0  0  0  0  0  0  0  0  0
   37.7830   27.5400   32.6500 C   0  0  0  0  0  3  0  0  0  0  0  0
   36.6930   28.4970   32.2970 C   0  0  0  0  0  2  0  0  0  0  0  0
   36.3480   28.4940   30.8220 C   0  0  0  0  0  2  0  0  0  0  0  0
   37.5400   28.6820   29.9270 C   0  0  0  0  0  2  0  0  0  0  0  0
   38.7810   28.0740   30.4990 C   0  0  0  0  0  2  0  0  0  0  0  0
   38.4550   26.9220   31.4400 C   0  0  0  0  0  2  0  0  0  0  0  0
  1  6  1  0  0  0  0
  1 16  1  0  0  0  0
  2  8  1  0  0  0  0
  2  1  1  0  0  0  0
  3  4  1  0  0  0  0
  3  2  1  0  0  0  0
  4 11  1  0  0  0  0
  4  5  1  0  0  0  0
  5 12  1  0  0  0  0
  5  6  1  0  0  0  0
  6 15  1  0  0  0  0
  7  2  1  0  0  0  0
  9  3  1  0  0  0  0
 10  3  1  0  0  0  0
 13  5  1  0  0  0  0
 14  6  1  0  0  0  0
 16 17  1  0  0  0  0
 17 22  1  0  0  0  0
 17 18  2  0  0  0  0
 18 23  1  0  0  0  0
 19 18  1  0  0  0  0
 20 19  2  0  0  0  0
 21 20  1  0  0  0  0
 21 16  2  0  0  0  0
 24 20  1  0  0  0  0
 25  4  1  0  0  0  0
 26 25  1  0  0  0  0
 27 26  1  0  0  0  0
 28 29  1  0  0  0  0
 28 27  1  0  0  0  0
 29 30  1  0  0  0  0
 30 25  1  0  0  0  0
M  END
>  <minimizedAffinity>
-4.671

$$$$
