
 OpenBabel03272508453D

 24 26  0  0  0  0  0  0  0  0999 V2000
   35.7370   30.0080   50.0170 C   0  0  0  0  0  0  0  0  0  0  0  0
   36.5000   29.7110   51.1370 C   0  0  0  0  0  0  0  0  0  0  0  0
   37.6760   30.4110   50.9120 C   0  0  0  0  0  0  0  0  0  0  0  0
   37.5800   31.0740   49.7140 C   0  0  0  0  0  0  0  0  0  0  0  0
   36.3960   30.8120   49.1960 O   0  0  0  0  0  0  0  0  0  0  0  0
   36.2670   29.0980   51.9830 H   0  0  0  0  0  0  0  0  0  0  0  0
   38.5560   30.4440   51.5670 H   0  0  0  0  0  0  0  0  0  0  0  0
   38.5890   31.9450   49.0620 C   0  0  0  0  0  0  0  0  0  0  0  0
   38.4070   33.3850   49.4830 C   0  0  0  0  0  0  0  0  0  0  0  0
   39.5810   34.1850   48.9740 C   0  0  0  0  0  0  0  0  0  0  0  0
   39.7900   34.0380   47.4920 C   0  0  0  0  0  0  0  0  0  0  0  0
   39.5910   32.6610   46.9700 C   0  0  0  0  0  0  0  0  0  0  0  0
   38.4250   31.9200   47.5550 C   0  0  0  0  0  0  0  0  0  0  0  0
   34.3760   29.4850   49.7970 C   0  0  0  0  0  0  0  0  0  0  0  0
   33.5250   29.6510   50.6970 O   0  0  0  0  0  0  0  0  0  0  0  0
   33.8210   26.7770   47.4370 C   0  0  0  0  0  0  0  0  0  0  0  0
   33.4940   27.4470   46.2440 C   0  0  0  0  0  0  0  0  0  0  0  0
   33.4620   28.8370   46.2430 C   0  0  0  0  0  0  0  0  0  0  0  0
   33.7550   29.4550   47.4170 N   0  0  0  0  0  0  0  0  0  0  0  0
   34.0630   28.7940   48.5420 C   0  0  0  0  0  0  0  0  0  0  0  0
   34.0950   27.4590   48.5460 N   0  0  0  0  0  0  0  0  0  0  0  0
   33.8630   25.6990   47.5060 H   0  0  0  0  0  0  0  0  0  0  0  0
   33.2830   26.8570   45.3850 H   0  0  0  0  0  0  0  0  0  0  0  0
   33.2140   29.3730   45.3400 H   0  0  0  0  0  0  0  0  0  0  0  0
  1  2  2  0  0  0  0
  2  6  1  0  0  0  0
  3  2  1  0  0  0  0
  3  7  1  0  0  0  0
  4  3  2  0  0  0  0
  5  4  1  0  0  0  0
  5  1  1  0  0  0  0
  8  9  1  0  0  0  0
  8  4  1  0  0  0  0
 10  9  1  0  0  0  0
 11 10  1  0  0  0  0
 12 11  1  0  0  0  0
 12 13  1  0  0  0  0
 13  8  1  0  0  0  0
 14  1  1  0  0  0  0
 14 15  2  0  0  0  0
 16 22  1  0  0  0  0
 16 21  1  0  0  0  0
 17 16  2  0  0  0  0
 18 17  1  0  0  0  0
 18 19  2  0  0  0  0
 19 20  1  0  0  0  0
 20 21  2  0  0  0  0
 20 14  1  0  0  0  0
 23 17  1  0  0  0  0
 24 18  1  0  0  0  0
M  END
>  <minimizedAffinity>
-5.89834166

>  <minimizedRMSD>
2.30636692

$$$$
