
 OpenBabel03272503183D

 22 24  0  0  0  0  0  0  0  0999 V2000
   38.2010   25.6610   35.4040 C   0  0  0  0  0  0  0  0  0  0  0  0
   37.7390   26.8920   35.6450 C   0  0  0  0  0  0  0  0  0  0  0  0
   37.3360   27.6980   34.6510 C   0  0  0  0  0  0  0  0  0  0  0  0
   37.4230   27.1840   33.3620 C   0  0  0  0  0  0  0  0  0  0  0  0
   38.1080   25.5020   33.6730 S   0  0  0  0  0  0  0  0  0  0  0  0
   37.6970   27.2390   36.6930 H   0  0  0  0  0  0  0  0  0  0  0  0
   36.9470   28.7030   34.7100 H   0  0  0  0  0  0  0  0  0  0  0  0
   38.6590   23.3530   38.3350 C   0  0  0  0  0  0  0  0  0  0  0  0
   38.0900   24.3740   37.5530 C   0  0  0  0  0  0  0  0  0  0  0  0
   38.6870   24.6260   36.3230 C   0  0  0  0  0  0  0  0  0  0  0  0
   39.7550   23.9050   35.9380 N   0  0  0  0  0  0  0  0  0  0  0  0
   40.2780   22.9350   36.7060 C   0  0  0  0  0  0  0  0  0  0  0  0
   39.7310   22.6630   37.8960 N   0  0  0  0  0  0  0  0  0  0  0  0
   38.1820   23.1660   39.2950 H   0  0  0  0  0  0  0  0  0  0  0  0
   37.2350   24.9650   37.8380 H   0  0  0  0  0  0  0  0  0  0  0  0
   41.1380   22.3780   36.3600 H   0  0  0  0  0  0  0  0  0  0  0  0
   37.1350   27.6060   31.9830 C   0  0  0  0  0  3  0  0  0  0  0  0
   36.2840   28.8420   31.8750 C   0  0  0  0  0  2  0  0  0  0  0  0
   36.8330   29.8410   30.8800 C   0  0  0  0  0  2  0  0  0  0  0  0
   37.0550   29.1400   29.5770 C   0  0  0  0  0  2  0  0  0  0  0  0
   38.0500   28.0220   29.7700 C   0  0  0  0  0  2  0  0  0  0  0  0
   38.4230   27.8550   31.2340 C   0  0  0  0  0  2  0  0  0  0  0  0
  1  2  2  0  0  0  0
  1 10  1  0  0  0  0
  2  6  1  0  0  0  0
  3  7  1  0  0  0  0
  3  2  1  0  0  0  0
  4  5  1  0  0  0  0
  4  3  2  0  0  0  0
  5  1  1  0  0  0  0
  8 14  1  0  0  0  0
  9 15  1  0  0  0  0
  9  8  2  0  0  0  0
 10  9  1  0  0  0  0
 11 10  2  0  0  0  0
 11 12  1  0  0  0  0
 12 13  2  0  0  0  0
 13  8  1  0  0  0  0
 16 12  1  0  0  0  0
 17  4  1  0  0  0  0
 18 17  1  0  0  0  0
 19 18  1  0  0  0  0
 20 21  1  0  0  0  0
 20 19  1  0  0  0  0
 21 22  1  0  0  0  0
 22 17  1  0  0  0  0
M  END
>  <minimizedAffinity>
-4.85482883

$$$$

 OpenBabel03272503183D

 22 24  0  0  0  0  0  0  0  0999 V2000
   38.1890   25.0460   34.8610 C   0  0  0  0  0  0  0  0  0  0  0  0
   37.8590   24.5710   33.6560 C   0  0  0  0  0  0  0  0  0  0  0  0
   37.5450   25.3910   32.6400 C   0  0  0  0  0  0  0  0  0  0  0  0
   37.5830   26.7540   32.9090 C   0  0  0  0  0  0  0  0  0  0  0  0
   38.0890   26.7750   34.6810 S   0  0  0  0  0  0  0  0  0  0  0  0
   37.8480   23.4760   33.5100 H   0  0  0  0  0  0  0  0  0  0  0  0
   37.2640   25.1390   31.6300 H   0  0  0  0  0  0  0  0  0  0  0  0
   39.8690   22.8440   37.4030 C   0  0  0  0  0  0  0  0  0  0  0  0
   39.6210   23.4470   36.1560 C   0  0  0  0  0  0  0  0  0  0  0  0
   38.5620   24.3450   36.0950 C   0  0  0  0  0  0  0  0  0  0  0  0
   37.8340   24.5970   37.1970 N   0  0  0  0  0  0  0  0  0  0  0  0
   38.0940   24.0070   38.3760 C   0  0  0  0  0  0  0  0  0  0  0  0
   39.1050   23.1370   38.4750 N   0  0  0  0  0  0  0  0  0  0  0  0
   40.7010   22.1440   37.4380 H   0  0  0  0  0  0  0  0  0  0  0  0
   40.1890   23.2620   35.2590 H   0  0  0  0  0  0  0  0  0  0  0  0
   37.4840   24.2370   39.2390 H   0  0  0  0  0  0  0  0  0  0  0  0
   37.3470   28.0250   32.2090 C   0  0  0  0  0  3  0  0  0  0  0  0
   38.0450   28.1430   30.8810 C   0  0  0  0  0  2  0  0  0  0  0  0
   37.1350   28.6580   29.7890 C   0  0  0  0  0  2  0  0  0  0  0  0
   36.5030   29.9310   30.2580 C   0  0  0  0  0  2  0  0  0  0  0  0
   35.6940   29.6610   31.5030 C   0  0  0  0  0  2  0  0  0  0  0  0
   35.8680   28.2290   31.9810 C   0  0  0  0  0  2  0  0  0  0  0  0
  1 10  1  0  0  0  0
  2  1  2  0  0  0  0
  3  4  2  0  0  0  0
  3  2  1  0  0  0  0
  4  5  1  0  0  0  0
  5  1  1  0  0  0  0
  6  2  1  0  0  0  0
  7  3  1  0  0  0  0
  8 14  1  0  0  0  0
  8 13  1  0  0  0  0
  9  8  2  0  0  0  0
 10  9  1  0  0  0  0
 10 11  2  0  0  0  0
 11 12  1  0  0  0  0
 12 13  2  0  0  0  0
 12 16  1  0  0  0  0
 15  9  1  0  0  0  0
 17  4  1  0  0  0  0
 18 17  1  0  0  0  0
 19 20  1  0  0  0  0
 19 18  1  0  0  0  0
 20 21  1  0  0  0  0
 21 22  1  0  0  0  0
 22 17  1  0  0  0  0
M  END
>  <minimizedAffinity>
-4.7901845

$$$$

 OpenBabel03272503183D

 22 24  0  0  0  0  0  0  0  0999 V2000
   37.0490   26.8980   33.0820 C   0  0  0  0  0  0  0  0  0  0  0  0
   37.2540   25.6360   32.6900 C   0  0  0  0  0  0  0  0  0  0  0  0
   37.8130   24.7290   33.5070 C   0  0  0  0  0  0  0  0  0  0  0  0
   38.1650   25.1720   34.7770 C   0  0  0  0  0  0  0  0  0  0  0  0
   37.6480   26.9400   34.7160 S   0  0  0  0  0  0  0  0  0  0  0  0
   36.9510   25.3500   31.6670 H   0  0  0  0  0  0  0  0  0  0  0  0
   38.0310   23.6900   33.3160 H   0  0  0  0  0  0  0  0  0  0  0  0
   36.3000   29.5940   30.5730 C   0  0  0  0  0  0  0  0  0  0  0  0
   36.9570   28.4920   31.1490 C   0  0  0  0  0  0  0  0  0  0  0  0
   36.4630   28.0360   32.3670 C   0  0  0  0  0  0  0  0  0  0  0  0
   35.4070   28.6480   32.9310 N   0  0  0  0  0  0  0  0  0  0  0  0
   34.7980   29.6990   32.3560 C   0  0  0  0  0  0  0  0  0  0  0  0
   35.2440   30.1670   31.1860 N   0  0  0  0  0  0  0  0  0  0  0  0
   36.6960   29.9410   29.6200 H   0  0  0  0  0  0  0  0  0  0  0  0
   37.8040   27.9850   30.7180 H   0  0  0  0  0  0  0  0  0  0  0  0
   33.9510   30.1630   32.8440 H   0  0  0  0  0  0  0  0  0  0  0  0
   38.7740   24.6380   36.0040 C   0  0  0  0  0  3  0  0  0  0  0  0
   37.9930   24.9180   37.2590 C   0  0  0  0  0  2  0  0  0  0  0  0
   37.8400   23.6950   38.1340 C   0  0  0  0  0  2  0  0  0  0  0  0
   39.1970   23.1130   38.3810 C   0  0  0  0  0  2  0  0  0  0  0  0
   39.8200   22.7170   37.0640 C   0  0  0  0  0  2  0  0  0  0  0  0
   38.9560   23.1430   35.8880 C   0  0  0  0  0  2  0  0  0  0  0  0
  1  5  1  0  0  0  0
  2  1  2  0  0  0  0
  2  3  1  0  0  0  0
  3  4  2  0  0  0  0
  4 17  1  0  0  0  0
  5  4  1  0  0  0  0
  6  2  1  0  0  0  0
  7  3  1  0  0  0  0
  8  9  2  0  0  0  0
  8 13  1  0  0  0  0
  9 10  1  0  0  0  0
 10 11  2  0  0  0  0
 10  1  1  0  0  0  0
 12 16  1  0  0  0  0
 12 11  1  0  0  0  0
 13 12  2  0  0  0  0
 14  8  1  0  0  0  0
 15  9  1  0  0  0  0
 17 18  1  0  0  0  0
 18 19  1  0  0  0  0
 19 20  1  0  0  0  0
 21 20  1  0  0  0  0
 22 17  1  0  0  0  0
 22 21  1  0  0  0  0
M  END
>  <minimizedAffinity>
-4.77214622

$$$$

 OpenBabel03272503183D

 22 24  0  0  0  0  0  0  0  0999 V2000
   38.0660   25.2780   35.0270 C   0  0  0  0  0  0  0  0  0  0  0  0
   37.8170   25.0540   33.7330 C   0  0  0  0  0  0  0  0  0  0  0  0
   37.2610   25.9940   32.9520 C   0  0  0  0  0  0  0  0  0  0  0  0
   36.9600   27.2070   33.5600 C   0  0  0  0  0  0  0  0  0  0  0  0
   37.5190   26.9090   35.2910 S   0  0  0  0  0  0  0  0  0  0  0  0
   38.0800   24.0670   33.3120 H   0  0  0  0  0  0  0  0  0  0  0  0
   37.0110   25.9410   31.9040 H   0  0  0  0  0  0  0  0  0  0  0  0
   38.7610   23.3740   38.1920 C   0  0  0  0  0  0  0  0  0  0  0  0
   38.0900   24.2360   37.3070 C   0  0  0  0  0  0  0  0  0  0  0  0
   38.6570   24.4090   36.0500 C   0  0  0  0  0  0  0  0  0  0  0  0
   39.7950   23.7640   35.7360 N   0  0  0  0  0  0  0  0  0  0  0  0
   40.4150   22.9450   36.6020 C   0  0  0  0  0  0  0  0  0  0  0  0
   39.9000   22.7540   37.8200 N   0  0  0  0  0  0  0  0  0  0  0  0
   38.3070   23.2470   39.1730 H   0  0  0  0  0  0  0  0  0  0  0  0
   37.1780   24.7630   37.5350 H   0  0  0  0  0  0  0  0  0  0  0  0
   41.3290   22.4450   36.3090 H   0  0  0  0  0  0  0  0  0  0  0  0
   36.3760   28.5080   33.2020 C   0  0  0  0  0  3  0  0  0  0  0  0
   35.2410   28.4300   32.2160 C   0  0  0  0  0  2  0  0  0  0  0  0
   34.0520   29.2670   32.6310 C   0  0  0  0  0  2  0  0  0  0  0  0
   34.5250   30.6610   32.9040 C   0  0  0  0  0  2  0  0  0  0  0  0
   35.5390   30.6370   34.0210 C   0  0  0  0  0  2  0  0  0  0  0  0
   35.8760   29.2150   34.4390 C   0  0  0  0  0  2  0  0  0  0  0  0
  1  5  1  0  0  0  0
  1 10  1  0  0  0  0
  2  1  2  0  0  0  0
  3  4  2  0  0  0  0
  3  2  1  0  0  0  0
  4  5  1  0  0  0  0
  6  2  1  0  0  0  0
  7  3  1  0  0  0  0
  8 14  1  0  0  0  0
  9 15  1  0  0  0  0
  9  8  2  0  0  0  0
 10  9  1  0  0  0  0
 11 10  2  0  0  0  0
 11 12  1  0  0  0  0
 12 13  2  0  0  0  0
 13  8  1  0  0  0  0
 16 12  1  0  0  0  0
 17  4  1  0  0  0  0
 17 22  1  0  0  0  0
 18 19  1  0  0  0  0
 18 17  1  0  0  0  0
 19 20  1  0  0  0  0
 20 21  1  0  0  0  0
 21 22  1  0  0  0  0
M  END
>  <minimizedAffinity>
-4.72851276

$$$$

 OpenBabel03272503183D

 22 24  0  0  0  0  0  0  0  0999 V2000
   38.1080   24.6880   34.6930 C   0  0  0  0  0  0  0  0  0  0  0  0
   38.2060   24.1370   33.4790 C   0  0  0  0  0  0  0  0  0  0  0  0
   37.8100   24.7910   32.3760 C   0  0  0  0  0  0  0  0  0  0  0  0
   37.2950   26.0690   32.5650 C   0  0  0  0  0  0  0  0  0  0  0  0
   37.4180   26.2580   34.3940 S   0  0  0  0  0  0  0  0  0  0  0  0
   38.6240   23.1170   33.4000 H   0  0  0  0  0  0  0  0  0  0  0  0
   37.8350   24.4630   31.3490 H   0  0  0  0  0  0  0  0  0  0  0  0
   39.7770   22.8630   37.5230 C   0  0  0  0  0  0  0  0  0  0  0  0
   39.5380   23.2890   36.2050 C   0  0  0  0  0  0  0  0  0  0  0  0
   38.4730   24.1630   36.0130 C   0  0  0  0  0  0  0  0  0  0  0  0
   37.7350   24.5580   37.0650 N   0  0  0  0  0  0  0  0  0  0  0  0
   37.9880   24.1350   38.3150 C   0  0  0  0  0  0  0  0  0  0  0  0
   39.0020   23.2930   38.5390 N   0  0  0  0  0  0  0  0  0  0  0  0
   40.6130   22.1790   37.6590 H   0  0  0  0  0  0  0  0  0  0  0  0
   40.1140   22.9880   35.3450 H   0  0  0  0  0  0  0  0  0  0  0  0
   37.3690   24.4760   39.1350 H   0  0  0  0  0  0  0  0  0  0  0  0
   36.7450   27.1680   31.7580 C   0  0  0  0  0  3  0  0  0  0  0  0
   35.8690   28.1230   32.5240 C   0  0  0  0  0  2  0  0  0  0  0  0
   36.2020   29.5710   32.2430 C   0  0  0  0  0  2  0  0  0  0  0  0
   36.1850   29.7850   30.7620 C   0  0  0  0  0  2  0  0  0  0  0  0
   37.2180   28.8940   30.1140 C   0  0  0  0  0  2  0  0  0  0  0  0
   37.8640   27.9620   31.1260 C   0  0  0  0  0  2  0  0  0  0  0  0
  1 10  1  0  0  0  0
  2  1  2  0  0  0  0
  3  4  2  0  0  0  0
  3  2  1  0  0  0  0
  4  5  1  0  0  0  0
  5  1  1  0  0  0  0
  6  2  1  0  0  0  0
  7  3  1  0  0  0  0
  8 14  1  0  0  0  0
  8 13  1  0  0  0  0
  9  8  2  0  0  0  0
 10  9  1  0  0  0  0
 10 11  2  0  0  0  0
 11 12  1  0  0  0  0
 12 13  2  0  0  0  0
 12 16  1  0  0  0  0
 15  9  1  0  0  0  0
 17 18  1  0  0  0  0
 17  4  1  0  0  0  0
 19 18  1  0  0  0  0
 20 19  1  0  0  0  0
 21 20  1  0  0  0  0
 21 22  1  0  0  0  0
 22 17  1  0  0  0  0
M  END
>  <minimizedAffinity>
-4.69084549

$$$$

 OpenBabel03272503183D

 22 24  0  0  0  0  0  0  0  0999 V2000
   36.8360   26.1360   32.0310 C   0  0  0  0  0  0  0  0  0  0  0  0
   37.7170   25.7040   32.9390 C   0  0  0  0  0  0  0  0  0  0  0  0
   37.8310   24.4020   33.2430 C   0  0  0  0  0  0  0  0  0  0  0  0
   36.9860   23.5300   32.5660 C   0  0  0  0  0  0  0  0  0  0  0  0
   36.0400   24.6860   31.4860 S   0  0  0  0  0  0  0  0  0  0  0  0
   38.3590   26.4500   33.4410 H   0  0  0  0  0  0  0  0  0  0  0  0
   38.4950   23.9270   33.9490 H   0  0  0  0  0  0  0  0  0  0  0  0
   36.7040   29.3070   30.0180 C   0  0  0  0  0  0  0  0  0  0  0  0
   37.0620   27.9910   30.3600 C   0  0  0  0  0  0  0  0  0  0  0  0
   36.5460   27.4910   31.5500 C   0  0  0  0  0  0  0  0  0  0  0  0
   35.7470   28.2620   32.3080 N   0  0  0  0  0  0  0  0  0  0  0  0
   35.4200   29.5170   31.9570 C   0  0  0  0  0  0  0  0  0  0  0  0
   35.8980   30.0330   30.8190 N   0  0  0  0  0  0  0  0  0  0  0  0
   37.1150   29.6860   29.0850 H   0  0  0  0  0  0  0  0  0  0  0  0
   37.7000   27.3530   29.7700 H   0  0  0  0  0  0  0  0  0  0  0  0
   34.7740   30.1040   32.5950 H   0  0  0  0  0  0  0  0  0  0  0  0
   36.7000   22.0890   32.5090 C   0  0  0  0  0  3  0  0  0  0  0  0
   36.8130   21.3800   33.8320 C   0  0  0  0  0  2  0  0  0  0  0  0
   35.6380   20.4680   34.1050 C   0  0  0  0  0  2  0  0  0  0  0  0
   35.4670   19.5500   32.9360 C   0  0  0  0  0  2  0  0  0  0  0  0
   35.1970   20.3630   31.6930 C   0  0  0  0  0  2  0  0  0  0  0  0
   35.3100   21.8530   31.9670 C   0  0  0  0  0  2  0  0  0  0  0  0
  1  2  2  0  0  0  0
  2  3  1  0  0  0  0
  2  6  1  0  0  0  0
  3  7  1  0  0  0  0
  4  3  2  0  0  0  0
  5  1  1  0  0  0  0
  5  4  1  0  0  0  0
  8  9  2  0  0  0  0
  8 13  1  0  0  0  0
  9 10  1  0  0  0  0
 10  1  1  0  0  0  0
 10 11  2  0  0  0  0
 12 11  1  0  0  0  0
 12 16  1  0  0  0  0
 13 12  2  0  0  0  0
 14  8  1  0  0  0  0
 15  9  1  0  0  0  0
 17  4  1  0  0  0  0
 17 18  1  0  0  0  0
 18 19  1  0  0  0  0
 20 19  1  0  0  0  0
 21 22  1  0  0  0  0
 21 20  1  0  0  0  0
 22 17  1  0  0  0  0
M  END
>  <minimizedAffinity>
-4.67156458

$$$$

 OpenBabel03272503183D

 22 24  0  0  0  0  0  0  0  0999 V2000
   36.3080   28.0120   32.6750 C   0  0  0  0  0  0  0  0  0  0  0  0
   35.8500   29.1420   32.1270 C   0  0  0  0  0  0  0  0  0  0  0  0
   35.4970   30.1950   32.8800 C   0  0  0  0  0  0  0  0  0  0  0  0
   35.6320   30.0470   34.2560 C   0  0  0  0  0  0  0  0  0  0  0  0
   36.2880   28.3300   34.3860 S   0  0  0  0  0  0  0  0  0  0  0  0
   35.7660   29.1940   31.0260 H   0  0  0  0  0  0  0  0  0  0  0  0
   35.1170   31.1550   32.5660 H   0  0  0  0  0  0  0  0  0  0  0  0
   38.3620   25.1590   31.3470 C   0  0  0  0  0  0  0  0  0  0  0  0
   38.0830   26.3880   31.9690 C   0  0  0  0  0  0  0  0  0  0  0  0
   36.7450   26.7580   32.0530 C   0  0  0  0  0  0  0  0  0  0  0  0
   35.7950   25.9490   31.5500 N   0  0  0  0  0  0  0  0  0  0  0  0
   36.0910   24.7780   30.9610 C   0  0  0  0  0  0  0  0  0  0  0  0
   37.3670   24.3890   30.8620 N   0  0  0  0  0  0  0  0  0  0  0  0
   39.4130   24.8810   31.2880 H   0  0  0  0  0  0  0  0  0  0  0  0
   38.8250   27.0540   32.3790 H   0  0  0  0  0  0  0  0  0  0  0  0
   35.2970   24.1570   30.5690 H   0  0  0  0  0  0  0  0  0  0  0  0
   35.4080   30.8310   35.4790 C   0  0  0  0  0  3  0  0  0  0  0  0
   36.2270   32.0900   35.5700 C   0  0  0  0  0  2  0  0  0  0  0  0
   35.4060   33.2900   35.9860 C   0  0  0  0  0  2  0  0  0  0  0  0
   34.6720   32.9500   37.2460 C   0  0  0  0  0  2  0  0  0  0  0  0
   33.7580   31.7760   36.9930 C   0  0  0  0  0  2  0  0  0  0  0  0
   33.9500   31.2100   35.5960 C   0  0  0  0  0  2  0  0  0  0  0  0
  1  5  1  0  0  0  0
  2  1  2  0  0  0  0
  2  3  1  0  0  0  0
  3  4  2  0  0  0  0
  4  5  1  0  0  0  0
  4 17  1  0  0  0  0
  6  2  1  0  0  0  0
  7  3  1  0  0  0  0
  8  9  1  0  0  0  0
  9 10  2  0  0  0  0
  9 15  1  0  0  0  0
 10  1  1  0  0  0  0
 11 10  1  0  0  0  0
 12 11  2  0  0  0  0
 13 12  1  0  0  0  0
 13  8  2  0  0  0  0
 14  8  1  0  0  0  0
 16 12  1  0  0  0  0
 17 18  1  0  0  0  0
 17 22  1  0  0  0  0
 18 19  1  0  0  0  0
 19 20  1  0  0  0  0
 21 20  1  0  0  0  0
 22 21  1  0  0  0  0
M  END
>  <minimizedAffinity>
-4.63985777

$$$$

 OpenBabel03272503183D

 22 24  0  0  0  0  0  0  0  0999 V2000
   36.4390   29.3550   32.1290 C   0  0  0  0  0  0  0  0  0  0  0  0
   36.1900   28.5750   33.1860 C   0  0  0  0  0  0  0  0  0  0  0  0
   35.5520   29.0440   34.2700 C   0  0  0  0  0  0  0  0  0  0  0  0
   35.1640   30.3780   34.2320 C   0  0  0  0  0  0  0  0  0  0  0  0
   35.7670   30.8990   32.5700 S   0  0  0  0  0  0  0  0  0  0  0  0
   36.5270   27.5240   33.1510 H   0  0  0  0  0  0  0  0  0  0  0  0
   35.2920   28.5250   35.1790 H   0  0  0  0  0  0  0  0  0  0  0  0
   37.6660   29.4520   28.5780 C   0  0  0  0  0  0  0  0  0  0  0  0
   36.9650   29.8530   29.7290 C   0  0  0  0  0  0  0  0  0  0  0  0
   37.1110   29.0570   30.8590 C   0  0  0  0  0  0  0  0  0  0  0  0
   37.8950   27.9660   30.8120 N   0  0  0  0  0  0  0  0  0  0  0  0
   38.5550   27.6070   29.6980 C   0  0  0  0  0  0  0  0  0  0  0  0
   38.4380   28.3470   28.5900 N   0  0  0  0  0  0  0  0  0  0  0  0
   37.5430   30.0830   27.7000 H   0  0  0  0  0  0  0  0  0  0  0  0
   36.3310   30.7230   29.7920 H   0  0  0  0  0  0  0  0  0  0  0  0
   39.1750   26.7210   29.7010 H   0  0  0  0  0  0  0  0  0  0  0  0
   34.4750   31.3530   35.0900 C   0  0  0  0  0  3  0  0  0  0  0  0
   33.1350   30.8950   35.5990 C   0  0  0  0  0  2  0  0  0  0  0  0
   32.9600   31.1440   37.0810 C   0  0  0  0  0  2  0  0  0  0  0  0
   33.2560   32.5840   37.3600 C   0  0  0  0  0  2  0  0  0  0  0  0
   34.6790   32.8900   36.9620 C   0  0  0  0  0  2  0  0  0  0  0  0
   35.3360   31.7000   36.2820 C   0  0  0  0  0  2  0  0  0  0  0  0
  1  5  1  0  0  0  0
  1  2  2  0  0  0  0
  2  3  1  0  0  0  0
  3  7  1  0  0  0  0
  4  3  2  0  0  0  0
  4 17  1  0  0  0  0
  5  4  1  0  0  0  0
  6  2  1  0  0  0  0
  8 13  2  0  0  0  0
  8  9  1  0  0  0  0
  9 15  1  0  0  0  0
  9 10  2  0  0  0  0
 10  1  1  0  0  0  0
 11 10  1  0  0  0  0
 12 16  1  0  0  0  0
 12 11  2  0  0  0  0
 13 12  1  0  0  0  0
 14  8  1  0  0  0  0
 17 18  1  0  0  0  0
 17 22  1  0  0  0  0
 18 19  1  0  0  0  0
 19 20  1  0  0  0  0
 21 20  1  0  0  0  0
 22 21  1  0  0  0  0
M  END
>  <minimizedAffinity>
-4.59790373

$$$$

 OpenBabel03272503183D

 22 24  0  0  0  0  0  0  0  0999 V2000
   37.1550   27.4930   34.2900 C   0  0  0  0  0  0  0  0  0  0  0  0
   37.7880   27.6540   35.4570 C   0  0  0  0  0  0  0  0  0  0  0  0
   38.5620   26.6880   35.9750 C   0  0  0  0  0  0  0  0  0  0  0  0
   38.6710   25.5170   35.2340 C   0  0  0  0  0  0  0  0  0  0  0  0
   37.6080   25.8920   33.7760 S   0  0  0  0  0  0  0  0  0  0  0  0
   37.6580   28.6100   35.9950 H   0  0  0  0  0  0  0  0  0  0  0  0
   39.1210   26.6910   36.8980 H   0  0  0  0  0  0  0  0  0  0  0  0
   35.5020   29.5330   31.6010 C   0  0  0  0  0  0  0  0  0  0  0  0
   36.4160   28.6390   32.1860 C   0  0  0  0  0  0  0  0  0  0  0  0
   36.2730   28.4010   33.5480 C   0  0  0  0  0  0  0  0  0  0  0  0
   35.2940   29.0150   34.2350 N   0  0  0  0  0  0  0  0  0  0  0  0
   34.4330   29.8640   33.6490 C   0  0  0  0  0  0  0  0  0  0  0  0
   34.5390   30.1190   32.3410 N   0  0  0  0  0  0  0  0  0  0  0  0
   35.6240   29.7110   30.5340 H   0  0  0  0  0  0  0  0  0  0  0  0
   37.2090   28.1350   31.6580 H   0  0  0  0  0  0  0  0  0  0  0  0
   33.6590   30.3380   34.2380 H   0  0  0  0  0  0  0  0  0  0  0  0
   39.3450   24.2130   35.3220 C   0  0  0  0  0  3  0  0  0  0  0  0
   40.8020   24.2400   34.9430 C   0  0  0  0  0  2  0  0  0  0  0  0
   41.6740   23.5030   35.9350 C   0  0  0  0  0  2  0  0  0  0  0  0
   41.1210   22.1260   36.1250 C   0  0  0  0  0  2  0  0  0  0  0  0
   39.7140   22.2200   36.6630 C   0  0  0  0  0  2  0  0  0  0  0  0
   39.2350   23.6610   36.7230 C   0  0  0  0  0  2  0  0  0  0  0  0
  1  2  2  0  0  0  0
  2  3  1  0  0  0  0
  2  6  1  0  0  0  0
  3  7  1  0  0  0  0
  4 17  1  0  0  0  0
  4  3  2  0  0  0  0
  5  1  1  0  0  0  0
  5  4  1  0  0  0  0
  8  9  2  0  0  0  0
  8 13  1  0  0  0  0
  9 10  1  0  0  0  0
 10 11  2  0  0  0  0
 10  1  1  0  0  0  0
 12 11  1  0  0  0  0
 12 16  1  0  0  0  0
 13 12  2  0  0  0  0
 14  8  1  0  0  0  0
 15  9  1  0  0  0  0
 17 22  1  0  0  0  0
 18 17  1  0  0  0  0
 18 19  1  0  0  0  0
 19 20  1  0  0  0  0
 20 21  1  0  0  0  0
 21 22  1  0  0  0  0
M  END
>  <minimizedAffinity>
-4.54879379

$$$$
