
     RDKit          3D

 39 42  0  0  0  0  0  0  0  0999 V2000
   34.6169   28.1460   48.9217 C   0  0  0  0  0  0  0  0  0  0  0  0
   34.9729   29.4558   48.6032 C   0  0  0  0  0  0  0  0  0  0  0  0
   34.2203   30.1792   47.7173 C   0  0  0  0  0  0  0  0  0  0  0  0
   33.0998   29.6397   47.1200 C   0  0  0  0  0  0  0  0  0  0  0  0
   32.2083   30.1389   46.2302 N   0  0  0  0  0  0  0  0  0  0  0  0
   31.3327   29.0990   46.0395 C   0  0  0  0  0  0  0  0  0  0  0  0
   31.6804   28.0324   46.7757 N   0  0  0  0  0  0  0  0  0  0  0  0
   32.7823   28.3484   47.4589 C   0  0  0  0  0  0  0  0  0  0  0  0
   33.4957   27.5704   48.3400 C   0  0  0  0  0  0  0  0  0  0  0  0
   37.5241   30.3673   51.0916 C   0  0  0  0  0  0  0  0  0  0  0  0
   38.4154   31.1596   50.3343 C   0  0  0  0  0  0  0  0  0  0  0  0
   38.1070   31.3622   48.9600 C   0  0  0  0  0  0  0  0  0  0  0  0
   36.9749   30.7817   48.4600 N   0  0  0  0  0  0  0  0  0  0  0  0
   36.1492   30.0285   49.2274 C   0  0  0  0  0  0  0  0  0  0  0  0
   36.4291   29.8329   50.5152 N   0  0  0  0  0  0  0  0  0  0  0  0
   35.1806   27.5327   49.6171 H   0  0  0  0  0  0  0  0  0  0  0  0
   34.5364   31.2060   47.4953 H   0  0  0  0  0  0  0  0  0  0  0  0
   32.1912   31.0836   45.7957 H   0  0  0  0  0  0  0  0  0  0  0  0
   30.4997   29.2249   45.3601 H   0  0  0  0  0  0  0  0  0  0  0  0
   33.2006   26.5561   48.5721 H   0  0  0  0  0  0  0  0  0  0  0  0
   37.7817   30.2311   52.1265 H   0  0  0  0  0  0  0  0  0  0  0  0
   39.3054   31.6206   50.7115 H   0  0  0  0  0  0  0  0  0  0  0  0
   38.9969   32.1830   48.1017 C   0  0  0  0  0  0  0  0  0  0  0  0
   39.7160   33.2737   48.8174 C   0  0  0  0  0  0  0  0  0  0  0  0
   40.2560   34.2450   47.7891 C   0  0  0  0  0  0  0  0  0  0  0  0
   40.4274   33.5913   46.4342 C   0  0  0  0  0  0  0  0  0  0  0  0
   39.0821   33.1376   45.8880 C   0  0  0  0  0  0  0  0  0  0  0  0
   38.1242   32.8253   47.0277 C   0  0  0  0  0  0  0  0  0  0  0  0
   39.7509   31.5074   47.6564 H   0  0  0  0  0  0  0  0  0  0  0  0
   40.5452   32.9133   49.4609 H   0  0  0  0  0  0  0  0  0  0  0  0
   39.0036   33.8181   49.5040 H   0  0  0  0  0  0  0  0  0  0  0  0
   41.2261   34.6577   48.0886 H   0  0  0  0  0  0  0  0  0  0  0  0
   39.4956   35.0597   47.6112 H   0  0  0  0  0  0  0  0  0  0  0  0
   40.7998   34.3786   45.7464 H   0  0  0  0  0  0  0  0  0  0  0  0
   41.1863   32.7896   46.4465 H   0  0  0  0  0  0  0  0  0  0  0  0
   38.6680   33.8910   45.1966 H   0  0  0  0  0  0  0  0  0  0  0  0
   39.2129   32.1988   45.3251 H   0  0  0  0  0  0  0  0  0  0  0  0
   37.7438   33.7636   47.4335 H   0  0  0  0  0  0  0  0  0  0  0  0
   37.3158   32.1581   46.7249 H   0  0  0  0  0  0  0  0  0  0  0  0
  2  1  2  0
  2 14  1  0
  3  2  1  0
  4  8  1  0
  4  3  2  0
  5  4  1  0
  6  5  1  0
  6  7  2  0
  7  8  1  0
  8  9  2  0
  9  1  1  0
 11 10  2  0
 12 11  1  0
 13 12  2  0
 13 14  1  0
 14 15  2  0
 15 10  1  0
  1 16  1  0
  3 17  1  0
  5 18  1  0
  6 19  1  0
  9 20  1  0
 10 21  1  0
 11 22  1  0
 23 24  1  0
 24 25  1  0
 25 26  1  0
 26 27  1  0
 27 28  1  0
 28 23  1  0
 23 29  1  0
 24 30  1  0
 24 31  1  0
 25 32  1  0
 25 33  1  0
 26 34  1  0
 26 35  1  0
 27 36  1  0
 27 37  1  0
 28 38  1  0
 28 39  1  0
 12 23  1  0
M  ISO  7  16  14  17  14  18   9  19  14  20  14  21  14  22  14
M  END
>  <DihAtoms>  (1) 
10,11,22,23

>  <DihDeg>  (1) 
59.60841455581468

$$$$
