REMARK  Name = 
REMARK  3 active torsions:
REMARK  status: ('A' for Active; 'I' for Inactive)
REMARK    1  A    between atoms: C_1  and  C_7
REMARK    2  A    between atoms: C_5  and  C_10
REMARK    3  A    between atoms: C_10  and  C_20
REMARK                            x       y       z     vdW  Elec       q    Type
REMARK                         _______ _______ _______ _____ _____    ______ ____
ROOT
ATOM      1  C   UNL     1      37.371  31.352  49.206  0.00  0.00    +0.000 A 
ATOM      2  C   UNL     1      37.709  32.655  49.600  0.00  0.00    +0.000 A 
ATOM      3  C   UNL     1      38.592  33.339  48.766  0.00  0.00    +0.000 A 
ATOM      4  N   UNL     1      39.064  32.723  47.647  0.00  0.00    +0.000 NA
ATOM      5  C   UNL     1      38.707  31.460  47.308  0.00  0.00    +0.000 A 
ATOM      6  N   UNL     1      37.838  30.753  48.108  0.00  0.00    +0.000 NA
ATOM      7  H   UNL     1      37.315  33.107  50.490  0.00  0.00    +0.000 HD
ATOM      8  H   UNL     1      38.898  34.345  49.004  0.00  0.00    +0.000 HD
ENDROOT
BRANCH   1   9
ATOM      9  C   UNL     1      36.390  30.610  50.054  0.00  0.00    +0.000 C 
ATOM     10  C   UNL     1      36.264  29.173  50.049  0.00  0.00    +0.000 C 
ATOM     11  C   UNL     1      37.047  29.809  51.183  0.00  0.00    +0.000 C 
ATOM     12  H   UNL     1      35.518  31.240  50.359  0.00  0.00    +0.000 HD
ATOM     13  H   UNL     1      36.877  28.485  49.437  0.00  0.00    +0.000 HD
ATOM     14  H   UNL     1      35.266  28.735  50.269  0.00  0.00    +0.000 HD
ATOM     15  H   UNL     1      38.138  29.731  51.225  0.00  0.00    +0.000 HD
ATOM     16  H   UNL     1      36.543  29.947  52.157  0.00  0.00    +0.000 HD
ENDBRANCH   1   9
BRANCH   5  17
ATOM     17  C   UNL     1      39.185  30.798  46.102  0.00  0.00    +0.000 C 
ATOM     18  H   UNL     1      39.364  31.609  45.341  0.00  0.00    +0.000 HD
ATOM     19  H   UNL     1      38.435  30.116  45.638  0.00  0.00    +0.000 HD
BRANCH  17  20
ATOM     20  C   UNL     1      40.451  30.018  46.230  0.00  0.00    +0.000 C 
ATOM     21  C   UNL     1      40.934  29.755  44.806  0.00  0.00    +0.000 C 
ATOM     22  C   UNL     1      41.633  30.973  44.229  0.00  0.00    +0.000 C 
ATOM     23  C   UNL     1      42.986  31.073  44.903  0.00  0.00    +0.000 C 
ATOM     24  C   UNL     1      42.873  30.453  46.265  0.00  0.00    +0.000 C 
ATOM     25  C   UNL     1      41.553  30.738  46.952  0.00  0.00    +0.000 C 
ENDBRANCH  17  20
ENDBRANCH   5  17
TORSDOF 3
