
 OpenBabel03272500163D

 28 30  0  0  0  0  0  0  0  0999 V2000
   32.7060   30.3080   46.5750 Cl  0  0  0  0  0  0  0  0  0  0  0  0
   32.6520   28.5760   46.7310 C   0  0  0  0  0  0  0  0  0  0  0  0
   33.5280   27.9290   47.6030 C   0  0  0  0  0  0  0  0  0  0  0  0
   33.5090   26.5390   47.7490 C   0  0  0  0  0  0  0  0  0  0  0  0
   32.5940   25.8260   47.0030 C   0  0  0  0  0  0  0  0  0  0  0  0
   31.7150   26.4580   46.1310 C   0  0  0  0  0  0  0  0  0  0  0  0
   30.5830   25.4830   45.2190 Cl  0  0  0  0  0  0  0  0  0  0  0  0
   31.7480   27.8620   45.9950 C   0  0  0  0  0  0  0  0  0  0  0  0
   34.2020   26.0730   48.4330 H   0  0  0  0  0  0  0  0  0  0  0  0
   32.6020   24.7520   47.1360 H   0  0  0  0  0  0  0  0  0  0  0  0
   35.3780   29.3310   50.4650 C   0  0  0  0  0  0  0  0  0  0  0  0
   36.3320   30.1340   49.8030 C   0  0  0  0  0  0  0  0  0  0  0  0
   36.3290   30.1850   48.4100 C   0  0  0  0  0  0  0  0  0  0  0  0
   35.3920   29.4450   47.7470 N   0  0  0  0  0  0  0  0  0  0  0  0
   34.4870   28.6830   48.3850 C   0  0  0  0  0  0  0  0  0  0  0  0
   34.4770   28.6230   49.7310 N   0  0  0  0  0  0  0  0  0  0  0  0
   35.3830   29.2930   51.5470 H   0  0  0  0  0  0  0  0  0  0  0  0
   37.0550   30.7970   47.8980 H   0  0  0  0  0  0  0  0  0  0  0  0
   37.3100   30.9020   50.6310 C   0  0  0  0  0  0  0  0  0  0  0  0
   38.6030   30.7760   50.1160 F   0  0  0  0  0  0  0  0  0  0  0  0
   36.9740   32.2380   50.5850 F   0  0  0  0  0  0  0  0  0  0  0  0
   37.3210   30.4980   51.9540 F   0  0  0  0  0  0  0  0  0  0  0  0
   30.7650   28.4220   45.0390 C   0  0  0  0  0  0  0  0  0  0  0  0
   31.4020   29.0950   43.8430 C   0  0  0  0  0  0  0  0  0  0  0  0
   30.4980   30.0970   43.1900 C   0  0  0  0  0  0  0  0  0  0  0  0
   29.0420   29.8740   43.3370 C   0  0  0  0  0  0  0  0  0  0  0  0
   28.5580   29.3260   44.6280 C   0  0  0  0  0  0  0  0  0  0  0  0
   29.7190   29.3080   45.6440 C   0  0  0  0  0  0  0  0  0  0  0  0
  1  2  1  0  0  0  0
  2  3  1  0  0  0  0
  3  4  2  0  0  0  0
  3 15  1  0  0  0  0
  4  9  1  0  0  0  0
  5 10  1  0  0  0  0
  5  4  1  0  0  0  0
  6  5  2  0  0  0  0
  7  6  1  0  0  0  0
  8  6  1  0  0  0  0
  8  2  2  0  0  0  0
 11 17  1  0  0  0  0
 12 11  1  0  0  0  0
 12 19  1  0  0  0  0
 13 12  2  0  0  0  0
 14 15  2  0  0  0  0
 14 13  1  0  0  0  0
 15 16  1  0  0  0  0
 16 11  2  0  0  0  0
 18 13  1  0  0  0  0
 19 22  1  0  0  0  0
 20 19  1  0  0  0  0
 21 19  1  0  0  0  0
 23 28  1  0  0  0  0
 23  8  1  0  0  0  0
 24 23  1  0  0  0  0
 25 26  1  0  0  0  0
 25 24  1  0  0  0  0
 26 27  1  0  0  0  0
 27 28  1  0  0  0  0
M  END
>  <minimizedAffinity>
-5.35691261

>  <minimizedRMSD>
0.163513482

$$$$
