
 OpenBabel03262520383D

 15 16  0  0  0  0  0  0  0  0999 V2000
   38.8780   24.7790   36.0870 C   0  0  0  0  0  0  0  0  0  0  0  0
   39.8130   23.7130   36.0470 C   0  0  0  0  0  0  0  0  0  0  0  0
   39.8270   22.8230   37.1260 C   0  0  0  0  0  0  0  0  0  0  0  0
   38.9480   23.0210   38.1580 N   0  0  0  0  0  0  0  0  0  0  0  0
   38.0680   24.0570   38.1560 C   0  0  0  0  0  0  0  0  0  0  0  0
   38.0430   24.9160   37.1300 N   0  0  0  0  0  0  0  0  0  0  0  0
   40.5100   23.5400   35.2480 H   0  0  0  0  0  0  0  0  0  0  0  0
   40.5180   21.9880   37.1560 H   0  0  0  0  0  0  0  0  0  0  0  0
   37.3700   24.2360   38.9500 H   0  0  0  0  0  0  0  0  0  0  0  0
   38.8750   25.7150   34.9340 C   0  0  0  0  0  3  0  0  0  0  0  0
   38.6830   27.1300   35.3980 C   0  0  0  0  0  2  0  0  0  0  0  0
   37.3290   27.6950   35.0240 C   0  0  0  0  0  2  0  0  0  0  0  0
   37.0700   27.6130   33.5390 C   0  0  0  0  0  2  0  0  0  0  0  0
   37.4680   26.2870   32.9400 C   0  0  0  0  0  2  0  0  0  0  0  0
   37.7850   25.2570   33.9970 C   0  0  0  0  0  2  0  0  0  0  0  0
  1  6  1  0  0  0  0
  2  1  2  0  0  0  0
  2  3  1  0  0  0  0
  3  8  1  0  0  0  0
  3  4  2  0  0  0  0
  5  4  1  0  0  0  0
  5  9  1  0  0  0  0
  6  5  2  0  0  0  0
  7  2  1  0  0  0  0
 10 11  1  0  0  0  0
 10  1  1  0  0  0  0
 12 11  1  0  0  0  0
 13 12  1  0  0  0  0
 14 13  1  0  0  0  0
 14 15  1  0  0  0  0
 15 10  1  0  0  0  0
M  END
>  <minimizedAffinity>
-4.0182128

$$$$

 OpenBabel03262520383D

 15 16  0  0  0  0  0  0  0  0999 V2000
   36.1290   22.8500   31.7230 C   0  0  0  0  0  0  0  0  0  0  0  0
   35.5240   24.0200   31.1950 C   0  0  0  0  0  0  0  0  0  0  0  0
   36.0320   25.2550   31.6110 C   0  0  0  0  0  0  0  0  0  0  0  0
   37.0760   25.2770   32.4980 N   0  0  0  0  0  0  0  0  0  0  0  0
   37.6250   24.1310   32.9800 C   0  0  0  0  0  0  0  0  0  0  0  0
   37.1500   22.9420   32.5910 N   0  0  0  0  0  0  0  0  0  0  0  0
   34.7070   24.0260   30.4980 H   0  0  0  0  0  0  0  0  0  0  0  0
   35.6140   26.1860   31.2440 H   0  0  0  0  0  0  0  0  0  0  0  0
   38.4410   24.1180   33.6750 H   0  0  0  0  0  0  0  0  0  0  0  0
   35.5790   21.5470   31.2710 C   0  0  0  0  0  3  0  0  0  0  0  0
   34.8150   20.8790   32.3780 C   0  0  0  0  0  2  0  0  0  0  0  0
   35.5170   19.6550   32.9250 C   0  0  0  0  0  2  0  0  0  0  0  0
   35.8210   18.6460   31.8450 C   0  0  0  0  0  2  0  0  0  0  0  0
   36.3740   19.2700   30.5880 C   0  0  0  0  0  2  0  0  0  0  0  0
   36.7450   20.7200   30.7880 C   0  0  0  0  0  2  0  0  0  0  0  0
  1  6  1  0  0  0  0
  2  3  1  0  0  0  0
  2  1  2  0  0  0  0
  3  4  2  0  0  0  0
  4  5  1  0  0  0  0
  5  9  1  0  0  0  0
  6  5  2  0  0  0  0
  7  2  1  0  0  0  0
  8  3  1  0  0  0  0
 10  1  1  0  0  0  0
 10 11  1  0  0  0  0
 11 12  1  0  0  0  0
 13 12  1  0  0  0  0
 14 15  1  0  0  0  0
 14 13  1  0  0  0  0
 15 10  1  0  0  0  0
M  END
>  <minimizedAffinity>
-3.98134208

$$$$

 OpenBabel03262520383D

 15 16  0  0  0  0  0  0  0  0999 V2000
   36.7290   25.9240   32.4300 C   0  0  0  0  0  0  0  0  0  0  0  0
   35.7240   26.3980   31.5470 C   0  0  0  0  0  0  0  0  0  0  0  0
   35.0400   25.4510   30.7780 C   0  0  0  0  0  0  0  0  0  0  0  0
   35.3680   24.1270   30.9120 N   0  0  0  0  0  0  0  0  0  0  0  0
   36.3380   23.7170   31.7710 C   0  0  0  0  0  0  0  0  0  0  0  0
   37.0010   24.6120   32.5140 N   0  0  0  0  0  0  0  0  0  0  0  0
   35.4510   27.4290   31.4260 H   0  0  0  0  0  0  0  0  0  0  0  0
   34.2610   25.7480   30.0840 H   0  0  0  0  0  0  0  0  0  0  0  0
   36.6160   22.6890   31.8970 H   0  0  0  0  0  0  0  0  0  0  0  0
   37.4460   26.9420   33.2400 C   0  0  0  0  0  3  0  0  0  0  0  0
   38.9080   26.9570   32.9010 C   0  0  0  0  0  2  0  0  0  0  0  0
   39.7770   26.4070   34.0120 C   0  0  0  0  0  2  0  0  0  0  0  0
   39.5560   27.1340   35.3170 C   0  0  0  0  0  2  0  0  0  0  0  0
   38.0990   27.3780   35.6200 C   0  0  0  0  0  2  0  0  0  0  0  0
   37.1880   26.6140   34.6900 C   0  0  0  0  0  2  0  0  0  0  0  0
  1  6  1  0  0  0  0
  1 10  1  0  0  0  0
  2  1  2  0  0  0  0
  3  4  2  0  0  0  0
  3  2  1  0  0  0  0
  4  5  1  0  0  0  0
  5  9  1  0  0  0  0
  5  6  2  0  0  0  0
  7  2  1  0  0  0  0
  8  3  1  0  0  0  0
 10 15  1  0  0  0  0
 11 10  1  0  0  0  0
 11 12  1  0  0  0  0
 12 13  1  0  0  0  0
 13 14  1  0  0  0  0
 15 14  1  0  0  0  0
M  END
>  <minimizedAffinity>
-3.94811535

$$$$

 OpenBabel03262520383D

 15 16  0  0  0  0  0  0  0  0999 V2000
   39.7190   24.3780   35.6890 C   0  0  0  0  0  0  0  0  0  0  0  0
   38.7820   24.0050   36.6860 C   0  0  0  0  0  0  0  0  0  0  0  0
   39.1710   23.0290   37.6090 C   0  0  0  0  0  0  0  0  0  0  0  0
   40.4250   22.4850   37.5070 N   0  0  0  0  0  0  0  0  0  0  0  0
   41.2930   22.8720   36.5350 C   0  0  0  0  0  0  0  0  0  0  0  0
   40.9330   23.8060   35.6450 N   0  0  0  0  0  0  0  0  0  0  0  0
   37.7950   24.4190   36.7850 H   0  0  0  0  0  0  0  0  0  0  0  0
   38.5010   22.7000   38.3950 H   0  0  0  0  0  0  0  0  0  0  0  0
   42.2780   22.4640   36.4300 H   0  0  0  0  0  0  0  0  0  0  0  0
   39.2900   25.4170   34.7180 C   0  0  0  0  0  3  0  0  0  0  0  0
   39.4740   26.7910   35.2930 C   0  0  0  0  0  2  0  0  0  0  0  0
   38.1620   27.4770   35.6130 C   0  0  0  0  0  2  0  0  0  0  0  0
   37.2540   27.5530   34.4100 C   0  0  0  0  0  2  0  0  0  0  0  0
   37.2000   26.2660   33.6250 C   0  0  0  0  0  2  0  0  0  0  0  0
   37.8540   25.1220   34.3620 C   0  0  0  0  0  2  0  0  0  0  0  0
  1  2  1  0  0  0  0
  2  7  1  0  0  0  0
  2  3  2  0  0  0  0
  3  8  1  0  0  0  0
  4  3  1  0  0  0  0
  5  4  2  0  0  0  0
  6  1  2  0  0  0  0
  6  5  1  0  0  0  0
  9  5  1  0  0  0  0
 10 11  1  0  0  0  0
 10  1  1  0  0  0  0
 11 12  1  0  0  0  0
 13 12  1  0  0  0  0
 14 15  1  0  0  0  0
 14 13  1  0  0  0  0
 15 10  1  0  0  0  0
M  END
>  <minimizedAffinity>
-3.92855048

$$$$

 OpenBabel03262520383D

 15 16  0  0  0  0  0  0  0  0999 V2000
   36.6780   25.9570   32.4330 C   0  0  0  0  0  0  0  0  0  0  0  0
   37.0760   24.6000   32.5420 C   0  0  0  0  0  0  0  0  0  0  0  0
   36.4110   23.6640   31.7420 C   0  0  0  0  0  0  0  0  0  0  0  0
   35.4180   24.0970   30.9030 N   0  0  0  0  0  0  0  0  0  0  0  0
   35.0680   25.4080   30.8300 C   0  0  0  0  0  0  0  0  0  0  0  0
   35.6960   26.3150   31.5890 N   0  0  0  0  0  0  0  0  0  0  0  0
   37.8510   24.2390   33.1920 H   0  0  0  0  0  0  0  0  0  0  0  0
   36.6680   22.6110   31.7790 H   0  0  0  0  0  0  0  0  0  0  0  0
   34.2960   25.7760   30.1840 H   0  0  0  0  0  0  0  0  0  0  0  0
   37.3940   26.9380   33.2880 C   0  0  0  0  0  3  0  0  0  0  0  0
   38.8010   27.1380   32.8030 C   0  0  0  0  0  2  0  0  0  0  0  0
   39.8360   26.5500   33.7380 C   0  0  0  0  0  2  0  0  0  0  0  0
   39.7060   27.0910   35.1400 C   0  0  0  0  0  2  0  0  0  0  0  0
   38.2790   27.1520   35.6230 C   0  0  0  0  0  2  0  0  0  0  0  0
   37.3340   26.4170   34.7020 C   0  0  0  0  0  2  0  0  0  0  0  0
  1  2  1  0  0  0  0
  1 10  1  0  0  0  0
  2  7  1  0  0  0  0
  3  8  1  0  0  0  0
  3  2  2  0  0  0  0
  4  3  1  0  0  0  0
  5  4  2  0  0  0  0
  5  6  1  0  0  0  0
  6  1  2  0  0  0  0
  9  5  1  0  0  0  0
 10 15  1  0  0  0  0
 11 10  1  0  0  0  0
 11 12  1  0  0  0  0
 12 13  1  0  0  0  0
 13 14  1  0  0  0  0
 15 14  1  0  0  0  0
M  END
>  <minimizedAffinity>
-3.92234588

$$$$

 OpenBabel03262520383D

 15 16  0  0  0  0  0  0  0  0999 V2000
   38.5810   24.3470   36.3750 C   0  0  0  0  0  0  0  0  0  0  0  0
   38.1660   24.1310   37.7140 C   0  0  0  0  0  0  0  0  0  0  0  0
   38.9450   23.2780   38.5030 C   0  0  0  0  0  0  0  0  0  0  0  0
   40.0580   22.6990   37.9510 N   0  0  0  0  0  0  0  0  0  0  0  0
   40.4190   22.9340   36.6620 C   0  0  0  0  0  0  0  0  0  0  0  0
   39.6830   23.7480   35.8960 N   0  0  0  0  0  0  0  0  0  0  0  0
   37.2990   24.5740   38.1660 H   0  0  0  0  0  0  0  0  0  0  0  0
   38.6820   23.0710   39.5340 H   0  0  0  0  0  0  0  0  0  0  0  0
   41.2830   22.4950   36.2040 H   0  0  0  0  0  0  0  0  0  0  0  0
   37.7440   25.2560   35.5500 C   0  0  0  0  0  3  0  0  0  0  0  0
   37.9240   24.9650   34.0880 C   0  0  0  0  0  2  0  0  0  0  0  0
   38.6770   26.0570   33.3580 C   0  0  0  0  0  2  0  0  0  0  0  0
   38.0220   27.4060   33.5250 C   0  0  0  0  0  2  0  0  0  0  0  0
   37.5850   27.6830   34.9410 C   0  0  0  0  0  2  0  0  0  0  0  0
   38.1340   26.6670   35.9150 C   0  0  0  0  0  2  0  0  0  0  0  0
  1  2  1  0  0  0  0
  2  7  1  0  0  0  0
  2  3  2  0  0  0  0
  3  8  1  0  0  0  0
  4  3  1  0  0  0  0
  5  4  2  0  0  0  0
  6  1  2  0  0  0  0
  6  5  1  0  0  0  0
  9  5  1  0  0  0  0
 10 15  1  0  0  0  0
 10  1  1  0  0  0  0
 11 10  1  0  0  0  0
 12 13  1  0  0  0  0
 12 11  1  0  0  0  0
 13 14  1  0  0  0  0
 14 15  1  0  0  0  0
M  END
>  <minimizedAffinity>
-3.89666581

$$$$

 OpenBabel03262520383D

 15 16  0  0  0  0  0  0  0  0999 V2000
   38.2000   25.1380   34.9540 C   0  0  0  0  0  0  0  0  0  0  0  0
   38.3490   26.2060   35.8760 C   0  0  0  0  0  0  0  0  0  0  0  0
   37.8310   27.4530   35.5110 C   0  0  0  0  0  0  0  0  0  0  0  0
   37.2130   27.5830   34.2950 N   0  0  0  0  0  0  0  0  0  0  0  0
   37.0920   26.5320   33.4410 C   0  0  0  0  0  0  0  0  0  0  0  0
   37.5830   25.3330   33.7770 N   0  0  0  0  0  0  0  0  0  0  0  0
   38.8280   26.1260   36.8340 H   0  0  0  0  0  0  0  0  0  0  0  0
   37.9120   28.3090   36.1720 H   0  0  0  0  0  0  0  0  0  0  0  0
   36.6150   26.6050   32.4840 H   0  0  0  0  0  0  0  0  0  0  0  0
   38.7540   23.8200   35.3570 C   0  0  0  0  0  3  0  0  0  0  0  0
   38.0570   23.3020   36.5810 C   0  0  0  0  0  2  0  0  0  0  0  0
   38.9380   23.3170   37.8120 C   0  0  0  0  0  2  0  0  0  0  0  0
   40.2200   22.5500   37.6020 C   0  0  0  0  0  2  0  0  0  0  0  0
   40.8700   22.8340   36.2700 C   0  0  0  0  0  2  0  0  0  0  0  0
   40.2360   24.0100   35.5670 C   0  0  0  0  0  2  0  0  0  0  0  0
  1 10  1  0  0  0  0
  1  2  1  0  0  0  0
  2  7  1  0  0  0  0
  3  2  2  0  0  0  0
  3  8  1  0  0  0  0
  4  3  1  0  0  0  0
  5  6  1  0  0  0  0
  5  4  2  0  0  0  0
  6  1  2  0  0  0  0
  9  5  1  0  0  0  0
 10 15  1  0  0  0  0
 10 11  1  0  0  0  0
 11 12  1  0  0  0  0
 13 12  1  0  0  0  0
 14 13  1  0  0  0  0
 15 14  1  0  0  0  0
M  END
>  <minimizedAffinity>
-3.84556198

$$$$

 OpenBabel03262520383D

 15 16  0  0  0  0  0  0  0  0999 V2000
   38.1120   23.4360   34.7200 C   0  0  0  0  0  0  0  0  0  0  0  0
   38.0340   24.2410   33.5550 C   0  0  0  0  0  0  0  0  0  0  0  0
   37.5870   23.6330   32.3770 C   0  0  0  0  0  0  0  0  0  0  0  0
   37.2500   22.3050   32.4050 N   0  0  0  0  0  0  0  0  0  0  0  0
   37.3400   21.5710   33.5440 C   0  0  0  0  0  0  0  0  0  0  0  0
   37.7660   22.1390   34.6790 N   0  0  0  0  0  0  0  0  0  0  0  0
   38.2920   25.2830   33.5110 H   0  0  0  0  0  0  0  0  0  0  0  0
   37.5050   24.1940   31.4520 H   0  0  0  0  0  0  0  0  0  0  0  0
   37.0840   20.5310   33.5960 H   0  0  0  0  0  0  0  0  0  0  0  0
   38.5880   24.0970   35.9630 C   0  0  0  0  0  3  0  0  0  0  0  0
   39.8990   23.5140   36.4060 C   0  0  0  0  0  2  0  0  0  0  0  0
   39.7790   22.6850   37.6680 C   0  0  0  0  0  2  0  0  0  0  0  0
   39.1670   23.4680   38.8040 C   0  0  0  0  0  2  0  0  0  0  0  0
   37.9710   24.2860   38.3850 C   0  0  0  0  0  2  0  0  0  0  0  0
   37.5000   23.9330   36.9940 C   0  0  0  0  0  2  0  0  0  0  0  0
  1 10  1  0  0  0  0
  2  1  2  0  0  0  0
  3  4  2  0  0  0  0
  3  2  1  0  0  0  0
  4  5  1  0  0  0  0
  5  9  1  0  0  0  0
  5  6  2  0  0  0  0
  6  1  1  0  0  0  0
  7  2  1  0  0  0  0
  8  3  1  0  0  0  0
 10 11  1  0  0  0  0
 10 15  1  0  0  0  0
 11 12  1  0  0  0  0
 12 13  1  0  0  0  0
 14 13  1  0  0  0  0
 15 14  1  0  0  0  0
M  END
>  <minimizedAffinity>
-3.78611302

$$$$

 OpenBabel03262520383D

 15 16  0  0  0  0  0  0  0  0999 V2000
   36.5290   28.1600   32.6110 C   0  0  0  0  0  0  0  0  0  0  0  0
   37.0210   28.5610   31.3430 C   0  0  0  0  0  0  0  0  0  0  0  0
   36.3270   29.5720   30.6690 C   0  0  0  0  0  0  0  0  0  0  0  0
   35.2190   30.1200   31.2600 N   0  0  0  0  0  0  0  0  0  0  0  0
   34.7820   29.7060   32.4780 C   0  0  0  0  0  0  0  0  0  0  0  0
   35.4360   28.7390   33.1340 N   0  0  0  0  0  0  0  0  0  0  0  0
   37.8870   28.1450   30.8620 H   0  0  0  0  0  0  0  0  0  0  0  0
   36.6520   29.9230   29.6960 H   0  0  0  0  0  0  0  0  0  0  0  0
   33.9180   30.1150   32.9630 H   0  0  0  0  0  0  0  0  0  0  0  0
   37.2770   27.0860   33.3140 C   0  0  0  0  0  3  0  0  0  0  0  0
   37.0250   27.1430   34.7930 C   0  0  0  0  0  2  0  0  0  0  0  0
   38.2340   27.6030   35.5800 C   0  0  0  0  0  2  0  0  0  0  0  0
   39.4470   26.7460   35.3090 C   0  0  0  0  0  2  0  0  0  0  0  0
   39.6380   26.4350   33.8460 C   0  0  0  0  0  2  0  0  0  0  0  0
   38.7340   27.2630   32.9640 C   0  0  0  0  0  2  0  0  0  0  0  0
  1  6  1  0  0  0  0
  1 10  1  0  0  0  0
  2  1  2  0  0  0  0
  3  4  2  0  0  0  0
  3  2  1  0  0  0  0
  4  5  1  0  0  0  0
  5  9  1  0  0  0  0
  5  6  2  0  0  0  0
  7  2  1  0  0  0  0
  8  3  1  0  0  0  0
 10 11  1  0  0  0  0
 11 12  1  0  0  0  0
 13 12  1  0  0  0  0
 14 13  1  0  0  0  0
 15 10  1  0  0  0  0
 15 14  1  0  0  0  0
M  END
>  <minimizedAffinity>
-3.75085306

$$$$
