
 OpenBabel03272505123D

 36 39  0  0  0  0  0  0  0  0999 V2000
   36.3990   30.9000   45.7270 Cl  0  0  0  0  0  0  0  0  0  0  0  0
   36.6920   30.7790   47.4410 C   0  0  0  0  0  0  0  0  0  0  0  0
   37.9580   31.1130   47.8880 C   0  0  0  0  0  0  0  0  0  0  0  0
   38.2030   31.0190   49.2530 C   0  0  0  0  0  0  0  0  0  0  0  0
   37.1990   30.6070   50.1000 C   0  0  0  0  0  0  0  0  0  0  0  0
   35.9550   30.2900   49.5730 C   0  0  0  0  0  0  0  0  0  0  0  0
   35.6450   30.3590   48.2400 C   0  0  0  0  0  0  0  0  0  0  0  0
   39.1880   31.2770   49.6250 H   0  0  0  0  0  0  0  0  0  0  0  0
   37.3510   30.5230   51.1660 H   0  0  0  0  0  0  0  0  0  0  0  0
   35.1900   29.9680   50.2760 H   0  0  0  0  0  0  0  0  0  0  0  0
   40.2230   33.3120   46.0820 C   0  0  0  0  0  0  0  0  0  0  0  0
   40.9230   32.4630   45.2130 C   0  0  0  0  0  0  0  0  0  0  0  0
   40.5950   31.0960   45.2620 C   0  0  0  0  0  0  0  0  0  0  0  0
   39.6300   30.6840   46.1390 N   0  0  0  0  0  0  0  0  0  0  0  0
   38.9990   31.5500   46.9410 C   0  0  0  0  0  0  0  0  0  0  0  0
   39.2850   32.8520   46.9210 N   0  0  0  0  0  0  0  0  0  0  0  0
   40.5250   34.3470   45.9920 H   0  0  0  0  0  0  0  0  0  0  0  0
   41.6880   32.8390   44.5290 H   0  0  0  0  0  0  0  0  0  0  0  0
   41.0860   30.3960   44.6320 H   0  0  0  0  0  0  0  0  0  0  0  0
   34.0690   29.9590   47.5600 S   0  0  0  0  0  0  0  0  0  0  0  0
   33.8550   29.2140   44.5100 Cl  0  0  0  0  0  0  0  0  0  0  0  0
   33.8570   27.9770   45.7470 C   0  0  0  0  0  0  0  0  0  0  0  0
   33.9480   28.2250   47.1240 C   0  0  0  0  0  0  0  0  0  0  0  0
   33.9390   27.1720   47.9990 C   0  0  0  0  0  0  0  0  0  0  0  0
   33.8430   25.8810   47.5490 C   0  0  0  0  0  0  0  0  0  0  0  0
   33.7500   25.5960   46.1930 C   0  0  0  0  0  0  0  0  0  0  0  0
   33.7600   26.6510   45.3240 C   0  0  0  0  0  0  0  0  0  0  0  0
   34.0160   27.4870   49.0410 H   0  0  0  0  0  0  0  0  0  0  0  0
   33.8410   25.0970   48.2670 H   0  0  0  0  0  0  0  0  0  0  0  0
   33.6760   24.5580   45.8980 H   0  0  0  0  0  0  0  0  0  0  0  0
   33.6600   26.3460   43.8720 C   0  0  0  0  0  3  0  0  0  0  0  0
   34.8700   26.7910   43.1120 C   0  0  0  0  0  2  0  0  0  0  0  0
   34.7610   26.3620   41.6840 C   0  0  0  0  0  2  0  0  0  0  0  0
   33.4470   25.6860   41.3700 C   0  0  0  0  0  2  0  0  0  0  0  0
   32.2550   26.4490   41.8540 C   0  0  0  0  0  2  0  0  0  0  0  0
   32.4260   26.9670   43.2630 C   0  0  0  0  0  2  0  0  0  0  0  0
  1  2  1  0  0  0  0
  2  3  2  0  0  0  0
  2  7  1  0  0  0  0
  3  4  1  0  0  0  0
  4  8  1  0  0  0  0
  4  5  2  0  0  0  0
  5  9  1  0  0  0  0
  6  5  1  0  0  0  0
  6 10  1  0  0  0  0
  7  6  2  0  0  0  0
 11 16  1  0  0  0  0
 12 13  1  0  0  0  0
 12 11  2  0  0  0  0
 13 14  2  0  0  0  0
 14 15  1  0  0  0  0
 15  3  1  0  0  0  0
 16 15  2  0  0  0  0
 17 11  1  0  0  0  0
 18 12  1  0  0  0  0
 19 13  1  0  0  0  0
 20  7  1  0  0  0  0
 21 22  1  0  0  0  0
 22 23  1  0  0  0  0
 23 20  1  0  0  0  0
 23 24  2  0  0  0  0
 24 28  1  0  0  0  0
 25 24  1  0  0  0  0
 25 29  1  0  0  0  0
 26 25  2  0  0  0  0
 27 22  2  0  0  0  0
 27 26  1  0  0  0  0
 30 26  1  0  0  0  0
 31 27  1  0  0  0  0
 32 31  1  0  0  0  0
 33 32  1  0  0  0  0
 34 33  1  0  0  0  0
 34 35  1  0  0  0  0
 35 36  1  0  0  0  0
 36 31  1  0  0  0  0
M  END
>  <minimizedAffinity>
-5.69963694

>  <minimizedRMSD>
0.50254643

$$$$
