
 OpenBabel03272500363D

 18 19  0  0  0  0  0  0  0  0999 V2000
   38.2810   23.7940   36.9510 C   0  0  0  0  0  0  0  0  0  0  0  0
   38.5770   22.5910   36.2970 C   0  0  0  0  0  0  0  0  0  0  0  0
   38.6240   22.6000   34.8930 C   0  0  0  0  0  0  0  0  0  0  0  0
   38.3810   23.7750   34.2540 N   0  0  0  0  0  0  0  0  0  0  0  0
   38.1010   24.9120   34.9270 C   0  0  0  0  0  0  0  0  0  0  0  0
   38.0550   24.9040   36.2590 N   0  0  0  0  0  0  0  0  0  0  0  0
   38.7660   21.6720   36.8360 H   0  0  0  0  0  0  0  0  0  0  0  0
   38.8500   21.6950   34.3280 H   0  0  0  0  0  0  0  0  0  0  0  0
   37.8390   26.1810   34.2120 C   0  0  0  0  0  3  0  0  0  0  0  0
   36.9990   25.9010   32.9640 C   0  0  0  0  0  2  0  0  0  0  0  0
   36.6030   27.2740   32.4360 C   0  0  0  0  0  2  0  0  0  0  0  0
   37.8670   27.8830   31.8500 C   0  0  0  0  0  2  0  0  0  0  0  0
   39.1230   27.2070   32.3210 C   0  0  0  0  0  2  0  0  0  0  0  0
   39.0740   26.9200   33.8210 C   0  0  0  0  0  2  0  0  0  0  0  0
   38.2310   23.7820   38.4510 C   0  0  0  0  0  0  0  0  0  0  0  0
   37.9530   25.0550   38.9150 F   0  0  0  0  0  0  0  0  0  0  0  0
   37.2920   22.8480   38.8250 F   0  0  0  0  0  0  0  0  0  0  0  0
   39.4970   23.4430   38.9040 F   0  0  0  0  0  0  0  0  0  0  0  0
  1 15  1  0  0  0  0
  2  7  1  0  0  0  0
  2  1  1  0  0  0  0
  3  2  2  0  0  0  0
  4  3  1  0  0  0  0
  4  5  2  0  0  0  0
  5  6  1  0  0  0  0
  6  1  2  0  0  0  0
  8  3  1  0  0  0  0
  9  5  1  0  0  0  0
 10  9  1  0  0  0  0
 11 10  1  0  0  0  0
 12 13  1  0  0  0  0
 12 11  1  0  0  0  0
 13 14  1  0  0  0  0
 14  9  1  0  0  0  0
 15 17  1  0  0  0  0
 15 18  1  0  0  0  0
 15 16  1  0  0  0  0
M  END
>  <minimizedAffinity>
-5.09235525

$$$$

 OpenBabel03272500363D

 18 19  0  0  0  0  0  0  0  0999 V2000
   38.1340   23.8550   36.8510 C   0  0  0  0  0  0  0  0  0  0  0  0
   38.3490   25.1260   36.3030 C   0  0  0  0  0  0  0  0  0  0  0  0
   38.3010   25.2560   34.9060 C   0  0  0  0  0  0  0  0  0  0  0  0
   38.0480   24.1410   34.1700 N   0  0  0  0  0  0  0  0  0  0  0  0
   37.8460   22.9350   34.7420 C   0  0  0  0  0  0  0  0  0  0  0  0
   37.8930   22.8100   36.0680 N   0  0  0  0  0  0  0  0  0  0  0  0
   38.5480   25.9930   36.9180 H   0  0  0  0  0  0  0  0  0  0  0  0
   38.4590   26.2200   34.4210 H   0  0  0  0  0  0  0  0  0  0  0  0
   37.5720   21.7340   33.9220 C   0  0  0  0  0  3  0  0  0  0  0  0
   37.6030   22.1090   32.4400 C   0  0  0  0  0  2  0  0  0  0  0  0
   37.5350   20.7820   31.6930 C   0  0  0  0  0  2  0  0  0  0  0  0
   36.1160   20.2690   31.8710 C   0  0  0  0  0  2  0  0  0  0  0  0
   35.3840   20.9310   33.0040 C   0  0  0  0  0  2  0  0  0  0  0  0
   36.2730   21.0710   34.2380 C   0  0  0  0  0  2  0  0  0  0  0  0
   38.1870   23.7170   38.3450 C   0  0  0  0  0  0  0  0  0  0  0  0
   37.9920   24.9530   38.9320 F   0  0  0  0  0  0  0  0  0  0  0  0
   37.2420   22.7840   38.7070 F   0  0  0  0  0  0  0  0  0  0  0  0
   39.4680   23.2990   38.6760 F   0  0  0  0  0  0  0  0  0  0  0  0
  1 15  1  0  0  0  0
  2  1  1  0  0  0  0
  2  7  1  0  0  0  0
  3  2  2  0  0  0  0
  4  5  2  0  0  0  0
  4  3  1  0  0  0  0
  5  6  1  0  0  0  0
  6  1  2  0  0  0  0
  8  3  1  0  0  0  0
  9 14  1  0  0  0  0
  9  5  1  0  0  0  0
 10  9  1  0  0  0  0
 11 12  1  0  0  0  0
 11 10  1  0  0  0  0
 12 13  1  0  0  0  0
 13 14  1  0  0  0  0
 15 18  1  0  0  0  0
 15 17  1  0  0  0  0
 15 16  1  0  0  0  0
M  END
>  <minimizedAffinity>
-4.97054148

$$$$

 OpenBabel03272500363D

 18 19  0  0  0  0  0  0  0  0999 V2000
   38.2460   23.7150   36.9220 C   0  0  0  0  0  0  0  0  0  0  0  0
   37.8120   22.5410   36.2920 C   0  0  0  0  0  0  0  0  0  0  0  0
   37.8320   22.5020   34.8880 C   0  0  0  0  0  0  0  0  0  0  0  0
   38.2700   23.6050   34.2260 N   0  0  0  0  0  0  0  0  0  0  0  0
   38.6800   24.7160   34.8750 C   0  0  0  0  0  0  0  0  0  0  0  0
   38.6610   24.7540   36.2070 N   0  0  0  0  0  0  0  0  0  0  0  0
   37.4690   21.6800   36.8500 H   0  0  0  0  0  0  0  0  0  0  0  0
   37.5070   21.6160   34.3420 H   0  0  0  0  0  0  0  0  0  0  0  0
   39.1540   25.9060   34.1340 C   0  0  0  0  0  3  0  0  0  0  0  0
   39.8150   25.4650   32.8270 C   0  0  0  0  0  2  0  0  0  0  0  0
   40.0600   26.7530   32.0520 C   0  0  0  0  0  2  0  0  0  0  0  0
   41.1940   27.4690   32.7660 C   0  0  0  0  0  2  0  0  0  0  0  0
   41.4240   26.9670   34.1640 C   0  0  0  0  0  2  0  0  0  0  0  0
   40.1050   26.7580   34.9060 C   0  0  0  0  0  2  0  0  0  0  0  0
   38.2240   23.7560   38.4220 C   0  0  0  0  0  0  0  0  0  0  0  0
   39.4600   23.3810   38.9140 F   0  0  0  0  0  0  0  0  0  0  0  0
   37.8500   25.0270   38.7950 F   0  0  0  0  0  0  0  0  0  0  0  0
   37.3040   22.8080   38.8470 F   0  0  0  0  0  0  0  0  0  0  0  0
  1 15  1  0  0  0  0
  2  7  1  0  0  0  0
  2  1  1  0  0  0  0
  3  2  2  0  0  0  0
  4  5  2  0  0  0  0
  4  3  1  0  0  0  0
  5  6  1  0  0  0  0
  6  1  2  0  0  0  0
  8  3  1  0  0  0  0
  9  5  1  0  0  0  0
  9 14  1  0  0  0  0
 10  9  1  0  0  0  0
 11 12  1  0  0  0  0
 11 10  1  0  0  0  0
 12 13  1  0  0  0  0
 13 14  1  0  0  0  0
 15 17  1  0  0  0  0
 15 18  1  0  0  0  0
 15 16  1  0  0  0  0
M  END
>  <minimizedAffinity>
-4.93486166

$$$$

 OpenBabel03272500363D

 18 19  0  0  0  0  0  0  0  0999 V2000
   36.5810   21.6080   33.1740 C   0  0  0  0  0  0  0  0  0  0  0  0
   36.5780   22.4080   32.0240 C   0  0  0  0  0  0  0  0  0  0  0  0
   37.3170   23.6020   32.0510 C   0  0  0  0  0  0  0  0  0  0  0  0
   37.9900   23.9090   33.1920 N   0  0  0  0  0  0  0  0  0  0  0  0
   37.9650   23.1060   34.2770 C   0  0  0  0  0  0  0  0  0  0  0  0
   37.2630   21.9730   34.2520 N   0  0  0  0  0  0  0  0  0  0  0  0
   36.0300   22.1340   31.1320 H   0  0  0  0  0  0  0  0  0  0  0  0
   37.3530   24.2650   31.1870 H   0  0  0  0  0  0  0  0  0  0  0  0
   38.7050   23.4580   35.5090 C   0  0  0  0  0  3  0  0  0  0  0  0
   39.1770   22.1800   36.2040 C   0  0  0  0  0  2  0  0  0  0  0  0
   40.1040   22.6530   37.3180 C   0  0  0  0  0  2  0  0  0  0  0  0
   39.2120   23.2880   38.3710 C   0  0  0  0  0  2  0  0  0  0  0  0
   37.8450   23.6390   37.8550 C   0  0  0  0  0  2  0  0  0  0  0  0
   37.9190   24.2830   36.4720 C   0  0  0  0  0  2  0  0  0  0  0  0
   35.7890   20.3320   33.1430 C   0  0  0  0  0  0  0  0  0  0  0  0
   36.5360   19.3380   32.5390 F   0  0  0  0  0  0  0  0  0  0  0  0
   35.4330   20.0370   34.4390 F   0  0  0  0  0  0  0  0  0  0  0  0
   34.6760   20.5570   32.3460 F   0  0  0  0  0  0  0  0  0  0  0  0
  1  6  1  0  0  0  0
  2  3  1  0  0  0  0
  2  1  2  0  0  0  0
  3  4  2  0  0  0  0
  4  5  1  0  0  0  0
  5  9  1  0  0  0  0
  6  5  2  0  0  0  0
  7  2  1  0  0  0  0
  8  3  1  0  0  0  0
  9 10  1  0  0  0  0
  9 14  1  0  0  0  0
 10 11  1  0  0  0  0
 11 12  1  0  0  0  0
 13 12  1  0  0  0  0
 14 13  1  0  0  0  0
 15  1  1  0  0  0  0
 15 17  1  0  0  0  0
 16 15  1  0  0  0  0
 18 15  1  0  0  0  0
M  END
>  <minimizedAffinity>
-4.92206955

$$$$

 OpenBabel03272500363D

 18 19  0  0  0  0  0  0  0  0999 V2000
   38.7470   23.0120   36.7870 C   0  0  0  0  0  0  0  0  0  0  0  0
   40.0790   22.6040   36.6340 C   0  0  0  0  0  0  0  0  0  0  0  0
   40.4740   22.1030   35.3830 C   0  0  0  0  0  0  0  0  0  0  0  0
   39.5400   22.0440   34.3960 N   0  0  0  0  0  0  0  0  0  0  0  0
   38.2670   22.4500   34.5890 C   0  0  0  0  0  0  0  0  0  0  0  0
   37.8910   22.9250   35.7770 N   0  0  0  0  0  0  0  0  0  0  0  0
   40.7970   22.6640   37.4400 H   0  0  0  0  0  0  0  0  0  0  0  0
   41.4960   21.7710   35.2030 H   0  0  0  0  0  0  0  0  0  0  0  0
   37.2660   22.3770   33.5010 C   0  0  0  0  0  3  0  0  0  0  0  0
   36.4290   21.1070   33.6620 C   0  0  0  0  0  2  0  0  0  0  0  0
   35.3030   21.2430   32.6430 C   0  0  0  0  0  2  0  0  0  0  0  0
   35.9410   21.0440   31.2780 C   0  0  0  0  0  2  0  0  0  0  0  0
   37.4340   21.2050   31.2930 C   0  0  0  0  0  2  0  0  0  0  0  0
   37.8580   22.4100   32.1320 C   0  0  0  0  0  2  0  0  0  0  0  0
   38.3270   23.5470   38.1250 C   0  0  0  0  0  0  0  0  0  0  0  0
   37.2280   22.8440   38.5810 F   0  0  0  0  0  0  0  0  0  0  0  0
   39.4150   23.4630   38.9630 F   0  0  0  0  0  0  0  0  0  0  0  0
   37.9290   24.8630   37.9370 F   0  0  0  0  0  0  0  0  0  0  0  0
  1 15  1  0  0  0  0
  2  1  1  0  0  0  0
  2  7  1  0  0  0  0
  3  2  2  0  0  0  0
  4  5  2  0  0  0  0
  4  3  1  0  0  0  0
  5  6  1  0  0  0  0
  6  1  2  0  0  0  0
  8  3  1  0  0  0  0
  9 10  1  0  0  0  0
  9  5  1  0  0  0  0
 11 10  1  0  0  0  0
 12 13  1  0  0  0  0
 12 11  1  0  0  0  0
 13 14  1  0  0  0  0
 14  9  1  0  0  0  0
 15 16  1  0  0  0  0
 15 17  1  0  0  0  0
 18 15  1  0  0  0  0
M  END
>  <minimizedAffinity>
-4.74655867

$$$$

 OpenBabel03272500363D

 18 19  0  0  0  0  0  0  0  0999 V2000
   40.0100   23.1370   37.0100 C   0  0  0  0  0  0  0  0  0  0  0  0
   39.1790   22.9550   38.1230 C   0  0  0  0  0  0  0  0  0  0  0  0
   38.0300   23.7570   38.2230 C   0  0  0  0  0  0  0  0  0  0  0  0
   37.7950   24.6600   37.2340 N   0  0  0  0  0  0  0  0  0  0  0  0
   38.6240   24.8010   36.1790 C   0  0  0  0  0  0  0  0  0  0  0  0
   39.7160   24.0400   36.0830 N   0  0  0  0  0  0  0  0  0  0  0  0
   39.3950   22.2270   38.8920 H   0  0  0  0  0  0  0  0  0  0  0  0
   37.3440   23.6610   39.0650 H   0  0  0  0  0  0  0  0  0  0  0  0
   38.3500   25.7900   35.1140 C   0  0  0  0  0  3  0  0  0  0  0  0
   38.3440   25.0880   33.7540 C   0  0  0  0  0  2  0  0  0  0  0  0
   37.8380   26.1350   32.7690 C   0  0  0  0  0  2  0  0  0  0  0  0
   38.9620   27.1460   32.6110 C   0  0  0  0  0  2  0  0  0  0  0  0
   39.9810   27.0750   33.7120 C   0  0  0  0  0  2  0  0  0  0  0  0
   39.3170   26.9250   35.0800 C   0  0  0  0  0  2  0  0  0  0  0  0
   41.2380   22.2800   36.9050 C   0  0  0  0  0  0  0  0  0  0  0  0
   41.1740   21.5180   35.7530 F   0  0  0  0  0  0  0  0  0  0  0  0
   42.3300   23.1160   36.9460 F   0  0  0  0  0  0  0  0  0  0  0  0
   41.2240   21.4060   37.9820 F   0  0  0  0  0  0  0  0  0  0  0  0
  1  2  1  0  0  0  0
  2  3  2  0  0  0  0
  2  7  1  0  0  0  0
  3  8  1  0  0  0  0
  4  3  1  0  0  0  0
  5  4  2  0  0  0  0
  6  5  1  0  0  0  0
  6  1  2  0  0  0  0
  9  5  1  0  0  0  0
 10  9  1  0  0  0  0
 11 10  1  0  0  0  0
 12 11  1  0  0  0  0
 12 13  1  0  0  0  0
 13 14  1  0  0  0  0
 14  9  1  0  0  0  0
 15 17  1  0  0  0  0
 15  1  1  0  0  0  0
 15 18  1  0  0  0  0
 16 15  1  0  0  0  0
M  END
>  <minimizedAffinity>
-4.74547482

$$$$

 OpenBabel03272500363D

 18 19  0  0  0  0  0  0  0  0999 V2000
   36.4520   25.6210   32.0990 C   0  0  0  0  0  0  0  0  0  0  0  0
   36.2720   27.0050   31.9720 C   0  0  0  0  0  0  0  0  0  0  0  0
   36.8990   27.8380   32.9130 C   0  0  0  0  0  0  0  0  0  0  0  0
   37.6420   27.2530   33.8890 N   0  0  0  0  0  0  0  0  0  0  0  0
   37.7880   25.9130   33.9720 C   0  0  0  0  0  0  0  0  0  0  0  0
   37.1920   25.1210   33.0800 N   0  0  0  0  0  0  0  0  0  0  0  0
   35.6730   27.4390   31.1820 H   0  0  0  0  0  0  0  0  0  0  0  0
   36.7960   28.9230   32.8650 H   0  0  0  0  0  0  0  0  0  0  0  0
   38.6010   25.2950   35.0430 C   0  0  0  0  0  3  0  0  0  0  0  0
   38.6970   23.7870   34.8060 C   0  0  0  0  0  2  0  0  0  0  0  0
   39.7230   23.2910   35.8170 C   0  0  0  0  0  2  0  0  0  0  0  0
   39.0480   23.3660   37.1770 C   0  0  0  0  0  2  0  0  0  0  0  0
   37.8340   24.2500   37.1870 C   0  0  0  0  0  2  0  0  0  0  0  0
   38.0810   25.5470   36.4180 C   0  0  0  0  0  2  0  0  0  0  0  0
   35.7800   24.7310   31.0940 C   0  0  0  0  0  0  0  0  0  0  0  0
   34.9040   25.4760   30.3280 F   0  0  0  0  0  0  0  0  0  0  0  0
   36.7700   24.1230   30.3550 F   0  0  0  0  0  0  0  0  0  0  0  0
   35.0290   23.8040   31.8000 F   0  0  0  0  0  0  0  0  0  0  0  0
  1  6  1  0  0  0  0
  2  1  2  0  0  0  0
  2  3  1  0  0  0  0
  3  4  2  0  0  0  0
  4  5  1  0  0  0  0
  5  9  1  0  0  0  0
  6  5  2  0  0  0  0
  7  2  1  0  0  0  0
  8  3  1  0  0  0  0
  9 14  1  0  0  0  0
 10  9  1  0  0  0  0
 10 11  1  0  0  0  0
 11 12  1  0  0  0  0
 12 13  1  0  0  0  0
 14 13  1  0  0  0  0
 15 18  1  0  0  0  0
 15  1  1  0  0  0  0
 16 15  1  0  0  0  0
 17 15  1  0  0  0  0
M  END
>  <minimizedAffinity>
-4.68048048

$$$$

 OpenBabel03272500363D

 18 19  0  0  0  0  0  0  0  0999 V2000
   37.1740   26.0030   33.0720 C   0  0  0  0  0  0  0  0  0  0  0  0
   36.9540   24.9600   32.1630 C   0  0  0  0  0  0  0  0  0  0  0  0
   37.3910   23.6740   32.5190 C   0  0  0  0  0  0  0  0  0  0  0  0
   38.0010   23.5180   33.7250 N   0  0  0  0  0  0  0  0  0  0  0  0
   38.1910   24.5530   34.5700 C   0  0  0  0  0  0  0  0  0  0  0  0
   37.7770   25.7750   34.2320 N   0  0  0  0  0  0  0  0  0  0  0  0
   36.4650   25.1180   31.2110 H   0  0  0  0  0  0  0  0  0  0  0  0
   37.2470   22.8220   31.8530 H   0  0  0  0  0  0  0  0  0  0  0  0
   38.8570   24.3630   35.8780 C   0  0  0  0  0  3  0  0  0  0  0  0
   38.9720   22.8680   36.1790 C   0  0  0  0  0  2  0  0  0  0  0  0
   39.8570   22.7790   37.4170 C   0  0  0  0  0  2  0  0  0  0  0  0
   39.0140   23.2830   38.5770 C   0  0  0  0  0  2  0  0  0  0  0  0
   37.8150   24.0740   38.1380 C   0  0  0  0  0  2  0  0  0  0  0  0
   38.1670   25.0440   37.0120 C   0  0  0  0  0  2  0  0  0  0  0  0
   36.7070   27.3770   32.6900 C   0  0  0  0  0  0  0  0  0  0  0  0
   36.4080   28.0990   33.8300 F   0  0  0  0  0  0  0  0  0  0  0  0
   37.6950   27.9500   31.9230 F   0  0  0  0  0  0  0  0  0  0  0  0
   35.5280   27.2270   31.9730 F   0  0  0  0  0  0  0  0  0  0  0  0
  1  6  1  0  0  0  0
  2  3  1  0  0  0  0
  2  1  2  0  0  0  0
  3  4  2  0  0  0  0
  4  5  1  0  0  0  0
  5  9  1  0  0  0  0
  6  5  2  0  0  0  0
  7  2  1  0  0  0  0
  8  3  1  0  0  0  0
  9 10  1  0  0  0  0
  9 14  1  0  0  0  0
 10 11  1  0  0  0  0
 11 12  1  0  0  0  0
 13 12  1  0  0  0  0
 14 13  1  0  0  0  0
 15  1  1  0  0  0  0
 15 16  1  0  0  0  0
 17 15  1  0  0  0  0
 18 15  1  0  0  0  0
M  END
>  <minimizedAffinity>
-4.6715188

$$$$

 OpenBabel03272500363D

 18 19  0  0  0  0  0  0  0  0999 V2000
   38.3220   25.1750   35.7800 C   0  0  0  0  0  0  0  0  0  0  0  0
   38.2550   24.5650   37.0400 C   0  0  0  0  0  0  0  0  0  0  0  0
   37.9710   23.1910   37.0910 C   0  0  0  0  0  0  0  0  0  0  0  0
   37.7790   22.5350   35.9150 N   0  0  0  0  0  0  0  0  0  0  0  0
   37.8550   23.1640   34.7230 C   0  0  0  0  0  0  0  0  0  0  0  0
   38.1230   24.4690   34.6730 N   0  0  0  0  0  0  0  0  0  0  0  0
   38.4120   25.1170   37.9570 H   0  0  0  0  0  0  0  0  0  0  0  0
   37.9060   22.6610   38.0420 H   0  0  0  0  0  0  0  0  0  0  0  0
   37.6430   22.4310   33.4550 C   0  0  0  0  0  3  0  0  0  0  0  0
   37.1610   23.4040   32.3770 C   0  0  0  0  0  2  0  0  0  0  0  0
   37.1900   22.6060   31.0800 C   0  0  0  0  0  2  0  0  0  0  0  0
   36.0400   21.6170   31.1650 C   0  0  0  0  0  2  0  0  0  0  0  0
   35.5300   21.4200   32.5640 C   0  0  0  0  0  2  0  0  0  0  0  0
   36.6790   21.2980   33.5650 C   0  0  0  0  0  2  0  0  0  0  0  0
   38.6250   26.6440   35.7270 C   0  0  0  0  0  0  0  0  0  0  0  0
   38.2920   27.2300   36.9340 F   0  0  0  0  0  0  0  0  0  0  0  0
   39.9550   26.7800   35.4020 F   0  0  0  0  0  0  0  0  0  0  0  0
   37.8040   27.1990   34.7560 F   0  0  0  0  0  0  0  0  0  0  0  0
  1  2  1  0  0  0  0
  2  3  2  0  0  0  0
  2  7  1  0  0  0  0
  3  8  1  0  0  0  0
  4  3  1  0  0  0  0
  5  4  2  0  0  0  0
  6  5  1  0  0  0  0
  6  1  2  0  0  0  0
  9 14  1  0  0  0  0
  9  5  1  0  0  0  0
 10  9  1  0  0  0  0
 11 12  1  0  0  0  0
 11 10  1  0  0  0  0
 12 13  1  0  0  0  0
 13 14  1  0  0  0  0
 15  1  1  0  0  0  0
 15 16  1  0  0  0  0
 17 15  1  0  0  0  0
 18 15  1  0  0  0  0
M  END
>  <minimizedAffinity>
-4.67078972

$$$$
