
 OpenBabel03272510183D

 25 27  0  0  0  0  0  0  0  0999 V2000
   37.1900   28.7400   29.5770 Br  0  0  0  0  0  0  0  0  0  0  0  0
   36.5030   29.2570   31.2800 C   0  0  0  0  0  0  0  0  0  0  0  0
   36.1490   28.2990   32.2170 C   0  0  0  0  0  0  0  0  0  0  0  0
   35.6610   28.7590   33.4250 C   0  0  0  0  0  0  0  0  0  0  0  0
   35.5050   30.0910   33.7500 C   0  0  0  0  0  0  0  0  0  0  0  0
   35.8730   31.0130   32.7770 C   0  0  0  0  0  0  0  0  0  0  0  0
   36.3680   30.5810   31.5520 C   0  0  0  0  0  0  0  0  0  0  0  0
   35.3850   28.0050   34.1580 H   0  0  0  0  0  0  0  0  0  0  0  0
   35.7740   32.0750   32.9710 H   0  0  0  0  0  0  0  0  0  0  0  0
   36.6500   31.3110   30.8070 H   0  0  0  0  0  0  0  0  0  0  0  0
   35.3590   24.9660   30.9870 C   0  0  0  0  0  0  0  0  0  0  0  0
   36.4810   24.1880   31.3480 C   0  0  0  0  0  0  0  0  0  0  0  0
   37.5100   24.8430   32.0250 C   0  0  0  0  0  0  0  0  0  0  0  0
   37.4010   26.1830   32.3070 N   0  0  0  0  0  0  0  0  0  0  0  0
   36.2910   26.8840   31.9320 C   0  0  0  0  0  0  0  0  0  0  0  0
   35.2700   26.2730   31.2710 N   0  0  0  0  0  0  0  0  0  0  0  0
   34.5610   24.4640   30.4640 H   0  0  0  0  0  0  0  0  0  0  0  0
   36.5540   23.1320   31.1190 H   0  0  0  0  0  0  0  0  0  0  0  0
   38.4040   24.3290   32.3390 H   0  0  0  0  0  0  0  0  0  0  0  0
   34.9720   30.5170   35.0700 C   0  0  0  0  0  3  0  0  0  0  0  0
   33.5710   31.0250   34.8830 C   0  0  0  0  0  2  0  0  0  0  0  0
   33.0010   31.6780   36.1020 C   0  0  0  0  0  2  0  0  0  0  0  0
   34.0290   31.9810   37.1580 C   0  0  0  0  0  2  0  0  0  0  0  0
   35.2710   32.5550   36.5290 C   0  0  0  0  0  2  0  0  0  0  0  0
   35.9190   31.5110   35.6880 C   0  0  0  0  0  2  0  0  0  0  0  0
  1  2  1  0  0  0  0
  2  7  2  0  0  0  0
  2  3  1  0  0  0  0
  3  4  2  0  0  0  0
  4  5  1  0  0  0  0
  4  8  1  0  0  0  0
  5 20  1  0  0  0  0
  6  9  1  0  0  0  0
  6  5  2  0  0  0  0
  7  6  1  0  0  0  0
 10  7  1  0  0  0  0
 11 16  2  0  0  0  0
 11 12  1  0  0  0  0
 12 13  2  0  0  0  0
 13 14  1  0  0  0  0
 13 19  1  0  0  0  0
 15  3  1  0  0  0  0
 15 14  2  0  0  0  0
 16 15  1  0  0  0  0
 17 11  1  0  0  0  0
 18 12  1  0  0  0  0
 20 25  1  0  0  0  0
 21 20  1  0  0  0  0
 21 22  1  0  0  0  0
 22 23  1  0  0  0  0
 24 23  1  0  0  0  0
 25 24  1  0  0  0  0
M  END
>  <minimizedAffinity>
-5.49010754

$$$$

 OpenBabel03272510183D

 25 27  0  0  0  0  0  0  0  0999 V2000
   34.3730   31.5230   32.2320 Br  0  0  0  0  0  0  0  0  0  0  0  0
   35.4330   30.0390   32.7900 C   0  0  0  0  0  0  0  0  0  0  0  0
   35.5300   29.7070   34.1330 C   0  0  0  0  0  0  0  0  0  0  0  0
   36.3170   28.6180   34.4510 C   0  0  0  0  0  0  0  0  0  0  0  0
   37.0040   27.8520   33.5300 C   0  0  0  0  0  0  0  0  0  0  0  0
   36.8760   28.2250   32.1970 C   0  0  0  0  0  0  0  0  0  0  0  0
   36.0900   29.3160   31.8460 C   0  0  0  0  0  0  0  0  0  0  0  0
   36.3910   28.3600   35.5050 H   0  0  0  0  0  0  0  0  0  0  0  0
   37.3900   27.6640   31.4260 H   0  0  0  0  0  0  0  0  0  0  0  0
   36.0000   29.5920   30.8050 H   0  0  0  0  0  0  0  0  0  0  0  0
   34.9460   32.1260   36.7900 C   0  0  0  0  0  0  0  0  0  0  0  0
   33.5740   31.9810   37.0950 C   0  0  0  0  0  0  0  0  0  0  0  0
   32.8630   31.0310   36.3620 C   0  0  0  0  0  0  0  0  0  0  0  0
   33.5010   30.2900   35.3970 N   0  0  0  0  0  0  0  0  0  0  0  0
   34.8310   30.4750   35.1450 C   0  0  0  0  0  0  0  0  0  0  0  0
   35.5520   31.3940   35.8440 N   0  0  0  0  0  0  0  0  0  0  0  0
   35.5000   32.8590   37.3530 H   0  0  0  0  0  0  0  0  0  0  0  0
   33.0840   32.5720   37.8580 H   0  0  0  0  0  0  0  0  0  0  0  0
   31.8130   30.8530   36.5280 H   0  0  0  0  0  0  0  0  0  0  0  0
   37.8360   26.6920   33.9420 C   0  0  0  0  0  3  0  0  0  0  0  0
   37.4160   26.2620   35.3180 C   0  0  0  0  0  2  0  0  0  0  0  0
   38.3180   25.2370   35.9290 C   0  0  0  0  0  2  0  0  0  0  0  0
   39.6230   25.0730   35.1980 C   0  0  0  0  0  2  0  0  0  0  0  0
   40.1850   26.4190   34.8230 C   0  0  0  0  0  2  0  0  0  0  0  0
   39.2910   27.0590   33.8190 C   0  0  0  0  0  2  0  0  0  0  0  0
  1  2  1  0  0  0  0
  2  3  1  0  0  0  0
  3  4  2  0  0  0  0
  3 15  1  0  0  0  0
  4  8  1  0  0  0  0
  5 20  1  0  0  0  0
  5  4  1  0  0  0  0
  6  5  2  0  0  0  0
  7  6  1  0  0  0  0
  7  2  2  0  0  0  0
  9  6  1  0  0  0  0
 10  7  1  0  0  0  0
 11 12  1  0  0  0  0
 11 17  1  0  0  0  0
 12 18  1  0  0  0  0
 13 19  1  0  0  0  0
 13 12  2  0  0  0  0
 14 13  1  0  0  0  0
 15 14  2  0  0  0  0
 15 16  1  0  0  0  0
 16 11  2  0  0  0  0
 20 21  1  0  0  0  0
 21 22  1  0  0  0  0
 23 22  1  0  0  0  0
 24 23  1  0  0  0  0
 25 20  1  0  0  0  0
 25 24  1  0  0  0  0
M  END
>  <minimizedAffinity>
-5.44090366

$$$$

 OpenBabel03272510183D

 25 27  0  0  0  0  0  0  0  0999 V2000
   36.4840   28.1990   32.1710 Br  0  0  0  0  0  0  0  0  0  0  0  0
   36.2910   26.3210   31.8940 C   0  0  0  0  0  0  0  0  0  0  0  0
   37.1800   25.4280   32.4720 C   0  0  0  0  0  0  0  0  0  0  0  0
   36.9680   24.0870   32.2210 C   0  0  0  0  0  0  0  0  0  0  0  0
   35.9440   23.5880   31.4420 C   0  0  0  0  0  0  0  0  0  0  0  0
   35.0800   24.5230   30.8840 C   0  0  0  0  0  0  0  0  0  0  0  0
   35.2670   25.8800   31.1180 C   0  0  0  0  0  0  0  0  0  0  0  0
   37.6660   23.3890   32.6770 H   0  0  0  0  0  0  0  0  0  0  0  0
   34.2550   24.1940   30.2620 H   0  0  0  0  0  0  0  0  0  0  0  0
   34.5850   26.5930   30.6770 H   0  0  0  0  0  0  0  0  0  0  0  0
   40.5260   26.4950   33.4300 C   0  0  0  0  0  0  0  0  0  0  0  0
   40.4180   26.7790   34.8090 C   0  0  0  0  0  0  0  0  0  0  0  0
   39.1650   26.5920   35.3940 C   0  0  0  0  0  0  0  0  0  0  0  0
   38.1110   26.1520   34.6320 N   0  0  0  0  0  0  0  0  0  0  0  0
   38.2750   25.8940   33.3010 C   0  0  0  0  0  0  0  0  0  0  0  0
   39.4850   26.0660   32.7010 N   0  0  0  0  0  0  0  0  0  0  0  0
   41.4910   26.6380   32.9730 H   0  0  0  0  0  0  0  0  0  0  0  0
   41.2570   27.1250   35.3980 H   0  0  0  0  0  0  0  0  0  0  0  0
   38.9910   26.7840   36.4400 H   0  0  0  0  0  0  0  0  0  0  0  0
   35.7740   22.1290   31.2120 C   0  0  0  0  0  3  0  0  0  0  0  0
   35.0460   21.5380   32.3850 C   0  0  0  0  0  2  0  0  0  0  0  0
   34.9980   20.0430   32.3710 C   0  0  0  0  0  2  0  0  0  0  0  0
   35.9430   19.4210   31.3790 C   0  0  0  0  0  2  0  0  0  0  0  0
   37.2790   20.1150   31.4220 C   0  0  0  0  0  2  0  0  0  0  0  0
   37.1190   21.5130   30.9360 C   0  0  0  0  0  2  0  0  0  0  0  0
  2  1  1  0  0  0  0
  2  3  1  0  0  0  0
  3 15  1  0  0  0  0
  4  3  2  0  0  0  0
  4  8  1  0  0  0  0
  5  4  1  0  0  0  0
  6  7  1  0  0  0  0
  6  5  2  0  0  0  0
  7  2  2  0  0  0  0
  9  6  1  0  0  0  0
 10  7  1  0  0  0  0
 11 12  1  0  0  0  0
 12 13  2  0  0  0  0
 12 18  1  0  0  0  0
 13 19  1  0  0  0  0
 14 13  1  0  0  0  0
 15 14  2  0  0  0  0
 16 15  1  0  0  0  0
 16 11  2  0  0  0  0
 17 11  1  0  0  0  0
 20  5  1  0  0  0  0
 20 21  1  0  0  0  0
 22 21  1  0  0  0  0
 23 24  1  0  0  0  0
 23 22  1  0  0  0  0
 25 20  1  0  0  0  0
 25 24  1  0  0  0  0
M  END
>  <minimizedAffinity>
-5.38435078

$$$$

 OpenBabel03272510183D

 25 27  0  0  0  0  0  0  0  0999 V2000
   36.0750   27.0180   31.7490 Br  0  0  0  0  0  0  0  0  0  0  0  0
   36.3000   25.1280   31.8710 C   0  0  0  0  0  0  0  0  0  0  0  0
   37.2410   24.5840   32.7330 C   0  0  0  0  0  0  0  0  0  0  0  0
   37.3380   23.2060   32.7590 C   0  0  0  0  0  0  0  0  0  0  0  0
   36.5710   22.3510   31.9940 C   0  0  0  0  0  0  0  0  0  0  0  0
   35.6420   22.9450   31.1460 C   0  0  0  0  0  0  0  0  0  0  0  0
   35.5200   24.3290   31.0970 C   0  0  0  0  0  0  0  0  0  0  0  0
   38.0760   22.7830   33.4360 H   0  0  0  0  0  0  0  0  0  0  0  0
   35.0100   22.3280   30.5190 H   0  0  0  0  0  0  0  0  0  0  0  0
   34.7940   24.7730   30.4330 H   0  0  0  0  0  0  0  0  0  0  0  0
   38.3660   26.5010   35.6140 C   0  0  0  0  0  0  0  0  0  0  0  0
   39.6050   27.0450   35.2070 C   0  0  0  0  0  0  0  0  0  0  0  0
   40.0350   26.7320   33.9170 C   0  0  0  0  0  0  0  0  0  0  0  0
   39.2650   25.9300   33.1120 N   0  0  0  0  0  0  0  0  0  0  0  0
   38.0750   25.4320   33.5610 C   0  0  0  0  0  0  0  0  0  0  0  0
   37.6270   25.7190   34.8140 N   0  0  0  0  0  0  0  0  0  0  0  0
   38.0290   26.7390   36.6090 H   0  0  0  0  0  0  0  0  0  0  0  0
   40.2020   27.6760   35.8520 H   0  0  0  0  0  0  0  0  0  0  0  0
   40.9670   27.1030   33.5220 H   0  0  0  0  0  0  0  0  0  0  0  0
   36.7280   20.8760   32.0720 C   0  0  0  0  0  3  0  0  0  0  0  0
   36.5690   20.3010   30.6940 C   0  0  0  0  0  2  0  0  0  0  0  0
   36.4980   18.8070   30.6710 C   0  0  0  0  0  2  0  0  0  0  0  0
   36.2810   18.1940   32.0280 C   0  0  0  0  0  2  0  0  0  0  0  0
   35.2400   18.9690   32.7920 C   0  0  0  0  0  2  0  0  0  0  0  0
   35.7660   20.3290   33.0920 C   0  0  0  0  0  2  0  0  0  0  0  0
  1  2  1  0  0  0  0
  2  3  1  0  0  0  0
  3  4  2  0  0  0  0
  3 15  1  0  0  0  0
  4  8  1  0  0  0  0
  5 20  1  0  0  0  0
  5  4  1  0  0  0  0
  6  5  2  0  0  0  0
  7  6  1  0  0  0  0
  7  2  2  0  0  0  0
  9  6  1  0  0  0  0
 10  7  1  0  0  0  0
 11 17  1  0  0  0  0
 12 11  1  0  0  0  0
 12 18  1  0  0  0  0
 13 12  2  0  0  0  0
 14 15  2  0  0  0  0
 14 13  1  0  0  0  0
 15 16  1  0  0  0  0
 16 11  2  0  0  0  0
 19 13  1  0  0  0  0
 20 25  1  0  0  0  0
 21 20  1  0  0  0  0
 22 21  1  0  0  0  0
 22 23  1  0  0  0  0
 23 24  1  0  0  0  0
 24 25  1  0  0  0  0
M  END
>  <minimizedAffinity>
-5.36424541

$$$$

 OpenBabel03272510183D

 25 27  0  0  0  0  0  0  0  0999 V2000
   39.5080   26.7290   35.0800 Br  0  0  0  0  0  0  0  0  0  0  0  0
   38.7360   25.3620   33.9960 C   0  0  0  0  0  0  0  0  0  0  0  0
   38.3580   24.1490   34.5530 C   0  0  0  0  0  0  0  0  0  0  0  0
   37.8070   23.2160   33.6970 C   0  0  0  0  0  0  0  0  0  0  0  0
   37.6130   23.4110   32.3440 C   0  0  0  0  0  0  0  0  0  0  0  0
   38.0080   24.6420   31.8340 C   0  0  0  0  0  0  0  0  0  0  0  0
   38.5660   25.6030   32.6700 C   0  0  0  0  0  0  0  0  0  0  0  0
   37.5120   22.2660   34.1360 H   0  0  0  0  0  0  0  0  0  0  0  0
   37.8820   24.8570   30.7790 H   0  0  0  0  0  0  0  0  0  0  0  0
   38.8670   26.5550   32.2570 H   0  0  0  0  0  0  0  0  0  0  0  0
   39.8380   22.9020   37.6350 C   0  0  0  0  0  0  0  0  0  0  0  0
   38.9550   23.3420   38.6460 C   0  0  0  0  0  0  0  0  0  0  0  0
   37.8430   24.0760   38.2350 C   0  0  0  0  0  0  0  0  0  0  0  0
   37.6490   24.3390   36.9010 N   0  0  0  0  0  0  0  0  0  0  0  0
   38.5380   23.8880   35.9670 C   0  0  0  0  0  0  0  0  0  0  0  0
   39.6330   23.1680   36.3370 N   0  0  0  0  0  0  0  0  0  0  0  0
   40.6990   22.3350   37.9480 H   0  0  0  0  0  0  0  0  0  0  0  0
   39.1200   23.1280   39.6940 H   0  0  0  0  0  0  0  0  0  0  0  0
   37.1170   24.4520   38.9370 H   0  0  0  0  0  0  0  0  0  0  0  0
   37.0140   22.3610   31.4800 C   0  0  0  0  0  3  0  0  0  0  0  0
   35.9080   21.6850   32.2380 C   0  0  0  0  0  2  0  0  0  0  0  0
   35.3650   20.4710   31.5550 C   0  0  0  0  0  2  0  0  0  0  0  0
   36.2260   19.9840   30.4210 C   0  0  0  0  0  2  0  0  0  0  0  0
   37.6800   20.0200   30.8150 C   0  0  0  0  0  2  0  0  0  0  0  0
   38.1000   21.4360   31.0020 C   0  0  0  0  0  2  0  0  0  0  0  0
  2  3  1  0  0  0  0
  2  1  1  0  0  0  0
  3 15  1  0  0  0  0
  4  8  1  0  0  0  0
  4  3  2  0  0  0  0
  5  4  1  0  0  0  0
  6  5  2  0  0  0  0
  6  7  1  0  0  0  0
  7  2  2  0  0  0  0
  9  6  1  0  0  0  0
 10  7  1  0  0  0  0
 11 17  1  0  0  0  0
 11 12  1  0  0  0  0
 12 18  1  0  0  0  0
 13 12  2  0  0  0  0
 13 19  1  0  0  0  0
 14 13  1  0  0  0  0
 15 16  1  0  0  0  0
 15 14  2  0  0  0  0
 16 11  2  0  0  0  0
 20 21  1  0  0  0  0
 20  5  1  0  0  0  0
 22 21  1  0  0  0  0
 23 24  1  0  0  0  0
 23 22  1  0  0  0  0
 24 25  1  0  0  0  0
 25 20  1  0  0  0  0
M  END
>  <minimizedAffinity>
-5.25785017

$$$$

 OpenBabel03272510183D

 25 27  0  0  0  0  0  0  0  0999 V2000
   37.5590   28.6460   29.5060 Br  0  0  0  0  0  0  0  0  0  0  0  0
   36.7020   29.4700   30.9980 C   0  0  0  0  0  0  0  0  0  0  0  0
   36.1500   28.6970   32.0090 C   0  0  0  0  0  0  0  0  0  0  0  0
   35.5490   29.3740   33.0530 C   0  0  0  0  0  0  0  0  0  0  0  0
   35.4620   30.7480   33.1490 C   0  0  0  0  0  0  0  0  0  0  0  0
   36.0290   31.4780   32.1110 C   0  0  0  0  0  0  0  0  0  0  0  0
   36.6420   30.8260   31.0470 C   0  0  0  0  0  0  0  0  0  0  0  0
   35.1180   28.7660   33.8440 H   0  0  0  0  0  0  0  0  0  0  0  0
   35.9940   32.5610   32.1280 H   0  0  0  0  0  0  0  0  0  0  0  0
   37.0780   31.4090   30.2480 H   0  0  0  0  0  0  0  0  0  0  0  0
   37.2850   25.3020   32.6680 C   0  0  0  0  0  0  0  0  0  0  0  0
   36.3990   24.4900   31.9260 C   0  0  0  0  0  0  0  0  0  0  0  0
   35.4060   25.1460   31.1960 C   0  0  0  0  0  0  0  0  0  0  0  0
   35.3260   26.5160   31.2240 N   0  0  0  0  0  0  0  0  0  0  0  0
   36.2110   27.2500   31.9620 C   0  0  0  0  0  0  0  0  0  0  0  0
   37.1910   26.6400   32.6840 N   0  0  0  0  0  0  0  0  0  0  0  0
   38.0530   24.8020   33.2330 H   0  0  0  0  0  0  0  0  0  0  0  0
   36.4740   23.4110   31.9130 H   0  0  0  0  0  0  0  0  0  0  0  0
   34.6870   24.6070   30.6020 H   0  0  0  0  0  0  0  0  0  0  0  0
   34.7980   31.4120   34.3010 C   0  0  0  0  0  3  0  0  0  0  0  0
   35.7630   31.4590   35.4510 C   0  0  0  0  0  2  0  0  0  0  0  0
   35.1460   31.9140   36.7350 C   0  0  0  0  0  2  0  0  0  0  0  0
   33.6410   31.9300   36.7060 C   0  0  0  0  0  2  0  0  0  0  0  0
   33.1180   30.6850   36.0380 C   0  0  0  0  0  2  0  0  0  0  0  0
   33.5040   30.7040   34.6000 C   0  0  0  0  0  2  0  0  0  0  0  0
  1  2  1  0  0  0  0
  2  7  2  0  0  0  0
  2  3  1  0  0  0  0
  3  4  2  0  0  0  0
  4  5  1  0  0  0  0
  4  8  1  0  0  0  0
  5 20  1  0  0  0  0
  6  9  1  0  0  0  0
  6  5  2  0  0  0  0
  7  6  1  0  0  0  0
 10  7  1  0  0  0  0
 11 16  1  0  0  0  0
 11 17  1  0  0  0  0
 12 11  2  0  0  0  0
 13 14  2  0  0  0  0
 13 12  1  0  0  0  0
 14 15  1  0  0  0  0
 15  3  1  0  0  0  0
 15 16  2  0  0  0  0
 18 12  1  0  0  0  0
 19 13  1  0  0  0  0
 20 25  1  0  0  0  0
 20 21  1  0  0  0  0
 21 22  1  0  0  0  0
 23 22  1  0  0  0  0
 24 23  1  0  0  0  0
 25 24  1  0  0  0  0
M  END
>  <minimizedAffinity>
-5.23876715

$$$$

 OpenBabel03272510183D

 25 27  0  0  0  0  0  0  0  0999 V2000
   35.1500   30.4870   31.5640 Br  0  0  0  0  0  0  0  0  0  0  0  0
   36.1330   29.1470   32.5000 C   0  0  0  0  0  0  0  0  0  0  0  0
   35.9490   28.9590   33.8620 C   0  0  0  0  0  0  0  0  0  0  0  0
   36.7010   27.9670   34.4610 C   0  0  0  0  0  0  0  0  0  0  0  0
   37.6090   27.1650   33.8000 C   0  0  0  0  0  0  0  0  0  0  0  0
   37.7580   27.3930   32.4370 C   0  0  0  0  0  0  0  0  0  0  0  0
   37.0160   28.3830   31.8050 C   0  0  0  0  0  0  0  0  0  0  0  0
   36.5540   27.8220   35.5280 H   0  0  0  0  0  0  0  0  0  0  0  0
   38.4560   26.7960   31.8610 H   0  0  0  0  0  0  0  0  0  0  0  0
   37.1440   28.5460   30.7440 H   0  0  0  0  0  0  0  0  0  0  0  0
   34.6630   31.6490   35.9490 C   0  0  0  0  0  0  0  0  0  0  0  0
   33.2820   31.3750   36.0560 C   0  0  0  0  0  0  0  0  0  0  0  0
   32.8120   30.2420   35.3910 C   0  0  0  0  0  0  0  0  0  0  0  0
   33.6820   29.4560   34.6760 N   0  0  0  0  0  0  0  0  0  0  0  0
   35.0090   29.7720   34.6080 C   0  0  0  0  0  0  0  0  0  0  0  0
   35.4980   30.8700   35.2460 N   0  0  0  0  0  0  0  0  0  0  0  0
   35.0320   32.5230   36.4610 H   0  0  0  0  0  0  0  0  0  0  0  0
   32.6080   32.0040   36.6230 H   0  0  0  0  0  0  0  0  0  0  0  0
   31.7730   29.9560   35.4180 H   0  0  0  0  0  0  0  0  0  0  0  0
   38.3870   26.1150   34.5080 C   0  0  0  0  0  3  0  0  0  0  0  0
   38.0230   24.7760   33.9340 C   0  0  0  0  0  2  0  0  0  0  0  0
   38.5810   23.6210   34.7020 C   0  0  0  0  0  2  0  0  0  0  0  0
   39.1190   24.0020   36.0550 C   0  0  0  0  0  2  0  0  0  0  0  0
   38.1790   24.9580   36.7410 C   0  0  0  0  0  2  0  0  0  0  0  0
   38.1550   26.2440   35.9900 C   0  0  0  0  0  2  0  0  0  0  0  0
  1  2  1  0  0  0  0
  2  3  1  0  0  0  0
  3  4  2  0  0  0  0
  3 15  1  0  0  0  0
  4  8  1  0  0  0  0
  5  4  1  0  0  0  0
  5 20  1  0  0  0  0
  6  5  2  0  0  0  0
  7  6  1  0  0  0  0
  7  2  2  0  0  0  0
  9  6  1  0  0  0  0
 10  7  1  0  0  0  0
 11 12  1  0  0  0  0
 11 17  1  0  0  0  0
 12 18  1  0  0  0  0
 13 19  1  0  0  0  0
 13 12  2  0  0  0  0
 14 13  1  0  0  0  0
 15 14  2  0  0  0  0
 15 16  1  0  0  0  0
 16 11  2  0  0  0  0
 20 25  1  0  0  0  0
 21 20  1  0  0  0  0
 21 22  1  0  0  0  0
 22 23  1  0  0  0  0
 23 24  1  0  0  0  0
 25 24  1  0  0  0  0
M  END
>  <minimizedAffinity>
-5.18948078

$$$$

 OpenBabel03272510183D

 25 27  0  0  0  0  0  0  0  0999 V2000
   37.5950   28.3310   29.9770 Br  0  0  0  0  0  0  0  0  0  0  0  0
   36.7830   28.9500   31.5890 C   0  0  0  0  0  0  0  0  0  0  0  0
   36.7200   28.1310   32.7060 C   0  0  0  0  0  0  0  0  0  0  0  0
   36.1160   28.6580   33.8310 C   0  0  0  0  0  0  0  0  0  0  0  0
   35.5790   29.9270   33.9110 C   0  0  0  0  0  0  0  0  0  0  0  0
   35.6670   30.7090   32.7650 C   0  0  0  0  0  0  0  0  0  0  0  0
   36.2690   30.2070   31.6170 C   0  0  0  0  0  0  0  0  0  0  0  0
   36.0680   28.0140   34.7050 H   0  0  0  0  0  0  0  0  0  0  0  0
   35.2640   31.7150   32.7630 H   0  0  0  0  0  0  0  0  0  0  0  0
   36.3290   30.8290   30.7350 H   0  0  0  0  0  0  0  0  0  0  0  0
   39.1150   25.4120   33.0390 C   0  0  0  0  0  0  0  0  0  0  0  0
   38.3890   24.2610   32.6610 C   0  0  0  0  0  0  0  0  0  0  0  0
   37.0580   24.4510   32.2890 C   0  0  0  0  0  0  0  0  0  0  0  0
   36.5150   25.7130   32.3050 N   0  0  0  0  0  0  0  0  0  0  0  0
   37.2670   26.7890   32.6810 C   0  0  0  0  0  0  0  0  0  0  0  0
   38.5680   26.6360   33.0480 N   0  0  0  0  0  0  0  0  0  0  0  0
   40.1440   25.2710   33.3270 H   0  0  0  0  0  0  0  0  0  0  0  0
   38.8300   23.2730   32.6530 H   0  0  0  0  0  0  0  0  0  0  0  0
   36.4280   23.6310   31.9860 H   0  0  0  0  0  0  0  0  0  0  0  0
   34.9420   30.4310   35.1550 C   0  0  0  0  0  3  0  0  0  0  0  0
   33.6070   31.0250   34.8070 C   0  0  0  0  0  2  0  0  0  0  0  0
   32.9590   31.7530   35.9410 C   0  0  0  0  0  2  0  0  0  0  0  0
   33.8890   32.0220   37.0920 C   0  0  0  0  0  2  0  0  0  0  0  0
   35.2280   32.4900   36.5850 C   0  0  0  0  0  2  0  0  0  0  0  0
   35.8860   31.3780   35.8450 C   0  0  0  0  0  2  0  0  0  0  0  0
  1  2  1  0  0  0  0
  2  7  2  0  0  0  0
  2  3  1  0  0  0  0
  3  4  2  0  0  0  0
  4  5  1  0  0  0  0
  4  8  1  0  0  0  0
  5 20  1  0  0  0  0
  6  5  2  0  0  0  0
  7  6  1  0  0  0  0
  9  6  1  0  0  0  0
 10  7  1  0  0  0  0
 11 16  1  0  0  0  0
 11 17  1  0  0  0  0
 12 11  2  0  0  0  0
 13 14  2  0  0  0  0
 13 12  1  0  0  0  0
 14 15  1  0  0  0  0
 15  3  1  0  0  0  0
 15 16  2  0  0  0  0
 18 12  1  0  0  0  0
 19 13  1  0  0  0  0
 20 25  1  0  0  0  0
 21 20  1  0  0  0  0
 21 22  1  0  0  0  0
 22 23  1  0  0  0  0
 24 23  1  0  0  0  0
 25 24  1  0  0  0  0
M  END
>  <minimizedAffinity>
-5.17962837

$$$$

 OpenBabel03272510183D

 25 27  0  0  0  0  0  0  0  0999 V2000
   37.9760   26.8900   31.0200 Br  0  0  0  0  0  0  0  0  0  0  0  0
   37.0010   28.0810   32.1470 C   0  0  0  0  0  0  0  0  0  0  0  0
   37.0720   27.9630   33.5270 C   0  0  0  0  0  0  0  0  0  0  0  0
   36.3350   28.8650   34.2680 C   0  0  0  0  0  0  0  0  0  0  0  0
   35.5440   29.8600   33.7300 C   0  0  0  0  0  0  0  0  0  0  0  0
   35.5050   29.9370   32.3430 C   0  0  0  0  0  0  0  0  0  0  0  0
   36.2360   29.0430   31.5690 C   0  0  0  0  0  0  0  0  0  0  0  0
   36.3930   28.7700   35.3500 H   0  0  0  0  0  0  0  0  0  0  0  0
   34.9020   30.6970   31.8590 H   0  0  0  0  0  0  0  0  0  0  0  0
   36.1950   29.1170   30.4920 H   0  0  0  0  0  0  0  0  0  0  0  0
   39.9640   26.3380   35.0250 C   0  0  0  0  0  0  0  0  0  0  0  0
   39.5100   25.0380   35.3350 C   0  0  0  0  0  0  0  0  0  0  0  0
   38.1850   24.7410   35.0130 C   0  0  0  0  0  0  0  0  0  0  0  0
   37.3910   25.6940   34.4250 N   0  0  0  0  0  0  0  0  0  0  0  0
   37.8870   26.9370   34.1490 C   0  0  0  0  0  0  0  0  0  0  0  0
   39.1750   27.2570   34.4500 N   0  0  0  0  0  0  0  0  0  0  0  0
   40.9870   26.5730   35.2710 H   0  0  0  0  0  0  0  0  0  0  0  0
   40.1460   24.2960   35.7990 H   0  0  0  0  0  0  0  0  0  0  0  0
   37.7530   23.7740   35.2140 H   0  0  0  0  0  0  0  0  0  0  0  0
   34.7750   30.7990   34.5880 C   0  0  0  0  0  3  0  0  0  0  0  0
   35.6250   31.1840   35.7640 C   0  0  0  0  0  2  0  0  0  0  0  0
   34.8890   31.9590   36.8100 C   0  0  0  0  0  2  0  0  0  0  0  0
   33.3940   31.9300   36.6390 C   0  0  0  0  0  2  0  0  0  0  0  0
   32.9350   30.5380   36.2950 C   0  0  0  0  0  2  0  0  0  0  0  0
   33.4560   30.1700   34.9500 C   0  0  0  0  0  2  0  0  0  0  0  0
  1  2  1  0  0  0  0
  2  3  1  0  0  0  0
  3 15  1  0  0  0  0
  3  4  2  0  0  0  0
  4  8  1  0  0  0  0
  5  4  1  0  0  0  0
  5 20  1  0  0  0  0
  6  5  2  0  0  0  0
  7  2  2  0  0  0  0
  7  6  1  0  0  0  0
  9  6  1  0  0  0  0
 10  7  1  0  0  0  0
 11 17  1  0  0  0  0
 11 12  1  0  0  0  0
 12 18  1  0  0  0  0
 13 19  1  0  0  0  0
 13 12  2  0  0  0  0
 14 13  1  0  0  0  0
 15 14  2  0  0  0  0
 15 16  1  0  0  0  0
 16 11  2  0  0  0  0
 20 25  1  0  0  0  0
 20 21  1  0  0  0  0
 21 22  1  0  0  0  0
 23 22  1  0  0  0  0
 24 23  1  0  0  0  0
 25 24  1  0  0  0  0
M  END
>  <minimizedAffinity>
-5.14450312

$$$$
