
 OpenBabel03272508393D

 29 31  0  0  1  0  0  0  0  0999 V2000
   37.7600   23.1970   32.6330 N   0  0  0  0  0  0  0  0  0  0  0  0
   37.6380   22.6350   33.9720 C   0  0  0  0  0  0  0  0  0  0  0  0
   38.9300   22.4270   34.6670 C   0  0  1  0  0  0  0  0  0  0  0  0
   40.0130   22.0580   33.8420 N   0  0  0  0  0  0  0  0  0  0  0  0
   40.0970   22.8730   32.6280 C   0  0  0  0  0  0  0  0  0  0  0  0
   38.8120   22.5590   31.8950 C   0  0  0  0  0  0  0  0  0  0  0  0
   37.1700   21.6260   33.8040 H   0  0  0  0  0  0  0  0  0  0  0  0
   36.9150   23.2510   34.4910 H   0  0  0  0  0  0  0  0  0  0  0  0
   38.7790   21.5920   35.4050 H   0  0  0  0  0  0  0  0  0  0  0  0
   39.8870   21.0660   33.4890 H   0  0  0  0  0  0  0  0  0  0  0  0
   40.9580   22.5150   32.0250 H   0  0  0  0  0  0  0  0  0  0  0  0
   40.1480   23.9440   32.8670 H   0  0  0  0  0  0  0  0  0  0  0  0
   38.8530   22.9200   30.8410 H   0  0  0  0  0  0  0  0  0  0  0  0
   38.6610   21.4600   31.8530 H   0  0  0  0  0  0  0  0  0  0  0  0
   36.9270   24.2440   32.1550 C   0  0  0  0  0  0  0  0  0  0  0  0
   35.7980   24.0110   31.3460 C   0  0  0  0  0  0  0  0  0  0  0  0
   35.0350   25.0910   30.9190 C   0  0  0  0  0  0  0  0  0  0  0  0
   35.4200   26.3440   31.3110 N   0  0  0  0  0  0  0  0  0  0  0  0
   36.5100   26.5280   32.0880 C   0  0  0  0  0  0  0  0  0  0  0  0
   37.2690   25.5040   32.5170 N   0  0  0  0  0  0  0  0  0  0  0  0
   35.6180   22.9880   31.1190 H   0  0  0  0  0  0  0  0  0  0  0  0
   34.1750   24.8830   30.3000 H   0  0  0  0  0  0  0  0  0  0  0  0
   36.7040   27.5570   32.3250 H   0  0  0  0  0  0  0  0  0  0  0  0
   39.3880   23.6080   35.4880 C   0  0  0  0  0  3  0  0  0  0  0  0
   38.3250   24.2590   36.2910 C   0  0  0  0  0  2  0  0  0  0  0  0
   37.8970   23.3890   37.4740 C   0  0  0  0  0  2  0  0  0  0  0  0
   39.1120   23.3050   38.3780 C   0  0  0  0  0  2  0  0  0  0  0  0
   40.1450   22.4960   37.6020 C   0  0  0  0  0  2  0  0  0  0  0  0
   40.5610   23.2490   36.3610 C   0  0  0  0  0  2  0  0  0  0  0  0
  1  2  1  0  0  0  0
  2  8  1  0  0  0  0
  2  3  1  0  0  0  0
  3  9  1  1  0  0  0
  3 24  1  0  0  0  0
  4  3  1  0  0  0  0
  5 12  1  0  0  0  0
  5  4  1  0  0  0  0
  6  5  1  0  0  0  0
  6  1  1  0  0  0  0
  7  2  1  0  0  0  0
 10  4  1  0  0  0  0
 11  5  1  0  0  0  0
 13  6  1  0  0  0  0
 14  6  1  0  0  0  0
 15 20  1  0  0  0  0
 15  1  1  0  0  0  0
 16 15  2  0  0  0  0
 17 18  2  0  0  0  0
 17 16  1  0  0  0  0
 18 19  1  0  0  0  0
 19 23  1  0  0  0  0
 19 20  2  0  0  0  0
 21 16  1  0  0  0  0
 22 17  1  0  0  0  0
 24 25  1  0  0  0  0
 24 29  1  0  0  0  0
 25 26  1  0  0  0  0
 26 27  1  0  0  0  0
 28 27  1  0  0  0  0
 29 28  1  0  0  0  0
M  END
>  <minimizedAffinity>
-4.82040167

$$$$

 OpenBabel03272508393D

 29 31  0  0  1  0  0  0  0  0999 V2000
   37.9280   24.3510   33.9070 N   0  0  0  0  0  0  0  0  0  0  0  0
   37.8050   23.2970   32.9090 C   0  0  0  0  0  0  0  0  0  0  0  0
   37.4150   21.9780   33.4590 C   0  0  1  0  0  0  0  0  0  0  0  0
   37.9200   21.6800   34.7420 N   0  0  0  0  0  0  0  0  0  0  0  0
   37.7740   22.7980   35.6760 C   0  0  0  0  0  0  0  0  0  0  0  0
   38.6300   23.8880   35.0700 C   0  0  0  0  0  0  0  0  0  0  0  0
   38.8410   23.2010   32.4820 H   0  0  0  0  0  0  0  0  0  0  0  0
   37.1640   23.6940   32.1310 H   0  0  0  0  0  0  0  0  0  0  0  0
   37.8150   21.1950   32.7580 H   0  0  0  0  0  0  0  0  0  0  0  0
   38.9640   21.5060   34.6970 H   0  0  0  0  0  0  0  0  0  0  0  0
   38.2060   22.4970   36.6540 H   0  0  0  0  0  0  0  0  0  0  0  0
   36.7280   23.1290   35.7460 H   0  0  0  0  0  0  0  0  0  0  0  0
   38.8080   24.7110   35.8000 H   0  0  0  0  0  0  0  0  0  0  0  0
   39.6250   23.4770   34.7990 H   0  0  0  0  0  0  0  0  0  0  0  0
   37.4070   25.6600   33.7190 C   0  0  0  0  0  0  0  0  0  0  0  0
   37.2890   26.5920   34.7690 C   0  0  0  0  0  0  0  0  0  0  0  0
   36.7680   27.8520   34.5020 C   0  0  0  0  0  0  0  0  0  0  0  0
   36.3900   28.1310   33.2160 N   0  0  0  0  0  0  0  0  0  0  0  0
   36.5180   27.2110   32.2370 C   0  0  0  0  0  0  0  0  0  0  0  0
   37.0180   25.9830   32.4630 N   0  0  0  0  0  0  0  0  0  0  0  0
   37.6220   26.2390   35.7150 H   0  0  0  0  0  0  0  0  0  0  0  0
   36.6900   28.5470   35.3250 H   0  0  0  0  0  0  0  0  0  0  0  0
   36.1860   27.5540   31.2740 H   0  0  0  0  0  0  0  0  0  0  0  0
   35.9240   21.7440   33.5100 C   0  0  0  0  0  3  0  0  0  0  0  0
   35.2150   21.9610   32.2260 C   0  0  0  0  0  2  0  0  0  0  0  0
   35.5230   20.8540   31.2160 C   0  0  0  0  0  2  0  0  0  0  0  0
   34.9370   19.5880   31.8090 C   0  0  0  0  0  2  0  0  0  0  0  0
   35.7770   19.2860   33.0450 C   0  0  0  0  0  2  0  0  0  0  0  0
   35.6000   20.3850   34.0670 C   0  0  0  0  0  2  0  0  0  0  0  0
  1  6  1  0  0  0  0
  2  3  1  0  0  0  0
  2  1  1  0  0  0  0
  3  9  1  6  0  0  0
  3 24  1  0  0  0  0
  3  4  1  0  0  0  0
  4  5  1  0  0  0  0
  5 12  1  0  0  0  0
  5 11  1  0  0  0  0
  6  5  1  0  0  0  0
  6 13  1  0  0  0  0
  7  2  1  0  0  0  0
  8  2  1  0  0  0  0
 10  4  1  0  0  0  0
 14  6  1  0  0  0  0
 15  1  1  0  0  0  0
 15 16  1  0  0  0  0
 16 21  1  0  0  0  0
 17 16  2  0  0  0  0
 17 22  1  0  0  0  0
 18 17  1  0  0  0  0
 19 20  1  0  0  0  0
 19 18  2  0  0  0  0
 20 15  2  0  0  0  0
 23 19  1  0  0  0  0
 24 29  1  0  0  0  0
 25 24  1  0  0  0  0
 26 27  1  0  0  0  0
 26 25  1  0  0  0  0
 27 28  1  0  0  0  0
 28 29  1  0  0  0  0
M  END
>  <minimizedAffinity>
-4.65185785

$$$$

 OpenBabel03272508393D

 29 31  0  0  1  0  0  0  0  0999 V2000
   37.4820   25.5310   32.3700 N   0  0  0  0  0  0  0  0  0  0  0  0
   36.4310   24.5740   32.0480 C   0  0  0  0  0  0  0  0  0  0  0  0
   36.8410   23.5140   31.0980 C   0  0  1  0  0  0  0  0  0  0  0  0
   37.7650   23.9080   30.1080 N   0  0  0  0  0  0  0  0  0  0  0  0
   38.8700   24.6980   30.6530 C   0  0  0  0  0  0  0  0  0  0  0  0
   38.1930   25.9390   31.1920 C   0  0  0  0  0  0  0  0  0  0  0  0
   35.6370   25.1960   31.5500 H   0  0  0  0  0  0  0  0  0  0  0  0
   36.0360   24.2320   32.9970 H   0  0  0  0  0  0  0  0  0  0  0  0
   35.9120   23.1700   30.5640 H   0  0  0  0  0  0  0  0  0  0  0  0
   37.3000   24.5490   29.4030 H   0  0  0  0  0  0  0  0  0  0  0  0
   39.5430   24.9840   29.8170 H   0  0  0  0  0  0  0  0  0  0  0  0
   39.3850   24.1630   31.4630 H   0  0  0  0  0  0  0  0  0  0  0  0
   38.9370   26.7380   31.4150 H   0  0  0  0  0  0  0  0  0  0  0  0
   37.4990   26.3500   30.4290 H   0  0  0  0  0  0  0  0  0  0  0  0
   37.7410   25.9790   33.6930 C   0  0  0  0  0  0  0  0  0  0  0  0
   37.5170   27.3070   34.1060 C   0  0  0  0  0  0  0  0  0  0  0  0
   37.7970   27.6650   35.4190 C   0  0  0  0  0  0  0  0  0  0  0  0
   38.2820   26.6990   36.2590 N   0  0  0  0  0  0  0  0  0  0  0  0
   38.4850   25.4360   35.8250 C   0  0  0  0  0  0  0  0  0  0  0  0
   38.2240   25.0580   34.5610 N   0  0  0  0  0  0  0  0  0  0  0  0
   37.1370   27.9490   33.3490 H   0  0  0  0  0  0  0  0  0  0  0  0
   37.6150   28.6890   35.7090 H   0  0  0  0  0  0  0  0  0  0  0  0
   38.8690   24.7750   36.5800 H   0  0  0  0  0  0  0  0  0  0  0  0
   37.4050   22.2770   31.7550 C   0  0  0  0  0  3  0  0  0  0  0  0
   36.6850   21.8360   32.9740 C   0  0  0  0  0  2  0  0  0  0  0  0
   35.3180   21.2390   32.6400 C   0  0  0  0  0  2  0  0  0  0  0  0
   35.6080   19.9790   31.8470 C   0  0  0  0  0  2  0  0  0  0  0  0
   36.2040   20.4530   30.5260 C   0  0  0  0  0  2  0  0  0  0  0  0
   37.5250   21.1400   30.7770 C   0  0  0  0  0  2  0  0  0  0  0  0
  1 15  1  0  0  0  0
  2  1  1  0  0  0  0
  2  8  1  0  0  0  0
  3  9  1  6  0  0  0
  3 24  1  0  0  0  0
  3  2  1  0  0  0  0
  4  5  1  0  0  0  0
  4  3  1  0  0  0  0
  5  6  1  0  0  0  0
  5 12  1  0  0  0  0
  6 13  1  0  0  0  0
  6  1  1  0  0  0  0
  7  2  1  0  0  0  0
 10  4  1  0  0  0  0
 11  5  1  0  0  0  0
 14  6  1  0  0  0  0
 15 16  2  0  0  0  0
 15 20  1  0  0  0  0
 16 17  1  0  0  0  0
 17 22  1  0  0  0  0
 17 18  2  0  0  0  0
 19 18  1  0  0  0  0
 19 23  1  0  0  0  0
 20 19  2  0  0  0  0
 21 16  1  0  0  0  0
 24 25  1  0  0  0  0
 26 25  1  0  0  0  0
 27 26  1  0  0  0  0
 28 29  1  0  0  0  0
 28 27  1  0  0  0  0
 29 24  1  0  0  0  0
M  END
>  <minimizedAffinity>
-4.56369352

$$$$

 OpenBabel03272508393D

 29 31  0  0  1  0  0  0  0  0999 V2000
   34.2420   29.6340   33.2550 N   0  0  0  0  0  0  0  0  0  0  0  0
   34.3760   31.0240   33.6700 C   0  0  0  0  0  0  0  0  0  0  0  0
   33.3640   31.4660   34.6590 C   0  0  1  0  0  0  0  0  0  0  0  0
   32.0840   30.8910   34.5190 N   0  0  0  0  0  0  0  0  0  0  0  0
   32.1400   29.4430   34.3080 C   0  0  0  0  0  0  0  0  0  0  0  0
   32.8720   29.2980   32.9930 C   0  0  0  0  0  0  0  0  0  0  0  0
   34.2130   31.6100   32.7240 H   0  0  0  0  0  0  0  0  0  0  0  0
   35.4110   31.1510   33.9630 H   0  0  0  0  0  0  0  0  0  0  0  0
   33.2420   32.5770   34.5330 H   0  0  0  0  0  0  0  0  0  0  0  0
   31.6020   31.2680   33.6530 H   0  0  0  0  0  0  0  0  0  0  0  0
   31.1010   29.0660   34.1900 H   0  0  0  0  0  0  0  0  0  0  0  0
   32.6960   28.9420   35.1120 H   0  0  0  0  0  0  0  0  0  0  0  0
   32.7700   28.2650   32.5880 H   0  0  0  0  0  0  0  0  0  0  0  0
   32.4300   29.9830   32.2390 H   0  0  0  0  0  0  0  0  0  0  0  0
   35.3490   28.7510   33.1380 C   0  0  0  0  0  0  0  0  0  0  0  0
   36.1930   28.4380   34.2220 C   0  0  0  0  0  0  0  0  0  0  0  0
   37.2560   27.5660   34.0240 C   0  0  0  0  0  0  0  0  0  0  0  0
   37.4340   27.0440   32.7710 N   0  0  0  0  0  0  0  0  0  0  0  0
   36.6040   27.3690   31.7570 C   0  0  0  0  0  0  0  0  0  0  0  0
   35.5670   28.2100   31.9160 N   0  0  0  0  0  0  0  0  0  0  0  0
   35.9360   28.9150   35.1370 H   0  0  0  0  0  0  0  0  0  0  0  0
   37.8860   27.3420   34.8730 H   0  0  0  0  0  0  0  0  0  0  0  0
   36.8530   26.8940   30.8260 H   0  0  0  0  0  0  0  0  0  0  0  0
   33.7780   31.2690   36.0980 C   0  0  0  0  0  3  0  0  0  0  0  0
   35.1250   31.7870   36.4350 C   0  0  0  0  0  2  0  0  0  0  0  0
   35.1540   33.3160   36.4610 C   0  0  0  0  0  2  0  0  0  0  0  0
   34.2510   33.7210   37.6090 C   0  0  0  0  0  2  0  0  0  0  0  0
   32.8420   33.3260   37.1820 C   0  0  0  0  0  2  0  0  0  0  0  0
   32.7490   31.8240   37.0460 C   0  0  0  0  0  2  0  0  0  0  0  0
  1  2  1  0  0  0  0
  2  8  1  0  0  0  0
  2  3  1  0  0  0  0
  3  9  1  6  0  0  0
  3 24  1  0  0  0  0
  4  3  1  0  0  0  0
  5  4  1  0  0  0  0
  5 12  1  0  0  0  0
  6  1  1  0  0  0  0
  6  5  1  0  0  0  0
  7  2  1  0  0  0  0
 10  4  1  0  0  0  0
 11  5  1  0  0  0  0
 13  6  1  0  0  0  0
 14  6  1  0  0  0  0
 15  1  1  0  0  0  0
 15 16  1  0  0  0  0
 16 21  1  0  0  0  0
 17 16  2  0  0  0  0
 17 22  1  0  0  0  0
 18 17  1  0  0  0  0
 19 20  1  0  0  0  0
 19 18  2  0  0  0  0
 20 15  2  0  0  0  0
 23 19  1  0  0  0  0
 24 25  1  0  0  0  0
 24 29  1  0  0  0  0
 25 26  1  0  0  0  0
 26 27  1  0  0  0  0
 28 27  1  0  0  0  0
 29 28  1  0  0  0  0
M  END
>  <minimizedAffinity>
-4.54857302

$$$$

 OpenBabel03272508393D

 29 31  0  0  1  0  0  0  0  0999 V2000
   39.5050   23.0380   36.6950 N   0  0  0  0  0  0  0  0  0  0  0  0
   38.8010   23.5440   35.5250 C   0  0  0  0  0  0  0  0  0  0  0  0
   38.0010   24.7670   35.7750 C   0  0  1  0  0  0  0  0  0  0  0  0
   37.4060   24.8530   37.0510 N   0  0  0  0  0  0  0  0  0  0  0  0
   38.3320   24.4980   38.1280 C   0  0  0  0  0  0  0  0  0  0  0  0
   38.6620   23.0480   37.8550 C   0  0  0  0  0  0  0  0  0  0  0  0
   38.0900   22.7170   35.2520 H   0  0  0  0  0  0  0  0  0  0  0  0
   39.5400   23.6160   34.7370 H   0  0  0  0  0  0  0  0  0  0  0  0
   37.1660   24.7780   35.0210 H   0  0  0  0  0  0  0  0  0  0  0  0
   36.6150   24.1530   37.1380 H   0  0  0  0  0  0  0  0  0  0  0  0
   37.7910   24.5730   39.0950 H   0  0  0  0  0  0  0  0  0  0  0  0
   39.2430   25.1100   38.0910 H   0  0  0  0  0  0  0  0  0  0  0  0
   39.1630   22.5780   38.7340 H   0  0  0  0  0  0  0  0  0  0  0  0
   37.7270   22.4770   37.6750 H   0  0  0  0  0  0  0  0  0  0  0  0
   40.8560   22.5990   36.6540 C   0  0  0  0  0  0  0  0  0  0  0  0
   41.8820   23.3460   36.0430 C   0  0  0  0  0  0  0  0  0  0  0  0
   43.1790   22.8470   36.0460 C   0  0  0  0  0  0  0  0  0  0  0  0
   43.4000   21.6390   36.6510 N   0  0  0  0  0  0  0  0  0  0  0  0
   42.3900   20.9520   37.2270 C   0  0  0  0  0  0  0  0  0  0  0  0
   41.1250   21.4080   37.2400 N   0  0  0  0  0  0  0  0  0  0  0  0
   41.5660   24.2660   35.6130 H   0  0  0  0  0  0  0  0  0  0  0  0
   43.9460   23.4410   35.5720 H   0  0  0  0  0  0  0  0  0  0  0  0
   42.6950   20.0200   37.6650 H   0  0  0  0  0  0  0  0  0  0  0  0
   38.7550   26.0560   35.5560 C   0  0  0  0  0  3  0  0  0  0  0  0
   39.6510   26.0600   34.3740 C   0  0  0  0  0  2  0  0  0  0  0  0
   38.8620   26.1030   33.0650 C   0  0  0  0  0  2  0  0  0  0  0  0
   38.1570   27.4450   33.0600 C   0  0  0  0  0  2  0  0  0  0  0  0
   37.1250   27.3720   34.1810 C   0  0  0  0  0  2  0  0  0  0  0  0
   37.8240   27.2370   35.5130 C   0  0  0  0  0  2  0  0  0  0  0  0
  1  6  1  0  0  0  0
  2  3  1  0  0  0  0
  2  1  1  0  0  0  0
  3  9  1  6  0  0  0
  3  4  1  0  0  0  0
  4 10  1  0  0  0  0
  4  5  1  0  0  0  0
  5 11  1  0  0  0  0
  6  5  1  0  0  0  0
  6 13  1  0  0  0  0
  7  2  1  0  0  0  0
  8  2  1  0  0  0  0
 12  5  1  0  0  0  0
 14  6  1  0  0  0  0
 15  1  1  0  0  0  0
 15 20  1  0  0  0  0
 16 17  1  0  0  0  0
 16 15  2  0  0  0  0
 17 18  2  0  0  0  0
 18 19  1  0  0  0  0
 19 20  2  0  0  0  0
 19 23  1  0  0  0  0
 21 16  1  0  0  0  0
 22 17  1  0  0  0  0
 24  3  1  0  0  0  0
 25 24  1  0  0  0  0
 26 25  1  0  0  0  0
 27 26  1  0  0  0  0
 27 28  1  0  0  0  0
 28 29  1  0  0  0  0
 29 24  1  0  0  0  0
M  END
>  <minimizedAffinity>
-4.47587776

$$$$

 OpenBabel03272508393D

 29 31  0  0  1  0  0  0  0  0999 V2000
   39.0250   23.4670   34.4130 N   0  0  0  0  0  0  0  0  0  0  0  0
   37.8280   23.3500   33.5920 C   0  0  0  0  0  0  0  0  0  0  0  0
   37.9670   22.4300   32.4380 C   0  0  1  0  0  0  0  0  0  0  0  0
   39.2420   22.3960   31.8370 N   0  0  0  0  0  0  0  0  0  0  0  0
   40.3240   22.3100   32.8200 C   0  0  0  0  0  0  0  0  0  0  0  0
   40.2020   23.5980   33.6030 C   0  0  0  0  0  0  0  0  0  0  0  0
   37.6690   24.3870   33.1880 H   0  0  0  0  0  0  0  0  0  0  0  0
   37.0160   23.1330   34.2750 H   0  0  0  0  0  0  0  0  0  0  0  0
   37.2400   22.7730   31.6510 H   0  0  0  0  0  0  0  0  0  0  0  0
   39.4280   23.2990   31.3140 H   0  0  0  0  0  0  0  0  0  0  0  0
   41.2920   22.3040   32.2760 H   0  0  0  0  0  0  0  0  0  0  0  0
   40.1940   21.4450   33.4850 H   0  0  0  0  0  0  0  0  0  0  0  0
   41.1110   23.7800   34.2210 H   0  0  0  0  0  0  0  0  0  0  0  0
   40.1130   24.4560   32.9040 H   0  0  0  0  0  0  0  0  0  0  0  0
   38.9940   23.4500   35.8330 C   0  0  0  0  0  0  0  0  0  0  0  0
   39.9650   22.7870   36.6100 C   0  0  0  0  0  0  0  0  0  0  0  0
   39.8620   22.8170   37.9950 C   0  0  0  0  0  0  0  0  0  0  0  0
   38.8110   23.4970   38.5460 N   0  0  0  0  0  0  0  0  0  0  0  0
   37.8990   24.1210   37.7690 C   0  0  0  0  0  0  0  0  0  0  0  0
   37.9700   24.1100   36.4260 N   0  0  0  0  0  0  0  0  0  0  0  0
   40.7250   22.3000   36.0480 H   0  0  0  0  0  0  0  0  0  0  0  0
   40.6210   22.3010   38.5650 H   0  0  0  0  0  0  0  0  0  0  0  0
   37.1250   24.6170   38.3230 H   0  0  0  0  0  0  0  0  0  0  0  0
   37.5850   21.0000   32.7380 C   0  0  0  0  0  3  0  0  0  0  0  0
   36.3410   20.8390   33.5270 C   0  0  0  0  0  2  0  0  0  0  0  0
   35.0980   21.1730   32.7000 C   0  0  0  0  0  2  0  0  0  0  0  0
   35.0410   20.1220   31.6100 C   0  0  0  0  0  2  0  0  0  0  0  0
   36.2410   20.3960   30.7110 C   0  0  0  0  0  2  0  0  0  0  0  0
   37.5210   20.1740   31.4810 C   0  0  0  0  0  2  0  0  0  0  0  0
  1 15  1  0  0  0  0
  2  8  1  0  0  0  0
  2  1  1  0  0  0  0
  3  9  1  6  0  0  0
  3 24  1  0  0  0  0
  3  2  1  0  0  0  0
  4  3  1  0  0  0  0
  4  5  1  0  0  0  0
  5 12  1  0  0  0  0
  5  6  1  0  0  0  0
  6 13  1  0  0  0  0
  6  1  1  0  0  0  0
  7  2  1  0  0  0  0
 10  4  1  0  0  0  0
 11  5  1  0  0  0  0
 14  6  1  0  0  0  0
 15 20  2  0  0  0  0
 15 16  1  0  0  0  0
 16 17  2  0  0  0  0
 17 18  1  0  0  0  0
 17 22  1  0  0  0  0
 19 23  1  0  0  0  0
 19 18  2  0  0  0  0
 20 19  1  0  0  0  0
 21 16  1  0  0  0  0
 24 25  1  0  0  0  0
 26 25  1  0  0  0  0
 27 26  1  0  0  0  0
 28 29  1  0  0  0  0
 28 27  1  0  0  0  0
 29 24  1  0  0  0  0
M  END
>  <minimizedAffinity>
-4.46293402

$$$$

 OpenBabel03272508393D

 29 31  0  0  1  0  0  0  0  0999 V2000
   38.7970   23.0380   34.2230 N   0  0  0  0  0  0  0  0  0  0  0  0
   39.0540   24.1930   33.3720 C   0  0  0  0  0  0  0  0  0  0  0  0
   38.0380   24.4120   32.3160 C   0  0  1  0  0  0  0  0  0  0  0  0
   37.4660   23.2450   31.7690 N   0  0  0  0  0  0  0  0  0  0  0  0
   37.0810   22.2740   32.7960 C   0  0  0  0  0  0  0  0  0  0  0  0
   38.3940   21.9000   33.4480 C   0  0  0  0  0  0  0  0  0  0  0  0
   40.0290   23.9500   32.8660 H   0  0  0  0  0  0  0  0  0  0  0  0
   39.2290   25.0260   34.0410 H   0  0  0  0  0  0  0  0  0  0  0  0
   38.5460   24.9560   31.4730 H   0  0  0  0  0  0  0  0  0  0  0  0
   38.1750   22.7320   31.1710 H   0  0  0  0  0  0  0  0  0  0  0  0
   36.6580   21.3800   32.2910 H   0  0  0  0  0  0  0  0  0  0  0  0
   36.4010   22.7200   33.5340 H   0  0  0  0  0  0  0  0  0  0  0  0
   38.2830   20.9890   34.0800 H   0  0  0  0  0  0  0  0  0  0  0  0
   39.1460   21.6600   32.6680 H   0  0  0  0  0  0  0  0  0  0  0  0
   38.9370   23.0730   35.6360 C   0  0  0  0  0  0  0  0  0  0  0  0
   40.0680   22.5630   36.3030 C   0  0  0  0  0  0  0  0  0  0  0  0
   40.1280   22.6350   37.6890 C   0  0  0  0  0  0  0  0  0  0  0  0
   39.0730   23.2060   38.3490 N   0  0  0  0  0  0  0  0  0  0  0  0
   38.0050   23.6840   37.6740 C   0  0  0  0  0  0  0  0  0  0  0  0
   37.9170   23.6290   36.3330 N   0  0  0  0  0  0  0  0  0  0  0  0
   40.8110   22.1480   35.6650 H   0  0  0  0  0  0  0  0  0  0  0  0
   41.0070   22.2370   38.1750 H   0  0  0  0  0  0  0  0  0  0  0  0
   37.2470   24.1060   38.3070 H   0  0  0  0  0  0  0  0  0  0  0  0
   36.8930   25.3040   32.7350 C   0  0  0  0  0  3  0  0  0  0  0  0
   37.2800   26.4570   33.5840 C   0  0  0  0  0  2  0  0  0  0  0  0
   38.0370   27.5190   32.7850 C   0  0  0  0  0  2  0  0  0  0  0  0
   37.0390   28.0570   31.7780 C   0  0  0  0  0  2  0  0  0  0  0  0
   36.7680   26.9080   30.8140 C   0  0  0  0  0  2  0  0  0  0  0  0
   36.0970   25.7710   31.5470 C   0  0  0  0  0  2  0  0  0  0  0  0
  1 15  1  0  0  0  0
  2  8  1  0  0  0  0
  2  1  1  0  0  0  0
  3  9  1  6  0  0  0
  3 24  1  0  0  0  0
  3  2  1  0  0  0  0
  4  3  1  0  0  0  0
  4  5  1  0  0  0  0
  5  6  1  0  0  0  0
  5 12  1  0  0  0  0
  6 13  1  0  0  0  0
  6  1  1  0  0  0  0
  7  2  1  0  0  0  0
 10  4  1  0  0  0  0
 11  5  1  0  0  0  0
 14  6  1  0  0  0  0
 15 16  2  0  0  0  0
 15 20  1  0  0  0  0
 16 17  1  0  0  0  0
 17 22  1  0  0  0  0
 17 18  2  0  0  0  0
 19 23  1  0  0  0  0
 19 18  1  0  0  0  0
 20 19  2  0  0  0  0
 21 16  1  0  0  0  0
 24 25  1  0  0  0  0
 26 25  1  0  0  0  0
 27 26  1  0  0  0  0
 28 29  1  0  0  0  0
 28 27  1  0  0  0  0
 29 24  1  0  0  0  0
M  END
>  <minimizedAffinity>
-4.44622087

$$$$

 OpenBabel03272508393D

 29 31  0  0  1  0  0  0  0  0999 V2000
   39.4730   25.3250   34.6970 N   0  0  0  0  0  0  0  0  0  0  0  0
   39.1410   26.7350   34.5440 C   0  0  0  0  0  0  0  0  0  0  0  0
   38.5100   27.0780   33.2480 C   0  0  1  0  0  0  0  0  0  0  0  0
   38.9580   26.3340   32.1370 N   0  0  0  0  0  0  0  0  0  0  0  0
   39.0370   24.8990   32.4180 C   0  0  0  0  0  0  0  0  0  0  0  0
   40.0810   24.8020   33.5070 C   0  0  0  0  0  0  0  0  0  0  0  0
   40.1360   27.2580   34.5920 H   0  0  0  0  0  0  0  0  0  0  0  0
   38.5820   27.0100   35.4300 H   0  0  0  0  0  0  0  0  0  0  0  0
   38.7460   28.1570   33.0390 H   0  0  0  0  0  0  0  0  0  0  0  0
   39.9490   26.6100   31.8830 H   0  0  0  0  0  0  0  0  0  0  0  0
   39.4110   24.3840   31.5080 H   0  0  0  0  0  0  0  0  0  0  0  0
   38.0750   24.5060   32.7750 H   0  0  0  0  0  0  0  0  0  0  0  0
   40.4200   23.7490   33.6460 H   0  0  0  0  0  0  0  0  0  0  0  0
   40.9770   25.3930   33.2240 H   0  0  0  0  0  0  0  0  0  0  0  0
   39.2100   24.5930   35.8860 C   0  0  0  0  0  0  0  0  0  0  0  0
   38.1450   24.9040   36.7530 C   0  0  0  0  0  0  0  0  0  0  0  0
   37.9560   24.1380   37.8970 C   0  0  0  0  0  0  0  0  0  0  0  0
   38.8240   23.1050   38.1290 N   0  0  0  0  0  0  0  0  0  0  0  0
   39.8340   22.8380   37.2730 C   0  0  0  0  0  0  0  0  0  0  0  0
   40.0440   23.5610   36.1580 N   0  0  0  0  0  0  0  0  0  0  0  0
   37.5510   25.7310   36.4480 H   0  0  0  0  0  0  0  0  0  0  0  0
   37.1310   24.3980   38.5440 H   0  0  0  0  0  0  0  0  0  0  0  0
   40.4430   22.0040   37.5700 H   0  0  0  0  0  0  0  0  0  0  0  0
   37.0020   26.9930   33.2520 C   0  0  0  0  0  3  0  0  0  0  0  0
   36.3500   27.5420   34.4650 C   0  0  0  0  0  2  0  0  0  0  0  0
   36.4310   29.0690   34.5090 C   0  0  0  0  0  2  0  0  0  0  0  0
   35.6050   29.5540   33.3340 C   0  0  0  0  0  2  0  0  0  0  0  0
   36.3680   29.1190   32.0880 C   0  0  0  0  0  2  0  0  0  0  0  0
   36.4130   27.6110   32.0130 C   0  0  0  0  0  2  0  0  0  0  0  0
  1 15  1  0  0  0  0
  2  7  1  0  0  0  0
  2  1  1  0  0  0  0
  2  8  1  0  0  0  0
  3  9  1  6  0  0  0
  3 24  1  0  0  0  0
  3  2  1  0  0  0  0
  4  5  1  0  0  0  0
  4  3  1  0  0  0  0
  5 12  1  0  0  0  0
  5  6  1  0  0  0  0
  6 13  1  0  0  0  0
  6  1  1  0  0  0  0
 10  4  1  0  0  0  0
 11  5  1  0  0  0  0
 14  6  1  0  0  0  0
 15 20  2  0  0  0  0
 15 16  1  0  0  0  0
 16 17  2  0  0  0  0
 17 18  1  0  0  0  0
 17 22  1  0  0  0  0
 19 23  1  0  0  0  0
 19 18  2  0  0  0  0
 20 19  1  0  0  0  0
 21 16  1  0  0  0  0
 24 25  1  0  0  0  0
 25 26  1  0  0  0  0
 27 26  1  0  0  0  0
 28 27  1  0  0  0  0
 29 28  1  0  0  0  0
 29 24  1  0  0  0  0
M  END
>  <minimizedAffinity>
-4.4278307

$$$$

 OpenBabel03272508393D

 29 31  0  0  1  0  0  0  0  0999 V2000
   35.6450   29.4030   31.6580 N   0  0  0  0  0  0  0  0  0  0  0  0
   34.7620   30.3490   32.3260 C   0  0  0  0  0  0  0  0  0  0  0  0
   34.8930   30.3700   33.8020 C   0  0  1  0  0  0  0  0  0  0  0  0
   35.1850   29.1280   34.4050 N   0  0  0  0  0  0  0  0  0  0  0  0
   36.2470   28.4020   33.7070 C   0  0  0  0  0  0  0  0  0  0  0  0
   35.6640   28.1390   32.3370 C   0  0  0  0  0  0  0  0  0  0  0  0
   33.7280   29.9820   32.0770 H   0  0  0  0  0  0  0  0  0  0  0  0
   34.9040   31.2980   31.8250 H   0  0  0  0  0  0  0  0  0  0  0  0
   33.9060   30.7140   34.2180 H   0  0  0  0  0  0  0  0  0  0  0  0
   34.3430   28.4850   34.3520 H   0  0  0  0  0  0  0  0  0  0  0  0
   36.4080   27.4330   34.2260 H   0  0  0  0  0  0  0  0  0  0  0  0
   37.1600   29.0070   33.6240 H   0  0  0  0  0  0  0  0  0  0  0  0
   36.2660   27.3820   31.7830 H   0  0  0  0  0  0  0  0  0  0  0  0
   34.6400   27.7240   32.4370 H   0  0  0  0  0  0  0  0  0  0  0  0
   36.3810   29.7260   30.4860 C   0  0  0  0  0  0  0  0  0  0  0  0
   36.5640   31.0510   30.0420 C   0  0  0  0  0  0  0  0  0  0  0  0
   37.2960   31.2830   28.8840 C   0  0  0  0  0  0  0  0  0  0  0  0
   37.8130   30.2010   28.2240 N   0  0  0  0  0  0  0  0  0  0  0  0
   37.6160   28.9460   28.6810 C   0  0  0  0  0  0  0  0  0  0  0  0
   36.9110   28.6880   29.7970 N   0  0  0  0  0  0  0  0  0  0  0  0
   36.1070   31.7910   30.6530 H   0  0  0  0  0  0  0  0  0  0  0  0
   37.4210   32.3080   28.5670 H   0  0  0  0  0  0  0  0  0  0  0  0
   38.0720   28.1870   28.0720 H   0  0  0  0  0  0  0  0  0  0  0  0
   35.9120   31.3570   34.3190 C   0  0  0  0  0  3  0  0  0  0  0  0
   35.7090   32.7550   33.8670 C   0  0  0  0  0  2  0  0  0  0  0  0
   34.4970   33.3980   34.5410 C   0  0  0  0  0  2  0  0  0  0  0  0
   34.8470   33.4800   36.0140 C   0  0  0  0  0  2  0  0  0  0  0  0
   34.8970   32.0380   36.5060 C   0  0  0  0  0  2  0  0  0  0  0  0
   36.0210   31.3000   35.8190 C   0  0  0  0  0  2  0  0  0  0  0  0
  1  2  1  0  0  0  0
  1  6  1  0  0  0  0
  2  3  1  0  0  0  0
  3  9  1  1  0  0  0
  3 24  1  0  0  0  0
  3  4  1  0  0  0  0
  5 11  1  0  0  0  0
  5  4  1  0  0  0  0
  6 14  1  0  0  0  0
  6  5  1  0  0  0  0
  7  2  1  0  0  0  0
  8  2  1  0  0  0  0
 10  4  1  0  0  0  0
 12  5  1  0  0  0  0
 13  6  1  0  0  0  0
 15  1  1  0  0  0  0
 16 15  1  0  0  0  0
 16 21  1  0  0  0  0
 17 16  2  0  0  0  0
 18 19  2  0  0  0  0
 18 17  1  0  0  0  0
 19 20  1  0  0  0  0
 20 15  2  0  0  0  0
 22 17  1  0  0  0  0
 23 19  1  0  0  0  0
 24 29  1  0  0  0  0
 25 24  1  0  0  0  0
 25 26  1  0  0  0  0
 26 27  1  0  0  0  0
 27 28  1  0  0  0  0
 29 28  1  0  0  0  0
M  END
>  <minimizedAffinity>
-4.37132597

$$$$
