
 OpenBabel03272510333D

 25 27  0  0  0  0  0  0  0  0999 V2000
   36.1320   30.2050   48.4110 C   0  0  0  0  0  0  0  0  0  0  0  0
   35.1380   30.2150   47.4460 C   0  0  0  0  0  0  0  0  0  0  0  0
   34.0890   29.3000   47.5270 C   0  0  0  0  0  0  0  0  0  0  0  0
   34.0690   28.4080   48.5680 C   0  0  0  0  0  0  0  0  0  0  0  0
   35.0700   28.3980   49.5430 C   0  0  0  0  0  0  0  0  0  0  0  0
   36.1090   29.3050   49.4600 C   0  0  0  0  0  0  0  0  0  0  0  0
   35.1080   30.8940   46.6070 H   0  0  0  0  0  0  0  0  0  0  0  0
   33.3080   29.3000   46.7760 H   0  0  0  0  0  0  0  0  0  0  0  0
   33.2310   27.7210   48.5820 H   0  0  0  0  0  0  0  0  0  0  0  0
   34.9290   27.6600   50.2880 H   0  0  0  0  0  0  0  0  0  0  0  0
   38.2120   33.1290   49.0580 C   0  0  0  0  0  0  0  0  0  0  0  0
   39.1600   33.1220   48.0390 C   0  0  0  0  0  0  0  0  0  0  0  0
   39.0740   32.0760   47.1050 C   0  0  0  0  0  0  0  0  0  0  0  0
   38.0980   31.1440   47.2350 N   0  0  0  0  0  0  0  0  0  0  0  0
   37.1910   31.1880   48.2460 C   0  0  0  0  0  0  0  0  0  0  0  0
   37.2790   32.1890   49.1330 N   0  0  0  0  0  0  0  0  0  0  0  0
   38.3210   33.9600   49.7540 H   0  0  0  0  0  0  0  0  0  0  0  0
   39.9610   33.7980   47.8470 H   0  0  0  0  0  0  0  0  0  0  0  0
   39.7240   31.9130   46.2550 H   0  0  0  0  0  0  0  0  0  0  0  0
   37.1490   29.2830   50.5060 C   0  0  0  0  0  3  0  0  0  0  0  0
   36.7170   29.8780   51.8020 C   0  0  0  0  0  2  0  0  0  0  0  0
   37.9620   29.9320   52.6940 C   0  0  0  0  0  2  0  0  0  0  0  0
   38.2580   28.4850   53.0330 C   0  0  0  0  0  2  0  0  0  0  0  0
   38.6810   27.7750   51.7980 C   0  0  0  0  0  2  0  0  0  0  0  0
   37.7310   27.9040   50.6370 C   0  0  0  0  0  2  0  0  0  0  0  0
  1  6  1  0  0  0  0
  2  3  1  0  0  0  0
  2  1  2  0  0  0  0
  3  4  2  0  0  0  0
  4  9  1  0  0  0  0
  4  5  1  0  0  0  0
  5 10  1  0  0  0  0
  6  5  2  0  0  0  0
  6 20  1  0  0  0  0
  7  2  1  0  0  0  0
  8  3  1  0  0  0  0
 11 16  1  0  0  0  0
 11 17  1  0  0  0  0
 12 11  2  0  0  0  0
 13 14  2  0  0  0  0
 13 12  1  0  0  0  0
 14 15  1  0  0  0  0
 15  1  1  0  0  0  0
 15 16  2  0  0  0  0
 18 12  1  0  0  0  0
 19 13  1  0  0  0  0
 20 25  1  0  0  0  0
 20 21  1  0  0  0  0
 21 22  1  0  0  0  0
 22 23  1  0  0  0  0
 24 23  1  0  0  0  0
 25 24  1  0  0  0  0
M  END
>  <minimizedAffinity>
-2.40031314

>  <minimizedRMSD>
0.728068173

$$$$
