
 OpenBabel03272509273D

 38 40  0  0  1  0  0  0  0  0999 V2000
   38.3930   31.4240   48.3080 C   0  0  2  0  0  0  0  0  0  0  0  0
   38.3160   32.1170   49.6700 C   0  0  0  0  0  0  0  0  0  0  0  0
   38.4510   33.6290   49.5130 C   0  0  0  0  0  0  0  0  0  0  0  0
   39.5220   33.8730   48.5470 C   0  0  0  0  0  0  0  0  0  0  0  0
   39.5070   33.0500   47.3030 C   0  0  0  0  0  0  0  0  0  0  0  0
   38.1730   32.3150   47.1870 C   0  0  1  0  0  0  0  0  0  0  0  0
   39.3760   30.8920   48.3130 H   0  0  0  0  0  0  0  0  0  0  0  0
   39.0710   31.7610   50.3710 H   0  0  0  0  0  0  0  0  0  0  0  0
   37.3360   31.9820   50.1700 H   0  0  0  0  0  0  0  0  0  0  0  0
   38.7080   34.0490   50.4950 H   0  0  0  0  0  0  0  0  0  0  0  0
   37.4670   34.0900   49.2430 H   0  0  0  0  0  0  0  0  0  0  0  0
   39.4600   34.9820   48.3110 H   0  0  0  0  0  0  0  0  0  0  0  0
   40.4840   33.8340   49.1220 H   0  0  0  0  0  0  0  0  0  0  0  0
   39.8440   33.6750   46.5280 H   0  0  0  0  0  0  0  0  0  0  0  0
   40.3600   32.3180   47.4900 H   0  0  0  0  0  0  0  0  0  0  0  0
   37.3940   33.0600   47.4440 H   0  0  0  0  0  0  0  0  0  0  0  0
   38.2700   32.1470   45.7510 C   0  0  2  0  0  0  0  0  0  0  0  0
   38.1880   30.8410   45.0430 C   0  0  0  0  0  0  0  0  0  0  0  0
   39.3850   30.3010   44.3590 C   0  0  0  0  0  0  0  0  0  0  0  0
   40.6350   31.0660   44.2510 C   0  0  0  0  0  0  0  0  0  0  0  0
   40.7520   32.2670   45.1660 C   0  0  0  0  0  0  0  0  0  0  0  0
   39.4180   32.8820   45.1270 C   0  0  0  0  0  0  0  0  0  0  0  0
   37.1890   30.1070   48.4500 S   0  0  0  0  0  0  0  0  0  0  0  0
   35.6310   30.4060   47.7820 C   0  0  0  0  0  0  0  0  0  0  0  0
   35.3390   31.3680   47.3460 H   0  0  0  0  0  0  0  0  0  0  0  0
   35.6470   29.7950   46.8440 H   0  0  0  0  0  0  0  0  0  0  0  0
   34.6640   29.7220   48.6960 C   0  0  0  0  0  0  0  0  0  0  0  0
   34.2160   30.2660   49.4930 H   0  0  0  0  0  0  0  0  0  0  0  0
   35.3700   29.0350   49.2910 H   0  0  0  0  0  0  0  0  0  0  0  0
   33.3260   26.4580   47.6150 C   0  0  0  0  0  0  0  0  0  0  0  0
   34.0910   27.4380   48.2460 C   0  0  0  0  0  0  0  0  0  0  0  0
   33.8560   28.7610   47.9780 C   0  0  0  0  0  0  0  0  0  0  0  0
   32.8510   29.0330   47.0780 N   0  0  0  0  0  0  0  0  0  0  0  0
   32.1350   28.0720   46.4900 C   0  0  0  0  0  0  0  0  0  0  0  0
   32.3500   26.7820   46.7380 N   0  0  0  0  0  0  0  0  0  0  0  0
   33.4210   25.3910   47.7440 H   0  0  0  0  0  0  0  0  0  0  0  0
   34.7800   26.9130   48.8930 H   0  0  0  0  0  0  0  0  0  0  0  0
   31.3710   28.4080   45.8000 H   0  0  0  0  0  0  0  0  0  0  0  0
  1  7  1  6  0  0  0
  1 23  1  0  0  0  0
  1  2  1  0  0  0  0
  2  9  1  0  0  0  0
  2  8  1  0  0  0  0
  3  2  1  0  0  0  0
  3 10  1  0  0  0  0
  4 13  1  0  0  0  0
  4  3  1  0  0  0  0
  5 15  1  0  0  0  0
  5  4  1  0  0  0  0
  6  5  1  0  0  0  0
  6 16  1  1  0  0  0
  6  1  1  0  0  0  0
 11  3  1  0  0  0  0
 12  4  1  0  0  0  0
 14  5  1  0  0  0  0
 17 18  1  1  0  0  0
 17  6  1  0  0  0  0
 19 18  2  0  0  0  0
 20 19  1  0  0  0  0
 20 21  1  0  0  0  0
 22 21  1  0  0  0  0
 22 17  1  0  0  0  0
 24 23  1  0  0  0  0
 24 27  1  0  0  0  0
 25 24  1  0  0  0  0
 26 24  1  0  0  0  0
 27 29  1  0  0  0  0
 27 28  1  0  0  0  0
 30 36  1  0  0  0  0
 30 31  1  0  0  0  0
 31 37  1  0  0  0  0
 32 31  2  0  0  0  0
 32 27  1  0  0  0  0
 33 32  1  0  0  0  0
 34 35  1  0  0  0  0
 34 33  2  0  0  0  0
 35 30  2  0  0  0  0
 38 34  1  0  0  0  0
M  END
>  <minimizedAffinity>
-5.68353605

>  <minimizedRMSD>
1.62042689

$$$$
