
 OpenBabel03262523033D

 23 25  0  0  0  0  0  0  0  0999 V2000
   37.6400   31.3370   49.6230 C   0  0  0  0  0  0  0  0  0  0  0  0
   38.0280   30.6980   50.7650 C   0  0  0  0  0  0  0  0  0  0  0  0
   37.1940   29.7890   51.3430 C   0  0  0  0  0  0  0  0  0  0  0  0
   35.9860   29.5180   50.7960 N   0  0  0  0  0  0  0  0  0  0  0  0
   35.6210   30.1630   49.6640 C   0  0  0  0  0  0  0  0  0  0  0  0
   36.4420   31.0620   49.0870 N   0  0  0  0  0  0  0  0  0  0  0  0
   38.9950   30.9600   51.1430 H   0  0  0  0  0  0  0  0  0  0  0  0
   37.5040   29.2770   52.2550 H   0  0  0  0  0  0  0  0  0  0  0  0
   39.6300   34.3450   48.9540 C   0  0  0  0  0  0  0  0  0  0  0  0
   40.0640   34.1480   47.6350 C   0  0  0  0  0  0  0  0  0  0  0  0
   39.6550   32.9650   46.9950 C   0  0  0  0  0  0  0  0  0  0  0  0
   38.8690   32.0810   47.6760 N   0  0  0  0  0  0  0  0  0  0  0  0
   38.4740   32.3140   48.9530 C   0  0  0  0  0  0  0  0  0  0  0  0
   38.8670   33.4510   49.5700 N   0  0  0  0  0  0  0  0  0  0  0  0
   39.8780   35.2130   49.5520 H   0  0  0  0  0  0  0  0  0  0  0  0
   40.6820   34.9060   47.1840 H   0  0  0  0  0  0  0  0  0  0  0  0
   39.9820   32.8040   45.9820 H   0  0  0  0  0  0  0  0  0  0  0  0
   34.2780   29.8050   49.1310 C   0  0  0  0  0  0  0  0  0  0  0  0
   34.0200   28.3520   49.4120 C   0  0  0  0  0  0  0  0  0  0  0  0
   34.1620   27.4800   48.1840 C   0  0  0  0  0  0  0  0  0  0  0  0
   33.1730   27.9490   47.1680 C   0  0  0  0  0  0  0  0  0  0  0  0
   33.2700   29.4120   46.8580 C   0  0  0  0  0  0  0  0  0  0  0  0
   34.3130   30.1240   47.6620 C   0  0  0  0  0  0  0  0  0  0  0  0
  1  2  1  0  0  0  0
  2  7  1  0  0  0  0
  2  3  2  0  0  0  0
  3  8  1  0  0  0  0
  4  3  1  0  0  0  0
  5  4  2  0  0  0  0
  6  1  2  0  0  0  0
  6  5  1  0  0  0  0
  9 15  1  0  0  0  0
  9 14  1  0  0  0  0
 10  9  2  0  0  0  0
 11 10  1  0  0  0  0
 11 12  2  0  0  0  0
 12 13  1  0  0  0  0
 13 14  2  0  0  0  0
 13  1  1  0  0  0  0
 16 10  1  0  0  0  0
 17 11  1  0  0  0  0
 18 19  1  0  0  0  0
 18  5  1  0  0  0  0
 20 19  1  0  0  0  0
 21 20  1  0  0  0  0
 22 21  1  0  0  0  0
 22 23  1  0  0  0  0
 23 18  1  0  0  0  0
M  END
>  <minimizedAffinity>
-5.9676733

>  <minimizedRMSD>
2.54010439

$$$$
