
 OpenBabel03272506483D

 39 42  0  0  1  0  0  0  0  0999 V2000
   32.1230   28.4990   47.4410 C   0  0  2  0  0  0  0  0  0  0  0  0
   33.3710   28.3240   48.2550 C   0  0  1  0  0  0  0  0  0  0  0  0
   33.7580   27.0210   48.1580 O   0  0  0  0  0  0  0  0  0  0  0  0
   33.0530   26.4110   47.1270 C   0  0  0  0  0  0  0  0  0  0  0  0
   32.4470   27.5010   46.2840 C   0  0  1  0  0  0  0  0  0  0  0  0
   31.1980   28.1790   47.9070 H   0  0  0  0  0  0  0  0  0  0  0  0
   33.1780   28.6680   49.2920 H   0  0  0  0  0  0  0  0  0  0  0  0
   32.3740   25.6990   47.5660 H   0  0  0  0  0  0  0  0  0  0  0  0
   33.8050   25.8510   46.5050 H   0  0  0  0  0  0  0  0  0  0  0  0
   33.1540   28.0150   45.6400 H   0  0  0  0  0  0  0  0  0  0  0  0
   32.0530   29.8050   46.9110 O   0  0  0  0  0  0  0  0  0  0  0  0
   32.7090   29.8610   46.1810 H   0  0  0  0  0  0  0  0  0  0  0  0
   34.6800   29.3670   47.4950 S   0  0  0  0  0  0  0  0  0  0  0  0
   37.1040   29.2790   50.6270 C   0  0  0  0  0  0  0  0  0  0  0  0
   37.5860   30.5840   50.7470 C   0  0  0  0  0  0  0  0  0  0  0  0
   37.1450   31.5290   49.8230 C   0  0  0  0  0  0  0  0  0  0  0  0
   36.2690   31.1400   48.8530 N   0  0  0  0  0  0  0  0  0  0  0  0
   35.8280   29.8660   48.7720 C   0  0  0  0  0  0  0  0  0  0  0  0
   36.2380   28.9190   49.6560 N   0  0  0  0  0  0  0  0  0  0  0  0
   37.4710   28.5930   51.3570 H   0  0  0  0  0  0  0  0  0  0  0  0
   38.2850   30.8480   51.5400 H   0  0  0  0  0  0  0  0  0  0  0  0
   37.5020   32.5440   49.8960 H   0  0  0  0  0  0  0  0  0  0  0  0
   31.2940   27.0300   45.7030 O   0  0  0  0  0  0  0  0  0  0  0  0
   29.8720   29.1670   44.2600 Cl  0  0  0  0  0  0  0  0  0  0  0  0
   29.2970   28.1700   45.5740 C   0  0  0  0  0  0  0  0  0  0  0  0
   30.0580   27.1870   46.1640 C   0  0  0  0  0  0  0  0  0  0  0  0
   29.4790   26.4370   47.1900 C   0  0  0  0  0  0  0  0  0  0  0  0
   28.1830   26.6800   47.5920 C   0  0  0  0  0  0  0  0  0  0  0  0
   27.4100   27.6650   47.0050 C   0  0  0  0  0  0  0  0  0  0  0  0
   27.9890   28.4060   45.9910 C   0  0  0  0  0  0  0  0  0  0  0  0
   30.0010   25.6470   47.7030 H   0  0  0  0  0  0  0  0  0  0  0  0
   27.6960   26.1240   48.3810 H   0  0  0  0  0  0  0  0  0  0  0  0
   26.3950   27.8460   47.3320 H   0  0  0  0  0  0  0  0  0  0  0  0
   27.1630   29.4670   45.3570 C   0  0  0  0  0  3  0  0  0  0  0  0
   26.9760   29.2640   43.8800 C   0  0  0  0  0  2  0  0  0  0  0  0
   26.8180   30.6000   43.1510 C   0  0  0  0  0  2  0  0  0  0  0  0
   26.0320   31.5950   43.9580 C   0  0  0  0  0  2  0  0  0  0  0  0
   26.8280   31.9230   45.2030 C   0  0  0  0  0  2  0  0  0  0  0  0
   27.7960   30.8230   45.5480 C   0  0  0  0  0  2  0  0  0  0  0  0
  1  6  1  1  0  0  0
  1  2  1  0  0  0  0
  2  7  1  1  0  0  0
  3  2  1  0  0  0  0
  4  8  1  0  0  0  0
  4  3  1  0  0  0  0
  5 10  1  6  0  0  0
  5  4  1  0  0  0  0
  5  1  1  0  0  0  0
  9  4  1  0  0  0  0
 11  1  1  0  0  0  0
 12 11  1  0  0  0  0
 13  2  1  0  0  0  0
 13 18  1  0  0  0  0
 14 15  1  0  0  0  0
 14 20  1  0  0  0  0
 15 21  1  0  0  0  0
 16 22  1  0  0  0  0
 16 15  2  0  0  0  0
 17 16  1  0  0  0  0
 18 17  2  0  0  0  0
 18 19  1  0  0  0  0
 19 14  2  0  0  0  0
 23 26  1  0  0  0  0
 23  5  1  0  0  0  0
 24 25  1  0  0  0  0
 25 30  2  0  0  0  0
 25 26  1  0  0  0  0
 26 27  2  0  0  0  0
 27 28  1  0  0  0  0
 27 31  1  0  0  0  0
 28 32  1  0  0  0  0
 29 33  1  0  0  0  0
 29 28  2  0  0  0  0
 30 29  1  0  0  0  0
 34 39  1  0  0  0  0
 34 30  1  0  0  0  0
 35 34  1  0  0  0  0
 36 35  1  0  0  0  0
 36 37  1  0  0  0  0
 37 38  1  0  0  0  0
 38 39  1  0  0  0  0
M  END
>  <minimizedAffinity>
-5.24351788

>  <minimizedRMSD>
0.617371857

$$$$
