
 OpenBabel03272509173D

 27 29  0  0  0  0  0  0  0  0999 V2000
   40.6720   22.2150   34.9120 C   0  0  0  0  0  0  0  0  0  0  0  0
   39.4720   22.9220   34.8540 C   0  0  0  0  0  0  0  0  0  0  0  0
   39.5480   24.3160   34.9200 C   0  0  0  0  0  0  0  0  0  0  0  0
   40.7690   24.9010   35.0360 N   0  0  0  0  0  0  0  0  0  0  0  0
   41.9090   24.1710   35.0880 C   0  0  0  0  0  0  0  0  0  0  0  0
   41.8620   22.8130   35.0260 N   0  0  0  0  0  0  0  0  0  0  0  0
   40.6030   21.1260   34.8590 H   0  0  0  0  0  0  0  0  0  0  0  0
   42.8250   24.7570   35.1820 H   0  0  0  0  0  0  0  0  0  0  0  0
   37.4220   21.8730   35.7860 C   0  0  0  0  0  0  0  0  0  0  0  0
   38.2310   22.2230   34.7320 C   0  0  0  0  0  0  0  0  0  0  0  0
   37.7390   21.8330   33.4750 C   0  0  0  0  0  0  0  0  0  0  0  0
   36.5270   21.1480   33.3310 C   0  0  0  0  0  0  0  0  0  0  0  0
   35.7870   20.8440   34.4620 C   0  0  0  0  0  0  0  0  0  0  0  0
   36.2400   21.2120   35.7110 C   0  0  0  0  0  0  0  0  0  0  0  0
   38.2880   22.0520   32.5700 H   0  0  0  0  0  0  0  0  0  0  0  0
   36.2010   20.8740   32.3360 H   0  0  0  0  0  0  0  0  0  0  0  0
   34.8570   20.3140   34.3040 H   0  0  0  0  0  0  0  0  0  0  0  0
   37.8400   22.2260   37.0840 O   0  0  0  0  0  0  0  0  0  0  0  0
   37.5110   23.1200   37.4300 H   0  0  0  0  0  0  0  0  0  0  0  0
   35.4750   20.8920   36.8220 O   0  0  0  0  0  0  0  0  0  0  0  0
   35.5860   19.9220   37.1420 H   0  0  0  0  0  0  0  0  0  0  0  0
   38.3070   25.1290   34.8640 C   0  0  0  0  0  3  0  0  0  0  0  0
   38.3630   25.8990   33.5580 C   0  0  0  0  0  2  0  0  0  0  0  0
   37.1150   26.6850   33.3060 C   0  0  0  0  0  2  0  0  0  0  0  0
   36.7420   27.4050   34.5780 C   0  0  0  0  0  2  0  0  0  0  0  0
   37.9130   27.4780   35.5510 C   0  0  0  0  0  2  0  0  0  0  0  0
   38.3570   26.1140   36.0050 C   0  0  0  0  0  2  0  0  0  0  0  0
  1  6  1  0  0  0  0
  2  1  2  0  0  0  0
  2  3  1  0  0  0  0
  3  4  2  0  0  0  0
  4  5  1  0  0  0  0
  5  8  1  0  0  0  0
  6  5  2  0  0  0  0
  7  1  1  0  0  0  0
  9 18  1  0  0  0  0
 10  2  1  0  0  0  0
 10  9  2  0  0  0  0
 11 10  1  0  0  0  0
 12 11  2  0  0  0  0
 12 13  1  0  0  0  0
 13 14  2  0  0  0  0
 14  9  1  0  0  0  0
 14 20  1  0  0  0  0
 15 11  1  0  0  0  0
 16 12  1  0  0  0  0
 17 13  1  0  0  0  0
 18 19  1  0  0  0  0
 20 21  1  0  0  0  0
 22  3  1  0  0  0  0
 22 27  1  0  0  0  0
 23 22  1  0  0  0  0
 24 23  1  0  0  0  0
 24 25  1  0  0  0  0
 25 26  1  0  0  0  0
 26 27  1  0  0  0  0
M  END
>  <minimizedAffinity>
-5.52852774

$$$$

 OpenBabel03272509173D

 27 29  0  0  0  0  0  0  0  0999 V2000
   40.4250   26.4330   34.6840 C   0  0  0  0  0  0  0  0  0  0  0  0
   39.5100   25.3810   34.6700 C   0  0  0  0  0  0  0  0  0  0  0  0
   38.8950   25.0860   33.4500 C   0  0  0  0  0  0  0  0  0  0  0  0
   39.2180   25.8270   32.3570 N   0  0  0  0  0  0  0  0  0  0  0  0
   40.1150   26.8410   32.4200 C   0  0  0  0  0  0  0  0  0  0  0  0
   40.7270   27.1480   33.5960 N   0  0  0  0  0  0  0  0  0  0  0  0
   40.9010   26.6560   35.6430 H   0  0  0  0  0  0  0  0  0  0  0  0
   40.2880   27.3600   31.4770 H   0  0  0  0  0  0  0  0  0  0  0  0
   39.9340   23.5550   36.3000 C   0  0  0  0  0  0  0  0  0  0  0  0
   39.2310   24.6540   35.8690 C   0  0  0  0  0  0  0  0  0  0  0  0
   38.1770   25.0320   36.7170 C   0  0  0  0  0  0  0  0  0  0  0  0
   37.8850   24.3350   37.8950 C   0  0  0  0  0  0  0  0  0  0  0  0
   38.6590   23.2390   38.2380 C   0  0  0  0  0  0  0  0  0  0  0  0
   39.7010   22.8410   37.4290 C   0  0  0  0  0  0  0  0  0  0  0  0
   37.5510   25.8810   36.4830 H   0  0  0  0  0  0  0  0  0  0  0  0
   37.0590   24.6750   38.5070 H   0  0  0  0  0  0  0  0  0  0  0  0
   38.3970   22.7300   39.1570 H   0  0  0  0  0  0  0  0  0  0  0  0
   41.0100   23.1080   35.5080 O   0  0  0  0  0  0  0  0  0  0  0  0
   41.9200   23.4900   35.7360 H   0  0  0  0  0  0  0  0  0  0  0  0
   40.4560   21.7390   37.8010 O   0  0  0  0  0  0  0  0  0  0  0  0
   40.0210   20.8370   37.5710 H   0  0  0  0  0  0  0  0  0  0  0  0
   37.9100   23.9790   33.3650 C   0  0  0  0  0  3  0  0  0  0  0  0
   38.6710   22.7740   32.8430 C   0  0  0  0  0  2  0  0  0  0  0  0
   37.8270   21.5390   32.8100 C   0  0  0  0  0  2  0  0  0  0  0  0
   36.4910   21.8910   32.2080 C   0  0  0  0  0  2  0  0  0  0  0  0
   36.5450   23.2100   31.4450 C   0  0  0  0  0  2  0  0  0  0  0  0
   36.8730   24.3710   32.3440 C   0  0  0  0  0  2  0  0  0  0  0  0
  1  7  1  0  0  0  0
  2  1  1  0  0  0  0
  2 10  1  0  0  0  0
  3  2  2  0  0  0  0
  4  5  2  0  0  0  0
  4  3  1  0  0  0  0
  5  6  1  0  0  0  0
  6  1  2  0  0  0  0
  8  5  1  0  0  0  0
  9 14  1  0  0  0  0
 10  9  2  0  0  0  0
 10 11  1  0  0  0  0
 11 12  2  0  0  0  0
 12 13  1  0  0  0  0
 12 16  1  0  0  0  0
 13 17  1  0  0  0  0
 14 20  1  0  0  0  0
 14 13  2  0  0  0  0
 15 11  1  0  0  0  0
 18 19  1  0  0  0  0
 18  9  1  0  0  0  0
 21 20  1  0  0  0  0
 22  3  1  0  0  0  0
 23 22  1  0  0  0  0
 24 23  1  0  0  0  0
 25 24  1  0  0  0  0
 26 25  1  0  0  0  0
 26 27  1  0  0  0  0
 27 22  1  0  0  0  0
M  END
>  <minimizedAffinity>
-5.51716089

$$$$

 OpenBabel03272509173D

 27 29  0  0  0  0  0  0  0  0999 V2000
   36.6440   24.5270   32.2870 C   0  0  0  0  0  0  0  0  0  0  0  0
   37.0730   25.8510   32.3680 C   0  0  0  0  0  0  0  0  0  0  0  0
   36.3980   26.7900   31.5830 C   0  0  0  0  0  0  0  0  0  0  0  0
   35.3730   26.3710   30.7960 N   0  0  0  0  0  0  0  0  0  0  0  0
   34.9910   25.0710   30.7510 C   0  0  0  0  0  0  0  0  0  0  0  0
   35.6330   24.1380   31.5050 N   0  0  0  0  0  0  0  0  0  0  0  0
   37.1780   23.8000   32.9040 H   0  0  0  0  0  0  0  0  0  0  0  0
   34.1570   24.8610   30.0810 H   0  0  0  0  0  0  0  0  0  0  0  0
   38.0280   26.7460   34.4800 C   0  0  0  0  0  0  0  0  0  0  0  0
   38.1620   26.2030   33.2250 C   0  0  0  0  0  0  0  0  0  0  0  0
   39.4940   26.0100   32.8220 C   0  0  0  0  0  0  0  0  0  0  0  0
   40.5760   26.3470   33.6430 C   0  0  0  0  0  0  0  0  0  0  0  0
   40.3280   26.8890   34.8940 C   0  0  0  0  0  0  0  0  0  0  0  0
   39.0330   27.0920   35.3200 C   0  0  0  0  0  0  0  0  0  0  0  0
   39.7270   25.5900   31.8530 H   0  0  0  0  0  0  0  0  0  0  0  0
   41.5790   26.1740   33.2770 H   0  0  0  0  0  0  0  0  0  0  0  0
   41.1930   27.1350   35.4950 H   0  0  0  0  0  0  0  0  0  0  0  0
   36.7240   26.9740   34.9640 O   0  0  0  0  0  0  0  0  0  0  0  0
   36.3090   26.2210   35.4990 H   0  0  0  0  0  0  0  0  0  0  0  0
   38.8200   27.6370   36.5780 O   0  0  0  0  0  0  0  0  0  0  0  0
   38.9210   28.6590   36.6140 H   0  0  0  0  0  0  0  0  0  0  0  0
   36.8050   28.2170   31.6220 C   0  0  0  0  0  3  0  0  0  0  0  0
   35.5430   29.0110   31.9040 C   0  0  0  0  0  2  0  0  0  0  0  0
   35.8160   30.4710   32.0850 C   0  0  0  0  0  2  0  0  0  0  0  0
   36.7450   30.9200   30.9850 C   0  0  0  0  0  2  0  0  0  0  0  0
   36.7730   29.9280   29.8280 C   0  0  0  0  0  2  0  0  0  0  0  0
   37.3050   28.5850   30.2470 C   0  0  0  0  0  2  0  0  0  0  0  0
  1  2  1  0  0  0  0
  1  7  1  0  0  0  0
  2 10  1  0  0  0  0
  3 22  1  0  0  0  0
  3  2  2  0  0  0  0
  4  3  1  0  0  0  0
  5  4  2  0  0  0  0
  5  6  1  0  0  0  0
  6  1  2  0  0  0  0
  8  5  1  0  0  0  0
  9 18  1  0  0  0  0
  9 14  1  0  0  0  0
 10  9  2  0  0  0  0
 11 10  1  0  0  0  0
 11 12  2  0  0  0  0
 12 13  1  0  0  0  0
 13 14  2  0  0  0  0
 13 17  1  0  0  0  0
 14 20  1  0  0  0  0
 15 11  1  0  0  0  0
 16 12  1  0  0  0  0
 18 19  1  0  0  0  0
 20 21  1  0  0  0  0
 22 23  1  0  0  0  0
 23 24  1  0  0  0  0
 25 24  1  0  0  0  0
 26 27  1  0  0  0  0
 26 25  1  0  0  0  0
 27 22  1  0  0  0  0
M  END
>  <minimizedAffinity>
-5.50241756

$$$$

 OpenBabel03272509173D

 27 29  0  0  0  0  0  0  0  0999 V2000
   35.1750   25.7830   31.1560 C   0  0  0  0  0  0  0  0  0  0  0  0
   36.2030   26.5820   31.6510 C   0  0  0  0  0  0  0  0  0  0  0  0
   37.3140   25.9300   32.1950 C   0  0  0  0  0  0  0  0  0  0  0  0
   37.3330   24.5720   32.2120 N   0  0  0  0  0  0  0  0  0  0  0  0
   36.3070   23.8360   31.7170 C   0  0  0  0  0  0  0  0  0  0  0  0
   35.2150   24.4470   31.1830 N   0  0  0  0  0  0  0  0  0  0  0  0
   34.3100   26.3010   30.7330 H   0  0  0  0  0  0  0  0  0  0  0  0
   36.4410   22.7560   31.7890 H   0  0  0  0  0  0  0  0  0  0  0  0
   36.3890   28.7690   30.4870 C   0  0  0  0  0  0  0  0  0  0  0  0
   36.0990   28.0070   31.5930 C   0  0  0  0  0  0  0  0  0  0  0  0
   35.6750   28.7490   32.7080 C   0  0  0  0  0  0  0  0  0  0  0  0
   35.5660   30.1440   32.6740 C   0  0  0  0  0  0  0  0  0  0  0  0
   35.8840   30.8160   31.5050 C   0  0  0  0  0  0  0  0  0  0  0  0
   36.3030   30.1190   30.3930 C   0  0  0  0  0  0  0  0  0  0  0  0
   35.4180   28.2600   33.6370 H   0  0  0  0  0  0  0  0  0  0  0  0
   35.2330   30.6600   33.5660 H   0  0  0  0  0  0  0  0  0  0  0  0
   35.7850   31.8930   31.5250 H   0  0  0  0  0  0  0  0  0  0  0  0
   36.8220   28.1040   29.3230 O   0  0  0  0  0  0  0  0  0  0  0  0
   36.0990   27.8430   28.6640 H   0  0  0  0  0  0  0  0  0  0  0  0
   36.6140   30.8220   29.2390 O   0  0  0  0  0  0  0  0  0  0  0  0
   37.5510   31.2430   29.2450 H   0  0  0  0  0  0  0  0  0  0  0  0
   38.4440   26.7220   32.7410 C   0  0  0  0  0  3  0  0  0  0  0  0
   39.7110   26.0350   32.2680 C   0  0  0  0  0  2  0  0  0  0  0  0
   40.9460   26.7890   32.6490 C   0  0  0  0  0  2  0  0  0  0  0  0
   40.8210   27.2060   34.0920 C   0  0  0  0  0  2  0  0  0  0  0  0
   39.7500   26.4030   34.8230 C   0  0  0  0  0  2  0  0  0  0  0  0
   38.3810   26.6300   34.2440 C   0  0  0  0  0  2  0  0  0  0  0  0
  1  6  2  0  0  0  0
  1  2  1  0  0  0  0
  2  3  2  0  0  0  0
  3  4  1  0  0  0  0
  3 22  1  0  0  0  0
  5  8  1  0  0  0  0
  5  4  2  0  0  0  0
  6  5  1  0  0  0  0
  7  1  1  0  0  0  0
  9 10  1  0  0  0  0
 10  2  1  0  0  0  0
 10 11  2  0  0  0  0
 11 15  1  0  0  0  0
 12 11  1  0  0  0  0
 12 16  1  0  0  0  0
 13 17  1  0  0  0  0
 13 12  2  0  0  0  0
 14  9  2  0  0  0  0
 14 13  1  0  0  0  0
 18  9  1  0  0  0  0
 19 18  1  0  0  0  0
 20 21  1  0  0  0  0
 20 14  1  0  0  0  0
 22 27  1  0  0  0  0
 23 24  1  0  0  0  0
 23 22  1  0  0  0  0
 24 25  1  0  0  0  0
 25 26  1  0  0  0  0
 27 26  1  0  0  0  0
M  END
>  <minimizedAffinity>
-5.45714235

$$$$

 OpenBabel03272509173D

 27 29  0  0  0  0  0  0  0  0999 V2000
   41.3240   23.0890   34.1290 C   0  0  0  0  0  0  0  0  0  0  0  0
   39.9440   22.9580   34.2790 C   0  0  0  0  0  0  0  0  0  0  0  0
   39.2500   22.3070   33.2560 C   0  0  0  0  0  0  0  0  0  0  0  0
   39.9440   21.8420   32.1850 N   0  0  0  0  0  0  0  0  0  0  0  0
   41.2870   21.9930   32.0840 C   0  0  0  0  0  0  0  0  0  0  0  0
   41.9860   22.6230   33.0660 N   0  0  0  0  0  0  0  0  0  0  0  0
   41.8590   23.6000   34.9340 H   0  0  0  0  0  0  0  0  0  0  0  0
   41.7290   21.5770   31.1770 H   0  0  0  0  0  0  0  0  0  0  0  0
   39.2110   22.8290   36.6500 C   0  0  0  0  0  0  0  0  0  0  0  0
   39.2940   23.4790   35.4420 C   0  0  0  0  0  0  0  0  0  0  0  0
   38.6740   24.7390   35.4220 C   0  0  0  0  0  0  0  0  0  0  0  0
   38.0320   25.2690   36.5470 C   0  0  0  0  0  0  0  0  0  0  0  0
   38.0060   24.5290   37.7180 C   0  0  0  0  0  0  0  0  0  0  0  0
   38.6050   23.2890   37.7720 C   0  0  0  0  0  0  0  0  0  0  0  0
   38.6730   25.3450   34.5270 H   0  0  0  0  0  0  0  0  0  0  0  0
   37.5720   26.2450   36.4690 H   0  0  0  0  0  0  0  0  0  0  0  0
   37.4990   24.9780   38.5620 H   0  0  0  0  0  0  0  0  0  0  0  0
   39.8080   21.5580   36.7580 O   0  0  0  0  0  0  0  0  0  0  0  0
   40.7680   21.5420   37.0790 H   0  0  0  0  0  0  0  0  0  0  0  0
   38.5610   22.5750   38.9600 O   0  0  0  0  0  0  0  0  0  0  0  0
   37.6750   22.0800   39.1180 H   0  0  0  0  0  0  0  0  0  0  0  0
   37.7780   22.1340   33.3530 C   0  0  0  0  0  3  0  0  0  0  0  0
   37.4800   20.7420   32.8300 C   0  0  0  0  0  2  0  0  0  0  0  0
   36.0350   20.3780   32.9710 C   0  0  0  0  0  2  0  0  0  0  0  0
   35.2030   21.5430   32.4990 C   0  0  0  0  0  2  0  0  0  0  0  0
   36.0180   22.5120   31.6490 C   0  0  0  0  0  2  0  0  0  0  0  0
   37.1400   23.1410   32.4290 C   0  0  0  0  0  2  0  0  0  0  0  0
  1  2  1  0  0  0  0
  1  7  1  0  0  0  0
  2 10  1  0  0  0  0
  3 22  1  0  0  0  0
  3  2  2  0  0  0  0
  4  3  1  0  0  0  0
  5  4  2  0  0  0  0
  5  6  1  0  0  0  0
  6  1  2  0  0  0  0
  8  5  1  0  0  0  0
  9 18  1  0  0  0  0
  9 14  1  0  0  0  0
 10  9  2  0  0  0  0
 11 10  1  0  0  0  0
 11 12  2  0  0  0  0
 12 13  1  0  0  0  0
 13 14  2  0  0  0  0
 13 17  1  0  0  0  0
 14 20  1  0  0  0  0
 15 11  1  0  0  0  0
 16 12  1  0  0  0  0
 18 19  1  0  0  0  0
 20 21  1  0  0  0  0
 23 24  1  0  0  0  0
 23 22  1  0  0  0  0
 25 24  1  0  0  0  0
 26 27  1  0  0  0  0
 26 25  1  0  0  0  0
 27 22  1  0  0  0  0
M  END
>  <minimizedAffinity>
-5.32553768

$$$$

 OpenBabel03272509173D

 27 29  0  0  0  0  0  0  0  0999 V2000
   38.4470   21.5950   32.9970 C   0  0  0  0  0  0  0  0  0  0  0  0
   38.8990   22.6930   33.7270 C   0  0  0  0  0  0  0  0  0  0  0  0
   38.2550   23.9140   33.5080 C   0  0  0  0  0  0  0  0  0  0  0  0
   37.2370   23.9670   32.6100 N   0  0  0  0  0  0  0  0  0  0  0  0
   36.8320   22.8710   31.9230 C   0  0  0  0  0  0  0  0  0  0  0  0
   37.4430   21.6710   32.1180 N   0  0  0  0  0  0  0  0  0  0  0  0
   38.9570   20.6440   33.1740 H   0  0  0  0  0  0  0  0  0  0  0  0
   36.0060   23.0420   31.2310 H   0  0  0  0  0  0  0  0  0  0  0  0
   39.8400   22.1560   35.9630 C   0  0  0  0  0  0  0  0  0  0  0  0
   39.9790   22.5460   34.6530 C   0  0  0  0  0  0  0  0  0  0  0  0
   41.3050   22.8020   34.2660 C   0  0  0  0  0  0  0  0  0  0  0  0
   42.3770   22.6650   35.1550 C   0  0  0  0  0  0  0  0  0  0  0  0
   42.1260   22.2640   36.4570 C   0  0  0  0  0  0  0  0  0  0  0  0
   40.8370   22.0050   36.8690 C   0  0  0  0  0  0  0  0  0  0  0  0
   41.5400   23.1170   33.2590 H   0  0  0  0  0  0  0  0  0  0  0  0
   43.3770   22.8770   34.7980 H   0  0  0  0  0  0  0  0  0  0  0  0
   42.9840   22.1720   37.1090 H   0  0  0  0  0  0  0  0  0  0  0  0
   38.5410   21.8780   36.4340 O   0  0  0  0  0  0  0  0  0  0  0  0
   38.2360   20.9160   36.3580 H   0  0  0  0  0  0  0  0  0  0  0  0
   40.6200   21.6060   38.1790 O   0  0  0  0  0  0  0  0  0  0  0  0
   40.6090   22.3790   38.8560 H   0  0  0  0  0  0  0  0  0  0  0  0
   38.6880   25.1240   34.2530 C   0  0  0  0  0  3  0  0  0  0  0  0
   37.8390   25.1740   35.5100 C   0  0  0  0  0  2  0  0  0  0  0  0
   38.2410   26.2870   36.4250 C   0  0  0  0  0  2  0  0  0  0  0  0
   38.4240   27.5370   35.6020 C   0  0  0  0  0  2  0  0  0  0  0  0
   37.7520   27.4190   34.2380 C   0  0  0  0  0  2  0  0  0  0  0  0
   38.3570   26.3240   33.4030 C   0  0  0  0  0  2  0  0  0  0  0  0
  1  7  1  0  0  0  0
  1  2  1  0  0  0  0
  2 10  1  0  0  0  0
  3  2  2  0  0  0  0
  3 22  1  0  0  0  0
  4  3  1  0  0  0  0
  5  6  1  0  0  0  0
  5  4  2  0  0  0  0
  6  1  2  0  0  0  0
  8  5  1  0  0  0  0
  9 18  1  0  0  0  0
  9 14  1  0  0  0  0
 10  9  2  0  0  0  0
 11 10  1  0  0  0  0
 11 12  2  0  0  0  0
 12 13  1  0  0  0  0
 13 14  2  0  0  0  0
 13 17  1  0  0  0  0
 14 20  1  0  0  0  0
 15 11  1  0  0  0  0
 16 12  1  0  0  0  0
 19 18  1  0  0  0  0
 20 21  1  0  0  0  0
 22 23  1  0  0  0  0
 23 24  1  0  0  0  0
 25 24  1  0  0  0  0
 26 25  1  0  0  0  0
 27 26  1  0  0  0  0
 27 22  1  0  0  0  0
M  END
>  <minimizedAffinity>
-5.31335163

$$$$

 OpenBabel03272509173D

 27 29  0  0  0  0  0  0  0  0999 V2000
   38.2580   26.0770   34.5650 C   0  0  0  0  0  0  0  0  0  0  0  0
   38.4190   24.6930   34.5090 C   0  0  0  0  0  0  0  0  0  0  0  0
   37.8270   24.0250   33.4330 C   0  0  0  0  0  0  0  0  0  0  0  0
   37.1370   24.7470   32.5120 N   0  0  0  0  0  0  0  0  0  0  0  0
   37.0090   26.0930   32.6090 C   0  0  0  0  0  0  0  0  0  0  0  0
   37.5750   26.7660   33.6460 N   0  0  0  0  0  0  0  0  0  0  0  0
   38.7240   26.5910   35.4100 H   0  0  0  0  0  0  0  0  0  0  0  0
   36.4320   26.5570   31.8080 H   0  0  0  0  0  0  0  0  0  0  0  0
   38.6520   23.6190   36.7370 C   0  0  0  0  0  0  0  0  0  0  0  0
   39.1620   24.0130   35.5240 C   0  0  0  0  0  0  0  0  0  0  0  0
   40.5170   23.6930   35.3370 C   0  0  0  0  0  0  0  0  0  0  0  0
   41.2640   23.0280   36.3170 C   0  0  0  0  0  0  0  0  0  0  0  0
   40.6510   22.6740   37.5070 C   0  0  0  0  0  0  0  0  0  0  0  0
   39.3230   22.9730   37.7220 C   0  0  0  0  0  0  0  0  0  0  0  0
   41.0300   23.9520   34.4220 H   0  0  0  0  0  0  0  0  0  0  0  0
   42.3040   22.8080   36.1140 H   0  0  0  0  0  0  0  0  0  0  0  0
   41.2660   22.1620   38.2350 H   0  0  0  0  0  0  0  0  0  0  0  0
   37.2980   23.9010   37.0060 O   0  0  0  0  0  0  0  0  0  0  0  0
   36.6330   23.1800   36.7550 H   0  0  0  0  0  0  0  0  0  0  0  0
   38.7390   22.6050   38.9250 O   0  0  0  0  0  0  0  0  0  0  0  0
   38.9400   23.2470   39.7020 H   0  0  0  0  0  0  0  0  0  0  0  0
   37.9600   22.5510   33.3130 C   0  0  0  0  0  3  0  0  0  0  0  0
   39.0170   22.3050   32.2540 C   0  0  0  0  0  2  0  0  0  0  0  0
   39.3440   20.8530   32.1010 C   0  0  0  0  0  2  0  0  0  0  0  0
   38.0510   20.0770   32.0550 C   0  0  0  0  0  2  0  0  0  0  0  0
   36.8620   20.9790   31.7420 C   0  0  0  0  0  2  0  0  0  0  0  0
   36.6430   22.0150   32.8100 C   0  0  0  0  0  2  0  0  0  0  0  0
  1  7  1  0  0  0  0
  2  1  1  0  0  0  0
  2 10  1  0  0  0  0
  3  2  2  0  0  0  0
  4  5  2  0  0  0  0
  4  3  1  0  0  0  0
  5  6  1  0  0  0  0
  6  1  2  0  0  0  0
  8  5  1  0  0  0  0
  9 18  1  0  0  0  0
  9 14  1  0  0  0  0
 10  9  2  0  0  0  0
 11 10  1  0  0  0  0
 11 12  2  0  0  0  0
 12 13  1  0  0  0  0
 13 14  2  0  0  0  0
 13 17  1  0  0  0  0
 14 20  1  0  0  0  0
 15 11  1  0  0  0  0
 16 12  1  0  0  0  0
 19 18  1  0  0  0  0
 20 21  1  0  0  0  0
 22  3  1  0  0  0  0
 23 22  1  0  0  0  0
 24 23  1  0  0  0  0
 25 24  1  0  0  0  0
 26 25  1  0  0  0  0
 26 27  1  0  0  0  0
 27 22  1  0  0  0  0
M  END
>  <minimizedAffinity>
-5.23579216

$$$$

 OpenBabel03272509173D

 27 29  0  0  0  0  0  0  0  0999 V2000
   35.8890   31.9030   35.5620 C   0  0  0  0  0  0  0  0  0  0  0  0
   35.0710   30.8830   35.0780 C   0  0  0  0  0  0  0  0  0  0  0  0
   33.7970   30.7650   35.6400 C   0  0  0  0  0  0  0  0  0  0  0  0
   33.4260   31.6370   36.6130 N   0  0  0  0  0  0  0  0  0  0  0  0
   34.2570   32.6140   37.0520 C   0  0  0  0  0  0  0  0  0  0  0  0
   35.5030   32.7490   36.5210 N   0  0  0  0  0  0  0  0  0  0  0  0
   36.8840   31.9870   35.1170 H   0  0  0  0  0  0  0  0  0  0  0  0
   33.8440   33.2490   37.8370 H   0  0  0  0  0  0  0  0  0  0  0  0
   35.4360   30.2550   32.7020 C   0  0  0  0  0  0  0  0  0  0  0  0
   35.5430   30.0090   34.0490 C   0  0  0  0  0  0  0  0  0  0  0  0
   36.1730   28.7930   34.3640 C   0  0  0  0  0  0  0  0  0  0  0  0
   36.6430   27.9220   33.3740 C   0  0  0  0  0  0  0  0  0  0  0  0
   36.4840   28.2680   32.0420 C   0  0  0  0  0  0  0  0  0  0  0  0
   35.8710   29.4530   31.6990 C   0  0  0  0  0  0  0  0  0  0  0  0
   36.3150   28.4900   35.3910 H   0  0  0  0  0  0  0  0  0  0  0  0
   37.1200   27.0000   33.6790 H   0  0  0  0  0  0  0  0  0  0  0  0
   36.8620   27.5650   31.3120 H   0  0  0  0  0  0  0  0  0  0  0  0
   34.8170   31.4540   32.2970 O   0  0  0  0  0  0  0  0  0  0  0  0
   35.4310   32.2480   32.1560 H   0  0  0  0  0  0  0  0  0  0  0  0
   35.7280   29.7690   30.3560 O   0  0  0  0  0  0  0  0  0  0  0  0
   34.9340   29.3040   29.8990 H   0  0  0  0  0  0  0  0  0  0  0  0
   32.8750   29.7000   35.1690 C   0  0  0  0  0  3  0  0  0  0  0  0
   31.8960   30.3730   34.2260 C   0  0  0  0  0  2  0  0  0  0  0  0
   30.9660   29.3960   33.5790 C   0  0  0  0  0  2  0  0  0  0  0  0
   30.4490   28.4560   34.6390 C   0  0  0  0  0  2  0  0  0  0  0  0
   30.6580   29.0180   36.0410 C   0  0  0  0  0  2  0  0  0  0  0  0
   32.1150   29.1940   36.3690 C   0  0  0  0  0  2  0  0  0  0  0  0
  1  6  1  0  0  0  0
  2  1  2  0  0  0  0
  2  3  1  0  0  0  0
  3  4  2  0  0  0  0
  4  5  1  0  0  0  0
  5  8  1  0  0  0  0
  6  5  2  0  0  0  0
  7  1  1  0  0  0  0
  9 10  1  0  0  0  0
 10 11  2  0  0  0  0
 10  2  1  0  0  0  0
 11 15  1  0  0  0  0
 12 16  1  0  0  0  0
 12 11  1  0  0  0  0
 13 12  2  0  0  0  0
 14 13  1  0  0  0  0
 14  9  2  0  0  0  0
 17 13  1  0  0  0  0
 18  9  1  0  0  0  0
 19 18  1  0  0  0  0
 20 14  1  0  0  0  0
 21 20  1  0  0  0  0
 22  3  1  0  0  0  0
 22 27  1  0  0  0  0
 23 22  1  0  0  0  0
 24 23  1  0  0  0  0
 24 25  1  0  0  0  0
 25 26  1  0  0  0  0
 26 27  1  0  0  0  0
M  END
>  <minimizedAffinity>
-5.06383848

$$$$

 OpenBabel03272509173D

 27 29  0  0  0  0  0  0  0  0999 V2000
   36.9800   24.7120   32.0310 C   0  0  0  0  0  0  0  0  0  0  0  0
   37.2730   26.0500   32.2870 C   0  0  0  0  0  0  0  0  0  0  0  0
   36.3430   27.0010   31.8580 C   0  0  0  0  0  0  0  0  0  0  0  0
   35.2180   26.5790   31.2240 N   0  0  0  0  0  0  0  0  0  0  0  0
   34.9760   25.2640   30.9970 C   0  0  0  0  0  0  0  0  0  0  0  0
   35.8660   24.3190   31.4050 N   0  0  0  0  0  0  0  0  0  0  0  0
   37.7130   23.9750   32.3700 H   0  0  0  0  0  0  0  0  0  0  0  0
   34.0400   25.0530   30.4790 H   0  0  0  0  0  0  0  0  0  0  0  0
   39.6630   26.7290   32.3350 C   0  0  0  0  0  0  0  0  0  0  0  0
   38.4830   26.4050   32.9610 C   0  0  0  0  0  0  0  0  0  0  0  0
   38.5450   26.4480   34.3640 C   0  0  0  0  0  0  0  0  0  0  0  0
   39.7180   26.7930   35.0450 C   0  0  0  0  0  0  0  0  0  0  0  0
   40.8540   27.1020   34.3160 C   0  0  0  0  0  0  0  0  0  0  0  0
   40.8280   27.0700   32.9390 C   0  0  0  0  0  0  0  0  0  0  0  0
   37.6800   26.2130   34.9670 H   0  0  0  0  0  0  0  0  0  0  0  0
   39.7030   26.8080   36.1270 H   0  0  0  0  0  0  0  0  0  0  0  0
   41.7380   27.3630   34.8840 H   0  0  0  0  0  0  0  0  0  0  0  0
   39.6890   26.7110   30.9270 O   0  0  0  0  0  0  0  0  0  0  0  0
   39.4750   27.5870   30.4660 H   0  0  0  0  0  0  0  0  0  0  0  0
   41.9830   27.3850   32.2390 O   0  0  0  0  0  0  0  0  0  0  0  0
   42.6590   26.6140   32.1770 H   0  0  0  0  0  0  0  0  0  0  0  0
   36.5940   28.4450   32.0990 C   0  0  0  0  0  3  0  0  0  0  0  0
   35.3720   28.9720   32.8250 C   0  0  0  0  0  2  0  0  0  0  0  0
   35.5280   30.4020   33.2390 C   0  0  0  0  0  2  0  0  0  0  0  0
   36.0900   31.1750   32.0740 C   0  0  0  0  0  2  0  0  0  0  0  0
   35.9230   30.4200   30.7600 C   0  0  0  0  0  2  0  0  0  0  0  0
   36.6830   29.1210   30.7540 C   0  0  0  0  0  2  0  0  0  0  0  0
  1  2  1  0  0  0  0
  1  7  1  0  0  0  0
  2 10  1  0  0  0  0
  3 22  1  0  0  0  0
  3  2  2  0  0  0  0
  4  3  1  0  0  0  0
  5  4  2  0  0  0  0
  5  6  1  0  0  0  0
  6  1  2  0  0  0  0
  8  5  1  0  0  0  0
  9 14  2  0  0  0  0
  9 10  1  0  0  0  0
 10 11  2  0  0  0  0
 11 15  1  0  0  0  0
 11 12  1  0  0  0  0
 12 16  1  0  0  0  0
 13 17  1  0  0  0  0
 13 12  2  0  0  0  0
 14 13  1  0  0  0  0
 18  9  1  0  0  0  0
 19 18  1  0  0  0  0
 20 14  1  0  0  0  0
 21 20  1  0  0  0  0
 22 23  1  0  0  0  0
 23 24  1  0  0  0  0
 25 24  1  0  0  0  0
 26 25  1  0  0  0  0
 27 26  1  0  0  0  0
 27 22  1  0  0  0  0
M  END
>  <minimizedAffinity>
-4.98327208

$$$$
