
 OpenBabel03272505533D

 41 44  0  0  1  0  0  0  0  0999 V2000
   37.0240   29.0060   29.7180 C   0  0  0  0  0  0  0  0  0  0  0  0
   38.3850   29.2040   29.3570 C   0  0  0  0  0  0  0  0  0  0  0  0
   39.2990   28.2550   29.7970 C   0  0  0  0  0  0  0  0  0  0  0  0
   38.8350   27.2100   30.5360 N   0  0  0  0  0  0  0  0  0  0  0  0
   37.5530   27.0660   30.8490 C   0  0  0  0  0  0  0  0  0  0  0  0
   36.6500   27.9550   30.4450 N   0  0  0  0  0  0  0  0  0  0  0  0
   37.1470   25.9480   31.6220 N   0  0  0  0  0  0  0  0  0  0  0  0
   35.8020   25.3780   31.5030 C   0  0  0  0  0  0  0  0  0  0  0  0
   35.8970   23.9270   31.2140 C   0  0  0  0  0  0  0  0  0  0  0  0
   37.1020   23.3110   31.4600 N   0  0  0  0  0  0  0  0  0  0  0  0
   38.0800   23.8820   32.3530 C   0  0  0  0  0  0  0  0  0  0  0  0
   38.0420   25.3050   32.5760 C   0  0  2  0  0  0  0  0  0  0  0  0
   36.2360   29.6940   29.4200 H   0  0  0  0  0  0  0  0  0  0  0  0
   38.6410   30.0720   28.7660 H   0  0  0  0  0  0  0  0  0  0  0  0
   40.3420   28.3800   29.5380 H   0  0  0  0  0  0  0  0  0  0  0  0
   35.1580   25.6780   32.3430 H   0  0  0  0  0  0  0  0  0  0  0  0
   35.3320   25.8800   30.6290 H   0  0  0  0  0  0  0  0  0  0  0  0
   35.5970   23.6900   30.1670 H   0  0  0  0  0  0  0  0  0  0  0  0
   35.0690   23.4360   31.8100 H   0  0  0  0  0  0  0  0  0  0  0  0
   37.4180   22.5520   30.8580 H   0  0  0  0  0  0  0  0  0  0  0  0
   38.1890   23.1270   33.1090 H   0  0  0  0  0  0  0  0  0  0  0  0
   39.0370   23.6880   31.7530 H   0  0  0  0  0  0  0  0  0  0  0  0
   39.0460   25.8110   32.4410 H   0  0  0  0  0  0  0  0  0  0  0  0
   37.6010   25.7020   33.8950 N   0  0  2  0  0  0  0  0  0  0  0  0
   37.3230   27.1350   33.9750 C   0  0  0  0  0  0  0  0  0  0  0  0
   37.8000   27.6440   35.2950 C   0  0  0  0  0  0  0  0  0  0  0  0
   38.1490   26.3850   36.0290 C   0  0  0  0  0  0  0  0  0  0  0  0
   38.5070   25.4050   34.9350 C   0  0  1  0  0  0  0  0  0  0  0  0
   37.9630   27.6030   33.1890 H   0  0  0  0  0  0  0  0  0  0  0  0
   36.2500   27.3080   33.8020 H   0  0  0  0  0  0  0  0  0  0  0  0
   38.6660   28.3520   35.1980 H   0  0  0  0  0  0  0  0  0  0  0  0
   37.0200   28.1710   35.8710 H   0  0  0  0  0  0  0  0  0  0  0  0
   37.3810   26.0730   36.7180 H   0  0  0  0  0  0  0  0  0  0  0  0
   39.0250   26.6860   36.6770 H   0  0  0  0  0  0  0  0  0  0  0  0
   39.5550   25.6980   34.7690 H   0  0  0  0  0  0  0  0  0  0  0  0
   38.3590   24.0520   35.5990 C   0  0  2  0  0  3  0  0  0  0  0  0
   37.6980   24.1170   36.9170 C   0  0  0  0  0  3  0  0  0  0  0  0
   38.3860   23.7500   38.1480 C   0  0  0  0  0  3  0  0  0  0  0  0
   39.6850   23.0090   38.0120 C   0  0  0  0  0  2  0  0  0  0  0  0
   39.6490   22.2960   36.6600 C   0  0  0  0  0  2  0  0  0  0  0  0
   39.7650   23.4330   35.6650 C   0  0  0  0  0  2  0  0  0  0  0  0
  1  6  1  0  0  0  0
  2  1  2  0  0  0  0
  2  3  1  0  0  0  0
  3  4  2  0  0  0  0
  4  5  1  0  0  0  0
  5  7  1  0  0  0  0
  6  5  2  0  0  0  0
  7 12  1  0  0  0  0
  8  7  1  0  0  0  0
  8 16  1  0  0  0  0
  9 10  1  0  0  0  0
  9  8  1  0  0  0  0
  9 19  1  0  0  0  0
 10 11  1  0  0  0  0
 11 12  1  0  0  0  0
 11 21  1  0  0  0  0
 12 23  1  6  0  0  0
 12 24  1  0  0  0  0
 13  1  1  0  0  0  0
 14  2  1  0  0  0  0
 15  3  1  0  0  0  0
 17  8  1  0  0  0  0
 18  9  1  0  0  0  0
 20 10  1  0  0  0  0
 22 11  1  0  0  0  0
 24 25  1  6  0  0  0
 24 28  1  0  0  0  0
 25 26  1  0  0  0  0
 26 32  1  0  0  0  0
 26 27  1  0  0  0  0
 27 34  1  0  0  0  0
 27 33  1  0  0  0  0
 28 35  1  6  0  0  0
 28 36  1  0  0  0  0
 28 27  1  0  0  0  0
 29 25  1  0  0  0  0
 30 25  1  0  0  0  0
 31 26  1  0  0  0  0
 36 41  1  1  0  0  0
 36 37  1  0  0  0  0
 37 38  2  0  0  0  0
 39 38  1  0  0  0  0
 40 39  1  0  0  0  0
 41 40  1  0  0  0  0
M  END
>  <minimizedAffinity>
-6.16510105

$$$$

 OpenBabel03272505533D

 41 44  0  0  1  0  0  0  0  0999 V2000
   37.8750   22.6870   31.6710 C   0  0  0  0  0  0  0  0  0  0  0  0
   36.5210   22.2830   31.5040 C   0  0  0  0  0  0  0  0  0  0  0  0
   35.6050   23.2720   31.1670 C   0  0  0  0  0  0  0  0  0  0  0  0
   36.0590   24.5470   31.0220 N   0  0  0  0  0  0  0  0  0  0  0  0
   37.3340   24.8780   31.1880 C   0  0  0  0  0  0  0  0  0  0  0  0
   38.2390   23.9580   31.5100 N   0  0  0  0  0  0  0  0  0  0  0  0
   37.7300   26.2290   31.0170 N   0  0  0  0  0  0  0  0  0  0  0  0
   39.0830   26.5850   30.5790 C   0  0  0  0  0  0  0  0  0  0  0  0
   39.0080   27.4620   29.3870 C   0  0  0  0  0  0  0  0  0  0  0  0
   37.8030   28.0710   29.1240 N   0  0  0  0  0  0  0  0  0  0  0  0
   36.7970   28.2390   30.1440 C   0  0  0  0  0  0  0  0  0  0  0  0
   36.8160   27.3370   31.2670 C   0  0  2  0  0  0  0  0  0  0  0  0
   38.6630   21.9860   31.9340 H   0  0  0  0  0  0  0  0  0  0  0  0
   36.2730   21.2410   31.6450 H   0  0  0  0  0  0  0  0  0  0  0  0
   34.5680   22.9940   31.0330 H   0  0  0  0  0  0  0  0  0  0  0  0
   39.7020   26.9350   31.4180 H   0  0  0  0  0  0  0  0  0  0  0  0
   39.5700   25.6300   30.2830 H   0  0  0  0  0  0  0  0  0  0  0  0
   39.3360   26.9360   28.4610 H   0  0  0  0  0  0  0  0  0  0  0  0
   39.8250   28.2350   29.5170 H   0  0  0  0  0  0  0  0  0  0  0  0
   37.5090   28.2240   28.1600 H   0  0  0  0  0  0  0  0  0  0  0  0
   36.6750   29.3050   30.1920 H   0  0  0  0  0  0  0  0  0  0  0  0
   35.8580   27.9690   29.5460 H   0  0  0  0  0  0  0  0  0  0  0  0
   35.8120   26.8610   31.4830 H   0  0  0  0  0  0  0  0  0  0  0  0
   37.2200   27.9350   32.5210 N   0  0  2  0  0  0  0  0  0  0  0  0
   38.1510   27.0860   33.2620 C   0  0  0  0  0  0  0  0  0  0  0  0
   37.8170   27.1630   34.7160 C   0  0  0  0  0  0  0  0  0  0  0  0
   36.8050   28.2670   34.7650 C   0  0  0  0  0  0  0  0  0  0  0  0
   36.1590   28.2390   33.3990 C   0  0  1  0  0  0  0  0  0  0  0  0
   37.9300   26.0460   32.9270 H   0  0  0  0  0  0  0  0  0  0  0  0
   39.1830   27.3930   33.0350 H   0  0  0  0  0  0  0  0  0  0  0  0
   37.4290   26.1910   35.1220 H   0  0  0  0  0  0  0  0  0  0  0  0
   38.6730   27.4550   35.3480 H   0  0  0  0  0  0  0  0  0  0  0  0
   37.2240   29.2100   35.0770 H   0  0  0  0  0  0  0  0  0  0  0  0
   36.1120   27.9590   35.6040 H   0  0  0  0  0  0  0  0  0  0  0  0
   35.4190   27.4400   33.5670 H   0  0  0  0  0  0  0  0  0  0  0  0
   35.5380   29.6140   33.2640 C   0  0  2  0  0  3  0  0  0  0  0  0
   35.5280   30.3770   34.5270 C   0  0  0  0  0  3  0  0  0  0  0  0
   34.2890   30.7640   35.1900 C   0  0  0  0  0  3  0  0  0  0  0  0
   33.0200   30.6360   34.3970 C   0  0  0  0  0  2  0  0  0  0  0  0
   33.4090   30.7210   32.9210 C   0  0  0  0  0  2  0  0  0  0  0  0
   34.1310   29.4110   32.6770 C   0  0  0  0  0  2  0  0  0  0  0  0
  1 13  1  0  0  0  0
  2 14  1  0  0  0  0
  2  1  2  0  0  0  0
  3  2  1  0  0  0  0
  4  3  2  0  0  0  0
  4  5  1  0  0  0  0
  5  6  2  0  0  0  0
  6  1  1  0  0  0  0
  7  5  1  0  0  0  0
  7 12  1  0  0  0  0
  8  7  1  0  0  0  0
  8 16  1  0  0  0  0
  9 19  1  0  0  0  0
  9  8  1  0  0  0  0
 10  9  1  0  0  0  0
 10 11  1  0  0  0  0
 11 21  1  0  0  0  0
 11 12  1  0  0  0  0
 12 23  1  1  0  0  0
 12 24  1  0  0  0  0
 15  3  1  0  0  0  0
 17  8  1  0  0  0  0
 18  9  1  0  0  0  0
 20 10  1  0  0  0  0
 22 11  1  0  0  0  0
 24 25  1  1  0  0  0
 24 28  1  0  0  0  0
 25 26  1  0  0  0  0
 26 27  1  0  0  0  0
 26 31  1  0  0  0  0
 26 32  1  0  0  0  0
 27 33  1  0  0  0  0
 27 34  1  0  0  0  0
 28 35  1  6  0  0  0
 28 27  1  0  0  0  0
 29 25  1  0  0  0  0
 30 25  1  0  0  0  0
 36 41  1  1  0  0  0
 36 28  1  0  0  0  0
 36 37  1  0  0  0  0
 37 38  2  0  0  0  0
 39 38  1  0  0  0  0
 40 39  1  0  0  0  0
 41 40  1  0  0  0  0
M  END
>  <minimizedAffinity>
-5.43942738

$$$$

 OpenBabel03272505533D

 41 44  0  0  1  0  0  0  0  0999 V2000
   38.6920   28.8670   29.7420 C   0  0  0  0  0  0  0  0  0  0  0  0
   40.0260   28.4490   29.4810 C   0  0  0  0  0  0  0  0  0  0  0  0
   40.4160   27.2210   30.0010 C   0  0  0  0  0  0  0  0  0  0  0  0
   39.5050   26.5080   30.7180 N   0  0  0  0  0  0  0  0  0  0  0  0
   38.2670   26.9390   30.9370 C   0  0  0  0  0  0  0  0  0  0  0  0
   37.8600   28.1090   30.4540 N   0  0  0  0  0  0  0  0  0  0  0  0
   37.3750   26.1370   31.6930 N   0  0  0  0  0  0  0  0  0  0  0  0
   35.9260   26.1910   31.4820 C   0  0  0  0  0  0  0  0  0  0  0  0
   35.4070   24.8270   31.2220 C   0  0  0  0  0  0  0  0  0  0  0  0
   36.2130   23.7670   31.5650 N   0  0  0  0  0  0  0  0  0  0  0  0
   37.2850   23.9050   32.5210 C   0  0  0  0  0  0  0  0  0  0  0  0
   37.8480   25.2170   32.7200 C   0  0  2  0  0  0  0  0  0  0  0  0
   38.2960   29.8110   29.3770 H   0  0  0  0  0  0  0  0  0  0  0  0
   40.6650   29.0970   28.8980 H   0  0  0  0  0  0  0  0  0  0  0  0
   41.4250   26.8770   29.8180 H   0  0  0  0  0  0  0  0  0  0  0  0
   35.4220   26.7740   32.2670 H   0  0  0  0  0  0  0  0  0  0  0  0
   35.7710   26.8060   30.5680 H   0  0  0  0  0  0  0  0  0  0  0  0
   35.0990   24.6940   30.1590 H   0  0  0  0  0  0  0  0  0  0  0  0
   34.4140   24.7630   31.7600 H   0  0  0  0  0  0  0  0  0  0  0  0
   36.2100   22.9200   30.9990 H   0  0  0  0  0  0  0  0  0  0  0  0
   37.0140   23.2110   33.2930 H   0  0  0  0  0  0  0  0  0  0  0  0
   38.1010   23.2950   31.9960 H   0  0  0  0  0  0  0  0  0  0  0  0
   38.9770   25.2400   32.6530 H   0  0  0  0  0  0  0  0  0  0  0  0
   37.5390   25.8230   33.9960 N   0  0  2  0  0  0  0  0  0  0  0  0
   36.7800   27.0640   33.8480 C   0  0  0  0  0  0  0  0  0  0  0  0
   37.2710   28.0500   34.8560 C   0  0  0  0  0  0  0  0  0  0  0  0
   38.1800   27.2230   35.7130 C   0  0  0  0  0  0  0  0  0  0  0  0
   38.6640   26.1270   34.7920 C   0  0  1  0  0  0  0  0  0  0  0  0
   37.0520   27.4560   32.8410 H   0  0  0  0  0  0  0  0  0  0  0  0
   35.7050   26.8450   33.9400 H   0  0  0  0  0  0  0  0  0  0  0  0
   37.7880   28.9280   34.3840 H   0  0  0  0  0  0  0  0  0  0  0  0
   36.4710   28.4580   35.4980 H   0  0  0  0  0  0  0  0  0  0  0  0
   37.7170   26.9050   36.6340 H   0  0  0  0  0  0  0  0  0  0  0  0
   38.9900   27.9490   36.0240 H   0  0  0  0  0  0  0  0  0  0  0  0
   39.4860   26.6640   34.2930 H   0  0  0  0  0  0  0  0  0  0  0  0
   39.1410   25.0450   35.7370 C   0  0  2  0  0  3  0  0  0  0  0  0
   40.0570   24.0780   35.1040 C   0  0  0  0  0  3  0  0  0  0  0  0
   39.7140   22.6700   34.9480 C   0  0  0  0  0  3  0  0  0  0  0  0
   38.5320   22.1640   35.7250 C   0  0  0  0  0  2  0  0  0  0  0  0
   38.3720   23.0830   36.9360 C   0  0  0  0  0  2  0  0  0  0  0  0
   37.8840   24.3810   36.3240 C   0  0  0  0  0  2  0  0  0  0  0  0
  1  6  1  0  0  0  0
  2  1  2  0  0  0  0
  2  3  1  0  0  0  0
  3  4  2  0  0  0  0
  4  5  1  0  0  0  0
  5  7  1  0  0  0  0
  6  5  2  0  0  0  0
  7 12  1  0  0  0  0
  8  7  1  0  0  0  0
  8 16  1  0  0  0  0
  9  8  1  0  0  0  0
  9 10  1  0  0  0  0
  9 19  1  0  0  0  0
 10 11  1  0  0  0  0
 11 12  1  0  0  0  0
 11 21  1  0  0  0  0
 12 23  1  6  0  0  0
 12 24  1  0  0  0  0
 13  1  1  0  0  0  0
 14  2  1  0  0  0  0
 15  3  1  0  0  0  0
 17  8  1  0  0  0  0
 18  9  1  0  0  0  0
 20 10  1  0  0  0  0
 22 11  1  0  0  0  0
 24 25  1  6  0  0  0
 24 28  1  0  0  0  0
 25 30  1  0  0  0  0
 25 26  1  0  0  0  0
 26 32  1  0  0  0  0
 26 27  1  0  0  0  0
 27 34  1  0  0  0  0
 27 33  1  0  0  0  0
 28 35  1  6  0  0  0
 28 27  1  0  0  0  0
 28 36  1  0  0  0  0
 29 25  1  0  0  0  0
 31 26  1  0  0  0  0
 36 37  1  6  0  0  0
 36 41  1  0  0  0  0
 38 37  2  0  0  0  0
 38 39  1  0  0  0  0
 39 40  1  0  0  0  0
 41 40  1  0  0  0  0
M  END
>  <minimizedAffinity>
-5.41780758

$$$$

 OpenBabel03272505533D

 41 44  0  0  1  0  0  0  0  0999 V2000
   42.0670   24.1110   32.1650 C   0  0  0  0  0  0  0  0  0  0  0  0
   41.7600   22.7770   31.7780 C   0  0  0  0  0  0  0  0  0  0  0  0
   40.4220   22.4750   31.5620 C   0  0  0  0  0  0  0  0  0  0  0  0
   39.5030   23.4640   31.7340 N   0  0  0  0  0  0  0  0  0  0  0  0
   39.8360   24.6970   32.0980 C   0  0  0  0  0  0  0  0  0  0  0  0
   41.1080   25.0220   32.3130 N   0  0  0  0  0  0  0  0  0  0  0  0
   38.8200   25.6740   32.2550 N   0  0  0  0  0  0  0  0  0  0  0  0
   39.0860   27.1000   32.0450 C   0  0  0  0  0  0  0  0  0  0  0  0
   38.1220   27.6490   31.0610 C   0  0  0  0  0  0  0  0  0  0  0  0
   36.9890   26.9110   30.8070 N   0  0  0  0  0  0  0  0  0  0  0  0
   36.5090   25.9110   31.7290 C   0  0  0  0  0  0  0  0  0  0  0  0
   37.4590   25.3170   32.6350 C   0  0  2  0  0  0  0  0  0  0  0  0
   43.0850   24.4420   32.3560 H   0  0  0  0  0  0  0  0  0  0  0  0
   42.5720   22.0710   31.6710 H   0  0  0  0  0  0  0  0  0  0  0  0
   40.1580   21.4680   31.2660 H   0  0  0  0  0  0  0  0  0  0  0  0
   39.1870   27.6400   32.9980 H   0  0  0  0  0  0  0  0  0  0  0  0
   40.1070   27.1620   31.6070 H   0  0  0  0  0  0  0  0  0  0  0  0
   38.6080   27.8780   30.0850 H   0  0  0  0  0  0  0  0  0  0  0  0
   37.8500   28.6820   31.4340 H   0  0  0  0  0  0  0  0  0  0  0  0
   36.5850   26.9030   29.8710 H   0  0  0  0  0  0  0  0  0  0  0  0
   35.5300   26.2670   31.9860 H   0  0  0  0  0  0  0  0  0  0  0  0
   36.2220   25.0810   30.9940 H   0  0  0  0  0  0  0  0  0  0  0  0
   37.4320   24.1850   32.6410 H   0  0  0  0  0  0  0  0  0  0  0  0
   37.3000   25.6990   34.0210 N   0  0  2  0  0  0  0  0  0  0  0  0
   37.0980   27.1380   34.1770 C   0  0  0  0  0  0  0  0  0  0  0  0
   37.8420   27.6000   35.3860 C   0  0  0  0  0  0  0  0  0  0  0  0
   38.2800   26.3130   36.0160 C   0  0  0  0  0  0  0  0  0  0  0  0
   38.3790   25.3470   34.8580 C   0  0  1  0  0  0  0  0  0  0  0  0
   37.5880   27.6010   33.2890 H   0  0  0  0  0  0  0  0  0  0  0  0
   36.0180   27.3510   34.2210 H   0  0  0  0  0  0  0  0  0  0  0  0
   38.6980   28.2800   35.1320 H   0  0  0  0  0  0  0  0  0  0  0  0
   37.2100   28.1400   36.1120 H   0  0  0  0  0  0  0  0  0  0  0  0
   37.6510   26.0110   36.8380 H   0  0  0  0  0  0  0  0  0  0  0  0
   39.2760   26.5690   36.4840 H   0  0  0  0  0  0  0  0  0  0  0  0
   39.3860   25.6080   34.4940 H   0  0  0  0  0  0  0  0  0  0  0  0
   38.3140   23.9850   35.5160 C   0  0  2  0  0  3  0  0  0  0  0  0
   37.7150   24.0160   36.8650 C   0  0  0  0  0  3  0  0  0  0  0  0
   38.4750   23.6660   38.0590 C   0  0  0  0  0  3  0  0  0  0  0  0
   39.7920   22.9750   37.8530 C   0  0  0  0  0  2  0  0  0  0  0  0
   39.7160   22.2700   36.4990 C   0  0  0  0  0  2  0  0  0  0  0  0
   39.7430   23.4170   35.5090 C   0  0  0  0  0  2  0  0  0  0  0  0
  1  6  1  0  0  0  0
  1 13  1  0  0  0  0
  2  1  2  0  0  0  0
  3  4  2  0  0  0  0
  3  2  1  0  0  0  0
  4  5  1  0  0  0  0
  5  7  1  0  0  0  0
  5  6  2  0  0  0  0
  7 12  1  0  0  0  0
  8  7  1  0  0  0  0
  8 16  1  0  0  0  0
  9 19  1  0  0  0  0
  9  8  1  0  0  0  0
 10  9  1  0  0  0  0
 10 11  1  0  0  0  0
 11 21  1  0  0  0  0
 11 12  1  0  0  0  0
 12 23  1  6  0  0  0
 12 24  1  0  0  0  0
 14  2  1  0  0  0  0
 15  3  1  0  0  0  0
 17  8  1  0  0  0  0
 18  9  1  0  0  0  0
 20 10  1  0  0  0  0
 22 11  1  0  0  0  0
 24 25  1  6  0  0  0
 24 28  1  0  0  0  0
 25 30  1  0  0  0  0
 25 26  1  0  0  0  0
 26 27  1  0  0  0  0
 26 32  1  0  0  0  0
 27 34  1  0  0  0  0
 27 33  1  0  0  0  0
 28 35  1  6  0  0  0
 28 36  1  0  0  0  0
 28 27  1  0  0  0  0
 29 25  1  0  0  0  0
 31 26  1  0  0  0  0
 36 41  1  1  0  0  0
 36 37  1  0  0  0  0
 37 38  2  0  0  0  0
 39 38  1  0  0  0  0
 40 39  1  0  0  0  0
 41 40  1  0  0  0  0
M  END
>  <minimizedAffinity>
-5.39972544

$$$$

 OpenBabel03272505533D

 41 44  0  0  1  0  0  0  0  0999 V2000
   38.0310   21.9690   30.7830 C   0  0  0  0  0  0  0  0  0  0  0  0
   36.7790   21.4250   31.1790 C   0  0  0  0  0  0  0  0  0  0  0  0
   35.9470   22.2400   31.9360 C   0  0  0  0  0  0  0  0  0  0  0  0
   36.3840   23.4920   32.2460 N   0  0  0  0  0  0  0  0  0  0  0  0
   37.5630   23.9580   31.8540 C   0  0  0  0  0  0  0  0  0  0  0  0
   38.3850   23.2060   31.1270 N   0  0  0  0  0  0  0  0  0  0  0  0
   37.9460   25.2760   32.2150 N   0  0  0  0  0  0  0  0  0  0  0  0
   38.8560   26.0680   31.3840 C   0  0  0  0  0  0  0  0  0  0  0  0
   38.2300   27.3710   31.0580 C   0  0  0  0  0  0  0  0  0  0  0  0
   37.1600   27.7680   31.8250 N   0  0  0  0  0  0  0  0  0  0  0  0
   36.9170   27.2170   33.1360 C   0  0  0  0  0  0  0  0  0  0  0  0
   37.4560   25.9140   33.4310 C   0  0  2  0  0  0  0  0  0  0  0  0
   38.7480   21.4070   30.1890 H   0  0  0  0  0  0  0  0  0  0  0  0
   36.5350   20.4160   30.8760 H   0  0  0  0  0  0  0  0  0  0  0  0
   34.9880   21.8530   32.2520 H   0  0  0  0  0  0  0  0  0  0  0  0
   39.8720   26.0930   31.8040 H   0  0  0  0  0  0  0  0  0  0  0  0
   38.9860   25.4950   30.4390 H   0  0  0  0  0  0  0  0  0  0  0  0
   37.9270   27.4320   29.9870 H   0  0  0  0  0  0  0  0  0  0  0  0
   39.0620   28.1380   31.1080 H   0  0  0  0  0  0  0  0  0  0  0  0
   36.3990   28.2980   31.4030 H   0  0  0  0  0  0  0  0  0  0  0  0
   36.9630   28.0790   33.7740 H   0  0  0  0  0  0  0  0  0  0  0  0
   35.7810   27.0780   33.0880 H   0  0  0  0  0  0  0  0  0  0  0  0
   36.6960   25.1970   33.8660 H   0  0  0  0  0  0  0  0  0  0  0  0
   38.5530   25.9090   34.3740 N   0  0  2  0  0  0  0  0  0  0  0  0
   39.3860   27.1050   34.2580 C   0  0  0  0  0  0  0  0  0  0  0  0
   40.8160   26.7120   34.4300 C   0  0  0  0  0  0  0  0  0  0  0  0
   40.7170   25.2830   34.8700 C   0  0  0  0  0  0  0  0  0  0  0  0
   39.4180   24.7990   34.2680 C   0  0  1  0  0  0  0  0  0  0  0  0
   39.2610   27.4480   33.2050 H   0  0  0  0  0  0  0  0  0  0  0  0
   39.0480   27.8550   34.9900 H   0  0  0  0  0  0  0  0  0  0  0  0
   41.4160   26.8440   33.4910 H   0  0  0  0  0  0  0  0  0  0  0  0
   41.3350   27.2790   35.2230 H   0  0  0  0  0  0  0  0  0  0  0  0
   40.8250   25.1620   35.9360 H   0  0  0  0  0  0  0  0  0  0  0  0
   41.6350   24.8000   34.4220 H   0  0  0  0  0  0  0  0  0  0  0  0
   39.7720   24.5500   33.2550 H   0  0  0  0  0  0  0  0  0  0  0  0
   39.0670   23.5820   35.0970 C   0  0  2  0  0  3  0  0  0  0  0  0
   38.1040   23.8680   36.1780 C   0  0  0  0  0  3  0  0  0  0  0  0
   38.4550   23.7290   37.5860 C   0  0  0  0  0  3  0  0  0  0  0  0
   39.7230   22.9900   37.9050 C   0  0  0  0  0  2  0  0  0  0  0  0
   39.9970   22.0510   36.7300 C   0  0  0  0  0  2  0  0  0  0  0  0
   40.3920   22.9980   35.6150 C   0  0  0  0  0  2  0  0  0  0  0  0
  1  6  2  0  0  0  0
  1  2  1  0  0  0  0
  2  3  2  0  0  0  0
  3  4  1  0  0  0  0
  3 15  1  0  0  0  0
  5  7  1  0  0  0  0
  5  4  2  0  0  0  0
  6  5  1  0  0  0  0
  7 12  1  0  0  0  0
  8 16  1  0  0  0  0
  8  7  1  0  0  0  0
  9 19  1  0  0  0  0
  9  8  1  0  0  0  0
  9 10  1  0  0  0  0
 10 11  1  0  0  0  0
 11 12  1  0  0  0  0
 11 21  1  0  0  0  0
 12 23  1  1  0  0  0
 12 24  1  0  0  0  0
 13  1  1  0  0  0  0
 14  2  1  0  0  0  0
 17  8  1  0  0  0  0
 18  9  1  0  0  0  0
 20 10  1  0  0  0  0
 22 11  1  0  0  0  0
 24 25  1  6  0  0  0
 25 26  1  0  0  0  0
 25 30  1  0  0  0  0
 26 27  1  0  0  0  0
 26 32  1  0  0  0  0
 27 33  1  0  0  0  0
 28 35  1  6  0  0  0
 28 24  1  0  0  0  0
 28 27  1  0  0  0  0
 28 36  1  0  0  0  0
 29 25  1  0  0  0  0
 31 26  1  0  0  0  0
 34 27  1  0  0  0  0
 36 41  1  1  0  0  0
 36 37  1  0  0  0  0
 37 38  2  0  0  0  0
 38 39  1  0  0  0  0
 40 39  1  0  0  0  0
 41 40  1  0  0  0  0
M  END
>  <minimizedAffinity>
-5.39965916

$$$$

 OpenBabel03272505533D

 41 44  0  0  1  0  0  0  0  0999 V2000
   42.8650   20.3720   34.4870 C   0  0  0  0  0  0  0  0  0  0  0  0
   43.6830   20.4580   35.6470 C   0  0  0  0  0  0  0  0  0  0  0  0
   43.2330   21.2770   36.6760 C   0  0  0  0  0  0  0  0  0  0  0  0
   42.0530   21.9330   36.5060 N   0  0  0  0  0  0  0  0  0  0  0  0
   41.3220   21.8210   35.4030 C   0  0  0  0  0  0  0  0  0  0  0  0
   41.7210   21.0470   34.3980 N   0  0  0  0  0  0  0  0  0  0  0  0
   40.1010   22.5370   35.3020 N   0  0  0  0  0  0  0  0  0  0  0  0
   38.9880   22.0460   34.4850 C   0  0  0  0  0  0  0  0  0  0  0  0
   37.7590   21.9670   35.3100 C   0  0  0  0  0  0  0  0  0  0  0  0
   37.7480   22.6620   36.4970 N   0  0  0  0  0  0  0  0  0  0  0  0
   38.6530   23.7580   36.7450 C   0  0  0  0  0  0  0  0  0  0  0  0
   39.8860   23.7970   36.0030 C   0  0  2  0  0  0  0  0  0  0  0  0
   43.1340   19.7570   33.6310 H   0  0  0  0  0  0  0  0  0  0  0  0
   44.6030   19.8920   35.6740 H   0  0  0  0  0  0  0  0  0  0  0  0
   43.8340   21.3620   37.5710 H   0  0  0  0  0  0  0  0  0  0  0  0
   38.9140   22.5890   33.5310 H   0  0  0  0  0  0  0  0  0  0  0  0
   39.2670   21.0160   34.1720 H   0  0  0  0  0  0  0  0  0  0  0  0
   37.4700   20.9130   35.5270 H   0  0  0  0  0  0  0  0  0  0  0  0
   36.9120   22.3080   34.6410 H   0  0  0  0  0  0  0  0  0  0  0  0
   37.2520   22.2850   37.3040 H   0  0  0  0  0  0  0  0  0  0  0  0
   37.9900   24.5860   36.9140 H   0  0  0  0  0  0  0  0  0  0  0  0
   38.9500   23.5310   37.8280 H   0  0  0  0  0  0  0  0  0  0  0  0
   40.8020   23.9440   36.6520 H   0  0  0  0  0  0  0  0  0  0  0  0
   39.9650   24.8450   35.0090 N   0  0  2  0  0  0  0  0  0  0  0  0
   41.3420   25.1080   34.5930 C   0  0  0  0  0  0  0  0  0  0  0  0
   41.5170   26.5800   34.4150 C   0  0  0  0  0  0  0  0  0  0  0  0
   40.1150   27.0960   34.5330 C   0  0  0  0  0  0  0  0  0  0  0  0
   39.4180   26.0810   35.4100 C   0  0  1  0  0  0  0  0  0  0  0  0
   41.9740   24.8020   35.4590 H   0  0  0  0  0  0  0  0  0  0  0  0
   41.5640   24.5290   33.6830 H   0  0  0  0  0  0  0  0  0  0  0  0
   42.2160   27.0270   35.1710 H   0  0  0  0  0  0  0  0  0  0  0  0
   41.9020   26.8600   33.4190 H   0  0  0  0  0  0  0  0  0  0  0  0
   39.6580   27.2970   33.5780 H   0  0  0  0  0  0  0  0  0  0  0  0
   40.2420   28.1090   35.0190 H   0  0  0  0  0  0  0  0  0  0  0  0
   39.7290   26.4560   36.3980 H   0  0  0  0  0  0  0  0  0  0  0  0
   37.9480   26.3010   35.1190 C   0  0  2  0  0  3  0  0  0  0  0  0
   37.5200   25.7440   33.8220 C   0  0  0  0  0  3  0  0  0  0  0  0
   37.0350   26.5880   32.7370 C   0  0  0  0  0  3  0  0  0  0  0  0
   36.6900   28.0090   33.0780 C   0  0  0  0  0  2  0  0  0  0  0  0
   36.3500   28.0380   34.5680 C   0  0  0  0  0  2  0  0  0  0  0  0
   37.6920   27.8130   35.2350 C   0  0  0  0  0  2  0  0  0  0  0  0
  1  2  1  0  0  0  0
  2 14  1  0  0  0  0
  2  3  2  0  0  0  0
  3 15  1  0  0  0  0
  4  3  1  0  0  0  0
  5  4  2  0  0  0  0
  6  1  2  0  0  0  0
  6  5  1  0  0  0  0
  7  5  1  0  0  0  0
  7 12  1  0  0  0  0
  8  7  1  0  0  0  0
  8  9  1  0  0  0  0
  9 18  1  0  0  0  0
  9 10  1  0  0  0  0
 10 11  1  0  0  0  0
 10 20  1  0  0  0  0
 11 21  1  0  0  0  0
 11 22  1  0  0  0  0
 12 23  1  1  0  0  0
 12 11  1  0  0  0  0
 13  1  1  0  0  0  0
 16  8  1  0  0  0  0
 17  8  1  0  0  0  0
 19  9  1  0  0  0  0
 24 25  1  1  0  0  0
 24 28  1  0  0  0  0
 24 12  1  0  0  0  0
 25 29  1  0  0  0  0
 26 27  1  0  0  0  0
 26 25  1  0  0  0  0
 26 31  1  0  0  0  0
 27 34  1  0  0  0  0
 27 28  1  0  0  0  0
 28 35  1  1  0  0  0
 30 25  1  0  0  0  0
 32 26  1  0  0  0  0
 33 27  1  0  0  0  0
 36 37  1  6  0  0  0
 36 41  1  0  0  0  0
 36 28  1  0  0  0  0
 38 39  1  0  0  0  0
 38 37  2  0  0  0  0
 39 40  1  0  0  0  0
 40 41  1  0  0  0  0
M  END
>  <minimizedAffinity>
-5.33335352

$$$$

 OpenBabel03272505533D

 41 44  0  0  1  0  0  0  0  0999 V2000
   39.0100   28.0780   30.0420 C   0  0  0  0  0  0  0  0  0  0  0  0
   37.6750   28.2910   29.6010 C   0  0  0  0  0  0  0  0  0  0  0  0
   36.6560   27.8920   30.4570 C   0  0  0  0  0  0  0  0  0  0  0  0
   37.0000   27.3300   31.6470 N   0  0  0  0  0  0  0  0  0  0  0  0
   38.2630   27.1500   32.0180 C   0  0  0  0  0  0  0  0  0  0  0  0
   39.2640   27.5200   31.2240 N   0  0  0  0  0  0  0  0  0  0  0  0
   38.5410   26.5580   33.2770 N   0  0  0  0  0  0  0  0  0  0  0  0
   39.7690   26.8630   34.0160 C   0  0  0  0  0  0  0  0  0  0  0  0
   39.4300   27.3180   35.3850 C   0  0  0  0  0  0  0  0  0  0  0  0
   38.1630   27.0440   35.8460 N   0  0  0  0  0  0  0  0  0  0  0  0
   37.3480   26.0060   35.2630 C   0  0  0  0  0  0  0  0  0  0  0  0
   37.6230   25.6150   33.9040 C   0  0  2  0  0  0  0  0  0  0  0  0
   39.8730   28.3570   29.4420 H   0  0  0  0  0  0  0  0  0  0  0  0
   37.5180   28.7470   28.6330 H   0  0  0  0  0  0  0  0  0  0  0  0
   35.6300   28.0420   30.1470 H   0  0  0  0  0  0  0  0  0  0  0  0
   40.5080   26.0530   33.9280 H   0  0  0  0  0  0  0  0  0  0  0  0
   40.2510   27.7070   33.4750 H   0  0  0  0  0  0  0  0  0  0  0  0
   39.6170   28.4080   35.5200 H   0  0  0  0  0  0  0  0  0  0  0  0
   40.2090   26.8610   36.0670 H   0  0  0  0  0  0  0  0  0  0  0  0
   37.6920   27.7040   36.4630 H   0  0  0  0  0  0  0  0  0  0  0  0
   37.1750   25.3410   36.0890 H   0  0  0  0  0  0  0  0  0  0  0  0
   36.3350   26.5390   35.2340 H   0  0  0  0  0  0  0  0  0  0  0  0
   36.7040   25.5990   33.2430 H   0  0  0  0  0  0  0  0  0  0  0  0
   38.2100   24.3010   33.7550 N   0  0  2  0  0  0  0  0  0  0  0  0
   37.5310   23.5070   32.7340 C   0  0  0  0  0  0  0  0  0  0  0  0
   37.4400   22.0930   33.2060 C   0  0  0  0  0  0  0  0  0  0  0  0
   38.2980   22.0990   34.4350 C   0  0  0  0  0  0  0  0  0  0  0  0
   38.2230   23.5240   34.9330 C   0  0  1  0  0  0  0  0  0  0  0  0
   36.4920   23.9090   32.6910 H   0  0  0  0  0  0  0  0  0  0  0  0
   38.0640   23.6130   31.7760 H   0  0  0  0  0  0  0  0  0  0  0  0
   36.3840   21.7720   33.4080 H   0  0  0  0  0  0  0  0  0  0  0  0
   37.8650   21.3640   32.4950 H   0  0  0  0  0  0  0  0  0  0  0  0
   39.2860   21.7050   34.2610 H   0  0  0  0  0  0  0  0  0  0  0  0
   37.7960   21.3500   35.1170 H   0  0  0  0  0  0  0  0  0  0  0  0
   37.2760   23.4680   35.4930 H   0  0  0  0  0  0  0  0  0  0  0  0
   39.4400   23.6600   35.8230 C   0  0  2  0  0  3  0  0  0  0  0  0
   40.7100   23.3890   35.1230 C   0  0  0  0  0  3  0  0  0  0  0  0
   41.5700   22.2680   35.4820 C   0  0  0  0  0  3  0  0  0  0  0  0
   41.2850   21.5770   36.7840 C   0  0  0  0  0  2  0  0  0  0  0  0
   40.5760   22.5930   37.6800 C   0  0  0  0  0  2  0  0  0  0  0  0
   39.2140   22.7360   37.0310 C   0  0  0  0  0  2  0  0  0  0  0  0
  1  6  1  0  0  0  0
  2  1  2  0  0  0  0
  2  3  1  0  0  0  0
  3  4  2  0  0  0  0
  4  5  1  0  0  0  0
  5  7  1  0  0  0  0
  6  5  2  0  0  0  0
  7 12  1  0  0  0  0
  7  8  1  0  0  0  0
  8  9  1  0  0  0  0
  9 18  1  0  0  0  0
  9 10  1  0  0  0  0
  9 19  1  0  0  0  0
 10 20  1  0  0  0  0
 11 10  1  0  0  0  0
 11 21  1  0  0  0  0
 12 23  1  6  0  0  0
 12 11  1  0  0  0  0
 13  1  1  0  0  0  0
 14  2  1  0  0  0  0
 15  3  1  0  0  0  0
 16  8  1  0  0  0  0
 17  8  1  0  0  0  0
 22 11  1  0  0  0  0
 24 25  1  6  0  0  0
 24 12  1  0  0  0  0
 24 28  1  0  0  0  0
 25 26  1  0  0  0  0
 26 31  1  0  0  0  0
 26 27  1  0  0  0  0
 27 28  1  0  0  0  0
 27 34  1  0  0  0  0
 28 35  1  1  0  0  0
 28 36  1  0  0  0  0
 29 25  1  0  0  0  0
 30 25  1  0  0  0  0
 32 26  1  0  0  0  0
 33 27  1  0  0  0  0
 36 37  1  6  0  0  0
 36 41  1  0  0  0  0
 37 38  2  0  0  0  0
 38 39  1  0  0  0  0
 39 40  1  0  0  0  0
 41 40  1  0  0  0  0
M  END
>  <minimizedAffinity>
-5.30870581

$$$$

 OpenBabel03272505533D

 41 44  0  0  1  0  0  0  0  0999 V2000
   39.6660   22.6260   37.7210 C   0  0  0  0  0  0  0  0  0  0  0  0
   38.8250   23.4090   38.5590 C   0  0  0  0  0  0  0  0  0  0  0  0
   37.9620   24.2990   37.9320 C   0  0  0  0  0  0  0  0  0  0  0  0
   37.9800   24.3610   36.5720 N   0  0  0  0  0  0  0  0  0  0  0  0
   38.7840   23.6090   35.8300 C   0  0  0  0  0  0  0  0  0  0  0  0
   39.6220   22.7460   36.3960 N   0  0  0  0  0  0  0  0  0  0  0  0
   38.7420   23.7300   34.4170 N   0  0  0  0  0  0  0  0  0  0  0  0
   39.0820   22.6070   33.5380 C   0  0  0  0  0  0  0  0  0  0  0  0
   37.9710   22.3620   32.5870 C   0  0  0  0  0  0  0  0  0  0  0  0
   37.0450   23.3660   32.4250 N   0  0  0  0  0  0  0  0  0  0  0  0
   37.3360   24.7340   32.7780 C   0  0  0  0  0  0  0  0  0  0  0  0
   38.3610   24.9750   33.7610 C   0  0  2  0  0  0  0  0  0  0  0  0
   40.3730   21.9020   38.1200 H   0  0  0  0  0  0  0  0  0  0  0  0
   38.8950   23.2770   39.6300 H   0  0  0  0  0  0  0  0  0  0  0  0
   37.3100   24.9080   38.5430 H   0  0  0  0  0  0  0  0  0  0  0  0
   40.0890   22.7160   33.1110 H   0  0  0  0  0  0  0  0  0  0  0  0
   39.1800   21.7180   34.2000 H   0  0  0  0  0  0  0  0  0  0  0  0
   37.4210   21.4220   32.8230 H   0  0  0  0  0  0  0  0  0  0  0  0
   38.4580   22.1060   31.5990 H   0  0  0  0  0  0  0  0  0  0  0  0
   36.0680   23.1350   32.2530 H   0  0  0  0  0  0  0  0  0  0  0  0
   37.2200   25.2560   31.8460 H   0  0  0  0  0  0  0  0  0  0  0  0
   36.3490   25.0260   33.2810 H   0  0  0  0  0  0  0  0  0  0  0  0
   38.0360   25.6700   34.5940 H   0  0  0  0  0  0  0  0  0  0  0  0
   39.5770   25.5610   33.2420 N   0  0  2  0  0  0  0  0  0  0  0  0
   40.6220   25.6560   34.2600 C   0  0  0  0  0  0  0  0  0  0  0  0
   41.3480   26.9490   34.0840 C   0  0  0  0  0  0  0  0  0  0  0  0
   40.8040   27.4590   32.7840 C   0  0  0  0  0  0  0  0  0  0  0  0
   39.4230   26.8530   32.6970 C   0  0  1  0  0  0  0  0  0  0  0  0
   40.0800   25.7110   35.2330 H   0  0  0  0  0  0  0  0  0  0  0  0
   41.2770   24.7740   34.1910 H   0  0  0  0  0  0  0  0  0  0  0  0
   41.1840   27.6560   34.9390 H   0  0  0  0  0  0  0  0  0  0  0  0
   42.4400   26.8280   33.9740 H   0  0  0  0  0  0  0  0  0  0  0  0
   41.4620   27.2740   31.9510 H   0  0  0  0  0  0  0  0  0  0  0  0
   40.8020   28.5820   32.9170 H   0  0  0  0  0  0  0  0  0  0  0  0
   38.8690   27.5810   33.3110 H   0  0  0  0  0  0  0  0  0  0  0  0
   39.0860   26.9320   31.2220 C   0  0  2  0  0  3  0  0  0  0  0  0
   40.2690   27.1240   30.3620 C   0  0  0  0  0  3  0  0  0  0  0  0
   40.4600   28.3270   29.5610 C   0  0  0  0  0  3  0  0  0  0  0  0
   39.2730   29.2310   29.3930 C   0  0  0  0  0  2  0  0  0  0  0  0
   38.0260   28.3670   29.5810 C   0  0  0  0  0  2  0  0  0  0  0  0
   38.0440   28.0520   31.0630 C   0  0  0  0  0  2  0  0  0  0  0  0
  1 13  1  0  0  0  0
  1  2  1  0  0  0  0
  2 14  1  0  0  0  0
  3 15  1  0  0  0  0
  3  2  2  0  0  0  0
  4  3  1  0  0  0  0
  5  6  1  0  0  0  0
  5  4  2  0  0  0  0
  6  1  2  0  0  0  0
  7  5  1  0  0  0  0
  8 17  1  0  0  0  0
  8  7  1  0  0  0  0
  9 18  1  0  0  0  0
  9  8  1  0  0  0  0
 10  9  1  0  0  0  0
 10 11  1  0  0  0  0
 11 22  1  0  0  0  0
 11 12  1  0  0  0  0
 12  7  1  0  0  0  0
 12 23  1  1  0  0  0
 16  8  1  0  0  0  0
 19  9  1  0  0  0  0
 20 10  1  0  0  0  0
 21 11  1  0  0  0  0
 24 12  1  0  0  0  0
 24 25  1  1  0  0  0
 25 29  1  0  0  0  0
 26 25  1  0  0  0  0
 26 31  1  0  0  0  0
 27 34  1  0  0  0  0
 27 26  1  0  0  0  0
 28 27  1  0  0  0  0
 28 24  1  0  0  0  0
 28 35  1  1  0  0  0
 30 25  1  0  0  0  0
 32 26  1  0  0  0  0
 33 27  1  0  0  0  0
 36 37  1  6  0  0  0
 36 28  1  0  0  0  0
 38 37  2  0  0  0  0
 39 38  1  0  0  0  0
 39 40  1  0  0  0  0
 40 41  1  0  0  0  0
 41 36  1  0  0  0  0
M  END
>  <minimizedAffinity>
-5.24346018

$$$$

 OpenBabel03272505533D

 41 44  0  0  1  0  0  0  0  0999 V2000
   36.5220   18.3720   32.1190 C   0  0  0  0  0  0  0  0  0  0  0  0
   35.1380   18.6740   32.2450 C   0  0  0  0  0  0  0  0  0  0  0  0
   34.7690   20.0080   32.1170 C   0  0  0  0  0  0  0  0  0  0  0  0
   35.7460   20.9250   31.8820 N   0  0  0  0  0  0  0  0  0  0  0  0
   37.0280   20.5960   31.7710 C   0  0  0  0  0  0  0  0  0  0  0  0
   37.4170   19.3300   31.8880 N   0  0  0  0  0  0  0  0  0  0  0  0
   37.9880   21.6110   31.5240 N   0  0  0  0  0  0  0  0  0  0  0  0
   39.2350   21.3320   30.8070 C   0  0  0  0  0  0  0  0  0  0  0  0
   39.3730   22.2620   29.6620 C   0  0  0  0  0  0  0  0  0  0  0  0
   38.5870   23.3910   29.6660 N   0  0  0  0  0  0  0  0  0  0  0  0
   37.9980   23.9040   30.8790 C   0  0  0  0  0  0  0  0  0  0  0  0
   37.7880   22.9850   31.9690 C   0  0  2  0  0  0  0  0  0  0  0  0
   36.9060   17.3590   32.2040 H   0  0  0  0  0  0  0  0  0  0  0  0
   34.4470   17.8640   32.4320 H   0  0  0  0  0  0  0  0  0  0  0  0
   33.7220   20.2670   32.2080 H   0  0  0  0  0  0  0  0  0  0  0  0
   40.0900   21.2560   31.4940 H   0  0  0  0  0  0  0  0  0  0  0  0
   39.1360   20.2980   30.4090 H   0  0  0  0  0  0  0  0  0  0  0  0
   39.2270   21.7460   28.6850 H   0  0  0  0  0  0  0  0  0  0  0  0
   40.4690   22.5400   29.6160 H   0  0  0  0  0  0  0  0  0  0  0  0
   38.2300   23.7670   28.7890 H   0  0  0  0  0  0  0  0  0  0  0  0
   38.4180   24.8890   30.9560 H   0  0  0  0  0  0  0  0  0  0  0  0
   36.9530   24.1740   30.4960 H   0  0  0  0  0  0  0  0  0  0  0  0
   36.7400   23.0180   32.3930 H   0  0  0  0  0  0  0  0  0  0  0  0
   38.6560   23.1840   33.1080 N   0  0  2  0  0  0  0  0  0  0  0  0
   38.9630   21.9300   33.7940 C   0  0  0  0  0  0  0  0  0  0  0  0
   38.9700   22.1770   35.2660 C   0  0  0  0  0  0  0  0  0  0  0  0
   38.8750   23.6700   35.3520 C   0  0  0  0  0  0  0  0  0  0  0  0
   38.1540   24.0690   34.0850 C   0  0  1  0  0  0  0  0  0  0  0  0
   38.1010   21.2570   33.5750 H   0  0  0  0  0  0  0  0  0  0  0  0
   39.9170   21.5320   33.4140 H   0  0  0  0  0  0  0  0  0  0  0  0
   38.1320   21.6500   35.7960 H   0  0  0  0  0  0  0  0  0  0  0  0
   39.9060   21.8640   35.7600 H   0  0  0  0  0  0  0  0  0  0  0  0
   39.8270   24.1430   35.5310 H   0  0  0  0  0  0  0  0  0  0  0  0
   38.2750   23.8470   36.2940 H   0  0  0  0  0  0  0  0  0  0  0  0
   37.1150   23.9010   34.4110 H   0  0  0  0  0  0  0  0  0  0  0  0
   38.5010   25.5340   33.9190 C   0  0  2  0  0  3  0  0  0  0  0  0
   39.2210   26.0990   35.0750 C   0  0  0  0  0  3  0  0  0  0  0  0
   38.6530   27.1560   35.9020 C   0  0  0  0  0  3  0  0  0  0  0  0
   37.4470   27.8720   35.3640 C   0  0  0  0  0  2  0  0  0  0  0  0
   37.4940   27.7370   33.8420 C   0  0  0  0  0  2  0  0  0  0  0  0
   37.1860   26.2710   33.6140 C   0  0  0  0  0  2  0  0  0  0  0  0
  1 13  1  0  0  0  0
  1  2  1  0  0  0  0
  2 14  1  0  0  0  0
  3 15  1  0  0  0  0
  3  2  2  0  0  0  0
  4  3  1  0  0  0  0
  5  4  2  0  0  0  0
  5  6  1  0  0  0  0
  6  1  2  0  0  0  0
  7  5  1  0  0  0  0
  7 12  1  0  0  0  0
  8 16  1  0  0  0  0
  8  7  1  0  0  0  0
  9 10  1  0  0  0  0
  9  8  1  0  0  0  0
 10 11  1  0  0  0  0
 11 21  1  0  0  0  0
 11 12  1  0  0  0  0
 12 23  1  1  0  0  0
 12 24  1  0  0  0  0
 17  8  1  0  0  0  0
 18  9  1  0  0  0  0
 19  9  1  0  0  0  0
 20 10  1  0  0  0  0
 22 11  1  0  0  0  0
 24 25  1  1  0  0  0
 24 28  1  0  0  0  0
 25 26  1  0  0  0  0
 26 27  1  0  0  0  0
 26 32  1  0  0  0  0
 26 31  1  0  0  0  0
 27 33  1  0  0  0  0
 27 34  1  0  0  0  0
 28 35  1  1  0  0  0
 28 27  1  0  0  0  0
 29 25  1  0  0  0  0
 30 25  1  0  0  0  0
 36 41  1  1  0  0  0
 36 28  1  0  0  0  0
 36 37  1  0  0  0  0
 37 38  2  0  0  0  0
 39 38  1  0  0  0  0
 40 39  1  0  0  0  0
 41 40  1  0  0  0  0
M  END
>  <minimizedAffinity>
-5.17982292

$$$$
