
 OpenBabel03272508413D

 39 42  0  0  1  0  0  0  0  0999 V2000
   34.6460   29.8990   46.6390 N   0  0  0  0  0  0  0  0  0  0  0  0
   33.1980   30.0720   46.7050 C   0  0  0  0  0  0  0  0  0  0  0  0
   32.4360   29.1240   45.8920 C   0  0  2  0  0  0  0  0  0  0  0  0
   33.0270   28.9290   44.5390 N   0  0  0  0  0  0  0  0  0  0  0  0
   34.4390   28.5540   44.7330 C   0  0  0  0  0  0  0  0  0  0  0  0
   35.0650   29.8130   45.2850 C   0  0  0  0  0  0  0  0  0  0  0  0
   33.1070   31.0870   46.1900 H   0  0  0  0  0  0  0  0  0  0  0  0
   32.8530   30.0770   47.7350 H   0  0  0  0  0  0  0  0  0  0  0  0
   32.4460   28.0740   46.2380 H   0  0  0  0  0  0  0  0  0  0  0  0
   33.0270   29.8650   44.0880 H   0  0  0  0  0  0  0  0  0  0  0  0
   34.8680   28.4100   43.7250 H   0  0  0  0  0  0  0  0  0  0  0  0
   34.5570   27.7060   45.4090 H   0  0  0  0  0  0  0  0  0  0  0  0
   36.1660   29.7580   45.2130 H   0  0  0  0  0  0  0  0  0  0  0  0
   34.7620   30.6790   44.6640 H   0  0  0  0  0  0  0  0  0  0  0  0
   30.5000   28.0050   47.8540 Cl  0  0  0  0  0  0  0  0  0  0  0  0
   30.0770   29.1710   46.6060 C   0  0  0  0  0  0  0  0  0  0  0  0
   31.0610   29.5750   45.7460 C   0  0  0  0  0  0  0  0  0  0  0  0
   30.8700   30.4920   44.7010 C   0  0  0  0  0  0  0  0  0  0  0  0
   29.5610   30.9870   44.5790 C   0  0  0  0  0  0  0  0  0  0  0  0
   28.5500   30.5790   45.4500 C   0  0  0  0  0  0  0  0  0  0  0  0
   28.8210   29.6850   46.4420 C   0  0  0  0  0  0  0  0  0  0  0  0
   31.4250   30.9650   43.9300 H   0  0  0  0  0  0  0  0  0  0  0  0
   29.1740   31.6940   43.8580 H   0  0  0  0  0  0  0  0  0  0  0  0
   27.5240   30.9150   45.4150 H   0  0  0  0  0  0  0  0  0  0  0  0
   27.7860   29.2170   47.3990 C   0  0  0  0  0  0  0  0  0  0  0  0
   27.5960   27.7340   47.1280 C   0  0  0  0  0  0  0  0  0  0  0  0
   26.9790   27.0030   48.2860 C   0  0  0  0  0  0  0  0  0  0  0  0
   26.1050   27.9630   49.0340 C   0  0  0  0  0  0  0  0  0  0  0  0
   26.9150   29.0650   49.6520 C   0  0  0  0  0  0  0  0  0  0  0  0
   28.1520   29.4250   48.8350 C   0  0  0  0  0  0  0  0  0  0  0  0
   35.4640   29.8450   47.7980 C   0  0  0  0  0  0  0  0  0  0  0  0
   36.6940   30.5020   47.8720 C   0  0  0  0  0  0  0  0  0  0  0  0
   37.4310   30.4000   49.0390 C   0  0  0  0  0  0  0  0  0  0  0  0
   36.9100   29.6490   50.0800 N   0  0  0  0  0  0  0  0  0  0  0  0
   35.7120   29.0330   49.9570 C   0  0  0  0  0  0  0  0  0  0  0  0
   34.9960   29.1200   48.8490 N   0  0  0  0  0  0  0  0  0  0  0  0
   37.0140   31.0630   47.0080 H   0  0  0  0  0  0  0  0  0  0  0  0
   38.3870   30.9020   49.1150 H   0  0  0  0  0  0  0  0  0  0  0  0
   35.4320   28.4830   50.8470 H   0  0  0  0  0  0  0  0  0  0  0  0
  1  2  1  0  0  0  0
  1 31  1  0  0  0  0
  2  8  1  0  0  0  0
  3  9  1  1  0  0  0
  3  2  1  0  0  0  0
  4  5  1  0  0  0  0
  4  3  1  0  0  0  0
  5  6  1  0  0  0  0
  5 12  1  0  0  0  0
  6  1  1  0  0  0  0
  7  2  1  0  0  0  0
 10  4  1  0  0  0  0
 11  5  1  0  0  0  0
 13  6  1  0  0  0  0
 14  6  1  0  0  0  0
 16 15  1  0  0  0  0
 17  3  1  0  0  0  0
 17 16  2  0  0  0  0
 18 17  1  0  0  0  0
 19 18  2  0  0  0  0
 19 20  1  0  0  0  0
 20 21  2  0  0  0  0
 21 16  1  0  0  0  0
 21 25  1  0  0  0  0
 22 18  1  0  0  0  0
 23 19  1  0  0  0  0
 24 20  1  0  0  0  0
 25 30  1  0  0  0  0
 26 25  1  0  0  0  0
 26 27  1  0  0  0  0
 27 28  1  0  0  0  0
 28 29  1  0  0  0  0
 30 29  1  0  0  0  0
 31 32  2  0  0  0  0
 31 36  1  0  0  0  0
 32 33  1  0  0  0  0
 33 38  1  0  0  0  0
 33 34  2  0  0  0  0
 35 34  1  0  0  0  0
 35 39  1  0  0  0  0
 36 35  2  0  0  0  0
 37 32  1  0  0  0  0
M  END
>  <minimizedAffinity>
-5.64473867

>  <minimizedRMSD>
8.92622471

$$$$
