
     RDKit          3D

 26 27  0  0  0  0  0  0  0  0999 V2000
   37.2972   30.1832   51.4148 C   0  0  0  0  0  0  0  0  0  0  0  0
   38.0729   30.6835   50.3456 C   0  0  0  0  0  0  0  0  0  0  0  0
   37.6746   30.3405   49.0448 C   0  0  0  0  0  0  0  0  0  0  0  0
   36.5724   29.5516   48.8894 N   0  0  0  0  0  0  0  0  0  0  0  0
   35.8579   29.0936   49.9341 C   0  0  0  0  0  0  0  0  0  0  0  0
   36.2191   29.4086   51.1993 N   0  0  0  0  0  0  0  0  0  0  0  0
   37.6262   30.4629   52.4108 H   0  0  0  0  0  0  0  0  0  0  0  0
   38.9312   31.3007   50.5261 H   0  0  0  0  0  0  0  0  0  0  0  0
   35.0020   28.4765   49.7183 H   0  0  0  0  0  0  0  0  0  0  0  0
   38.4527   30.8396   47.9105 C   0  0  0  0  0  0  0  0  0  0  0  0
   39.0363   32.1987   48.0616 C   0  0  0  0  0  0  0  0  0  0  0  0
   39.4519   32.6474   46.6736 C   0  0  0  0  0  0  0  0  0  0  0  0
   40.1004   31.5531   45.9116 C   0  0  0  0  0  0  0  0  0  0  0  0
   40.6023   30.3913   46.7003 C   0  0  0  0  0  0  0  0  0  0  0  0
   39.6521   29.8957   47.7538 C   0  0  0  0  0  0  0  0  0  0  0  0
   37.9117   30.7387   46.9324 H   0  0  0  0  0  0  0  0  0  0  0  0
   39.9062   32.2235   48.7218 H   0  0  0  0  0  0  0  0  0  0  0  0
   38.3121   32.9688   48.3929 H   0  0  0  0  0  0  0  0  0  0  0  0
   40.0422   33.5868   46.7126 H   0  0  0  0  0  0  0  0  0  0  0  0
   38.5034   32.9258   46.1405 H   0  0  0  0  0  0  0  0  0  0  0  0
   39.4835   31.1907   45.0431 H   0  0  0  0  0  0  0  0  0  0  0  0
   41.0143   32.0028   45.4285 H   0  0  0  0  0  0  0  0  0  0  0  0
   40.7212   29.5390   45.9673 H   0  0  0  0  0  0  0  0  0  0  0  0
   41.6156   30.5180   47.1343 H   0  0  0  0  0  0  0  0  0  0  0  0
   39.2660   28.8760   47.5621 H   0  0  0  0  0  0  0  0  0  0  0  0
   40.1462   29.8802   48.7526 H   0  0  0  0  0  0  0  0  0  0  0  0
  2  1  2  0
  3  2  1  0
  4  3  2  0
  4  5  1  0
  5  6  2  0
  6  1  1  0
  1  7  1  0
  2  8  1  0
  5  9  1  0
 10 11  1  0
 11 12  1  0
 12 13  1  0
 13 14  1  0
 14 15  1  0
 15 10  1  0
 10 16  1  0
 11 17  1  0
 11 18  1  0
 12 19  1  0
 12 20  1  0
 13 21  1  0
 13 22  1  0
 14 23  1  0
 14 24  1  0
 15 25  1  0
 15 26  1  0
  3 10  1  0
M  ISO  3   7  14   8  14   9  14
M  END
>  <DihAtoms>  (1) 
1,2,9,10

>  <DihDeg>  (1) 
-49.97841113850576

$$$$
