
 OpenBabel03272508123D

 31 33  0  0  0  0  0  0  0  0999 V2000
   36.6470   29.4530   44.0220 Cl  0  0  0  0  0  0  0  0  0  0  0  0
   38.3060   29.8330   43.4960 C   0  0  0  0  0  0  0  0  0  0  0  0
   39.3050   30.3090   44.3470 C   0  0  0  0  0  0  0  0  0  0  0  0
   40.5400   30.5580   43.7950 C   0  0  0  0  0  0  0  0  0  0  0  0
   40.7830   30.3480   42.4600 C   0  0  0  0  0  0  0  0  0  0  0  0
   39.8130   29.8820   41.6100 C   0  0  0  0  0  0  0  0  0  0  0  0
   38.5820   29.6280   42.1320 C   0  0  0  0  0  0  0  0  0  0  0  0
   41.2640   30.9240   44.5120 H   0  0  0  0  0  0  0  0  0  0  0  0
   41.7720   30.5620   42.0760 H   0  0  0  0  0  0  0  0  0  0  0  0
   40.0140   29.7190   40.5520 H   0  0  0  0  0  0  0  0  0  0  0  0
   37.5060   29.1180   41.2220 C   0  0  0  0  0  3  0  0  0  0  0  0
   37.8470   27.6530   40.9970 C   0  0  0  0  0  2  0  0  0  0  0  0
   36.8870   27.0850   40.0020 C   0  0  0  0  0  2  0  0  0  0  0  0
   35.7040   27.9870   39.7480 C   0  0  0  0  0  2  0  0  0  0  0  0
   36.1300   29.3570   39.2630 C   0  0  0  0  0  2  0  0  0  0  0  0
   37.4180   29.8300   39.9200 C   0  0  0  0  0  2  0  0  0  0  0  0
   38.8700   30.4520   45.6350 O   0  0  0  0  0  0  0  0  0  0  0  0
   39.4420   32.5050   47.0990 O   0  0  0  0  0  0  0  0  0  0  0  0
   38.2960   31.8350   46.4100 P   0  0  1  0  0  0  0  0  0  0  0  0
   37.7110   32.8440   45.1680 O   0  0  0  0  0  0  0  0  0  0  0  0
   37.4790   32.3510   44.3500 H   0  0  0  0  0  0  0  0  0  0  0  0
   37.0210   31.4120   47.4410 O   0  0  0  0  0  0  0  0  0  0  0  0
   37.6170   30.5280   50.9840 C   0  0  0  0  0  0  0  0  0  0  0  0
   37.7020   31.2940   49.8200 C   0  0  0  0  0  0  0  0  0  0  0  0
   37.0710   30.8420   48.6630 C   0  0  0  0  0  0  0  0  0  0  0  0
   36.3910   29.6500   48.7400 N   0  0  0  0  0  0  0  0  0  0  0  0
   36.3320   28.9400   49.8830 C   0  0  0  0  0  0  0  0  0  0  0  0
   36.9430   29.3810   50.9950 N   0  0  0  0  0  0  0  0  0  0  0  0
   38.1390   30.9540   51.8440 H   0  0  0  0  0  0  0  0  0  0  0  0
   38.2100   32.2300   49.6770 H   0  0  0  0  0  0  0  0  0  0  0  0
   35.7790   27.9890   49.9080 H   0  0  0  0  0  0  0  0  0  0  0  0
  2  1  1  0  0  0  0
  2  3  1  0  0  0  0
  3 17  1  0  0  0  0
  4  3  2  0  0  0  0
  4  8  1  0  0  0  0
  5  4  1  0  0  0  0
  6  7  1  0  0  0  0
  6  5  2  0  0  0  0
  7  2  2  0  0  0  0
  9  5  1  0  0  0  0
 10  6  1  0  0  0  0
 11  7  1  0  0  0  0
 12 11  1  0  0  0  0
 13 12  1  0  0  0  0
 14 13  1  0  0  0  0
 15 14  1  0  0  0  0
 15 16  1  0  0  0  0
 16 11  1  0  0  0  0
 17 19  1  0  0  0  0
 19 18  2  1  0  0  0
 19 22  1  0  0  0  0
 20 19  1  0  0  0  0
 21 20  1  0  0  0  0
 22 25  1  0  0  0  0
 23 28  1  0  0  0  0
 23 29  1  0  0  0  0
 24 23  2  0  0  0  0
 25 26  2  0  0  0  0
 25 24  1  0  0  0  0
 26 27  1  0  0  0  0
 27 31  1  0  0  0  0
 27 28  2  0  0  0  0
 30 24  1  0  0  0  0
M  END
>  <minimizedAffinity>
-4.83079004

>  <minimizedRMSD>
0.574513674

$$$$
