
 OpenBabel03262522543D

 25 27  0  0  0  0  0  0  0  0999 V2000
   38.6560   24.0040   30.2240 C   0  0  0  0  0  0  0  0  0  0  0  0
   38.2630   25.1740   30.8890 C   0  0  0  0  0  0  0  0  0  0  0  0
   37.1470   25.2150   31.7080 C   0  0  0  0  0  0  0  0  0  0  0  0
   36.4450   24.0520   31.8320 N   0  0  0  0  0  0  0  0  0  0  0  0
   36.8360   22.9350   31.1860 C   0  0  0  0  0  0  0  0  0  0  0  0
   37.9210   22.9090   30.3950 N   0  0  0  0  0  0  0  0  0  0  0  0
   39.5440   24.0900   29.6120 H   0  0  0  0  0  0  0  0  0  0  0  0
   38.8520   26.0810   30.7620 H   0  0  0  0  0  0  0  0  0  0  0  0
   38.1400   25.3610   34.4850 Cl  0  0  0  0  0  0  0  0  0  0  0  0
   37.1490   26.5870   33.7220 C   0  0  0  0  0  0  0  0  0  0  0  0
   36.7280   26.4310   32.4080 C   0  0  0  0  0  0  0  0  0  0  0  0
   35.9540   27.4290   31.8670 C   0  0  0  0  0  0  0  0  0  0  0  0
   35.5910   28.5560   32.5820 C   0  0  0  0  0  0  0  0  0  0  0  0
   36.0450   28.6630   33.9090 C   0  0  0  0  0  0  0  0  0  0  0  0
   35.5560   30.1140   34.7710 Cl  0  0  0  0  0  0  0  0  0  0  0  0
   36.8220   27.6900   34.4920 C   0  0  0  0  0  0  0  0  0  0  0  0
   35.6490   27.2660   30.8440 H   0  0  0  0  0  0  0  0  0  0  0  0
   34.9780   29.3100   32.1040 H   0  0  0  0  0  0  0  0  0  0  0  0
   37.1450   27.8070   35.5000 H   0  0  0  0  0  0  0  0  0  0  0  0
   36.0530   21.6750   31.3390 C   0  0  0  0  0  3  0  0  0  0  0  0
   36.8860   20.4530   31.1280 C   0  0  0  0  0  2  0  0  0  0  0  0
   35.9540   19.2650   31.0210 C   0  0  0  0  0  2  0  0  0  0  0  0
   35.0980   19.1620   32.2410 C   0  0  0  0  0  2  0  0  0  0  0  0
   35.4650   20.1970   33.2890 C   0  0  0  0  0  2  0  0  0  0  0  0
   35.3950   21.5870   32.6970 C   0  0  0  0  0  2  0  0  0  0  0  0
  1  6  2  0  0  0  0
  1  2  1  0  0  0  0
  2  3  2  0  0  0  0
  3  4  1  0  0  0  0
  3 11  1  0  0  0  0
  5 20  1  0  0  0  0
  5  4  2  0  0  0  0
  6  5  1  0  0  0  0
  7  1  1  0  0  0  0
  8  2  1  0  0  0  0
 10  9  1  0  0  0  0
 10 16  1  0  0  0  0
 11 10  2  0  0  0  0
 12 11  1  0  0  0  0
 12 13  2  0  0  0  0
 13 14  1  0  0  0  0
 14 16  2  0  0  0  0
 14 15  1  0  0  0  0
 16 19  1  0  0  0  0
 17 12  1  0  0  0  0
 18 13  1  0  0  0  0
 20 25  1  0  0  0  0
 21 20  1  0  0  0  0
 22 21  1  0  0  0  0
 22 23  1  0  0  0  0
 23 24  1  0  0  0  0
 25 24  1  0  0  0  0
M  END
>  <minimizedAffinity>
-5.56116438

$$$$

 OpenBabel03262522543D

 25 27  0  0  0  0  0  0  0  0999 V2000
   35.6360   28.7610   32.2240 C   0  0  0  0  0  0  0  0  0  0  0  0
   35.2180   29.8170   33.0460 C   0  0  0  0  0  0  0  0  0  0  0  0
   35.5530   29.8800   34.3880 C   0  0  0  0  0  0  0  0  0  0  0  0
   36.3130   28.8560   34.8710 N   0  0  0  0  0  0  0  0  0  0  0  0
   36.7070   27.8480   34.0680 C   0  0  0  0  0  0  0  0  0  0  0  0
   36.3750   27.7980   32.7670 N   0  0  0  0  0  0  0  0  0  0  0  0
   35.3140   28.8160   31.1920 H   0  0  0  0  0  0  0  0  0  0  0  0
   34.6110   30.6140   32.6190 H   0  0  0  0  0  0  0  0  0  0  0  0
   32.8140   29.5320   35.4380 Cl  0  0  0  0  0  0  0  0  0  0  0  0
   33.8450   30.9010   35.7960 C   0  0  0  0  0  0  0  0  0  0  0  0
   35.1220   30.9790   35.2560 C   0  0  0  0  0  0  0  0  0  0  0  0
   35.8810   32.0780   35.5770 C   0  0  0  0  0  0  0  0  0  0  0  0
   35.4170   33.0850   36.4040 C   0  0  0  0  0  0  0  0  0  0  0  0
   34.1150   32.9550   36.9240 C   0  0  0  0  0  0  0  0  0  0  0  0
   33.5750   34.2610   37.9690 Cl  0  0  0  0  0  0  0  0  0  0  0  0
   33.3200   31.8730   36.6310 C   0  0  0  0  0  0  0  0  0  0  0  0
   36.8660   32.0980   35.1340 H   0  0  0  0  0  0  0  0  0  0  0  0
   36.0590   33.9280   36.6210 H   0  0  0  0  0  0  0  0  0  0  0  0
   32.3410   31.8110   37.0440 H   0  0  0  0  0  0  0  0  0  0  0  0
   37.5390   26.7390   34.6190 C   0  0  0  0  0  3  0  0  0  0  0  0
   37.9870   25.7810   33.5650 C   0  0  0  0  0  2  0  0  0  0  0  0
   38.5670   24.5650   34.2560 C   0  0  0  0  0  2  0  0  0  0  0  0
   39.6810   24.9640   35.1680 C   0  0  0  0  0  2  0  0  0  0  0  0
   39.9970   26.4470   35.0730 C   0  0  0  0  0  2  0  0  0  0  0  0
   38.7550   27.2630   35.3490 C   0  0  0  0  0  2  0  0  0  0  0  0
  1  6  2  0  0  0  0
  1  2  1  0  0  0  0
  2  3  2  0  0  0  0
  3  4  1  0  0  0  0
  3 11  1  0  0  0  0
  5 20  1  0  0  0  0
  5  4  2  0  0  0  0
  6  5  1  0  0  0  0
  7  1  1  0  0  0  0
  8  2  1  0  0  0  0
  9 10  1  0  0  0  0
 10 16  1  0  0  0  0
 11 12  1  0  0  0  0
 11 10  2  0  0  0  0
 12 13  2  0  0  0  0
 13 18  1  0  0  0  0
 13 14  1  0  0  0  0
 14 15  1  0  0  0  0
 16 14  2  0  0  0  0
 16 19  1  0  0  0  0
 17 12  1  0  0  0  0
 20 25  1  0  0  0  0
 21 22  1  0  0  0  0
 21 20  1  0  0  0  0
 22 23  1  0  0  0  0
 24 23  1  0  0  0  0
 24 25  1  0  0  0  0
M  END
>  <minimizedAffinity>
-5.56097555

$$$$

 OpenBabel03262522543D

 25 27  0  0  0  0  0  0  0  0999 V2000
   36.5090   29.3320   30.5080 C   0  0  0  0  0  0  0  0  0  0  0  0
   36.0120   30.0390   31.6110 C   0  0  0  0  0  0  0  0  0  0  0  0
   35.6580   29.4070   32.7910 C   0  0  0  0  0  0  0  0  0  0  0  0
   35.8170   28.0520   32.8230 N   0  0  0  0  0  0  0  0  0  0  0  0
   36.2960   27.3860   31.7530 C   0  0  0  0  0  0  0  0  0  0  0  0
   36.6360   28.0120   30.6150 N   0  0  0  0  0  0  0  0  0  0  0  0
   36.7520   29.9310   29.6400 H   0  0  0  0  0  0  0  0  0  0  0  0
   35.9000   31.1210   31.5430 H   0  0  0  0  0  0  0  0  0  0  0  0
   32.7090   29.3820   32.9570 Cl  0  0  0  0  0  0  0  0  0  0  0  0
   33.7590   30.1780   34.1110 C   0  0  0  0  0  0  0  0  0  0  0  0
   35.1380   30.1360   33.9510 C   0  0  0  0  0  0  0  0  0  0  0  0
   35.9060   30.7790   34.8900 C   0  0  0  0  0  0  0  0  0  0  0  0
   35.3540   31.4520   35.9650 C   0  0  0  0  0  0  0  0  0  0  0  0
   33.9510   31.4630   36.0790 C   0  0  0  0  0  0  0  0  0  0  0  0
   33.3030   32.3320   37.4620 Cl  0  0  0  0  0  0  0  0  0  0  0  0
   33.1420   30.8330   35.1630 C   0  0  0  0  0  0  0  0  0  0  0  0
   36.9710   30.7210   34.7260 H   0  0  0  0  0  0  0  0  0  0  0  0
   36.0090   31.9420   36.6740 H   0  0  0  0  0  0  0  0  0  0  0  0
   32.0860   30.8650   35.2840 H   0  0  0  0  0  0  0  0  0  0  0  0
   36.4630   25.9060   31.8120 C   0  0  0  0  0  3  0  0  0  0  0  0
   35.4250   25.1790   31.0200 C   0  0  0  0  0  2  0  0  0  0  0  0
   35.5090   23.7110   31.3760 C   0  0  0  0  0  2  0  0  0  0  0  0
   36.8860   23.1890   31.1180 C   0  0  0  0  0  2  0  0  0  0  0  0
   37.7840   24.2320   30.4760 C   0  0  0  0  0  2  0  0  0  0  0  0
   37.8310   25.4780   31.3300 C   0  0  0  0  0  2  0  0  0  0  0  0
  1  6  2  0  0  0  0
  1  2  1  0  0  0  0
  2  3  2  0  0  0  0
  3  4  1  0  0  0  0
  3 11  1  0  0  0  0
  5 20  1  0  0  0  0
  5  4  2  0  0  0  0
  6  5  1  0  0  0  0
  7  1  1  0  0  0  0
  8  2  1  0  0  0  0
  9 10  1  0  0  0  0
 10 16  1  0  0  0  0
 11 10  2  0  0  0  0
 11 12  1  0  0  0  0
 12 13  2  0  0  0  0
 13 14  1  0  0  0  0
 13 18  1  0  0  0  0
 14 15  1  0  0  0  0
 16 19  1  0  0  0  0
 16 14  2  0  0  0  0
 17 12  1  0  0  0  0
 21 22  1  0  0  0  0
 21 20  1  0  0  0  0
 23 22  1  0  0  0  0
 24 23  1  0  0  0  0
 24 25  1  0  0  0  0
 25 20  1  0  0  0  0
M  END
>  <minimizedAffinity>
-5.46998787

$$$$

 OpenBabel03262522543D

 25 27  0  0  0  0  0  0  0  0999 V2000
   36.2430   30.1050   30.9490 C   0  0  0  0  0  0  0  0  0  0  0  0
   36.3530   28.7220   30.7530 C   0  0  0  0  0  0  0  0  0  0  0  0
   36.1730   27.8170   31.7860 C   0  0  0  0  0  0  0  0  0  0  0  0
   35.8840   28.3450   33.0100 N   0  0  0  0  0  0  0  0  0  0  0  0
   35.7820   29.6780   33.1820 C   0  0  0  0  0  0  0  0  0  0  0  0
   35.9580   30.5450   32.1710 N   0  0  0  0  0  0  0  0  0  0  0  0
   36.4030   30.7160   30.0700 H   0  0  0  0  0  0  0  0  0  0  0  0
   36.5860   28.3420   29.7590 H   0  0  0  0  0  0  0  0  0  0  0  0
   38.8570   26.7600   32.4240 Cl  0  0  0  0  0  0  0  0  0  0  0  0
   37.5140   25.7820   31.8690 C   0  0  0  0  0  0  0  0  0  0  0  0
   36.2850   26.3690   31.5930 C   0  0  0  0  0  0  0  0  0  0  0  0
   35.2730   25.5470   31.1620 C   0  0  0  0  0  0  0  0  0  0  0  0
   35.4420   24.1840   30.9990 C   0  0  0  0  0  0  0  0  0  0  0  0
   36.7070   23.6420   31.2930 C   0  0  0  0  0  0  0  0  0  0  0  0
   36.8670   21.9070   31.0690 Cl  0  0  0  0  0  0  0  0  0  0  0  0
   37.7500   24.4260   31.7270 C   0  0  0  0  0  0  0  0  0  0  0  0
   34.3360   26.0450   30.9590 H   0  0  0  0  0  0  0  0  0  0  0  0
   34.6080   23.5860   30.6550 H   0  0  0  0  0  0  0  0  0  0  0  0
   38.6920   23.9780   31.9390 H   0  0  0  0  0  0  0  0  0  0  0  0
   35.4630   30.2320   34.5290 C   0  0  0  0  0  3  0  0  0  0  0  0
   35.7920   31.6840   34.6450 C   0  0  0  0  0  2  0  0  0  0  0  0
   35.7040   32.0680   36.1060 C   0  0  0  0  0  2  0  0  0  0  0  0
   34.3480   31.7510   36.6490 C   0  0  0  0  0  2  0  0  0  0  0  0
   33.4060   31.2370   35.5740 C   0  0  0  0  0  2  0  0  0  0  0  0
   34.0070   30.0330   34.8850 C   0  0  0  0  0  2  0  0  0  0  0  0
  1  6  1  0  0  0  0
  2  1  2  0  0  0  0
  2  3  1  0  0  0  0
  3  4  2  0  0  0  0
  4  5  1  0  0  0  0
  5 20  1  0  0  0  0
  6  5  2  0  0  0  0
  7  1  1  0  0  0  0
  8  2  1  0  0  0  0
 10  9  1  0  0  0  0
 11  3  1  0  0  0  0
 11 10  2  0  0  0  0
 12 11  1  0  0  0  0
 13 12  2  0  0  0  0
 13 14  1  0  0  0  0
 14 16  2  0  0  0  0
 15 14  1  0  0  0  0
 16 10  1  0  0  0  0
 16 19  1  0  0  0  0
 17 12  1  0  0  0  0
 18 13  1  0  0  0  0
 20 21  1  0  0  0  0
 20 25  1  0  0  0  0
 21 22  1  0  0  0  0
 22 23  1  0  0  0  0
 24 23  1  0  0  0  0
 25 24  1  0  0  0  0
M  END
>  <minimizedAffinity>
-5.44986916

$$$$

 OpenBabel03262522543D

 25 27  0  0  0  0  0  0  0  0999 V2000
   35.4970   26.3450   31.1180 C   0  0  0  0  0  0  0  0  0  0  0  0
   35.3640   24.9490   31.1060 C   0  0  0  0  0  0  0  0  0  0  0  0
   36.2880   24.1180   31.7170 C   0  0  0  0  0  0  0  0  0  0  0  0
   37.3390   24.7310   32.3330 N   0  0  0  0  0  0  0  0  0  0  0  0
   37.4530   26.0740   32.3350 C   0  0  0  0  0  0  0  0  0  0  0  0
   36.5490   26.8690   31.7390 N   0  0  0  0  0  0  0  0  0  0  0  0
   34.7150   26.8930   30.6080 H   0  0  0  0  0  0  0  0  0  0  0  0
   34.5090   24.5010   30.6020 H   0  0  0  0  0  0  0  0  0  0  0  0
   38.4350   22.7640   30.2060 Cl  0  0  0  0  0  0  0  0  0  0  0  0
   37.1250   21.9360   31.0230 C   0  0  0  0  0  0  0  0  0  0  0  0
   36.1590   22.6580   31.7110 C   0  0  0  0  0  0  0  0  0  0  0  0
   35.1600   21.9500   32.3320 C   0  0  0  0  0  0  0  0  0  0  0  0
   35.0930   20.5690   32.2900 C   0  0  0  0  0  0  0  0  0  0  0  0
   36.0980   19.8870   31.5790 C   0  0  0  0  0  0  0  0  0  0  0  0
   35.9660   18.1350   31.5570 Cl  0  0  0  0  0  0  0  0  0  0  0  0
   37.1180   20.5540   30.9420 C   0  0  0  0  0  0  0  0  0  0  0  0
   34.4300   22.5510   32.8540 H   0  0  0  0  0  0  0  0  0  0  0  0
   34.2810   20.0640   32.7970 H   0  0  0  0  0  0  0  0  0  0  0  0
   37.8590   20.0030   30.4140 H   0  0  0  0  0  0  0  0  0  0  0  0
   38.6100   26.7210   33.0170 C   0  0  0  0  0  3  0  0  0  0  0  0
   39.2430   25.8350   34.0390 C   0  0  0  0  0  2  0  0  0  0  0  0
   40.2020   26.6750   34.8560 C   0  0  0  0  0  2  0  0  0  0  0  0
   41.2130   27.3260   33.9680 C   0  0  0  0  0  2  0  0  0  0  0  0
   41.0720   26.8880   32.5210 C   0  0  0  0  0  2  0  0  0  0  0  0
   39.6690   27.1570   32.0280 C   0  0  0  0  0  2  0  0  0  0  0  0
  1  6  1  0  0  0  0
  2  1  2  0  0  0  0
  2  3  1  0  0  0  0
  3  4  2  0  0  0  0
  4  5  1  0  0  0  0
  5 20  1  0  0  0  0
  6  5  2  0  0  0  0
  7  1  1  0  0  0  0
  8  2  1  0  0  0  0
  9 10  1  0  0  0  0
 10 11  1  0  0  0  0
 11  3  1  0  0  0  0
 11 12  2  0  0  0  0
 12 17  1  0  0  0  0
 13 12  1  0  0  0  0
 13 18  1  0  0  0  0
 14 13  2  0  0  0  0
 15 14  1  0  0  0  0
 16 10  2  0  0  0  0
 16 14  1  0  0  0  0
 19 16  1  0  0  0  0
 20 21  1  0  0  0  0
 21 22  1  0  0  0  0
 23 22  1  0  0  0  0
 24 23  1  0  0  0  0
 25 24  1  0  0  0  0
 25 20  1  0  0  0  0
M  END
>  <minimizedAffinity>
-5.35744095

$$$$

 OpenBabel03262522543D

 25 27  0  0  0  0  0  0  0  0999 V2000
   38.2320   23.4610   37.9920 C   0  0  0  0  0  0  0  0  0  0  0  0
   37.7560   24.1560   36.8720 C   0  0  0  0  0  0  0  0  0  0  0  0
   38.5360   24.3590   35.7460 C   0  0  0  0  0  0  0  0  0  0  0  0
   39.7990   23.8460   35.7850 N   0  0  0  0  0  0  0  0  0  0  0  0
   40.2420   23.1790   36.8700 C   0  0  0  0  0  0  0  0  0  0  0  0
   39.4750   22.9890   37.9550 N   0  0  0  0  0  0  0  0  0  0  0  0
   37.5340   23.3640   38.8140 H   0  0  0  0  0  0  0  0  0  0  0  0
   36.7400   24.5510   36.8840 H   0  0  0  0  0  0  0  0  0  0  0  0
   38.7160   27.2940   36.0280 Cl  0  0  0  0  0  0  0  0  0  0  0  0
   38.0940   26.4710   34.6120 C   0  0  0  0  0  0  0  0  0  0  0  0
   38.0480   25.0840   34.5700 C   0  0  0  0  0  0  0  0  0  0  0  0
   37.5500   24.5000   33.4310 C   0  0  0  0  0  0  0  0  0  0  0  0
   37.1040   25.2410   32.3520 C   0  0  0  0  0  0  0  0  0  0  0  0
   37.1730   26.6430   32.4470 C   0  0  0  0  0  0  0  0  0  0  0  0
   36.5940   27.5350   31.0490 Cl  0  0  0  0  0  0  0  0  0  0  0  0
   37.6650   27.2720   33.5680 C   0  0  0  0  0  0  0  0  0  0  0  0
   37.5320   23.4200   33.4420 H   0  0  0  0  0  0  0  0  0  0  0  0
   36.7200   24.7260   31.4800 H   0  0  0  0  0  0  0  0  0  0  0  0
   37.7000   28.3350   33.6020 H   0  0  0  0  0  0  0  0  0  0  0  0
   41.6270   22.6260   36.8880 C   0  0  0  0  0  3  0  0  0  0  0  0
   41.6720   21.1820   36.5060 C   0  0  0  0  0  2  0  0  0  0  0  0
   43.0540   20.6570   36.8310 C   0  0  0  0  0  2  0  0  0  0  0  0
   44.0980   21.4610   36.1270 C   0  0  0  0  0  2  0  0  0  0  0  0
   43.4930   22.5040   35.2030 C   0  0  0  0  0  2  0  0  0  0  0  0
   42.5500   23.4000   35.9750 C   0  0  0  0  0  2  0  0  0  0  0  0
  1  7  1  0  0  0  0
  2  8  1  0  0  0  0
  2  1  2  0  0  0  0
  3  4  2  0  0  0  0
  3  2  1  0  0  0  0
  4  5  1  0  0  0  0
  5 20  1  0  0  0  0
  5  6  2  0  0  0  0
  6  1  1  0  0  0  0
 10  9  1  0  0  0  0
 11 10  1  0  0  0  0
 11  3  1  0  0  0  0
 12 17  1  0  0  0  0
 12 11  2  0  0  0  0
 13 14  2  0  0  0  0
 13 12  1  0  0  0  0
 14 16  1  0  0  0  0
 15 14  1  0  0  0  0
 16 19  1  0  0  0  0
 16 10  2  0  0  0  0
 18 13  1  0  0  0  0
 21 22  1  0  0  0  0
 21 20  1  0  0  0  0
 23 22  1  0  0  0  0
 24 25  1  0  0  0  0
 24 23  1  0  0  0  0
 25 20  1  0  0  0  0
M  END
>  <minimizedAffinity>
-5.31832504

$$$$

 OpenBabel03262522543D

 25 27  0  0  0  0  0  0  0  0999 V2000
   38.5740   21.8800   32.3000 C   0  0  0  0  0  0  0  0  0  0  0  0
   38.2720   23.1270   31.7340 C   0  0  0  0  0  0  0  0  0  0  0  0
   38.0830   24.2590   32.5090 C   0  0  0  0  0  0  0  0  0  0  0  0
   38.2030   24.0970   33.8580 N   0  0  0  0  0  0  0  0  0  0  0  0
   38.4930   22.8910   34.3860 C   0  0  0  0  0  0  0  0  0  0  0  0
   38.6750   21.8010   33.6230 N   0  0  0  0  0  0  0  0  0  0  0  0
   38.7000   21.0670   31.5970 H   0  0  0  0  0  0  0  0  0  0  0  0
   38.1840   23.2120   30.6520 H   0  0  0  0  0  0  0  0  0  0  0  0
   35.3020   24.4630   31.5340 Cl  0  0  0  0  0  0  0  0  0  0  0  0
   36.4810   25.7550   31.4420 C   0  0  0  0  0  0  0  0  0  0  0  0
   37.7680   25.5670   31.9280 C   0  0  0  0  0  0  0  0  0  0  0  0
   38.6440   26.6190   31.8280 C   0  0  0  0  0  0  0  0  0  0  0  0
   38.2860   27.8330   31.2680 C   0  0  0  0  0  0  0  0  0  0  0  0
   36.9690   27.9690   30.7920 C   0  0  0  0  0  0  0  0  0  0  0  0
   36.5670   29.5290   30.0900 Cl  0  0  0  0  0  0  0  0  0  0  0  0
   36.0570   26.9430   30.8710 C   0  0  0  0  0  0  0  0  0  0  0  0
   39.6330   26.4290   32.2180 H   0  0  0  0  0  0  0  0  0  0  0  0
   39.0200   28.6270   31.2150 H   0  0  0  0  0  0  0  0  0  0  0  0
   35.0700   27.0850   30.4990 H   0  0  0  0  0  0  0  0  0  0  0  0
   38.6210   22.7380   35.8640 C   0  0  0  0  0  3  0  0  0  0  0  0
   39.9520   23.1850   36.3740 C   0  0  0  0  0  2  0  0  0  0  0  0
   40.0810   22.7270   37.8100 C   0  0  0  0  0  2  0  0  0  0  0  0
   38.9520   23.2610   38.6320 C   0  0  0  0  0  2  0  0  0  0  0  0
   38.0560   24.1950   37.8370 C   0  0  0  0  0  2  0  0  0  0  0  0
   37.5390   23.4950   36.6000 C   0  0  0  0  0  2  0  0  0  0  0  0
  1  6  1  0  0  0  0
  2  1  2  0  0  0  0
  2  3  1  0  0  0  0
  3  4  2  0  0  0  0
  4  5  1  0  0  0  0
  5 20  1  0  0  0  0
  6  5  2  0  0  0  0
  7  1  1  0  0  0  0
  8  2  1  0  0  0  0
 10  9  1  0  0  0  0
 10 11  1  0  0  0  0
 11  3  1  0  0  0  0
 12 11  2  0  0  0  0
 12 17  1  0  0  0  0
 13 12  1  0  0  0  0
 14 16  1  0  0  0  0
 14 13  2  0  0  0  0
 15 14  1  0  0  0  0
 16 10  2  0  0  0  0
 18 13  1  0  0  0  0
 19 16  1  0  0  0  0
 20 21  1  0  0  0  0
 20 25  1  0  0  0  0
 21 22  1  0  0  0  0
 22 23  1  0  0  0  0
 24 23  1  0  0  0  0
 25 24  1  0  0  0  0
M  END
>  <minimizedAffinity>
-5.30656576

$$$$

 OpenBabel03262522543D

 25 27  0  0  0  0  0  0  0  0999 V2000
   38.9800   24.2660   30.3540 C   0  0  0  0  0  0  0  0  0  0  0  0
   38.6180   25.3700   31.1370 C   0  0  0  0  0  0  0  0  0  0  0  0
   37.4840   25.3680   31.9320 C   0  0  0  0  0  0  0  0  0  0  0  0
   36.7330   24.2290   31.9120 N   0  0  0  0  0  0  0  0  0  0  0  0
   37.0950   23.1750   31.1530 C   0  0  0  0  0  0  0  0  0  0  0  0
   38.1980   23.1910   30.3870 N   0  0  0  0  0  0  0  0  0  0  0  0
   39.8860   24.3810   29.7730 H   0  0  0  0  0  0  0  0  0  0  0  0
   39.2450   26.2610   31.1230 H   0  0  0  0  0  0  0  0  0  0  0  0
   36.3150   27.5820   30.3650 Cl  0  0  0  0  0  0  0  0  0  0  0  0
   36.5360   27.6070   32.1030 C   0  0  0  0  0  0  0  0  0  0  0  0
   37.0960   26.5160   32.7550 C   0  0  0  0  0  0  0  0  0  0  0  0
   37.2420   26.5980   34.1180 C   0  0  0  0  0  0  0  0  0  0  0  0
   36.8560   27.7130   34.8400 C   0  0  0  0  0  0  0  0  0  0  0  0
   36.2940   28.7900   34.1290 C   0  0  0  0  0  0  0  0  0  0  0  0
   35.8210   30.1800   35.0940 Cl  0  0  0  0  0  0  0  0  0  0  0  0
   36.1280   28.7530   32.7640 C   0  0  0  0  0  0  0  0  0  0  0  0
   37.6810   25.7290   34.5830 H   0  0  0  0  0  0  0  0  0  0  0  0
   36.9960   27.7220   35.9130 H   0  0  0  0  0  0  0  0  0  0  0  0
   35.7000   29.5880   32.2630 H   0  0  0  0  0  0  0  0  0  0  0  0
   36.2590   21.9400   31.1490 C   0  0  0  0  0  3  0  0  0  0  0  0
   37.0800   20.6920   31.1040 C   0  0  0  0  0  2  0  0  0  0  0  0
   36.1500   19.5330   30.8160 C   0  0  0  0  0  2  0  0  0  0  0  0
   35.0690   19.4620   31.8450 C   0  0  0  0  0  2  0  0  0  0  0  0
   35.2560   20.4910   32.9460 C   0  0  0  0  0  2  0  0  0  0  0  0
   35.3460   21.8790   32.3530 C   0  0  0  0  0  2  0  0  0  0  0  0
  1  6  2  0  0  0  0
  1  2  1  0  0  0  0
  2  3  2  0  0  0  0
  3 11  1  0  0  0  0
  4  3  1  0  0  0  0
  5  4  2  0  0  0  0
  6  5  1  0  0  0  0
  7  1  1  0  0  0  0
  8  2  1  0  0  0  0
  9 10  1  0  0  0  0
 10 11  2  0  0  0  0
 10 16  1  0  0  0  0
 11 12  1  0  0  0  0
 12 17  1  0  0  0  0
 12 13  2  0  0  0  0
 13 18  1  0  0  0  0
 14 13  1  0  0  0  0
 14 15  1  0  0  0  0
 16 14  2  0  0  0  0
 19 16  1  0  0  0  0
 20  5  1  0  0  0  0
 20 25  1  0  0  0  0
 21 20  1  0  0  0  0
 22 21  1  0  0  0  0
 22 23  1  0  0  0  0
 23 24  1  0  0  0  0
 25 24  1  0  0  0  0
M  END
>  <minimizedAffinity>
-5.30106688

$$$$

 OpenBabel03262522543D

 25 27  0  0  0  0  0  0  0  0999 V2000
   37.4080   25.9230   32.9470 C   0  0  0  0  0  0  0  0  0  0  0  0
   37.1790   24.7780   32.1710 C   0  0  0  0  0  0  0  0  0  0  0  0
   37.3800   23.5010   32.6680 C   0  0  0  0  0  0  0  0  0  0  0  0
   37.8160   23.4160   33.9580 N   0  0  0  0  0  0  0  0  0  0  0  0
   38.0310   24.5270   34.6910 C   0  0  0  0  0  0  0  0  0  0  0  0
   37.8320   25.7590   34.1960 N   0  0  0  0  0  0  0  0  0  0  0  0
   37.2170   26.8680   32.4530 H   0  0  0  0  0  0  0  0  0  0  0  0
   36.8320   24.8920   31.1450 H   0  0  0  0  0  0  0  0  0  0  0  0
   39.7850   22.5680   31.2300 Cl  0  0  0  0  0  0  0  0  0  0  0  0
   38.2200   21.7860   31.1540 C   0  0  0  0  0  0  0  0  0  0  0  0
   37.1430   22.2980   31.8670 C   0  0  0  0  0  0  0  0  0  0  0  0
   35.9440   21.6380   31.7660 C   0  0  0  0  0  0  0  0  0  0  0  0
   35.7830   20.5030   30.9910 C   0  0  0  0  0  0  0  0  0  0  0  0
   36.9070   20.0270   30.2900 C   0  0  0  0  0  0  0  0  0  0  0  0
   36.6490   18.5840   29.3210 Cl  0  0  0  0  0  0  0  0  0  0  0  0
   38.1280   20.6550   30.3610 C   0  0  0  0  0  0  0  0  0  0  0  0
   35.1350   22.0710   32.3360 H   0  0  0  0  0  0  0  0  0  0  0  0
   34.8140   20.0250   30.9480 H   0  0  0  0  0  0  0  0  0  0  0  0
   38.9540   20.2640   29.8150 H   0  0  0  0  0  0  0  0  0  0  0  0
   38.5060   24.4080   36.0990 C   0  0  0  0  0  3  0  0  0  0  0  0
   37.4650   23.8430   37.0100 C   0  0  0  0  0  2  0  0  0  0  0  0
   37.9390   24.0320   38.4350 C   0  0  0  0  0  2  0  0  0  0  0  0
   39.2730   23.3870   38.6320 C   0  0  0  0  0  2  0  0  0  0  0  0
   39.7340   22.6340   37.3960 C   0  0  0  0  0  2  0  0  0  0  0  0
   39.7530   23.5580   36.1990 C   0  0  0  0  0  2  0  0  0  0  0  0
  1  6  1  0  0  0  0
  2  3  1  0  0  0  0
  2  1  2  0  0  0  0
  3  4  2  0  0  0  0
  4  5  1  0  0  0  0
  5 20  1  0  0  0  0
  6  5  2  0  0  0  0
  7  1  1  0  0  0  0
  8  2  1  0  0  0  0
 10  9  1  0  0  0  0
 10 11  1  0  0  0  0
 11  3  1  0  0  0  0
 12 11  2  0  0  0  0
 12 17  1  0  0  0  0
 13 12  1  0  0  0  0
 14 16  1  0  0  0  0
 14 13  2  0  0  0  0
 15 14  1  0  0  0  0
 16 10  2  0  0  0  0
 18 13  1  0  0  0  0
 19 16  1  0  0  0  0
 20 25  1  0  0  0  0
 20 21  1  0  0  0  0
 21 22  1  0  0  0  0
 22 23  1  0  0  0  0
 24 23  1  0  0  0  0
 25 24  1  0  0  0  0
M  END
>  <minimizedAffinity>
-5.26488304

$$$$
