
 OpenBabel03272510273D

 42 46  0  0  1  0  0  0  0  0999 V2000
   36.2630   30.1780   46.8770 C   0  0  0  0  0  0  0  0  0  0  0  0
   37.0840   30.7800   47.8280 C   0  0  0  0  0  0  0  0  0  0  0  0
   38.0530   31.7170   47.4650 C   0  0  0  0  0  0  0  0  0  0  0  0
   38.1430   32.0050   46.1090 C   0  0  0  0  0  0  0  0  0  0  0  0
   39.0090   32.8790   45.5110 N   0  0  0  0  0  0  0  0  0  0  0  0
   38.7370   32.8280   44.1940 C   0  0  0  0  0  0  0  0  0  0  0  0
   37.7620   31.9790   43.9560 N   0  0  0  0  0  0  0  0  0  0  0  0
   37.3530   31.4330   45.1330 C   0  0  0  0  0  0  0  0  0  0  0  0
   36.3900   30.4990   45.5310 C   0  0  0  0  0  0  0  0  0  0  0  0
   35.5210   29.4630   47.1520 H   0  0  0  0  0  0  0  0  0  0  0  0
   38.6730   32.1680   48.2090 H   0  0  0  0  0  0  0  0  0  0  0  0
   39.7280   33.4600   45.9950 H   0  0  0  0  0  0  0  0  0  0  0  0
   35.7810   30.0610   44.7630 H   0  0  0  0  0  0  0  0  0  0  0  0
   37.4840   30.1510   51.4960 C   0  0  0  0  0  0  0  0  0  0  0  0
   37.8030   30.6050   50.2350 C   0  0  0  0  0  0  0  0  0  0  0  0
   36.8890   30.3730   49.2120 C   0  0  0  0  0  0  0  0  0  0  0  0
   35.7420   29.7150   49.5280 N   0  0  0  0  0  0  0  0  0  0  0  0
   35.4460   29.2790   50.7660 C   0  0  0  0  0  0  0  0  0  0  0  0
   36.3240   29.5030   51.7370 N   0  0  0  0  0  0  0  0  0  0  0  0
   38.2180   30.3470   52.2740 H   0  0  0  0  0  0  0  0  0  0  0  0
   38.7080   31.1230   49.9920 H   0  0  0  0  0  0  0  0  0  0  0  0
   34.5240   28.7630   50.9610 H   0  0  0  0  0  0  0  0  0  0  0  0
   39.4470   33.6110   43.2710 O   0  0  0  0  0  0  0  0  0  0  0  0
   39.6490   31.9220   41.7460 N   0  0  0  0  0  0  0  0  0  0  0  0
   39.2070   33.3250   41.8970 C   0  0  1  0  0  0  0  0  0  0  0  0
   37.7920   33.4050   41.5560 C   0  0  0  0  0  0  0  0  0  0  0  0
   37.6410   33.0920   40.1930 O   0  0  0  0  0  0  0  0  0  0  0  0
   38.1530   31.8870   39.8120 C   0  0  0  0  0  0  0  0  0  0  0  0
   39.5460   31.6410   40.3310 C   0  0  2  0  0  0  0  0  0  0  0  0
   40.6630   31.9470   42.0040 H   0  0  0  0  0  0  0  0  0  0  0  0
   39.7860   33.9830   41.2300 H   0  0  0  0  0  0  0  0  0  0  0  0
   37.0130   32.8760   42.0300 H   0  0  0  0  0  0  0  0  0  0  0  0
   37.5050   34.5020   41.5930 H   0  0  0  0  0  0  0  0  0  0  0  0
   38.1970   31.8920   38.7050 H   0  0  0  0  0  0  0  0  0  0  0  0
   37.4900   31.0220   40.0750 H   0  0  0  0  0  0  0  0  0  0  0  0
   40.2750   32.2920   39.8210 H   0  0  0  0  0  0  0  0  0  0  0  0
   39.8810   30.1740   40.1390 C   0  0  0  0  0  3  0  0  0  0  0  0
   39.7620   29.7450   38.7010 C   0  0  0  0  0  2  0  0  0  0  0  0
   41.0100   29.0930   38.1570 C   0  0  0  0  0  2  0  0  0  0  0  0
   41.4700   27.9290   39.0000 C   0  0  0  0  0  2  0  0  0  0  0  0
   41.4770   28.3580   40.4480 C   0  0  0  0  0  2  0  0  0  0  0  0
   41.2840   29.8560   40.5810 C   0  0  0  0  0  2  0  0  0  0  0  0
  1 10  1  0  0  0  0
  1  2  1  0  0  0  0
  2 16  1  0  0  0  0
  3  2  2  0  0  0  0
  3 11  1  0  0  0  0
  4  3  1  0  0  0  0
  5 12  1  0  0  0  0
  5  4  1  0  0  0  0
  6  5  1  0  0  0  0
  7  6  2  0  0  0  0
  7  8  1  0  0  0  0
  8  9  1  0  0  0  0
  8  4  2  0  0  0  0
  9  1  2  0  0  0  0
 13  9  1  0  0  0  0
 14 19  1  0  0  0  0
 14 20  1  0  0  0  0
 15 14  2  0  0  0  0
 16 17  2  0  0  0  0
 16 15  1  0  0  0  0
 17 18  1  0  0  0  0
 18 22  1  0  0  0  0
 18 19  2  0  0  0  0
 21 15  1  0  0  0  0
 23  6  1  0  0  0  0
 24 25  1  0  0  0  0
 24 30  1  0  0  0  0
 25 31  1  6  0  0  0
 25 23  1  0  0  0  0
 26 33  1  0  0  0  0
 26 25  1  0  0  0  0
 26 32  1  0  0  0  0
 27 26  1  0  0  0  0
 28 35  1  0  0  0  0
 28 27  1  0  0  0  0
 28 29  1  0  0  0  0
 29 36  1  6  0  0  0
 29 24  1  0  0  0  0
 34 28  1  0  0  0  0
 37 29  1  0  0  0  0
 37 42  1  0  0  0  0
 38 37  1  0  0  0  0
 39 38  1  0  0  0  0
 39 40  1  0  0  0  0
 40 41  1  0  0  0  0
 41 42  1  0  0  0  0
M  END
>  <minimizedAffinity>
-6.03040648

>  <minimizedRMSD>
0.387798607

$$$$
