
 OpenBabel03272510273D

 42 46  0  0  1  0  0  0  0  0999 V2000
   36.2480   30.2010   46.8730 C   0  0  0  0  0  0  0  0  0  0  0  0
   37.0870   30.7820   47.8200 C   0  0  0  0  0  0  0  0  0  0  0  0
   38.0740   31.6980   47.4540 C   0  0  0  0  0  0  0  0  0  0  0  0
   38.1630   31.9890   46.0990 C   0  0  0  0  0  0  0  0  0  0  0  0
   39.0440   32.8460   45.4980 N   0  0  0  0  0  0  0  0  0  0  0  0
   38.7630   32.8050   44.1830 C   0  0  0  0  0  0  0  0  0  0  0  0
   37.7690   31.9780   43.9480 N   0  0  0  0  0  0  0  0  0  0  0  0
   37.3550   31.4380   45.1260 C   0  0  0  0  0  0  0  0  0  0  0  0
   36.3740   30.5230   45.5270 C   0  0  0  0  0  0  0  0  0  0  0  0
   35.4920   29.5010   47.1500 H   0  0  0  0  0  0  0  0  0  0  0  0
   38.7080   32.1340   48.1970 H   0  0  0  0  0  0  0  0  0  0  0  0
   39.7780   33.4100   45.9800 H   0  0  0  0  0  0  0  0  0  0  0  0
   35.7510   30.1010   44.7620 H   0  0  0  0  0  0  0  0  0  0  0  0
   37.4860   30.1520   51.4890 C   0  0  0  0  0  0  0  0  0  0  0  0
   37.8060   30.6070   50.2270 C   0  0  0  0  0  0  0  0  0  0  0  0
   36.8920   30.3750   49.2040 C   0  0  0  0  0  0  0  0  0  0  0  0
   35.7440   29.7160   49.5190 N   0  0  0  0  0  0  0  0  0  0  0  0
   35.4490   29.2800   50.7570 C   0  0  0  0  0  0  0  0  0  0  0  0
   36.3260   29.5050   51.7290 N   0  0  0  0  0  0  0  0  0  0  0  0
   38.2200   30.3480   52.2670 H   0  0  0  0  0  0  0  0  0  0  0  0
   38.7110   31.1250   49.9850 H   0  0  0  0  0  0  0  0  0  0  0  0
   34.5260   28.7650   50.9520 H   0  0  0  0  0  0  0  0  0  0  0  0
   39.4840   33.5750   43.2580 O   0  0  0  0  0  0  0  0  0  0  0  0
   39.5880   31.8870   41.7230 N   0  0  0  0  0  0  0  0  0  0  0  0
   39.2190   33.3100   41.8840 C   0  0  1  0  0  0  0  0  0  0  0  0
   37.8070   33.4630   41.5560 C   0  0  0  0  0  0  0  0  0  0  0  0
   37.6290   33.1650   40.1920 O   0  0  0  0  0  0  0  0  0  0  0  0
   38.0770   31.9380   39.8010 C   0  0  0  0  0  0  0  0  0  0  0  0
   39.4600   31.6190   40.3080 C   0  0  2  0  0  0  0  0  0  0  0  0
   40.6040   31.8590   41.9730 H   0  0  0  0  0  0  0  0  0  0  0  0
   39.8250   33.9410   41.2160 H   0  0  0  0  0  0  0  0  0  0  0  0
   37.0060   32.9720   42.0340 H   0  0  0  0  0  0  0  0  0  0  0  0
   37.5760   34.5720   41.6010 H   0  0  0  0  0  0  0  0  0  0  0  0
   38.1120   31.9460   38.6940 H   0  0  0  0  0  0  0  0  0  0  0  0
   37.3730   31.1060   40.0660 H   0  0  0  0  0  0  0  0  0  0  0  0
   40.2170   32.2350   39.7940 H   0  0  0  0  0  0  0  0  0  0  0  0
   39.7180   30.1380   40.1050 C   0  0  0  0  0  3  0  0  0  0  0  0
   40.1050   29.8140   38.6870 C   0  0  0  0  0  2  0  0  0  0  0  0
   41.4050   29.0600   38.5670 C   0  0  0  0  0  2  0  0  0  0  0  0
   41.4240   27.8010   39.4010 C   0  0  0  0  0  2  0  0  0  0  0  0
   40.9310   28.1370   40.7890 C   0  0  0  0  0  2  0  0  0  0  0  0
   40.8280   29.6360   40.9900 C   0  0  0  0  0  2  0  0  0  0  0  0
  1 10  1  0  0  0  0
  1  2  1  0  0  0  0
  2 16  1  0  0  0  0
  3  2  2  0  0  0  0
  3 11  1  0  0  0  0
  4  3  1  0  0  0  0
  5 12  1  0  0  0  0
  5  4  1  0  0  0  0
  6  5  1  0  0  0  0
  7  6  2  0  0  0  0
  7  8  1  0  0  0  0
  8  9  1  0  0  0  0
  8  4  2  0  0  0  0
  9  1  2  0  0  0  0
 13  9  1  0  0  0  0
 14 19  1  0  0  0  0
 14 20  1  0  0  0  0
 15 14  2  0  0  0  0
 16 17  2  0  0  0  0
 16 15  1  0  0  0  0
 17 18  1  0  0  0  0
 18 22  1  0  0  0  0
 18 19  2  0  0  0  0
 21 15  1  0  0  0  0
 23  6  1  0  0  0  0
 24 25  1  0  0  0  0
 24 30  1  0  0  0  0
 25 31  1  6  0  0  0
 25 23  1  0  0  0  0
 26 33  1  0  0  0  0
 26 25  1  0  0  0  0
 26 32  1  0  0  0  0
 27 26  1  0  0  0  0
 28 35  1  0  0  0  0
 28 27  1  0  0  0  0
 28 29  1  0  0  0  0
 29 36  1  6  0  0  0
 29 24  1  0  0  0  0
 34 28  1  0  0  0  0
 37 29  1  0  0  0  0
 37 42  1  0  0  0  0
 38 37  1  0  0  0  0
 39 38  1  0  0  0  0
 39 40  1  0  0  0  0
 40 41  1  0  0  0  0
 41 42  1  0  0  0  0
M  END
>  <minimizedAffinity>
-6.05968523

>  <minimizedRMSD>
0.217204541

$$$$
