
 OpenBabel03272509503D

 30 32  0  0  0  0  0  0  0  0999 V2000
   34.7220   29.4710   48.0560 C   0  0  0  0  0  0  0  0  0  0  0  0
   34.8350   29.9890   47.0810 H   0  0  0  0  0  0  0  0  0  0  0  0
   34.0120   30.0810   48.6730 H   0  0  0  0  0  0  0  0  0  0  0  0
   34.1220   28.1070   47.9240 C   0  0  0  0  0  0  0  0  0  0  0  0
   34.5500   27.6520   47.0000 H   0  0  0  0  0  0  0  0  0  0  0  0
   34.4310   27.4790   48.7830 H   0  0  0  0  0  0  0  0  0  0  0  0
   32.6410   28.1330   47.8480 C   0  0  0  0  0  0  0  0  0  0  0  0
   31.9470   27.6250   48.9270 C   0  0  0  0  0  0  0  0  0  0  0  0
   30.5690   27.5920   48.9780 C   0  0  0  0  0  0  0  0  0  0  0  0
   29.8880   28.0780   47.9310 N   0  0  0  0  0  0  0  0  0  0  0  0
   30.5580   28.5760   46.8740 C   0  0  0  0  0  0  0  0  0  0  0  0
   31.9020   28.6090   46.8240 N   0  0  0  0  0  0  0  0  0  0  0  0
   32.4790   27.2270   49.7820 H   0  0  0  0  0  0  0  0  0  0  0  0
   30.0690   27.1790   49.8550 H   0  0  0  0  0  0  0  0  0  0  0  0
   29.9640   28.9560   46.0540 H   0  0  0  0  0  0  0  0  0  0  0  0
   35.9510   29.4210   48.7680 O   0  0  0  0  0  0  0  0  0  0  0  0
   37.5170   32.5730   49.6150 C   0  0  0  0  0  0  0  0  0  0  0  0
   38.4950   32.6400   48.6100 C   0  0  0  0  0  0  0  0  0  0  0  0
   38.5500   31.5850   47.7000 C   0  0  0  0  0  0  0  0  0  0  0  0
   37.6440   30.5580   47.8540 N   0  0  0  0  0  0  0  0  0  0  0  0
   36.7290   30.5380   48.8280 C   0  0  0  0  0  0  0  0  0  0  0  0
   36.6780   31.5560   49.7020 N   0  0  0  0  0  0  0  0  0  0  0  0
   37.4270   33.3510   50.3390 H   0  0  0  0  0  0  0  0  0  0  0  0
   39.1360   33.5110   48.6170 H   0  0  0  0  0  0  0  0  0  0  0  0
   39.5690   31.6460   46.6480 C   0  0  0  0  0  0  0  0  0  0  0  0
   39.1960   30.7460   45.4980 C   0  0  0  0  0  0  0  0  0  0  0  0
   38.5820   31.4240   44.3260 C   0  0  0  0  0  0  0  0  0  0  0  0
   39.1880   32.7410   43.9500 C   0  0  0  0  0  0  0  0  0  0  0  0
   40.4250   32.9460   44.8000 C   0  0  0  0  0  0  0  0  0  0  0  0
   39.9130   33.0320   46.2380 C   0  0  0  0  0  0  0  0  0  0  0  0
  1  3  1  0  0  0  0
  1 16  1  0  0  0  0
  2  1  1  0  0  0  0
  4  1  1  0  0  0  0
  4  6  1  0  0  0  0
  5  4  1  0  0  0  0
  7  4  1  0  0  0  0
  7  8  1  0  0  0  0
  8  9  2  0  0  0  0
  8 13  1  0  0  0  0
  9 14  1  0  0  0  0
 10  9  1  0  0  0  0
 11 10  2  0  0  0  0
 12 11  1  0  0  0  0
 12  7  2  0  0  0  0
 15 11  1  0  0  0  0
 16 21  1  0  0  0  0
 17 22  1  0  0  0  0
 17 23  1  0  0  0  0
 18 24  1  0  0  0  0
 18 17  2  0  0  0  0
 19 20  2  0  0  0  0
 19 18  1  0  0  0  0
 20 21  1  0  0  0  0
 21 22  2  0  0  0  0
 25 19  1  0  0  0  0
 26 25  1  0  0  0  0
 27 26  1  0  0  0  0
 28 27  1  0  0  0  0
 28 29  1  0  0  0  0
 29 30  1  0  0  0  0
 30 25  1  0  0  0  0
M  END
>  <minimizedAffinity>
-5.57353115

>  <minimizedRMSD>
2.09646726

$$$$
