
 OpenBabel03262520183D

 15 16  0  0  0  0  0  0  0  0999 V2000
   38.7010   23.4120   38.4360 C   0  0  0  0  0  0  0  0  0  0  0  0
   38.0430   24.4370   37.7200 C   0  0  0  0  0  0  0  0  0  0  0  0
   38.5040   24.7160   36.4240 C   0  0  0  0  0  0  0  0  0  0  0  0
   39.5490   23.9880   35.9350 N   0  0  0  0  0  0  0  0  0  0  0  0
   40.1510   23.0190   36.6490 C   0  0  0  0  0  0  0  0  0  0  0  0
   39.7280   22.7290   37.9000 N   0  0  0  0  0  0  0  0  0  0  0  0
   38.3260   23.2160   39.4350 H   0  0  0  0  0  0  0  0  0  0  0  0
   37.2240   24.9770   38.1530 H   0  0  0  0  0  0  0  0  0  0  0  0
   40.9700   22.4960   36.1840 H   0  0  0  0  0  0  0  0  0  0  0  0
   37.8470   25.7700   35.6490 C   0  0  0  0  0  3  0  0  0  0  0  0
   38.4100   27.1390   35.7930 C   0  0  0  0  0  2  0  0  0  0  0  0
   37.3730   28.0930   35.2300 C   0  0  0  0  0  2  0  0  0  0  0  0
   36.7720   27.5770   33.9770 C   0  0  0  0  0  2  0  0  0  0  0  0
   37.5150   26.4920   33.2720 C   0  0  0  0  0  2  0  0  0  0  0  0
   38.0320   25.4050   34.1710 C   0  0  0  0  0  2  0  0  0  0  0  0
  1  7  1  0  0  0  0
  2  8  1  0  0  0  0
  2  1  2  0  0  0  0
  3  2  1  0  0  0  0
  4  3  2  0  0  0  0
  4  5  1  0  0  0  0
  5  6  2  0  0  0  0
  6  1  1  0  0  0  0
  9  5  1  0  0  0  0
 10 11  1  0  0  0  0
 10  3  1  0  0  0  0
 12 11  1  0  0  0  0
 13 12  1  0  0  0  0
 14 13  1  0  0  0  0
 14 15  1  0  0  0  0
 15 10  1  0  0  0  0
M  END
>  <minimizedAffinity>
-4.22552061

$$$$

 OpenBabel03262520183D

 15 16  0  0  0  0  0  0  0  0999 V2000
   37.5400   27.7730   34.9600 C   0  0  0  0  0  0  0  0  0  0  0  0
   38.1440   26.8840   35.8770 C   0  0  0  0  0  0  0  0  0  0  0  0
   38.2530   25.5390   35.4940 C   0  0  0  0  0  0  0  0  0  0  0  0
   37.7750   25.1710   34.2700 N   0  0  0  0  0  0  0  0  0  0  0  0
   37.2050   26.0480   33.4230 C   0  0  0  0  0  0  0  0  0  0  0  0
   37.0870   27.3510   33.7660 N   0  0  0  0  0  0  0  0  0  0  0  0
   37.4690   28.8080   35.2800 H   0  0  0  0  0  0  0  0  0  0  0  0
   38.5040   27.2280   36.8270 H   0  0  0  0  0  0  0  0  0  0  0  0
   36.8550   25.6700   32.4770 H   0  0  0  0  0  0  0  0  0  0  0  0
   38.8740   24.5860   36.4160 C   0  0  0  0  0  3  0  0  0  0  0  0
   37.9880   24.0170   37.4660 C   0  0  0  0  0  2  0  0  0  0  0  0
   38.8990   23.3840   38.5010 C   0  0  0  0  0  2  0  0  0  0  0  0
   40.0160   22.6380   37.8710 C   0  0  0  0  0  2  0  0  0  0  0  0
   39.8570   22.2800   36.4320 C   0  0  0  0  0  2  0  0  0  0  0  0
   39.3260   23.3900   35.5690 C   0  0  0  0  0  2  0  0  0  0  0  0
  1  7  1  0  0  0  0
  1  2  1  0  0  0  0
  2  8  1  0  0  0  0
  3  2  2  0  0  0  0
  3 10  1  0  0  0  0
  4  3  1  0  0  0  0
  5  6  1  0  0  0  0
  5  4  2  0  0  0  0
  6  1  2  0  0  0  0
  9  5  1  0  0  0  0
 10 11  1  0  0  0  0
 11 12  1  0  0  0  0
 13 12  1  0  0  0  0
 14 13  1  0  0  0  0
 15 10  1  0  0  0  0
 15 14  1  0  0  0  0
M  END
>  <minimizedAffinity>
-4.07308149

$$$$

 OpenBabel03262520183D

 15 16  0  0  0  0  0  0  0  0999 V2000
   35.2150   26.2390   31.0480 C   0  0  0  0  0  0  0  0  0  0  0  0
   36.2560   26.6570   31.9060 C   0  0  0  0  0  0  0  0  0  0  0  0
   37.0200   25.6570   32.5270 C   0  0  0  0  0  0  0  0  0  0  0  0
   36.7170   24.3520   32.2670 N   0  0  0  0  0  0  0  0  0  0  0  0
   35.7160   23.9930   31.4430 C   0  0  0  0  0  0  0  0  0  0  0  0
   34.9630   24.9360   30.8310 N   0  0  0  0  0  0  0  0  0  0  0  0
   34.6390   27.0320   30.5810 H   0  0  0  0  0  0  0  0  0  0  0  0
   36.4520   27.6980   32.0740 H   0  0  0  0  0  0  0  0  0  0  0  0
   35.5470   22.9400   31.2960 H   0  0  0  0  0  0  0  0  0  0  0  0
   38.1100   26.0500   33.4230 C   0  0  0  0  0  3  0  0  0  0  0  0
   39.0680   27.0540   32.8900 C   0  0  0  0  0  2  0  0  0  0  0  0
   40.2810   27.0180   33.8010 C   0  0  0  0  0  2  0  0  0  0  0  0
   39.8940   26.9250   35.2300 C   0  0  0  0  0  2  0  0  0  0  0  0
   38.4870   27.2860   35.5700 C   0  0  0  0  0  2  0  0  0  0  0  0
   37.4540   26.7150   34.6400 C   0  0  0  0  0  2  0  0  0  0  0  0
  1  2  1  0  0  0  0
  2  8  1  0  0  0  0
  2  3  2  0  0  0  0
  3 10  1  0  0  0  0
  4  3  1  0  0  0  0
  5  4  2  0  0  0  0
  6  1  2  0  0  0  0
  6  5  1  0  0  0  0
  7  1  1  0  0  0  0
  9  5  1  0  0  0  0
 10 15  1  0  0  0  0
 11 10  1  0  0  0  0
 11 12  1  0  0  0  0
 12 13  1  0  0  0  0
 13 14  1  0  0  0  0
 15 14  1  0  0  0  0
M  END
>  <minimizedAffinity>
-3.92963481

$$$$

 OpenBabel03262520183D

 15 16  0  0  0  0  0  0  0  0999 V2000
   38.3200   23.6500   38.2410 C   0  0  0  0  0  0  0  0  0  0  0  0
   39.5400   22.9910   37.9710 C   0  0  0  0  0  0  0  0  0  0  0  0
   40.0790   23.1340   36.6840 C   0  0  0  0  0  0  0  0  0  0  0  0
   39.4020   23.8960   35.7760 N   0  0  0  0  0  0  0  0  0  0  0  0
   38.2400   24.5080   36.0720 C   0  0  0  0  0  0  0  0  0  0  0  0
   37.6980   24.3870   37.3050 N   0  0  0  0  0  0  0  0  0  0  0  0
   37.9250   23.5220   39.2440 H   0  0  0  0  0  0  0  0  0  0  0  0
   40.0320   22.4050   38.7230 H   0  0  0  0  0  0  0  0  0  0  0  0
   37.7740   25.0890   35.2940 H   0  0  0  0  0  0  0  0  0  0  0  0
   41.3430   22.4680   36.3650 C   0  0  0  0  0  3  0  0  0  0  0  0
   42.5780   23.2710   36.5650 C   0  0  0  0  0  2  0  0  0  0  0  0
   43.6890   22.5430   35.8320 C   0  0  0  0  0  2  0  0  0  0  0  0
   43.6180   21.0760   36.0390 C   0  0  0  0  0  2  0  0  0  0  0  0
   42.7970   20.5990   37.1890 C   0  0  0  0  0  2  0  0  0  0  0  0
   41.4660   21.2810   37.3310 C   0  0  0  0  0  2  0  0  0  0  0  0
  1  7  1  0  0  0  0
  2  1  1  0  0  0  0
  2  8  1  0  0  0  0
  3  2  2  0  0  0  0
  4  5  2  0  0  0  0
  4  3  1  0  0  0  0
  5  6  1  0  0  0  0
  6  1  2  0  0  0  0
  9  5  1  0  0  0  0
 10 11  1  0  0  0  0
 10  3  1  0  0  0  0
 10 15  1  0  0  0  0
 12 13  1  0  0  0  0
 12 11  1  0  0  0  0
 13 14  1  0  0  0  0
 14 15  1  0  0  0  0
M  END
>  <minimizedAffinity>
-3.86734867

$$$$

 OpenBabel03262520183D

 15 16  0  0  0  0  0  0  0  0999 V2000
   37.2760   25.1780   32.3600 C   0  0  0  0  0  0  0  0  0  0  0  0
   37.0730   23.7800   32.3230 C   0  0  0  0  0  0  0  0  0  0  0  0
   35.9600   23.3090   31.6110 C   0  0  0  0  0  0  0  0  0  0  0  0
   35.1450   24.2180   31.0020 N   0  0  0  0  0  0  0  0  0  0  0  0
   35.3710   25.5440   31.0610 C   0  0  0  0  0  0  0  0  0  0  0  0
   36.4370   26.0260   31.7400 N   0  0  0  0  0  0  0  0  0  0  0  0
   38.1440   25.5160   32.9170 H   0  0  0  0  0  0  0  0  0  0  0  0
   37.7470   23.1090   32.8190 H   0  0  0  0  0  0  0  0  0  0  0  0
   34.6760   26.1890   30.5510 H   0  0  0  0  0  0  0  0  0  0  0  0
   35.7160   21.8670   31.5480 C   0  0  0  0  0  3  0  0  0  0  0  0
   36.8000   21.0430   30.9500 C   0  0  0  0  0  2  0  0  0  0  0  0
   36.1920   19.6870   30.6440 C   0  0  0  0  0  2  0  0  0  0  0  0
   35.3110   19.2180   31.7410 C   0  0  0  0  0  2  0  0  0  0  0  0
   35.4730   19.8850   33.0650 C   0  0  0  0  0  2  0  0  0  0  0  0
   35.5880   21.3820   32.9990 C   0  0  0  0  0  2  0  0  0  0  0  0
  1  7  1  0  0  0  0
  2  1  1  0  0  0  0
  2  8  1  0  0  0  0
  3  2  2  0  0  0  0
  4  5  2  0  0  0  0
  4  3  1  0  0  0  0
  5  6  1  0  0  0  0
  6  1  2  0  0  0  0
  9  5  1  0  0  0  0
 10  3  1  0  0  0  0
 10 15  1  0  0  0  0
 11 10  1  0  0  0  0
 12 11  1  0  0  0  0
 12 13  1  0  0  0  0
 13 14  1  0  0  0  0
 15 14  1  0  0  0  0
M  END
>  <minimizedAffinity>
-3.86581779

$$$$

 OpenBabel03262520183D

 15 16  0  0  0  0  0  0  0  0999 V2000
   38.0830   22.9050   36.4730 C   0  0  0  0  0  0  0  0  0  0  0  0
   37.4540   21.9630   35.6280 C   0  0  0  0  0  0  0  0  0  0  0  0
   37.4570   22.2300   34.2510 C   0  0  0  0  0  0  0  0  0  0  0  0
   38.0600   23.3720   33.8110 N   0  0  0  0  0  0  0  0  0  0  0  0
   38.6490   24.2460   34.6480 C   0  0  0  0  0  0  0  0  0  0  0  0
   38.6610   24.0140   35.9800 N   0  0  0  0  0  0  0  0  0  0  0  0
   38.0670   22.6750   37.5340 H   0  0  0  0  0  0  0  0  0  0  0  0
   36.9960   21.0800   36.0280 H   0  0  0  0  0  0  0  0  0  0  0  0
   39.1010   25.1220   34.2130 H   0  0  0  0  0  0  0  0  0  0  0  0
   36.8160   21.2770   33.3430 C   0  0  0  0  0  3  0  0  0  0  0  0
   35.6540   20.5270   33.8890 C   0  0  0  0  0  2  0  0  0  0  0  0
   35.4070   19.3660   32.9450 C   0  0  0  0  0  2  0  0  0  0  0  0
   35.5300   19.7750   31.5240 C   0  0  0  0  0  2  0  0  0  0  0  0
   35.4560   21.2370   31.2370 C   0  0  0  0  0  2  0  0  0  0  0  0
   36.2600   22.0970   32.1710 C   0  0  0  0  0  2  0  0  0  0  0  0
  1  7  1  0  0  0  0
  2  8  1  0  0  0  0
  2  1  2  0  0  0  0
  3  2  1  0  0  0  0
  4  3  2  0  0  0  0
  4  5  1  0  0  0  0
  5  6  2  0  0  0  0
  6  1  1  0  0  0  0
  9  5  1  0  0  0  0
 10 11  1  0  0  0  0
 10  3  1  0  0  0  0
 12 11  1  0  0  0  0
 13 12  1  0  0  0  0
 14 13  1  0  0  0  0
 14 15  1  0  0  0  0
 15 10  1  0  0  0  0
M  END
>  <minimizedAffinity>
-3.86036587

$$$$

 OpenBabel03262520183D

 15 16  0  0  0  0  0  0  0  0999 V2000
   35.5930   24.8560   31.1790 C   0  0  0  0  0  0  0  0  0  0  0  0
   35.5170   23.4460   31.2360 C   0  0  0  0  0  0  0  0  0  0  0  0
   36.4290   22.7850   32.0720 C   0  0  0  0  0  0  0  0  0  0  0  0
   37.3280   23.5340   32.7750 N   0  0  0  0  0  0  0  0  0  0  0  0
   37.3690   24.8770   32.6940 C   0  0  0  0  0  0  0  0  0  0  0  0
   36.5010   25.5400   31.8960 N   0  0  0  0  0  0  0  0  0  0  0  0
   34.8760   25.3430   30.5250 H   0  0  0  0  0  0  0  0  0  0  0  0
   34.7890   22.9070   30.6620 H   0  0  0  0  0  0  0  0  0  0  0  0
   38.1120   25.3870   33.2830 H   0  0  0  0  0  0  0  0  0  0  0  0
   36.3820   21.3250   32.1590 C   0  0  0  0  0  3  0  0  0  0  0  0
   35.1370   20.7400   32.7260 C   0  0  0  0  0  2  0  0  0  0  0  0
   35.4550   19.2970   33.0680 C   0  0  0  0  0  2  0  0  0  0  0  0
   36.2640   18.6450   32.0100 C   0  0  0  0  0  2  0  0  0  0  0  0
   36.2830   19.3070   30.6740 C   0  0  0  0  0  2  0  0  0  0  0  0
   36.4620   20.7990   30.7200 C   0  0  0  0  0  2  0  0  0  0  0  0
  1  2  2  0  0  0  0
  1  6  1  0  0  0  0
  2  3  1  0  0  0  0
  3 10  1  0  0  0  0
  3  4  2  0  0  0  0
  5  4  1  0  0  0  0
  5  9  1  0  0  0  0
  6  5  2  0  0  0  0
  7  1  1  0  0  0  0
  8  2  1  0  0  0  0
 10 11  1  0  0  0  0
 11 12  1  0  0  0  0
 13 12  1  0  0  0  0
 14 15  1  0  0  0  0
 14 13  1  0  0  0  0
 15 10  1  0  0  0  0
M  END
>  <minimizedAffinity>
-3.83394122

$$$$

 OpenBabel03262520183D

 15 16  0  0  0  0  0  0  0  0999 V2000
   31.4140   28.9250   33.6450 C   0  0  0  0  0  0  0  0  0  0  0  0
   32.3140   29.9730   33.9410 C   0  0  0  0  0  0  0  0  0  0  0  0
   32.6550   30.1680   35.2870 C   0  0  0  0  0  0  0  0  0  0  0  0
   32.1060   29.3420   36.2240 N   0  0  0  0  0  0  0  0  0  0  0  0
   31.2510   28.3540   35.9020 C   0  0  0  0  0  0  0  0  0  0  0  0
   30.9040   28.1430   34.6120 N   0  0  0  0  0  0  0  0  0  0  0  0
   31.1660   28.7960   32.5960 H   0  0  0  0  0  0  0  0  0  0  0  0
   32.7180   30.5920   33.1640 H   0  0  0  0  0  0  0  0  0  0  0  0
   30.8640   27.7500   36.7060 H   0  0  0  0  0  0  0  0  0  0  0  0
   33.5860   31.2440   35.6350 C   0  0  0  0  0  3  0  0  0  0  0  0
   33.6350   31.6330   37.0690 C   0  0  0  0  0  2  0  0  0  0  0  0
   34.3470   32.9710   37.1290 C   0  0  0  0  0  2  0  0  0  0  0  0
   35.5220   33.0110   36.2240 C   0  0  0  0  0  2  0  0  0  0  0  0
   36.0490   31.6990   35.7490 C   0  0  0  0  0  2  0  0  0  0  0  0
   34.9930   30.7270   35.3030 C   0  0  0  0  0  2  0  0  0  0  0  0
  1  2  2  0  0  0  0
  1  6  1  0  0  0  0
  2  3  1  0  0  0  0
  3 10  1  0  0  0  0
  3  4  2  0  0  0  0
  5  4  1  0  0  0  0
  5  9  1  0  0  0  0
  6  5  2  0  0  0  0
  7  1  1  0  0  0  0
  8  2  1  0  0  0  0
 10 11  1  0  0  0  0
 11 12  1  0  0  0  0
 13 12  1  0  0  0  0
 14 13  1  0  0  0  0
 15 10  1  0  0  0  0
 15 14  1  0  0  0  0
M  END
>  <minimizedAffinity>
-3.72196126

$$$$

 OpenBabel03262520183D

 15 16  0  0  0  0  0  0  0  0999 V2000
   36.4460   22.9280   31.7330 C   0  0  0  0  0  0  0  0  0  0  0  0
   37.3060   23.6480   32.5920 C   0  0  0  0  0  0  0  0  0  0  0  0
   37.1370   25.0390   32.6550 C   0  0  0  0  0  0  0  0  0  0  0  0
   36.1620   25.6110   31.8910 N   0  0  0  0  0  0  0  0  0  0  0  0
   35.3620   24.8900   31.0830 C   0  0  0  0  0  0  0  0  0  0  0  0
   35.5020   23.5470   31.0030 N   0  0  0  0  0  0  0  0  0  0  0  0
   36.5970   21.8530   31.7030 H   0  0  0  0  0  0  0  0  0  0  0  0
   38.0560   23.1460   33.1720 H   0  0  0  0  0  0  0  0  0  0  0  0
   34.6190   25.4250   30.5150 H   0  0  0  0  0  0  0  0  0  0  0  0
   38.0080   25.8210   33.5340 C   0  0  0  0  0  3  0  0  0  0  0  0
   37.4310   26.2190   34.8450 C   0  0  0  0  0  2  0  0  0  0  0  0
   38.3320   27.3060   35.4010 C   0  0  0  0  0  2  0  0  0  0  0  0
   39.7670   26.9910   35.1930 C   0  0  0  0  0  2  0  0  0  0  0  0
   40.1060   25.5720   34.8850 C   0  0  0  0  0  2  0  0  0  0  0  0
   39.2060   24.9230   33.8710 C   0  0  0  0  0  2  0  0  0  0  0  0
  1  2  1  0  0  0  0
  2  3  2  0  0  0  0
  2  8  1  0  0  0  0
  3 10  1  0  0  0  0
  4  3  1  0  0  0  0
  5  4  2  0  0  0  0
  6  5  1  0  0  0  0
  6  1  2  0  0  0  0
  7  1  1  0  0  0  0
  9  5  1  0  0  0  0
 10 15  1  0  0  0  0
 10 11  1  0  0  0  0
 11 12  1  0  0  0  0
 13 12  1  0  0  0  0
 14 13  1  0  0  0  0
 15 14  1  0  0  0  0
M  END
>  <minimizedAffinity>
-3.64189577

$$$$
