
     RDKit          3D

 36 38  0  0  0  0  0  0  0  0999 V2000
   37.9325   30.4297   50.6646 C   0  0  0  0  0  0  0  0  0  0  0  0
   37.4715   31.2299   49.6198 C   0  0  0  0  0  0  0  0  0  0  0  0
   36.1374   31.0839   49.2373 C   0  0  0  0  0  0  0  0  0  0  0  0
   35.3611   30.1827   49.8904 N   0  0  0  0  0  0  0  0  0  0  0  0
   35.8449   29.4248   50.8992 C   0  0  0  0  0  0  0  0  0  0  0  0
   37.1390   29.5501   51.2877 N   0  0  0  0  0  0  0  0  0  0  0  0
   38.3958   30.5889   46.7868 Cl  0  0  0  0  0  0  0  0  0  0  0  0
   38.8258   32.0326   47.6783 C   0  0  0  0  0  0  0  0  0  0  0  0
   38.3383   32.1881   48.9420 C   0  0  0  0  0  0  0  0  0  0  0  0
   38.7176   33.3600   49.6011 C   0  0  0  0  0  0  0  0  0  0  0  0
   39.5458   34.2839   48.9632 C   0  0  0  0  0  0  0  0  0  0  0  0
   40.0069   34.0759   47.6907 C   0  0  0  0  0  0  0  0  0  0  0  0
   39.6423   32.9266   47.0280 C   0  0  0  0  0  0  0  0  0  0  0  0
   38.9724   30.5277   50.9798 H   0  0  0  0  0  0  0  0  0  0  0  0
   35.7076   31.6773   48.4269 H   0  0  0  0  0  0  0  0  0  0  0  0
   35.1441   28.7412   51.3493 H   0  0  0  0  0  0  0  0  0  0  0  0
   38.3407   33.5006   50.6042 H   0  0  0  0  0  0  0  0  0  0  0  0
   39.7788   35.1564   49.5623 H   0  0  0  0  0  0  0  0  0  0  0  0
   40.6444   34.8361   47.2623 H   0  0  0  0  0  0  0  0  0  0  0  0
   40.1247   32.6717   45.6499 C   0  0  0  0  0  0  0  0  0  0  0  0
   39.1467   31.8494   44.8574 C   0  0  0  0  0  0  0  0  0  0  0  0
   39.5748   31.8720   43.4123 C   0  0  0  0  0  0  0  0  0  0  0  0
   40.9907   32.2950   43.1964 C   0  0  0  0  0  0  0  0  0  0  0  0
   41.9636   31.7624   44.2224 C   0  0  0  0  0  0  0  0  0  0  0  0
   41.4567   31.9531   45.6319 C   0  0  0  0  0  0  0  0  0  0  0  0
   40.2655   33.6162   45.0831 H   0  0  0  0  0  0  0  0  0  0  0  0
   38.1356   32.2966   44.9452 H   0  0  0  0  0  0  0  0  0  0  0  0
   39.1765   30.7923   45.1897 H   0  0  0  0  0  0  0  0  0  0  0  0
   39.3388   30.8998   42.8889 H   0  0  0  0  0  0  0  0  0  0  0  0
   38.9327   32.6173   42.8617 H   0  0  0  0  0  0  0  0  0  0  0  0
   41.3290   31.8534   42.2160 H   0  0  0  0  0  0  0  0  0  0  0  0
   41.1161   33.4036   43.0645 H   0  0  0  0  0  0  0  0  0  0  0  0
   42.8980   32.3710   44.1276 H   0  0  0  0  0  0  0  0  0  0  0  0
   42.2609   30.7170   44.0141 H   0  0  0  0  0  0  0  0  0  0  0  0
   42.1839   32.4661   46.2666 H   0  0  0  0  0  0  0  0  0  0  0  0
   41.2814   30.9314   46.0270 H   0  0  0  0  0  0  0  0  0  0  0  0
  1  6  2  0
  2  1  1  0
  3  2  2  0
  3  4  1  0
  4  5  2  0
  5  6  1  0
  7  8  1  0
  8  9  2  0
  9 10  1  0
  9  2  1  0
 11 10  2  0
 12 11  1  0
 13  8  1  0
 13 12  2  0
  1 14  1  0
  3 15  1  0
  5 16  1  0
 10 17  1  0
 11 18  1  0
 12 19  1  0
 20 21  1  0
 21 22  1  0
 22 23  1  0
 23 24  1  0
 24 25  1  0
 25 20  1  0
 20 26  1  0
 21 27  1  0
 21 28  1  0
 22 29  1  0
 22 30  1  0
 23 31  1  0
 23 32  1  0
 24 33  1  0
 24 34  1  0
 25 35  1  0
 25 36  1  0
 13 20  1  0
M  ISO  6  14  14  15  14  16  14  17  14  18  14  19  14
M  END
>  <DihAtoms>  (1) 
7,12,19,20

>  <DihDeg>  (1) 
-90.16902350989668

$$$$
