
 OpenBabel03272507493D

 43 47  0  0  0  0  0  0  0  0999 V2000
   37.2390   27.4800   31.7900 N   0  0  0  0  0  0  0  0  0  0  0  0
   36.7300   26.1640   31.6090 C   0  0  0  0  0  0  0  0  0  0  0  0
   37.2010   25.1300   32.5580 C   0  0  0  0  0  0  0  0  0  0  0  0
   38.6020   25.2030   32.9690 C   0  0  0  0  0  0  0  0  0  0  0  0
   39.1080   26.6540   33.0780 C   0  0  0  0  0  0  0  0  0  0  0  0
   38.6720   27.3770   31.7900 C   0  0  0  0  0  0  0  0  0  0  0  0
   37.0290   25.8330   30.5760 H   0  0  0  0  0  0  0  0  0  0  0  0
   35.6250   26.2070   31.5730 H   0  0  0  0  0  0  0  0  0  0  0  0
   36.5820   25.3710   33.4860 H   0  0  0  0  0  0  0  0  0  0  0  0
   36.9240   24.1290   32.2130 H   0  0  0  0  0  0  0  0  0  0  0  0
   39.2660   24.7420   32.1940 H   0  0  0  0  0  0  0  0  0  0  0  0
   40.2130   26.6650   33.0630 H   0  0  0  0  0  0  0  0  0  0  0  0
   38.6660   27.1300   33.9530 H   0  0  0  0  0  0  0  0  0  0  0  0
   39.0850   28.4200   31.8510 H   0  0  0  0  0  0  0  0  0  0  0  0
   39.1030   26.8300   30.9390 H   0  0  0  0  0  0  0  0  0  0  0  0
   40.0730   23.8730   34.4140 C   0  0  0  0  0  0  0  0  0  0  0  0
   38.8970   24.5940   34.2900 C   0  0  0  0  0  0  0  0  0  0  0  0
   37.9870   24.7550   35.3010 C   0  0  0  0  0  0  0  0  0  0  0  0
   38.2650   24.1530   36.5250 C   0  0  0  0  0  0  0  0  0  0  0  0
   39.4320   23.4340   36.6530 C   0  0  0  0  0  0  0  0  0  0  0  0
   40.3580   23.2710   35.6260 C   0  0  0  0  0  0  0  0  0  0  0  0
   39.5320   22.9070   37.9530 O   0  0  0  0  0  0  0  0  0  0  0  0
   38.5690   23.6390   38.7050 C   0  0  0  0  0  0  0  0  0  0  0  0
   37.6230   24.0800   37.7580 O   0  0  0  0  0  0  0  0  0  0  0  0
   40.8610   23.6900   33.6990 H   0  0  0  0  0  0  0  0  0  0  0  0
   37.0920   25.3200   35.1680 H   0  0  0  0  0  0  0  0  0  0  0  0
   41.2690   22.6810   35.8050 H   0  0  0  0  0  0  0  0  0  0  0  0
   38.0100   22.9550   39.3920 H   0  0  0  0  0  0  0  0  0  0  0  0
   39.0300   24.4680   39.2670 H   0  0  0  0  0  0  0  0  0  0  0  0
   36.5030   28.6990   31.9440 C   0  0  0  0  0  0  0  0  0  0  0  0
   36.1220   29.5570   30.9160 C   0  0  0  0  0  0  0  0  0  0  0  0
   35.4070   30.6980   31.2730 C   0  0  0  0  0  0  0  0  0  0  0  0
   35.1170   30.9140   32.5950 N   0  0  0  0  0  0  0  0  0  0  0  0
   35.5040   30.0620   33.5490 C   0  0  0  0  0  0  0  0  0  0  0  0
   36.1870   28.9690   33.2300 N   0  0  0  0  0  0  0  0  0  0  0  0
   36.4210   29.2520   29.9430 H   0  0  0  0  0  0  0  0  0  0  0  0
   35.1210   31.3480   30.4590 H   0  0  0  0  0  0  0  0  0  0  0  0
   35.1530   30.3610   34.9670 C   0  0  0  0  0  3  0  0  0  0  0  0
   35.8470   31.5980   35.4920 C   0  0  0  0  0  2  0  0  0  0  0  0
   35.0760   31.9870   36.7570 C   0  0  0  0  0  2  0  0  0  0  0  0
   33.8370   32.6980   36.2750 C   0  0  0  0  0  2  0  0  0  0  0  0
   33.1380   31.8500   35.2620 C   0  0  0  0  0  2  0  0  0  0  0  0
   33.6700   30.4410   35.1580 C   0  0  0  0  0  2  0  0  0  0  0  0
  1  6  1  0  0  0  0
  1 30  1  0  0  0  0
  2  1  1  0  0  0  0
  2  3  1  0  0  0  0
  3  4  1  0  0  0  0
  3  9  1  0  0  0  0
  4  5  1  0  0  0  0
  4 17  1  0  0  0  0
  5 13  1  0  0  0  0
  6 14  1  0  0  0  0
  6  5  1  0  0  0  0
  7  2  1  0  0  0  0
  8  2  1  0  0  0  0
 10  3  1  0  0  0  0
 11  4  1  0  0  0  0
 12  5  1  0  0  0  0
 15  6  1  0  0  0  0
 16 21  1  0  0  0  0
 17 16  2  0  0  0  0
 17 18  1  0  0  0  0
 18 19  2  0  0  0  0
 19 20  1  0  0  0  0
 19 24  1  0  0  0  0
 20 22  1  0  0  0  0
 21 27  1  0  0  0  0
 21 20  2  0  0  0  0
 22 23  1  0  0  0  0
 23 29  1  0  0  0  0
 23 28  1  0  0  0  0
 24 23  1  0  0  0  0
 25 16  1  0  0  0  0
 26 18  1  0  0  0  0
 30 35  1  0  0  0  0
 31 32  1  0  0  0  0
 31 30  2  0  0  0  0
 32 33  2  0  0  0  0
 33 34  1  0  0  0  0
 34 38  1  0  0  0  0
 35 34  2  0  0  0  0
 36 31  1  0  0  0  0
 37 32  1  0  0  0  0
 38 43  1  0  0  0  0
 38 39  1  0  0  0  0
 39 40  1  0  0  0  0
 41 40  1  0  0  0  0
 42 41  1  0  0  0  0
 43 42  1  0  0  0  0
M  END
>  <minimizedAffinity>
-6.56330395

$$$$

 OpenBabel03272507493D

 43 47  0  0  0  0  0  0  0  0999 V2000
   37.4710   26.7660   33.3340 N   0  0  0  0  0  0  0  0  0  0  0  0
   37.2440   27.5110   34.5240 C   0  0  0  0  0  0  0  0  0  0  0  0
   36.1450   28.5010   34.4930 C   0  0  0  0  0  0  0  0  0  0  0  0
   35.9690   29.2500   33.2490 C   0  0  0  0  0  0  0  0  0  0  0  0
   36.2980   28.4050   32.0030 C   0  0  0  0  0  0  0  0  0  0  0  0
   37.6500   27.7180   32.2730 C   0  0  0  0  0  0  0  0  0  0  0  0
   38.1940   28.0700   34.7500 H   0  0  0  0  0  0  0  0  0  0  0  0
   37.1320   26.8090   35.3730 H   0  0  0  0  0  0  0  0  0  0  0  0
   35.2280   27.8300   34.5960 H   0  0  0  0  0  0  0  0  0  0  0  0
   36.1880   29.1590   35.3670 H   0  0  0  0  0  0  0  0  0  0  0  0
   36.6910   30.1040   33.1950 H   0  0  0  0  0  0  0  0  0  0  0  0
   36.4730   29.0700   31.1380 H   0  0  0  0  0  0  0  0  0  0  0  0
   35.5150   27.6630   31.8480 H   0  0  0  0  0  0  0  0  0  0  0  0
   37.9090   27.1430   31.3440 H   0  0  0  0  0  0  0  0  0  0  0  0
   38.3900   28.5070   32.4710 H   0  0  0  0  0  0  0  0  0  0  0  0
   33.6410   29.4900   33.9850 C   0  0  0  0  0  0  0  0  0  0  0  0
   34.5940   29.7570   33.0160 C   0  0  0  0  0  0  0  0  0  0  0  0
   34.3360   30.4360   31.8550 C   0  0  0  0  0  0  0  0  0  0  0  0
   33.0340   30.8790   31.6390 C   0  0  0  0  0  0  0  0  0  0  0  0
   32.0820   30.6140   32.5970 C   0  0  0  0  0  0  0  0  0  0  0  0
   32.3450   29.9250   33.7790 C   0  0  0  0  0  0  0  0  0  0  0  0
   30.8400   31.1380   32.1990 O   0  0  0  0  0  0  0  0  0  0  0  0
   31.1590   32.0410   31.1450 C   0  0  0  0  0  0  0  0  0  0  0  0
   32.3850   31.5790   30.6250 O   0  0  0  0  0  0  0  0  0  0  0  0
   33.7290   28.9810   34.9320 H   0  0  0  0  0  0  0  0  0  0  0  0
   35.0980   30.6250   31.1320 H   0  0  0  0  0  0  0  0  0  0  0  0
   31.5300   29.7520   34.4980 H   0  0  0  0  0  0  0  0  0  0  0  0
   30.4220   31.9420   30.3100 H   0  0  0  0  0  0  0  0  0  0  0  0
   31.2120   33.0850   31.5000 H   0  0  0  0  0  0  0  0  0  0  0  0
   37.5220   25.3430   33.1780 C   0  0  0  0  0  0  0  0  0  0  0  0
   37.1510   24.6350   32.0380 C   0  0  0  0  0  0  0  0  0  0  0  0
   37.2760   23.2480   32.0840 C   0  0  0  0  0  0  0  0  0  0  0  0
   37.7510   22.6600   33.2270 N   0  0  0  0  0  0  0  0  0  0  0  0
   38.0950   23.3820   34.2990 C   0  0  0  0  0  0  0  0  0  0  0  0
   37.9830   24.7050   34.2760 N   0  0  0  0  0  0  0  0  0  0  0  0
   36.8020   25.2320   31.2320 H   0  0  0  0  0  0  0  0  0  0  0  0
   36.9830   22.7190   31.1890 H   0  0  0  0  0  0  0  0  0  0  0  0
   38.6040   22.6760   35.5090 C   0  0  0  0  0  3  0  0  0  0  0  0
   39.8130   23.3530   36.1160 C   0  0  0  0  0  2  0  0  0  0  0  0
   39.9330   22.7740   37.5290 C   0  0  0  0  0  2  0  0  0  0  0  0
   38.9120   23.5110   38.3570 C   0  0  0  0  0  2  0  0  0  0  0  0
   37.5800   23.4430   37.6840 C   0  0  0  0  0  2  0  0  0  0  0  0
   37.5190   22.4790   36.5230 C   0  0  0  0  0  2  0  0  0  0  0  0
  1  2  1  0  0  0  0
  2  7  1  0  0  0  0
  2  8  1  0  0  0  0
  3  2  1  0  0  0  0
  3  9  1  0  0  0  0
  3 10  1  0  0  0  0
  4  3  1  0  0  0  0
  5  6  1  0  0  0  0
  5  4  1  0  0  0  0
  6 15  1  0  0  0  0
  6  1  1  0  0  0  0
 11  4  1  0  0  0  0
 12  5  1  0  0  0  0
 13  5  1  0  0  0  0
 14  6  1  0  0  0  0
 16 25  1  0  0  0  0
 17  4  1  0  0  0  0
 17 16  2  0  0  0  0
 18 17  1  0  0  0  0
 19 18  2  0  0  0  0
 19 20  1  0  0  0  0
 20 21  2  0  0  0  0
 21 16  1  0  0  0  0
 21 27  1  0  0  0  0
 22 20  1  0  0  0  0
 23 29  1  0  0  0  0
 23 22  1  0  0  0  0
 24 23  1  0  0  0  0
 24 19  1  0  0  0  0
 26 18  1  0  0  0  0
 28 23  1  0  0  0  0
 30  1  1  0  0  0  0
 30 35  1  0  0  0  0
 31 32  1  0  0  0  0
 31 30  2  0  0  0  0
 32 33  2  0  0  0  0
 33 34  1  0  0  0  0
 34 38  1  0  0  0  0
 35 34  2  0  0  0  0
 36 31  1  0  0  0  0
 37 32  1  0  0  0  0
 38 39  1  0  0  0  0
 38 43  1  0  0  0  0
 39 40  1  0  0  0  0
 40 41  1  0  0  0  0
 42 41  1  0  0  0  0
 43 42  1  0  0  0  0
M  END
>  <minimizedAffinity>
-6.3028264

$$$$

 OpenBabel03272507493D

 43 47  0  0  0  0  0  0  0  0999 V2000
   37.2050   25.4200   31.6060 N   0  0  0  0  0  0  0  0  0  0  0  0
   38.2250   26.3280   31.2070 C   0  0  0  0  0  0  0  0  0  0  0  0
   37.9740   27.7650   31.4550 C   0  0  0  0  0  0  0  0  0  0  0  0
   36.6060   28.2400   31.2510 C   0  0  0  0  0  0  0  0  0  0  0  0
   35.5540   27.1840   31.6380 C   0  0  0  0  0  0  0  0  0  0  0  0
   35.9880   25.8590   30.9820 C   0  0  0  0  0  0  0  0  0  0  0  0
   38.3670   26.1980   30.0990 H   0  0  0  0  0  0  0  0  0  0  0  0
   39.1870   26.0030   31.6450 H   0  0  0  0  0  0  0  0  0  0  0  0
   38.1770   27.8430   32.5760 H   0  0  0  0  0  0  0  0  0  0  0  0
   38.7080   28.3850   30.9310 H   0  0  0  0  0  0  0  0  0  0  0  0
   36.4110   28.4310   30.1660 H   0  0  0  0  0  0  0  0  0  0  0  0
   34.5830   27.4380   31.1750 H   0  0  0  0  0  0  0  0  0  0  0  0
   35.5210   27.0810   32.7220 H   0  0  0  0  0  0  0  0  0  0  0  0
   35.1920   25.1040   31.2250 H   0  0  0  0  0  0  0  0  0  0  0  0
   36.0520   26.0320   29.8970 H   0  0  0  0  0  0  0  0  0  0  0  0
   36.4370   30.6800   31.4340 C   0  0  0  0  0  0  0  0  0  0  0  0
   36.2420   29.4480   32.0330 C   0  0  0  0  0  0  0  0  0  0  0  0
   35.7600   29.2820   33.3050 C   0  0  0  0  0  0  0  0  0  0  0  0
   35.4510   30.4260   34.0350 C   0  0  0  0  0  0  0  0  0  0  0  0
   35.6450   31.6540   33.4450 C   0  0  0  0  0  0  0  0  0  0  0  0
   36.1340   31.8230   32.1520 C   0  0  0  0  0  0  0  0  0  0  0  0
   35.2780   32.6790   34.3340 O   0  0  0  0  0  0  0  0  0  0  0  0
   34.5150   32.0170   35.3400 C   0  0  0  0  0  0  0  0  0  0  0  0
   34.9560   30.6790   35.3120 O   0  0  0  0  0  0  0  0  0  0  0  0
   36.7960   30.9310   30.4470 H   0  0  0  0  0  0  0  0  0  0  0  0
   35.6220   28.3150   33.7320 H   0  0  0  0  0  0  0  0  0  0  0  0
   36.2610   32.8390   31.7480 H   0  0  0  0  0  0  0  0  0  0  0  0
   34.7890   32.4030   36.3530 H   0  0  0  0  0  0  0  0  0  0  0  0
   33.4310   32.1150   35.1630 H   0  0  0  0  0  0  0  0  0  0  0  0
   37.3230   24.2770   32.4610 C   0  0  0  0  0  0  0  0  0  0  0  0
   36.8430   23.0000   32.1850 C   0  0  0  0  0  0  0  0  0  0  0  0
   37.0600   22.0180   33.1490 C   0  0  0  0  0  0  0  0  0  0  0  0
   37.7260   22.3510   34.2990 N   0  0  0  0  0  0  0  0  0  0  0  0
   38.1700   23.5930   34.5220 C   0  0  0  0  0  0  0  0  0  0  0  0
   37.9720   24.5430   33.6150 N   0  0  0  0  0  0  0  0  0  0  0  0
   36.3470   22.8990   31.2510 H   0  0  0  0  0  0  0  0  0  0  0  0
   36.6800   21.0350   32.9130 H   0  0  0  0  0  0  0  0  0  0  0  0
   38.8860   23.8840   35.7960 C   0  0  0  0  0  3  0  0  0  0  0  0
   38.4210   23.0110   36.9410 C   0  0  0  0  0  2  0  0  0  0  0  0
   39.5110   23.1360   38.0110 C   0  0  0  0  0  2  0  0  0  0  0  0
   40.6240   22.2230   37.5640 C   0  0  0  0  0  2  0  0  0  0  0  0
   40.9920   22.5400   36.1500 C   0  0  0  0  0  2  0  0  0  0  0  0
   40.3710   23.8090   35.6160 C   0  0  0  0  0  2  0  0  0  0  0  0
  1 30  1  0  0  0  0
  2  3  1  0  0  0  0
  2  1  1  0  0  0  0
  2  8  1  0  0  0  0
  3  9  1  0  0  0  0
  4  3  1  0  0  0  0
  4  5  1  0  0  0  0
  4 17  1  0  0  0  0
  5 13  1  0  0  0  0
  6 14  1  0  0  0  0
  6  1  1  0  0  0  0
  6  5  1  0  0  0  0
  7  2  1  0  0  0  0
 10  3  1  0  0  0  0
 11  4  1  0  0  0  0
 12  5  1  0  0  0  0
 15  6  1  0  0  0  0
 16 17  2  0  0  0  0
 16 21  1  0  0  0  0
 17 18  1  0  0  0  0
 18 26  1  0  0  0  0
 18 19  2  0  0  0  0
 19 24  1  0  0  0  0
 20 19  1  0  0  0  0
 20 22  1  0  0  0  0
 21 20  2  0  0  0  0
 22 23  1  0  0  0  0
 23 28  1  0  0  0  0
 24 23  1  0  0  0  0
 25 16  1  0  0  0  0
 27 21  1  0  0  0  0
 29 23  1  0  0  0  0
 30 35  1  0  0  0  0
 31 30  2  0  0  0  0
 31 32  1  0  0  0  0
 32 33  2  0  0  0  0
 33 34  1  0  0  0  0
 34 38  1  0  0  0  0
 35 34  2  0  0  0  0
 36 31  1  0  0  0  0
 37 32  1  0  0  0  0
 38 39  1  0  0  0  0
 39 40  1  0  0  0  0
 41 40  1  0  0  0  0
 42 41  1  0  0  0  0
 43 38  1  0  0  0  0
 43 42  1  0  0  0  0
M  END
>  <minimizedAffinity>
-6.30002594

$$$$

 OpenBabel03272507493D

 43 47  0  0  0  0  0  0  0  0999 V2000
   37.0330   26.0820   32.0720 N   0  0  0  0  0  0  0  0  0  0  0  0
   37.8920   26.8780   32.8780 C   0  0  0  0  0  0  0  0  0  0  0  0
   37.2770   28.0310   33.5730 C   0  0  0  0  0  0  0  0  0  0  0  0
   36.2510   28.7710   32.8390 C   0  0  0  0  0  0  0  0  0  0  0  0
   35.4030   27.8580   31.9330 C   0  0  0  0  0  0  0  0  0  0  0  0
   36.3850   26.9700   31.1470 C   0  0  0  0  0  0  0  0  0  0  0  0
   38.6960   27.2830   32.2030 H   0  0  0  0  0  0  0  0  0  0  0  0
   38.4340   26.2220   33.5850 H   0  0  0  0  0  0  0  0  0  0  0  0
   36.7420   27.5170   34.4400 H   0  0  0  0  0  0  0  0  0  0  0  0
   38.0440   28.6920   33.9870 H   0  0  0  0  0  0  0  0  0  0  0  0
   36.7200   29.4970   32.1270 H   0  0  0  0  0  0  0  0  0  0  0  0
   34.8820   28.4680   31.1720 H   0  0  0  0  0  0  0  0  0  0  0  0
   34.7410   27.2470   32.5470 H   0  0  0  0  0  0  0  0  0  0  0  0
   35.7650   26.3410   30.4530 H   0  0  0  0  0  0  0  0  0  0  0  0
   37.0580   27.6350   30.5860 H   0  0  0  0  0  0  0  0  0  0  0  0
   33.9320   29.3940   33.3400 C   0  0  0  0  0  0  0  0  0  0  0  0
   35.2690   29.4870   33.6910 C   0  0  0  0  0  0  0  0  0  0  0  0
   35.7330   30.2140   34.7540 C   0  0  0  0  0  0  0  0  0  0  0  0
   34.8010   30.9020   35.5250 C   0  0  0  0  0  0  0  0  0  0  0  0
   33.4710   30.8150   35.1800 C   0  0  0  0  0  0  0  0  0  0  0  0
   32.9980   30.0750   34.1000 C   0  0  0  0  0  0  0  0  0  0  0  0
   32.6920   31.5730   36.0720 O   0  0  0  0  0  0  0  0  0  0  0  0
   33.5580   31.8190   37.1760 C   0  0  0  0  0  0  0  0  0  0  0  0
   34.8610   31.7240   36.6480 O   0  0  0  0  0  0  0  0  0  0  0  0
   33.4540   28.8490   32.5410 H   0  0  0  0  0  0  0  0  0  0  0  0
   36.7710   30.2600   34.9940 H   0  0  0  0  0  0  0  0  0  0  0  0
   31.9190   30.0540   33.8870 H   0  0  0  0  0  0  0  0  0  0  0  0
   33.4520   32.8750   37.5270 H   0  0  0  0  0  0  0  0  0  0  0  0
   33.3790   31.1110   38.0030 H   0  0  0  0  0  0  0  0  0  0  0  0
   36.8250   24.6660   32.1330 C   0  0  0  0  0  0  0  0  0  0  0  0
   35.9650   23.9330   31.3210 C   0  0  0  0  0  0  0  0  0  0  0  0
   35.9040   22.5580   31.5380 C   0  0  0  0  0  0  0  0  0  0  0  0
   36.6810   22.0050   32.5220 N   0  0  0  0  0  0  0  0  0  0  0  0
   37.4930   22.7500   33.2800 C   0  0  0  0  0  0  0  0  0  0  0  0
   37.5650   24.0620   33.0890 N   0  0  0  0  0  0  0  0  0  0  0  0
   35.4300   24.5040   30.6030 H   0  0  0  0  0  0  0  0  0  0  0  0
   35.2320   22.0090   30.8950 H   0  0  0  0  0  0  0  0  0  0  0  0
   38.3090   22.0820   34.3330 C   0  0  0  0  0  3  0  0  0  0  0  0
   39.6490   22.7510   34.5460 C   0  0  0  0  0  2  0  0  0  0  0  0
   40.1510   22.2280   35.8960 C   0  0  0  0  0  2  0  0  0  0  0  0
   39.4120   23.0270   36.9390 C   0  0  0  0  0  2  0  0  0  0  0  0
   37.9440   22.9660   36.6670 C   0  0  0  0  0  2  0  0  0  0  0  0
   37.5480   21.9560   35.6160 C   0  0  0  0  0  2  0  0  0  0  0  0
  1 30  1  0  0  0  0
  1  2  1  0  0  0  0
  2  3  1  0  0  0  0
  2  8  1  0  0  0  0
  3 10  1  0  0  0  0
  3  9  1  0  0  0  0
  4  3  1  0  0  0  0
  4 17  1  0  0  0  0
  5 13  1  0  0  0  0
  5  4  1  0  0  0  0
  6  5  1  0  0  0  0
  6  1  1  0  0  0  0
  7  2  1  0  0  0  0
 11  4  1  0  0  0  0
 12  5  1  0  0  0  0
 14  6  1  0  0  0  0
 15  6  1  0  0  0  0
 16 17  2  0  0  0  0
 16 21  1  0  0  0  0
 17 18  1  0  0  0  0
 18 26  1  0  0  0  0
 18 19  2  0  0  0  0
 19 24  1  0  0  0  0
 20 19  1  0  0  0  0
 20 22  1  0  0  0  0
 21 20  2  0  0  0  0
 22 23  1  0  0  0  0
 23 28  1  0  0  0  0
 23 29  1  0  0  0  0
 24 23  1  0  0  0  0
 25 16  1  0  0  0  0
 27 21  1  0  0  0  0
 30 35  1  0  0  0  0
 31 32  1  0  0  0  0
 31 30  2  0  0  0  0
 32 33  2  0  0  0  0
 33 34  1  0  0  0  0
 34 38  1  0  0  0  0
 35 34  2  0  0  0  0
 36 31  1  0  0  0  0
 37 32  1  0  0  0  0
 38 39  1  0  0  0  0
 38 43  1  0  0  0  0
 39 40  1  0  0  0  0
 40 41  1  0  0  0  0
 42 41  1  0  0  0  0
 43 42  1  0  0  0  0
M  END
>  <minimizedAffinity>
-6.2923584

$$$$

 OpenBabel03272507493D

 43 47  0  0  0  0  0  0  0  0999 V2000
   37.2310   26.7170   32.9430 N   0  0  0  0  0  0  0  0  0  0  0  0
   37.5310   27.4750   34.1090 C   0  0  0  0  0  0  0  0  0  0  0  0
   36.5090   28.4480   34.5540 C   0  0  0  0  0  0  0  0  0  0  0  0
   35.7920   29.1760   33.5080 C   0  0  0  0  0  0  0  0  0  0  0  0
   35.5610   28.3180   32.2490 C   0  0  0  0  0  0  0  0  0  0  0  0
   36.9090   27.6570   31.9050 C   0  0  0  0  0  0  0  0  0  0  0  0
   38.4730   28.0520   33.8940 H   0  0  0  0  0  0  0  0  0  0  0  0
   37.8150   26.7840   34.9250 H   0  0  0  0  0  0  0  0  0  0  0  0
   35.7420   27.7640   35.0510 H   0  0  0  0  0  0  0  0  0  0  0  0
   36.9150   29.1180   35.3180 H   0  0  0  0  0  0  0  0  0  0  0  0
   36.4000   30.0400   33.1390 H   0  0  0  0  0  0  0  0  0  0  0  0
   35.3270   28.9730   31.3900 H   0  0  0  0  0  0  0  0  0  0  0  0
   34.8050   27.5620   32.4550 H   0  0  0  0  0  0  0  0  0  0  0  0
   36.7480   27.0720   30.9590 H   0  0  0  0  0  0  0  0  0  0  0  0
   37.6450   28.4600   31.7550 H   0  0  0  0  0  0  0  0  0  0  0  0
   34.3460   30.4380   35.0350 C   0  0  0  0  0  0  0  0  0  0  0  0
   34.4430   29.6580   33.8960 C   0  0  0  0  0  0  0  0  0  0  0  0
   33.3710   29.2880   33.1270 C   0  0  0  0  0  0  0  0  0  0  0  0
   32.1100   29.7250   33.5210 C   0  0  0  0  0  0  0  0  0  0  0  0
   32.0070   30.4990   34.6550 C   0  0  0  0  0  0  0  0  0  0  0  0
   33.0960   30.8770   35.4350 C   0  0  0  0  0  0  0  0  0  0  0  0
   30.6620   30.8380   34.8860 O   0  0  0  0  0  0  0  0  0  0  0  0
   30.0080   30.5470   33.6540 C   0  0  0  0  0  0  0  0  0  0  0  0
   30.8140   29.5730   33.0320 O   0  0  0  0  0  0  0  0  0  0  0  0
   35.1120   30.7980   35.7050 H   0  0  0  0  0  0  0  0  0  0  0  0
   33.4860   28.6860   32.2540 H   0  0  0  0  0  0  0  0  0  0  0  0
   32.9350   31.4990   36.3280 H   0  0  0  0  0  0  0  0  0  0  0  0
   29.0250   30.0480   33.8430 H   0  0  0  0  0  0  0  0  0  0  0  0
   29.8760   31.4510   33.0360 H   0  0  0  0  0  0  0  0  0  0  0  0
   37.2380   25.2930   32.7890 C   0  0  0  0  0  0  0  0  0  0  0  0
   36.7050   24.5870   31.7140 C   0  0  0  0  0  0  0  0  0  0  0  0
   36.8130   23.1990   31.7500 C   0  0  0  0  0  0  0  0  0  0  0  0
   37.4280   22.6070   32.8220 N   0  0  0  0  0  0  0  0  0  0  0  0
   37.9260   23.3260   33.8330 C   0  0  0  0  0  0  0  0  0  0  0  0
   37.8320   24.6510   33.8180 N   0  0  0  0  0  0  0  0  0  0  0  0
   36.2600   25.1880   30.9600 H   0  0  0  0  0  0  0  0  0  0  0  0
   36.3930   22.6720   30.9050 H   0  0  0  0  0  0  0  0  0  0  0  0
   38.5820   22.6160   34.9670 C   0  0  0  0  0  3  0  0  0  0  0  0
   39.7270   23.4040   35.5660 C   0  0  0  0  0  2  0  0  0  0  0  0
   39.9930   22.7550   36.9280 C   0  0  0  0  0  2  0  0  0  0  0  0
   38.9320   23.3000   37.8510 C   0  0  0  0  0  2  0  0  0  0  0  0
   37.5850   23.1030   37.2330 C   0  0  0  0  0  2  0  0  0  0  0  0
   37.5860   22.2160   36.0110 C   0  0  0  0  0  2  0  0  0  0  0  0
  1  2  1  0  0  0  0
  2  3  1  0  0  0  0
  2  8  1  0  0  0  0
  3  9  1  0  0  0  0
  3 10  1  0  0  0  0
  4 17  1  0  0  0  0
  4  3  1  0  0  0  0
  5 13  1  0  0  0  0
  5  4  1  0  0  0  0
  6  5  1  0  0  0  0
  6  1  1  0  0  0  0
  7  2  1  0  0  0  0
 11  4  1  0  0  0  0
 12  5  1  0  0  0  0
 14  6  1  0  0  0  0
 15  6  1  0  0  0  0
 16 21  1  0  0  0  0
 16 25  1  0  0  0  0
 17 16  2  0  0  0  0
 18 19  2  0  0  0  0
 18 17  1  0  0  0  0
 19 20  1  0  0  0  0
 20 22  1  0  0  0  0
 20 21  2  0  0  0  0
 21 27  1  0  0  0  0
 23 28  1  0  0  0  0
 23 22  1  0  0  0  0
 24 19  1  0  0  0  0
 24 23  1  0  0  0  0
 26 18  1  0  0  0  0
 29 23  1  0  0  0  0
 30  1  1  0  0  0  0
 30 35  1  0  0  0  0
 31 32  1  0  0  0  0
 31 30  2  0  0  0  0
 32 33  2  0  0  0  0
 33 34  1  0  0  0  0
 34 38  1  0  0  0  0
 35 34  2  0  0  0  0
 36 31  1  0  0  0  0
 37 32  1  0  0  0  0
 38 39  1  0  0  0  0
 38 43  1  0  0  0  0
 39 40  1  0  0  0  0
 40 41  1  0  0  0  0
 42 41  1  0  0  0  0
 43 42  1  0  0  0  0
M  END
>  <minimizedAffinity>
-6.2683754

$$$$

 OpenBabel03272507493D

 43 47  0  0  0  0  0  0  0  0999 V2000
   36.6910   26.5350   31.3020 N   0  0  0  0  0  0  0  0  0  0  0  0
   37.4470   27.5420   30.6400 C   0  0  0  0  0  0  0  0  0  0  0  0
   37.3010   28.9260   31.1430 C   0  0  0  0  0  0  0  0  0  0  0  0
   35.9630   29.3340   31.5690 C   0  0  0  0  0  0  0  0  0  0  0  0
   35.1740   28.1790   32.2140 C   0  0  0  0  0  0  0  0  0  0  0  0
   35.3190   26.9620   31.2820 C   0  0  0  0  0  0  0  0  0  0  0  0
   37.1260   27.5400   29.5610 H   0  0  0  0  0  0  0  0  0  0  0  0
   38.5090   27.2320   30.6080 H   0  0  0  0  0  0  0  0  0  0  0  0
   37.9430   28.8960   32.0860 H   0  0  0  0  0  0  0  0  0  0  0  0
   37.7490   29.6430   30.4470 H   0  0  0  0  0  0  0  0  0  0  0  0
   35.3400   29.6280   30.6870 H   0  0  0  0  0  0  0  0  0  0  0  0
   34.0960   28.4210   32.2190 H   0  0  0  0  0  0  0  0  0  0  0  0
   35.5890   27.9590   33.1980 H   0  0  0  0  0  0  0  0  0  0  0  0
   34.7020   26.1380   31.7310 H   0  0  0  0  0  0  0  0  0  0  0  0
   34.9330   27.2530   30.2940 H   0  0  0  0  0  0  0  0  0  0  0  0
   36.2310   31.7060   32.1350 C   0  0  0  0  0  0  0  0  0  0  0  0
   35.9350   30.4260   32.5730 C   0  0  0  0  0  0  0  0  0  0  0  0
   35.6440   30.1110   33.8740 C   0  0  0  0  0  0  0  0  0  0  0  0
   35.6500   31.1420   34.8090 C   0  0  0  0  0  0  0  0  0  0  0  0
   35.9470   32.4160   34.3790 C   0  0  0  0  0  0  0  0  0  0  0  0
   36.2410   32.7380   33.0570 C   0  0  0  0  0  0  0  0  0  0  0  0
   35.9030   33.3110   35.4620 O   0  0  0  0  0  0  0  0  0  0  0  0
   35.2140   32.5960   36.4840 C   0  0  0  0  0  0  0  0  0  0  0  0
   35.4170   31.2350   36.1780 O   0  0  0  0  0  0  0  0  0  0  0  0
   36.4620   32.0720   31.1470 H   0  0  0  0  0  0  0  0  0  0  0  0
   35.4190   29.1110   34.1730 H   0  0  0  0  0  0  0  0  0  0  0  0
   36.4680   33.7810   32.7890 H   0  0  0  0  0  0  0  0  0  0  0  0
   35.7080   32.7580   37.4740 H   0  0  0  0  0  0  0  0  0  0  0  0
   34.1460   32.8700   36.5280 H   0  0  0  0  0  0  0  0  0  0  0  0
   37.1630   25.3170   31.8880 C   0  0  0  0  0  0  0  0  0  0  0  0
   38.2040   25.2030   32.8050 C   0  0  0  0  0  0  0  0  0  0  0  0
   38.5130   23.9230   33.2600 C   0  0  0  0  0  0  0  0  0  0  0  0
   37.7890   22.8590   32.7930 N   0  0  0  0  0  0  0  0  0  0  0  0
   36.7960   23.0150   31.9110 C   0  0  0  0  0  0  0  0  0  0  0  0
   36.4870   24.2270   31.4640 N   0  0  0  0  0  0  0  0  0  0  0  0
   38.6700   26.1200   33.0710 H   0  0  0  0  0  0  0  0  0  0  0  0
   39.3230   23.8600   33.9720 H   0  0  0  0  0  0  0  0  0  0  0  0
   36.0500   21.8120   31.4450 C   0  0  0  0  0  3  0  0  0  0  0  0
   36.9660   20.6790   31.0340 C   0  0  0  0  0  2  0  0  0  0  0  0
   36.0750   19.4330   30.9990 C   0  0  0  0  0  2  0  0  0  0  0  0
   35.9280   19.0000   32.4360 C   0  0  0  0  0  2  0  0  0  0  0  0
   35.4770   20.1590   33.2630 C   0  0  0  0  0  2  0  0  0  0  0  0
   35.0460   21.3640   32.4610 C   0  0  0  0  0  2  0  0  0  0  0  0
  1 30  1  0  0  0  0
  2  3  1  0  0  0  0
  2  1  1  0  0  0  0
  3  4  1  0  0  0  0
  3  9  1  0  0  0  0
  4  5  1  0  0  0  0
  4 17  1  0  0  0  0
  5 12  1  0  0  0  0
  5 13  1  0  0  0  0
  6  1  1  0  0  0  0
  6 14  1  0  0  0  0
  6  5  1  0  0  0  0
  7  2  1  0  0  0  0
  8  2  1  0  0  0  0
 10  3  1  0  0  0  0
 11  4  1  0  0  0  0
 15  6  1  0  0  0  0
 16 17  2  0  0  0  0
 16 21  1  0  0  0  0
 17 18  1  0  0  0  0
 18 26  1  0  0  0  0
 18 19  2  0  0  0  0
 19 24  1  0  0  0  0
 20 19  1  0  0  0  0
 20 22  1  0  0  0  0
 21 20  2  0  0  0  0
 22 23  1  0  0  0  0
 23 29  1  0  0  0  0
 23 28  1  0  0  0  0
 24 23  1  0  0  0  0
 25 16  1  0  0  0  0
 27 21  1  0  0  0  0
 30 31  1  0  0  0  0
 31 36  1  0  0  0  0
 31 32  2  0  0  0  0
 32 37  1  0  0  0  0
 33 32  1  0  0  0  0
 34 33  2  0  0  0  0
 35 30  2  0  0  0  0
 35 34  1  0  0  0  0
 38 34  1  0  0  0  0
 38 43  1  0  0  0  0
 39 38  1  0  0  0  0
 40 39  1  0  0  0  0
 40 41  1  0  0  0  0
 41 42  1  0  0  0  0
 43 42  1  0  0  0  0
M  END
>  <minimizedAffinity>
-6.26691771

$$$$

 OpenBabel03272507493D

 43 47  0  0  0  0  0  0  0  0999 V2000
   35.2580   30.6700   31.9100 N   0  0  0  0  0  0  0  0  0  0  0  0
   35.3820   31.6860   32.8970 C   0  0  0  0  0  0  0  0  0  0  0  0
   34.5670   31.5310   34.1220 C   0  0  0  0  0  0  0  0  0  0  0  0
   33.2180   30.9930   33.9520 C   0  0  0  0  0  0  0  0  0  0  0  0
   33.1410   29.9480   32.8220 C   0  0  0  0  0  0  0  0  0  0  0  0
   33.8590   30.5550   31.6020 C   0  0  0  0  0  0  0  0  0  0  0  0
   35.0790   32.6550   32.4120 H   0  0  0  0  0  0  0  0  0  0  0  0
   36.4530   31.8250   33.1380 H   0  0  0  0  0  0  0  0  0  0  0  0
   35.1590   30.7380   34.6920 H   0  0  0  0  0  0  0  0  0  0  0  0
   34.5720   32.4520   34.7130 H   0  0  0  0  0  0  0  0  0  0  0  0
   32.5100   31.7960   33.6260 H   0  0  0  0  0  0  0  0  0  0  0  0
   32.0890   29.8150   32.5090 H   0  0  0  0  0  0  0  0  0  0  0  0
   33.6340   29.0290   33.1390 H   0  0  0  0  0  0  0  0  0  0  0  0
   33.7570   29.8110   30.7660 H   0  0  0  0  0  0  0  0  0  0  0  0
   33.3550   31.5000   31.3550 H   0  0  0  0  0  0  0  0  0  0  0  0
   32.6630   31.0060   36.3410 C   0  0  0  0  0  0  0  0  0  0  0  0
   32.6650   30.3070   35.1460 C   0  0  0  0  0  0  0  0  0  0  0  0
   32.2120   29.0220   35.0110 C   0  0  0  0  0  0  0  0  0  0  0  0
   31.7230   28.3830   36.1460 C   0  0  0  0  0  0  0  0  0  0  0  0
   31.7210   29.0730   37.3380 C   0  0  0  0  0  0  0  0  0  0  0  0
   32.1800   30.3800   37.4760 C   0  0  0  0  0  0  0  0  0  0  0  0
   31.1940   28.2650   38.3600 O   0  0  0  0  0  0  0  0  0  0  0  0
   30.5430   27.2010   37.6700 C   0  0  0  0  0  0  0  0  0  0  0  0
   31.1910   27.1260   36.4210 O   0  0  0  0  0  0  0  0  0  0  0  0
   32.9800   32.0130   36.5640 H   0  0  0  0  0  0  0  0  0  0  0  0
   32.2280   28.5160   34.0710 H   0  0  0  0  0  0  0  0  0  0  0  0
   32.1460   30.8660   38.4630 H   0  0  0  0  0  0  0  0  0  0  0  0
   30.7500   26.2250   38.1750 H   0  0  0  0  0  0  0  0  0  0  0  0
   29.4580   27.3740   37.5800 H   0  0  0  0  0  0  0  0  0  0  0  0
   36.2970   29.8880   31.3100 C   0  0  0  0  0  0  0  0  0  0  0  0
   36.8410   30.0880   30.0450 C   0  0  0  0  0  0  0  0  0  0  0  0
   37.8500   29.2160   29.6420 C   0  0  0  0  0  0  0  0  0  0  0  0
   38.2520   28.2240   30.4960 N   0  0  0  0  0  0  0  0  0  0  0  0
   37.7000   28.0690   31.7040 C   0  0  0  0  0  0  0  0  0  0  0  0
   36.7360   28.8890   32.1070 N   0  0  0  0  0  0  0  0  0  0  0  0
   36.4240   30.9000   29.5010 H   0  0  0  0  0  0  0  0  0  0  0  0
   38.2580   29.3910   28.6570 H   0  0  0  0  0  0  0  0  0  0  0  0
   38.1870   26.9670   32.5820 C   0  0  0  0  0  3  0  0  0  0  0  0
   39.6620   27.0790   32.8990 C   0  0  0  0  0  2  0  0  0  0  0  0
   39.8870   26.1600   34.1040 C   0  0  0  0  0  2  0  0  0  0  0  0
   39.4110   26.9400   35.3030 C   0  0  0  0  0  2  0  0  0  0  0  0
   38.0260   27.4420   35.0550 C   0  0  0  0  0  2  0  0  0  0  0  0
   37.3640   26.8580   33.8290 C   0  0  0  0  0  2  0  0  0  0  0  0
  1  2  1  0  0  0  0
  2  8  1  0  0  0  0
  2  3  1  0  0  0  0
  3  9  1  0  0  0  0
  3 10  1  0  0  0  0
  4  3  1  0  0  0  0
  4 17  1  0  0  0  0
  5 13  1  0  0  0  0
  5  4  1  0  0  0  0
  6  1  1  0  0  0  0
  6  5  1  0  0  0  0
  7  2  1  0  0  0  0
 11  4  1  0  0  0  0
 12  5  1  0  0  0  0
 14  6  1  0  0  0  0
 15  6  1  0  0  0  0
 16 25  1  0  0  0  0
 16 21  1  0  0  0  0
 17 16  2  0  0  0  0
 18 17  1  0  0  0  0
 18 19  2  0  0  0  0
 19 24  1  0  0  0  0
 19 20  1  0  0  0  0
 20 21  2  0  0  0  0
 20 22  1  0  0  0  0
 21 27  1  0  0  0  0
 23 28  1  0  0  0  0
 23 22  1  0  0  0  0
 24 23  1  0  0  0  0
 26 18  1  0  0  0  0
 29 23  1  0  0  0  0
 30  1  1  0  0  0  0
 30 35  1  0  0  0  0
 31 30  2  0  0  0  0
 32 31  1  0  0  0  0
 32 33  2  0  0  0  0
 33 34  1  0  0  0  0
 34 35  2  0  0  0  0
 34 38  1  0  0  0  0
 36 31  1  0  0  0  0
 37 32  1  0  0  0  0
 38 39  1  0  0  0  0
 38 43  1  0  0  0  0
 39 40  1  0  0  0  0
 40 41  1  0  0  0  0
 42 41  1  0  0  0  0
 43 42  1  0  0  0  0
M  END
>  <minimizedAffinity>
-6.23663902

$$$$

 OpenBabel03272507493D

 43 47  0  0  0  0  0  0  0  0999 V2000
   38.4790   25.6550   32.9730 N   0  0  0  0  0  0  0  0  0  0  0  0
   39.8130   25.4430   32.5270 C   0  0  0  0  0  0  0  0  0  0  0  0
   40.6890   24.6320   33.4020 C   0  0  0  0  0  0  0  0  0  0  0  0
   40.5400   24.8260   34.8430 C   0  0  0  0  0  0  0  0  0  0  0  0
   39.0840   25.1210   35.2500 C   0  0  0  0  0  0  0  0  0  0  0  0
   38.5650   26.2120   34.2940 C   0  0  0  0  0  0  0  0  0  0  0  0
   40.2910   26.4550   32.4190 H   0  0  0  0  0  0  0  0  0  0  0  0
   39.7880   25.0410   31.4960 H   0  0  0  0  0  0  0  0  0  0  0  0
   40.3190   23.5750   33.1810 H   0  0  0  0  0  0  0  0  0  0  0  0
   41.7330   24.7030   33.0820 H   0  0  0  0  0  0  0  0  0  0  0  0
   41.1030   25.7330   35.1810 H   0  0  0  0  0  0  0  0  0  0  0  0
   39.0620   25.5750   36.2560 H   0  0  0  0  0  0  0  0  0  0  0  0
   38.4870   24.2130   35.1540 H   0  0  0  0  0  0  0  0  0  0  0  0
   37.5200   26.4580   34.6250 H   0  0  0  0  0  0  0  0  0  0  0  0
   39.2280   27.0830   34.3940 H   0  0  0  0  0  0  0  0  0  0  0  0
   40.1200   23.3210   36.7340 C   0  0  0  0  0  0  0  0  0  0  0  0
   40.9420   23.6630   35.6740 C   0  0  0  0  0  0  0  0  0  0  0  0
   42.1060   23.0110   35.3660 C   0  0  0  0  0  0  0  0  0  0  0  0
   42.4830   21.9410   36.1720 C   0  0  0  0  0  0  0  0  0  0  0  0
   41.6710   21.5980   37.2300 C   0  0  0  0  0  0  0  0  0  0  0  0
   40.4860   22.2590   37.5420 C   0  0  0  0  0  0  0  0  0  0  0  0
   42.2170   20.5010   37.9190 O   0  0  0  0  0  0  0  0  0  0  0  0
   43.1900   19.9700   37.0250 C   0  0  0  0  0  0  0  0  0  0  0  0
   43.5540   21.0510   36.1960 O   0  0  0  0  0  0  0  0  0  0  0  0
   39.1850   23.7480   37.0630 H   0  0  0  0  0  0  0  0  0  0  0  0
   42.7130   23.3040   34.5390 H   0  0  0  0  0  0  0  0  0  0  0  0
   39.8890   21.9250   38.4040 H   0  0  0  0  0  0  0  0  0  0  0  0
   44.1200   19.6920   37.5810 H   0  0  0  0  0  0  0  0  0  0  0  0
   42.8000   19.1090   36.4570 H   0  0  0  0  0  0  0  0  0  0  0  0
   37.2590   25.3840   32.2740 C   0  0  0  0  0  0  0  0  0  0  0  0
   36.3420   26.3350   31.8360 C   0  0  0  0  0  0  0  0  0  0  0  0
   35.2110   25.8670   31.1700 C   0  0  0  0  0  0  0  0  0  0  0  0
   35.0610   24.5180   30.9810 N   0  0  0  0  0  0  0  0  0  0  0  0
   35.9690   23.6400   31.4190 C   0  0  0  0  0  0  0  0  0  0  0  0
   37.0540   24.0660   32.0570 N   0  0  0  0  0  0  0  0  0  0  0  0
   36.5980   27.3410   32.0580 H   0  0  0  0  0  0  0  0  0  0  0  0
   34.5140   26.6220   30.8390 H   0  0  0  0  0  0  0  0  0  0  0  0
   35.7420   22.1870   31.1790 C   0  0  0  0  0  3  0  0  0  0  0  0
   37.0240   21.4310   30.9100 C   0  0  0  0  0  2  0  0  0  0  0  0
   36.6700   19.9540   31.1080 C   0  0  0  0  0  2  0  0  0  0  0  0
   36.6710   19.7330   32.5990 C   0  0  0  0  0  2  0  0  0  0  0  0
   35.8000   20.7550   33.2550 C   0  0  0  0  0  2  0  0  0  0  0  0
   34.9610   21.5640   32.2950 C   0  0  0  0  0  2  0  0  0  0  0  0
  1  6  1  0  0  0  0
  2  1  1  0  0  0  0
  2  3  1  0  0  0  0
  3  4  1  0  0  0  0
  4 11  1  0  0  0  0
  4  5  1  0  0  0  0
  4 17  1  0  0  0  0
  5 12  1  0  0  0  0
  6 15  1  0  0  0  0
  6 14  1  0  0  0  0
  6  5  1  0  0  0  0
  7  2  1  0  0  0  0
  8  2  1  0  0  0  0
  9  3  1  0  0  0  0
 10  3  1  0  0  0  0
 13  5  1  0  0  0  0
 16 25  1  0  0  0  0
 16 21  1  0  0  0  0
 17 16  2  0  0  0  0
 18 17  1  0  0  0  0
 18 19  2  0  0  0  0
 19 24  1  0  0  0  0
 19 20  1  0  0  0  0
 20 21  2  0  0  0  0
 20 22  1  0  0  0  0
 21 27  1  0  0  0  0
 23 28  1  0  0  0  0
 23 22  1  0  0  0  0
 24 23  1  0  0  0  0
 26 18  1  0  0  0  0
 29 23  1  0  0  0  0
 30  1  1  0  0  0  0
 31 36  1  0  0  0  0
 31 30  2  0  0  0  0
 32 31  1  0  0  0  0
 33 32  2  0  0  0  0
 33 34  1  0  0  0  0
 34 35  2  0  0  0  0
 35 30  1  0  0  0  0
 37 32  1  0  0  0  0
 38 34  1  0  0  0  0
 38 43  1  0  0  0  0
 39 40  1  0  0  0  0
 39 38  1  0  0  0  0
 40 41  1  0  0  0  0
 41 42  1  0  0  0  0
 43 42  1  0  0  0  0
M  END
>  <minimizedAffinity>
-6.1975441

$$$$

 OpenBabel03272507493D

 43 47  0  0  0  0  0  0  0  0999 V2000
   37.5500   26.9660   31.1600 N   0  0  0  0  0  0  0  0  0  0  0  0
   36.7890   25.7720   31.0300 C   0  0  0  0  0  0  0  0  0  0  0  0
   36.8450   24.8170   32.1590 C   0  0  0  0  0  0  0  0  0  0  0  0
   38.1380   24.6600   32.8230 C   0  0  0  0  0  0  0  0  0  0  0  0
   38.9400   25.9750   32.8680 C   0  0  0  0  0  0  0  0  0  0  0  0
   38.9000   26.5710   31.4490 C   0  0  0  0  0  0  0  0  0  0  0  0
   37.1690   25.2350   30.1170 H   0  0  0  0  0  0  0  0  0  0  0  0
   35.7450   26.0360   30.7750 H   0  0  0  0  0  0  0  0  0  0  0  0
   36.1540   25.3170   32.9170 H   0  0  0  0  0  0  0  0  0  0  0  0
   36.4060   23.8550   31.8790 H   0  0  0  0  0  0  0  0  0  0  0  0
   38.7970   23.9610   32.2480 H   0  0  0  0  0  0  0  0  0  0  0  0
   40.0050   25.7550   33.0670 H   0  0  0  0  0  0  0  0  0  0  0  0
   38.4820   26.6580   33.5840 H   0  0  0  0  0  0  0  0  0  0  0  0
   39.5270   27.5030   31.4750 H   0  0  0  0  0  0  0  0  0  0  0  0
   39.3280   25.8250   30.7630 H   0  0  0  0  0  0  0  0  0  0  0  0
   37.9610   22.8470   34.4670 C   0  0  0  0  0  0  0  0  0  0  0  0
   38.0630   24.2080   34.2360 C   0  0  0  0  0  0  0  0  0  0  0  0
   38.0740   25.1550   35.2260 C   0  0  0  0  0  0  0  0  0  0  0  0
   37.9740   24.7170   36.5420 C   0  0  0  0  0  0  0  0  0  0  0  0
   37.8690   23.3640   36.7790 C   0  0  0  0  0  0  0  0  0  0  0  0
   37.8590   22.4010   35.7730 C   0  0  0  0  0  0  0  0  0  0  0  0
   37.7780   23.1230   38.1600 O   0  0  0  0  0  0  0  0  0  0  0  0
   38.1990   24.3440   38.7610 C   0  0  0  0  0  0  0  0  0  0  0  0
   37.9480   25.3350   37.7900 O   0  0  0  0  0  0  0  0  0  0  0  0
   37.9540   22.0180   33.7770 H   0  0  0  0  0  0  0  0  0  0  0  0
   38.1560   26.1960   35.0080 H   0  0  0  0  0  0  0  0  0  0  0  0
   37.7730   21.3380   36.0400 H   0  0  0  0  0  0  0  0  0  0  0  0
   37.5400   24.6000   39.6280 H   0  0  0  0  0  0  0  0  0  0  0  0
   39.2570   24.3060   39.0700 H   0  0  0  0  0  0  0  0  0  0  0  0
   37.1000   28.3200   31.0340 C   0  0  0  0  0  0  0  0  0  0  0  0
   37.2520   29.1280   29.9110 C   0  0  0  0  0  0  0  0  0  0  0  0
   36.7410   30.4220   29.9860 C   0  0  0  0  0  0  0  0  0  0  0  0
   36.1240   30.8280   31.1400 N   0  0  0  0  0  0  0  0  0  0  0  0
   36.0010   30.0160   32.1950 C   0  0  0  0  0  0  0  0  0  0  0  0
   36.4810   28.7790   32.1440 N   0  0  0  0  0  0  0  0  0  0  0  0
   37.7530   28.6710   29.0930 H   0  0  0  0  0  0  0  0  0  0  0  0
   36.8700   31.0310   29.1020 H   0  0  0  0  0  0  0  0  0  0  0  0
   35.3170   30.5240   33.4180 C   0  0  0  0  0  3  0  0  0  0  0  0
   35.9840   30.0610   34.6950 C   0  0  0  0  0  2  0  0  0  0  0  0
   35.4420   30.9840   35.7910 C   0  0  0  0  0  2  0  0  0  0  0  0
   36.2230   32.2670   35.6640 C   0  0  0  0  0  2  0  0  0  0  0  0
   36.1660   32.7490   34.2510 C   0  0  0  0  0  2  0  0  0  0  0  0
   35.1720   32.0140   33.3840 C   0  0  0  0  0  2  0  0  0  0  0  0
  1  6  1  0  0  0  0
  2  1  1  0  0  0  0
  2  3  1  0  0  0  0
  3  4  1  0  0  0  0
  3  9  1  0  0  0  0
  4  5  1  0  0  0  0
  4 17  1  0  0  0  0
  5 12  1  0  0  0  0
  5 13  1  0  0  0  0
  6 14  1  0  0  0  0
  6  5  1  0  0  0  0
  7  2  1  0  0  0  0
  8  2  1  0  0  0  0
 10  3  1  0  0  0  0
 11  4  1  0  0  0  0
 15  6  1  0  0  0  0
 16 21  1  0  0  0  0
 17 16  2  0  0  0  0
 17 18  1  0  0  0  0
 18 19  2  0  0  0  0
 19 20  1  0  0  0  0
 19 24  1  0  0  0  0
 20 22  1  0  0  0  0
 21 27  1  0  0  0  0
 21 20  2  0  0  0  0
 22 23  1  0  0  0  0
 23 29  1  0  0  0  0
 23 28  1  0  0  0  0
 24 23  1  0  0  0  0
 25 16  1  0  0  0  0
 26 18  1  0  0  0  0
 30  1  1  0  0  0  0
 30 35  1  0  0  0  0
 31 32  1  0  0  0  0
 31 30  2  0  0  0  0
 32 33  2  0  0  0  0
 33 34  1  0  0  0  0
 34 38  1  0  0  0  0
 35 34  2  0  0  0  0
 36 31  1  0  0  0  0
 37 32  1  0  0  0  0
 38 39  1  0  0  0  0
 39 40  1  0  0  0  0
 41 40  1  0  0  0  0
 42 41  1  0  0  0  0
 43 38  1  0  0  0  0
 43 42  1  0  0  0  0
M  END
>  <minimizedAffinity>
-6.18477774

$$$$
