
 OpenBabel03262520083D

 15 16  0  0  0  0  0  0  0  0999 V2000
   37.6010   30.4400   50.9620 C   0  0  0  0  0  0  0  0  0  0  0  0
   38.3570   31.3510   50.1860 C   0  0  0  0  0  0  0  0  0  0  0  0
   37.8690   31.6820   48.9010 C   0  0  0  0  0  0  0  0  0  0  0  0
   36.7030   31.1010   48.4980 N   0  0  0  0  0  0  0  0  0  0  0  0
   36.0080   30.2360   49.2700 C   0  0  0  0  0  0  0  0  0  0  0  0
   36.4650   29.9120   50.4990 N   0  0  0  0  0  0  0  0  0  0  0  0
   38.0550   30.2440   51.9410 H   0  0  0  0  0  0  0  0  0  0  0  0
   39.2750   31.8200   50.4800 H   0  0  0  0  0  0  0  0  0  0  0  0
   38.4100   32.3740   48.2680 H   0  0  0  0  0  0  0  0  0  0  0  0
   34.7430   29.6430   48.7570 C   0  0  0  0  0  0  0  0  0  0  0  0
   34.7120   29.9040   47.2730 C   0  0  0  0  0  0  0  0  0  0  0  0
   33.7260   29.0880   46.5120 C   0  0  0  0  0  0  0  0  0  0  0  0
   32.8080   28.4180   47.5180 C   0  0  0  0  0  0  0  0  0  0  0  0
   33.6700   27.4300   48.2790 C   0  0  0  0  0  0  0  0  0  0  0  0
   34.6510   28.2040   49.1240 C   0  0  0  0  0  0  0  0  0  0  0  0
  1  7  1  0  0  0  0
  2  8  1  0  0  0  0
  2  1  2  0  0  0  0
  3  2  1  0  0  0  0
  4  3  2  0  0  0  0
  4  5  1  0  0  0  0
  5  6  2  0  0  0  0
  6  1  1  0  0  0  0
  9  3  1  0  0  0  0
 10 15  1  0  0  0  0
 10  5  1  0  0  0  0
 11 10  1  0  0  0  0
 12 11  1  0  0  0  0
 12 13  1  0  0  0  0
 13 14  1  0  0  0  0
 14 15  1  0  0  0  0
M  END
>  <minimizedAffinity>
-4.47312164

>  <minimizedRMSD>
1.57671535

$$$$
