
 OpenBabel03272508063D

 32 35  0  0  0  0  0  0  0  0999 V2000
   38.8900   30.8850   45.7440 C   0  0  0  0  0  0  0  0  0  0  0  0
   40.1360   31.4090   46.0330 C   0  0  0  0  0  0  0  0  0  0  0  0
   40.9540   31.3920   44.8960 C   0  0  0  0  0  0  0  0  0  0  0  0
   40.1550   30.8510   43.9630 N   0  0  0  0  0  0  0  0  0  0  0  0
   38.9530   30.5540   44.4510 N   0  0  0  0  0  0  0  0  0  0  0  0
   40.4800   31.7940   46.9970 H   0  0  0  0  0  0  0  0  0  0  0  0
   41.9650   31.7100   44.7400 H   0  0  0  0  0  0  0  0  0  0  0  0
   37.7820   30.7420   46.6700 C   0  0  0  0  0  0  0  0  0  0  0  0
   38.0100   30.9750   48.0410 C   0  0  0  0  0  0  0  0  0  0  0  0
   36.9350   30.8350   48.9120 C   0  0  0  0  0  0  0  0  0  0  0  0
   35.7220   30.4790   48.3890 N   0  0  0  0  0  0  0  0  0  0  0  0
   35.5260   30.2600   47.0670 C   0  0  0  0  0  0  0  0  0  0  0  0
   36.5660   30.3950   46.2180 N   0  0  0  0  0  0  0  0  0  0  0  0
   38.9800   31.2540   48.4250 H   0  0  0  0  0  0  0  0  0  0  0  0
   34.5420   29.9830   46.7220 H   0  0  0  0  0  0  0  0  0  0  0  0
   37.1430   31.0730   50.3630 C   0  0  0  0  0  0  0  0  0  0  0  0
   36.6290   32.3200   50.6170 F   0  0  0  0  0  0  0  0  0  0  0  0
   36.4830   30.1410   51.1630 F   0  0  0  0  0  0  0  0  0  0  0  0
   38.4970   31.0890   50.6900 F   0  0  0  0  0  0  0  0  0  0  0  0
   40.4520   30.5760   42.5520 C   0  0  0  0  0  0  0  0  0  0  0  0
   39.9470   31.3820   41.5190 C   0  0  0  0  0  0  0  0  0  0  0  0
   40.2360   31.0920   40.2460 C   0  0  0  0  0  0  0  0  0  0  0  0
   41.0590   29.9610   39.9520 C   0  0  0  0  0  0  0  0  0  0  0  0
   41.4130   29.3070   41.6630 S   0  0  0  0  0  0  0  0  0  0  0  0
   39.3160   32.2510   41.7190 H   0  0  0  0  0  0  0  0  0  0  0  0
   39.9350   31.5990   39.3410 H   0  0  0  0  0  0  0  0  0  0  0  0
   41.5620   29.3610   38.7810 C   0  0  0  0  0  3  0  0  0  0  0  0
   42.4220   30.3480   38.0640 C   0  0  0  0  0  2  0  0  0  0  0  0
   43.9070   30.0080   38.2190 C   0  0  0  0  0  2  0  0  0  0  0  0
   44.1010   28.6990   37.4470 C   0  0  0  0  0  2  0  0  0  0  0  0
   43.1950   27.6220   37.9950 C   0  0  0  0  0  2  0  0  0  0  0  0
   42.3410   28.1140   39.1340 C   0  0  0  0  0  2  0  0  0  0  0  0
  1  2  1  0  0  0  0
  1  8  1  0  0  0  0
  2  6  1  0  0  0  0
  3  2  2  0  0  0  0
  4  5  1  0  0  0  0
  4  3  1  0  0  0  0
  5  1  2  0  0  0  0
  7  3  1  0  0  0  0
  8  9  1  0  0  0  0
  9 14  1  0  0  0  0
  9 10  2  0  0  0  0
 10 16  1  0  0  0  0
 11 10  1  0  0  0  0
 12 11  2  0  0  0  0
 13  8  2  0  0  0  0
 13 12  1  0  0  0  0
 15 12  1  0  0  0  0
 16 17  1  0  0  0  0
 16 19  1  0  0  0  0
 16 18  1  0  0  0  0
 20  4  1  0  0  0  0
 21 25  1  0  0  0  0
 21 20  2  0  0  0  0
 22 21  1  0  0  0  0
 23 22  2  0  0  0  0
 23 24  1  0  0  0  0
 24 20  1  0  0  0  0
 26 22  1  0  0  0  0
 27 32  1  0  0  0  0
 27 23  1  0  0  0  0
 28 29  1  0  0  0  0
 28 27  1  0  0  0  0
 30 31  1  0  0  0  0
 30 29  1  0  0  0  0
 31 32  1  0  0  0  0
M  END
>  <minimizedAffinity>
-6.25592899

>  <minimizedRMSD>
0.357758164

$$$$
