
     RDKit          3D

 29 30  0  0  0  0  0  0  0  0999 V2000
   38.3055   31.2329   50.1255 C   0  0  0  0  0  0  0  0  0  0  0  0
   38.2906   31.6102   48.7735 C   0  0  0  0  0  0  0  0  0  0  0  0
   37.2087   31.2311   47.9999 C   0  0  0  0  0  0  0  0  0  0  0  0
   36.2029   30.5060   48.5876 N   0  0  0  0  0  0  0  0  0  0  0  0
   36.2600   30.1652   49.8940 C   0  0  0  0  0  0  0  0  0  0  0  0
   37.3039   30.5300   50.6443 N   0  0  0  0  0  0  0  0  0  0  0  0
   35.1329   29.3831   50.4466 C   0  0  0  0  0  0  0  0  0  0  0  0
   35.2641   29.1288   51.8044 F   0  0  0  0  0  0  0  0  0  0  0  0
   33.9279   30.0594   50.2938 F   0  0  0  0  0  0  0  0  0  0  0  0
   34.9525   28.1652   49.8345 F   0  0  0  0  0  0  0  0  0  0  0  0
   39.1093   31.4846   50.8049 H   0  0  0  0  0  0  0  0  0  0  0  0
   39.1416   32.1670   48.4755 H   0  0  0  0  0  0  0  0  0  0  0  0
   37.2077   31.6291   46.6019 C   0  0  0  0  0  0  0  0  0  0  0  0
   36.1760   32.5973   46.1633 C   0  0  0  0  0  0  0  0  0  0  0  0
   36.7445   33.9646   45.8396 C   0  0  0  0  0  0  0  0  0  0  0  0
   37.6911   33.7890   44.6703 C   0  0  0  0  0  0  0  0  0  0  0  0
   38.5986   32.5993   44.8386 C   0  0  0  0  0  0  0  0  0  0  0  0
   38.5813   32.2448   46.3008 C   0  0  0  0  0  0  0  0  0  0  0  0
   37.1716   30.6718   46.0024 H   0  0  0  0  0  0  0  0  0  0  0  0
   35.7623   32.2304   45.1859 H   0  0  0  0  0  0  0  0  0  0  0  0
   35.2902   32.6614   46.8213 H   0  0  0  0  0  0  0  0  0  0  0  0
   37.2297   34.4545   46.7012 H   0  0  0  0  0  0  0  0  0  0  0  0
   35.8823   34.5881   45.4613 H   0  0  0  0  0  0  0  0  0  0  0  0
   38.3072   34.7009   44.5096 H   0  0  0  0  0  0  0  0  0  0  0  0
   37.0798   33.6646   43.7518 H   0  0  0  0  0  0  0  0  0  0  0  0
   39.6369   32.8411   44.5452 H   0  0  0  0  0  0  0  0  0  0  0  0
   38.1733   31.7351   44.2846 H   0  0  0  0  0  0  0  0  0  0  0  0
   39.3679   31.4742   46.4899 H   0  0  0  0  0  0  0  0  0  0  0  0
   38.7695   33.1323   46.9090 H   0  0  0  0  0  0  0  0  0  0  0  0
  1  6  2  0
  2  1  1  0
  3  4  1  0
  3  2  2  0
  4  5  2  0
  5  7  1  0
  5  6  1  0
  7  8  1  0
  9  7  1  0
 10  7  1  0
  1 11  1  0
  2 12  1  0
 13 14  1  0
 14 15  1  0
 15 16  1  0
 16 17  1  0
 17 18  1  0
 18 13  1  0
 13 19  1  0
 14 20  1  0
 14 21  1  0
 15 22  1  0
 15 23  1  0
 16 24  1  0
 16 25  1  0
 17 26  1  0
 17 27  1  0
 18 28  1  0
 18 29  1  0
  3 13  1  0
M  ISO  2  11  14  12  14
M  END
>  <DihAtoms>  (1) 
3,2,12,13

>  <DihDeg>  (1) 
126.24945347459172

$$$$
