REMARK  Name = 
REMARK  6 active torsions:
REMARK  status: ('A' for Active; 'I' for Inactive)
REMARK    1  A    between atoms: P_2  and  O_3
REMARK    2  A    between atoms: P_2  and  O_4
REMARK    3  A    between atoms: P_2  and  O_11
REMARK    4  A    between atoms: O_4  and  C_7
REMARK    5  A    between atoms: O_11  and  C_14
REMARK    6  A    between atoms: C_18  and  C_26
REMARK                            x       y       z     vdW  Elec       q    Type
REMARK                         _______ _______ _______ _____ _____    ______ ____
ROOT
ATOM      1 CL   UNL     1      36.619  29.443  44.047  0.00  0.00    +0.000 Cl
ATOM      2  C   UNL     1      38.265  29.831  43.486  0.00  0.00    +0.000 A 
ATOM      3  C   UNL     1      39.280  30.309  44.317  0.00  0.00    +0.000 A 
ATOM      4  C   UNL     1      40.502  30.564  43.739  0.00  0.00    +0.000 A 
ATOM      5  C   UNL     1      40.717  30.358  42.398  0.00  0.00    +0.000 A 
ATOM      6  C   UNL     1      39.731  29.890  41.568  0.00  0.00    +0.000 A 
ATOM      7  C   UNL     1      38.513  29.630  42.116  0.00  0.00    +0.000 A 
ATOM      8  H   UNL     1      41.240  30.931  44.441  0.00  0.00    +0.000 HD
ATOM      9  H   UNL     1      41.697  30.576  41.994  0.00  0.00    +0.000 HD
ATOM     10  H   UNL     1      39.910  29.730  40.506  0.00  0.00    +0.000 HD
ENDROOT
BRANCH   7  11
ATOM     11  C   UNL     1      37.419  29.117  41.228  0.00  0.00    +0.000 C 
ATOM     12  C   UNL     1      38.047  29.029  39.846  0.00  0.00    +0.000 C 
ATOM     13  C   UNL     1      36.991  28.634  38.864  0.00  0.00    +0.000 C 
ATOM     14  C   UNL     1      35.728  28.143  39.528  0.00  0.00    +0.000 C 
ATOM     15  C   UNL     1      35.139  29.179  40.462  0.00  0.00    +0.000 C 
ATOM     16  C   UNL     1      36.209  29.980  41.189  0.00  0.00    +0.000 C 
ENDBRANCH   7  11
BRANCH   3  17
ATOM     17  O   UNL     1      38.873  30.447  45.614  0.00  0.00    +0.000 OA
BRANCH  17  19
ATOM     18  O   UNL     1      39.453  32.481  47.101  0.00  0.00    +0.000 OA
ATOM     19  P   UNL     1      38.305  31.825  46.403  0.00  0.00    +0.000 P 
BRANCH  19  20
ATOM     20  O   UNL     1      37.728  32.851  45.170  0.00  0.00    +0.000 OA
ATOM     21  H   UNL     1      37.495  32.368  44.347  0.00  0.00    +0.000 HD
ENDBRANCH  19  20
BRANCH  19  22
ATOM     22  O   UNL     1      37.025  31.398  47.426  0.00  0.00    +0.000 OA
BRANCH  22  25
ATOM     23  C   UNL     1      37.602  30.538  50.978  0.00  0.00    +0.000 A 
ATOM     24  C   UNL     1      37.691  31.298  49.810  0.00  0.00    +0.000 A 
ATOM     25  C   UNL     1      37.070  30.836  48.652  0.00  0.00    +0.000 A 
ATOM     26  N   UNL     1      36.397  29.640  48.731  0.00  0.00    +0.000 NA
ATOM     27  C   UNL     1      36.334  28.936  49.878  0.00  0.00    +0.000 A 
ATOM     28  N   UNL     1      36.935  29.387  50.991  0.00  0.00    +0.000 NA
ATOM     29  H   UNL     1      38.116  30.972  51.839  0.00  0.00    +0.000 HD
ATOM     30  H   UNL     1      38.194  32.236  49.666  0.00  0.00    +0.000 HD
ATOM     31  H   UNL     1      35.786  27.982  49.904  0.00  0.00    +0.000 HD
ENDBRANCH  22  25
ENDBRANCH  19  22
ENDBRANCH  17  19
ENDBRANCH   3  17
TORSDOF 6
