
 OpenBabel03272503003D

 31 33  0  0  1  0  0  0  0  0999 V2000
   38.2910   22.7560   35.8650 N   0  0  0  0  0  0  0  0  0  0  0  0
   39.6450   22.4490   36.2770 C   0  0  0  0  0  0  0  0  0  0  0  0
   39.9600   22.5420   37.7060 C   0  0  0  0  0  0  0  0  0  0  0  0
   39.1640   23.4620   38.5450 C   0  0  0  0  0  0  0  0  0  0  0  0
   37.8040   23.7720   37.9830 C   0  0  0  0  0  0  0  0  0  0  0  0
   37.9100   24.0020   36.4710 C   0  0  1  0  0  0  0  0  0  0  0  0
   40.2930   23.1660   35.7160 H   0  0  0  0  0  0  0  0  0  0  0  0
   39.9160   21.4480   35.8710 H   0  0  0  0  0  0  0  0  0  0  0  0
   39.9180   21.5230   38.1610 H   0  0  0  0  0  0  0  0  0  0  0  0
   41.0450   22.8330   37.8220 H   0  0  0  0  0  0  0  0  0  0  0  0
   39.0050   23.0970   39.5930 H   0  0  0  0  0  0  0  0  0  0  0  0
   39.6890   24.4430   38.6390 H   0  0  0  0  0  0  0  0  0  0  0  0
   37.3700   24.6730   38.4660 H   0  0  0  0  0  0  0  0  0  0  0  0
   37.1460   22.8720   38.0890 H   0  0  0  0  0  0  0  0  0  0  0  0
   36.9150   24.3630   36.1720 H   0  0  0  0  0  0  0  0  0  0  0  0
   37.4860   21.9420   34.9990 C   0  0  0  0  0  0  0  0  0  0  0  0
   36.3360   21.2740   35.4100 C   0  0  0  0  0  0  0  0  0  0  0  0
   35.6520   20.5180   34.4560 C   0  0  0  0  0  0  0  0  0  0  0  0
   36.1450   20.4750   33.1870 N   0  0  0  0  0  0  0  0  0  0  0  0
   37.2570   21.1360   32.8440 C   0  0  0  0  0  0  0  0  0  0  0  0
   37.9250   21.8670   33.7450 N   0  0  0  0  0  0  0  0  0  0  0  0
   36.0360   21.3750   36.4310 H   0  0  0  0  0  0  0  0  0  0  0  0
   34.7600   19.9990   34.7710 H   0  0  0  0  0  0  0  0  0  0  0  0
   37.6020   21.0610   31.8020 H   0  0  0  0  0  0  0  0  0  0  0  0
   38.8990   24.9750   36.3190 O   0  0  0  0  0  0  0  0  0  0  0  0
   38.6780   25.6720   35.1560 C   0  0  0  0  0  3  0  0  0  0  0  0
   37.2910   26.2770   35.0950 C   0  0  0  0  0  2  0  0  0  0  0  0
   37.3040   27.4340   34.1560 C   0  0  0  0  0  2  0  0  0  0  0  0
   38.2560   27.2960   32.9950 C   0  0  0  0  0  2  0  0  0  0  0  0
   39.6710   27.0380   33.4170 C   0  0  0  0  0  2  0  0  0  0  0  0
   39.6480   26.8240   34.9360 C   0  0  0  0  0  2  0  0  0  0  0  0
  1  2  1  0  0  0  0
  1  6  1  0  0  0  0
  2  3  1  0  0  0  0
  3 10  1  0  0  0  0
  3  9  1  0  0  0  0
  3  4  1  0  0  0  0
  4 12  1  0  0  0  0
  4 11  1  0  0  0  0
  5 14  1  0  0  0  0
  5 13  1  0  0  0  0
  5  4  1  0  0  0  0
  6 15  1  6  0  0  0
  6  5  1  0  0  0  0
  7  2  1  0  0  0  0
  8  2  1  0  0  0  0
 16 17  1  0  0  0  0
 16  1  1  0  0  0  0
 17 22  1  0  0  0  0
 18 23  1  0  0  0  0
 18 17  2  0  0  0  0
 19 18  1  0  0  0  0
 20 19  2  0  0  0  0
 20 21  1  0  0  0  0
 21 16  2  0  0  0  0
 24 20  1  0  0  0  0
 25  6  1  0  0  0  0
 26 25  1  0  0  0  0
 27 26  1  0  0  0  0
 28 27  1  0  0  0  0
 29 30  1  0  0  0  0
 29 28  1  0  0  0  0
 30 31  1  0  0  0  0
 31 26  1  0  0  0  0
M  END
>  <minimizedAffinity>
-5.42844296

$$$$

 OpenBabel03272503003D

 31 33  0  0  1  0  0  0  0  0999 V2000
   38.2670   26.2010   33.1820 N   0  0  0  0  0  0  0  0  0  0  0  0
   37.0160   26.8150   33.5740 C   0  0  0  0  0  0  0  0  0  0  0  0
   37.0470   27.7830   34.6750 C   0  0  0  0  0  0  0  0  0  0  0  0
   38.1180   27.6640   35.6880 C   0  0  0  0  0  0  0  0  0  0  0  0
   39.3410   26.9410   35.1960 C   0  0  0  0  0  0  0  0  0  0  0  0
   38.9210   25.7210   34.3690 C   0  0  1  0  0  0  0  0  0  0  0  0
   36.3470   25.9660   33.8590 H   0  0  0  0  0  0  0  0  0  0  0  0
   36.5420   27.2550   32.6680 H   0  0  0  0  0  0  0  0  0  0  0  0
   37.0710   28.8180   34.2570 H   0  0  0  0  0  0  0  0  0  0  0  0
   36.0600   27.7460   35.2220 H   0  0  0  0  0  0  0  0  0  0  0  0
   38.4660   28.6470   36.0970 H   0  0  0  0  0  0  0  0  0  0  0  0
   37.7480   27.0810   36.5660 H   0  0  0  0  0  0  0  0  0  0  0  0
   39.9780   26.6130   36.0440 H   0  0  0  0  0  0  0  0  0  0  0  0
   39.8940   27.5970   34.4760 H   0  0  0  0  0  0  0  0  0  0  0  0
   39.8580   25.1760   34.1770 H   0  0  0  0  0  0  0  0  0  0  0  0
   38.7510   26.0990   31.8350 C   0  0  0  0  0  0  0  0  0  0  0  0
   39.3420   24.9540   31.3080 C   0  0  0  0  0  0  0  0  0  0  0  0
   39.7670   25.0000   29.9780 C   0  0  0  0  0  0  0  0  0  0  0  0
   39.5810   26.1540   29.2770 N   0  0  0  0  0  0  0  0  0  0  0  0
   39.0080   27.2270   29.8330 C   0  0  0  0  0  0  0  0  0  0  0  0
   38.5940   27.2010   31.1050 N   0  0  0  0  0  0  0  0  0  0  0  0
   39.4390   24.1010   31.9450 H   0  0  0  0  0  0  0  0  0  0  0  0
   40.2250   24.1140   29.5660 H   0  0  0  0  0  0  0  0  0  0  0  0
   38.8870   28.1280   29.2120 H   0  0  0  0  0  0  0  0  0  0  0  0
   38.0470   25.0070   35.1880 O   0  0  0  0  0  0  0  0  0  0  0  0
   38.7680   24.3130   36.1300 C   0  0  0  0  0  3  0  0  0  0  0  0
   38.1490   24.3890   37.5100 C   0  0  0  0  0  2  0  0  0  0  0  0
   38.6030   23.2200   38.3140 C   0  0  0  0  0  2  0  0  0  0  0  0
   39.9970   22.7400   38.0000 C   0  0  0  0  0  2  0  0  0  0  0  0
   40.1950   22.4000   36.5540 C   0  0  0  0  0  2  0  0  0  0  0  0
   38.9180   22.8310   35.8200 C   0  0  0  0  0  2  0  0  0  0  0  0
  1  2  1  0  0  0  0
  1  6  1  0  0  0  0
  2  7  1  0  0  0  0
  2  3  1  0  0  0  0
  3 10  1  0  0  0  0
  3  4  1  0  0  0  0
  4 11  1  0  0  0  0
  4 12  1  0  0  0  0
  5  4  1  0  0  0  0
  5 13  1  0  0  0  0
  6 15  1  6  0  0  0
  6 25  1  0  0  0  0
  6  5  1  0  0  0  0
  8  2  1  0  0  0  0
  9  3  1  0  0  0  0
 14  5  1  0  0  0  0
 16  1  1  0  0  0  0
 17 16  1  0  0  0  0
 17 22  1  0  0  0  0
 18 17  2  0  0  0  0
 19 20  2  0  0  0  0
 19 18  1  0  0  0  0
 20 21  1  0  0  0  0
 21 16  2  0  0  0  0
 23 18  1  0  0  0  0
 24 20  1  0  0  0  0
 25 26  1  0  0  0  0
 26 27  1  0  0  0  0
 27 28  1  0  0  0  0
 29 28  1  0  0  0  0
 30 29  1  0  0  0  0
 31 26  1  0  0  0  0
 31 30  1  0  0  0  0
M  END
>  <minimizedAffinity>
-5.01143312

$$$$

 OpenBabel03272503003D

 31 33  0  0  1  0  0  0  0  0999 V2000
   39.5310   24.8890   34.7330 N   0  0  0  0  0  0  0  0  0  0  0  0
   40.8470   24.8430   34.1310 C   0  0  0  0  0  0  0  0  0  0  0  0
   41.3900   26.0900   33.5850 C   0  0  0  0  0  0  0  0  0  0  0  0
   40.4450   27.1300   33.1250 C   0  0  0  0  0  0  0  0  0  0  0  0
   39.0850   27.0350   33.7580 C   0  0  0  0  0  0  0  0  0  0  0  0
   38.6470   25.5680   33.8250 C   0  0  1  0  0  0  0  0  0  0  0  0
   40.7680   24.0910   33.3070 H   0  0  0  0  0  0  0  0  0  0  0  0
   41.5510   24.3850   34.8620 H   0  0  0  0  0  0  0  0  0  0  0  0
   42.0840   26.5490   34.3310 H   0  0  0  0  0  0  0  0  0  0  0  0
   42.0690   25.8440   32.7170 H   0  0  0  0  0  0  0  0  0  0  0  0
   40.8070   28.1770   33.2900 H   0  0  0  0  0  0  0  0  0  0  0  0
   40.2800   27.0330   32.0250 H   0  0  0  0  0  0  0  0  0  0  0  0
   38.3360   27.6200   33.1830 H   0  0  0  0  0  0  0  0  0  0  0  0
   39.1510   27.3620   34.8280 H   0  0  0  0  0  0  0  0  0  0  0  0
   37.5990   25.6030   34.1580 H   0  0  0  0  0  0  0  0  0  0  0  0
   39.1890   24.3430   36.0160 C   0  0  0  0  0  0  0  0  0  0  0  0
   38.0930   24.7570   36.7670 C   0  0  0  0  0  0  0  0  0  0  0  0
   37.8830   24.1350   38.0000 C   0  0  0  0  0  0  0  0  0  0  0  0
   38.7560   23.1670   38.3950 N   0  0  0  0  0  0  0  0  0  0  0  0
   39.7960   22.8070   37.6330 C   0  0  0  0  0  0  0  0  0  0  0  0
   40.0120   23.3910   36.4490 N   0  0  0  0  0  0  0  0  0  0  0  0
   37.4700   25.5260   36.3630 H   0  0  0  0  0  0  0  0  0  0  0  0
   37.0340   24.4530   38.5860 H   0  0  0  0  0  0  0  0  0  0  0  0
   40.4630   22.0180   38.0100 H   0  0  0  0  0  0  0  0  0  0  0  0
   38.7770   25.0880   32.5210 O   0  0  0  0  0  0  0  0  0  0  0  0
   37.7090   24.2750   32.2260 C   0  0  0  0  0  3  0  0  0  0  0  0
   36.4240   25.0500   32.0240 C   0  0  0  0  0  2  0  0  0  0  0  0
   35.4940   24.2440   31.1840 C   0  0  0  0  0  2  0  0  0  0  0  0
   35.6020   22.7530   31.3740 C   0  0  0  0  0  2  0  0  0  0  0  0
   36.9870   22.2250   31.1510 C   0  0  0  0  0  2  0  0  0  0  0  0
   37.9000   23.4440   30.9650 C   0  0  0  0  0  2  0  0  0  0  0  0
  1 16  1  0  0  0  0
  2  1  1  0  0  0  0
  2  8  1  0  0  0  0
  3  2  1  0  0  0  0
  3  9  1  0  0  0  0
  4 11  1  0  0  0  0
  4  3  1  0  0  0  0
  4  5  1  0  0  0  0
  5  6  1  0  0  0  0
  5 14  1  0  0  0  0
  6 15  1  1  0  0  0
  6  1  1  0  0  0  0
  7  2  1  0  0  0  0
 10  3  1  0  0  0  0
 12  4  1  0  0  0  0
 13  5  1  0  0  0  0
 16 21  2  0  0  0  0
 16 17  1  0  0  0  0
 17 18  2  0  0  0  0
 18 19  1  0  0  0  0
 18 23  1  0  0  0  0
 20 24  1  0  0  0  0
 20 19  2  0  0  0  0
 21 20  1  0  0  0  0
 22 17  1  0  0  0  0
 25  6  1  0  0  0  0
 26 25  1  0  0  0  0
 27 26  1  0  0  0  0
 28 29  1  0  0  0  0
 28 27  1  0  0  0  0
 30 29  1  0  0  0  0
 31 30  1  0  0  0  0
 31 26  1  0  0  0  0
M  END
>  <minimizedAffinity>
-4.8912406

$$$$

 OpenBabel03272503003D

 31 33  0  0  1  0  0  0  0  0999 V2000
   39.3400   26.5390   34.2500 N   0  0  0  0  0  0  0  0  0  0  0  0
   38.3120   26.1410   33.3120 C   0  0  0  0  0  0  0  0  0  0  0  0
   37.0860   26.9440   33.2630 C   0  0  0  0  0  0  0  0  0  0  0  0
   36.6780   27.6830   34.4780 C   0  0  0  0  0  0  0  0  0  0  0  0
   37.8140   27.9750   35.4190 C   0  0  0  0  0  0  0  0  0  0  0  0
   38.7210   26.7450   35.5310 C   0  0  1  0  0  0  0  0  0  0  0  0
   38.0460   25.0920   33.5920 H   0  0  0  0  0  0  0  0  0  0  0  0
   38.7730   26.0540   32.3020 H   0  0  0  0  0  0  0  0  0  0  0  0
   37.1500   27.6670   32.4150 H   0  0  0  0  0  0  0  0  0  0  0  0
   36.2230   26.2760   32.9710 H   0  0  0  0  0  0  0  0  0  0  0  0
   36.1750   28.6610   34.2650 H   0  0  0  0  0  0  0  0  0  0  0  0
   35.9420   27.0800   35.0620 H   0  0  0  0  0  0  0  0  0  0  0  0
   37.4360   28.2510   36.4250 H   0  0  0  0  0  0  0  0  0  0  0  0
   38.4670   28.7710   34.9750 H   0  0  0  0  0  0  0  0  0  0  0  0
   39.4280   26.9900   36.3380 H   0  0  0  0  0  0  0  0  0  0  0  0
   40.7320   26.6940   33.9340 C   0  0  0  0  0  0  0  0  0  0  0  0
   41.2100   27.5180   32.9200 C   0  0  0  0  0  0  0  0  0  0  0  0
   42.5920   27.5690   32.7270 C   0  0  0  0  0  0  0  0  0  0  0  0
   43.3880   26.8170   33.5350 N   0  0  0  0  0  0  0  0  0  0  0  0
   42.8760   26.0400   34.4970 C   0  0  0  0  0  0  0  0  0  0  0  0
   41.5550   25.9780   34.6970 N   0  0  0  0  0  0  0  0  0  0  0  0
   40.4970   28.0680   32.3420 H   0  0  0  0  0  0  0  0  0  0  0  0
   42.9660   28.2080   31.9400 H   0  0  0  0  0  0  0  0  0  0  0  0
   43.5740   25.4560   35.1160 H   0  0  0  0  0  0  0  0  0  0  0  0
   37.8690   25.6930   35.8690 O   0  0  0  0  0  0  0  0  0  0  0  0
   38.5680   24.7540   36.5900 C   0  0  0  0  0  3  0  0  0  0  0  0
   38.0380   24.5900   37.9990 C   0  0  0  0  0  2  0  0  0  0  0  0
   38.4140   23.2410   38.5080 C   0  0  0  0  0  2  0  0  0  0  0  0
   39.7320   22.7170   37.9960 C   0  0  0  0  0  2  0  0  0  0  0  0
   39.8120   22.6760   36.5000 C   0  0  0  0  0  2  0  0  0  0  0  0
   38.5470   23.3640   35.9700 C   0  0  0  0  0  2  0  0  0  0  0  0
  1  6  1  0  0  0  0
  2  7  1  0  0  0  0
  2  1  1  0  0  0  0
  3  2  1  0  0  0  0
  3  4  1  0  0  0  0
  4 12  1  0  0  0  0
  4  5  1  0  0  0  0
  5  6  1  0  0  0  0
  5 13  1  0  0  0  0
  6 25  1  0  0  0  0
  6 15  1  1  0  0  0
  8  2  1  0  0  0  0
  9  3  1  0  0  0  0
 10  3  1  0  0  0  0
 11  4  1  0  0  0  0
 14  5  1  0  0  0  0
 16  1  1  0  0  0  0
 16 21  1  0  0  0  0
 17 16  2  0  0  0  0
 18 17  1  0  0  0  0
 18 19  2  0  0  0  0
 19 20  1  0  0  0  0
 20 21  2  0  0  0  0
 20 24  1  0  0  0  0
 22 17  1  0  0  0  0
 23 18  1  0  0  0  0
 25 26  1  0  0  0  0
 26 27  1  0  0  0  0
 27 28  1  0  0  0  0
 29 28  1  0  0  0  0
 30 29  1  0  0  0  0
 31 30  1  0  0  0  0
 31 26  1  0  0  0  0
M  END
>  <minimizedAffinity>
-4.87876511

$$$$

 OpenBabel03272503003D

 31 33  0  0  1  0  0  0  0  0999 V2000
   38.0910   24.1440   35.1950 N   0  0  0  0  0  0  0  0  0  0  0  0
   38.2060   23.6340   36.5440 C   0  0  0  0  0  0  0  0  0  0  0  0
   39.3920   22.8360   36.8720 C   0  0  0  0  0  0  0  0  0  0  0  0
   40.0700   22.1000   35.7840 C   0  0  0  0  0  0  0  0  0  0  0  0
   39.8180   22.6720   34.4160 C   0  0  0  0  0  0  0  0  0  0  0  0
   38.3420   23.0610   34.2830 C   0  0  1  0  0  0  0  0  0  0  0  0
   37.2940   23.0070   36.7010 H   0  0  0  0  0  0  0  0  0  0  0  0
   38.0870   24.4850   37.2520 H   0  0  0  0  0  0  0  0  0  0  0  0
   40.1450   23.4850   37.3820 H   0  0  0  0  0  0  0  0  0  0  0  0
   39.1170   22.0840   37.6680 H   0  0  0  0  0  0  0  0  0  0  0  0
   41.1810   22.0320   35.9070 H   0  0  0  0  0  0  0  0  0  0  0  0
   39.7000   21.0470   35.7500 H   0  0  0  0  0  0  0  0  0  0  0  0
   40.0820   21.9410   33.6240 H   0  0  0  0  0  0  0  0  0  0  0  0
   40.3780   23.6370   34.3100 H   0  0  0  0  0  0  0  0  0  0  0  0
   38.2160   23.3270   33.2230 H   0  0  0  0  0  0  0  0  0  0  0  0
   37.7780   25.5020   34.8480 C   0  0  0  0  0  0  0  0  0  0  0  0
   37.9410   26.5800   35.7130 C   0  0  0  0  0  0  0  0  0  0  0  0
   37.5940   27.8470   35.2380 C   0  0  0  0  0  0  0  0  0  0  0  0
   37.1200   27.9560   33.9660 N   0  0  0  0  0  0  0  0  0  0  0  0
   36.9820   26.8850   33.1760 C   0  0  0  0  0  0  0  0  0  0  0  0
   37.3100   25.6640   33.6130 N   0  0  0  0  0  0  0  0  0  0  0  0
   38.3220   26.3840   36.6920 H   0  0  0  0  0  0  0  0  0  0  0  0
   37.7200   28.6860   35.9060 H   0  0  0  0  0  0  0  0  0  0  0  0
   36.5930   27.0410   32.1580 H   0  0  0  0  0  0  0  0  0  0  0  0
   37.6290   21.9150   34.6340 O   0  0  0  0  0  0  0  0  0  0  0  0
   37.0730   21.3600   33.5070 C   0  0  0  0  0  3  0  0  0  0  0  0
   35.7760   20.6330   33.7940 C   0  0  0  0  0  2  0  0  0  0  0  0
   34.9660   20.5650   32.5440 C   0  0  0  0  0  2  0  0  0  0  0  0
   35.7720   20.4600   31.2750 C   0  0  0  0  0  2  0  0  0  0  0  0
   36.7680   21.5680   31.1110 C   0  0  0  0  0  2  0  0  0  0  0  0
   36.7530   22.3730   32.4170 C   0  0  0  0  0  2  0  0  0  0  0  0
  1  2  1  0  0  0  0
  2  7  1  0  0  0  0
  2  3  1  0  0  0  0
  2  8  1  0  0  0  0
  3  9  1  0  0  0  0
  3 10  1  0  0  0  0
  4 11  1  0  0  0  0
  4  3  1  0  0  0  0
  5  4  1  0  0  0  0
  6 15  1  6  0  0  0
  6  5  1  0  0  0  0
  6 25  1  0  0  0  0
  6  1  1  0  0  0  0
 12  4  1  0  0  0  0
 13  5  1  0  0  0  0
 14  5  1  0  0  0  0
 16  1  1  0  0  0  0
 16 17  1  0  0  0  0
 17 22  1  0  0  0  0
 18 17  2  0  0  0  0
 18 23  1  0  0  0  0
 19 18  1  0  0  0  0
 20 21  1  0  0  0  0
 20 19  2  0  0  0  0
 21 16  2  0  0  0  0
 24 20  1  0  0  0  0
 26 27  1  0  0  0  0
 26 25  1  0  0  0  0
 28 27  1  0  0  0  0
 29 28  1  0  0  0  0
 30 29  1  0  0  0  0
 30 31  1  0  0  0  0
 31 26  1  0  0  0  0
M  END
>  <minimizedAffinity>
-4.86435986

$$$$

 OpenBabel03272503003D

 31 33  0  0  1  0  0  0  0  0999 V2000
   38.5160   22.5960   35.6710 N   0  0  0  0  0  0  0  0  0  0  0  0
   39.7730   22.0410   36.1240 C   0  0  0  0  0  0  0  0  0  0  0  0
   40.1310   22.2270   37.5330 C   0  0  0  0  0  0  0  0  0  0  0  0
   39.5820   23.3960   38.2530 C   0  0  0  0  0  0  0  0  0  0  0  0
   38.3160   23.9380   37.6490 C   0  0  0  0  0  0  0  0  0  0  0  0
   38.4390   23.9590   36.1220 C   0  0  1  0  0  0  0  0  0  0  0  0
   40.5550   22.5210   35.4860 H   0  0  0  0  0  0  0  0  0  0  0  0
   39.8030   20.9640   35.8420 H   0  0  0  0  0  0  0  0  0  0  0  0
   39.8690   21.3040   38.1060 H   0  0  0  0  0  0  0  0  0  0  0  0
   41.2560   22.2760   37.6210 H   0  0  0  0  0  0  0  0  0  0  0  0
   39.3670   23.2020   39.3350 H   0  0  0  0  0  0  0  0  0  0  0  0
   40.3170   24.2350   38.2320 H   0  0  0  0  0  0  0  0  0  0  0  0
   38.1070   24.9640   38.0190 H   0  0  0  0  0  0  0  0  0  0  0  0
   37.4730   23.2300   37.8570 H   0  0  0  0  0  0  0  0  0  0  0  0
   37.5460   24.4990   35.7750 H   0  0  0  0  0  0  0  0  0  0  0  0
   37.5290   21.8910   34.9030 C   0  0  0  0  0  0  0  0  0  0  0  0
   37.5400   21.8100   33.5130 C   0  0  0  0  0  0  0  0  0  0  0  0
   36.5140   21.0880   32.9000 C   0  0  0  0  0  0  0  0  0  0  0  0
   35.5670   20.5080   33.6890 N   0  0  0  0  0  0  0  0  0  0  0  0
   35.6030   20.6170   35.0220 C   0  0  0  0  0  0  0  0  0  0  0  0
   36.5790   21.3050   35.6270 N   0  0  0  0  0  0  0  0  0  0  0  0
   38.3310   22.3030   32.9890 H   0  0  0  0  0  0  0  0  0  0  0  0
   36.5190   21.0230   31.8220 H   0  0  0  0  0  0  0  0  0  0  0  0
   34.8080   20.1250   35.6020 H   0  0  0  0  0  0  0  0  0  0  0  0
   39.6190   24.6570   35.8600 O   0  0  0  0  0  0  0  0  0  0  0  0
   39.4500   25.4360   34.7420 C   0  0  0  0  0  3  0  0  0  0  0  0
   40.2040   26.7470   34.8260 C   0  0  0  0  0  2  0  0  0  0  0  0
   40.4540   27.2560   33.4480 C   0  0  0  0  0  2  0  0  0  0  0  0
   39.3790   26.9220   32.4460 C   0  0  0  0  0  2  0  0  0  0  0  0
   39.1000   25.4520   32.3430 C   0  0  0  0  0  2  0  0  0  0  0  0
   39.9100   24.7710   33.4530 C   0  0  0  0  0  2  0  0  0  0  0  0
  1  6  1  0  0  0  0
  1  2  1  0  0  0  0
  2  3  1  0  0  0  0
  3 10  1  0  0  0  0
  3  9  1  0  0  0  0
  3  4  1  0  0  0  0
  4 11  1  0  0  0  0
  5 14  1  0  0  0  0
  5 13  1  0  0  0  0
  5  4  1  0  0  0  0
  6 15  1  6  0  0  0
  6  5  1  0  0  0  0
  7  2  1  0  0  0  0
  8  2  1  0  0  0  0
 12  4  1  0  0  0  0
 16 21  1  0  0  0  0
 16  1  1  0  0  0  0
 17 16  2  0  0  0  0
 18 17  1  0  0  0  0
 18 19  2  0  0  0  0
 19 20  1  0  0  0  0
 20 24  1  0  0  0  0
 20 21  2  0  0  0  0
 22 17  1  0  0  0  0
 23 18  1  0  0  0  0
 25  6  1  0  0  0  0
 26 27  1  0  0  0  0
 26 25  1  0  0  0  0
 28 27  1  0  0  0  0
 29 28  1  0  0  0  0
 30 29  1  0  0  0  0
 30 31  1  0  0  0  0
 31 26  1  0  0  0  0
M  END
>  <minimizedAffinity>
-4.8157177

$$$$

 OpenBabel03272503003D

 31 33  0  0  1  0  0  0  0  0999 V2000
   39.0160   23.5690   34.3070 N   0  0  0  0  0  0  0  0  0  0  0  0
   40.1240   23.8940   33.4340 C   0  0  0  0  0  0  0  0  0  0  0  0
   39.9300   24.9730   32.4600 C   0  0  0  0  0  0  0  0  0  0  0  0
   38.5580   25.2590   31.9890 C   0  0  0  0  0  0  0  0  0  0  0  0
   37.4840   24.8090   32.9400 C   0  0  0  0  0  0  0  0  0  0  0  0
   37.8360   23.4260   33.5000 C   0  0  1  0  0  0  0  0  0  0  0  0
   40.3540   22.9480   32.8840 H   0  0  0  0  0  0  0  0  0  0  0  0
   41.0240   24.0790   34.0630 H   0  0  0  0  0  0  0  0  0  0  0  0
   40.3690   25.9170   32.8620 H   0  0  0  0  0  0  0  0  0  0  0  0
   40.5610   24.7600   31.5480 H   0  0  0  0  0  0  0  0  0  0  0  0
   38.3690   26.3420   31.7760 H   0  0  0  0  0  0  0  0  0  0  0  0
   38.3650   24.7210   31.0300 H   0  0  0  0  0  0  0  0  0  0  0  0
   36.4970   24.7650   32.4340 H   0  0  0  0  0  0  0  0  0  0  0  0
   37.4750   25.4840   33.8340 H   0  0  0  0  0  0  0  0  0  0  0  0
   36.9420   23.1140   34.0600 H   0  0  0  0  0  0  0  0  0  0  0  0
   39.1040   23.4180   35.7320 C   0  0  0  0  0  0  0  0  0  0  0  0
   40.1600   22.7850   36.3820 C   0  0  0  0  0  0  0  0  0  0  0  0
   40.1100   22.7130   37.7760 C   0  0  0  0  0  0  0  0  0  0  0  0
   39.0400   23.2600   38.4160 N   0  0  0  0  0  0  0  0  0  0  0  0
   38.0500   23.8570   37.7420 C   0  0  0  0  0  0  0  0  0  0  0  0
   38.0810   23.9370   36.4070 N   0  0  0  0  0  0  0  0  0  0  0  0
   40.9520   22.3890   35.7830 H   0  0  0  0  0  0  0  0  0  0  0  0
   40.9280   22.2230   38.2830 H   0  0  0  0  0  0  0  0  0  0  0  0
   37.2140   24.2800   38.3200 H   0  0  0  0  0  0  0  0  0  0  0  0
   38.0690   22.6280   32.3790 O   0  0  0  0  0  0  0  0  0  0  0  0
   37.2700   21.5110   32.4410 C   0  0  0  0  0  3  0  0  0  0  0  0
   36.7300   21.2580   33.8320 C   0  0  0  0  0  2  0  0  0  0  0  0
   35.4850   20.4440   33.7320 C   0  0  0  0  0  2  0  0  0  0  0  0
   35.4610   19.4640   32.5870 C   0  0  0  0  0  2  0  0  0  0  0  0
   35.6920   20.1070   31.2520 C   0  0  0  0  0  2  0  0  0  0  0  0
   36.0570   21.5720   31.5240 C   0  0  0  0  0  2  0  0  0  0  0  0
  1 16  1  0  0  0  0
  2  8  1  0  0  0  0
  2  1  1  0  0  0  0
  3  9  1  0  0  0  0
  3  2  1  0  0  0  0
  4  3  1  0  0  0  0
  4  5  1  0  0  0  0
  5  6  1  0  0  0  0
  5 14  1  0  0  0  0
  6 15  1  1  0  0  0
  6  1  1  0  0  0  0
  7  2  1  0  0  0  0
 10  3  1  0  0  0  0
 11  4  1  0  0  0  0
 12  4  1  0  0  0  0
 13  5  1  0  0  0  0
 16 17  2  0  0  0  0
 16 21  1  0  0  0  0
 17 18  1  0  0  0  0
 18 23  1  0  0  0  0
 18 19  2  0  0  0  0
 20 24  1  0  0  0  0
 20 19  1  0  0  0  0
 21 20  2  0  0  0  0
 22 17  1  0  0  0  0
 25 26  1  0  0  0  0
 25  6  1  0  0  0  0
 26 27  1  0  0  0  0
 28 27  1  0  0  0  0
 29 28  1  0  0  0  0
 30 31  1  0  0  0  0
 30 29  1  0  0  0  0
 31 26  1  0  0  0  0
M  END
>  <minimizedAffinity>
-4.77435637

$$$$

 OpenBabel03272503003D

 31 33  0  0  1  0  0  0  0  0999 V2000
   38.1200   25.8400   33.2060 N   0  0  0  0  0  0  0  0  0  0  0  0
   39.2510   25.7660   32.3060 C   0  0  0  0  0  0  0  0  0  0  0  0
   39.4400   24.5250   31.5480 C   0  0  0  0  0  0  0  0  0  0  0  0
   38.9130   23.2660   32.1160 C   0  0  0  0  0  0  0  0  0  0  0  0
   37.7920   23.4660   33.0980 C   0  0  0  0  0  0  0  0  0  0  0  0
   38.1130   24.6510   34.0150 C   0  0  1  0  0  0  0  0  0  0  0  0
   40.1510   25.9390   32.9470 H   0  0  0  0  0  0  0  0  0  0  0  0
   39.2170   26.6480   31.6270 H   0  0  0  0  0  0  0  0  0  0  0  0
   39.0210   24.6520   30.5210 H   0  0  0  0  0  0  0  0  0  0  0  0
   40.5430   24.3750   31.3620 H   0  0  0  0  0  0  0  0  0  0  0  0
   38.5430   22.5420   31.3450 H   0  0  0  0  0  0  0  0  0  0  0  0
   39.7200   22.7330   32.6740 H   0  0  0  0  0  0  0  0  0  0  0  0
   37.6330   22.5540   33.7110 H   0  0  0  0  0  0  0  0  0  0  0  0
   36.8670   23.7750   32.5460 H   0  0  0  0  0  0  0  0  0  0  0  0
   37.3260   24.6330   34.7830 H   0  0  0  0  0  0  0  0  0  0  0  0
   37.1800   26.9230   33.2660 C   0  0  0  0  0  0  0  0  0  0  0  0
   36.9410   27.6800   34.4090 C   0  0  0  0  0  0  0  0  0  0  0  0
   35.9960   28.7040   34.3200 C   0  0  0  0  0  0  0  0  0  0  0  0
   35.3660   28.9040   33.1290 N   0  0  0  0  0  0  0  0  0  0  0  0
   35.6330   28.1450   32.0590 C   0  0  0  0  0  0  0  0  0  0  0  0
   36.5360   27.1600   32.1260 N   0  0  0  0  0  0  0  0  0  0  0  0
   37.4910   27.4400   35.2940 H   0  0  0  0  0  0  0  0  0  0  0  0
   35.8080   29.2940   35.2050 H   0  0  0  0  0  0  0  0  0  0  0  0
   35.0890   28.3580   31.1270 H   0  0  0  0  0  0  0  0  0  0  0  0
   39.3770   24.3750   34.5380 O   0  0  0  0  0  0  0  0  0  0  0  0
   39.2720   24.1570   35.8910 C   0  0  0  0  0  3  0  0  0  0  0  0
   37.9410   24.6100   36.4520 C   0  0  0  0  0  2  0  0  0  0  0  0
   37.6630   23.8640   37.7130 C   0  0  0  0  0  2  0  0  0  0  0  0
   38.8850   23.5130   38.5210 C   0  0  0  0  0  2  0  0  0  0  0  0
   39.9040   22.7310   37.7470 C   0  0  0  0  0  2  0  0  0  0  0  0
   39.4200   22.6960   36.2920 C   0  0  0  0  0  2  0  0  0  0  0  0
  1 16  1  0  0  0  0
  1  6  1  0  0  0  0
  2  7  1  0  0  0  0
  2  1  1  0  0  0  0
  3  4  1  0  0  0  0
  3  2  1  0  0  0  0
  4 12  1  0  0  0  0
  4  5  1  0  0  0  0
  5 13  1  0  0  0  0
  5  6  1  0  0  0  0
  6 25  1  0  0  0  0
  6 15  1  1  0  0  0
  8  2  1  0  0  0  0
  9  3  1  0  0  0  0
 10  3  1  0  0  0  0
 11  4  1  0  0  0  0
 14  5  1  0  0  0  0
 16 17  1  0  0  0  0
 17 22  1  0  0  0  0
 18 17  2  0  0  0  0
 18 23  1  0  0  0  0
 19 18  1  0  0  0  0
 20 21  1  0  0  0  0
 20 19  2  0  0  0  0
 21 16  2  0  0  0  0
 24 20  1  0  0  0  0
 25 26  1  0  0  0  0
 26 31  1  0  0  0  0
 26 27  1  0  0  0  0
 27 28  1  0  0  0  0
 28 29  1  0  0  0  0
 30 29  1  0  0  0  0
 31 30  1  0  0  0  0
M  END
>  <minimizedAffinity>
-4.77166414

$$$$

 OpenBabel03272503003D

 31 33  0  0  1  0  0  0  0  0999 V2000
   38.5850   24.6080   35.5990 N   0  0  0  0  0  0  0  0  0  0  0  0
   37.7860   24.9720   36.7490 C   0  0  0  0  0  0  0  0  0  0  0  0
   38.1630   24.4060   38.0480 C   0  0  0  0  0  0  0  0  0  0  0  0
   38.8770   23.1110   38.0720 C   0  0  0  0  0  0  0  0  0  0  0  0
   39.6090   22.7990   36.7960 C   0  0  0  0  0  0  0  0  0  0  0  0
   38.7380   23.1780   35.5940 C   0  0  1  0  0  0  0  0  0  0  0  0
   36.7450   24.6460   36.5010 H   0  0  0  0  0  0  0  0  0  0  0  0
   37.7280   26.0830   36.7980 H   0  0  0  0  0  0  0  0  0  0  0  0
   38.7680   25.1530   38.6160 H   0  0  0  0  0  0  0  0  0  0  0  0
   37.2340   24.2890   38.6790 H   0  0  0  0  0  0  0  0  0  0  0  0
   39.6220   23.0200   38.9030 H   0  0  0  0  0  0  0  0  0  0  0  0
   38.1490   22.2780   38.2210 H   0  0  0  0  0  0  0  0  0  0  0  0
   39.8700   21.7210   36.7410 H   0  0  0  0  0  0  0  0  0  0  0  0
   40.5100   23.4610   36.7160 H   0  0  0  0  0  0  0  0  0  0  0  0
   39.2790   22.7860   34.7200 H   0  0  0  0  0  0  0  0  0  0  0  0
   39.1210   25.5300   34.6390 C   0  0  0  0  0  0  0  0  0  0  0  0
   40.2580   26.3020   34.8570 C   0  0  0  0  0  0  0  0  0  0  0  0
   40.6640   27.1590   33.8310 C   0  0  0  0  0  0  0  0  0  0  0  0
   39.9310   27.1900   32.6840 N   0  0  0  0  0  0  0  0  0  0  0  0
   38.8430   26.4260   32.5260 C   0  0  0  0  0  0  0  0  0  0  0  0
   38.4400   25.6000   33.4970 N   0  0  0  0  0  0  0  0  0  0  0  0
   40.7610   26.2010   35.7950 H   0  0  0  0  0  0  0  0  0  0  0  0
   41.5460   27.7590   33.9960 H   0  0  0  0  0  0  0  0  0  0  0  0
   38.2950   26.4990   31.5750 H   0  0  0  0  0  0  0  0  0  0  0  0
   37.5220   22.5270   35.8050 O   0  0  0  0  0  0  0  0  0  0  0  0
   37.3020   21.6300   34.7880 C   0  0  0  0  0  3  0  0  0  0  0  0
   35.9620   20.9340   34.9050 C   0  0  0  0  0  2  0  0  0  0  0  0
   35.5450   20.4480   33.5590 C   0  0  0  0  0  2  0  0  0  0  0  0
   36.6790   20.0280   32.6600 C   0  0  0  0  0  2  0  0  0  0  0  0
   37.7040   21.1040   32.4570 C   0  0  0  0  0  2  0  0  0  0  0  0
   37.3310   22.2540   33.4010 C   0  0  0  0  0  2  0  0  0  0  0  0
  1  2  1  0  0  0  0
  2  8  1  0  0  0  0
  2  3  1  0  0  0  0
  3  4  1  0  0  0  0
  3  9  1  0  0  0  0
  3 10  1  0  0  0  0
  4 12  1  0  0  0  0
  4 11  1  0  0  0  0
  5  4  1  0  0  0  0
  6 15  1  6  0  0  0
  6  1  1  0  0  0  0
  6 25  1  0  0  0  0
  6  5  1  0  0  0  0
  7  2  1  0  0  0  0
 13  5  1  0  0  0  0
 14  5  1  0  0  0  0
 16 17  1  0  0  0  0
 16  1  1  0  0  0  0
 17 22  1  0  0  0  0
 18 23  1  0  0  0  0
 18 17  2  0  0  0  0
 19 18  1  0  0  0  0
 20 19  2  0  0  0  0
 20 21  1  0  0  0  0
 21 16  2  0  0  0  0
 24 20  1  0  0  0  0
 26 27  1  0  0  0  0
 26 25  1  0  0  0  0
 28 27  1  0  0  0  0
 29 28  1  0  0  0  0
 30 29  1  0  0  0  0
 30 31  1  0  0  0  0
 31 26  1  0  0  0  0
M  END
>  <minimizedAffinity>
-4.76107836

$$$$
