
 OpenBabel03272510233D

 28 31  0  0  1  0  0  0  0  0999 V2000
   35.4140   29.9930   47.1430 C   0  0  0  0  0  0  0  0  0  0  0  0
   36.6560   30.2290   47.6980 C   0  0  0  0  0  0  0  0  0  0  0  0
   37.7090   30.5730   46.8940 C   0  0  0  0  0  0  0  0  0  0  0  0
   37.4920   30.6760   45.5210 C   0  0  0  0  0  0  0  0  0  0  0  0
   38.3830   30.9990   44.5460 N   0  0  0  0  0  0  0  0  0  0  0  0
   37.7060   30.9660   43.3920 C   0  0  0  0  0  0  0  0  0  0  0  0
   36.4250   30.6350   43.5970 N   0  0  0  0  0  0  0  0  0  0  0  0
   36.2550   30.4450   44.9260 C   0  0  0  0  0  0  0  0  0  0  0  0
   35.2080   30.0980   45.7690 C   0  0  0  0  0  0  0  0  0  0  0  0
   34.5420   29.7180   47.7170 H   0  0  0  0  0  0  0  0  0  0  0  0
   38.6890   30.7610   47.3120 H   0  0  0  0  0  0  0  0  0  0  0  0
   39.3790   31.2290   44.6400 H   0  0  0  0  0  0  0  0  0  0  0  0
   34.2400   29.9160   45.3230 H   0  0  0  0  0  0  0  0  0  0  0  0
   37.8570   30.3570   51.2600 C   0  0  0  0  0  0  0  0  0  0  0  0
   37.8530   30.5410   49.8770 C   0  0  0  0  0  0  0  0  0  0  0  0
   36.7740   30.0950   49.1390 C   0  0  0  0  0  0  0  0  0  0  0  0
   35.7570   29.4910   49.8160 N   0  0  0  0  0  0  0  0  0  0  0  0
   35.7700   29.3170   51.1590 C   0  0  0  0  0  0  0  0  0  0  0  0
   36.8110   29.7480   51.8700 N   0  0  0  0  0  0  0  0  0  0  0  0
   38.7180   30.7210   51.7820 H   0  0  0  0  0  0  0  0  0  0  0  0
   38.6690   31.0220   49.3620 H   0  0  0  0  0  0  0  0  0  0  0  0
   34.9480   28.8360   51.6540 H   0  0  0  0  0  0  0  0  0  0  0  0
   38.2130   31.2450   42.0100 C   0  0  2  0  0  3  0  0  0  0  0  0
   39.4670   32.0540   42.1650 C   0  0  0  0  0  2  0  0  0  0  0  0
   39.0970   33.5120   42.2230 C   0  0  0  0  0  2  0  0  0  0  0  0
   38.6130   33.8440   40.8230 C   0  0  0  0  0  2  0  0  0  0  0  0
   37.3830   33.0840   40.4470 C   0  0  0  0  0  3  0  0  0  0  0  0
   37.1630   31.7980   41.1320 C   0  0  0  0  0  3  0  0  0  0  0  0
  1  2  1  0  0  0  0
  1 10  1  0  0  0  0
  2 16  1  0  0  0  0
  3 11  1  0  0  0  0
  3  2  2  0  0  0  0
  4  3  1  0  0  0  0
  5 12  1  0  0  0  0
  5  4  1  0  0  0  0
  6  7  2  0  0  0  0
  6  5  1  0  0  0  0
  7  8  1  0  0  0  0
  8  4  2  0  0  0  0
  8  9  1  0  0  0  0
  9  1  2  0  0  0  0
 13  9  1  0  0  0  0
 14 20  1  0  0  0  0
 14 19  1  0  0  0  0
 15 14  2  0  0  0  0
 16 17  2  0  0  0  0
 16 15  1  0  0  0  0
 17 18  1  0  0  0  0
 18 22  1  0  0  0  0
 18 19  2  0  0  0  0
 21 15  1  0  0  0  0
 23 24  1  0  0  0  0
 23  6  1  1  0  0  0
 24 25  1  0  0  0  0
 26 25  1  0  0  0  0
 27 26  1  0  0  0  0
 27 28  2  0  0  0  0
 28 23  1  0  0  0  0
M  END
>  <minimizedAffinity>
-5.12073517

>  <minimizedRMSD>
3.00934458

$$$$
