
 OpenBabel03272505133D

 36 39  0  0  0  0  0  0  0  0999 V2000
   36.4170   30.8960   45.7080 Cl  0  0  0  0  0  0  0  0  0  0  0  0
   36.6940   30.7850   47.4250 C   0  0  0  0  0  0  0  0  0  0  0  0
   37.9540   31.1280   47.8820 C   0  0  0  0  0  0  0  0  0  0  0  0
   38.1860   31.0420   49.2500 C   0  0  0  0  0  0  0  0  0  0  0  0
   37.1760   30.6300   50.0890 C   0  0  0  0  0  0  0  0  0  0  0  0
   35.9390   30.3040   49.5530 C   0  0  0  0  0  0  0  0  0  0  0  0
   35.6420   30.3640   48.2160 C   0  0  0  0  0  0  0  0  0  0  0  0
   39.1670   31.3060   49.6300 H   0  0  0  0  0  0  0  0  0  0  0  0
   37.3190   30.5510   51.1570 H   0  0  0  0  0  0  0  0  0  0  0  0
   35.1690   29.9820   50.2500 H   0  0  0  0  0  0  0  0  0  0  0  0
   40.2280   33.3270   46.0880 C   0  0  0  0  0  0  0  0  0  0  0  0
   40.9380   32.4770   45.2290 C   0  0  0  0  0  0  0  0  0  0  0  0
   40.6150   31.1090   45.2800 C   0  0  0  0  0  0  0  0  0  0  0  0
   39.6430   30.6970   46.1500 N   0  0  0  0  0  0  0  0  0  0  0  0
   39.0030   31.5640   46.9430 C   0  0  0  0  0  0  0  0  0  0  0  0
   39.2840   32.8670   46.9210 N   0  0  0  0  0  0  0  0  0  0  0  0
   40.5270   34.3630   45.9970 H   0  0  0  0  0  0  0  0  0  0  0  0
   41.7090   32.8530   44.5510 H   0  0  0  0  0  0  0  0  0  0  0  0
   41.1140   30.4080   44.6580 H   0  0  0  0  0  0  0  0  0  0  0  0
   34.0730   29.9530   47.5240 S   0  0  0  0  0  0  0  0  0  0  0  0
   34.0040   29.1460   44.4830 Cl  0  0  0  0  0  0  0  0  0  0  0  0
   33.9310   27.9360   45.7430 C   0  0  0  0  0  0  0  0  0  0  0  0
   33.9560   28.2120   47.1180 C   0  0  0  0  0  0  0  0  0  0  0  0
   33.8930   27.1780   48.0130 C   0  0  0  0  0  0  0  0  0  0  0  0
   33.8050   25.8790   47.5860 C   0  0  0  0  0  0  0  0  0  0  0  0
   33.7770   25.5660   46.2330 C   0  0  0  0  0  0  0  0  0  0  0  0
   33.8410   26.6020   45.3450 C   0  0  0  0  0  0  0  0  0  0  0  0
   33.9210   27.5140   49.0510 H   0  0  0  0  0  0  0  0  0  0  0  0
   33.7590   25.1100   48.3190 H   0  0  0  0  0  0  0  0  0  0  0  0
   33.7070   24.5220   45.9570 H   0  0  0  0  0  0  0  0  0  0  0  0
   33.8110   26.2670   43.8960 C   0  0  0  0  0  3  0  0  0  0  0  0
   32.8100   25.2030   43.5760 C   0  0  0  0  0  2  0  0  0  0  0  0
   32.7480   24.9870   42.0990 C   0  0  0  0  0  2  0  0  0  0  0  0
   33.7550   25.8180   41.3390 C   0  0  0  0  0  2  0  0  0  0  0  0
   35.1410   25.7280   41.8940 C   0  0  0  0  0  2  0  0  0  0  0  0
   35.1740   25.8410   43.4020 C   0  0  0  0  0  2  0  0  0  0  0  0
  1  2  1  0  0  0  0
  2  3  2  0  0  0  0
  2  7  1  0  0  0  0
  3  4  1  0  0  0  0
  4  8  1  0  0  0  0
  4  5  2  0  0  0  0
  5  9  1  0  0  0  0
  6  5  1  0  0  0  0
  6 10  1  0  0  0  0
  7  6  2  0  0  0  0
 11 16  1  0  0  0  0
 12 13  1  0  0  0  0
 12 11  2  0  0  0  0
 13 14  2  0  0  0  0
 14 15  1  0  0  0  0
 15  3  1  0  0  0  0
 16 15  2  0  0  0  0
 17 11  1  0  0  0  0
 18 12  1  0  0  0  0
 19 13  1  0  0  0  0
 20  7  1  0  0  0  0
 21 22  1  0  0  0  0
 22 23  1  0  0  0  0
 23 20  1  0  0  0  0
 23 24  2  0  0  0  0
 24 28  1  0  0  0  0
 25 24  1  0  0  0  0
 25 29  1  0  0  0  0
 26 25  2  0  0  0  0
 27 22  2  0  0  0  0
 27 26  1  0  0  0  0
 30 26  1  0  0  0  0
 31 27  1  0  0  0  0
 32 31  1  0  0  0  0
 33 32  1  0  0  0  0
 34 35  1  0  0  0  0
 34 33  1  0  0  0  0
 35 36  1  0  0  0  0
 36 31  1  0  0  0  0
M  END
>  <minimizedAffinity>
-5.74689388

>  <minimizedRMSD>
0.394144863

$$$$
