
 OpenBabel03272510233D

 28 31  0  0  1  0  0  0  0  0999 V2000
   35.5610   30.0750   46.6320 C   0  0  0  0  0  0  0  0  0  0  0  0
   36.7960   30.4510   47.1220 C   0  0  0  0  0  0  0  0  0  0  0  0
   37.7650   30.8930   46.2620 C   0  0  0  0  0  0  0  0  0  0  0  0
   37.4720   30.9500   44.9010 C   0  0  0  0  0  0  0  0  0  0  0  0
   38.2740   31.3510   43.8790 N   0  0  0  0  0  0  0  0  0  0  0  0
   37.5490   31.2270   42.7600 C   0  0  0  0  0  0  0  0  0  0  0  0
   36.3220   30.7630   43.0340 N   0  0  0  0  0  0  0  0  0  0  0  0
   36.2390   30.5780   44.3710 C   0  0  0  0  0  0  0  0  0  0  0  0
   35.2780   30.1340   45.2690 C   0  0  0  0  0  0  0  0  0  0  0  0
   34.7530   29.7170   47.2530 H   0  0  0  0  0  0  0  0  0  0  0  0
   38.7380   31.1930   46.6280 H   0  0  0  0  0  0  0  0  0  0  0  0
   39.2420   31.6880   43.9190 H   0  0  0  0  0  0  0  0  0  0  0  0
   34.3150   29.8420   44.8750 H   0  0  0  0  0  0  0  0  0  0  0  0
   38.0850   30.8550   50.6320 C   0  0  0  0  0  0  0  0  0  0  0  0
   37.9860   31.0250   49.2510 C   0  0  0  0  0  0  0  0  0  0  0  0
   36.9970   30.3550   48.5570 C   0  0  0  0  0  0  0  0  0  0  0  0
   36.1610   29.5520   49.2730 N   0  0  0  0  0  0  0  0  0  0  0  0
   36.2650   29.3930   50.6130 C   0  0  0  0  0  0  0  0  0  0  0  0
   37.2190   30.0400   51.2830 N   0  0  0  0  0  0  0  0  0  0  0  0
   38.8690   31.3970   51.1190 H   0  0  0  0  0  0  0  0  0  0  0  0
   38.6590   31.6650   48.7040 H   0  0  0  0  0  0  0  0  0  0  0  0
   35.5850   28.7510   51.1400 H   0  0  0  0  0  0  0  0  0  0  0  0
   37.9540   31.5350   41.3520 C   0  0  2  0  0  3  0  0  0  0  0  0
   38.5490   32.9120   41.3660 C   0  0  0  0  0  2  0  0  0  0  0  0
   37.4460   33.9170   41.1710 C   0  0  0  0  0  2  0  0  0  0  0  0
   36.9970   33.7230   39.7330 C   0  0  0  0  0  2  0  0  0  0  0  0
   36.4170   32.3670   39.4940 C   0  0  0  0  0  3  0  0  0  0  0  0
   36.8620   31.2870   40.3910 C   0  0  0  0  0  3  0  0  0  0  0  0
  1  2  1  0  0  0  0
  1 10  1  0  0  0  0
  2 16  1  0  0  0  0
  3 11  1  0  0  0  0
  3  2  2  0  0  0  0
  4  3  1  0  0  0  0
  5 12  1  0  0  0  0
  5  4  1  0  0  0  0
  6  7  2  0  0  0  0
  6  5  1  0  0  0  0
  7  8  1  0  0  0  0
  8  4  2  0  0  0  0
  8  9  1  0  0  0  0
  9  1  2  0  0  0  0
 13  9  1  0  0  0  0
 14 20  1  0  0  0  0
 14 19  1  0  0  0  0
 15 14  2  0  0  0  0
 16 15  1  0  0  0  0
 16 17  2  0  0  0  0
 17 18  1  0  0  0  0
 18 22  1  0  0  0  0
 18 19  2  0  0  0  0
 21 15  1  0  0  0  0
 23 24  1  0  0  0  0
 23  6  1  1  0  0  0
 25 24  1  0  0  0  0
 26 25  1  0  0  0  0
 27 26  1  0  0  0  0
 27 28  2  0  0  0  0
 28 23  1  0  0  0  0
M  END
>  <minimizedAffinity>
-4.80968237

>  <minimizedRMSD>
3.33021259

$$$$
