
 OpenBabel03272505123D

 36 39  0  0  0  0  0  0  0  0999 V2000
   36.4060   30.8410   45.6400 Cl  0  0  0  0  0  0  0  0  0  0  0  0
   36.6630   30.7190   47.3600 C   0  0  0  0  0  0  0  0  0  0  0  0
   37.9130   31.0700   47.8360 C   0  0  0  0  0  0  0  0  0  0  0  0
   38.1290   30.9760   49.2060 C   0  0  0  0  0  0  0  0  0  0  0  0
   37.1120   30.5470   50.0290 C   0  0  0  0  0  0  0  0  0  0  0  0
   35.8850   30.2140   49.4740 C   0  0  0  0  0  0  0  0  0  0  0  0
   35.6040   30.2820   48.1340 C   0  0  0  0  0  0  0  0  0  0  0  0
   39.1020   31.2470   49.6000 H   0  0  0  0  0  0  0  0  0  0  0  0
   37.2420   30.4620   51.0980 H   0  0  0  0  0  0  0  0  0  0  0  0
   35.1100   29.8790   50.1590 H   0  0  0  0  0  0  0  0  0  0  0  0
   40.1930   33.3050   46.0930 C   0  0  0  0  0  0  0  0  0  0  0  0
   40.9170   32.4700   45.2320 C   0  0  0  0  0  0  0  0  0  0  0  0
   40.6010   31.1000   45.2630 C   0  0  0  0  0  0  0  0  0  0  0  0
   39.6230   30.6710   46.1160 N   0  0  0  0  0  0  0  0  0  0  0  0
   38.9690   31.5240   46.9130 C   0  0  0  0  0  0  0  0  0  0  0  0
   39.2430   32.8300   46.9100 N   0  0  0  0  0  0  0  0  0  0  0  0
   40.4860   34.3440   46.0180 H   0  0  0  0  0  0  0  0  0  0  0  0
   41.6930   32.8590   44.5660 H   0  0  0  0  0  0  0  0  0  0  0  0
   41.1110   30.4090   44.6370 H   0  0  0  0  0  0  0  0  0  0  0  0
   34.0490   29.8610   47.4190 S   0  0  0  0  0  0  0  0  0  0  0  0
   34.0110   28.9880   44.3950 Cl  0  0  0  0  0  0  0  0  0  0  0  0
   33.9230   27.8060   45.6810 C   0  0  0  0  0  0  0  0  0  0  0  0
   33.9330   28.1120   47.0500 C   0  0  0  0  0  0  0  0  0  0  0  0
   33.8580   27.0980   47.9660 C   0  0  0  0  0  0  0  0  0  0  0  0
   33.7720   25.7890   47.5660 C   0  0  0  0  0  0  0  0  0  0  0  0
   33.7590   25.4470   46.2200 C   0  0  0  0  0  0  0  0  0  0  0  0
   33.8350   26.4640   45.3100 C   0  0  0  0  0  0  0  0  0  0  0  0
   33.8750   27.4550   48.9960 H   0  0  0  0  0  0  0  0  0  0  0  0
   33.7170   25.0360   48.3150 H   0  0  0  0  0  0  0  0  0  0  0  0
   33.6900   24.3980   45.9650 H   0  0  0  0  0  0  0  0  0  0  0  0
   33.8190   26.0980   43.8680 C   0  0  0  0  0  3  0  0  0  0  0  0
   32.8210   25.0270   43.5620 C   0  0  0  0  0  2  0  0  0  0  0  0
   32.7740   24.7790   42.0880 C   0  0  0  0  0  2  0  0  0  0  0  0
   33.7900   25.5920   41.3220 C   0  0  0  0  0  2  0  0  0  0  0  0
   35.1700   25.5130   41.8940 C   0  0  0  0  0  2  0  0  0  0  0  0
   35.1870   25.6590   43.3990 C   0  0  0  0  0  2  0  0  0  0  0  0
  1  2  1  0  0  0  0
  2  3  2  0  0  0  0
  2  7  1  0  0  0  0
  3  4  1  0  0  0  0
  4  8  1  0  0  0  0
  4  5  2  0  0  0  0
  5  9  1  0  0  0  0
  6  5  1  0  0  0  0
  6 10  1  0  0  0  0
  7  6  2  0  0  0  0
 11 16  1  0  0  0  0
 12 13  1  0  0  0  0
 12 11  2  0  0  0  0
 13 14  2  0  0  0  0
 14 15  1  0  0  0  0
 15  3  1  0  0  0  0
 16 15  2  0  0  0  0
 17 11  1  0  0  0  0
 18 12  1  0  0  0  0
 19 13  1  0  0  0  0
 20  7  1  0  0  0  0
 21 22  1  0  0  0  0
 22 23  1  0  0  0  0
 23 20  1  0  0  0  0
 23 24  2  0  0  0  0
 24 28  1  0  0  0  0
 25 24  1  0  0  0  0
 25 29  1  0  0  0  0
 26 25  2  0  0  0  0
 27 22  2  0  0  0  0
 27 26  1  0  0  0  0
 30 26  1  0  0  0  0
 31 27  1  0  0  0  0
 32 31  1  0  0  0  0
 33 32  1  0  0  0  0
 34 35  1  0  0  0  0
 34 33  1  0  0  0  0
 35 36  1  0  0  0  0
 36 31  1  0  0  0  0
M  END
>  <minimizedAffinity>
-5.73224306

>  <minimizedRMSD>
0.340455562

$$$$
