
 OpenBabel03272510173D

 25 27  0  0  0  0  0  0  0  0999 V2000
   37.2610   29.3220   51.0200 Br  0  0  0  0  0  0  0  0  0  0  0  0
   35.9470   29.3040   49.6380 C   0  0  0  0  0  0  0  0  0  0  0  0
   35.9980   30.2270   48.6040 C   0  0  0  0  0  0  0  0  0  0  0  0
   35.0080   30.1430   47.6440 C   0  0  0  0  0  0  0  0  0  0  0  0
   33.9870   29.2140   47.6510 C   0  0  0  0  0  0  0  0  0  0  0  0
   33.9790   28.3110   48.7080 C   0  0  0  0  0  0  0  0  0  0  0  0
   34.9620   28.3700   49.6890 C   0  0  0  0  0  0  0  0  0  0  0  0
   35.0510   30.8680   46.8350 H   0  0  0  0  0  0  0  0  0  0  0  0
   33.2040   27.5570   48.7700 H   0  0  0  0  0  0  0  0  0  0  0  0
   34.9410   27.6600   50.5030 H   0  0  0  0  0  0  0  0  0  0  0  0
   37.9710   33.1640   49.4580 C   0  0  0  0  0  0  0  0  0  0  0  0
   39.0100   33.1740   48.5020 C   0  0  0  0  0  0  0  0  0  0  0  0
   39.0090   32.1440   47.5610 C   0  0  0  0  0  0  0  0  0  0  0  0
   38.0270   31.1840   47.5950 N   0  0  0  0  0  0  0  0  0  0  0  0
   37.0470   31.2260   48.5450 C   0  0  0  0  0  0  0  0  0  0  0  0
   37.0200   32.2180   49.4760 N   0  0  0  0  0  0  0  0  0  0  0  0
   37.9670   33.9570   50.1880 H   0  0  0  0  0  0  0  0  0  0  0  0
   39.7780   33.9370   48.4870 H   0  0  0  0  0  0  0  0  0  0  0  0
   39.7640   32.0720   46.7950 H   0  0  0  0  0  0  0  0  0  0  0  0
   32.9520   29.1810   46.5850 C   0  0  0  0  0  0  0  0  0  0  0  0
   32.6680   30.5880   46.1460 C   0  0  0  0  0  0  0  0  0  0  0  0
   31.4940   30.7050   45.2260 C   0  0  0  0  0  0  0  0  0  0  0  0
   30.6460   29.4630   45.1730 C   0  0  0  0  0  0  0  0  0  0  0  0
   30.4430   28.9090   46.5580 C   0  0  0  0  0  0  0  0  0  0  0  0
   31.7500   28.4280   47.0880 C   0  0  0  0  0  0  0  0  0  0  0  0
  2  7  1  0  0  0  0
  2  1  1  0  0  0  0
  3  2  2  0  0  0  0
  4  5  2  0  0  0  0
  4  3  1  0  0  0  0
  5  6  1  0  0  0  0
  6  9  1  0  0  0  0
  6  7  2  0  0  0  0
  7 10  1  0  0  0  0
  8  4  1  0  0  0  0
 11 16  1  0  0  0  0
 11 17  1  0  0  0  0
 12 11  2  0  0  0  0
 13 14  2  0  0  0  0
 13 12  1  0  0  0  0
 14 15  1  0  0  0  0
 15  3  1  0  0  0  0
 15 16  2  0  0  0  0
 18 12  1  0  0  0  0
 19 13  1  0  0  0  0
 20 25  1  0  0  0  0
 20  5  1  0  0  0  0
 21 20  1  0  0  0  0
 22 21  1  0  0  0  0
 23 22  1  0  0  0  0
 23 24  1  0  0  0  0
 24 25  1  0  0  0  0
M  END
>  <minimizedAffinity>
-6.16430759

>  <minimizedRMSD>
0.0991789103

$$$$
