
 OpenBabel03272510303D

 25 27  0  0  0  0  0  0  0  0999 V2000
   38.0960   24.9010   35.3590 C   0  0  0  0  0  0  0  0  0  0  0  0
   38.0990   24.5930   36.7270 C   0  0  0  0  0  0  0  0  0  0  0  0
   37.9640   23.2440   37.0530 C   0  0  0  0  0  0  0  0  0  0  0  0
   37.8410   22.3270   36.0540 N   0  0  0  0  0  0  0  0  0  0  0  0
   37.8440   22.6750   34.7440 C   0  0  0  0  0  0  0  0  0  0  0  0
   37.9730   23.9980   34.3840 N   0  0  0  0  0  0  0  0  0  0  0  0
   38.2000   25.3450   37.4860 H   0  0  0  0  0  0  0  0  0  0  0  0
   37.9580   22.9300   38.0840 H   0  0  0  0  0  0  0  0  0  0  0  0
   38.2860   26.3330   34.9770 C   0  0  0  0  0  0  0  0  0  0  0  0
   38.6750   27.3590   35.9130 C   0  0  0  0  0  0  0  0  0  0  0  0
   39.7500   26.7820   35.0110 C   0  0  0  0  0  0  0  0  0  0  0  0
   37.7210   26.6130   34.0530 H   0  0  0  0  0  0  0  0  0  0  0  0
   38.8810   27.1930   36.9870 H   0  0  0  0  0  0  0  0  0  0  0  0
   38.3230   28.3970   35.7270 H   0  0  0  0  0  0  0  0  0  0  0  0
   40.5130   26.1040   35.4090 H   0  0  0  0  0  0  0  0  0  0  0  0
   40.0450   27.3530   34.1120 H   0  0  0  0  0  0  0  0  0  0  0  0
   37.7370   21.7030   33.6650 C   0  0  0  0  0  0  0  0  0  0  0  0
   38.0100   20.7030   34.1060 H   0  0  0  0  0  0  0  0  0  0  0  0
   38.4650   21.8700   32.8370 H   0  0  0  0  0  0  0  0  0  0  0  0
   36.3930   21.5590   33.0300 C   0  0  0  0  0  3  0  0  0  0  0  0
   36.6280   21.5900   31.5240 C   0  0  0  0  0  2  0  0  0  0  0  0
   37.1150   20.2440   31.0160 C   0  0  0  0  0  2  0  0  0  0  0  0
   35.9260   19.3040   31.0310 C   0  0  0  0  0  2  0  0  0  0  0  0
   34.9860   19.7640   32.1080 C   0  0  0  0  0  2  0  0  0  0  0  0
   35.6910   20.2720   33.3490 C   0  0  0  0  0  2  0  0  0  0  0  0
  1  2  1  0  0  0  0
  2  3  2  0  0  0  0
  2  7  1  0  0  0  0
  3  8  1  0  0  0  0
  4  3  1  0  0  0  0
  5  4  2  0  0  0  0
  6  5  1  0  0  0  0
  6  1  2  0  0  0  0
  9 11  1  0  0  0  0
  9  1  1  0  0  0  0
  9 10  1  0  0  0  0
 10 13  1  0  0  0  0
 11 15  1  0  0  0  0
 11 10  1  0  0  0  0
 12  9  1  0  0  0  0
 14 10  1  0  0  0  0
 16 11  1  0  0  0  0
 17 18  1  0  0  0  0
 17  5  1  0  0  0  0
 19 17  1  0  0  0  0
 20 25  1  0  0  0  0
 20 17  1  0  0  0  0
 21 20  1  0  0  0  0
 22 23  1  0  0  0  0
 22 21  1  0  0  0  0
 23 24  1  0  0  0  0
 24 25  1  0  0  0  0
M  END
>  <minimizedAffinity>
-4.8923192

$$$$

 OpenBabel03272510303D

 25 27  0  0  0  0  0  0  0  0999 V2000
   37.4950   27.4210   33.8050 C   0  0  0  0  0  0  0  0  0  0  0  0
   37.8170   27.5780   32.4490 C   0  0  0  0  0  0  0  0  0  0  0  0
   37.0070   28.4490   31.7220 C   0  0  0  0  0  0  0  0  0  0  0  0
   35.9780   29.0830   32.3500 N   0  0  0  0  0  0  0  0  0  0  0  0
   35.7070   28.8980   33.6660 C   0  0  0  0  0  0  0  0  0  0  0  0
   36.4840   28.0440   34.4150 N   0  0  0  0  0  0  0  0  0  0  0  0
   38.6370   27.0610   31.9890 H   0  0  0  0  0  0  0  0  0  0  0  0
   37.1930   28.6200   30.6740 H   0  0  0  0  0  0  0  0  0  0  0  0
   38.3730   26.5300   34.6210 C   0  0  0  0  0  0  0  0  0  0  0  0
   39.7750   26.7880   34.8480 C   0  0  0  0  0  0  0  0  0  0  0  0
   38.8020   27.1550   35.9530 C   0  0  0  0  0  0  0  0  0  0  0  0
   37.9870   25.4830   34.6860 H   0  0  0  0  0  0  0  0  0  0  0  0
   40.3300   27.6620   34.4570 H   0  0  0  0  0  0  0  0  0  0  0  0
   40.4490   25.9170   34.9970 H   0  0  0  0  0  0  0  0  0  0  0  0
   38.5570   28.2010   36.1620 H   0  0  0  0  0  0  0  0  0  0  0  0
   38.6910   26.4620   36.8080 H   0  0  0  0  0  0  0  0  0  0  0  0
   34.6250   29.5870   34.3560 C   0  0  0  0  0  0  0  0  0  0  0  0
   34.4940   29.0660   35.3460 H   0  0  0  0  0  0  0  0  0  0  0  0
   33.6400   29.5020   33.8420 H   0  0  0  0  0  0  0  0  0  0  0  0
   34.8360   31.0380   34.6390 C   0  0  0  0  0  3  0  0  0  0  0  0
   33.4620   31.6090   34.9780 C   0  0  0  0  0  2  0  0  0  0  0  0
   33.0730   31.2900   36.4110 C   0  0  0  0  0  2  0  0  0  0  0  0
   33.9070   32.1820   37.3090 C   0  0  0  0  0  2  0  0  0  0  0  0
   35.1900   32.4890   36.5940 C   0  0  0  0  0  2  0  0  0  0  0  0
   35.7380   31.3180   35.8040 C   0  0  0  0  0  2  0  0  0  0  0  0
  1  6  1  0  0  0  0
  1  9  1  0  0  0  0
  2  1  2  0  0  0  0
  3  4  2  0  0  0  0
  3  2  1  0  0  0  0
  4  5  1  0  0  0  0
  5 17  1  0  0  0  0
  5  6  2  0  0  0  0
  7  2  1  0  0  0  0
  8  3  1  0  0  0  0
  9 12  1  0  0  0  0
  9 10  1  0  0  0  0
  9 11  1  0  0  0  0
 10 14  1  0  0  0  0
 10 11  1  0  0  0  0
 11 15  1  0  0  0  0
 11 16  1  0  0  0  0
 13 10  1  0  0  0  0
 17 20  1  0  0  0  0
 17 18  1  0  0  0  0
 19 17  1  0  0  0  0
 20 21  1  0  0  0  0
 20 25  1  0  0  0  0
 21 22  1  0  0  0  0
 22 23  1  0  0  0  0
 24 23  1  0  0  0  0
 25 24  1  0  0  0  0
M  END
>  <minimizedAffinity>
-4.87112188

$$$$

 OpenBabel03272510303D

 25 27  0  0  0  0  0  0  0  0999 V2000
   36.6660   26.3620   32.4750 C   0  0  0  0  0  0  0  0  0  0  0  0
   36.0820   27.6350   32.5550 C   0  0  0  0  0  0  0  0  0  0  0  0
   36.3070   28.3400   33.7360 C   0  0  0  0  0  0  0  0  0  0  0  0
   37.0590   27.7710   34.7190 N   0  0  0  0  0  0  0  0  0  0  0  0
   37.6030   26.5360   34.5940 C   0  0  0  0  0  0  0  0  0  0  0  0
   37.4010   25.8090   33.4420 N   0  0  0  0  0  0  0  0  0  0  0  0
   35.4960   28.0500   31.7580 H   0  0  0  0  0  0  0  0  0  0  0  0
   35.8910   29.3250   33.8700 H   0  0  0  0  0  0  0  0  0  0  0  0
   36.4820   25.6000   31.2020 C   0  0  0  0  0  0  0  0  0  0  0  0
   36.5280   24.1610   31.1260 C   0  0  0  0  0  0  0  0  0  0  0  0
   35.1630   24.8230   31.1450 C   0  0  0  0  0  0  0  0  0  0  0  0
   36.7180   26.2100   30.2950 H   0  0  0  0  0  0  0  0  0  0  0  0
   36.6900   23.4850   31.9860 H   0  0  0  0  0  0  0  0  0  0  0  0
   36.8850   23.6990   30.1790 H   0  0  0  0  0  0  0  0  0  0  0  0
   34.5270   24.7730   32.0340 H   0  0  0  0  0  0  0  0  0  0  0  0
   34.6290   24.9540   30.1860 H   0  0  0  0  0  0  0  0  0  0  0  0
   38.4290   25.9250   35.6260 C   0  0  0  0  0  0  0  0  0  0  0  0
   38.6120   26.7210   36.4020 H   0  0  0  0  0  0  0  0  0  0  0  0
   39.4400   25.6210   35.2690 H   0  0  0  0  0  0  0  0  0  0  0  0
   37.8490   24.7420   36.3270 C   0  0  0  0  0  3  0  0  0  0  0  0
   38.5720   23.5200   35.7700 C   0  0  0  0  0  2  0  0  0  0  0  0
   39.9370   23.3490   36.4120 C   0  0  0  0  0  2  0  0  0  0  0  0
   39.7070   22.8410   37.8220 C   0  0  0  0  0  2  0  0  0  0  0  0
   38.3660   23.3360   38.2790 C   0  0  0  0  0  2  0  0  0  0  0  0
   38.0490   24.7430   37.8140 C   0  0  0  0  0  2  0  0  0  0  0  0
  1  2  2  0  0  0  0
  1  6  1  0  0  0  0
  2  3  1  0  0  0  0
  3  8  1  0  0  0  0
  3  4  2  0  0  0  0
  5  4  1  0  0  0  0
  5 17  1  0  0  0  0
  6  5  2  0  0  0  0
  7  2  1  0  0  0  0
  9  1  1  0  0  0  0
 10 11  1  0  0  0  0
 10  9  1  0  0  0  0
 10 13  1  0  0  0  0
 11  9  1  0  0  0  0
 11 15  1  0  0  0  0
 12  9  1  0  0  0  0
 14 10  1  0  0  0  0
 16 11  1  0  0  0  0
 17 20  1  0  0  0  0
 17 18  1  0  0  0  0
 19 17  1  0  0  0  0
 20 25  1  0  0  0  0
 21 20  1  0  0  0  0
 21 22  1  0  0  0  0
 22 23  1  0  0  0  0
 23 24  1  0  0  0  0
 25 24  1  0  0  0  0
M  END
>  <minimizedAffinity>
-4.8462882

$$$$

 OpenBabel03272510303D

 25 27  0  0  0  0  0  0  0  0999 V2000
   36.6510   26.0200   32.3550 C   0  0  0  0  0  0  0  0  0  0  0  0
   35.6420   26.3960   31.4560 C   0  0  0  0  0  0  0  0  0  0  0  0
   34.9980   25.3570   30.7870 C   0  0  0  0  0  0  0  0  0  0  0  0
   35.3730   24.0710   31.0350 N   0  0  0  0  0  0  0  0  0  0  0  0
   36.3560   23.7580   31.9140 C   0  0  0  0  0  0  0  0  0  0  0  0
   37.0150   24.7580   32.5930 N   0  0  0  0  0  0  0  0  0  0  0  0
   35.3740   27.4220   31.2880 H   0  0  0  0  0  0  0  0  0  0  0  0
   34.2120   25.5680   30.0800 H   0  0  0  0  0  0  0  0  0  0  0  0
   37.3280   27.1090   33.1230 C   0  0  0  0  0  0  0  0  0  0  0  0
   36.6190   28.2050   33.7380 C   0  0  0  0  0  0  0  0  0  0  0  0
   37.0490   27.0530   34.6290 C   0  0  0  0  0  0  0  0  0  0  0  0
   38.4020   27.2350   32.8400 H   0  0  0  0  0  0  0  0  0  0  0  0
   35.5220   28.3430   33.7140 H   0  0  0  0  0  0  0  0  0  0  0  0
   37.1460   29.1790   33.8340 H   0  0  0  0  0  0  0  0  0  0  0  0
   36.3150   26.3390   35.0160 H   0  0  0  0  0  0  0  0  0  0  0  0
   37.9620   27.1740   35.2390 H   0  0  0  0  0  0  0  0  0  0  0  0
   36.7500   22.3870   32.2070 C   0  0  0  0  0  0  0  0  0  0  0  0
   37.1510   22.3870   33.2600 H   0  0  0  0  0  0  0  0  0  0  0  0
   37.5870   22.0160   31.5710 H   0  0  0  0  0  0  0  0  0  0  0  0
   35.6720   21.3570   32.1390 C   0  0  0  0  0  3  0  0  0  0  0  0
   35.9660   20.5130   30.9030 C   0  0  0  0  0  2  0  0  0  0  0  0
   37.0540   19.4910   31.1820 C   0  0  0  0  0  2  0  0  0  0  0  0
   36.4380   18.4070   32.0430 C   0  0  0  0  0  2  0  0  0  0  0  0
   35.3230   19.0230   32.8370 C   0  0  0  0  0  2  0  0  0  0  0  0
   35.6270   20.4280   33.3170 C   0  0  0  0  0  2  0  0  0  0  0  0
  1  6  1  0  0  0  0
  1  9  1  0  0  0  0
  2  1  2  0  0  0  0
  3  4  2  0  0  0  0
  3  2  1  0  0  0  0
  4  5  1  0  0  0  0
  5 17  1  0  0  0  0
  5  6  2  0  0  0  0
  7  2  1  0  0  0  0
  8  3  1  0  0  0  0
  9 10  1  0  0  0  0
  9 11  1  0  0  0  0
 10 14  1  0  0  0  0
 10 11  1  0  0  0  0
 11 15  1  0  0  0  0
 11 16  1  0  0  0  0
 12  9  1  0  0  0  0
 13 10  1  0  0  0  0
 17 18  1  0  0  0  0
 19 17  1  0  0  0  0
 20 17  1  0  0  0  0
 20 25  1  0  0  0  0
 21 22  1  0  0  0  0
 21 20  1  0  0  0  0
 22 23  1  0  0  0  0
 23 24  1  0  0  0  0
 24 25  1  0  0  0  0
M  END
>  <minimizedAffinity>
-4.75862122

$$$$

 OpenBabel03272510303D

 25 27  0  0  0  0  0  0  0  0999 V2000
   36.2810   22.9900   31.7860 C   0  0  0  0  0  0  0  0  0  0  0  0
   35.7930   24.1750   31.2160 C   0  0  0  0  0  0  0  0  0  0  0  0
   36.2780   25.3630   31.7610 C   0  0  0  0  0  0  0  0  0  0  0  0
   37.1720   25.3100   32.7870 N   0  0  0  0  0  0  0  0  0  0  0  0
   37.6140   24.1380   33.3040 C   0  0  0  0  0  0  0  0  0  0  0  0
   37.1570   22.9440   32.7920 N   0  0  0  0  0  0  0  0  0  0  0  0
   35.0890   24.1760   30.4070 H   0  0  0  0  0  0  0  0  0  0  0  0
   35.9480   26.3140   31.3750 H   0  0  0  0  0  0  0  0  0  0  0  0
   35.8170   21.7000   31.1920 C   0  0  0  0  0  0  0  0  0  0  0  0
   36.2330   20.4070   31.6790 C   0  0  0  0  0  0  0  0  0  0  0  0
   34.8690   20.9170   32.1070 C   0  0  0  0  0  0  0  0  0  0  0  0
   35.4780   21.8080   30.1320 H   0  0  0  0  0  0  0  0  0  0  0  0
   36.9160   20.2410   32.5330 H   0  0  0  0  0  0  0  0  0  0  0  0
   36.2850   19.5670   30.9530 H   0  0  0  0  0  0  0  0  0  0  0  0
   34.6950   21.2660   33.1300 H   0  0  0  0  0  0  0  0  0  0  0  0
   33.9760   20.5380   31.5770 H   0  0  0  0  0  0  0  0  0  0  0  0
   38.5880   24.0660   34.3840 C   0  0  0  0  0  0  0  0  0  0  0  0
   38.8670   25.1280   34.6350 H   0  0  0  0  0  0  0  0  0  0  0  0
   39.5430   23.5680   34.0940 H   0  0  0  0  0  0  0  0  0  0  0  0
   38.1320   23.4130   35.6470 C   0  0  0  0  0  3  0  0  0  0  0  0
   38.9500   22.1320   35.7840 C   0  0  0  0  0  2  0  0  0  0  0  0
   40.3390   22.4220   36.3250 C   0  0  0  0  0  2  0  0  0  0  0  0
   40.1860   22.7410   37.7990 C   0  0  0  0  0  2  0  0  0  0  0  0
   38.8170   23.3170   38.0090 C   0  0  0  0  0  2  0  0  0  0  0  0
   38.3650   24.2280   36.8850 C   0  0  0  0  0  2  0  0  0  0  0  0
  1  6  1  0  0  0  0
  2  3  1  0  0  0  0
  2  1  2  0  0  0  0
  3  4  2  0  0  0  0
  4  5  1  0  0  0  0
  5 17  1  0  0  0  0
  6  5  2  0  0  0  0
  7  2  1  0  0  0  0
  8  3  1  0  0  0  0
  9 10  1  0  0  0  0
  9  1  1  0  0  0  0
  9 11  1  0  0  0  0
 10 11  1  0  0  0  0
 10 13  1  0  0  0  0
 11 15  1  0  0  0  0
 12  9  1  0  0  0  0
 14 10  1  0  0  0  0
 16 11  1  0  0  0  0
 17 18  1  0  0  0  0
 17 20  1  0  0  0  0
 19 17  1  0  0  0  0
 20 21  1  0  0  0  0
 20 25  1  0  0  0  0
 21 22  1  0  0  0  0
 22 23  1  0  0  0  0
 23 24  1  0  0  0  0
 25 24  1  0  0  0  0
M  END
>  <minimizedAffinity>
-4.7279458

$$$$

 OpenBabel03272510303D

 25 27  0  0  0  0  0  0  0  0999 V2000
   36.1560   23.3170   31.4970 C   0  0  0  0  0  0  0  0  0  0  0  0
   35.3890   24.4480   31.1770 C   0  0  0  0  0  0  0  0  0  0  0  0
   35.9660   25.6830   31.4660 C   0  0  0  0  0  0  0  0  0  0  0  0
   37.2070   25.7240   32.0270 N   0  0  0  0  0  0  0  0  0  0  0  0
   37.9090   24.6020   32.3180 C   0  0  0  0  0  0  0  0  0  0  0  0
   37.3710   23.3640   32.0470 N   0  0  0  0  0  0  0  0  0  0  0  0
   34.4140   24.3750   30.7340 H   0  0  0  0  0  0  0  0  0  0  0  0
   35.4370   26.5960   31.2490 H   0  0  0  0  0  0  0  0  0  0  0  0
   35.5840   21.9800   31.1550 C   0  0  0  0  0  0  0  0  0  0  0  0
   36.2090   20.7330   31.5220 C   0  0  0  0  0  0  0  0  0  0  0  0
   35.0500   21.2190   32.3730 C   0  0  0  0  0  0  0  0  0  0  0  0
   34.8970   22.0150   30.2740 H   0  0  0  0  0  0  0  0  0  0  0  0
   37.1520   20.6400   32.0940 H   0  0  0  0  0  0  0  0  0  0  0  0
   36.0530   19.8540   30.8580 H   0  0  0  0  0  0  0  0  0  0  0  0
   35.2200   21.6200   33.3770 H   0  0  0  0  0  0  0  0  0  0  0  0
   34.0510   20.7790   32.2000 H   0  0  0  0  0  0  0  0  0  0  0  0
   39.2460   24.6310   32.8950 C   0  0  0  0  0  0  0  0  0  0  0  0
   39.7210   25.5940   32.5540 H   0  0  0  0  0  0  0  0  0  0  0  0
   39.9140   23.8210   32.5200 H   0  0  0  0  0  0  0  0  0  0  0  0
   39.3270   24.5960   34.3850 C   0  0  0  0  0  3  0  0  0  0  0  0
   40.2390   25.7500   34.7900 C   0  0  0  0  0  2  0  0  0  0  0  0
   39.4940   27.0730   34.7680 C   0  0  0  0  0  2  0  0  0  0  0  0
   38.5770   27.0890   35.9740 C   0  0  0  0  0  2  0  0  0  0  0  0
   38.2220   25.6690   36.3040 C   0  0  0  0  0  2  0  0  0  0  0  0
   38.0140   24.7970   35.0830 C   0  0  0  0  0  2  0  0  0  0  0  0
  1  6  1  0  0  0  0
  2  3  1  0  0  0  0
  2  1  2  0  0  0  0
  3  4  2  0  0  0  0
  4  5  1  0  0  0  0
  5 17  1  0  0  0  0
  6  5  2  0  0  0  0
  7  2  1  0  0  0  0
  8  3  1  0  0  0  0
  9  1  1  0  0  0  0
  9 10  1  0  0  0  0
  9 11  1  0  0  0  0
 10 13  1  0  0  0  0
 10 11  1  0  0  0  0
 11 15  1  0  0  0  0
 12  9  1  0  0  0  0
 14 10  1  0  0  0  0
 16 11  1  0  0  0  0
 17 20  1  0  0  0  0
 18 17  1  0  0  0  0
 19 17  1  0  0  0  0
 20 21  1  0  0  0  0
 20 25  1  0  0  0  0
 22 21  1  0  0  0  0
 22 23  1  0  0  0  0
 23 24  1  0  0  0  0
 25 24  1  0  0  0  0
M  END
>  <minimizedAffinity>
-4.6138134

$$$$

 OpenBabel03272510303D

 25 27  0  0  0  0  0  0  0  0999 V2000
   37.2480   26.2890   33.5900 C   0  0  0  0  0  0  0  0  0  0  0  0
   36.7970   27.1770   32.6020 C   0  0  0  0  0  0  0  0  0  0  0  0
   36.4750   26.6120   31.3690 C   0  0  0  0  0  0  0  0  0  0  0  0
   36.6120   25.2680   31.1960 N   0  0  0  0  0  0  0  0  0  0  0  0
   37.0520   24.4500   32.1830 C   0  0  0  0  0  0  0  0  0  0  0  0
   37.3810   24.9720   33.4140 N   0  0  0  0  0  0  0  0  0  0  0  0
   36.7020   28.2310   32.7770 H   0  0  0  0  0  0  0  0  0  0  0  0
   36.1210   27.2320   30.5610 H   0  0  0  0  0  0  0  0  0  0  0  0
   37.5560   26.8580   34.9360 C   0  0  0  0  0  0  0  0  0  0  0  0
   38.2510   26.1250   35.9670 C   0  0  0  0  0  0  0  0  0  0  0  0
   39.0490   27.1280   35.1540 C   0  0  0  0  0  0  0  0  0  0  0  0
   36.8720   27.6960   35.2200 H   0  0  0  0  0  0  0  0  0  0  0  0
   38.6290   25.0910   35.8650 H   0  0  0  0  0  0  0  0  0  0  0  0
   38.0150   26.3640   37.0270 H   0  0  0  0  0  0  0  0  0  0  0  0
   39.7730   26.7940   34.4050 H   0  0  0  0  0  0  0  0  0  0  0  0
   39.2450   28.1230   35.5940 H   0  0  0  0  0  0  0  0  0  0  0  0
   37.1810   23.0080   32.0200 C   0  0  0  0  0  0  0  0  0  0  0  0
   38.0250   22.6840   32.6910 H   0  0  0  0  0  0  0  0  0  0  0  0
   37.4830   22.6990   30.9920 H   0  0  0  0  0  0  0  0  0  0  0  0
   35.9850   22.1910   32.3780 C   0  0  0  0  0  3  0  0  0  0  0  0
   35.5350   21.5060   31.0910 C   0  0  0  0  0  2  0  0  0  0  0  0
   36.3920   20.2900   30.7870 C   0  0  0  0  0  2  0  0  0  0  0  0
   35.9870   19.2040   31.7630 C   0  0  0  0  0  2  0  0  0  0  0  0
   35.4780   19.8670   33.0100 C   0  0  0  0  0  2  0  0  0  0  0  0
   36.2490   21.1140   33.3900 C   0  0  0  0  0  2  0  0  0  0  0  0
  1  9  1  0  0  0  0
  2  7  1  0  0  0  0
  2  1  2  0  0  0  0
  3  2  1  0  0  0  0
  4  3  2  0  0  0  0
  4  5  1  0  0  0  0
  5  6  2  0  0  0  0
  6  1  1  0  0  0  0
  8  3  1  0  0  0  0
  9 11  1  0  0  0  0
  9 12  1  0  0  0  0
  9 10  1  0  0  0  0
 10 14  1  0  0  0  0
 11 16  1  0  0  0  0
 11 10  1  0  0  0  0
 13 10  1  0  0  0  0
 15 11  1  0  0  0  0
 17  5  1  0  0  0  0
 17 20  1  0  0  0  0
 17 18  1  0  0  0  0
 19 17  1  0  0  0  0
 20 25  1  0  0  0  0
 21 20  1  0  0  0  0
 22 21  1  0  0  0  0
 22 23  1  0  0  0  0
 23 24  1  0  0  0  0
 24 25  1  0  0  0  0
M  END
>  <minimizedAffinity>
-4.56325579

$$$$

 OpenBabel03272510303D

 25 27  0  0  0  0  0  0  0  0999 V2000
   36.3700   25.6340   31.8860 C   0  0  0  0  0  0  0  0  0  0  0  0
   35.7910   24.5760   31.1690 C   0  0  0  0  0  0  0  0  0  0  0  0
   36.1980   23.2930   31.5330 C   0  0  0  0  0  0  0  0  0  0  0  0
   37.1070   23.1410   32.5350 N   0  0  0  0  0  0  0  0  0  0  0  0
   37.6380   24.1970   33.1990 C   0  0  0  0  0  0  0  0  0  0  0  0
   37.2620   25.4780   32.8670 N   0  0  0  0  0  0  0  0  0  0  0  0
   35.0760   24.7370   30.3850 H   0  0  0  0  0  0  0  0  0  0  0  0
   35.7960   22.4300   31.0260 H   0  0  0  0  0  0  0  0  0  0  0  0
   35.9200   27.0190   31.5520 C   0  0  0  0  0  0  0  0  0  0  0  0
   36.5820   28.2060   32.0330 C   0  0  0  0  0  0  0  0  0  0  0  0
   36.8780   27.7590   30.6130 C   0  0  0  0  0  0  0  0  0  0  0  0
   34.8400   27.0660   31.2670 H   0  0  0  0  0  0  0  0  0  0  0  0
   37.4820   28.2140   32.6770 H   0  0  0  0  0  0  0  0  0  0  0  0
   35.9690   29.1210   32.1880 H   0  0  0  0  0  0  0  0  0  0  0  0
   37.8400   27.3040   30.3570 H   0  0  0  0  0  0  0  0  0  0  0  0
   36.3570   28.2680   29.7820 H   0  0  0  0  0  0  0  0  0  0  0  0
   38.5930   24.0480   34.2890 C   0  0  0  0  0  0  0  0  0  0  0  0
   38.9880   25.0790   34.5120 H   0  0  0  0  0  0  0  0  0  0  0  0
   39.4880   23.4390   34.0210 H   0  0  0  0  0  0  0  0  0  0  0  0
   38.0610   23.4870   35.5660 C   0  0  0  0  0  3  0  0  0  0  0  0
   38.7650   22.1490   35.7700 C   0  0  0  0  0  2  0  0  0  0  0  0
   40.1640   22.3430   36.3280 C   0  0  0  0  0  2  0  0  0  0  0  0
   40.0120   22.7330   37.7850 C   0  0  0  0  0  2  0  0  0  0  0  0
   38.6930   23.4300   37.9440 C   0  0  0  0  0  2  0  0  0  0  0  0
   38.3400   24.3290   36.7760 C   0  0  0  0  0  2  0  0  0  0  0  0
  1  6  1  0  0  0  0
  2  3  1  0  0  0  0
  2  1  2  0  0  0  0
  3  4  2  0  0  0  0
  4  5  1  0  0  0  0
  5 17  1  0  0  0  0
  6  5  2  0  0  0  0
  7  2  1  0  0  0  0
  8  3  1  0  0  0  0
  9  1  1  0  0  0  0
  9 10  1  0  0  0  0
 10 14  1  0  0  0  0
 10 13  1  0  0  0  0
 11  9  1  0  0  0  0
 11 10  1  0  0  0  0
 12  9  1  0  0  0  0
 15 11  1  0  0  0  0
 16 11  1  0  0  0  0
 17 18  1  0  0  0  0
 17 20  1  0  0  0  0
 19 17  1  0  0  0  0
 20 21  1  0  0  0  0
 20 25  1  0  0  0  0
 21 22  1  0  0  0  0
 22 23  1  0  0  0  0
 23 24  1  0  0  0  0
 25 24  1  0  0  0  0
M  END
>  <minimizedAffinity>
-4.54049397

$$$$

 OpenBabel03272510303D

 25 27  0  0  0  0  0  0  0  0999 V2000
   38.5910   24.0270   36.1850 C   0  0  0  0  0  0  0  0  0  0  0  0
   39.9500   23.7600   35.9610 C   0  0  0  0  0  0  0  0  0  0  0  0
   40.4880   24.2670   34.7790 C   0  0  0  0  0  0  0  0  0  0  0  0
   39.6890   24.9720   33.9320 N   0  0  0  0  0  0  0  0  0  0  0  0
   38.3790   25.2050   34.1940 C   0  0  0  0  0  0  0  0  0  0  0  0
   37.8130   24.7190   35.3500 N   0  0  0  0  0  0  0  0  0  0  0  0
   40.5480   23.2000   36.6540 H   0  0  0  0  0  0  0  0  0  0  0  0
   41.5260   24.1010   34.5380 H   0  0  0  0  0  0  0  0  0  0  0  0
   37.9970   23.5380   37.4660 C   0  0  0  0  0  0  0  0  0  0  0  0
   38.7650   23.3310   38.6690 C   0  0  0  0  0  0  0  0  0  0  0  0
   37.9530   24.6080   38.5620 C   0  0  0  0  0  0  0  0  0  0  0  0
   37.0460   22.9710   37.3130 H   0  0  0  0  0  0  0  0  0  0  0  0
   39.8510   23.5190   38.7690 H   0  0  0  0  0  0  0  0  0  0  0  0
   38.4280   22.5410   39.3750 H   0  0  0  0  0  0  0  0  0  0  0  0
   38.4420   25.5730   38.3950 H   0  0  0  0  0  0  0  0  0  0  0  0
   36.9760   24.6540   39.0780 H   0  0  0  0  0  0  0  0  0  0  0  0
   37.5190   25.9780   33.3080 C   0  0  0  0  0  0  0  0  0  0  0  0
   36.4670   25.6190   33.4900 H   0  0  0  0  0  0  0  0  0  0  0  0
   37.7120   25.7970   32.2250 H   0  0  0  0  0  0  0  0  0  0  0  0
   37.5250   27.4580   33.5030 C   0  0  0  0  0  3  0  0  0  0  0  0
   37.1670   28.0660   32.1510 C   0  0  0  0  0  2  0  0  0  0  0  0
   35.6690   28.0110   31.9030 C   0  0  0  0  0  2  0  0  0  0  0  0
   35.0310   29.0620   32.7910 C   0  0  0  0  0  2  0  0  0  0  0  0
   35.9090   29.2470   33.9940 C   0  0  0  0  0  2  0  0  0  0  0  0
   36.5220   27.9570   34.5000 C   0  0  0  0  0  2  0  0  0  0  0  0
  1  9  1  0  0  0  0
  2  1  1  0  0  0  0
  2  7  1  0  0  0  0
  3  2  2  0  0  0  0
  4  5  2  0  0  0  0
  4  3  1  0  0  0  0
  5  6  1  0  0  0  0
  6  1  2  0  0  0  0
  8  3  1  0  0  0  0
  9 11  1  0  0  0  0
  9 10  1  0  0  0  0
 10 13  1  0  0  0  0
 10 14  1  0  0  0  0
 11 10  1  0  0  0  0
 11 16  1  0  0  0  0
 12  9  1  0  0  0  0
 15 11  1  0  0  0  0
 17 18  1  0  0  0  0
 17 20  1  0  0  0  0
 17  5  1  0  0  0  0
 19 17  1  0  0  0  0
 20 25  1  0  0  0  0
 21 20  1  0  0  0  0
 22 21  1  0  0  0  0
 22 23  1  0  0  0  0
 23 24  1  0  0  0  0
 24 25  1  0  0  0  0
M  END
>  <minimizedAffinity>
-4.53806782

$$$$
