
 OpenBabel03272510333D

 25 27  0  0  0  0  0  0  0  0999 V2000
   35.8370   30.0920   47.2570 C   0  0  0  0  0  0  0  0  0  0  0  0
   35.2860   30.2640   45.9970 C   0  0  0  0  0  0  0  0  0  0  0  0
   34.2480   29.4330   45.5790 C   0  0  0  0  0  0  0  0  0  0  0  0
   33.7960   28.4590   46.4330 C   0  0  0  0  0  0  0  0  0  0  0  0
   34.3500   28.2850   47.7030 C   0  0  0  0  0  0  0  0  0  0  0  0
   35.3800   29.1100   48.1160 C   0  0  0  0  0  0  0  0  0  0  0  0
   35.6050   31.0130   45.2880 H   0  0  0  0  0  0  0  0  0  0  0  0
   33.8110   29.5600   44.5950 H   0  0  0  0  0  0  0  0  0  0  0  0
   32.9880   27.8420   46.0570 H   0  0  0  0  0  0  0  0  0  0  0  0
   33.9060   27.4990   48.2560 H   0  0  0  0  0  0  0  0  0  0  0  0
   37.6880   32.6710   49.0500 C   0  0  0  0  0  0  0  0  0  0  0  0
   38.9030   32.7670   48.3780 C   0  0  0  0  0  0  0  0  0  0  0  0
   39.0830   31.9140   47.2760 C   0  0  0  0  0  0  0  0  0  0  0  0
   38.0920   31.0580   46.9260 N   0  0  0  0  0  0  0  0  0  0  0  0
   36.9190   30.9970   47.6100 C   0  0  0  0  0  0  0  0  0  0  0  0
   36.7540   31.8130   48.6590 N   0  0  0  0  0  0  0  0  0  0  0  0
   37.5980   33.3530   49.8940 H   0  0  0  0  0  0  0  0  0  0  0  0
   39.7410   33.3980   48.5680 H   0  0  0  0  0  0  0  0  0  0  0  0
   39.9590   31.8520   46.6430 H   0  0  0  0  0  0  0  0  0  0  0  0
   35.9420   28.9150   49.4650 C   0  0  0  0  0  3  0  0  0  0  0  0
   37.3970   29.2200   49.5640 C   0  0  0  0  0  2  0  0  0  0  0  0
   37.8370   28.7950   50.9700 C   0  0  0  0  0  2  0  0  0  0  0  0
   37.1870   29.7990   51.9000 C   0  0  0  0  0  2  0  0  0  0  0  0
   35.7140   29.6070   51.8660 C   0  0  0  0  0  2  0  0  0  0  0  0
   35.1040   29.6280   50.4900 C   0  0  0  0  0  2  0  0  0  0  0  0
  1 15  1  0  0  0  0
  1  6  1  0  0  0  0
  2  1  2  0  0  0  0
  3  2  1  0  0  0  0
  3  4  2  0  0  0  0
  4  5  1  0  0  0  0
  5  6  2  0  0  0  0
  5 10  1  0  0  0  0
  6 20  1  0  0  0  0
  7  2  1  0  0  0  0
  8  3  1  0  0  0  0
  9  4  1  0  0  0  0
 11 17  1  0  0  0  0
 12 18  1  0  0  0  0
 12 11  2  0  0  0  0
 13 12  1  0  0  0  0
 14 13  2  0  0  0  0
 14 15  1  0  0  0  0
 15 16  2  0  0  0  0
 16 11  1  0  0  0  0
 19 13  1  0  0  0  0
 20 21  1  0  0  0  0
 20 25  1  0  0  0  0
 21 22  1  0  0  0  0
 22 23  1  0  0  0  0
 24 23  1  0  0  0  0
 25 24  1  0  0  0  0
M  END
>  <minimizedAffinity>
-4.86843443

>  <minimizedRMSD>
1.57034147

$$$$
