
 OpenBabel03272504483D

 24 26  0  0  0  0  0  0  0  0999 V2000
   34.2010   28.1120   49.1820 C   0  0  0  0  0  0  0  0  0  0  0  0
   34.8930   29.2180   48.6580 C   0  0  0  0  0  0  0  0  0  0  0  0
   34.3510   29.8070   47.5250 C   0  0  0  0  0  0  0  0  0  0  0  0
   33.2070   29.2980   46.9930 N   0  0  0  0  0  0  0  0  0  0  0  0
   32.5740   28.2380   47.5250 C   0  0  0  0  0  0  0  0  0  0  0  0
   33.0730   27.6390   48.6280 N   0  0  0  0  0  0  0  0  0  0  0  0
   34.5740   27.6000   50.0760 H   0  0  0  0  0  0  0  0  0  0  0  0
   34.8640   30.6560   47.1040 H   0  0  0  0  0  0  0  0  0  0  0  0
   31.3550   27.7310   46.9200 C   0  0  0  0  0  0  0  0  0  0  0  0
   30.9340   26.4330   47.1800 C   0  0  0  0  0  0  0  0  0  0  0  0
   29.7800   25.9280   46.6170 C   0  0  0  0  0  0  0  0  0  0  0  0
   29.0820   26.7850   45.7940 C   0  0  0  0  0  0  0  0  0  0  0  0
   29.4770   28.0870   45.5150 C   0  0  0  0  0  0  0  0  0  0  0  0
   30.6290   28.5120   46.1100 N   0  0  0  0  0  0  0  0  0  0  0  0
   31.5450   25.8290   47.8390 H   0  0  0  0  0  0  0  0  0  0  0  0
   29.4590   24.9280   46.8190 H   0  0  0  0  0  0  0  0  0  0  0  0
   28.1660   26.4380   45.3250 H   0  0  0  0  0  0  0  0  0  0  0  0
   28.9090   28.7140   44.8740 H   0  0  0  0  0  0  0  0  0  0  0  0
   36.1250   29.6700   49.3320 C   0  0  0  0  0  0  0  0  0  0  0  0
   36.3890   31.1160   48.9920 C   0  0  0  0  0  0  0  0  0  0  0  0
   37.4410   31.7280   49.8860 C   0  0  0  0  0  0  0  0  0  0  0  0
   38.1770   30.6410   50.6220 C   0  0  0  0  0  0  0  0  0  0  0  0
   37.2330   29.9110   51.5430 C   0  0  0  0  0  0  0  0  0  0  0  0
   35.9780   29.4580   50.8210 C   0  0  0  0  0  0  0  0  0  0  0  0
  1  7  1  0  0  0  0
  2  1  1  0  0  0  0
  2 19  1  0  0  0  0
  3  2  2  0  0  0  0
  4  3  1  0  0  0  0
  4  5  2  0  0  0  0
  5  6  1  0  0  0  0
  6  1  2  0  0  0  0
  8  3  1  0  0  0  0
  9 10  1  0  0  0  0
  9  5  1  0  0  0  0
 10 15  1  0  0  0  0
 11 16  1  0  0  0  0
 11 10  2  0  0  0  0
 12 11  1  0  0  0  0
 13 12  2  0  0  0  0
 13 14  1  0  0  0  0
 14  9  2  0  0  0  0
 17 12  1  0  0  0  0
 18 13  1  0  0  0  0
 19 24  1  0  0  0  0
 20 19  1  0  0  0  0
 20 21  1  0  0  0  0
 21 22  1  0  0  0  0
 22 23  1  0  0  0  0
 24 23  1  0  0  0  0
M  END
>  <minimizedAffinity>
-5.53558636

>  <minimizedRMSD>
5.92276239

$$$$
