
 OpenBabel03272510073D

 27 29  0  0  0  0  0  0  0  0999 V2000
   36.7730   30.8860   47.3510 C   0  0  0  0  0  0  0  0  0  0  0  0
   37.0530   30.9650   45.9750 C   0  0  0  0  0  0  0  0  0  0  0  0
   36.1930   30.2970   45.0760 C   0  0  0  0  0  0  0  0  0  0  0  0
   35.1420   29.6140   45.5940 N   0  0  0  0  0  0  0  0  0  0  0  0
   34.9020   29.5570   46.9110 C   0  0  0  0  0  0  0  0  0  0  0  0
   35.7050   30.1850   47.8010 N   0  0  0  0  0  0  0  0  0  0  0  0
   33.7660   28.8110   47.3790 N   0  0  0  0  0  0  0  0  0  0  0  0
   32.3960   29.1100   46.9950 C   0  0  0  0  0  0  0  0  0  0  0  0
   31.6010   27.9390   47.4520 C   0  0  0  0  0  0  0  0  0  0  0  0
   32.5960   26.9010   47.9440 C   0  0  0  0  0  0  0  0  0  0  0  0
   33.8230   27.6690   48.2920 C   0  0  0  0  0  0  0  0  0  0  0  0
   37.4120   31.3850   48.0620 H   0  0  0  0  0  0  0  0  0  0  0  0
   36.4000   30.3530   44.0160 H   0  0  0  0  0  0  0  0  0  0  0  0
   32.3790   29.1340   45.8710 H   0  0  0  0  0  0  0  0  0  0  0  0
   32.0610   30.0760   47.4310 H   0  0  0  0  0  0  0  0  0  0  0  0
   30.9800   27.5250   46.6040 H   0  0  0  0  0  0  0  0  0  0  0  0
   30.9230   28.2730   48.2560 H   0  0  0  0  0  0  0  0  0  0  0  0
   32.7730   26.0830   47.2420 H   0  0  0  0  0  0  0  0  0  0  0  0
   32.1350   26.4480   48.8690 H   0  0  0  0  0  0  0  0  0  0  0  0
   33.8710   28.0100   49.3510 H   0  0  0  0  0  0  0  0  0  0  0  0
   34.7130   27.0740   47.9850 H   0  0  0  0  0  0  0  0  0  0  0  0
   38.2300   31.7400   45.5210 C   0  0  0  0  0  0  0  0  0  0  0  0
   39.0100   32.2150   46.7120 C   0  0  0  0  0  0  0  0  0  0  0  0
   40.0290   33.2160   46.2150 C   0  0  0  0  0  0  0  0  0  0  0  0
   40.9660   32.5720   45.2540 C   0  0  0  0  0  0  0  0  0  0  0  0
   40.5870   31.2190   44.7700 C   0  0  0  0  0  0  0  0  0  0  0  0
   39.1350   30.9490   44.6130 C   0  0  0  0  0  0  0  0  0  0  0  0
  1  6  1  0  0  0  0
  1 12  1  0  0  0  0
  2  1  2  0  0  0  0
  3  4  2  0  0  0  0
  3  2  1  0  0  0  0
  4  5  1  0  0  0  0
  5  7  1  0  0  0  0
  5  6  2  0  0  0  0
  7 11  1  0  0  0  0
  8  7  1  0  0  0  0
  8 15  1  0  0  0  0
  8  9  1  0  0  0  0
  9 10  1  0  0  0  0
  9 17  1  0  0  0  0
 10 11  1  0  0  0  0
 10 19  1  0  0  0  0
 11 20  1  0  0  0  0
 13  3  1  0  0  0  0
 14  8  1  0  0  0  0
 16  9  1  0  0  0  0
 18 10  1  0  0  0  0
 21 11  1  0  0  0  0
 22  2  1  0  0  0  0
 22 23  1  0  0  0  0
 24 23  1  0  0  0  0
 25 24  1  0  0  0  0
 26 25  1  0  0  0  0
 27 26  1  0  0  0  0
 27 22  1  0  0  0  0
M  END
>  <minimizedAffinity>
-4.73573208

>  <minimizedRMSD>
3.60118032

$$$$
