REMARK  Name = 
REMARK  2 active torsions:
REMARK  status: ('A' for Active; 'I' for Inactive)
REMARK    1  A    between atoms: C_2  and  N_7
REMARK    2  A    between atoms: C_5  and  C_12
REMARK                            x       y       z     vdW  Elec       q    Type
REMARK                         _______ _______ _______ _____ _____    ______ ____
ROOT
ATOM      1  C   UNL     1      36.630  29.761  51.274  0.00  0.00    +0.000 A 
ATOM      2  C   UNL     1      37.372  30.112  50.123  0.00  0.00    +0.000 A 
ATOM      3  C   UNL     1      36.798  29.791  48.879  0.00  0.00    +0.000 A 
ATOM      4  N   UNL     1      35.593  29.177  48.851  0.00  0.00    +0.000 NA
ATOM      5  C   UNL     1      34.921  28.861  49.967  0.00  0.00    +0.000 A 
ATOM      6  N   UNL     1      35.433  29.150  51.191  0.00  0.00    +0.000 NA
ATOM      7  H   UNL     1      37.017  29.981  52.258  0.00  0.00    +0.000 HD
ATOM      8  H   UNL     1      37.374  30.064  48.009  0.00  0.00    +0.000 HD
ENDROOT
BRANCH   5   9
ATOM      9  C   UNL     1      33.629  28.200  49.797  0.00  0.00    +0.000 C 
ATOM     10  C   UNL     1      33.599  27.103  48.791  0.00  0.00    +0.000 C 
ATOM     11  C   UNL     1      32.783  25.951  49.350  0.00  0.00    +0.000 C 
ATOM     12  C   UNL     1      31.462  26.421  49.909  0.00  0.00    +0.000 C 
ATOM     13  C   UNL     1      31.599  27.537  50.915  0.00  0.00    +0.000 C 
ATOM     14  C   UNL     1      33.091  27.715  51.141  0.00  0.00    +0.000 C 
ENDBRANCH   5   9
BRANCH   2  15
ATOM     15  N   UNL     1      38.639  30.760  50.260  0.00  0.00    +0.000 N 
ATOM     16  H   UNL     1      39.347  30.554  49.522  0.00  0.00    +0.000 HD
ATOM     17  H   UNL     1      38.781  31.392  51.079  0.00  0.00    +0.000 HD
ENDBRANCH   2  15
TORSDOF 2
