
 OpenBabel03272508063D

 32 35  0  0  0  0  0  0  0  0999 V2000
   38.8700   30.8920   45.8020 C   0  0  0  0  0  0  0  0  0  0  0  0
   40.0490   31.5620   46.0740 C   0  0  0  0  0  0  0  0  0  0  0  0
   40.9100   31.5130   44.9710 C   0  0  0  0  0  0  0  0  0  0  0  0
   40.2030   30.8070   44.0730 N   0  0  0  0  0  0  0  0  0  0  0  0
   39.0160   30.4440   44.5530 N   0  0  0  0  0  0  0  0  0  0  0  0
   40.3150   32.0720   47.0040 H   0  0  0  0  0  0  0  0  0  0  0  0
   41.8910   31.9110   44.8130 H   0  0  0  0  0  0  0  0  0  0  0  0
   37.7440   30.7340   46.7040 C   0  0  0  0  0  0  0  0  0  0  0  0
   37.9460   30.9360   48.0840 C   0  0  0  0  0  0  0  0  0  0  0  0
   36.8550   30.7810   48.9320 C   0  0  0  0  0  0  0  0  0  0  0  0
   35.6500   30.4430   48.3780 N   0  0  0  0  0  0  0  0  0  0  0  0
   35.4790   30.2540   47.0480 C   0  0  0  0  0  0  0  0  0  0  0  0
   36.5350   30.4030   46.2220 N   0  0  0  0  0  0  0  0  0  0  0  0
   38.9100   31.2020   48.4920 H   0  0  0  0  0  0  0  0  0  0  0  0
   34.5010   29.9890   46.6780 H   0  0  0  0  0  0  0  0  0  0  0  0
   37.0370   30.9860   50.3910 C   0  0  0  0  0  0  0  0  0  0  0  0
   36.5490   32.2410   50.6580 F   0  0  0  0  0  0  0  0  0  0  0  0
   36.3360   30.0570   51.1580 F   0  0  0  0  0  0  0  0  0  0  0  0
   38.3830   30.9620   50.7480 F   0  0  0  0  0  0  0  0  0  0  0  0
   40.5810   30.4240   42.7070 C   0  0  0  0  0  0  0  0  0  0  0  0
   40.2110   31.1960   41.5940 C   0  0  0  0  0  0  0  0  0  0  0  0
   40.5700   30.8070   40.3660 C   0  0  0  0  0  0  0  0  0  0  0  0
   41.3290   29.6080   40.2020 C   0  0  0  0  0  0  0  0  0  0  0  0
   41.5100   29.0410   41.9700 S   0  0  0  0  0  0  0  0  0  0  0  0
   39.6310   32.1160   41.6950 H   0  0  0  0  0  0  0  0  0  0  0  0
   40.3720   31.2750   39.4130 H   0  0  0  0  0  0  0  0  0  0  0  0
   41.8710   28.9030   39.1100 C   0  0  0  0  0  3  0  0  0  0  0  0
   41.2600   27.5400   39.0630 C   0  0  0  0  0  2  0  0  0  0  0  0
   40.2430   27.4270   37.9260 C   0  0  0  0  0  2  0  0  0  0  0  0
   41.0670   27.5210   36.6380 C   0  0  0  0  0  2  0  0  0  0  0  0
   41.8440   28.8160   36.6010 C   0  0  0  0  0  2  0  0  0  0  0  0
   41.6140   29.6590   37.8260 C   0  0  0  0  0  2  0  0  0  0  0  0
  1  2  1  0  0  0  0
  1  8  1  0  0  0  0
  2  6  1  0  0  0  0
  3  2  2  0  0  0  0
  4  5  1  0  0  0  0
  4  3  1  0  0  0  0
  5  1  2  0  0  0  0
  7  3  1  0  0  0  0
  8  9  1  0  0  0  0
  9 14  1  0  0  0  0
  9 10  2  0  0  0  0
 10 16  1  0  0  0  0
 11 10  1  0  0  0  0
 12 11  2  0  0  0  0
 13  8  2  0  0  0  0
 13 12  1  0  0  0  0
 15 12  1  0  0  0  0
 16 17  1  0  0  0  0
 16 19  1  0  0  0  0
 16 18  1  0  0  0  0
 20  4  1  0  0  0  0
 21 25  1  0  0  0  0
 21 20  2  0  0  0  0
 22 21  1  0  0  0  0
 23 22  2  0  0  0  0
 23 24  1  0  0  0  0
 24 20  1  0  0  0  0
 26 22  1  0  0  0  0
 27 23  1  0  0  0  0
 28 27  1  0  0  0  0
 29 28  1  0  0  0  0
 30 29  1  0  0  0  0
 31 30  1  0  0  0  0
 31 32  1  0  0  0  0
 32 27  1  0  0  0  0
M  END
>  <minimizedAffinity>
-6.18426418

>  <minimizedRMSD>
0.220374316

$$$$
