
 OpenBabel03272504103D

 30 32  0  0  0  0  0  0  0  0999 V2000
   38.2310   23.8500   36.7030 C   0  0  0  0  0  0  0  0  0  0  0  0
   38.8810   24.4920   35.6730 C   0  0  0  0  0  0  0  0  0  0  0  0
   40.2210   24.1580   35.3510 C   0  0  0  0  0  0  0  0  0  0  0  0
   40.7990   23.1860   36.1110 N   0  0  0  0  0  0  0  0  0  0  0  0
   40.1270   22.5700   37.1270 C   0  0  0  0  0  0  0  0  0  0  0  0
   38.8500   22.9040   37.4160 N   0  0  0  0  0  0  0  0  0  0  0  0
   40.8360   21.5720   37.8680 N   0  0  0  0  0  0  0  0  0  0  0  0
   37.2000   24.1250   36.9320 H   0  0  0  0  0  0  0  0  0  0  0  0
   40.6700   21.6990   38.9110 H   0  0  0  0  0  0  0  0  0  0  0  0
   41.4410   20.8020   37.5750 H   0  0  0  0  0  0  0  0  0  0  0  0
   37.7080   23.9420   32.9400 Cl  0  0  0  0  0  0  0  0  0  0  0  0
   37.5550   25.4850   33.6990 C   0  0  0  0  0  0  0  0  0  0  0  0
   38.1410   25.5390   34.9240 C   0  0  0  0  0  0  0  0  0  0  0  0
   38.0740   26.7630   35.6430 C   0  0  0  0  0  0  0  0  0  0  0  0
   37.4560   27.8570   35.1530 C   0  0  0  0  0  0  0  0  0  0  0  0
   36.8640   27.7760   33.8950 C   0  0  0  0  0  0  0  0  0  0  0  0
   36.0380   29.1340   33.1900 Cl  0  0  0  0  0  0  0  0  0  0  0  0
   36.9240   26.5950   33.1950 C   0  0  0  0  0  0  0  0  0  0  0  0
   38.4850   26.9260   36.6300 H   0  0  0  0  0  0  0  0  0  0  0  0
   37.3740   28.8130   35.6510 H   0  0  0  0  0  0  0  0  0  0  0  0
   36.4830   26.4580   32.2050 H   0  0  0  0  0  0  0  0  0  0  0  0
   40.9050   24.8430   34.2710 C   0  0  0  0  0  0  0  0  0  0  0  0
   40.0960   25.2090   33.5640 H   0  0  0  0  0  0  0  0  0  0  0  0
   41.5700   24.2600   33.6250 H   0  0  0  0  0  0  0  0  0  0  0  0
   41.6410   26.1070   34.6440 C   0  0  0  0  0  3  0  0  0  0  0  0
   43.1180   25.7710   34.3870 C   0  0  0  0  0  2  0  0  0  0  0  0
   43.9010   26.9840   33.9630 C   0  0  0  0  0  2  0  0  0  0  0  0
   43.3700   27.3210   32.5670 C   0  0  0  0  0  2  0  0  0  0  0  0
   41.8960   27.5370   32.5710 C   0  0  0  0  0  2  0  0  0  0  0  0
   41.2090   27.3200   33.8810 C   0  0  0  0  0  2  0  0  0  0  0  0
  1  8  1  0  0  0  0
  1  6  1  0  0  0  0
  2  1  2  0  0  0  0
  3  2  1  0  0  0  0
  3  4  2  0  0  0  0
  4  5  1  0  0  0  0
  5  6  2  0  0  0  0
  5  7  1  0  0  0  0
  7  9  1  0  0  0  0
 10  7  1  0  0  0  0
 11 12  1  0  0  0  0
 12 13  1  0  0  0  0
 13 14  2  0  0  0  0
 13  2  1  0  0  0  0
 14 19  1  0  0  0  0
 15 14  1  0  0  0  0
 15 20  1  0  0  0  0
 16 15  2  0  0  0  0
 17 16  1  0  0  0  0
 18 12  2  0  0  0  0
 18 16  1  0  0  0  0
 21 18  1  0  0  0  0
 22 25  1  0  0  0  0
 22  3  1  0  0  0  0
 23 22  1  0  0  0  0
 24 22  1  0  0  0  0
 26 25  1  0  0  0  0
 27 26  1  0  0  0  0
 28 29  1  0  0  0  0
 28 27  1  0  0  0  0
 29 30  1  0  0  0  0
 30 25  1  0  0  0  0
M  END
>  <minimizedAffinity>
-5.85831547

$$$$

 OpenBabel03272504103D

 30 32  0  0  0  0  0  0  0  0999 V2000
   38.0380   23.8640   36.3490 C   0  0  0  0  0  0  0  0  0  0  0  0
   38.7660   24.4890   35.3610 C   0  0  0  0  0  0  0  0  0  0  0  0
   40.1440   24.1950   35.1930 C   0  0  0  0  0  0  0  0  0  0  0  0
   40.6750   23.2810   36.0520 N   0  0  0  0  0  0  0  0  0  0  0  0
   39.9250   22.6810   37.0210 C   0  0  0  0  0  0  0  0  0  0  0  0
   38.6140   22.9740   37.1640 N   0  0  0  0  0  0  0  0  0  0  0  0
   40.5890   21.7440   37.8760 N   0  0  0  0  0  0  0  0  0  0  0  0
   36.9800   24.1060   36.4590 H   0  0  0  0  0  0  0  0  0  0  0  0
   40.3120   21.9090   38.8890 H   0  0  0  0  0  0  0  0  0  0  0  0
   41.2490   20.9890   37.6810 H   0  0  0  0  0  0  0  0  0  0  0  0
   38.5050   27.3920   36.1680 Cl  0  0  0  0  0  0  0  0  0  0  0  0
   37.8480   26.7990   34.6850 C   0  0  0  0  0  0  0  0  0  0  0  0
   38.0700   25.4720   34.4940 C   0  0  0  0  0  0  0  0  0  0  0  0
   37.5750   24.8770   33.3020 C   0  0  0  0  0  0  0  0  0  0  0  0
   36.9010   25.5780   32.3690 C   0  0  0  0  0  0  0  0  0  0  0  0
   36.6860   26.9370   32.5890 C   0  0  0  0  0  0  0  0  0  0  0  0
   35.8360   27.9200   31.4350 Cl  0  0  0  0  0  0  0  0  0  0  0  0
   37.1630   27.5190   33.7380 C   0  0  0  0  0  0  0  0  0  0  0  0
   37.7020   23.8370   33.0290 H   0  0  0  0  0  0  0  0  0  0  0  0
   36.5010   25.1820   31.4470 H   0  0  0  0  0  0  0  0  0  0  0  0
   37.0330   28.5770   33.9760 H   0  0  0  0  0  0  0  0  0  0  0  0
   40.9110   24.8620   34.1570 C   0  0  0  0  0  0  0  0  0  0  0  0
   40.1570   25.2300   33.3920 H   0  0  0  0  0  0  0  0  0  0  0  0
   41.6120   24.2660   33.5660 H   0  0  0  0  0  0  0  0  0  0  0  0
   41.6340   26.1220   34.5700 C   0  0  0  0  0  3  0  0  0  0  0  0
   43.1200   25.7620   34.4360 C   0  0  0  0  0  2  0  0  0  0  0  0
   43.9530   26.9570   34.0580 C   0  0  0  0  0  2  0  0  0  0  0  0
   43.5390   27.2800   32.6200 C   0  0  0  0  0  2  0  0  0  0  0  0
   42.0730   27.5160   32.5040 C   0  0  0  0  0  2  0  0  0  0  0  0
   41.2810   27.3280   33.7580 C   0  0  0  0  0  2  0  0  0  0  0  0
  1  8  1  0  0  0  0
  1  6  1  0  0  0  0
  2  1  2  0  0  0  0
  3  2  1  0  0  0  0
  3  4  2  0  0  0  0
  4  5  1  0  0  0  0
  5  6  2  0  0  0  0
  5  7  1  0  0  0  0
  7  9  1  0  0  0  0
 10  7  1  0  0  0  0
 12 11  1  0  0  0  0
 13 12  1  0  0  0  0
 13  2  1  0  0  0  0
 14 13  2  0  0  0  0
 15 16  2  0  0  0  0
 15 14  1  0  0  0  0
 16 18  1  0  0  0  0
 17 16  1  0  0  0  0
 18 21  1  0  0  0  0
 18 12  2  0  0  0  0
 19 14  1  0  0  0  0
 20 15  1  0  0  0  0
 22 25  1  0  0  0  0
 22  3  1  0  0  0  0
 23 22  1  0  0  0  0
 24 22  1  0  0  0  0
 26 25  1  0  0  0  0
 27 26  1  0  0  0  0
 28 27  1  0  0  0  0
 29 28  1  0  0  0  0
 29 30  1  0  0  0  0
 30 25  1  0  0  0  0
M  END
>  <minimizedAffinity>
-5.7693491

$$$$

 OpenBabel03272504103D

 30 32  0  0  0  0  0  0  0  0999 V2000
   37.8240   25.4030   32.7390 C   0  0  0  0  0  0  0  0  0  0  0  0
   37.6700   24.0620   33.0120 C   0  0  0  0  0  0  0  0  0  0  0  0
   36.6670   23.3070   32.3530 C   0  0  0  0  0  0  0  0  0  0  0  0
   35.8920   23.9840   31.4600 N   0  0  0  0  0  0  0  0  0  0  0  0
   36.0700   25.3140   31.2130 C   0  0  0  0  0  0  0  0  0  0  0  0
   37.0330   26.0150   31.8520 N   0  0  0  0  0  0  0  0  0  0  0  0
   35.1900   25.9260   30.2640 N   0  0  0  0  0  0  0  0  0  0  0  0
   38.6030   25.9630   33.2580 H   0  0  0  0  0  0  0  0  0  0  0  0
   34.8430   26.8610   30.6320 H   0  0  0  0  0  0  0  0  0  0  0  0
   34.8610   25.6270   29.3440 H   0  0  0  0  0  0  0  0  0  0  0  0
   40.1170   22.4980   32.1670 Cl  0  0  0  0  0  0  0  0  0  0  0  0
   39.7040   22.7090   33.8300 C   0  0  0  0  0  0  0  0  0  0  0  0
   38.5760   23.4440   34.0120 C   0  0  0  0  0  0  0  0  0  0  0  0
   38.1430   23.6840   35.3450 C   0  0  0  0  0  0  0  0  0  0  0  0
   38.8080   23.2100   36.4170 C   0  0  0  0  0  0  0  0  0  0  0  0
   39.9610   22.4590   36.2040 C   0  0  0  0  0  0  0  0  0  0  0  0
   40.8860   21.8170   37.5290 Cl  0  0  0  0  0  0  0  0  0  0  0  0
   40.3860   22.2240   34.9190 C   0  0  0  0  0  0  0  0  0  0  0  0
   37.2740   24.2660   35.6190 H   0  0  0  0  0  0  0  0  0  0  0  0
   38.5280   23.3590   37.4510 H   0  0  0  0  0  0  0  0  0  0  0  0
   41.2800   21.6450   34.6750 H   0  0  0  0  0  0  0  0  0  0  0  0
   36.5020   21.8960   32.6490 C   0  0  0  0  0  0  0  0  0  0  0  0
   35.8130   21.8410   33.5500 H   0  0  0  0  0  0  0  0  0  0  0  0
   37.3820   21.3240   32.9590 H   0  0  0  0  0  0  0  0  0  0  0  0
   35.7800   21.0760   31.6070 C   0  0  0  0  0  3  0  0  0  0  0  0
   36.9080   20.3690   30.8410 C   0  0  0  0  0  2  0  0  0  0  0  0
   36.4750   19.0220   30.3280 C   0  0  0  0  0  2  0  0  0  0  0  0
   36.3110   18.1620   31.5840 C   0  0  0  0  0  2  0  0  0  0  0  0
   35.3510   18.7670   32.5490 C   0  0  0  0  0  2  0  0  0  0  0  0
   34.7940   20.1000   32.1650 C   0  0  0  0  0  2  0  0  0  0  0  0
  1  2  1  0  0  0  0
  1  8  1  0  0  0  0
  2 13  1  0  0  0  0
  3 22  1  0  0  0  0
  3  2  2  0  0  0  0
  4  3  1  0  0  0  0
  5  4  2  0  0  0  0
  5  6  1  0  0  0  0
  6  1  2  0  0  0  0
  7  9  1  0  0  0  0
  7  5  1  0  0  0  0
 10  7  1  0  0  0  0
 11 12  1  0  0  0  0
 12 13  2  0  0  0  0
 12 18  1  0  0  0  0
 13 14  1  0  0  0  0
 14 19  1  0  0  0  0
 14 15  2  0  0  0  0
 15 20  1  0  0  0  0
 16 15  1  0  0  0  0
 16 17  1  0  0  0  0
 18 16  2  0  0  0  0
 21 18  1  0  0  0  0
 22 24  1  0  0  0  0
 22 23  1  0  0  0  0
 25 30  1  0  0  0  0
 25 22  1  0  0  0  0
 26 25  1  0  0  0  0
 27 26  1  0  0  0  0
 27 28  1  0  0  0  0
 28 29  1  0  0  0  0
 30 29  1  0  0  0  0
M  END
>  <minimizedAffinity>
-5.67241144

$$$$

 OpenBabel03272504103D

 30 32  0  0  0  0  0  0  0  0999 V2000
   38.6400   25.5940   33.4900 C   0  0  0  0  0  0  0  0  0  0  0  0
   38.3880   24.2520   33.6670 C   0  0  0  0  0  0  0  0  0  0  0  0
   37.4250   23.5920   32.8620 C   0  0  0  0  0  0  0  0  0  0  0  0
   36.7890   24.3570   31.9320 N   0  0  0  0  0  0  0  0  0  0  0  0
   37.0620   25.6850   31.7820 C   0  0  0  0  0  0  0  0  0  0  0  0
   37.9840   26.2950   32.5600 N   0  0  0  0  0  0  0  0  0  0  0  0
   36.3260   26.3960   30.7810 N   0  0  0  0  0  0  0  0  0  0  0  0
   39.3860   26.0800   34.1210 H   0  0  0  0  0  0  0  0  0  0  0  0
   35.9900   27.3290   31.1640 H   0  0  0  0  0  0  0  0  0  0  0  0
   36.0840   26.1640   29.8160 H   0  0  0  0  0  0  0  0  0  0  0  0
   37.5360   24.3560   36.5670 Cl  0  0  0  0  0  0  0  0  0  0  0  0
   38.9250   23.4640   36.0610 C   0  0  0  0  0  0  0  0  0  0  0  0
   39.1450   23.5320   34.7210 C   0  0  0  0  0  0  0  0  0  0  0  0
   40.2620   22.8300   34.1920 C   0  0  0  0  0  0  0  0  0  0  0  0
   41.0990   22.1120   34.9680 C   0  0  0  0  0  0  0  0  0  0  0  0
   40.8520   22.0590   36.3370 C   0  0  0  0  0  0  0  0  0  0  0  0
   41.8730   21.1490   37.4100 Cl  0  0  0  0  0  0  0  0  0  0  0  0
   39.7730   22.7330   36.8560 C   0  0  0  0  0  0  0  0  0  0  0  0
   40.5320   22.7930   33.1450 H   0  0  0  0  0  0  0  0  0  0  0  0
   41.9620   21.5600   34.6240 H   0  0  0  0  0  0  0  0  0  0  0  0
   39.5170   22.7370   37.9180 H   0  0  0  0  0  0  0  0  0  0  0  0
   37.1550   22.1790   33.0580 C   0  0  0  0  0  0  0  0  0  0  0  0
   36.6480   22.0910   34.0700 H   0  0  0  0  0  0  0  0  0  0  0  0
   38.0050   21.4930   33.1320 H   0  0  0  0  0  0  0  0  0  0  0  0
   36.1580   21.5540   32.1110 C   0  0  0  0  0  3  0  0  0  0  0  0
   37.0250   20.7370   31.1420 C   0  0  0  0  0  2  0  0  0  0  0  0
   36.3060   19.5120   30.6470 C   0  0  0  0  0  2  0  0  0  0  0  0
   36.1990   18.6010   31.8730 C   0  0  0  0  0  2  0  0  0  0  0  0
   35.5110   19.2780   33.0070 C   0  0  0  0  0  2  0  0  0  0  0  0
   35.1240   20.7040   32.7800 C   0  0  0  0  0  2  0  0  0  0  0  0
  1  2  1  0  0  0  0
  1  8  1  0  0  0  0
  2 13  1  0  0  0  0
  3 22  1  0  0  0  0
  3  2  2  0  0  0  0
  4  3  1  0  0  0  0
  5  4  2  0  0  0  0
  5  6  1  0  0  0  0
  6  1  2  0  0  0  0
  7  9  1  0  0  0  0
  7  5  1  0  0  0  0
 10  7  1  0  0  0  0
 12 11  1  0  0  0  0
 12 18  1  0  0  0  0
 13 12  2  0  0  0  0
 14 13  1  0  0  0  0
 14 15  2  0  0  0  0
 15 16  1  0  0  0  0
 16 18  2  0  0  0  0
 16 17  1  0  0  0  0
 18 21  1  0  0  0  0
 19 14  1  0  0  0  0
 20 15  1  0  0  0  0
 22 24  1  0  0  0  0
 22 23  1  0  0  0  0
 25 30  1  0  0  0  0
 25 22  1  0  0  0  0
 26 25  1  0  0  0  0
 27 26  1  0  0  0  0
 27 28  1  0  0  0  0
 28 29  1  0  0  0  0
 30 29  1  0  0  0  0
M  END
>  <minimizedAffinity>
-5.4332037

$$$$

 OpenBabel03272504103D

 30 32  0  0  0  0  0  0  0  0999 V2000
   38.0320   25.3920   36.4110 C   0  0  0  0  0  0  0  0  0  0  0  0
   38.5090   24.8660   35.2310 C   0  0  0  0  0  0  0  0  0  0  0  0
   39.0700   23.5640   35.2020 C   0  0  0  0  0  0  0  0  0  0  0  0
   39.1010   22.8940   36.3870 N   0  0  0  0  0  0  0  0  0  0  0  0
   38.6220   23.4450   37.5400 C   0  0  0  0  0  0  0  0  0  0  0  0
   38.0910   24.6880   37.5450 N   0  0  0  0  0  0  0  0  0  0  0  0
   38.7170   22.6560   38.7310 N   0  0  0  0  0  0  0  0  0  0  0  0
   37.6050   26.3960   36.4080 H   0  0  0  0  0  0  0  0  0  0  0  0
   39.0680   23.2500   39.5400 H   0  0  0  0  0  0  0  0  0  0  0  0
   38.5150   21.6720   38.9180 H   0  0  0  0  0  0  0  0  0  0  0  0
   40.7380   26.7560   34.4530 Cl  0  0  0  0  0  0  0  0  0  0  0  0
   39.3050   26.6020   33.5010 C   0  0  0  0  0  0  0  0  0  0  0  0
   38.4220   25.7010   34.0070 C   0  0  0  0  0  0  0  0  0  0  0  0
   37.2060   25.4900   33.3020 C   0  0  0  0  0  0  0  0  0  0  0  0
   36.9060   26.1490   32.1640 C   0  0  0  0  0  0  0  0  0  0  0  0
   37.8280   27.0670   31.6670 C   0  0  0  0  0  0  0  0  0  0  0  0
   37.5280   27.9530   30.2020 Cl  0  0  0  0  0  0  0  0  0  0  0  0
   39.0060   27.2750   32.3430 C   0  0  0  0  0  0  0  0  0  0  0  0
   36.4330   24.7910   33.5920 H   0  0  0  0  0  0  0  0  0  0  0  0
   36.0000   26.0320   31.5860 H   0  0  0  0  0  0  0  0  0  0  0  0
   39.7740   27.9780   32.0130 H   0  0  0  0  0  0  0  0  0  0  0  0
   39.5790   23.0150   33.9580 C   0  0  0  0  0  0  0  0  0  0  0  0
   40.6250   22.6370   34.1840 H   0  0  0  0  0  0  0  0  0  0  0  0
   39.7250   23.6950   33.1130 H   0  0  0  0  0  0  0  0  0  0  0  0
   38.8710   21.7910   33.4300 C   0  0  0  0  0  3  0  0  0  0  0  0
   37.4450   21.9140   33.9860 C   0  0  0  0  0  2  0  0  0  0  0  0
   36.4280   21.3100   33.0560 C   0  0  0  0  0  2  0  0  0  0  0  0
   36.4120   22.2400   31.8400 C   0  0  0  0  0  2  0  0  0  0  0  0
   37.7650   22.3820   31.2320 C   0  0  0  0  0  2  0  0  0  0  0  0
   38.8750   21.6720   31.9390 C   0  0  0  0  0  2  0  0  0  0  0  0
  1  6  1  0  0  0  0
  2  1  2  0  0  0  0
  3  2  1  0  0  0  0
  3  4  2  0  0  0  0
  4  5  1  0  0  0  0
  5  6  2  0  0  0  0
  5  7  1  0  0  0  0
  7 10  1  0  0  0  0
  7  9  1  0  0  0  0
  8  1  1  0  0  0  0
 12 13  1  0  0  0  0
 12 11  1  0  0  0  0
 13  2  1  0  0  0  0
 14 19  1  0  0  0  0
 14 13  2  0  0  0  0
 15 14  1  0  0  0  0
 16 15  2  0  0  0  0
 16 18  1  0  0  0  0
 17 16  1  0  0  0  0
 18 12  2  0  0  0  0
 20 15  1  0  0  0  0
 21 18  1  0  0  0  0
 22 23  1  0  0  0  0
 22  3  1  0  0  0  0
 24 22  1  0  0  0  0
 25 22  1  0  0  0  0
 25 26  1  0  0  0  0
 27 26  1  0  0  0  0
 28 27  1  0  0  0  0
 29 28  1  0  0  0  0
 29 30  1  0  0  0  0
 30 25  1  0  0  0  0
M  END
>  <minimizedAffinity>
-5.35259008

$$$$

 OpenBabel03272504103D

 30 32  0  0  0  0  0  0  0  0999 V2000
   38.5370   26.9810   32.6910 C   0  0  0  0  0  0  0  0  0  0  0  0
   38.0860   25.6970   32.9060 C   0  0  0  0  0  0  0  0  0  0  0  0
   37.1130   25.1270   32.0470 C   0  0  0  0  0  0  0  0  0  0  0  0
   36.6700   25.9150   31.0280 N   0  0  0  0  0  0  0  0  0  0  0  0
   37.1360   27.1840   30.8440 C   0  0  0  0  0  0  0  0  0  0  0  0
   38.0650   27.7090   31.6740 N   0  0  0  0  0  0  0  0  0  0  0  0
   36.5930   27.9280   29.7480 N   0  0  0  0  0  0  0  0  0  0  0  0
   39.2860   27.3990   33.3650 H   0  0  0  0  0  0  0  0  0  0  0  0
   36.3580   28.9180   30.0550 H   0  0  0  0  0  0  0  0  0  0  0  0
   36.4040   27.6740   28.7760 H   0  0  0  0  0  0  0  0  0  0  0  0
   40.5530   23.9720   32.6120 Cl  0  0  0  0  0  0  0  0  0  0  0  0
   39.7250   24.1230   34.1200 C   0  0  0  0  0  0  0  0  0  0  0  0
   38.6440   24.9440   34.0570 C   0  0  0  0  0  0  0  0  0  0  0  0
   37.8870   25.1450   35.2430 C   0  0  0  0  0  0  0  0  0  0  0  0
   38.2050   24.5520   36.4120 C   0  0  0  0  0  0  0  0  0  0  0  0
   39.3170   23.7150   36.4500 C   0  0  0  0  0  0  0  0  0  0  0  0
   39.8040   22.9180   37.9170 Cl  0  0  0  0  0  0  0  0  0  0  0  0
   40.0530   23.5170   35.3080 C   0  0  0  0  0  0  0  0  0  0  0  0
   37.0190   25.7860   35.3250 H   0  0  0  0  0  0  0  0  0  0  0  0
   37.6690   24.6660   37.3440 H   0  0  0  0  0  0  0  0  0  0  0  0
   40.9360   22.8760   35.2630 H   0  0  0  0  0  0  0  0  0  0  0  0
   36.6340   23.7770   32.2820 C   0  0  0  0  0  0  0  0  0  0  0  0
   35.5480   23.8760   32.5970 H   0  0  0  0  0  0  0  0  0  0  0  0
   37.0880   23.1980   33.0920 H   0  0  0  0  0  0  0  0  0  0  0  0
   36.5660   22.8750   31.0730 C   0  0  0  0  0  3  0  0  0  0  0  0
   37.9530   22.2190   31.0160 C   0  0  0  0  0  2  0  0  0  0  0  0
   37.8920   20.8300   30.4430 C   0  0  0  0  0  2  0  0  0  0  0  0
   37.1580   20.0040   31.5030 C   0  0  0  0  0  2  0  0  0  0  0  0
   35.8200   20.5750   31.8220 C   0  0  0  0  0  2  0  0  0  0  0  0
   35.4740   21.8530   31.1280 C   0  0  0  0  0  2  0  0  0  0  0  0
  1  2  1  0  0  0  0
  1  8  1  0  0  0  0
  2 13  1  0  0  0  0
  3 22  1  0  0  0  0
  3  2  2  0  0  0  0
  4  3  1  0  0  0  0
  5  4  2  0  0  0  0
  5  6  1  0  0  0  0
  6  1  2  0  0  0  0
  7  9  1  0  0  0  0
  7  5  1  0  0  0  0
 10  7  1  0  0  0  0
 11 12  1  0  0  0  0
 12 18  1  0  0  0  0
 13 12  2  0  0  0  0
 13 14  1  0  0  0  0
 14 19  1  0  0  0  0
 14 15  2  0  0  0  0
 15 16  1  0  0  0  0
 15 20  1  0  0  0  0
 16 17  1  0  0  0  0
 18 16  2  0  0  0  0
 21 18  1  0  0  0  0
 22 23  1  0  0  0  0
 22 24  1  0  0  0  0
 25 30  1  0  0  0  0
 25 22  1  0  0  0  0
 26 25  1  0  0  0  0
 27 26  1  0  0  0  0
 27 28  1  0  0  0  0
 28 29  1  0  0  0  0
 30 29  1  0  0  0  0
M  END
>  <minimizedAffinity>
-5.33227682

$$$$

 OpenBabel03272504103D

 30 32  0  0  0  0  0  0  0  0999 V2000
   41.3310   24.0490   35.5930 C   0  0  0  0  0  0  0  0  0  0  0  0
   40.0990   23.9820   34.9810 C   0  0  0  0  0  0  0  0  0  0  0  0
   39.1860   22.9520   35.3210 C   0  0  0  0  0  0  0  0  0  0  0  0
   39.6020   22.0640   36.2660 N   0  0  0  0  0  0  0  0  0  0  0  0
   40.8300   22.1570   36.8520 C   0  0  0  0  0  0  0  0  0  0  0  0
   41.6860   23.1470   36.5140 N   0  0  0  0  0  0  0  0  0  0  0  0
   41.1690   21.1620   37.8240 N   0  0  0  0  0  0  0  0  0  0  0  0
   42.0170   24.8500   35.3160 H   0  0  0  0  0  0  0  0  0  0  0  0
   42.1600   20.8130   37.6640 H   0  0  0  0  0  0  0  0  0  0  0  0
   40.6420   20.7560   38.6000 H   0  0  0  0  0  0  0  0  0  0  0  0
   38.7320   26.5710   35.7400 Cl  0  0  0  0  0  0  0  0  0  0  0  0
   39.1580   26.2150   34.1050 C   0  0  0  0  0  0  0  0  0  0  0  0
   39.7680   25.0090   33.9620 C   0  0  0  0  0  0  0  0  0  0  0  0
   40.1660   24.6130   32.6560 C   0  0  0  0  0  0  0  0  0  0  0  0
   39.9590   25.3860   31.5710 C   0  0  0  0  0  0  0  0  0  0  0  0
   39.3310   26.6170   31.7450 C   0  0  0  0  0  0  0  0  0  0  0  0
   39.0320   27.6810   30.4030 Cl  0  0  0  0  0  0  0  0  0  0  0  0
   38.9450   27.0070   33.0040 C   0  0  0  0  0  0  0  0  0  0  0  0
   40.6740   23.6880   32.4160 H   0  0  0  0  0  0  0  0  0  0  0  0
   40.2380   25.1390   30.5570 H   0  0  0  0  0  0  0  0  0  0  0  0
   38.4480   27.9570   33.2150 H   0  0  0  0  0  0  0  0  0  0  0  0
   37.8920   22.8790   34.6680 C   0  0  0  0  0  0  0  0  0  0  0  0
   37.8620   23.7400   33.9270 H   0  0  0  0  0  0  0  0  0  0  0  0
   36.9940   23.0280   35.2760 H   0  0  0  0  0  0  0  0  0  0  0  0
   37.6490   21.6650   33.8030 C   0  0  0  0  0  3  0  0  0  0  0  0
   36.3220   21.0950   34.3230 C   0  0  0  0  0  2  0  0  0  0  0  0
   35.5360   20.4230   33.2290 C   0  0  0  0  0  2  0  0  0  0  0  0
   35.0920   21.5660   32.3120 C   0  0  0  0  0  2  0  0  0  0  0  0
   36.2490   22.3580   31.8120 C   0  0  0  0  0  2  0  0  0  0  0  0
   37.5900   21.9560   32.3370 C   0  0  0  0  0  2  0  0  0  0  0  0
  1  6  1  0  0  0  0
  2  3  1  0  0  0  0
  2  1  2  0  0  0  0
  3  4  2  0  0  0  0
  4  5  1  0  0  0  0
  5  7  1  0  0  0  0
  6  5  2  0  0  0  0
  7 10  1  0  0  0  0
  8  1  1  0  0  0  0
  9  7  1  0  0  0  0
 12 11  1  0  0  0  0
 13 12  1  0  0  0  0
 13  2  1  0  0  0  0
 14 13  2  0  0  0  0
 15 16  2  0  0  0  0
 15 14  1  0  0  0  0
 16 18  1  0  0  0  0
 17 16  1  0  0  0  0
 18 21  1  0  0  0  0
 18 12  2  0  0  0  0
 19 14  1  0  0  0  0
 20 15  1  0  0  0  0
 22 24  1  0  0  0  0
 22  3  1  0  0  0  0
 23 22  1  0  0  0  0
 25 26  1  0  0  0  0
 25 22  1  0  0  0  0
 27 26  1  0  0  0  0
 28 27  1  0  0  0  0
 29 28  1  0  0  0  0
 29 30  1  0  0  0  0
 30 25  1  0  0  0  0
M  END
>  <minimizedAffinity>
-5.32085228

$$$$

 OpenBabel03272504103D

 30 32  0  0  0  0  0  0  0  0999 V2000
   38.4440   26.4130   35.8020 C   0  0  0  0  0  0  0  0  0  0  0  0
   38.6100   25.2530   35.0770 C   0  0  0  0  0  0  0  0  0  0  0  0
   37.9990   25.1090   33.8060 C   0  0  0  0  0  0  0  0  0  0  0  0
   37.2610   26.1670   33.3680 N   0  0  0  0  0  0  0  0  0  0  0  0
   37.1150   27.3010   34.1110 C   0  0  0  0  0  0  0  0  0  0  0  0
   37.7060   27.4190   35.3210 N   0  0  0  0  0  0  0  0  0  0  0  0
   36.3060   28.3460   33.5590 N   0  0  0  0  0  0  0  0  0  0  0  0
   38.9240   26.5010   36.7770 H   0  0  0  0  0  0  0  0  0  0  0  0
   35.6530   28.7380   34.3010 H   0  0  0  0  0  0  0  0  0  0  0  0
   36.2580   28.7510   32.6220 H   0  0  0  0  0  0  0  0  0  0  0  0
   37.3900   23.1440   36.8690 Cl  0  0  0  0  0  0  0  0  0  0  0  0
   39.0750   23.1510   36.4920 C   0  0  0  0  0  0  0  0  0  0  0  0
   39.4350   24.1710   35.6700 C   0  0  0  0  0  0  0  0  0  0  0  0
   40.8020   24.2720   35.2910 C   0  0  0  0  0  0  0  0  0  0  0  0
   41.7370   23.4010   35.7170 C   0  0  0  0  0  0  0  0  0  0  0  0
   41.3420   22.3640   36.5600 C   0  0  0  0  0  0  0  0  0  0  0  0
   42.4800   21.1890   37.1500 Cl  0  0  0  0  0  0  0  0  0  0  0  0
   40.0230   22.2590   36.9290 C   0  0  0  0  0  0  0  0  0  0  0  0
   41.2080   25.0270   34.6300 H   0  0  0  0  0  0  0  0  0  0  0  0
   42.7880   23.4270   35.4640 H   0  0  0  0  0  0  0  0  0  0  0  0
   39.6420   21.4740   37.5860 H   0  0  0  0  0  0  0  0  0  0  0  0
   38.1690   23.8830   33.0490 C   0  0  0  0  0  0  0  0  0  0  0  0
   39.0300   23.3260   33.5360 H   0  0  0  0  0  0  0  0  0  0  0  0
   38.4680   23.9570   31.9990 H   0  0  0  0  0  0  0  0  0  0  0  0
   37.0300   22.8940   33.1190 C   0  0  0  0  0  3  0  0  0  0  0  0
   36.3560   23.0020   31.7440 C   0  0  0  0  0  2  0  0  0  0  0  0
   35.7530   21.6920   31.3130 C   0  0  0  0  0  2  0  0  0  0  0  0
   36.9540   20.7810   31.0440 C   0  0  0  0  0  2  0  0  0  0  0  0
   37.8390   20.6650   32.2350 C   0  0  0  0  0  2  0  0  0  0  0  0
   37.4510   21.4900   33.4200 C   0  0  0  0  0  2  0  0  0  0  0  0
  1  8  1  0  0  0  0
  2 13  1  0  0  0  0
  2  1  2  0  0  0  0
  3  2  1  0  0  0  0
  4  3  2  0  0  0  0
  4  5  1  0  0  0  0
  5  6  2  0  0  0  0
  6  1  1  0  0  0  0
  7  5  1  0  0  0  0
  7  9  1  0  0  0  0
 10  7  1  0  0  0  0
 12 11  1  0  0  0  0
 12 18  1  0  0  0  0
 13 12  2  0  0  0  0
 14 13  1  0  0  0  0
 14 15  2  0  0  0  0
 15 16  1  0  0  0  0
 16 18  2  0  0  0  0
 16 17  1  0  0  0  0
 18 21  1  0  0  0  0
 19 14  1  0  0  0  0
 20 15  1  0  0  0  0
 22 25  1  0  0  0  0
 22 23  1  0  0  0  0
 22  3  1  0  0  0  0
 24 22  1  0  0  0  0
 25 30  1  0  0  0  0
 26 25  1  0  0  0  0
 27 26  1  0  0  0  0
 28 27  1  0  0  0  0
 28 29  1  0  0  0  0
 29 30  1  0  0  0  0
M  END
>  <minimizedAffinity>
-5.30472374

$$$$

 OpenBabel03272504103D

 30 32  0  0  0  0  0  0  0  0999 V2000
   40.7310   24.2200   35.6600 C   0  0  0  0  0  0  0  0  0  0  0  0
   39.4500   23.9750   35.2180 C   0  0  0  0  0  0  0  0  0  0  0  0
   38.8320   22.7240   35.4720 C   0  0  0  0  0  0  0  0  0  0  0  0
   39.5730   21.8130   36.1610 N   0  0  0  0  0  0  0  0  0  0  0  0
   40.8410   22.0870   36.5840 C   0  0  0  0  0  0  0  0  0  0  0  0
   41.4120   23.2860   36.3320 N   0  0  0  0  0  0  0  0  0  0  0  0
   41.5340   21.0520   37.2900 N   0  0  0  0  0  0  0  0  0  0  0  0
   41.1860   25.1900   35.4530 H   0  0  0  0  0  0  0  0  0  0  0  0
   42.5320   20.9670   36.9330 H   0  0  0  0  0  0  0  0  0  0  0  0
   41.2410   20.4190   38.0360 H   0  0  0  0  0  0  0  0  0  0  0  0
   39.8680   24.3570   32.2480 Cl  0  0  0  0  0  0  0  0  0  0  0  0
   38.8130   25.3790   33.1540 C   0  0  0  0  0  0  0  0  0  0  0  0
   38.7500   25.0500   34.4710 C   0  0  0  0  0  0  0  0  0  0  0  0
   37.9070   25.8240   35.3140 C   0  0  0  0  0  0  0  0  0  0  0  0
   37.1790   26.8610   34.8530 C   0  0  0  0  0  0  0  0  0  0  0  0
   37.2610   27.1790   33.4990 C   0  0  0  0  0  0  0  0  0  0  0  0
   36.3500   28.4930   32.8180 Cl  0  0  0  0  0  0  0  0  0  0  0  0
   38.0730   26.4340   32.6790 C   0  0  0  0  0  0  0  0  0  0  0  0
   37.7600   25.6510   36.3720 H   0  0  0  0  0  0  0  0  0  0  0  0
   36.5230   27.4850   35.4440 H   0  0  0  0  0  0  0  0  0  0  0  0
   38.1870   26.6240   31.6090 H   0  0  0  0  0  0  0  0  0  0  0  0
   37.4850   22.4660   34.9970 C   0  0  0  0  0  0  0  0  0  0  0  0
   37.1510   23.4100   34.4620 H   0  0  0  0  0  0  0  0  0  0  0  0
   36.6970   22.2940   35.7380 H   0  0  0  0  0  0  0  0  0  0  0  0
   37.3450   21.3970   33.9400 C   0  0  0  0  0  3  0  0  0  0  0  0
   35.9710   20.7700   34.2220 C   0  0  0  0  0  2  0  0  0  0  0  0
   35.3130   20.2770   32.9610 C   0  0  0  0  0  2  0  0  0  0  0  0
   34.9650   21.5480   32.1820 C   0  0  0  0  0  2  0  0  0  0  0  0
   36.1660   22.3930   31.9340 C   0  0  0  0  0  2  0  0  0  0  0  0
   37.4440   21.9030   32.5360 C   0  0  0  0  0  2  0  0  0  0  0  0
  1  6  1  0  0  0  0
  2  3  1  0  0  0  0
  2  1  2  0  0  0  0
  3  4  2  0  0  0  0
  4  5  1  0  0  0  0
  5  7  1  0  0  0  0
  6  5  2  0  0  0  0
  7 10  1  0  0  0  0
  8  1  1  0  0  0  0
  9  7  1  0  0  0  0
 11 12  1  0  0  0  0
 12 13  1  0  0  0  0
 13  2  1  0  0  0  0
 13 14  2  0  0  0  0
 14 19  1  0  0  0  0
 15 14  1  0  0  0  0
 15 20  1  0  0  0  0
 16 15  2  0  0  0  0
 17 16  1  0  0  0  0
 18 12  2  0  0  0  0
 18 16  1  0  0  0  0
 21 18  1  0  0  0  0
 22  3  1  0  0  0  0
 22 24  1  0  0  0  0
 23 22  1  0  0  0  0
 25 26  1  0  0  0  0
 25 22  1  0  0  0  0
 27 26  1  0  0  0  0
 28 27  1  0  0  0  0
 29 28  1  0  0  0  0
 29 30  1  0  0  0  0
 30 25  1  0  0  0  0
M  END
>  <minimizedAffinity>
-5.22650385

$$$$
