
 OpenBabel03262521053D

 33 35  0  0  0  0  0  0  0  0999 V2000
   38.4860   31.7400   48.1460 Br  0  0  0  0  0  0  0  0  0  0  0  0
   37.3320   31.1200   46.8000 C   0  0  0  0  0  0  0  0  0  0  0  0
   36.2720   30.3750   47.2250 C   0  0  0  0  0  0  0  0  0  0  0  0
   35.3570   29.8680   46.2940 C   0  0  0  0  0  0  0  0  0  0  0  0
   35.5480   30.1370   44.9380 C   0  0  0  0  0  0  0  0  0  0  0  0
   36.6290   30.8880   44.5870 C   0  0  0  0  0  0  0  0  0  0  0  0
   37.5310   31.3900   45.4820 C   0  0  0  0  0  0  0  0  0  0  0  0
   34.5000   29.2770   46.5420 H   0  0  0  0  0  0  0  0  0  0  0  0
   34.8550   29.7580   44.1970 H   0  0  0  0  0  0  0  0  0  0  0  0
   36.7730   31.0940   43.5340 H   0  0  0  0  0  0  0  0  0  0  0  0
   36.8280   29.4400   49.5180 C   0  0  0  0  0  0  0  0  0  0  0  0
   35.9270   30.0030   48.6010 C   0  0  0  0  0  0  0  0  0  0  0  0
   34.5990   30.2250   49.0390 C   0  0  0  0  0  0  0  0  0  0  0  0
   34.2980   29.8680   50.3340 N   0  0  0  0  0  0  0  0  0  0  0  0
   35.1910   29.3390   51.1570 C   0  0  0  0  0  0  0  0  0  0  0  0
   36.4520   29.1220   50.7600 N   0  0  0  0  0  0  0  0  0  0  0  0
   37.8400   29.2780   49.1620 H   0  0  0  0  0  0  0  0  0  0  0  0
   33.8650   30.6550   48.3770 H   0  0  0  0  0  0  0  0  0  0  0  0
   34.7830   29.1170   52.1470 H   0  0  0  0  0  0  0  0  0  0  0  0
   38.6560   32.1700   45.1320 N   0  0  0  0  0  0  0  0  0  0  0  0
   38.4290   33.1970   45.1120 H   0  0  0  0  0  0  0  0  0  0  0  0
   40.2710   31.8040   44.7440 S   0  0  0  0  0  0  0  0  0  0  0  0
   40.7600   30.6250   45.5180 O   0  0  0  0  0  0  0  0  0  0  0  0
   41.5120   30.6020   46.1560 H   0  0  0  0  0  0  0  0  0  0  0  0
   41.1540   32.9770   45.1420 O   0  0  0  0  0  0  0  0  0  0  0  0
   41.4860   33.7010   44.5530 H   0  0  0  0  0  0  0  0  0  0  0  0
   40.3930   31.5360   43.0880 O   0  0  0  0  0  0  0  0  0  0  0  0
   40.1090   30.2200   42.8220 C   0  0  0  0  0  0  0  0  0  0  0  0
   38.9010   30.0400   41.9320 C   0  0  0  0  0  0  0  0  0  0  0  0
   39.2640   29.7210   40.5010 C   0  0  0  0  0  0  0  0  0  0  0  0
   39.8440   28.3300   40.4650 C   0  0  0  0  0  0  0  0  0  0  0  0
   40.7620   28.1680   41.6680 C   0  0  0  0  0  0  0  0  0  0  0  0
   41.2690   29.5040   42.1700 C   0  0  0  0  0  0  0  0  0  0  0  0
  2  3  1  0  0  0  0
  2  1  1  0  0  0  0
  3 12  1  0  0  0  0
  4  8  1  0  0  0  0
  4  3  2  0  0  0  0
  5  4  1  0  0  0  0
  6  5  2  0  0  0  0
  6  7  1  0  0  0  0
  7  2  2  0  0  0  0
  9  5  1  0  0  0  0
 10  6  1  0  0  0  0
 11 16  1  0  0  0  0
 12 13  1  0  0  0  0
 12 11  2  0  0  0  0
 13 14  2  0  0  0  0
 14 15  1  0  0  0  0
 15 19  1  0  0  0  0
 16 15  2  0  0  0  0
 17 11  1  0  0  0  0
 18 13  1  0  0  0  0
 20  7  1  0  0  0  0
 21 20  1  0  0  0  0
 22 20  1  0  0  0  0
 22 25  1  0  0  0  0
 22 23  1  0  0  0  0
 23 24  1  0  0  0  0
 26 25  1  0  0  0  0
 27 22  1  0  0  0  0
 28 27  1  0  0  0  0
 29 28  1  0  0  0  0
 30 29  1  0  0  0  0
 31 30  1  0  0  0  0
 31 32  1  0  0  0  0
 32 33  1  0  0  0  0
 33 28  1  0  0  0  0
M  END
>  <minimizedAffinity>
-5.7026124

>  <minimizedRMSD>
2.89984894

$$$$
