
 OpenBabel03272509053D

 30 32  0  0  0  0  0  0  0  0999 V2000
   34.7590   28.3780   49.7660 C   0  0  0  0  0  3  0  0  0  0  0  0
   34.3220   28.2510   48.5400 C   0  0  0  0  0  3  0  0  0  0  0  0
   37.4720   30.2490   51.3560 C   0  0  0  0  0  0  0  0  0  0  0  0
   37.9370   31.0390   50.2850 C   0  0  0  0  0  0  0  0  0  0  0  0
   37.2990   30.9040   49.0360 C   0  0  0  0  0  0  0  0  0  0  0  0
   36.2760   30.0210   48.9400 N   0  0  0  0  0  0  0  0  0  0  0  0
   35.8570   29.2810   49.9850 C   0  0  0  0  0  0  0  0  0  0  0  0
   36.4680   29.4110   51.1830 N   0  0  0  0  0  0  0  0  0  0  0  0
   37.9810   30.3770   52.2980 H   0  0  0  0  0  0  0  0  0  0  0  0
   38.7350   31.7400   50.3240 H   0  0  0  0  0  0  0  0  0  0  0  0
   37.6610   31.6560   47.8070 C   0  0  0  0  0  3  0  0  0  0  0  0
   39.0650   32.2100   47.8770 C   0  0  0  0  0  2  0  0  0  0  0  0
   39.3300   32.8220   46.4960 C   0  0  0  0  0  2  0  0  0  0  0  0
   39.5070   31.7450   45.4530 C   0  0  0  0  0  2  0  0  0  0  0  0
   38.9700   30.4590   46.0190 C   0  0  0  0  0  2  0  0  0  0  0  0
   37.5850   30.7670   46.5720 C   0  0  0  0  0  2  0  0  0  0  0  0
   33.2190   27.3970   48.0580 C   0  0  0  0  0  0  0  0  0  0  0  0
   32.4710   28.0580   47.5500 H   0  0  0  0  0  0  0  0  0  0  0  0
   32.6880   26.8620   48.8740 H   0  0  0  0  0  0  0  0  0  0  0  0
   33.6720   26.3890   47.0540 C   0  0  0  0  0  0  0  0  0  0  0  0
   33.9320   25.0710   47.3260 C   0  0  0  0  0  0  0  0  0  0  0  0
   34.3470   24.2160   46.3270 C   0  0  0  0  0  0  0  0  0  0  0  0
   34.5120   24.6780   45.0070 C   0  0  0  0  0  0  0  0  0  0  0  0
   34.2550   25.9920   44.7290 C   0  0  0  0  0  0  0  0  0  0  0  0
   33.8380   26.8340   45.7480 C   0  0  0  0  0  0  0  0  0  0  0  0
   33.7910   24.7600   48.3580 H   0  0  0  0  0  0  0  0  0  0  0  0
   34.5340   23.2000   46.6030 H   0  0  0  0  0  0  0  0  0  0  0  0
   34.8380   23.9220   44.3190 H   0  0  0  0  0  0  0  0  0  0  0  0
   34.3880   26.3250   43.7080 H   0  0  0  0  0  0  0  0  0  0  0  0
   33.6500   27.8700   45.4580 H   0  0  0  0  0  0  0  0  0  0  0  0
  1  7  1  0  0  0  0
  2  1  2  0  0  0  0
  3  9  1  0  0  0  0
  4 10  1  0  0  0  0
  4  3  2  0  0  0  0
  5  4  1  0  0  0  0
  6  5  2  0  0  0  0
  6  7  1  0  0  0  0
  7  8  2  0  0  0  0
  8  3  1  0  0  0  0
 11 12  1  0  0  0  0
 11  5  1  0  0  0  0
 13 12  1  0  0  0  0
 14 15  1  0  0  0  0
 14 13  1  0  0  0  0
 15 16  1  0  0  0  0
 16 11  1  0  0  0  0
 17  2  1  0  0  0  0
 17 19  1  0  0  0  0
 18 17  1  0  0  0  0
 20 21  1  0  0  0  0
 20 17  1  0  0  0  0
 21 26  1  0  0  0  0
 22 27  1  0  0  0  0
 22 21  2  0  0  0  0
 23 22  1  0  0  0  0
 24 23  2  0  0  0  0
 24 25  1  0  0  0  0
 25 20  2  0  0  0  0
 28 23  1  0  0  0  0
 29 24  1  0  0  0  0
 30 25  1  0  0  0  0
M  END
>  <minimizedAffinity>
-6.06205797

>  <minimizedRMSD>
1.04386997

$$$$
