
 OpenBabel03272505173D

 39 42  0  0  1  0  0  0  0  0999 V2000
   39.1240   24.7660   33.4680 N   0  0  0  0  0  0  0  0  0  0  0  0
   39.7740   26.0650   33.2200 C   0  0  0  0  0  0  0  0  0  0  0  0
   41.1200   26.0110   33.8830 C   0  0  0  0  0  0  0  0  0  0  0  0
   41.7810   24.8470   33.4830 N   0  0  0  0  0  0  0  0  0  0  0  0
   41.1570   23.6320   33.8740 C   0  0  0  0  0  0  0  0  0  0  0  0
   39.7570   23.8850   34.3810 C   0  0  1  0  0  0  0  0  0  0  0  0
   39.8570   26.2920   32.1520 H   0  0  0  0  0  0  0  0  0  0  0  0
   39.1510   26.8170   33.7570 H   0  0  0  0  0  0  0  0  0  0  0  0
   41.0980   26.2460   34.9570 H   0  0  0  0  0  0  0  0  0  0  0  0
   41.6790   26.8600   33.4250 H   0  0  0  0  0  0  0  0  0  0  0  0
   42.8170   24.8480   33.5640 H   0  0  0  0  0  0  0  0  0  0  0  0
   41.7470   22.9400   34.4820 H   0  0  0  0  0  0  0  0  0  0  0  0
   41.0390   23.0690   32.8880 H   0  0  0  0  0  0  0  0  0  0  0  0
   39.2840   22.8330   34.1550 H   0  0  0  0  0  0  0  0  0  0  0  0
   38.7100   21.8580   33.2210 Cl  0  0  0  0  0  0  0  0  0  0  0  0
   37.6160   23.0410   32.5880 C   0  0  0  0  0  0  0  0  0  0  0  0
   36.5010   22.6410   31.9360 C   0  0  0  0  0  0  0  0  0  0  0  0
   35.6570   23.6620   31.4950 C   0  0  0  0  0  0  0  0  0  0  0  0
   35.8900   24.9950   31.6790 C   0  0  0  0  0  0  0  0  0  0  0  0
   37.0390   25.3540   32.3480 C   0  0  0  0  0  0  0  0  0  0  0  0
   37.9230   24.3670   32.8130 C   0  0  0  0  0  0  0  0  0  0  0  0
   34.7450   23.3870   30.9650 H   0  0  0  0  0  0  0  0  0  0  0  0
   35.1860   25.7370   31.3090 H   0  0  0  0  0  0  0  0  0  0  0  0
   37.2560   26.3870   32.5110 H   0  0  0  0  0  0  0  0  0  0  0  0
   35.1710   19.1490   32.3610 C   0  0  0  0  0  0  0  0  0  0  0  0
   35.4220   20.5090   32.5950 C   0  0  0  0  0  0  0  0  0  0  0  0
   36.2430   21.2420   31.7220 C   0  0  0  0  0  0  0  0  0  0  0  0
   36.7800   20.5720   30.6490 N   0  0  0  0  0  0  0  0  0  0  0  0
   36.5230   19.2640   30.4490 C   0  0  0  0  0  0  0  0  0  0  0  0
   35.7280   18.5470   31.2860 N   0  0  0  0  0  0  0  0  0  0  0  0
   34.5550   18.5130   32.9760 H   0  0  0  0  0  0  0  0  0  0  0  0
   34.9350   20.8180   33.4970 H   0  0  0  0  0  0  0  0  0  0  0  0
   37.0300   18.9130   29.5590 H   0  0  0  0  0  0  0  0  0  0  0  0
   39.5670   23.9730   35.8350 C   0  0  0  0  0  3  0  0  0  0  0  0
   39.8260   22.6280   36.5710 C   0  0  0  0  0  2  0  0  0  0  0  0
   39.8430   22.9470   38.0510 C   0  0  0  0  0  2  0  0  0  0  0  0
   38.4790   23.3490   38.4880 C   0  0  0  0  0  2  0  0  0  0  0  0
   37.9600   24.4820   37.6260 C   0  0  0  0  0  2  0  0  0  0  0  0
   38.0510   24.0830   36.1930 C   0  0  0  0  0  2  0  0  0  0  0  0
  1  6  1  0  0  0  0
  2  1  1  0  0  0  0
  2  8  1  0  0  0  0
  2  3  1  0  0  0  0
  3  9  1  0  0  0  0
  4 11  1  0  0  0  0
  4  5  1  0  0  0  0
  4  3  1  0  0  0  0
  5  6  1  0  0  0  0
  5 12  1  0  0  0  0
  6 14  1  6  0  0  0
  6 34  1  0  0  0  0
  7  2  1  0  0  0  0
 10  3  1  0  0  0  0
 13  5  1  0  0  0  0
 16 21  1  0  0  0  0
 16 15  1  0  0  0  0
 17 16  2  0  0  0  0
 18 19  2  0  0  0  0
 18 17  1  0  0  0  0
 19 20  1  0  0  0  0
 20 24  1  0  0  0  0
 20 21  2  0  0  0  0
 21  1  1  0  0  0  0
 22 18  1  0  0  0  0
 23 19  1  0  0  0  0
 25 26  1  0  0  0  0
 25 31  1  0  0  0  0
 26 32  1  0  0  0  0
 27 17  1  0  0  0  0
 27 26  2  0  0  0  0
 28 27  1  0  0  0  0
 29 28  2  0  0  0  0
 29 30  1  0  0  0  0
 30 25  2  0  0  0  0
 33 29  1  0  0  0  0
 34 39  1  0  0  0  0
 34 35  1  0  0  0  0
 35 36  1  0  0  0  0
 36 37  1  0  0  0  0
 38 37  1  0  0  0  0
 39 38  1  0  0  0  0
M  END
>  <minimizedAffinity>
-6.00873375

$$$$

 OpenBabel03272505173D

 39 42  0  0  1  0  0  0  0  0999 V2000
   35.3840   29.0790   32.0460 N   0  0  0  0  0  0  0  0  0  0  0  0
   35.8990   29.7600   30.8450 C   0  0  0  0  0  0  0  0  0  0  0  0
   36.8750   28.8210   30.1960 C   0  0  0  0  0  0  0  0  0  0  0  0
   36.2740   27.5680   30.0480 N   0  0  0  0  0  0  0  0  0  0  0  0
   35.9250   26.9170   31.2610 C   0  0  0  0  0  0  0  0  0  0  0  0
   36.0160   27.8700   32.4290 C   0  0  1  0  0  0  0  0  0  0  0  0
   35.0990   30.0510   30.1550 H   0  0  0  0  0  0  0  0  0  0  0  0
   36.4640   30.6440   31.2220 H   0  0  0  0  0  0  0  0  0  0  0  0
   37.8840   28.8580   30.6300 H   0  0  0  0  0  0  0  0  0  0  0  0
   36.9990   29.2310   29.1680 H   0  0  0  0  0  0  0  0  0  0  0  0
   36.6730   26.9430   29.3200 H   0  0  0  0  0  0  0  0  0  0  0  0
   36.3570   25.9280   31.4400 H   0  0  0  0  0  0  0  0  0  0  0  0
   34.8140   26.6890   31.1260 H   0  0  0  0  0  0  0  0  0  0  0  0
   35.2500   27.3510   33.1540 H   0  0  0  0  0  0  0  0  0  0  0  0
   35.9500   31.4050   33.7640 Cl  0  0  0  0  0  0  0  0  0  0  0  0
   34.4040   30.6300   33.6750 C   0  0  0  0  0  0  0  0  0  0  0  0
   33.3790   31.0930   34.4260 C   0  0  0  0  0  0  0  0  0  0  0  0
   32.1600   30.4320   34.2610 C   0  0  0  0  0  0  0  0  0  0  0  0
   31.9560   29.3820   33.4130 C   0  0  0  0  0  0  0  0  0  0  0  0
   33.0300   28.9450   32.6700 C   0  0  0  0  0  0  0  0  0  0  0  0
   34.2790   29.5730   32.7980 C   0  0  0  0  0  0  0  0  0  0  0  0
   31.3050   30.7710   34.8450 H   0  0  0  0  0  0  0  0  0  0  0  0
   30.9760   28.9150   33.3340 H   0  0  0  0  0  0  0  0  0  0  0  0
   32.9090   28.1250   31.9960 H   0  0  0  0  0  0  0  0  0  0  0  0
   34.1170   33.0600   37.5450 C   0  0  0  0  0  0  0  0  0  0  0  0
   33.9140   31.9750   36.6800 C   0  0  0  0  0  0  0  0  0  0  0  0
   33.5760   32.1920   35.3340 C   0  0  0  0  0  0  0  0  0  0  0  0
   33.4540   33.4950   34.9150 N   0  0  0  0  0  0  0  0  0  0  0  0
   33.6540   34.5190   35.7690 C   0  0  0  0  0  0  0  0  0  0  0  0
   33.9830   34.3200   37.0720 N   0  0  0  0  0  0  0  0  0  0  0  0
   34.3790   32.9860   38.5880 H   0  0  0  0  0  0  0  0  0  0  0  0
   34.0270   31.0560   37.2170 H   0  0  0  0  0  0  0  0  0  0  0  0
   33.5150   35.4650   35.2610 H   0  0  0  0  0  0  0  0  0  0  0  0
   37.2400   27.8330   33.2400 C   0  0  0  0  0  3  0  0  0  0  0  0
   38.1830   26.6510   32.8770 C   0  0  0  0  0  2  0  0  0  0  0  0
   39.4860   26.9030   33.6060 C   0  0  0  0  0  2  0  0  0  0  0  0
   39.2690   26.7640   35.0710 C   0  0  0  0  0  2  0  0  0  0  0  0
   38.1330   27.6580   35.5260 C   0  0  0  0  0  2  0  0  0  0  0  0
   36.9270   27.3680   34.6990 C   0  0  0  0  0  2  0  0  0  0  0  0
  1  6  1  0  0  0  0
  1 21  1  0  0  0  0
  2  8  1  0  0  0  0
  2  1  1  0  0  0  0
  3  9  1  0  0  0  0
  3  2  1  0  0  0  0
  4  3  1  0  0  0  0
  4  5  1  0  0  0  0
  5 12  1  0  0  0  0
  5  6  1  0  0  0  0
  6 14  1  1  0  0  0
  6 34  1  0  0  0  0
  7  2  1  0  0  0  0
 10  3  1  0  0  0  0
 11  4  1  0  0  0  0
 13  5  1  0  0  0  0
 16 15  1  0  0  0  0
 16 17  1  0  0  0  0
 17 27  1  0  0  0  0
 18 17  2  0  0  0  0
 18 22  1  0  0  0  0
 19 18  1  0  0  0  0
 20 21  1  0  0  0  0
 20 19  2  0  0  0  0
 21 16  2  0  0  0  0
 23 19  1  0  0  0  0
 24 20  1  0  0  0  0
 25 31  1  0  0  0  0
 26 32  1  0  0  0  0
 26 25  2  0  0  0  0
 27 26  1  0  0  0  0
 28 27  2  0  0  0  0
 28 29  1  0  0  0  0
 29 30  2  0  0  0  0
 30 25  1  0  0  0  0
 33 29  1  0  0  0  0
 34 39  1  0  0  0  0
 35 34  1  0  0  0  0
 35 36  1  0  0  0  0
 36 37  1  0  0  0  0
 37 38  1  0  0  0  0
 39 38  1  0  0  0  0
M  END
>  <minimizedAffinity>
-5.9756074

$$$$

 OpenBabel03272505173D

 39 42  0  0  1  0  0  0  0  0999 V2000
   39.3180   24.2630   33.1480 N   0  0  0  0  0  0  0  0  0  0  0  0
   40.6870   24.5970   32.7190 C   0  0  0  0  0  0  0  0  0  0  0  0
   41.6010   23.5890   33.3560 C   0  0  0  0  0  0  0  0  0  0  0  0
   41.1140   22.3050   33.0980 N   0  0  0  0  0  0  0  0  0  0  0  0
   39.8410   22.0170   33.6580 C   0  0  0  0  0  0  0  0  0  0  0  0
   39.1730   23.2770   34.1550 C   0  0  1  0  0  0  0  0  0  0  0  0
   40.7920   24.6060   31.6280 H   0  0  0  0  0  0  0  0  0  0  0  0
   40.9050   25.5950   33.1650 H   0  0  0  0  0  0  0  0  0  0  0  0
   41.8820   23.8330   34.3890 H   0  0  0  0  0  0  0  0  0  0  0  0
   42.5490   23.6840   32.7790 H   0  0  0  0  0  0  0  0  0  0  0  0
   41.8000   21.5260   33.1570 H   0  0  0  0  0  0  0  0  0  0  0  0
   39.7750   21.1630   34.3390 H   0  0  0  0  0  0  0  0  0  0  0  0
   39.2300   21.6710   32.7570 H   0  0  0  0  0  0  0  0  0  0  0  0
   38.0510   22.9370   34.0790 H   0  0  0  0  0  0  0  0  0  0  0  0
   38.8240   27.0620   33.9280 Cl  0  0  0  0  0  0  0  0  0  0  0  0
   37.7820   26.1590   32.8800 C   0  0  0  0  0  0  0  0  0  0  0  0
   36.6700   26.7410   32.3760 C   0  0  0  0  0  0  0  0  0  0  0  0
   35.9120   25.9520   31.5110 C   0  0  0  0  0  0  0  0  0  0  0  0
   36.2210   24.6690   31.1590 C   0  0  0  0  0  0  0  0  0  0  0  0
   37.3630   24.1190   31.6980 C   0  0  0  0  0  0  0  0  0  0  0  0
   38.1620   24.8680   32.5750 C   0  0  0  0  0  0  0  0  0  0  0  0
   35.0070   26.3790   31.0800 H   0  0  0  0  0  0  0  0  0  0  0  0
   35.5820   24.1120   30.4760 H   0  0  0  0  0  0  0  0  0  0  0  0
   37.6370   23.1170   31.4460 H   0  0  0  0  0  0  0  0  0  0  0  0
   36.0150   30.4390   32.1840 C   0  0  0  0  0  0  0  0  0  0  0  0
   36.3730   29.1360   31.8110 C   0  0  0  0  0  0  0  0  0  0  0  0
   36.3210   28.0880   32.7440 C   0  0  0  0  0  0  0  0  0  0  0  0
   35.9120   28.3970   34.0190 N   0  0  0  0  0  0  0  0  0  0  0  0
   35.5740   29.6600   34.3510 C   0  0  0  0  0  0  0  0  0  0  0  0
   35.6190   30.6800   33.4550 N   0  0  0  0  0  0  0  0  0  0  0  0
   36.0240   31.3000   31.5350 H   0  0  0  0  0  0  0  0  0  0  0  0
   36.6900   29.1260   30.7880 H   0  0  0  0  0  0  0  0  0  0  0  0
   35.2800   29.7080   35.3920 H   0  0  0  0  0  0  0  0  0  0  0  0
   39.2790   23.5800   35.5890 C   0  0  0  0  0  3  0  0  0  0  0  0
   39.6310   22.3380   36.4550 C   0  0  0  0  0  2  0  0  0  0  0  0
   39.9520   22.8590   37.8410 C   0  0  0  0  0  2  0  0  0  0  0  0
   38.7170   23.4050   38.4640 C   0  0  0  0  0  2  0  0  0  0  0  0
   38.0770   24.4370   37.5560 C   0  0  0  0  0  2  0  0  0  0  0  0
   37.8680   23.8350   36.2090 C   0  0  0  0  0  2  0  0  0  0  0  0
  1  6  1  0  0  0  0
  2  1  1  0  0  0  0
  2  8  1  0  0  0  0
  2  3  1  0  0  0  0
  3  9  1  0  0  0  0
  4 11  1  0  0  0  0
  4  3  1  0  0  0  0
  4  5  1  0  0  0  0
  5  6  1  0  0  0  0
  5 12  1  0  0  0  0
  6 14  1  6  0  0  0
  6 34  1  0  0  0  0
  7  2  1  0  0  0  0
 10  3  1  0  0  0  0
 13  5  1  0  0  0  0
 16 15  1  0  0  0  0
 17 27  1  0  0  0  0
 17 16  2  0  0  0  0
 18 17  1  0  0  0  0
 19 18  2  0  0  0  0
 19 20  1  0  0  0  0
 20 21  2  0  0  0  0
 21 16  1  0  0  0  0
 21  1  1  0  0  0  0
 22 18  1  0  0  0  0
 23 19  1  0  0  0  0
 24 20  1  0  0  0  0
 25 30  1  0  0  0  0
 26 25  2  0  0  0  0
 26 27  1  0  0  0  0
 27 28  2  0  0  0  0
 28 29  1  0  0  0  0
 29 33  1  0  0  0  0
 30 29  2  0  0  0  0
 31 25  1  0  0  0  0
 32 26  1  0  0  0  0
 34 39  1  0  0  0  0
 34 35  1  0  0  0  0
 35 36  1  0  0  0  0
 36 37  1  0  0  0  0
 38 37  1  0  0  0  0
 39 38  1  0  0  0  0
M  END
>  <minimizedAffinity>
-5.78028393

$$$$

 OpenBabel03272505173D

 39 42  0  0  1  0  0  0  0  0999 V2000
   36.8570   27.1030   32.6600 N   0  0  0  0  0  0  0  0  0  0  0  0
   36.2740   25.9080   32.0250 C   0  0  0  0  0  0  0  0  0  0  0  0
   35.4950   26.3860   30.8320 C   0  0  0  0  0  0  0  0  0  0  0  0
   36.3070   27.2220   30.0620 N   0  0  0  0  0  0  0  0  0  0  0  0
   36.7220   28.4200   30.7040 C   0  0  0  0  0  0  0  0  0  0  0  0
   36.4290   28.3670   32.1840 C   0  0  1  0  0  0  0  0  0  0  0  0
   37.0350   25.1720   31.7430 H   0  0  0  0  0  0  0  0  0  0  0  0
   35.5530   25.4960   32.7690 H   0  0  0  0  0  0  0  0  0  0  0  0
   34.4810   26.7330   31.0730 H   0  0  0  0  0  0  0  0  0  0  0  0
   35.3380   25.4630   30.2280 H   0  0  0  0  0  0  0  0  0  0  0  0
   36.0460   27.3340   29.0630 H   0  0  0  0  0  0  0  0  0  0  0  0
   36.4600   29.3650   30.2170 H   0  0  0  0  0  0  0  0  0  0  0  0
   37.8590   28.3900   30.6060 H   0  0  0  0  0  0  0  0  0  0  0  0
   37.2480   29.1200   32.5630 H   0  0  0  0  0  0  0  0  0  0  0  0
   39.6270   26.6490   31.7640 Cl  0  0  0  0  0  0  0  0  0  0  0  0
   39.1650   26.7770   33.4280 C   0  0  0  0  0  0  0  0  0  0  0  0
   40.1030   26.6630   34.3950 C   0  0  0  0  0  0  0  0  0  0  0  0
   39.6470   26.8180   35.7040 C   0  0  0  0  0  0  0  0  0  0  0  0
   38.3500   27.0690   36.0490 C   0  0  0  0  0  0  0  0  0  0  0  0
   37.4290   27.1750   35.0300 C   0  0  0  0  0  0  0  0  0  0  0  0
   37.8340   27.0260   33.6940 C   0  0  0  0  0  0  0  0  0  0  0  0
   40.3680   26.7360   36.5170 H   0  0  0  0  0  0  0  0  0  0  0  0
   38.0650   27.1800   37.0940 H   0  0  0  0  0  0  0  0  0  0  0  0
   36.4040   27.3700   35.2610 H   0  0  0  0  0  0  0  0  0  0  0  0
   43.3190   24.8320   33.7240 C   0  0  0  0  0  0  0  0  0  0  0  0
   41.9840   25.0800   34.0750 C   0  0  0  0  0  0  0  0  0  0  0  0
   41.4740   26.3890   34.0530 C   0  0  0  0  0  0  0  0  0  0  0  0
   42.3320   27.3950   33.6790 N   0  0  0  0  0  0  0  0  0  0  0  0
   43.6120   27.1270   33.3470 C   0  0  0  0  0  0  0  0  0  0  0  0
   44.1140   25.8650   33.3640 N   0  0  0  0  0  0  0  0  0  0  0  0
   43.7910   23.8630   33.7130 H   0  0  0  0  0  0  0  0  0  0  0  0
   41.5080   24.1660   34.3630 H   0  0  0  0  0  0  0  0  0  0  0  0
   44.1300   28.0400   33.0820 H   0  0  0  0  0  0  0  0  0  0  0  0
   35.2030   29.0240   32.6570 C   0  0  0  0  0  3  0  0  0  0  0  0
   34.7170   30.1650   31.7200 C   0  0  0  0  0  2  0  0  0  0  0  0
   33.3340   30.5540   32.2010 C   0  0  0  0  0  2  0  0  0  0  0  0
   33.4350   31.1940   33.5390 C   0  0  0  0  0  2  0  0  0  0  0  0
   34.1850   30.2940   34.5010 C   0  0  0  0  0  2  0  0  0  0  0  0
   35.4970   29.9260   33.8980 C   0  0  0  0  0  2  0  0  0  0  0  0
  1 21  1  0  0  0  0
  2  1  1  0  0  0  0
  2  8  1  0  0  0  0
  3  9  1  0  0  0  0
  3  2  1  0  0  0  0
  4  5  1  0  0  0  0
  4  3  1  0  0  0  0
  5  6  1  0  0  0  0
  6 14  1  1  0  0  0
  6 34  1  0  0  0  0
  6  1  1  0  0  0  0
  7  2  1  0  0  0  0
 10  3  1  0  0  0  0
 11  4  1  0  0  0  0
 12  5  1  0  0  0  0
 13  5  1  0  0  0  0
 15 16  1  0  0  0  0
 16 21  2  0  0  0  0
 16 17  1  0  0  0  0
 17 18  2  0  0  0  0
 18 19  1  0  0  0  0
 18 22  1  0  0  0  0
 19 23  1  0  0  0  0
 20 24  1  0  0  0  0
 20 19  2  0  0  0  0
 21 20  1  0  0  0  0
 25 26  1  0  0  0  0
 26 32  1  0  0  0  0
 27 26  2  0  0  0  0
 27 17  1  0  0  0  0
 28 27  1  0  0  0  0
 29 30  1  0  0  0  0
 29 28  2  0  0  0  0
 30 25  2  0  0  0  0
 31 25  1  0  0  0  0
 33 29  1  0  0  0  0
 34 39  1  0  0  0  0
 35 36  1  0  0  0  0
 35 34  1  0  0  0  0
 36 37  1  0  0  0  0
 37 38  1  0  0  0  0
 39 38  1  0  0  0  0
M  END
>  <minimizedAffinity>
-5.69499207

$$$$

 OpenBabel03272505173D

 39 42  0  0  1  0  0  0  0  0999 V2000
   34.8950   29.8610   32.2560 N   0  0  0  0  0  0  0  0  0  0  0  0
   33.6780   29.2630   32.8310 C   0  0  0  0  0  0  0  0  0  0  0  0
   32.6500   30.3550   32.9060 C   0  0  0  0  0  0  0  0  0  0  0  0
   32.5600   30.9830   31.6620 N   0  0  0  0  0  0  0  0  0  0  0  0
   33.7400   31.6510   31.2350 C   0  0  0  0  0  0  0  0  0  0  0  0
   34.9170   31.2690   32.1000 C   0  0  1  0  0  0  0  0  0  0  0  0
   33.3180   28.4070   32.2490 H   0  0  0  0  0  0  0  0  0  0  0  0
   33.9520   28.9710   33.8720 H   0  0  0  0  0  0  0  0  0  0  0  0
   32.7390   30.9910   33.7980 H   0  0  0  0  0  0  0  0  0  0  0  0
   31.6890   29.8090   33.0490 H   0  0  0  0  0  0  0  0  0  0  0  0
   31.6770   31.4920   31.4590 H   0  0  0  0  0  0  0  0  0  0  0  0
   33.6580   32.7200   31.0160 H   0  0  0  0  0  0  0  0  0  0  0  0
   33.9420   31.1950   30.2080 H   0  0  0  0  0  0  0  0  0  0  0  0
   35.7850   31.4710   31.3340 H   0  0  0  0  0  0  0  0  0  0  0  0
   36.1200   28.1640   34.3310 Cl  0  0  0  0  0  0  0  0  0  0  0  0
   36.7110   28.2730   32.7070 C   0  0  0  0  0  0  0  0  0  0  0  0
   37.7950   27.5530   32.3390 C   0  0  0  0  0  0  0  0  0  0  0  0
   38.1770   27.6730   31.0020 C   0  0  0  0  0  0  0  0  0  0  0  0
   37.5380   28.4500   30.0790 C   0  0  0  0  0  0  0  0  0  0  0  0
   36.4390   29.1650   30.5010 C   0  0  0  0  0  0  0  0  0  0  0  0
   36.0120   29.0820   31.8360 C   0  0  0  0  0  0  0  0  0  0  0  0
   39.0450   27.1100   30.6600 H   0  0  0  0  0  0  0  0  0  0  0  0
   37.8910   28.4940   29.0510 H   0  0  0  0  0  0  0  0  0  0  0  0
   35.9130   29.7850   29.8070 H   0  0  0  0  0  0  0  0  0  0  0  0
   40.3030   26.3900   34.8880 C   0  0  0  0  0  0  0  0  0  0  0  0
   39.6500   27.1950   33.9450 C   0  0  0  0  0  0  0  0  0  0  0  0
   38.4890   26.7360   33.2990 C   0  0  0  0  0  0  0  0  0  0  0  0
   38.0360   25.4820   33.6310 N   0  0  0  0  0  0  0  0  0  0  0  0
   38.6850   24.7290   34.5420 C   0  0  0  0  0  0  0  0  0  0  0  0
   39.8070   25.1640   35.1720 N   0  0  0  0  0  0  0  0  0  0  0  0
   41.1950   26.6610   35.4300 H   0  0  0  0  0  0  0  0  0  0  0  0
   40.1860   28.1120   33.8150 H   0  0  0  0  0  0  0  0  0  0  0  0
   38.1820   23.7790   34.6700 H   0  0  0  0  0  0  0  0  0  0  0  0
   35.2850   32.1860   33.1880 C   0  0  0  0  0  3  0  0  0  0  0  0
   36.6150   32.9480   32.9270 C   0  0  0  0  0  2  0  0  0  0  0  0
   36.7120   34.0170   33.9950 C   0  0  0  0  0  2  0  0  0  0  0  0
   36.9090   33.3760   35.3230 C   0  0  0  0  0  2  0  0  0  0  0  0
   35.8220   32.3520   35.5820 C   0  0  0  0  0  2  0  0  0  0  0  0
   35.7760   31.3940   34.4410 C   0  0  0  0  0  2  0  0  0  0  0  0
  1  2  1  0  0  0  0
  2  3  1  0  0  0  0
  2  8  1  0  0  0  0
  3 10  1  0  0  0  0
  3  9  1  0  0  0  0
  4  3  1  0  0  0  0
  5  4  1  0  0  0  0
  5  6  1  0  0  0  0
  6 14  1  6  0  0  0
  6  1  1  0  0  0  0
  6 34  1  0  0  0  0
  7  2  1  0  0  0  0
 11  4  1  0  0  0  0
 12  5  1  0  0  0  0
 13  5  1  0  0  0  0
 16 15  1  0  0  0  0
 17 16  1  0  0  0  0
 17 27  1  0  0  0  0
 18 17  2  0  0  0  0
 19 20  2  0  0  0  0
 19 18  1  0  0  0  0
 20 21  1  0  0  0  0
 21  1  1  0  0  0  0
 21 16  2  0  0  0  0
 22 18  1  0  0  0  0
 23 19  1  0  0  0  0
 24 20  1  0  0  0  0
 25 30  1  0  0  0  0
 25 31  1  0  0  0  0
 26 25  2  0  0  0  0
 27 28  2  0  0  0  0
 27 26  1  0  0  0  0
 28 29  1  0  0  0  0
 29 33  1  0  0  0  0
 29 30  2  0  0  0  0
 32 26  1  0  0  0  0
 34 39  1  0  0  0  0
 35 34  1  0  0  0  0
 35 36  1  0  0  0  0
 36 37  1  0  0  0  0
 37 38  1  0  0  0  0
 39 38  1  0  0  0  0
M  END
>  <minimizedAffinity>
-5.63858986

$$$$

 OpenBabel03272505173D

 39 42  0  0  1  0  0  0  0  0999 V2000
   38.4100   24.4790   35.0890 N   0  0  0  0  0  0  0  0  0  0  0  0
   37.7790   24.7710   36.3880 C   0  0  0  0  0  0  0  0  0  0  0  0
   37.3990   23.4500   36.9930 C   0  0  0  0  0  0  0  0  0  0  0  0
   38.5060   22.5990   36.9650 N   0  0  0  0  0  0  0  0  0  0  0  0
   38.9760   22.2590   35.6680 C   0  0  0  0  0  0  0  0  0  0  0  0
   38.3450   23.1440   34.6190 C   0  0  1  0  0  0  0  0  0  0  0  0
   38.4350   25.3460   37.0510 H   0  0  0  0  0  0  0  0  0  0  0  0
   36.8430   25.3260   36.1470 H   0  0  0  0  0  0  0  0  0  0  0  0
   36.4380   23.0550   36.6330 H   0  0  0  0  0  0  0  0  0  0  0  0
   37.2170   23.6890   38.0660 H   0  0  0  0  0  0  0  0  0  0  0  0
   38.5070   21.8140   37.6460 H   0  0  0  0  0  0  0  0  0  0  0  0
   39.0120   21.1960   35.4110 H   0  0  0  0  0  0  0  0  0  0  0  0
   40.0790   22.5510   35.7040 H   0  0  0  0  0  0  0  0  0  0  0  0
   39.1790   23.0780   33.7930 H   0  0  0  0  0  0  0  0  0  0  0  0
   36.7870   25.8600   33.0540 Cl  0  0  0  0  0  0  0  0  0  0  0  0
   38.4710   26.1670   33.3090 C   0  0  0  0  0  0  0  0  0  0  0  0
   39.1080   27.0850   32.5460 C   0  0  0  0  0  0  0  0  0  0  0  0
   40.4540   27.2950   32.8470 C   0  0  0  0  0  0  0  0  0  0  0  0
   41.1380   26.6470   33.8350 C   0  0  0  0  0  0  0  0  0  0  0  0
   40.4480   25.7210   34.5850 C   0  0  0  0  0  0  0  0  0  0  0  0
   39.0920   25.4690   34.3240 C   0  0  0  0  0  0  0  0  0  0  0  0
   41.0080   28.0270   32.2600 H   0  0  0  0  0  0  0  0  0  0  0  0
   42.1900   26.8640   34.0160 H   0  0  0  0  0  0  0  0  0  0  0  0
   40.9500   25.1930   35.3670 H   0  0  0  0  0  0  0  0  0  0  0  0
   38.0560   28.2590   29.1320 C   0  0  0  0  0  0  0  0  0  0  0  0
   38.7600   27.5930   30.1450 C   0  0  0  0  0  0  0  0  0  0  0  0
   38.4070   27.7710   31.4930 C   0  0  0  0  0  0  0  0  0  0  0  0
   37.3590   28.6160   31.7640 N   0  0  0  0  0  0  0  0  0  0  0  0
   36.6990   29.2450   30.7710 C   0  0  0  0  0  0  0  0  0  0  0  0
   37.0310   29.0780   29.4640 N   0  0  0  0  0  0  0  0  0  0  0  0
   38.2570   28.1800   28.0760 H   0  0  0  0  0  0  0  0  0  0  0  0
   39.5530   27.0160   29.7160 H   0  0  0  0  0  0  0  0  0  0  0  0
   35.9090   29.8640   31.1770 H   0  0  0  0  0  0  0  0  0  0  0  0
   37.1860   22.6110   33.8900 C   0  0  0  0  0  3  0  0  0  0  0  0
   36.9330   21.1000   34.1580 C   0  0  0  0  0  2  0  0  0  0  0  0
   35.5820   20.7780   33.5530 C   0  0  0  0  0  2  0  0  0  0  0  0
   35.6650   20.8810   32.0720 C   0  0  0  0  0  2  0  0  0  0  0  0
   36.2080   22.2360   31.6650 C   0  0  0  0  0  2  0  0  0  0  0  0
   37.5020   22.4710   32.3670 C   0  0  0  0  0  2  0  0  0  0  0  0
  1  2  1  0  0  0  0
  2  3  1  0  0  0  0
  2  7  1  0  0  0  0
  3 10  1  0  0  0  0
  4  3  1  0  0  0  0
  4 11  1  0  0  0  0
  5 13  1  0  0  0  0
  5  4  1  0  0  0  0
  6 14  1  6  0  0  0
  6  1  1  0  0  0  0
  6  5  1  0  0  0  0
  8  2  1  0  0  0  0
  9  3  1  0  0  0  0
 12  5  1  0  0  0  0
 15 16  1  0  0  0  0
 16 21  1  0  0  0  0
 17 18  1  0  0  0  0
 17 16  2  0  0  0  0
 18 19  2  0  0  0  0
 19 23  1  0  0  0  0
 19 20  1  0  0  0  0
 20 24  1  0  0  0  0
 21 20  2  0  0  0  0
 21  1  1  0  0  0  0
 22 18  1  0  0  0  0
 25 30  2  0  0  0  0
 25 26  1  0  0  0  0
 26 27  2  0  0  0  0
 27 28  1  0  0  0  0
 27 17  1  0  0  0  0
 29 33  1  0  0  0  0
 29 28  2  0  0  0  0
 30 29  1  0  0  0  0
 31 25  1  0  0  0  0
 32 26  1  0  0  0  0
 34 35  1  0  0  0  0
 34  6  1  0  0  0  0
 36 35  1  0  0  0  0
 37 36  1  0  0  0  0
 38 37  1  0  0  0  0
 38 39  1  0  0  0  0
 39 34  1  0  0  0  0
M  END
>  <minimizedAffinity>
-5.57739115

$$$$

 OpenBabel03272505173D

 39 42  0  0  1  0  0  0  0  0999 V2000
   38.6920   26.5860   33.1510 N   0  0  0  0  0  0  0  0  0  0  0  0
   40.0640   27.0060   33.4850 C   0  0  0  0  0  0  0  0  0  0  0  0
   40.8720   25.7520   33.6610 C   0  0  0  0  0  0  0  0  0  0  0  0
   40.6790   24.9250   32.5510 N   0  0  0  0  0  0  0  0  0  0  0  0
   39.3500   24.4550   32.3710 C   0  0  0  0  0  0  0  0  0  0  0  0
   38.3880   25.2060   33.2610 C   0  0  1  0  0  0  0  0  0  0  0  0
   40.4970   27.6630   32.7230 H   0  0  0  0  0  0  0  0  0  0  0  0
   39.9880   27.5120   34.4750 H   0  0  0  0  0  0  0  0  0  0  0  0
   40.7840   25.3010   34.6590 H   0  0  0  0  0  0  0  0  0  0  0  0
   41.9280   26.1030   33.6060 H   0  0  0  0  0  0  0  0  0  0  0  0
   41.4170   24.2190   32.3620 H   0  0  0  0  0  0  0  0  0  0  0  0
   39.2020   23.3710   32.3460 H   0  0  0  0  0  0  0  0  0  0  0  0
   39.1030   24.7710   31.3020 H   0  0  0  0  0  0  0  0  0  0  0  0
   37.4050   25.0670   32.6320 H   0  0  0  0  0  0  0  0  0  0  0  0
   37.2440   28.0310   35.2720 Cl  0  0  0  0  0  0  0  0  0  0  0  0
   36.9090   28.2160   33.5830 C   0  0  0  0  0  0  0  0  0  0  0  0
   35.9320   29.0610   33.1830 C   0  0  0  0  0  0  0  0  0  0  0  0
   35.7580   29.1760   31.8030 C   0  0  0  0  0  0  0  0  0  0  0  0
   36.4940   28.5040   30.8690 C   0  0  0  0  0  0  0  0  0  0  0  0
   37.4770   27.6540   31.3260 C   0  0  0  0  0  0  0  0  0  0  0  0
   37.6940   27.5000   32.7040 C   0  0  0  0  0  0  0  0  0  0  0  0
   34.9830   29.8460   31.4330 H   0  0  0  0  0  0  0  0  0  0  0  0
   36.3040   28.6440   29.8070 H   0  0  0  0  0  0  0  0  0  0  0  0
   38.0740   27.1100   30.6250 H   0  0  0  0  0  0  0  0  0  0  0  0
   33.0540   30.0960   35.3710 C   0  0  0  0  0  0  0  0  0  0  0  0
   33.8070   29.4030   34.4130 C   0  0  0  0  0  0  0  0  0  0  0  0
   35.1380   29.7690   34.1510 C   0  0  0  0  0  0  0  0  0  0  0  0
   35.6540   30.8240   34.8650 N   0  0  0  0  0  0  0  0  0  0  0  0
   34.9070   31.4740   35.7800 C   0  0  0  0  0  0  0  0  0  0  0  0
   33.6200   31.1260   36.0420 N   0  0  0  0  0  0  0  0  0  0  0  0
   32.0310   29.8830   35.6350 H   0  0  0  0  0  0  0  0  0  0  0  0
   33.2050   28.6450   33.9560 H   0  0  0  0  0  0  0  0  0  0  0  0
   35.4810   32.2700   36.2370 H   0  0  0  0  0  0  0  0  0  0  0  0
   38.0030   24.5730   34.5300 C   0  0  0  0  0  3  0  0  0  0  0  0
   38.7720   25.1380   35.7570 C   0  0  0  0  0  2  0  0  0  0  0  0
   38.0870   24.5780   36.9860 C   0  0  0  0  0  2  0  0  0  0  0  0
   38.3130   23.1090   37.0540 C   0  0  0  0  0  2  0  0  0  0  0  0
   37.8820   22.4470   35.7600 C   0  0  0  0  0  2  0  0  0  0  0  0
   38.5670   23.1190   34.6200 C   0  0  0  0  0  2  0  0  0  0  0  0
  1  6  1  0  0  0  0
  1  2  1  0  0  0  0
  2  3  1  0  0  0  0
  2  8  1  0  0  0  0
  3  9  1  0  0  0  0
  4  3  1  0  0  0  0
  5  4  1  0  0  0  0
  5  6  1  0  0  0  0
  6 14  1  6  0  0  0
  6 34  1  0  0  0  0
  7  2  1  0  0  0  0
 10  3  1  0  0  0  0
 11  4  1  0  0  0  0
 12  5  1  0  0  0  0
 13  5  1  0  0  0  0
 16 15  1  0  0  0  0
 17 16  1  0  0  0  0
 17 27  1  0  0  0  0
 18 17  2  0  0  0  0
 19 20  2  0  0  0  0
 19 18  1  0  0  0  0
 20 21  1  0  0  0  0
 21  1  1  0  0  0  0
 21 16  2  0  0  0  0
 22 18  1  0  0  0  0
 23 19  1  0  0  0  0
 24 20  1  0  0  0  0
 25 31  1  0  0  0  0
 25 30  1  0  0  0  0
 26 25  2  0  0  0  0
 27 26  1  0  0  0  0
 27 28  2  0  0  0  0
 28 29  1  0  0  0  0
 29 30  2  0  0  0  0
 29 33  1  0  0  0  0
 32 26  1  0  0  0  0
 34 39  1  0  0  0  0
 34 35  1  0  0  0  0
 35 36  1  0  0  0  0
 36 37  1  0  0  0  0
 38 37  1  0  0  0  0
 39 38  1  0  0  0  0
M  END
>  <minimizedAffinity>
-5.48489046

$$$$

 OpenBabel03272505173D

 39 42  0  0  1  0  0  0  0  0999 V2000
   39.1180   25.0700   34.2060 N   0  0  0  0  0  0  0  0  0  0  0  0
   40.4620   25.0850   33.6000 C   0  0  0  0  0  0  0  0  0  0  0  0
   40.9150   26.5160   33.5820 C   0  0  0  0  0  0  0  0  0  0  0  0
   40.7510   27.0630   34.8570 N   0  0  0  0  0  0  0  0  0  0  0  0
   39.4090   27.1340   35.3170 C   0  0  0  0  0  0  0  0  0  0  0  0
   38.4930   26.3210   34.4330 C   0  0  1  0  0  0  0  0  0  0  0  0
   41.1690   24.4430   34.1370 H   0  0  0  0  0  0  0  0  0  0  0  0
   40.3170   24.7510   32.5460 H   0  0  0  0  0  0  0  0  0  0  0  0
   40.5390   27.0920   32.7240 H   0  0  0  0  0  0  0  0  0  0  0  0
   42.0140   26.4480   33.4110 H   0  0  0  0  0  0  0  0  0  0  0  0
   41.3320   27.8940   35.0860 H   0  0  0  0  0  0  0  0  0  0  0  0
   39.0250   28.1210   35.5910 H   0  0  0  0  0  0  0  0  0  0  0  0
   39.4470   26.5880   36.3200 H   0  0  0  0  0  0  0  0  0  0  0  0
   37.6410   26.0910   35.2090 H   0  0  0  0  0  0  0  0  0  0  0  0
   38.2910   23.3150   31.9870 Cl  0  0  0  0  0  0  0  0  0  0  0  0
   37.9780   22.9680   33.6540 C   0  0  0  0  0  0  0  0  0  0  0  0
   37.3160   21.8370   33.9900 C   0  0  0  0  0  0  0  0  0  0  0  0
   37.1420   21.6200   35.3580 C   0  0  0  0  0  0  0  0  0  0  0  0
   37.5880   22.4580   36.3390 C   0  0  0  0  0  0  0  0  0  0  0  0
   38.2560   23.5970   35.9480 C   0  0  0  0  0  0  0  0  0  0  0  0
   38.4580   23.8660   34.5850 C   0  0  0  0  0  0  0  0  0  0  0  0
   36.6160   20.7210   35.6760 H   0  0  0  0  0  0  0  0  0  0  0  0
   37.4180   22.2240   37.3880 H   0  0  0  0  0  0  0  0  0  0  0  0
   38.6200   24.2780   36.6880 H   0  0  0  0  0  0  0  0  0  0  0  0
   35.0160   20.0500   31.6120 C   0  0  0  0  0  0  0  0  0  0  0  0
   35.4690   20.9140   32.6180 C   0  0  0  0  0  0  0  0  0  0  0  0
   36.8290   20.9470   32.9700 C   0  0  0  0  0  0  0  0  0  0  0  0
   37.6760   20.1030   32.2940 N   0  0  0  0  0  0  0  0  0  0  0  0
   37.2130   19.2810   31.3300 C   0  0  0  0  0  0  0  0  0  0  0  0
   35.9010   19.2440   30.9810 N   0  0  0  0  0  0  0  0  0  0  0  0
   33.9950   19.9610   31.2780 H   0  0  0  0  0  0  0  0  0  0  0  0
   34.6430   21.4540   33.0330 H   0  0  0  0  0  0  0  0  0  0  0  0
   38.0240   18.6970   30.9130 H   0  0  0  0  0  0  0  0  0  0  0  0
   37.7410   27.0380   33.3940 C   0  0  0  0  0  3  0  0  0  0  0  0
   36.7660   28.1040   33.9670 C   0  0  0  0  0  2  0  0  0  0  0  0
   36.2740   28.9130   32.7840 C   0  0  0  0  0  2  0  0  0  0  0  0
   35.4180   28.0570   31.9190 C   0  0  0  0  0  2  0  0  0  0  0  0
   36.1570   26.7920   31.5290 C   0  0  0  0  0  2  0  0  0  0  0  0
   36.6490   26.1170   32.7630 C   0  0  0  0  0  2  0  0  0  0  0  0
  1  6  1  0  0  0  0
  1 21  1  0  0  0  0
  2  7  1  0  0  0  0
  2  1  1  0  0  0  0
  3  2  1  0  0  0  0
  3  4  1  0  0  0  0
  4 11  1  0  0  0  0
  4  5  1  0  0  0  0
  5 12  1  0  0  0  0
  5 13  1  0  0  0  0
  6 14  1  1  0  0  0
  6  5  1  0  0  0  0
  8  2  1  0  0  0  0
  9  3  1  0  0  0  0
 10  3  1  0  0  0  0
 15 16  1  0  0  0  0
 16 17  2  0  0  0  0
 16 21  1  0  0  0  0
 17 18  1  0  0  0  0
 18 22  1  0  0  0  0
 18 19  2  0  0  0  0
 19 23  1  0  0  0  0
 20 19  1  0  0  0  0
 20 24  1  0  0  0  0
 21 20  2  0  0  0  0
 25 26  1  0  0  0  0
 26 27  2  0  0  0  0
 26 32  1  0  0  0  0
 27 17  1  0  0  0  0
 28 27  1  0  0  0  0
 29 28  2  0  0  0  0
 30 29  1  0  0  0  0
 30 25  2  0  0  0  0
 31 25  1  0  0  0  0
 33 29  1  0  0  0  0
 34 35  1  0  0  0  0
 34  6  1  0  0  0  0
 36 35  1  0  0  0  0
 37 36  1  0  0  0  0
 38 37  1  0  0  0  0
 38 39  1  0  0  0  0
 39 34  1  0  0  0  0
M  END
>  <minimizedAffinity>
-5.41527128

$$$$

 OpenBabel03272505173D

 39 42  0  0  1  0  0  0  0  0999 V2000
   38.4460   27.1440   31.6210 N   0  0  0  0  0  0  0  0  0  0  0  0
   39.6070   27.1350   32.5280 C   0  0  0  0  0  0  0  0  0  0  0  0
   40.4280   25.9290   32.1720 C   0  0  0  0  0  0  0  0  0  0  0  0
   40.6570   25.9240   30.7940 N   0  0  0  0  0  0  0  0  0  0  0  0
   39.4950   25.7980   29.9870 C   0  0  0  0  0  0  0  0  0  0  0  0
   38.2440   26.0000   30.8100 C   0  0  1  0  0  0  0  0  0  0  0  0
   40.1940   28.0570   32.4640 H   0  0  0  0  0  0  0  0  0  0  0  0
   39.1870   26.9810   33.5490 H   0  0  0  0  0  0  0  0  0  0  0  0
   40.0770   24.9970   32.6370 H   0  0  0  0  0  0  0  0  0  0  0  0
   41.4140   26.1250   32.6510 H   0  0  0  0  0  0  0  0  0  0  0  0
   41.4770   25.3790   30.4600 H   0  0  0  0  0  0  0  0  0  0  0  0
   39.4560   24.9530   29.2930 H   0  0  0  0  0  0  0  0  0  0  0  0
   39.5620   26.6990   29.2890 H   0  0  0  0  0  0  0  0  0  0  0  0
   37.5180   26.3620   29.9600 H   0  0  0  0  0  0  0  0  0  0  0  0
   36.7490   27.6440   33.9780 Cl  0  0  0  0  0  0  0  0  0  0  0  0
   36.6760   28.5840   32.5250 C   0  0  0  0  0  0  0  0  0  0  0  0
   35.8000   29.6100   32.4340 C   0  0  0  0  0  0  0  0  0  0  0  0
   35.8370   30.3350   31.2430 C   0  0  0  0  0  0  0  0  0  0  0  0
   36.6800   30.0740   30.2010 C   0  0  0  0  0  0  0  0  0  0  0  0
   37.5540   29.0180   30.3400 C   0  0  0  0  0  0  0  0  0  0  0  0
   37.5580   28.2540   31.5180 C   0  0  0  0  0  0  0  0  0  0  0  0
   35.1500   31.1720   31.1250 H   0  0  0  0  0  0  0  0  0  0  0  0
   36.6560   30.6840   29.3010 H   0  0  0  0  0  0  0  0  0  0  0  0
   38.2300   28.7830   29.5460 H   0  0  0  0  0  0  0  0  0  0  0  0
   34.3260   31.0930   35.5600 C   0  0  0  0  0  0  0  0  0  0  0  0
   35.2270   30.8180   34.5220 C   0  0  0  0  0  0  0  0  0  0  0  0
   34.8950   29.8950   33.5170 C   0  0  0  0  0  0  0  0  0  0  0  0
   33.6670   29.2840   33.6010 N   0  0  0  0  0  0  0  0  0  0  0  0
   32.8190   29.5670   34.6110 C   0  0  0  0  0  0  0  0  0  0  0  0
   33.1310   30.4590   35.5870 N   0  0  0  0  0  0  0  0  0  0  0  0
   34.4980   31.7840   36.3690 H   0  0  0  0  0  0  0  0  0  0  0  0
   36.1300   31.3740   34.6680 H   0  0  0  0  0  0  0  0  0  0  0  0
   31.9080   28.9930   34.5090 H   0  0  0  0  0  0  0  0  0  0  0  0
   37.5440   24.7990   31.2850 C   0  0  0  0  0  3  0  0  0  0  0  0
   37.9050   23.5180   30.4810 C   0  0  0  0  0  2  0  0  0  0  0  0
   37.3140   22.3520   31.2450 C   0  0  0  0  0  2  0  0  0  0  0  0
   35.8300   22.4200   31.1830 C   0  0  0  0  0  2  0  0  0  0  0  0
   35.3410   23.7730   31.6610 C   0  0  0  0  0  2  0  0  0  0  0  0
   36.0350   24.8400   30.8860 C   0  0  0  0  0  2  0  0  0  0  0  0
  1  2  1  0  0  0  0
  2  8  1  0  0  0  0
  3  2  1  0  0  0  0
  3  9  1  0  0  0  0
  3 10  1  0  0  0  0
  4  3  1  0  0  0  0
  5  4  1  0  0  0  0
  5  6  1  0  0  0  0
  6 14  1  6  0  0  0
  6 34  1  0  0  0  0
  6  1  1  0  0  0  0
  7  2  1  0  0  0  0
 11  4  1  0  0  0  0
 12  5  1  0  0  0  0
 13  5  1  0  0  0  0
 16 15  1  0  0  0  0
 17 16  1  0  0  0  0
 17 27  1  0  0  0  0
 18 17  2  0  0  0  0
 19 20  2  0  0  0  0
 19 18  1  0  0  0  0
 20 21  1  0  0  0  0
 21  1  1  0  0  0  0
 21 16  2  0  0  0  0
 22 18  1  0  0  0  0
 23 19  1  0  0  0  0
 24 20  1  0  0  0  0
 25 30  1  0  0  0  0
 25 31  1  0  0  0  0
 26 32  1  0  0  0  0
 26 25  2  0  0  0  0
 27 28  2  0  0  0  0
 27 26  1  0  0  0  0
 28 29  1  0  0  0  0
 29 30  2  0  0  0  0
 33 29  1  0  0  0  0
 35 36  1  0  0  0  0
 35 34  1  0  0  0  0
 37 36  1  0  0  0  0
 37 38  1  0  0  0  0
 39 34  1  0  0  0  0
 39 38  1  0  0  0  0
M  END
>  <minimizedAffinity>
-5.39815378

$$$$
