
     RDKit          3D

 29 30  0  0  0  0  0  0  0  0999 V2000
   38.3055   31.2329   50.1255 C   0  0  0  0  0  0  0  0  0  0  0  0
   38.2906   31.6102   48.7735 C   0  0  0  0  0  0  0  0  0  0  0  0
   37.2087   31.2311   47.9999 C   0  0  0  0  0  0  0  0  0  0  0  0
   36.2029   30.5060   48.5876 N   0  0  0  0  0  0  0  0  0  0  0  0
   36.2600   30.1652   49.8940 C   0  0  0  0  0  0  0  0  0  0  0  0
   37.3039   30.5300   50.6443 N   0  0  0  0  0  0  0  0  0  0  0  0
   35.1329   29.3831   50.4466 C   0  0  0  0  0  0  0  0  0  0  0  0
   35.2641   29.1288   51.8044 F   0  0  0  0  0  0  0  0  0  0  0  0
   33.9279   30.0594   50.2938 F   0  0  0  0  0  0  0  0  0  0  0  0
   34.9525   28.1652   49.8345 F   0  0  0  0  0  0  0  0  0  0  0  0
   39.1093   31.4846   50.8049 H   0  0  0  0  0  0  0  0  0  0  0  0
   39.1416   32.1670   48.4755 H   0  0  0  0  0  0  0  0  0  0  0  0
   37.2077   31.6291   46.6019 C   0  0  0  0  0  0  0  0  0  0  0  0
   37.3941   33.0664   46.2960 C   0  0  0  0  0  0  0  0  0  0  0  0
   38.7402   33.3702   45.6689 C   0  0  0  0  0  0  0  0  0  0  0  0
   38.7896   32.6405   44.3425 C   0  0  0  0  0  0  0  0  0  0  0  0
   38.2924   31.2230   44.4470 C   0  0  0  0  0  0  0  0  0  0  0  0
   38.3358   30.8552   45.9054 C   0  0  0  0  0  0  0  0  0  0  0  0
   36.2500   31.2232   46.1600 H   0  0  0  0  0  0  0  0  0  0  0  0
   36.6496   33.3420   45.5017 H   0  0  0  0  0  0  0  0  0  0  0  0
   37.1609   33.7525   47.1306 H   0  0  0  0  0  0  0  0  0  0  0  0
   39.5954   33.1164   46.3185 H   0  0  0  0  0  0  0  0  0  0  0  0
   38.7384   34.4731   45.4265 H   0  0  0  0  0  0  0  0  0  0  0  0
   39.8189   32.6385   43.9213 H   0  0  0  0  0  0  0  0  0  0  0  0
   38.1622   33.2033   43.6197 H   0  0  0  0  0  0  0  0  0  0  0  0
   38.9433   30.5265   43.8867 H   0  0  0  0  0  0  0  0  0  0  0  0
   37.2285   31.1854   44.1288 H   0  0  0  0  0  0  0  0  0  0  0  0
   38.1322   29.7610   46.0030 H   0  0  0  0  0  0  0  0  0  0  0  0
   39.3134   31.0957   46.3288 H   0  0  0  0  0  0  0  0  0  0  0  0
  1  6  2  0
  2  1  1  0
  3  4  1  0
  3  2  2  0
  4  5  2  0
  5  7  1  0
  5  6  1  0
  7  8  1  0
  9  7  1  0
 10  7  1  0
  1 11  1  0
  2 12  1  0
 13 14  1  0
 14 15  1  0
 15 16  1  0
 16 17  1  0
 17 18  1  0
 18 13  1  0
 13 19  1  0
 14 20  1  0
 14 21  1  0
 15 22  1  0
 15 23  1  0
 16 24  1  0
 16 25  1  0
 17 26  1  0
 17 27  1  0
 18 28  1  0
 18 29  1  0
  3 13  1  0
M  ISO  2  11  14  12  14
M  END
>  <DihAtoms>  (1) 
3,2,12,13

>  <DihDeg>  (1) 
126.24945347459172

$$$$
