
 OpenBabel03272507353D

 33 36  0  0  1  0  0  0  0  0999 V2000
   37.9930   25.5340   36.0190 C   0  0  0  0  0  0  0  0  0  0  0  0
   38.5060   26.7610   36.3670 C   0  0  0  0  0  0  0  0  0  0  0  0
   38.1160   27.6770   35.3780 C   0  0  0  0  0  0  0  0  0  0  0  0
   37.3810   26.9360   34.4790 C   0  0  0  0  0  0  0  0  0  0  0  0
   37.3360   25.6880   34.8940 O   0  0  0  0  0  0  0  0  0  0  0  0
   39.1070   27.0650   37.2200 H   0  0  0  0  0  0  0  0  0  0  0  0
   38.3170   28.7280   35.2880 H   0  0  0  0  0  0  0  0  0  0  0  0
   38.2040   24.3470   36.8280 C   0  0  0  0  0  0  0  0  0  0  0  0
   37.4000   24.0770   37.7340 O   0  0  0  0  0  0  0  0  0  0  0  0
   39.3560   23.5460   36.5220 C   0  0  0  0  0  0  0  0  0  0  0  0
   39.8910   22.7860   37.5430 C   0  0  0  0  0  0  0  0  0  0  0  0
   41.0100   21.9970   37.2820 C   0  0  0  0  0  0  0  0  0  0  0  0
   41.5330   22.0160   36.0050 N   0  0  0  0  0  0  0  0  0  0  0  0
   40.9870   22.7650   35.0410 C   0  0  0  0  0  0  0  0  0  0  0  0
   39.9110   23.5240   35.2900 N   0  0  0  0  0  0  0  0  0  0  0  0
   39.5060   22.7430   38.5670 H   0  0  0  0  0  0  0  0  0  0  0  0
   41.4810   21.3820   38.0210 H   0  0  0  0  0  0  0  0  0  0  0  0
   41.4970   22.6870   34.0810 H   0  0  0  0  0  0  0  0  0  0  0  0
   36.7480   27.4450   33.2620 C   0  0  0  0  0  0  0  0  0  0  0  0
   36.6230   26.6510   32.2710 O   0  0  0  0  0  0  0  0  0  0  0  0
   36.2730   28.8680   33.1900 C   0  0  1  0  0  0  0  0  0  0  0  0
   34.7350   28.8890   32.8210 C   0  0  0  0  0  0  0  0  0  0  0  0
   35.2680   29.3480   34.1260 C   0  0  2  0  0  0  0  0  0  0  0  0
   36.8130   29.4370   32.4050 H   0  0  0  0  0  0  0  0  0  0  0  0
   34.2200   27.9310   32.7680 H   0  0  0  0  0  0  0  0  0  0  0  0
   34.4380   29.5910   32.0450 H   0  0  0  0  0  0  0  0  0  0  0  0
   35.0800   28.6300   34.9820 H   0  0  0  0  0  0  0  0  0  0  0  0
   35.0140   30.7640   34.4620 C   0  0  0  0  0  3  0  0  0  0  0  0
   33.6090   31.1470   34.8030 C   0  0  0  0  0  2  0  0  0  0  0  0
   33.2970   31.1240   36.2680 C   0  0  0  0  0  2  0  0  0  0  0  0
   34.1700   32.0620   37.0680 C   0  0  0  0  0  2  0  0  0  0  0  0
   35.4850   32.3380   36.3790 C   0  0  0  0  0  2  0  0  0  0  0  0
   35.9130   31.1200   35.6290 C   0  0  0  0  0  2  0  0  0  0  0  0
  1  2  2  0  0  0  0
  1  8  1  0  0  0  0
  2  6  1  0  0  0  0
  3  2  1  0  0  0  0
  4  5  1  0  0  0  0
  4  3  2  0  0  0  0
  5  1  1  0  0  0  0
  7  3  1  0  0  0  0
  8  9  2  0  0  0  0
 10  8  1  0  0  0  0
 10 11  1  0  0  0  0
 11 16  1  0  0  0  0
 12 11  2  0  0  0  0
 12 17  1  0  0  0  0
 13 12  1  0  0  0  0
 14 15  1  0  0  0  0
 14 13  2  0  0  0  0
 15 10  2  0  0  0  0
 18 14  1  0  0  0  0
 19  4  1  0  0  0  0
 20 19  2  0  0  0  0
 21 24  1  6  0  0  0
 21 19  1  0  0  0  0
 21 23  1  0  0  0  0
 22 21  1  0  0  0  0
 22 23  1  0  0  0  0
 23 28  1  0  0  0  0
 23 27  1  1  0  0  0
 25 22  1  0  0  0  0
 26 22  1  0  0  0  0
 28 29  1  0  0  0  0
 28 33  1  0  0  0  0
 29 30  1  0  0  0  0
 30 31  1  0  0  0  0
 32 31  1  0  0  0  0
 33 32  1  0  0  0  0
M  END
>  <minimizedAffinity>
-6.27909803

$$$$

 OpenBabel03272507353D

 33 36  0  0  1  0  0  0  0  0999 V2000
   36.6670   24.0040   31.3570 C   0  0  0  0  0  0  0  0  0  0  0  0
   35.3250   23.9910   31.0590 C   0  0  0  0  0  0  0  0  0  0  0  0
   34.9030   25.3250   30.9520 C   0  0  0  0  0  0  0  0  0  0  0  0
   36.0340   26.0740   31.1960 C   0  0  0  0  0  0  0  0  0  0  0  0
   37.0410   25.2590   31.4290 O   0  0  0  0  0  0  0  0  0  0  0  0
   34.6360   23.1620   30.9140 H   0  0  0  0  0  0  0  0  0  0  0  0
   33.9340   25.7310   30.7330 H   0  0  0  0  0  0  0  0  0  0  0  0
   37.4340   22.7840   31.5390 C   0  0  0  0  0  0  0  0  0  0  0  0
   38.6500   22.7880   31.2970 O   0  0  0  0  0  0  0  0  0  0  0  0
   36.7170   21.6270   31.9970 C   0  0  0  0  0  0  0  0  0  0  0  0
   36.4360   20.6450   31.0670 C   0  0  0  0  0  0  0  0  0  0  0  0
   35.7410   19.5080   31.4760 C   0  0  0  0  0  0  0  0  0  0  0  0
   35.3640   19.4200   32.8010 N   0  0  0  0  0  0  0  0  0  0  0  0
   35.6540   20.3920   33.6720 C   0  0  0  0  0  0  0  0  0  0  0  0
   36.3230   21.4860   33.2820 N   0  0  0  0  0  0  0  0  0  0  0  0
   36.7170   20.6770   30.0100 H   0  0  0  0  0  0  0  0  0  0  0  0
   35.4860   18.7060   30.8150 H   0  0  0  0  0  0  0  0  0  0  0  0
   35.3000   20.1960   34.6840 H   0  0  0  0  0  0  0  0  0  0  0  0
   36.1110   27.5350   31.1950 C   0  0  0  0  0  0  0  0  0  0  0  0
   36.8060   28.1000   30.2860 O   0  0  0  0  0  0  0  0  0  0  0  0
   35.3960   28.3350   32.2460 C   0  0  1  0  0  0  0  0  0  0  0  0
   36.2730   28.3760   33.5610 C   0  0  0  0  0  0  0  0  0  0  0  0
   35.9780   29.5730   32.7390 C   0  0  2  0  0  0  0  0  0  0  0  0
   34.4190   27.8770   32.5080 H   0  0  0  0  0  0  0  0  0  0  0  0
   37.2680   27.9350   33.5130 H   0  0  0  0  0  0  0  0  0  0  0  0
   35.7480   28.1770   34.4930 H   0  0  0  0  0  0  0  0  0  0  0  0
   36.8510   29.9340   32.1140 H   0  0  0  0  0  0  0  0  0  0  0  0
   35.2400   30.6560   33.4220 C   0  0  0  0  0  3  0  0  0  0  0  0
   35.0490   30.5290   34.9000 C   0  0  0  0  0  2  0  0  0  0  0  0
   36.0930   31.2190   35.7230 C   0  0  0  0  0  2  0  0  0  0  0  0
   36.1610   32.7050   35.4570 C   0  0  0  0  0  2  0  0  0  0  0  0
   35.6450   33.0590   34.0840 C   0  0  0  0  0  2  0  0  0  0  0  0
   35.9710   31.9530   33.1350 C   0  0  0  0  0  2  0  0  0  0  0  0
  1  5  1  0  0  0  0
  1  8  1  0  0  0  0
  2  1  2  0  0  0  0
  3  2  1  0  0  0  0
  3  4  2  0  0  0  0
  4  5  1  0  0  0  0
  6  2  1  0  0  0  0
  7  3  1  0  0  0  0
  8 10  1  0  0  0  0
  9  8  2  0  0  0  0
 10 15  1  0  0  0  0
 11 12  1  0  0  0  0
 11 10  2  0  0  0  0
 12 13  2  0  0  0  0
 13 14  1  0  0  0  0
 14 18  1  0  0  0  0
 15 14  2  0  0  0  0
 16 11  1  0  0  0  0
 17 12  1  0  0  0  0
 19  4  1  0  0  0  0
 19 21  1  0  0  0  0
 20 19  2  0  0  0  0
 21 24  1  1  0  0  0
 21 23  1  0  0  0  0
 21 22  1  0  0  0  0
 22 26  1  0  0  0  0
 23 27  1  6  0  0  0
 23 28  1  0  0  0  0
 23 22  1  0  0  0  0
 25 22  1  0  0  0  0
 28 29  1  0  0  0  0
 29 30  1  0  0  0  0
 31 30  1  0  0  0  0
 32 31  1  0  0  0  0
 33 28  1  0  0  0  0
 33 32  1  0  0  0  0
M  END
>  <minimizedAffinity>
-5.76786041

$$$$

 OpenBabel03272507353D

 33 36  0  0  1  0  0  0  0  0999 V2000
   38.2240   27.1150   34.0040 C   0  0  0  0  0  0  0  0  0  0  0  0
   38.4920   27.2210   32.6590 C   0  0  0  0  0  0  0  0  0  0  0  0
   37.4630   27.9820   32.0830 C   0  0  0  0  0  0  0  0  0  0  0  0
   36.6240   28.2940   33.1310 C   0  0  0  0  0  0  0  0  0  0  0  0
   37.1080   27.7650   34.2350 O   0  0  0  0  0  0  0  0  0  0  0  0
   39.3120   26.8290   32.0640 H   0  0  0  0  0  0  0  0  0  0  0  0
   37.3100   28.2830   31.0640 H   0  0  0  0  0  0  0  0  0  0  0  0
   39.0930   26.3880   34.9130 C   0  0  0  0  0  0  0  0  0  0  0  0
   40.2310   26.8230   35.1440 O   0  0  0  0  0  0  0  0  0  0  0  0
   38.5660   25.1870   35.4970 C   0  0  0  0  0  0  0  0  0  0  0  0
   38.4810   24.0720   34.6860 C   0  0  0  0  0  0  0  0  0  0  0  0
   37.9730   22.8880   35.2190 C   0  0  0  0  0  0  0  0  0  0  0  0
   37.5760   22.8890   36.5410 N   0  0  0  0  0  0  0  0  0  0  0  0
   37.6740   23.9900   37.2950 C   0  0  0  0  0  0  0  0  0  0  0  0
   38.1620   25.1290   36.7850 N   0  0  0  0  0  0  0  0  0  0  0  0
   38.7840   24.0300   33.6360 H   0  0  0  0  0  0  0  0  0  0  0  0
   37.8750   21.9840   34.6550 H   0  0  0  0  0  0  0  0  0  0  0  0
   37.3270   23.8540   38.3190 H   0  0  0  0  0  0  0  0  0  0  0  0
   35.3960   29.0840   33.0400 C   0  0  0  0  0  0  0  0  0  0  0  0
   34.4460   28.6380   32.3140 O   0  0  0  0  0  0  0  0  0  0  0  0
   35.2730   30.3860   33.7780 C   0  0  1  0  0  0  0  0  0  0  0  0
   34.1440   30.2610   34.8790 C   0  0  0  0  0  0  0  0  0  0  0  0
   35.5790   30.4490   35.1990 C   0  0  2  0  0  0  0  0  0  0  0  0
   34.9850   31.2130   33.0960 H   0  0  0  0  0  0  0  0  0  0  0  0
   33.6950   29.2790   35.0260 H   0  0  0  0  0  0  0  0  0  0  0  0
   33.4330   31.0820   34.9310 H   0  0  0  0  0  0  0  0  0  0  0  0
   36.0960   29.5170   35.5830 H   0  0  0  0  0  0  0  0  0  0  0  0
   35.9150   31.6760   35.9510 C   0  0  0  0  0  3  0  0  0  0  0  0
   36.3130   32.8800   35.1570 C   0  0  0  0  0  2  0  0  0  0  0  0
   35.1870   33.8180   34.8450 C   0  0  0  0  0  2  0  0  0  0  0  0
   34.5180   34.3630   36.0850 C   0  0  0  0  0  2  0  0  0  0  0  0
   34.6900   33.4460   37.2720 C   0  0  0  0  0  2  0  0  0  0  0  0
   34.7100   32.0290   36.8000 C   0  0  0  0  0  2  0  0  0  0  0  0
  1  5  1  0  0  0  0
  1  8  1  0  0  0  0
  2  1  2  0  0  0  0
  3  2  1  0  0  0  0
  3  4  2  0  0  0  0
  4  5  1  0  0  0  0
  6  2  1  0  0  0  0
  7  3  1  0  0  0  0
  8  9  2  0  0  0  0
  8 10  1  0  0  0  0
 10 15  1  0  0  0  0
 11 12  1  0  0  0  0
 11 10  2  0  0  0  0
 12 13  2  0  0  0  0
 13 14  1  0  0  0  0
 14 18  1  0  0  0  0
 15 14  2  0  0  0  0
 16 11  1  0  0  0  0
 17 12  1  0  0  0  0
 19  4  1  0  0  0  0
 19 21  1  0  0  0  0
 20 19  2  0  0  0  0
 21 24  1  6  0  0  0
 21 22  1  0  0  0  0
 21 23  1  0  0  0  0
 22 26  1  0  0  0  0
 22 25  1  0  0  0  0
 22 23  1  0  0  0  0
 23 27  1  1  0  0  0
 23 28  1  0  0  0  0
 28 33  1  0  0  0  0
 29 28  1  0  0  0  0
 30 29  1  0  0  0  0
 30 31  1  0  0  0  0
 31 32  1  0  0  0  0
 33 32  1  0  0  0  0
M  END
>  <minimizedAffinity>
-5.75294542

$$$$

 OpenBabel03272507353D

 33 36  0  0  1  0  0  0  0  0999 V2000
   36.6430   25.6520   32.0870 C   0  0  0  0  0  0  0  0  0  0  0  0
   37.1610   26.8600   31.6810 C   0  0  0  0  0  0  0  0  0  0  0  0
   37.8350   27.4190   32.7780 C   0  0  0  0  0  0  0  0  0  0  0  0
   37.6810   26.5020   33.7940 C   0  0  0  0  0  0  0  0  0  0  0  0
   36.9760   25.4850   33.3450 O   0  0  0  0  0  0  0  0  0  0  0  0
   37.1130   27.3690   30.7220 H   0  0  0  0  0  0  0  0  0  0  0  0
   38.3670   28.3470   32.8650 H   0  0  0  0  0  0  0  0  0  0  0  0
   35.8780   24.7980   31.1960 C   0  0  0  0  0  0  0  0  0  0  0  0
   34.8930   25.2640   30.6040 O   0  0  0  0  0  0  0  0  0  0  0  0
   36.3220   23.4400   31.0560 C   0  0  0  0  0  0  0  0  0  0  0  0
   37.6560   23.2350   30.7590 C   0  0  0  0  0  0  0  0  0  0  0  0
   38.1220   21.9290   30.6140 C   0  0  0  0  0  0  0  0  0  0  0  0
   37.2200   20.8970   30.7750 N   0  0  0  0  0  0  0  0  0  0  0  0
   35.9350   21.1350   31.0620 C   0  0  0  0  0  0  0  0  0  0  0  0
   35.4850   22.3890   31.2020 N   0  0  0  0  0  0  0  0  0  0  0  0
   38.4010   24.0250   30.6240 H   0  0  0  0  0  0  0  0  0  0  0  0
   39.1390   21.6900   30.3840 H   0  0  0  0  0  0  0  0  0  0  0  0
   35.3330   20.2320   31.1640 H   0  0  0  0  0  0  0  0  0  0  0  0
   38.2130   26.6280   35.1520 C   0  0  0  0  0  0  0  0  0  0  0  0
   38.0490   27.7370   35.7610 O   0  0  0  0  0  0  0  0  0  0  0  0
   38.9370   25.4800   35.7940 C   0  0  1  0  0  0  0  0  0  0  0  0
   38.0070   24.8210   36.8910 C   0  0  0  0  0  0  0  0  0  0  0  0
   38.4260   24.1260   35.6510 C   0  0  2  0  0  0  0  0  0  0  0  0
   39.8640   25.8190   36.3020 H   0  0  0  0  0  0  0  0  0  0  0  0
   36.9850   25.1910   36.9690 H   0  0  0  0  0  0  0  0  0  0  0  0
   38.4730   24.6110   37.8510 H   0  0  0  0  0  0  0  0  0  0  0  0
   37.6120   24.0380   34.8690 H   0  0  0  0  0  0  0  0  0  0  0  0
   39.2110   22.8880   35.8420 C   0  0  0  0  0  3  0  0  0  0  0  0
   40.3640   22.6580   34.9180 C   0  0  0  0  0  2  0  0  0  0  0  0
   41.6840   23.1400   35.4390 C   0  0  0  0  0  2  0  0  0  0  0  0
   42.0770   22.4770   36.7390 C   0  0  0  0  0  2  0  0  0  0  0  0
   40.8780   21.9760   37.5050 C   0  0  0  0  0  2  0  0  0  0  0  0
   39.7230   22.8930   37.2690 C   0  0  0  0  0  2  0  0  0  0  0  0
  1  5  1  0  0  0  0
  2  1  2  0  0  0  0
  2  3  1  0  0  0  0
  3  7  1  0  0  0  0
  3  4  2  0  0  0  0
  4 19  1  0  0  0  0
  5  4  1  0  0  0  0
  6  2  1  0  0  0  0
  8  1  1  0  0  0  0
  9  8  2  0  0  0  0
 10  8  1  0  0  0  0
 10 15  1  0  0  0  0
 11 10  2  0  0  0  0
 12 11  1  0  0  0  0
 12 13  2  0  0  0  0
 13 14  1  0  0  0  0
 14 18  1  0  0  0  0
 14 15  2  0  0  0  0
 16 11  1  0  0  0  0
 17 12  1  0  0  0  0
 19 20  2  0  0  0  0
 19 21  1  0  0  0  0
 21 24  1  1  0  0  0
 21 22  1  0  0  0  0
 22 25  1  0  0  0  0
 22 26  1  0  0  0  0
 23 27  1  6  0  0  0
 23 21  1  0  0  0  0
 23 28  1  0  0  0  0
 23 22  1  0  0  0  0
 28 33  1  0  0  0  0
 29 30  1  0  0  0  0
 29 28  1  0  0  0  0
 30 31  1  0  0  0  0
 31 32  1  0  0  0  0
 33 32  1  0  0  0  0
M  END
>  <minimizedAffinity>
-5.68662786

$$$$

 OpenBabel03272507353D

 33 36  0  0  1  0  0  0  0  0999 V2000
   37.9450   25.4650   35.9810 C   0  0  0  0  0  0  0  0  0  0  0  0
   38.4930   26.6760   36.3350 C   0  0  0  0  0  0  0  0  0  0  0  0
   38.1120   27.6120   35.3610 C   0  0  0  0  0  0  0  0  0  0  0  0
   37.3450   26.8980   34.4660 C   0  0  0  0  0  0  0  0  0  0  0  0
   37.2760   25.6470   34.8680 O   0  0  0  0  0  0  0  0  0  0  0  0
   39.1140   26.9560   37.1820 H   0  0  0  0  0  0  0  0  0  0  0  0
   38.3360   28.6580   35.2790 H   0  0  0  0  0  0  0  0  0  0  0  0
   38.1400   24.2640   36.7750 C   0  0  0  0  0  0  0  0  0  0  0  0
   37.3260   23.9880   37.6700 O   0  0  0  0  0  0  0  0  0  0  0  0
   39.2870   23.4580   36.4660 C   0  0  0  0  0  0  0  0  0  0  0  0
   39.8830   22.7760   37.5090 C   0  0  0  0  0  0  0  0  0  0  0  0
   41.0000   21.9840   37.2460 C   0  0  0  0  0  0  0  0  0  0  0  0
   41.4590   21.9210   35.9460 N   0  0  0  0  0  0  0  0  0  0  0  0
   40.8550   22.5970   34.9620 C   0  0  0  0  0  0  0  0  0  0  0  0
   39.7810   23.3580   35.2120 N   0  0  0  0  0  0  0  0  0  0  0  0
   39.5500   22.8000   38.5510 H   0  0  0  0  0  0  0  0  0  0  0  0
   41.5160   21.4270   38.0000 H   0  0  0  0  0  0  0  0  0  0  0  0
   41.3170   22.4580   33.9850 H   0  0  0  0  0  0  0  0  0  0  0  0
   36.7070   27.4360   33.2640 C   0  0  0  0  0  0  0  0  0  0  0  0
   36.4560   28.6870   33.2250 O   0  0  0  0  0  0  0  0  0  0  0  0
   36.3550   26.5300   32.1190 C   0  0  1  0  0  0  0  0  0  0  0  0
   37.3210   26.8240   30.9010 C   0  0  0  0  0  0  0  0  0  0  0  0
   37.3160   25.5440   31.6490 C   0  0  2  0  0  0  0  0  0  0  0  0
   35.3160   26.7020   31.7710 H   0  0  0  0  0  0  0  0  0  0  0  0
   38.1340   27.5290   31.0660 H   0  0  0  0  0  0  0  0  0  0  0  0
   36.8470   26.9190   29.9270 H   0  0  0  0  0  0  0  0  0  0  0  0
   38.1960   25.4130   32.3500 H   0  0  0  0  0  0  0  0  0  0  0  0
   36.9920   24.3380   30.8590 C   0  0  0  0  0  3  0  0  0  0  0  0
   38.0950   23.3540   30.6260 C   0  0  0  0  0  2  0  0  0  0  0  0
   38.1520   22.2380   31.6240 C   0  0  0  0  0  2  0  0  0  0  0  0
   36.8850   21.4160   31.6560 C   0  0  0  0  0  2  0  0  0  0  0  0
   35.6890   22.1990   31.1730 C   0  0  0  0  0  2  0  0  0  0  0  0
   35.8490   23.6320   31.5600 C   0  0  0  0  0  2  0  0  0  0  0  0
  1  2  2  0  0  0  0
  1  8  1  0  0  0  0
  2  6  1  0  0  0  0
  3  2  1  0  0  0  0
  4  5  1  0  0  0  0
  4  3  2  0  0  0  0
  5  1  1  0  0  0  0
  7  3  1  0  0  0  0
  8  9  2  0  0  0  0
 10  8  1  0  0  0  0
 10 11  1  0  0  0  0
 11 16  1  0  0  0  0
 12 11  2  0  0  0  0
 12 17  1  0  0  0  0
 13 12  1  0  0  0  0
 14 15  1  0  0  0  0
 14 13  2  0  0  0  0
 15 10  2  0  0  0  0
 18 14  1  0  0  0  0
 19  4  1  0  0  0  0
 20 19  2  0  0  0  0
 21 24  1  6  0  0  0
 21 19  1  0  0  0  0
 22 25  1  0  0  0  0
 22 23  1  0  0  0  0
 22 21  1  0  0  0  0
 23 21  1  0  0  0  0
 23 27  1  1  0  0  0
 26 22  1  0  0  0  0
 28 33  1  0  0  0  0
 28 23  1  0  0  0  0
 29 28  1  0  0  0  0
 29 30  1  0  0  0  0
 30 31  1  0  0  0  0
 32 33  1  0  0  0  0
 32 31  1  0  0  0  0
M  END
>  <minimizedAffinity>
-5.66122103

$$$$

 OpenBabel03272507353D

 33 36  0  0  1  0  0  0  0  0999 V2000
   38.1200   24.7020   33.8050 C   0  0  0  0  0  0  0  0  0  0  0  0
   39.1860   25.5410   33.5770 C   0  0  0  0  0  0  0  0  0  0  0  0
   38.6750   26.7390   33.0520 C   0  0  0  0  0  0  0  0  0  0  0  0
   37.3120   26.5470   32.9950 C   0  0  0  0  0  0  0  0  0  0  0  0
   37.0330   25.3420   33.4440 O   0  0  0  0  0  0  0  0  0  0  0  0
   40.2510   25.3980   33.7380 H   0  0  0  0  0  0  0  0  0  0  0  0
   39.1830   27.6340   32.7460 H   0  0  0  0  0  0  0  0  0  0  0  0
   38.2870   23.3670   34.3510 C   0  0  0  0  0  0  0  0  0  0  0  0
   38.1280   22.3830   33.6120 O   0  0  0  0  0  0  0  0  0  0  0  0
   38.6320   23.2710   35.7410 C   0  0  0  0  0  0  0  0  0  0  0  0
   37.7470   23.8090   36.6540 C   0  0  0  0  0  0  0  0  0  0  0  0
   38.0510   23.7340   38.0130 C   0  0  0  0  0  0  0  0  0  0  0  0
   39.2320   23.1220   38.3810 N   0  0  0  0  0  0  0  0  0  0  0  0
   40.0640   22.6120   37.4670 C   0  0  0  0  0  0  0  0  0  0  0  0
   39.7740   22.6820   36.1610 N   0  0  0  0  0  0  0  0  0  0  0  0
   36.8030   24.3020   36.4030 H   0  0  0  0  0  0  0  0  0  0  0  0
   37.4160   24.1290   38.7790 H   0  0  0  0  0  0  0  0  0  0  0  0
   40.9590   22.1570   37.8920 H   0  0  0  0  0  0  0  0  0  0  0  0
   36.3290   27.5200   32.5160 C   0  0  0  0  0  0  0  0  0  0  0  0
   35.4970   27.1440   31.6240 O   0  0  0  0  0  0  0  0  0  0  0  0
   36.3160   28.9190   33.0610 C   0  0  1  0  0  0  0  0  0  0  0  0
   36.3460   29.9490   31.8610 C   0  0  0  0  0  0  0  0  0  0  0  0
   35.1920   29.7990   32.7800 C   0  0  2  0  0  0  0  0  0  0  0  0
   37.2070   29.1160   33.6930 H   0  0  0  0  0  0  0  0  0  0  0  0
   36.2730   29.5450   30.8520 H   0  0  0  0  0  0  0  0  0  0  0  0
   37.0490   30.7730   31.9540 H   0  0  0  0  0  0  0  0  0  0  0  0
   34.3060   29.2570   32.3290 H   0  0  0  0  0  0  0  0  0  0  0  0
   34.8290   31.0020   33.5570 C   0  0  0  0  0  3  0  0  0  0  0  0
   34.7340   30.8560   35.0430 C   0  0  0  0  0  2  0  0  0  0  0  0
   35.9900   31.2040   35.7830 C   0  0  0  0  0  2  0  0  0  0  0  0
   36.4280   32.6320   35.5510 C   0  0  0  0  0  2  0  0  0  0  0  0
   35.9130   33.1770   34.2410 C   0  0  0  0  0  2  0  0  0  0  0  0
   35.8520   32.0730   33.2370 C   0  0  0  0  0  2  0  0  0  0  0  0
  1  8  1  0  0  0  0
  2  6  1  0  0  0  0
  2  1  2  0  0  0  0
  3  2  1  0  0  0  0
  4  3  2  0  0  0  0
  4  5  1  0  0  0  0
  5  1  1  0  0  0  0
  7  3  1  0  0  0  0
  8 10  1  0  0  0  0
  9  8  2  0  0  0  0
 10 15  2  0  0  0  0
 10 11  1  0  0  0  0
 11 12  2  0  0  0  0
 12 13  1  0  0  0  0
 12 17  1  0  0  0  0
 14 18  1  0  0  0  0
 14 13  2  0  0  0  0
 15 14  1  0  0  0  0
 16 11  1  0  0  0  0
 19  4  1  0  0  0  0
 19 21  1  0  0  0  0
 20 19  2  0  0  0  0
 21 24  1  1  0  0  0
 22 26  1  0  0  0  0
 22 23  1  0  0  0  0
 22 21  1  0  0  0  0
 23 27  1  6  0  0  0
 23 21  1  0  0  0  0
 23 28  1  0  0  0  0
 25 22  1  0  0  0  0
 28 29  1  0  0  0  0
 29 30  1  0  0  0  0
 31 30  1  0  0  0  0
 32 31  1  0  0  0  0
 33 28  1  0  0  0  0
 33 32  1  0  0  0  0
M  END
>  <minimizedAffinity>
-5.5612793

$$$$

 OpenBabel03272507353D

 33 36  0  0  1  0  0  0  0  0999 V2000
   35.8390   28.6460   33.4710 C   0  0  0  0  0  0  0  0  0  0  0  0
   36.6110   28.2190   34.5260 C   0  0  0  0  0  0  0  0  0  0  0  0
   37.2880   27.0610   34.1110 C   0  0  0  0  0  0  0  0  0  0  0  0
   36.8780   26.8580   32.8110 C   0  0  0  0  0  0  0  0  0  0  0  0
   36.0290   27.8080   32.4800 O   0  0  0  0  0  0  0  0  0  0  0  0
   36.7400   28.6270   35.5250 H   0  0  0  0  0  0  0  0  0  0  0  0
   37.9800   26.4350   34.6410 H   0  0  0  0  0  0  0  0  0  0  0  0
   35.0000   29.8290   33.5530 C   0  0  0  0  0  0  0  0  0  0  0  0
   35.5040   30.9460   33.3640 O   0  0  0  0  0  0  0  0  0  0  0  0
   33.6110   29.6230   33.8550 C   0  0  0  0  0  0  0  0  0  0  0  0
   33.2030   29.8560   35.1530 C   0  0  0  0  0  0  0  0  0  0  0  0
   31.8610   29.6640   35.4820 C   0  0  0  0  0  0  0  0  0  0  0  0
   31.0020   29.2480   34.4860 N   0  0  0  0  0  0  0  0  0  0  0  0
   31.4350   29.0330   33.2400 C   0  0  0  0  0  0  0  0  0  0  0  0
   32.7240   29.2160   32.9200 N   0  0  0  0  0  0  0  0  0  0  0  0
   33.8510   30.1860   35.9700 H   0  0  0  0  0  0  0  0  0  0  0  0
   31.4690   29.8230   36.4660 H   0  0  0  0  0  0  0  0  0  0  0  0
   30.6540   28.7080   32.5520 H   0  0  0  0  0  0  0  0  0  0  0  0
   37.3100   25.7680   31.9360 C   0  0  0  0  0  0  0  0  0  0  0  0
   38.1030   26.0470   30.9760 O   0  0  0  0  0  0  0  0  0  0  0  0
   36.8190   24.3670   32.1660 C   0  0  1  0  0  0  0  0  0  0  0  0
   35.5470   24.1030   31.2640 C   0  0  0  0  0  0  0  0  0  0  0  0
   36.8400   23.4020   31.0790 C   0  0  2  0  0  0  0  0  0  0  0  0
   36.5180   24.2120   33.2230 H   0  0  0  0  0  0  0  0  0  0  0  0
   35.2640   24.8820   30.5580 H   0  0  0  0  0  0  0  0  0  0  0  0
   34.7020   23.6260   31.7550 H   0  0  0  0  0  0  0  0  0  0  0  0
   37.4360   23.7540   30.1820 H   0  0  0  0  0  0  0  0  0  0  0  0
   36.8030   21.9330   31.2350 C   0  0  0  0  0  3  0  0  0  0  0  0
   37.5060   21.3510   32.4200 C   0  0  0  0  0  2  0  0  0  0  0  0
   36.6310   21.1340   33.6170 C   0  0  0  0  0  2  0  0  0  0  0  0
   35.4790   20.1960   33.3380 C   0  0  0  0  0  2  0  0  0  0  0  0
   35.1130   20.1680   31.8740 C   0  0  0  0  0  2  0  0  0  0  0  0
   35.3450   21.5200   31.2820 C   0  0  0  0  0  2  0  0  0  0  0  0
  1  8  1  0  0  0  0
  1  2  2  0  0  0  0
  2  6  1  0  0  0  0
  3  2  1  0  0  0  0
  3  7  1  0  0  0  0
  4  3  2  0  0  0  0
  5  4  1  0  0  0  0
  5  1  1  0  0  0  0
  8 10  1  0  0  0  0
  9  8  2  0  0  0  0
 10 11  1  0  0  0  0
 11 12  2  0  0  0  0
 11 16  1  0  0  0  0
 12 17  1  0  0  0  0
 13 12  1  0  0  0  0
 14 13  2  0  0  0  0
 15 14  1  0  0  0  0
 15 10  2  0  0  0  0
 18 14  1  0  0  0  0
 19 21  1  0  0  0  0
 19  4  1  0  0  0  0
 20 19  2  0  0  0  0
 21 24  1  1  0  0  0
 22 26  1  0  0  0  0
 22 21  1  0  0  0  0
 23 27  1  6  0  0  0
 23 28  1  0  0  0  0
 23 22  1  0  0  0  0
 23 21  1  0  0  0  0
 25 22  1  0  0  0  0
 28 33  1  0  0  0  0
 28 29  1  0  0  0  0
 29 30  1  0  0  0  0
 31 30  1  0  0  0  0
 32 31  1  0  0  0  0
 33 32  1  0  0  0  0
M  END
>  <minimizedAffinity>
-5.55201149

$$$$

 OpenBabel03272507353D

 33 36  0  0  1  0  0  0  0  0999 V2000
   38.0910   27.2650   31.1770 C   0  0  0  0  0  0  0  0  0  0  0  0
   38.9620   26.3710   30.5980 C   0  0  0  0  0  0  0  0  0  0  0  0
   39.9650   26.0920   31.5390 C   0  0  0  0  0  0  0  0  0  0  0  0
   39.6340   26.8440   32.6440 C   0  0  0  0  0  0  0  0  0  0  0  0
   38.5310   27.5150   32.3860 O   0  0  0  0  0  0  0  0  0  0  0  0
   38.9610   25.9120   29.6130 H   0  0  0  0  0  0  0  0  0  0  0  0
   40.8210   25.4470   31.4690 H   0  0  0  0  0  0  0  0  0  0  0  0
   36.9240   27.7740   30.4770 C   0  0  0  0  0  0  0  0  0  0  0  0
   35.8640   27.1300   30.5150 O   0  0  0  0  0  0  0  0  0  0  0  0
   37.0770   29.0150   29.7720 C   0  0  0  0  0  0  0  0  0  0  0  0
   36.5650   30.1510   30.3690 C   0  0  0  0  0  0  0  0  0  0  0  0
   36.6940   31.3740   29.7120 C   0  0  0  0  0  0  0  0  0  0  0  0
   37.3320   31.3890   28.4880 N   0  0  0  0  0  0  0  0  0  0  0  0
   37.8140   30.2670   27.9420 C   0  0  0  0  0  0  0  0  0  0  0  0
   37.6920   29.0910   28.5710 N   0  0  0  0  0  0  0  0  0  0  0  0
   36.0550   30.1810   31.3360 H   0  0  0  0  0  0  0  0  0  0  0  0
   36.3240   32.2960   30.1090 H   0  0  0  0  0  0  0  0  0  0  0  0
   38.2940   30.4200   26.9750 H   0  0  0  0  0  0  0  0  0  0  0  0
   40.3790   26.8940   33.9030 C   0  0  0  0  0  0  0  0  0  0  0  0
   41.4740   27.5490   33.9280 O   0  0  0  0  0  0  0  0  0  0  0  0
   39.8630   26.1820   35.1200 C   0  0  1  0  0  0  0  0  0  0  0  0
   38.8040   27.0990   35.8550 C   0  0  0  0  0  0  0  0  0  0  0  0
   38.4590   25.8110   35.2060 C   0  0  2  0  0  0  0  0  0  0  0  0
   40.6790   25.9700   35.8420 H   0  0  0  0  0  0  0  0  0  0  0  0
   38.5210   28.0290   35.3630 H   0  0  0  0  0  0  0  0  0  0  0  0
   38.9120   27.1870   36.9330 H   0  0  0  0  0  0  0  0  0  0  0  0
   37.9100   25.9190   34.2210 H   0  0  0  0  0  0  0  0  0  0  0  0
   37.8990   24.7730   36.0960 C   0  0  0  0  0  3  0  0  0  0  0  0
   38.4220   23.3810   35.9400 C   0  0  0  0  0  2  0  0  0  0  0  0
   39.5550   23.0360   36.8570 C   0  0  0  0  0  2  0  0  0  0  0  0
   39.1850   23.1600   38.3170 C   0  0  0  0  0  2  0  0  0  0  0  0
   38.0470   24.1280   38.5330 C   0  0  0  0  0  2  0  0  0  0  0  0
   38.1350   25.2250   37.5230 C   0  0  0  0  0  2  0  0  0  0  0  0
  1  5  1  0  0  0  0
  2  1  2  0  0  0  0
  2  3  1  0  0  0  0
  3  4  2  0  0  0  0
  4 19  1  0  0  0  0
  5  4  1  0  0  0  0
  6  2  1  0  0  0  0
  7  3  1  0  0  0  0
  8  9  2  0  0  0  0
  8  1  1  0  0  0  0
 10 11  1  0  0  0  0
 10  8  1  0  0  0  0
 11 16  1  0  0  0  0
 12 17  1  0  0  0  0
 12 11  2  0  0  0  0
 13 12  1  0  0  0  0
 14 13  2  0  0  0  0
 14 15  1  0  0  0  0
 15 10  2  0  0  0  0
 18 14  1  0  0  0  0
 19 20  2  0  0  0  0
 19 21  1  0  0  0  0
 21 23  1  0  0  0  0
 21 24  1  1  0  0  0
 21 22  1  0  0  0  0
 22 26  1  0  0  0  0
 23 27  1  6  0  0  0
 23 22  1  0  0  0  0
 23 28  1  0  0  0  0
 25 22  1  0  0  0  0
 28 33  1  0  0  0  0
 29 28  1  0  0  0  0
 29 30  1  0  0  0  0
 30 31  1  0  0  0  0
 31 32  1  0  0  0  0
 33 32  1  0  0  0  0
M  END
>  <minimizedAffinity>
-5.53298616

$$$$

 OpenBabel03272507353D

 33 36  0  0  1  0  0  0  0  0999 V2000
   35.5410   28.8960   33.5070 C   0  0  0  0  0  0  0  0  0  0  0  0
   36.4290   28.5260   34.4900 C   0  0  0  0  0  0  0  0  0  0  0  0
   37.1340   27.4070   34.0220 C   0  0  0  0  0  0  0  0  0  0  0  0
   36.6220   27.1660   32.7660 C   0  0  0  0  0  0  0  0  0  0  0  0
   35.6920   28.0610   32.5070 O   0  0  0  0  0  0  0  0  0  0  0  0
   36.6220   28.9520   35.4720 H   0  0  0  0  0  0  0  0  0  0  0  0
   37.9060   26.8280   34.4910 H   0  0  0  0  0  0  0  0  0  0  0  0
   34.6430   30.0280   33.6580 C   0  0  0  0  0  0  0  0  0  0  0  0
   33.5150   29.9830   33.1440 O   0  0  0  0  0  0  0  0  0  0  0  0
   35.1310   31.1500   34.4090 C   0  0  0  0  0  0  0  0  0  0  0  0
   34.6990   31.2760   35.7150 C   0  0  0  0  0  0  0  0  0  0  0  0
   35.1510   32.3550   36.4740 C   0  0  0  0  0  0  0  0  0  0  0  0
   36.0150   33.2510   35.8780 N   0  0  0  0  0  0  0  0  0  0  0  0
   36.4110   33.0950   34.6100 C   0  0  0  0  0  0  0  0  0  0  0  0
   35.9780   32.0590   33.8780 N   0  0  0  0  0  0  0  0  0  0  0  0
   34.0160   30.5880   36.2240 H   0  0  0  0  0  0  0  0  0  0  0  0
   34.8610   32.5200   37.4910 H   0  0  0  0  0  0  0  0  0  0  0  0
   37.0930   33.8720   34.2630 H   0  0  0  0  0  0  0  0  0  0  0  0
   37.0390   26.0940   31.8610 C   0  0  0  0  0  0  0  0  0  0  0  0
   37.7690   26.4020   30.8610 O   0  0  0  0  0  0  0  0  0  0  0  0
   36.6040   24.6780   32.1070 C   0  0  1  0  0  0  0  0  0  0  0  0
   35.3560   24.3460   31.1940 C   0  0  0  0  0  0  0  0  0  0  0  0
   36.6790   23.6970   31.0360 C   0  0  2  0  0  0  0  0  0  0  0  0
   36.2950   24.5270   33.1630 H   0  0  0  0  0  0  0  0  0  0  0  0
   35.0490   25.1020   30.4710 H   0  0  0  0  0  0  0  0  0  0  0  0
   34.5250   23.8430   31.6820 H   0  0  0  0  0  0  0  0  0  0  0  0
   37.2720   24.0600   30.1420 H   0  0  0  0  0  0  0  0  0  0  0  0
   36.7010   22.2300   31.2160 C   0  0  0  0  0  3  0  0  0  0  0  0
   37.5630   21.6860   32.3100 C   0  0  0  0  0  2  0  0  0  0  0  0
   36.8510   21.4680   33.6110 C   0  0  0  0  0  2  0  0  0  0  0  0
   35.6990   20.4970   33.4920 C   0  0  0  0  0  2  0  0  0  0  0  0
   35.1530   20.4360   32.0860 C   0  0  0  0  0  2  0  0  0  0  0  0
   35.2720   21.7820   31.4520 C   0  0  0  0  0  2  0  0  0  0  0  0
  1  8  1  0  0  0  0
  1  2  2  0  0  0  0
  2  6  1  0  0  0  0
  3  2  1  0  0  0  0
  3  7  1  0  0  0  0
  4  3  2  0  0  0  0
  5  4  1  0  0  0  0
  5  1  1  0  0  0  0
  8 10  1  0  0  0  0
  9  8  2  0  0  0  0
 10 11  1  0  0  0  0
 11 16  1  0  0  0  0
 11 12  2  0  0  0  0
 12 17  1  0  0  0  0
 13 12  1  0  0  0  0
 14 13  2  0  0  0  0
 15 10  2  0  0  0  0
 15 14  1  0  0  0  0
 18 14  1  0  0  0  0
 19 21  1  0  0  0  0
 19  4  1  0  0  0  0
 20 19  2  0  0  0  0
 21 24  1  1  0  0  0
 22 26  1  0  0  0  0
 22 21  1  0  0  0  0
 23 27  1  6  0  0  0
 23 22  1  0  0  0  0
 23 28  1  0  0  0  0
 23 21  1  0  0  0  0
 25 22  1  0  0  0  0
 28 33  1  0  0  0  0
 28 29  1  0  0  0  0
 29 30  1  0  0  0  0
 31 30  1  0  0  0  0
 32 31  1  0  0  0  0
 33 32  1  0  0  0  0
M  END
>  <minimizedAffinity>
-5.5057416

$$$$
