
     RDKit          3D

 47 50  0  0  0  0  0  0  0  0999 V2000
   36.3872   30.9061   45.6958 Cl  0  0  0  0  0  0  0  0  0  0  0  0
   36.6757   30.7569   47.4079 C   0  0  0  0  0  0  0  0  0  0  0  0
   37.9412   31.0805   47.8632 C   0  0  0  0  0  0  0  0  0  0  0  0
   38.1826   30.9652   49.2270 C   0  0  0  0  0  0  0  0  0  0  0  0
   37.1764   30.5416   50.0651 C   0  0  0  0  0  0  0  0  0  0  0  0
   35.9328   30.2357   49.5305 C   0  0  0  0  0  0  0  0  0  0  0  0
   35.6264   30.3268   48.1983 C   0  0  0  0  0  0  0  0  0  0  0  0
   40.2004   33.3061   46.0811 C   0  0  0  0  0  0  0  0  0  0  0  0
   40.9143   32.4657   45.2154 C   0  0  0  0  0  0  0  0  0  0  0  0
   40.5983   31.0960   45.2572 C   0  0  0  0  0  0  0  0  0  0  0  0
   39.6296   30.6719   46.1253 N   0  0  0  0  0  0  0  0  0  0  0  0
   38.9864   31.5300   46.9251 C   0  0  0  0  0  0  0  0  0  0  0  0
   39.2604   32.8347   46.9118 N   0  0  0  0  0  0  0  0  0  0  0  0
   34.0497   29.9407   47.5088 S   0  0  0  0  0  0  0  0  0  0  0  0
   33.7549   29.1745   44.4710 Cl  0  0  0  0  0  0  0  0  0  0  0  0
   33.7815   27.9472   45.7165 C   0  0  0  0  0  0  0  0  0  0  0  0
   33.9093   28.2048   47.0898 C   0  0  0  0  0  0  0  0  0  0  0  0
   33.9173   27.1592   47.9731 C   0  0  0  0  0  0  0  0  0  0  0  0
   33.8024   25.8646   47.5362 C   0  0  0  0  0  0  0  0  0  0  0  0
   33.6741   25.5700   46.1853 C   0  0  0  0  0  0  0  0  0  0  0  0
   33.6667   26.6180   45.3076 C   0  0  0  0  0  0  0  0  0  0  0  0
   39.1682   31.2140   49.6047 H   0  0  0  0  0  0  0  0  0  0  0  0
   37.3260   30.4397   51.1297 H   0  0  0  0  0  0  0  0  0  0  0  0
   35.1657   29.9048   50.2267 H   0  0  0  0  0  0  0  0  0  0  0  0
   40.4933   34.3437   45.9968 H   0  0  0  0  0  0  0  0  0  0  0  0
   41.6806   32.8509   44.5384 H   0  0  0  0  0  0  0  0  0  0  0  0
   41.1000   30.4017   44.6285 H   0  0  0  0  0  0  0  0  0  0  0  0
   34.0217   27.4813   49.0097 H   0  0  0  0  0  0  0  0  0  0  0  0
   33.8138   25.0857   48.2597 H   0  0  0  0  0  0  0  0  0  0  0  0
   33.5872   24.5303   45.9002 H   0  0  0  0  0  0  0  0  0  0  0  0
   33.5294   26.3019   43.8615 C   0  0  0  0  0  0  0  0  0  0  0  0
   32.2562   25.5793   43.5536 C   0  0  0  0  0  0  0  0  0  0  0  0
   32.1231   25.3863   42.0771 C   0  0  0  0  0  0  0  0  0  0  0  0
   33.3252   25.8810   41.3076 C   0  0  0  0  0  0  0  0  0  0  0  0
   34.6262   25.3882   41.8557 C   0  0  0  0  0  0  0  0  0  0  0  0
   34.7022   25.4917   43.3619 C   0  0  0  0  0  0  0  0  0  0  0  0
   33.5197   27.2414   43.2612 H   0  0  0  0  0  0  0  0  0  0  0  0
   31.3745   26.1285   43.9587 H   0  0  0  0  0  0  0  0  0  0  0  0
   32.2607   24.5784   44.0630 H   0  0  0  0  0  0  0  0  0  0  0  0
   31.9135   24.3263   41.8498 H   0  0  0  0  0  0  0  0  0  0  0  0
   31.2615   26.0011   41.7096 H   0  0  0  0  0  0  0  0  0  0  0  0
   33.2624   25.5022   40.2625 H   0  0  0  0  0  0  0  0  0  0  0  0
   33.3392   26.9825   41.2460 H   0  0  0  0  0  0  0  0  0  0  0  0
   34.8981   24.3628   41.4816 H   0  0  0  0  0  0  0  0  0  0  0  0
   35.4334   26.0583   41.4466 H   0  0  0  0  0  0  0  0  0  0  0  0
   35.6389   25.9787   43.6952 H   0  0  0  0  0  0  0  0  0  0  0  0
   34.7197   24.4502   43.7321 H   0  0  0  0  0  0  0  0  0  0  0  0
  1  2  1  0
  2  3  2  0
  2  7  1  0
  3  4  1  0
  4  5  2  0
  6  5  1  0
  7  6  2  0
  8 13  2  0
  9 10  2  0
  9  8  1  0
 10 11  1  0
 11 12  2  0
 12  3  1  0
 13 12  1  0
 14  7  1  0
 15 16  1  0
 16 17  2  0
 17 14  1  0
 17 18  1  0
 19 18  2  0
 20 19  1  0
 21 16  1  0
 21 20  2  0
  4 22  1  0
  5 23  1  0
  6 24  1  0
  8 25  1  0
  9 26  1  0
 10 27  1  0
 18 28  1  0
 19 29  1  0
 20 30  1  0
 31 32  1  0
 32 33  1  0
 33 34  1  0
 34 35  1  0
 35 36  1  0
 36 31  1  0
 31 37  1  0
 32 38  1  0
 32 39  1  0
 33 40  1  0
 33 41  1  0
 34 42  1  0
 34 43  1  0
 35 44  1  0
 35 45  1  0
 36 46  1  0
 36 47  1  0
 21 31  1  0
M  ISO  8  22  14  23  14  24  14  25  14  26  14  27  14  28  14  29  14
M  ISO  1  30  14
M  END
>  <DihAtoms>  (1) 
15,20,30,31

>  <DihDeg>  (1) 
-89.99995159830438

$$$$
