
 OpenBabel03272505123D

 36 39  0  0  0  0  0  0  0  0999 V2000
   36.4150   30.8990   45.7070 Cl  0  0  0  0  0  0  0  0  0  0  0  0
   36.6950   30.7810   47.4230 C   0  0  0  0  0  0  0  0  0  0  0  0
   37.9550   31.1200   47.8790 C   0  0  0  0  0  0  0  0  0  0  0  0
   38.1900   31.0290   49.2470 C   0  0  0  0  0  0  0  0  0  0  0  0
   37.1810   30.6160   50.0860 C   0  0  0  0  0  0  0  0  0  0  0  0
   35.9420   30.2930   49.5510 C   0  0  0  0  0  0  0  0  0  0  0  0
   35.6420   30.3590   48.2150 C   0  0  0  0  0  0  0  0  0  0  0  0
   39.1710   31.2900   49.6260 H   0  0  0  0  0  0  0  0  0  0  0  0
   37.3250   30.5330   51.1540 H   0  0  0  0  0  0  0  0  0  0  0  0
   35.1730   29.9700   50.2480 H   0  0  0  0  0  0  0  0  0  0  0  0
   40.2230   33.3240   46.0830 C   0  0  0  0  0  0  0  0  0  0  0  0
   40.9370   32.4750   45.2250 C   0  0  0  0  0  0  0  0  0  0  0  0
   40.6170   31.1060   45.2780 C   0  0  0  0  0  0  0  0  0  0  0  0
   39.6460   30.6920   46.1480 N   0  0  0  0  0  0  0  0  0  0  0  0
   39.0030   31.5590   46.9400 C   0  0  0  0  0  0  0  0  0  0  0  0
   39.2800   32.8630   46.9160 N   0  0  0  0  0  0  0  0  0  0  0  0
   40.5190   34.3610   45.9910 H   0  0  0  0  0  0  0  0  0  0  0  0
   41.7060   32.8530   44.5470 H   0  0  0  0  0  0  0  0  0  0  0  0
   41.1180   30.4060   44.6570 H   0  0  0  0  0  0  0  0  0  0  0  0
   34.0720   29.9530   47.5240 S   0  0  0  0  0  0  0  0  0  0  0  0
   33.9400   29.1610   44.4800 Cl  0  0  0  0  0  0  0  0  0  0  0  0
   33.8990   27.9440   45.7360 C   0  0  0  0  0  0  0  0  0  0  0  0
   33.9520   28.2140   47.1120 C   0  0  0  0  0  0  0  0  0  0  0  0
   33.9110   27.1750   48.0020 C   0  0  0  0  0  0  0  0  0  0  0  0
   33.8180   25.8770   47.5700 C   0  0  0  0  0  0  0  0  0  0  0  0
   33.7630   25.5710   46.2170 C   0  0  0  0  0  0  0  0  0  0  0  0
   33.8040   26.6120   45.3320 C   0  0  0  0  0  0  0  0  0  0  0  0
   33.9610   27.5050   49.0410 H   0  0  0  0  0  0  0  0  0  0  0  0
   33.7910   25.1040   48.3000 H   0  0  0  0  0  0  0  0  0  0  0  0
   33.6900   24.5290   45.9360 H   0  0  0  0  0  0  0  0  0  0  0  0
   33.7440   26.2850   43.8820 C   0  0  0  0  0  3  0  0  0  0  0  0
   34.9740   26.7150   43.1490 C   0  0  0  0  0  2  0  0  0  0  0  0
   34.9040   26.2640   41.7260 C   0  0  0  0  0  2  0  0  0  0  0  0
   33.5970   25.5840   41.3870 C   0  0  0  0  0  2  0  0  0  0  0  0
   32.3940   26.3550   41.8250 C   0  0  0  0  0  2  0  0  0  0  0  0
   32.5270   26.8970   43.2310 C   0  0  0  0  0  2  0  0  0  0  0  0
  1  2  1  0  0  0  0
  2  3  2  0  0  0  0
  2  7  1  0  0  0  0
  3  4  1  0  0  0  0
  4  8  1  0  0  0  0
  4  5  2  0  0  0  0
  5  9  1  0  0  0  0
  6  5  1  0  0  0  0
  6 10  1  0  0  0  0
  7  6  2  0  0  0  0
 11 16  1  0  0  0  0
 12 13  1  0  0  0  0
 12 11  2  0  0  0  0
 13 14  2  0  0  0  0
 14 15  1  0  0  0  0
 15  3  1  0  0  0  0
 16 15  2  0  0  0  0
 17 11  1  0  0  0  0
 18 12  1  0  0  0  0
 19 13  1  0  0  0  0
 20  7  1  0  0  0  0
 21 22  1  0  0  0  0
 22 23  1  0  0  0  0
 23 20  1  0  0  0  0
 23 24  2  0  0  0  0
 24 28  1  0  0  0  0
 25 24  1  0  0  0  0
 25 29  1  0  0  0  0
 26 25  2  0  0  0  0
 27 22  2  0  0  0  0
 27 26  1  0  0  0  0
 30 26  1  0  0  0  0
 31 27  1  0  0  0  0
 32 31  1  0  0  0  0
 33 32  1  0  0  0  0
 34 33  1  0  0  0  0
 34 35  1  0  0  0  0
 35 36  1  0  0  0  0
 36 31  1  0  0  0  0
M  END
>  <minimizedAffinity>
-5.7138052

>  <minimizedRMSD>
0.366220772

$$$$
