
 OpenBabel03272503213D

 32 35  0  0  0  0  0  0  0  0999 V2000
   37.5010   27.1980   34.4910 C   0  0  0  0  0  0  0  0  0  0  0  0
   38.0960   27.4900   35.6570 C   0  0  0  0  0  0  0  0  0  0  0  0
   38.9030   26.5940   36.2360 C   0  0  0  0  0  0  0  0  0  0  0  0
   39.0890   25.3850   35.5950 C   0  0  0  0  0  0  0  0  0  0  0  0
   38.0500   25.5830   34.1070 S   0  0  0  0  0  0  0  0  0  0  0  0
   37.9000   28.4680   36.1030 H   0  0  0  0  0  0  0  0  0  0  0  0
   39.4470   26.6900   37.1680 H   0  0  0  0  0  0  0  0  0  0  0  0
   37.8440   23.5590   37.7060 Cl  0  0  0  0  0  0  0  0  0  0  0  0
   39.3520   23.3300   36.8310 C   0  0  0  0  0  0  0  0  0  0  0  0
   39.8510   24.2030   35.8860 C   0  0  0  0  0  0  0  0  0  0  0  0
   40.9970   24.0580   35.2020 C   0  0  0  0  0  0  0  0  0  0  0  0
   41.7820   22.9330   35.4370 C   0  0  0  0  0  0  0  0  0  0  0  0
   41.3460   22.0070   36.3720 C   0  0  0  0  0  0  0  0  0  0  0  0
   42.2630   20.5610   36.7400 Cl  0  0  0  0  0  0  0  0  0  0  0  0
   40.1420   22.1990   37.0670 C   0  0  0  0  0  0  0  0  0  0  0  0
   41.3640   24.7620   34.4660 H   0  0  0  0  0  0  0  0  0  0  0  0
   42.7150   22.7510   34.9220 H   0  0  0  0  0  0  0  0  0  0  0  0
   39.8170   21.4650   37.7940 H   0  0  0  0  0  0  0  0  0  0  0  0
   35.4940   28.4990   31.5760 C   0  0  0  0  0  0  0  0  0  0  0  0
   36.4000   27.6830   32.2990 C   0  0  0  0  0  0  0  0  0  0  0  0
   36.5870   27.9810   33.6500 C   0  0  0  0  0  0  0  0  0  0  0  0
   35.9220   29.0050   34.2080 N   0  0  0  0  0  0  0  0  0  0  0  0
   35.0640   29.7600   33.4820 C   0  0  0  0  0  0  0  0  0  0  0  0
   34.8590   29.5060   32.1890 N   0  0  0  0  0  0  0  0  0  0  0  0
   35.3420   28.2760   30.5230 H   0  0  0  0  0  0  0  0  0  0  0  0
   36.9370   26.8640   31.8630 H   0  0  0  0  0  0  0  0  0  0  0  0
   34.3670   30.8820   34.1930 C   0  0  0  0  0  3  0  0  0  0  0  0
   33.6200   30.3430   35.3820 C   0  0  0  0  0  2  0  0  0  0  0  0
   33.2880   31.3830   36.4030 C   0  0  0  0  0  2  0  0  0  0  0  0
   34.4660   32.1610   36.8970 C   0  0  0  0  0  2  0  0  0  0  0  0
   35.6810   31.6910   36.1220 C   0  0  0  0  0  2  0  0  0  0  0  0
   35.3520   31.9290   34.6580 C   0  0  0  0  0  2  0  0  0  0  0  0
  1  2  2  0  0  0  0
  2  6  1  0  0  0  0
  2  3  1  0  0  0  0
  3  7  1  0  0  0  0
  4 10  1  0  0  0  0
  4  3  2  0  0  0  0
  5  1  1  0  0  0  0
  5  4  1  0  0  0  0
  9 15  1  0  0  0  0
  9  8  1  0  0  0  0
 10  9  2  0  0  0  0
 11 12  2  0  0  0  0
 11 10  1  0  0  0  0
 12 13  1  0  0  0  0
 13 14  1  0  0  0  0
 13 15  2  0  0  0  0
 15 18  1  0  0  0  0
 16 11  1  0  0  0  0
 17 12  1  0  0  0  0
 19 24  2  0  0  0  0
 19 20  1  0  0  0  0
 20 21  2  0  0  0  0
 21 22  1  0  0  0  0
 21  1  1  0  0  0  0
 23 27  1  0  0  0  0
 23 22  2  0  0  0  0
 24 23  1  0  0  0  0
 25 19  1  0  0  0  0
 26 20  1  0  0  0  0
 27 32  1  0  0  0  0
 27 28  1  0  0  0  0
 28 29  1  0  0  0  0
 29 30  1  0  0  0  0
 31 30  1  0  0  0  0
 32 31  1  0  0  0  0
M  END
>  <minimizedAffinity>
-6.44349813

$$$$

 OpenBabel03272503213D

 32 35  0  0  0  0  0  0  0  0999 V2000
   37.1960   27.1060   33.4040 C   0  0  0  0  0  0  0  0  0  0  0  0
   36.6320   27.8920   32.4730 C   0  0  0  0  0  0  0  0  0  0  0  0
   35.9440   28.9770   32.8440 C   0  0  0  0  0  0  0  0  0  0  0  0
   35.8420   29.2440   34.1950 C   0  0  0  0  0  0  0  0  0  0  0  0
   36.7850   27.8620   34.9260 S   0  0  0  0  0  0  0  0  0  0  0  0
   36.7570   27.6150   31.4240 H   0  0  0  0  0  0  0  0  0  0  0  0
   35.4400   29.6960   32.2110 H   0  0  0  0  0  0  0  0  0  0  0  0
   32.7870   29.1960   34.1140 Cl  0  0  0  0  0  0  0  0  0  0  0  0
   33.8290   30.3190   34.9780 C   0  0  0  0  0  0  0  0  0  0  0  0
   35.2080   30.2760   34.9670 C   0  0  0  0  0  0  0  0  0  0  0  0
   36.0300   31.1170   35.6150 C   0  0  0  0  0  0  0  0  0  0  0  0
   35.4790   32.1390   36.3810 C   0  0  0  0  0  0  0  0  0  0  0  0
   34.0990   32.2470   36.4430 C   0  0  0  0  0  0  0  0  0  0  0  0
   33.3090   33.4990   37.3800 Cl  0  0  0  0  0  0  0  0  0  0  0  0
   33.2760   31.3470   35.7500 C   0  0  0  0  0  0  0  0  0  0  0  0
   37.1110   31.0590   35.5860 H   0  0  0  0  0  0  0  0  0  0  0  0
   36.0810   32.8510   36.9290 H   0  0  0  0  0  0  0  0  0  0  0  0
   32.1980   31.4460   35.8100 H   0  0  0  0  0  0  0  0  0  0  0  0
   39.4300   24.3680   32.0930 C   0  0  0  0  0  0  0  0  0  0  0  0
   38.6900   25.5750   32.1100 C   0  0  0  0  0  0  0  0  0  0  0  0
   37.9920   25.8800   33.2800 C   0  0  0  0  0  0  0  0  0  0  0  0
   38.0420   25.0400   34.3260 N   0  0  0  0  0  0  0  0  0  0  0  0
   38.7630   23.8950   34.2700 C   0  0  0  0  0  0  0  0  0  0  0  0
   39.4420   23.5710   33.1700 N   0  0  0  0  0  0  0  0  0  0  0  0
   39.9770   24.1210   31.1870 H   0  0  0  0  0  0  0  0  0  0  0  0
   38.6420   26.2520   31.2800 H   0  0  0  0  0  0  0  0  0  0  0  0
   38.7590   23.0220   35.4890 C   0  0  0  0  0  3  0  0  0  0  0  0
   40.0520   23.1900   36.2390 C   0  0  0  0  0  2  0  0  0  0  0  0
   39.9780   22.7500   37.6660 C   0  0  0  0  0  2  0  0  0  0  0  0
   38.8860   23.3970   38.4560 C   0  0  0  0  0  2  0  0  0  0  0  0
   38.1010   24.2830   37.5090 C   0  0  0  0  0  2  0  0  0  0  0  0
   37.6050   23.3660   36.4030 C   0  0  0  0  0  2  0  0  0  0  0  0
  1  5  1  0  0  0  0
  2  3  1  0  0  0  0
  2  1  2  0  0  0  0
  3  4  2  0  0  0  0
  4  5  1  0  0  0  0
  4 10  1  0  0  0  0
  6  2  1  0  0  0  0
  7  3  1  0  0  0  0
  8  9  1  0  0  0  0
  9 15  1  0  0  0  0
 10  9  2  0  0  0  0
 10 11  1  0  0  0  0
 11 12  2  0  0  0  0
 12 13  1  0  0  0  0
 12 17  1  0  0  0  0
 13 14  1  0  0  0  0
 15 18  1  0  0  0  0
 15 13  2  0  0  0  0
 16 11  1  0  0  0  0
 19 20  2  0  0  0  0
 19 24  1  0  0  0  0
 20 21  1  0  0  0  0
 21  1  1  0  0  0  0
 21 22  2  0  0  0  0
 23 22  1  0  0  0  0
 23 27  1  0  0  0  0
 24 23  2  0  0  0  0
 25 19  1  0  0  0  0
 26 20  1  0  0  0  0
 27 28  1  0  0  0  0
 27 32  1  0  0  0  0
 28 29  1  0  0  0  0
 29 30  1  0  0  0  0
 31 30  1  0  0  0  0
 32 31  1  0  0  0  0
M  END
>  <minimizedAffinity>
-6.40212965

$$$$

 OpenBabel03272503213D

 32 35  0  0  0  0  0  0  0  0999 V2000
   36.5990   26.8640   32.7350 C   0  0  0  0  0  0  0  0  0  0  0  0
   35.9820   27.7470   31.9360 C   0  0  0  0  0  0  0  0  0  0  0  0
   35.4460   28.8560   32.4560 C   0  0  0  0  0  0  0  0  0  0  0  0
   35.5530   29.0460   33.8200 C   0  0  0  0  0  0  0  0  0  0  0  0
   36.4670   27.5520   34.3380 S   0  0  0  0  0  0  0  0  0  0  0  0
   35.9380   27.5280   30.8670 H   0  0  0  0  0  0  0  0  0  0  0  0
   34.9230   29.6510   31.9380 H   0  0  0  0  0  0  0  0  0  0  0  0
   32.5250   29.2110   34.2030 Cl  0  0  0  0  0  0  0  0  0  0  0  0
   33.7660   30.2090   34.9490 C   0  0  0  0  0  0  0  0  0  0  0  0
   35.1210   30.0730   34.7260 C   0  0  0  0  0  0  0  0  0  0  0  0
   36.0920   30.8170   35.2780 C   0  0  0  0  0  0  0  0  0  0  0  0
   35.7400   31.8300   36.1660 C   0  0  0  0  0  0  0  0  0  0  0  0
   34.3960   32.0270   36.4430 C   0  0  0  0  0  0  0  0  0  0  0  0
   33.8510   33.2750   37.5450 Cl  0  0  0  0  0  0  0  0  0  0  0  0
   33.4130   31.2270   35.8420 C   0  0  0  0  0  0  0  0  0  0  0  0
   37.1490   30.6880   35.0840 H   0  0  0  0  0  0  0  0  0  0  0  0
   36.4690   32.4660   36.6490 H   0  0  0  0  0  0  0  0  0  0  0  0
   32.3670   31.3950   36.0700 H   0  0  0  0  0  0  0  0  0  0  0  0
   39.1860   24.1620   32.2730 C   0  0  0  0  0  0  0  0  0  0  0  0
   38.6430   25.4320   32.5870 C   0  0  0  0  0  0  0  0  0  0  0  0
   37.2640   25.5900   32.4370 C   0  0  0  0  0  0  0  0  0  0  0  0
   36.5150   24.5610   32.0100 N   0  0  0  0  0  0  0  0  0  0  0  0
   37.0730   23.3620   31.7220 C   0  0  0  0  0  0  0  0  0  0  0  0
   38.3870   23.1730   31.8530 N   0  0  0  0  0  0  0  0  0  0  0  0
   40.2590   24.0280   32.3860 H   0  0  0  0  0  0  0  0  0  0  0  0
   39.2320   26.2610   32.9270 H   0  0  0  0  0  0  0  0  0  0  0  0
   36.1560   22.2720   31.2530 C   0  0  0  0  0  3  0  0  0  0  0  0
   36.9550   21.0390   30.9310 C   0  0  0  0  0  2  0  0  0  0  0  0
   36.1390   19.7860   30.9090 C   0  0  0  0  0  2  0  0  0  0  0  0
   35.3620   19.5330   32.1610 C   0  0  0  0  0  2  0  0  0  0  0  0
   35.5860   20.7150   33.0840 C   0  0  0  0  0  2  0  0  0  0  0  0
   35.1250   21.9370   32.3060 C   0  0  0  0  0  2  0  0  0  0  0  0
  1  5  1  0  0  0  0
  2  3  1  0  0  0  0
  2  1  2  0  0  0  0
  3  4  2  0  0  0  0
  4  5  1  0  0  0  0
  4 10  1  0  0  0  0
  6  2  1  0  0  0  0
  7  3  1  0  0  0  0
  8  9  1  0  0  0  0
  9 15  1  0  0  0  0
 10  9  2  0  0  0  0
 10 11  1  0  0  0  0
 11 12  2  0  0  0  0
 12 13  1  0  0  0  0
 12 17  1  0  0  0  0
 13 14  1  0  0  0  0
 15 18  1  0  0  0  0
 15 13  2  0  0  0  0
 16 11  1  0  0  0  0
 19 25  1  0  0  0  0
 19 20  1  0  0  0  0
 20 26  1  0  0  0  0
 21 20  2  0  0  0  0
 21  1  1  0  0  0  0
 22 21  1  0  0  0  0
 23 24  1  0  0  0  0
 23 22  2  0  0  0  0
 24 19  2  0  0  0  0
 27 23  1  0  0  0  0
 27 32  1  0  0  0  0
 28 27  1  0  0  0  0
 29 28  1  0  0  0  0
 29 30  1  0  0  0  0
 30 31  1  0  0  0  0
 32 31  1  0  0  0  0
M  END
>  <minimizedAffinity>
-6.30412054

$$$$

 OpenBabel03272503213D

 32 35  0  0  0  0  0  0  0  0999 V2000
   37.4520   27.4220   34.0140 C   0  0  0  0  0  0  0  0  0  0  0  0
   37.7610   27.6730   35.2960 C   0  0  0  0  0  0  0  0  0  0  0  0
   38.4800   26.7870   35.9930 C   0  0  0  0  0  0  0  0  0  0  0  0
   38.8800   25.6320   35.3500 C   0  0  0  0  0  0  0  0  0  0  0  0
   38.1760   25.8660   33.6820 S   0  0  0  0  0  0  0  0  0  0  0  0
   37.4090   28.6090   35.7340 H   0  0  0  0  0  0  0  0  0  0  0  0
   38.8030   26.8540   37.0250 H   0  0  0  0  0  0  0  0  0  0  0  0
   37.4050   23.7240   37.2280 Cl  0  0  0  0  0  0  0  0  0  0  0  0
   39.0370   23.5700   36.5920 C   0  0  0  0  0  0  0  0  0  0  0  0
   39.6380   24.4780   35.7430 C   0  0  0  0  0  0  0  0  0  0  0  0
   40.8790   24.3880   35.2420 C   0  0  0  0  0  0  0  0  0  0  0  0
   41.6660   23.2920   35.5840 C   0  0  0  0  0  0  0  0  0  0  0  0
   41.1320   22.3360   36.4320 C   0  0  0  0  0  0  0  0  0  0  0  0
   42.0410   20.9210   36.9220 Cl  0  0  0  0  0  0  0  0  0  0  0  0
   39.8290   22.4680   36.9350 C   0  0  0  0  0  0  0  0  0  0  0  0
   41.3250   25.1180   34.5770 H   0  0  0  0  0  0  0  0  0  0  0  0
   42.6740   23.1570   35.2160 H   0  0  0  0  0  0  0  0  0  0  0  0
   39.4270   21.7100   37.5970 H   0  0  0  0  0  0  0  0  0  0  0  0
   36.2620   29.0380   30.8220 C   0  0  0  0  0  0  0  0  0  0  0  0
   37.0640   28.2540   31.6880 C   0  0  0  0  0  0  0  0  0  0  0  0
   36.6910   28.2050   33.0330 C   0  0  0  0  0  0  0  0  0  0  0  0
   35.6130   28.8860   33.4530 N   0  0  0  0  0  0  0  0  0  0  0  0
   34.8720   29.6230   32.5930 C   0  0  0  0  0  0  0  0  0  0  0  0
   35.1970   29.6940   31.3010 N   0  0  0  0  0  0  0  0  0  0  0  0
   36.5440   29.0820   29.7740 H   0  0  0  0  0  0  0  0  0  0  0  0
   37.9270   27.7080   31.3640 H   0  0  0  0  0  0  0  0  0  0  0  0
   33.6860   30.3480   33.1550 C   0  0  0  0  0  3  0  0  0  0  0  0
   32.7910   30.8020   32.0350 C   0  0  0  0  0  2  0  0  0  0  0  0
   31.3930   31.1060   32.4710 C   0  0  0  0  0  2  0  0  0  0  0  0
   30.7150   29.9880   33.1950 C   0  0  0  0  0  2  0  0  0  0  0  0
   31.7200   28.8630   33.3420 C   0  0  0  0  0  2  0  0  0  0  0  0
   32.8990   29.4610   34.0920 C   0  0  0  0  0  2  0  0  0  0  0  0
  1  2  2  0  0  0  0
  2  6  1  0  0  0  0
  2  3  1  0  0  0  0
  3  7  1  0  0  0  0
  4 10  1  0  0  0  0
  4  3  2  0  0  0  0
  5  1  1  0  0  0  0
  5  4  1  0  0  0  0
  9 15  1  0  0  0  0
  9  8  1  0  0  0  0
 10  9  2  0  0  0  0
 11 12  2  0  0  0  0
 11 10  1  0  0  0  0
 12 13  1  0  0  0  0
 13 14  1  0  0  0  0
 13 15  2  0  0  0  0
 15 18  1  0  0  0  0
 16 11  1  0  0  0  0
 17 12  1  0  0  0  0
 19 24  2  0  0  0  0
 19 20  1  0  0  0  0
 20 21  2  0  0  0  0
 21 22  1  0  0  0  0
 21  1  1  0  0  0  0
 23 27  1  0  0  0  0
 23 22  2  0  0  0  0
 24 23  1  0  0  0  0
 25 19  1  0  0  0  0
 26 20  1  0  0  0  0
 27 32  1  0  0  0  0
 28 29  1  0  0  0  0
 28 27  1  0  0  0  0
 29 30  1  0  0  0  0
 30 31  1  0  0  0  0
 31 32  1  0  0  0  0
M  END
>  <minimizedAffinity>
-6.14677048

$$$$

 OpenBabel03272503213D

 32 35  0  0  0  0  0  0  0  0999 V2000
   37.1690   27.6220   34.3970 C   0  0  0  0  0  0  0  0  0  0  0  0
   37.7690   27.8590   35.5730 C   0  0  0  0  0  0  0  0  0  0  0  0
   38.6100   26.9550   36.0870 C   0  0  0  0  0  0  0  0  0  0  0  0
   38.8260   25.7950   35.3690 C   0  0  0  0  0  0  0  0  0  0  0  0
   37.7640   26.0520   33.9070 S   0  0  0  0  0  0  0  0  0  0  0  0
   37.5470   28.8000   36.0810 H   0  0  0  0  0  0  0  0  0  0  0  0
   39.1610   27.0100   37.0170 H   0  0  0  0  0  0  0  0  0  0  0  0
   41.6730   25.9950   34.2760 Cl  0  0  0  0  0  0  0  0  0  0  0  0
   40.9270   24.6380   35.1100 C   0  0  0  0  0  0  0  0  0  0  0  0
   39.6290   24.6230   35.5780 C   0  0  0  0  0  0  0  0  0  0  0  0
   39.0310   23.6060   36.2180 C   0  0  0  0  0  0  0  0  0  0  0  0
   39.7550   22.4400   36.4520 C   0  0  0  0  0  0  0  0  0  0  0  0
   41.0680   22.3790   36.0120 C   0  0  0  0  0  0  0  0  0  0  0  0
   42.0630   20.9580   36.2580 Cl  0  0  0  0  0  0  0  0  0  0  0  0
   41.6550   23.4660   35.3470 C   0  0  0  0  0  0  0  0  0  0  0  0
   38.0090   23.6220   36.5730 H   0  0  0  0  0  0  0  0  0  0  0  0
   39.3380   21.5830   36.9610 H   0  0  0  0  0  0  0  0  0  0  0  0
   42.6830   23.4010   35.0100 H   0  0  0  0  0  0  0  0  0  0  0  0
   35.4050   29.4010   31.5800 C   0  0  0  0  0  0  0  0  0  0  0  0
   36.3760   28.6080   32.2410 C   0  0  0  0  0  0  0  0  0  0  0  0
   36.2210   28.4250   33.6160 C   0  0  0  0  0  0  0  0  0  0  0  0
   35.1840   28.9910   34.2540 N   0  0  0  0  0  0  0  0  0  0  0  0
   34.2760   29.7410   33.5850 C   0  0  0  0  0  0  0  0  0  0  0  0
   34.3910   29.9390   32.2710 N   0  0  0  0  0  0  0  0  0  0  0  0
   35.5160   29.5500   30.5090 H   0  0  0  0  0  0  0  0  0  0  0  0
   37.2080   28.1530   31.7420 H   0  0  0  0  0  0  0  0  0  0  0  0
   33.1520   30.3320   34.3830 C   0  0  0  0  0  3  0  0  0  0  0  0
   32.7920   29.4090   35.5140 C   0  0  0  0  0  2  0  0  0  0  0  0
   32.0380   30.0790   36.6180 C   0  0  0  0  0  2  0  0  0  0  0  0
   32.7180   31.2830   37.1870 C   0  0  0  0  0  2  0  0  0  0  0  0
   33.9840   31.5140   36.3860 C   0  0  0  0  0  2  0  0  0  0  0  0
   33.5340   31.6830   34.9440 C   0  0  0  0  0  2  0  0  0  0  0  0
  1  2  2  0  0  0  0
  2  6  1  0  0  0  0
  2  3  1  0  0  0  0
  3  7  1  0  0  0  0
  4 10  1  0  0  0  0
  4  3  2  0  0  0  0
  5  1  1  0  0  0  0
  5  4  1  0  0  0  0
  8  9  1  0  0  0  0
  9 15  2  0  0  0  0
  9 10  1  0  0  0  0
 10 11  2  0  0  0  0
 11 12  1  0  0  0  0
 11 16  1  0  0  0  0
 12 17  1  0  0  0  0
 13 14  1  0  0  0  0
 13 12  2  0  0  0  0
 15 13  1  0  0  0  0
 18 15  1  0  0  0  0
 19 20  2  0  0  0  0
 19 24  1  0  0  0  0
 20 21  1  0  0  0  0
 21 22  2  0  0  0  0
 21  1  1  0  0  0  0
 23 22  1  0  0  0  0
 23 27  1  0  0  0  0
 24 23  2  0  0  0  0
 25 19  1  0  0  0  0
 26 20  1  0  0  0  0
 27 32  1  0  0  0  0
 27 28  1  0  0  0  0
 28 29  1  0  0  0  0
 29 30  1  0  0  0  0
 31 30  1  0  0  0  0
 32 31  1  0  0  0  0
M  END
>  <minimizedAffinity>
-6.12543964

$$$$

 OpenBabel03272503213D

 32 35  0  0  0  0  0  0  0  0999 V2000
   37.1420   25.5360   32.6170 C   0  0  0  0  0  0  0  0  0  0  0  0
   36.2530   25.9240   31.6890 C   0  0  0  0  0  0  0  0  0  0  0  0
   35.7640   27.1680   31.7140 C   0  0  0  0  0  0  0  0  0  0  0  0
   36.2040   28.0140   32.7130 C   0  0  0  0  0  0  0  0  0  0  0  0
   37.3650   26.9440   33.6300 S   0  0  0  0  0  0  0  0  0  0  0  0
   35.9540   25.1980   30.9310 H   0  0  0  0  0  0  0  0  0  0  0  0
   35.0480   27.6170   31.0370 H   0  0  0  0  0  0  0  0  0  0  0  0
   36.5660   30.0180   30.4340 Cl  0  0  0  0  0  0  0  0  0  0  0  0
   36.0670   30.3400   32.0890 C   0  0  0  0  0  0  0  0  0  0  0  0
   35.9240   29.3770   33.0670 C   0  0  0  0  0  0  0  0  0  0  0  0
   35.5460   29.5910   34.3370 C   0  0  0  0  0  0  0  0  0  0  0  0
   35.2590   30.8900   34.7440 C   0  0  0  0  0  0  0  0  0  0  0  0
   35.3780   31.9140   33.8170 C   0  0  0  0  0  0  0  0  0  0  0  0
   35.0410   33.5820   34.2310 Cl  0  0  0  0  0  0  0  0  0  0  0  0
   35.7780   31.6470   32.4990 C   0  0  0  0  0  0  0  0  0  0  0  0
   35.4430   28.8140   35.0840 H   0  0  0  0  0  0  0  0  0  0  0  0
   34.9480   31.1340   35.7500 H   0  0  0  0  0  0  0  0  0  0  0  0
   35.8660   32.4600   31.7870 H   0  0  0  0  0  0  0  0  0  0  0  0
   38.9870   22.2970   32.0550 C   0  0  0  0  0  0  0  0  0  0  0  0
   38.3400   23.5200   31.7500 C   0  0  0  0  0  0  0  0  0  0  0  0
   37.8290   24.2550   32.8210 C   0  0  0  0  0  0  0  0  0  0  0  0
   37.9630   23.7930   34.0740 N   0  0  0  0  0  0  0  0  0  0  0  0
   38.5890   22.6190   34.3240 C   0  0  0  0  0  0  0  0  0  0  0  0
   39.0900   21.8880   33.3260 N   0  0  0  0  0  0  0  0  0  0  0  0
   39.3880   21.7160   31.2280 H   0  0  0  0  0  0  0  0  0  0  0  0
   38.2270   23.8980   30.7530 H   0  0  0  0  0  0  0  0  0  0  0  0
   38.6900   22.1850   35.7560 C   0  0  0  0  0  3  0  0  0  0  0  0
   39.9630   22.7130   36.3580 C   0  0  0  0  0  2  0  0  0  0  0  0
   39.9490   22.7480   37.8530 C   0  0  0  0  0  2  0  0  0  0  0  0
   38.7990   23.5000   38.4420 C   0  0  0  0  0  2  0  0  0  0  0  0
   37.9150   23.9540   37.2970 C   0  0  0  0  0  2  0  0  0  0  0  0
   37.5130   22.6860   36.5610 C   0  0  0  0  0  2  0  0  0  0  0  0
  1 21  1  0  0  0  0
  1  5  1  0  0  0  0
  2  3  1  0  0  0  0
  2  1  2  0  0  0  0
  3  4  2  0  0  0  0
  4 10  1  0  0  0  0
  4  5  1  0  0  0  0
  6  2  1  0  0  0  0
  7  3  1  0  0  0  0
  8  9  1  0  0  0  0
  9 15  2  0  0  0  0
  9 10  1  0  0  0  0
 10 11  2  0  0  0  0
 11 12  1  0  0  0  0
 11 16  1  0  0  0  0
 12 17  1  0  0  0  0
 13 14  1  0  0  0  0
 13 12  2  0  0  0  0
 15 13  1  0  0  0  0
 18 15  1  0  0  0  0
 19 24  1  0  0  0  0
 20 19  2  0  0  0  0
 20 21  1  0  0  0  0
 21 22  2  0  0  0  0
 22 23  1  0  0  0  0
 23 27  1  0  0  0  0
 24 23  2  0  0  0  0
 25 19  1  0  0  0  0
 26 20  1  0  0  0  0
 27 28  1  0  0  0  0
 27 32  1  0  0  0  0
 28 29  1  0  0  0  0
 29 30  1  0  0  0  0
 31 30  1  0  0  0  0
 32 31  1  0  0  0  0
M  END
>  <minimizedAffinity>
-6.08210039

$$$$

 OpenBabel03272503213D

 32 35  0  0  0  0  0  0  0  0999 V2000
   37.6190   27.2870   34.0000 C   0  0  0  0  0  0  0  0  0  0  0  0
   37.8110   27.5070   35.3100 C   0  0  0  0  0  0  0  0  0  0  0  0
   38.5000   26.6230   36.0400 C   0  0  0  0  0  0  0  0  0  0  0  0
   38.9900   25.5010   35.4000 C   0  0  0  0  0  0  0  0  0  0  0  0
   38.4200   25.7650   33.6860 S   0  0  0  0  0  0  0  0  0  0  0  0
   37.3930   28.4170   35.7440 H   0  0  0  0  0  0  0  0  0  0  0  0
   38.7330   26.6680   37.0960 H   0  0  0  0  0  0  0  0  0  0  0  0
   37.5180   23.6340   37.3210 Cl  0  0  0  0  0  0  0  0  0  0  0  0
   39.1520   23.4700   36.6920 C   0  0  0  0  0  0  0  0  0  0  0  0
   39.7510   24.3590   35.8230 C   0  0  0  0  0  0  0  0  0  0  0  0
   40.9940   24.2620   35.3250 C   0  0  0  0  0  0  0  0  0  0  0  0
   41.7840   23.1770   35.6960 C   0  0  0  0  0  0  0  0  0  0  0  0
   41.2510   22.2400   36.5660 C   0  0  0  0  0  0  0  0  0  0  0  0
   42.1640   20.8400   37.0920 Cl  0  0  0  0  0  0  0  0  0  0  0  0
   39.9470   22.3800   37.0630 C   0  0  0  0  0  0  0  0  0  0  0  0
   41.4390   24.9770   34.6440 H   0  0  0  0  0  0  0  0  0  0  0  0
   42.7930   23.0360   35.3330 H   0  0  0  0  0  0  0  0  0  0  0  0
   39.5460   21.6370   37.7430 H   0  0  0  0  0  0  0  0  0  0  0  0
   35.1850   29.5620   32.2360 C   0  0  0  0  0  0  0  0  0  0  0  0
   35.7880   28.8350   33.2920 C   0  0  0  0  0  0  0  0  0  0  0  0
   36.9170   28.0760   32.9810 C   0  0  0  0  0  0  0  0  0  0  0  0
   37.3850   28.0580   31.7230 N   0  0  0  0  0  0  0  0  0  0  0  0
   36.7800   28.7670   30.7410 C   0  0  0  0  0  0  0  0  0  0  0  0
   35.6990   29.5050   31.0000 N   0  0  0  0  0  0  0  0  0  0  0  0
   34.3050   30.1560   32.4670 H   0  0  0  0  0  0  0  0  0  0  0  0
   35.4220   28.8420   34.3000 H   0  0  0  0  0  0  0  0  0  0  0  0
   37.3760   28.6850   29.3670 C   0  0  0  0  0  3  0  0  0  0  0  0
   37.4830   30.0640   28.7770 C   0  0  0  0  0  2  0  0  0  0  0  0
   38.4600   30.1580   27.6480 C   0  0  0  0  0  2  0  0  0  0  0  0
   39.8360   29.6780   27.9810 C   0  0  0  0  0  2  0  0  0  0  0  0
   39.8030   29.1460   29.4010 C   0  0  0  0  0  2  0  0  0  0  0  0
   38.7480   28.0520   29.4050 C   0  0  0  0  0  2  0  0  0  0  0  0
  1  2  2  0  0  0  0
  2  6  1  0  0  0  0
  2  3  1  0  0  0  0
  3  7  1  0  0  0  0
  4 10  1  0  0  0  0
  4  3  2  0  0  0  0
  5  1  1  0  0  0  0
  5  4  1  0  0  0  0
  9 15  1  0  0  0  0
  9  8  1  0  0  0  0
 10  9  2  0  0  0  0
 11 12  2  0  0  0  0
 11 10  1  0  0  0  0
 12 13  1  0  0  0  0
 13 15  2  0  0  0  0
 13 14  1  0  0  0  0
 15 18  1  0  0  0  0
 16 11  1  0  0  0  0
 17 12  1  0  0  0  0
 19 25  1  0  0  0  0
 19 20  1  0  0  0  0
 20 26  1  0  0  0  0
 21 20  2  0  0  0  0
 21  1  1  0  0  0  0
 22 21  1  0  0  0  0
 23 24  1  0  0  0  0
 23 22  2  0  0  0  0
 24 19  2  0  0  0  0
 27 32  1  0  0  0  0
 27 23  1  0  0  0  0
 28 27  1  0  0  0  0
 29 30  1  0  0  0  0
 29 28  1  0  0  0  0
 30 31  1  0  0  0  0
 31 32  1  0  0  0  0
M  END
>  <minimizedAffinity>
-5.99749994

$$$$

 OpenBabel03272503213D

 32 35  0  0  0  0  0  0  0  0999 V2000
   36.6660   27.5580   33.7870 C   0  0  0  0  0  0  0  0  0  0  0  0
   36.9310   26.6540   32.8320 C   0  0  0  0  0  0  0  0  0  0  0  0
   37.6900   25.5900   33.1140 C   0  0  0  0  0  0  0  0  0  0  0  0
   38.1760   25.4680   34.4010 C   0  0  0  0  0  0  0  0  0  0  0  0
   37.4940   26.9580   35.2060 S   0  0  0  0  0  0  0  0  0  0  0  0
   36.5100   26.8190   31.8380 H   0  0  0  0  0  0  0  0  0  0  0  0
   37.9840   24.7860   32.4510 H   0  0  0  0  0  0  0  0  0  0  0  0
   41.1640   26.1120   34.3820 Cl  0  0  0  0  0  0  0  0  0  0  0  0
   40.3610   24.7260   35.1060 C   0  0  0  0  0  0  0  0  0  0  0  0
   38.9990   24.5020   35.0740 C   0  0  0  0  0  0  0  0  0  0  0  0
   38.3570   23.4560   35.6160 C   0  0  0  0  0  0  0  0  0  0  0  0
   39.0970   22.4850   36.2840 C   0  0  0  0  0  0  0  0  0  0  0  0
   40.4720   22.6390   36.3600 C   0  0  0  0  0  0  0  0  0  0  0  0
   41.4920   21.4720   37.1760 Cl  0  0  0  0  0  0  0  0  0  0  0  0
   41.1040   23.7480   35.7780 C   0  0  0  0  0  0  0  0  0  0  0  0
   37.2850   23.3070   35.5750 H   0  0  0  0  0  0  0  0  0  0  0  0
   38.6450   21.6170   36.7450 H   0  0  0  0  0  0  0  0  0  0  0  0
   42.1810   23.8530   35.8470 H   0  0  0  0  0  0  0  0  0  0  0  0
   34.1740   30.2290   32.8530 C   0  0  0  0  0  0  0  0  0  0  0  0
   34.8810   29.0020   32.7970 C   0  0  0  0  0  0  0  0  0  0  0  0
   35.8750   28.7940   33.7540 C   0  0  0  0  0  0  0  0  0  0  0  0
   36.1250   29.7390   34.6750 N   0  0  0  0  0  0  0  0  0  0  0  0
   35.4270   30.8990   34.6950 C   0  0  0  0  0  0  0  0  0  0  0  0
   34.4690   31.1330   33.7970 N   0  0  0  0  0  0  0  0  0  0  0  0
   33.3980   30.4010   32.1120 H   0  0  0  0  0  0  0  0  0  0  0  0
   34.6900   28.2420   32.0660 H   0  0  0  0  0  0  0  0  0  0  0  0
   35.7770   31.8930   35.7620 C   0  0  0  0  0  3  0  0  0  0  0  0
   35.8430   33.2730   35.1670 C   0  0  0  0  0  2  0  0  0  0  0  0
   35.7200   34.3680   36.1790 C   0  0  0  0  0  2  0  0  0  0  0  0
   34.5000   34.2800   37.0380 C   0  0  0  0  0  2  0  0  0  0  0  0
   33.7650   33.0100   36.6590 C   0  0  0  0  0  2  0  0  0  0  0  0
   34.7570   31.8790   36.8760 C   0  0  0  0  0  2  0  0  0  0  0  0
  1  5  1  0  0  0  0
  2  3  1  0  0  0  0
  2  1  2  0  0  0  0
  3  4  2  0  0  0  0
  4 10  1  0  0  0  0
  4  5  1  0  0  0  0
  6  2  1  0  0  0  0
  7  3  1  0  0  0  0
  8  9  1  0  0  0  0
  9 15  1  0  0  0  0
 10  9  2  0  0  0  0
 10 11  1  0  0  0  0
 11 12  2  0  0  0  0
 12 13  1  0  0  0  0
 12 17  1  0  0  0  0
 13 14  1  0  0  0  0
 15 18  1  0  0  0  0
 15 13  2  0  0  0  0
 16 11  1  0  0  0  0
 19 24  1  0  0  0  0
 20 19  2  0  0  0  0
 20 21  1  0  0  0  0
 21  1  1  0  0  0  0
 21 22  2  0  0  0  0
 22 23  1  0  0  0  0
 23 27  1  0  0  0  0
 24 23  2  0  0  0  0
 25 19  1  0  0  0  0
 26 20  1  0  0  0  0
 27 32  1  0  0  0  0
 28 27  1  0  0  0  0
 28 29  1  0  0  0  0
 29 30  1  0  0  0  0
 31 32  1  0  0  0  0
 31 30  1  0  0  0  0
M  END
>  <minimizedAffinity>
-5.94015026

$$$$

 OpenBabel03272503213D

 32 35  0  0  0  0  0  0  0  0999 V2000
   36.6670   26.3180   32.1520 C   0  0  0  0  0  0  0  0  0  0  0  0
   35.6310   26.9030   31.5320 C   0  0  0  0  0  0  0  0  0  0  0  0
   35.2540   28.1370   31.8850 C   0  0  0  0  0  0  0  0  0  0  0  0
   35.9620   28.7640   32.8910 C   0  0  0  0  0  0  0  0  0  0  0  0
   37.2090   27.5010   33.3200 S   0  0  0  0  0  0  0  0  0  0  0  0
   35.1210   26.3430   30.7460 H   0  0  0  0  0  0  0  0  0  0  0  0
   34.4450   28.7290   31.4760 H   0  0  0  0  0  0  0  0  0  0  0  0
   36.1820   31.1530   30.9960 Cl  0  0  0  0  0  0  0  0  0  0  0  0
   35.9600   31.1720   32.7410 C   0  0  0  0  0  0  0  0  0  0  0  0
   35.8680   30.0450   33.5330 C   0  0  0  0  0  0  0  0  0  0  0  0
   35.7000   30.0270   34.8640 C   0  0  0  0  0  0  0  0  0  0  0  0
   35.6010   31.2360   35.5460 C   0  0  0  0  0  0  0  0  0  0  0  0
   35.6830   32.4130   34.8190 C   0  0  0  0  0  0  0  0  0  0  0  0
   35.5720   33.9850   35.5850 Cl  0  0  0  0  0  0  0  0  0  0  0  0
   35.8610   32.3870   33.4280 C   0  0  0  0  0  0  0  0  0  0  0  0
   35.6320   29.1260   35.4600 H   0  0  0  0  0  0  0  0  0  0  0  0
   35.4640   31.2950   36.6180 H   0  0  0  0  0  0  0  0  0  0  0  0
   35.9220   33.3170   32.8750 H   0  0  0  0  0  0  0  0  0  0  0  0
   39.1600   23.5060   31.8460 C   0  0  0  0  0  0  0  0  0  0  0  0
   38.6660   24.8200   32.0370 C   0  0  0  0  0  0  0  0  0  0  0  0
   37.2830   24.9990   31.9670 C   0  0  0  0  0  0  0  0  0  0  0  0
   36.4850   23.9460   31.7270 N   0  0  0  0  0  0  0  0  0  0  0  0
   36.9970   22.7060   31.5510 C   0  0  0  0  0  0  0  0  0  0  0  0
   38.3130   22.4960   31.6100 N   0  0  0  0  0  0  0  0  0  0  0  0
   40.2350   23.3570   31.8980 H   0  0  0  0  0  0  0  0  0  0  0  0
   39.2950   25.6680   32.2290 H   0  0  0  0  0  0  0  0  0  0  0  0
   36.0260   21.5930   31.2870 C   0  0  0  0  0  3  0  0  0  0  0  0
   36.7760   20.3130   31.0390 C   0  0  0  0  0  2  0  0  0  0  0  0
   35.9430   19.0850   31.2280 C   0  0  0  0  0  2  0  0  0  0  0  0
   35.2750   18.9910   32.5620 C   0  0  0  0  0  2  0  0  0  0  0  0
   35.5960   20.2620   33.3240 C   0  0  0  0  0  2  0  0  0  0  0  0
   35.0870   21.4010   32.4560 C   0  0  0  0  0  2  0  0  0  0  0  0
  1  5  1  0  0  0  0
  2  3  1  0  0  0  0
  2  1  2  0  0  0  0
  3  4  2  0  0  0  0
  4  5  1  0  0  0  0
  4 10  1  0  0  0  0
  6  2  1  0  0  0  0
  7  3  1  0  0  0  0
  8  9  1  0  0  0  0
  9 15  2  0  0  0  0
  9 10  1  0  0  0  0
 10 11  2  0  0  0  0
 11 16  1  0  0  0  0
 11 12  1  0  0  0  0
 12 17  1  0  0  0  0
 13 12  2  0  0  0  0
 13 14  1  0  0  0  0
 15 13  1  0  0  0  0
 18 15  1  0  0  0  0
 19 25  1  0  0  0  0
 19 20  1  0  0  0  0
 20 26  1  0  0  0  0
 21 20  2  0  0  0  0
 21  1  1  0  0  0  0
 22 21  1  0  0  0  0
 23 24  1  0  0  0  0
 23 22  2  0  0  0  0
 24 19  2  0  0  0  0
 27 23  1  0  0  0  0
 27 32  1  0  0  0  0
 28 29  1  0  0  0  0
 28 27  1  0  0  0  0
 29 30  1  0  0  0  0
 30 31  1  0  0  0  0
 32 31  1  0  0  0  0
M  END
>  <minimizedAffinity>
-5.90229845

$$$$
