
 OpenBabel03272501333D

 24 26  0  0  1  0  0  0  0  0999 V2000
   37.2990   31.6640   46.4130 C   0  0  2  0  0  0  0  0  0  0  0  0
   36.6550   30.5110   45.5720 C   0  0  0  0  0  0  0  0  0  0  0  0
   37.4790   31.6450   45.0060 C   0  0  2  0  0  0  0  0  0  0  0  0
   36.4130   32.1630   46.9110 H   0  0  0  0  0  0  0  0  0  0  0  0
   37.0450   29.5090   45.7210 H   0  0  0  0  0  0  0  0  0  0  0  0
   35.5590   30.5230   45.4340 H   0  0  0  0  0  0  0  0  0  0  0  0
   36.8200   32.4050   44.4550 H   0  0  0  0  0  0  0  0  0  0  0  0
   38.5790   31.2050   44.1590 C   0  0  0  0  0  0  0  0  0  0  0  0
   38.7060   29.7020   44.3360 C   0  0  0  0  0  0  0  0  0  0  0  0
   39.2950   29.0400   43.1150 C   0  0  0  0  0  0  0  0  0  0  0  0
   40.3610   29.9790   42.6020 C   0  0  0  0  0  0  0  0  0  0  0  0
   40.9470   30.7080   43.7730 C   0  0  0  0  0  0  0  0  0  0  0  0
   39.9440   31.7570   44.3040 C   0  0  0  0  0  0  0  0  0  0  0  0
   38.2070   31.1240   47.4470 C   0  0  0  0  0  0  0  0  0  0  0  0
   39.4480   31.1870   47.1720 O   0  0  0  0  0  0  0  0  0  0  0  0
   37.6740   30.4160   51.0670 C   0  0  0  0  0  0  0  0  0  0  0  0
   38.1720   30.9970   49.9110 C   0  0  0  0  0  0  0  0  0  0  0  0
   37.6920   30.5640   48.6700 C   0  0  0  0  0  0  0  0  0  0  0  0
   36.7700   29.6030   48.6490 N   0  0  0  0  0  0  0  0  0  0  0  0
   36.3020   29.0540   49.8130 C   0  0  0  0  0  0  0  0  0  0  0  0
   36.7400   29.4460   50.9970 N   0  0  0  0  0  0  0  0  0  0  0  0
   38.0590   30.7650   52.0170 H   0  0  0  0  0  0  0  0  0  0  0  0
   38.9090   31.7640   49.9660 H   0  0  0  0  0  0  0  0  0  0  0  0
   35.5420   28.2660   49.7340 H   0  0  0  0  0  0  0  0  0  0  0  0
  1  4  1  1  0  0  0
  1 14  1  0  0  0  0
  2  5  1  0  0  0  0
  2  1  1  0  0  0  0
  3  7  1  6  0  0  0
  3  2  1  0  0  0  0
  3  1  1  0  0  0  0
  6  2  1  0  0  0  0
  8 13  1  0  0  0  0
  8  9  1  0  0  0  0
  8  3  1  0  0  0  0
 10  9  1  0  0  0  0
 11 10  1  0  0  0  0
 11 12  1  0  0  0  0
 12 13  1  0  0  0  0
 14 18  1  0  0  0  0
 15 14  2  0  0  0  0
 16 22  1  0  0  0  0
 17 23  1  0  0  0  0
 17 16  2  0  0  0  0
 18 17  1  0  0  0  0
 19 18  2  0  0  0  0
 19 20  1  0  0  0  0
 20 21  2  0  0  0  0
 21 16  1  0  0  0  0
 24 20  1  0  0  0  0
M  END
>  <minimizedAffinity>
-4.42843437

>  <minimizedRMSD>
3.49091554

$$$$
