
 OpenBabel03272501423D

 28 31  0  0  0  0  0  0  0  0999 V2000
   40.8760   24.7490   34.9630 C   0  0  0  0  0  0  0  0  0  0  0  0
   39.6440   24.7920   35.5960 C   0  0  0  0  0  0  0  0  0  0  0  0
   39.4160   23.8170   36.5340 C   0  0  0  0  0  0  0  0  0  0  0  0
   40.3960   22.8600   36.8030 C   0  0  0  0  0  0  0  0  0  0  0  0
   40.4340   21.8160   37.6580 N   0  0  0  0  0  0  0  0  0  0  0  0
   41.6130   21.1890   37.5420 C   0  0  0  0  0  0  0  0  0  0  0  0
   42.3550   21.8370   36.5980 N   0  0  0  0  0  0  0  0  0  0  0  0
   41.6080   22.8610   36.1450 C   0  0  0  0  0  0  0  0  0  0  0  0
   41.8530   23.8140   35.2150 C   0  0  0  0  0  0  0  0  0  0  0  0
   41.1110   25.5030   34.2040 H   0  0  0  0  0  0  0  0  0  0  0  0
   38.4700   23.8260   37.0400 H   0  0  0  0  0  0  0  0  0  0  0  0
   39.6310   21.5660   38.3020 H   0  0  0  0  0  0  0  0  0  0  0  0
   41.8330   20.3160   38.1540 H   0  0  0  0  0  0  0  0  0  0  0  0
   42.7960   23.8150   34.7040 H   0  0  0  0  0  0  0  0  0  0  0  0
   37.9440   25.5620   34.0780 C   0  0  0  0  0  0  0  0  0  0  0  0
   38.7160   25.8350   35.2260 C   0  0  0  0  0  0  0  0  0  0  0  0
   38.5000   27.0490   35.8540 C   0  0  0  0  0  0  0  0  0  0  0  0
   37.5760   27.8970   35.3440 N   0  0  0  0  0  0  0  0  0  0  0  0
   36.8480   27.6120   34.2430 C   0  0  0  0  0  0  0  0  0  0  0  0
   37.0430   26.4460   33.6240 N   0  0  0  0  0  0  0  0  0  0  0  0
   38.0290   24.6330   33.4990 H   0  0  0  0  0  0  0  0  0  0  0  0
   39.1100   27.2220   36.7300 H   0  0  0  0  0  0  0  0  0  0  0  0
   35.8460   28.5770   33.7230 C   0  0  0  0  0  3  0  0  0  0  0  0
   35.7440   29.8160   34.5850 C   0  0  0  0  0  2  0  0  0  0  0  0
   34.5450   30.6020   34.1020 C   0  0  0  0  0  2  0  0  0  0  0  0
   34.5600   30.7630   32.5910 C   0  0  0  0  0  2  0  0  0  0  0  0
   35.9580   30.4710   32.0840 C   0  0  0  0  0  2  0  0  0  0  0  0
   36.3230   29.0280   32.3460 C   0  0  0  0  0  2  0  0  0  0  0  0
  1  9  2  0  0  0  0
  1  2  1  0  0  0  0
  2  3  2  0  0  0  0
  3  4  1  0  0  0  0
  3 11  1  0  0  0  0
  4  5  1  0  0  0  0
  5 12  1  0  0  0  0
  6  5  1  0  0  0  0
  6 13  1  0  0  0  0
  7  6  2  0  0  0  0
  8  7  1  0  0  0  0
  8  4  2  0  0  0  0
  9  8  1  0  0  0  0
 10  1  1  0  0  0  0
 14  9  1  0  0  0  0
 15 16  1  0  0  0  0
 16  2  1  0  0  0  0
 16 17  2  0  0  0  0
 17 22  1  0  0  0  0
 18 17  1  0  0  0  0
 19 18  2  0  0  0  0
 20 15  2  0  0  0  0
 20 19  1  0  0  0  0
 21 15  1  0  0  0  0
 23 19  1  0  0  0  0
 23 24  1  0  0  0  0
 25 24  1  0  0  0  0
 26 25  1  0  0  0  0
 27 28  1  0  0  0  0
 27 26  1  0  0  0  0
 28 23  1  0  0  0  0
M  END
>  <minimizedAffinity>
-5.72636032

$$$$

 OpenBabel03272501423D

 28 31  0  0  0  0  0  0  0  0999 V2000
   35.8990   29.1140   34.5330 C   0  0  0  0  0  0  0  0  0  0  0  0
   36.3660   28.2650   33.5420 C   0  0  0  0  0  0  0  0  0  0  0  0
   36.1460   28.6720   32.2510 C   0  0  0  0  0  0  0  0  0  0  0  0
   35.4870   29.8750   31.9970 C   0  0  0  0  0  0  0  0  0  0  0  0
   35.1480   30.5000   30.8490 N   0  0  0  0  0  0  0  0  0  0  0  0
   34.5180   31.6470   31.1360 C   0  0  0  0  0  0  0  0  0  0  0  0
   34.4470   31.7730   32.4940 N   0  0  0  0  0  0  0  0  0  0  0  0
   35.0410   30.6860   33.0200 C   0  0  0  0  0  0  0  0  0  0  0  0
   35.2480   30.3030   34.3020 C   0  0  0  0  0  0  0  0  0  0  0  0
   36.0480   28.8380   35.5830 H   0  0  0  0  0  0  0  0  0  0  0  0
   36.4970   28.0330   31.4630 H   0  0  0  0  0  0  0  0  0  0  0  0
   35.3650   30.1060   29.8900 H   0  0  0  0  0  0  0  0  0  0  0  0
   34.1650   32.2950   30.3360 H   0  0  0  0  0  0  0  0  0  0  0  0
   34.9010   30.9340   35.0970 H   0  0  0  0  0  0  0  0  0  0  0  0
   37.5250   27.0420   35.2590 C   0  0  0  0  0  0  0  0  0  0  0  0
   37.0330   27.0470   33.9380 C   0  0  0  0  0  0  0  0  0  0  0  0
   37.2420   25.9040   33.1860 C   0  0  0  0  0  0  0  0  0  0  0  0
   37.8970   24.8590   33.7460 N   0  0  0  0  0  0  0  0  0  0  0  0
   38.3580   24.8790   35.0140 C   0  0  0  0  0  0  0  0  0  0  0  0
   38.1650   25.9730   35.7550 N   0  0  0  0  0  0  0  0  0  0  0  0
   37.4170   27.8910   35.9470 H   0  0  0  0  0  0  0  0  0  0  0  0
   36.8510   25.9450   32.1780 H   0  0  0  0  0  0  0  0  0  0  0  0
   39.0700   23.7070   35.5840 C   0  0  0  0  0  3  0  0  0  0  0  0
   40.5640   23.9320   35.6700 C   0  0  0  0  0  2  0  0  0  0  0  0
   41.1980   22.6080   36.0340 C   0  0  0  0  0  2  0  0  0  0  0  0
   40.4880   21.9580   37.2100 C   0  0  0  0  0  2  0  0  0  0  0  0
   39.6590   23.0090   37.9200 C   0  0  0  0  0  2  0  0  0  0  0  0
   38.5640   23.5180   37.0100 C   0  0  0  0  0  2  0  0  0  0  0  0
  1 10  1  0  0  0  0
  2 16  1  0  0  0  0
  2  1  2  0  0  0  0
  3  2  1  0  0  0  0
  4  3  2  0  0  0  0
  4  8  1  0  0  0  0
  5  6  1  0  0  0  0
  5  4  1  0  0  0  0
  6  7  2  0  0  0  0
  7  8  1  0  0  0  0
  8  9  2  0  0  0  0
  9  1  1  0  0  0  0
  9 14  1  0  0  0  0
 11  3  1  0  0  0  0
 12  5  1  0  0  0  0
 13  6  1  0  0  0  0
 15 20  1  0  0  0  0
 15 21  1  0  0  0  0
 16 15  2  0  0  0  0
 17 18  2  0  0  0  0
 17 16  1  0  0  0  0
 18 19  1  0  0  0  0
 19 23  1  0  0  0  0
 19 20  2  0  0  0  0
 22 17  1  0  0  0  0
 23 24  1  0  0  0  0
 23 28  1  0  0  0  0
 24 25  1  0  0  0  0
 25 26  1  0  0  0  0
 26 27  1  0  0  0  0
 28 27  1  0  0  0  0
M  END
>  <minimizedAffinity>
-5.68718672

$$$$

 OpenBabel03272501423D

 28 31  0  0  0  0  0  0  0  0999 V2000
   35.9340   28.1600   32.5650 C   0  0  0  0  0  0  0  0  0  0  0  0
   36.2300   27.4060   31.4400 C   0  0  0  0  0  0  0  0  0  0  0  0
   36.5490   28.1140   30.3090 C   0  0  0  0  0  0  0  0  0  0  0  0
   36.5630   29.5090   30.3360 C   0  0  0  0  0  0  0  0  0  0  0  0
   36.8360   30.4320   29.3890 N   0  0  0  0  0  0  0  0  0  0  0  0
   36.7110   31.6580   29.9140 C   0  0  0  0  0  0  0  0  0  0  0  0
   36.3520   31.5320   31.2250 N   0  0  0  0  0  0  0  0  0  0  0  0
   36.2610   30.2140   31.4820 C   0  0  0  0  0  0  0  0  0  0  0  0
   35.9430   29.5350   32.6090 C   0  0  0  0  0  0  0  0  0  0  0  0
   35.6720   27.6460   33.4960 H   0  0  0  0  0  0  0  0  0  0  0  0
   36.7820   27.5550   29.4230 H   0  0  0  0  0  0  0  0  0  0  0  0
   37.1030   30.1800   28.3950 H   0  0  0  0  0  0  0  0  0  0  0  0
   36.8920   32.5390   29.3010 H   0  0  0  0  0  0  0  0  0  0  0  0
   35.7080   30.0830   33.5000 H   0  0  0  0  0  0  0  0  0  0  0  0
   37.1770   25.3960   32.3630 C   0  0  0  0  0  0  0  0  0  0  0  0
   36.1800   25.9660   31.5440 C   0  0  0  0  0  0  0  0  0  0  0  0
   35.2850   25.0970   30.9460 C   0  0  0  0  0  0  0  0  0  0  0  0
   35.4100   23.7670   31.1720 N   0  0  0  0  0  0  0  0  0  0  0  0
   36.3730   23.2460   31.9600 C   0  0  0  0  0  0  0  0  0  0  0  0
   37.2450   24.0700   32.5470 N   0  0  0  0  0  0  0  0  0  0  0  0
   37.9380   25.9870   32.8880 H   0  0  0  0  0  0  0  0  0  0  0  0
   34.5360   25.5700   30.3260 H   0  0  0  0  0  0  0  0  0  0  0  0
   36.4680   21.7800   32.1770 C   0  0  0  0  0  3  0  0  0  0  0  0
   35.1250   21.1600   32.4970 C   0  0  0  0  0  2  0  0  0  0  0  0
   35.3780   19.7320   32.9260 C   0  0  0  0  0  2  0  0  0  0  0  0
   36.2990   19.0160   31.9520 C   0  0  0  0  0  2  0  0  0  0  0  0
   36.3320   19.7940   30.6510 C   0  0  0  0  0  2  0  0  0  0  0  0
   36.9470   21.1580   30.8690 C   0  0  0  0  0  2  0  0  0  0  0  0
  1  9  1  0  0  0  0
  1 10  1  0  0  0  0
  2 16  1  0  0  0  0
  2  1  2  0  0  0  0
  3  4  2  0  0  0  0
  3  2  1  0  0  0  0
  4  8  1  0  0  0  0
  5  6  1  0  0  0  0
  5  4  1  0  0  0  0
  6  7  2  0  0  0  0
  7  8  1  0  0  0  0
  8  9  2  0  0  0  0
  9 14  1  0  0  0  0
 11  3  1  0  0  0  0
 12  5  1  0  0  0  0
 13  6  1  0  0  0  0
 15 20  1  0  0  0  0
 15 21  1  0  0  0  0
 16 15  2  0  0  0  0
 17 18  2  0  0  0  0
 17 16  1  0  0  0  0
 18 19  1  0  0  0  0
 19 23  1  0  0  0  0
 19 20  2  0  0  0  0
 22 17  1  0  0  0  0
 23 24  1  0  0  0  0
 24 25  1  0  0  0  0
 26 25  1  0  0  0  0
 27 28  1  0  0  0  0
 27 26  1  0  0  0  0
 28 23  1  0  0  0  0
M  END
>  <minimizedAffinity>
-5.64639759

$$$$

 OpenBabel03272501423D

 28 31  0  0  0  0  0  0  0  0999 V2000
   36.8990   28.1510   30.4930 C   0  0  0  0  0  0  0  0  0  0  0  0
   36.2810   27.5420   31.5730 C   0  0  0  0  0  0  0  0  0  0  0  0
   35.7830   28.3860   32.5340 C   0  0  0  0  0  0  0  0  0  0  0  0
   35.9130   29.7680   32.3910 C   0  0  0  0  0  0  0  0  0  0  0  0
   35.5240   30.8020   33.1660 N   0  0  0  0  0  0  0  0  0  0  0  0
   35.8850   31.9540   32.5860 C   0  0  0  0  0  0  0  0  0  0  0  0
   36.5210   31.6660   31.4120 N   0  0  0  0  0  0  0  0  0  0  0  0
   36.5370   30.3250   31.2940 C   0  0  0  0  0  0  0  0  0  0  0  0
   37.0360   29.5110   30.3340 C   0  0  0  0  0  0  0  0  0  0  0  0
   37.3140   27.5250   29.6960 H   0  0  0  0  0  0  0  0  0  0  0  0
   35.2990   27.9410   33.3830 H   0  0  0  0  0  0  0  0  0  0  0  0
   35.0130   30.6750   34.0850 H   0  0  0  0  0  0  0  0  0  0  0  0
   35.6570   32.9050   33.0640 H   0  0  0  0  0  0  0  0  0  0  0  0
   37.5210   29.9450   29.4820 H   0  0  0  0  0  0  0  0  0  0  0  0
   35.1550   25.5420   30.8540 C   0  0  0  0  0  0  0  0  0  0  0  0
   36.2110   26.1000   31.6040 C   0  0  0  0  0  0  0  0  0  0  0  0
   37.0430   25.2180   32.2700 C   0  0  0  0  0  0  0  0  0  0  0  0
   36.8060   23.8880   32.1700 N   0  0  0  0  0  0  0  0  0  0  0  0
   35.7880   23.3780   31.4450 C   0  0  0  0  0  0  0  0  0  0  0  0
   34.9750   24.2150   30.7950 N   0  0  0  0  0  0  0  0  0  0  0  0
   34.4350   26.1440   30.2840 H   0  0  0  0  0  0  0  0  0  0  0  0
   37.8400   25.6830   32.8340 H   0  0  0  0  0  0  0  0  0  0  0  0
   35.5690   21.9120   31.3670 C   0  0  0  0  0  3  0  0  0  0  0  0
   36.8350   21.1630   31.0100 C   0  0  0  0  0  2  0  0  0  0  0  0
   36.4460   19.7290   30.7290 C   0  0  0  0  0  2  0  0  0  0  0  0
   35.5520   19.1720   31.8250 C   0  0  0  0  0  2  0  0  0  0  0  0
   35.6760   20.0550   33.0500 C   0  0  0  0  0  2  0  0  0  0  0  0
   35.1490   21.4410   32.7550 C   0  0  0  0  0  2  0  0  0  0  0  0
  1  2  1  0  0  0  0
  2 16  1  0  0  0  0
  2  3  2  0  0  0  0
  3 11  1  0  0  0  0
  4  3  1  0  0  0  0
  4  5  1  0  0  0  0
  5 12  1  0  0  0  0
  6 13  1  0  0  0  0
  6  5  1  0  0  0  0
  7  6  2  0  0  0  0
  8  7  1  0  0  0  0
  8  4  2  0  0  0  0
  9  1  2  0  0  0  0
  9  8  1  0  0  0  0
 10  1  1  0  0  0  0
 14  9  1  0  0  0  0
 15 16  1  0  0  0  0
 16 17  2  0  0  0  0
 17 22  1  0  0  0  0
 18 17  1  0  0  0  0
 19 18  2  0  0  0  0
 20 15  2  0  0  0  0
 20 19  1  0  0  0  0
 21 15  1  0  0  0  0
 23 19  1  0  0  0  0
 23 28  1  0  0  0  0
 24 23  1  0  0  0  0
 25 24  1  0  0  0  0
 25 26  1  0  0  0  0
 26 27  1  0  0  0  0
 28 27  1  0  0  0  0
M  END
>  <minimizedAffinity>
-5.56183481

$$$$

 OpenBabel03272501423D

 28 31  0  0  0  0  0  0  0  0999 V2000
   35.2500   31.4880   33.3030 C   0  0  0  0  0  0  0  0  0  0  0  0
   35.4860   30.3470   34.0520 C   0  0  0  0  0  0  0  0  0  0  0  0
   35.4090   30.4950   35.4140 C   0  0  0  0  0  0  0  0  0  0  0  0
   35.1080   31.7400   35.9680 C   0  0  0  0  0  0  0  0  0  0  0  0
   34.9720   32.1570   37.2450 N   0  0  0  0  0  0  0  0  0  0  0  0
   34.6730   33.4630   37.2570 C   0  0  0  0  0  0  0  0  0  0  0  0
   34.6130   33.9040   35.9670 N   0  0  0  0  0  0  0  0  0  0  0  0
   34.8800   32.8470   35.1770 C   0  0  0  0  0  0  0  0  0  0  0  0
   34.9510   32.7220   33.8310 C   0  0  0  0  0  0  0  0  0  0  0  0
   35.2980   31.4260   32.2110 H   0  0  0  0  0  0  0  0  0  0  0  0
   35.5890   29.6270   36.0190 H   0  0  0  0  0  0  0  0  0  0  0  0
   35.0920   31.5150   38.0790 H   0  0  0  0  0  0  0  0  0  0  0  0
   34.5230   33.9840   38.2020 H   0  0  0  0  0  0  0  0  0  0  0  0
   34.7730   33.5830   33.2170 H   0  0  0  0  0  0  0  0  0  0  0  0
   36.5250   28.1770   34.1090 C   0  0  0  0  0  0  0  0  0  0  0  0
   35.7890   29.1180   33.3580 C   0  0  0  0  0  0  0  0  0  0  0  0
   35.4490   28.7600   32.0650 C   0  0  0  0  0  0  0  0  0  0  0  0
   35.8320   27.5490   31.5950 N   0  0  0  0  0  0  0  0  0  0  0  0
   36.5360   26.6660   32.3350 C   0  0  0  0  0  0  0  0  0  0  0  0
   36.8730   26.9940   33.5850 N   0  0  0  0  0  0  0  0  0  0  0  0
   36.8490   28.3510   35.1430 H   0  0  0  0  0  0  0  0  0  0  0  0
   34.8850   29.5060   31.5210 H   0  0  0  0  0  0  0  0  0  0  0  0
   36.9330   25.3500   31.7740 C   0  0  0  0  0  3  0  0  0  0  0  0
   37.4720   24.4150   32.8350 C   0  0  0  0  0  2  0  0  0  0  0  0
   38.0570   23.2150   32.1230 C   0  0  0  0  0  2  0  0  0  0  0  0
   37.0930   22.6630   31.0850 C   0  0  0  0  0  2  0  0  0  0  0  0
   35.7050   23.1990   31.3760 C   0  0  0  0  0  2  0  0  0  0  0  0
   35.6750   24.7010   31.2050 C   0  0  0  0  0  2  0  0  0  0  0  0
  1  9  2  0  0  0  0
  1  2  1  0  0  0  0
  2  3  2  0  0  0  0
  3  4  1  0  0  0  0
  3 11  1  0  0  0  0
  4  5  1  0  0  0  0
  5  6  1  0  0  0  0
  5 12  1  0  0  0  0
  6 13  1  0  0  0  0
  7  6  2  0  0  0  0
  8  7  1  0  0  0  0
  8  4  2  0  0  0  0
  9  8  1  0  0  0  0
 10  1  1  0  0  0  0
 14  9  1  0  0  0  0
 15 21  1  0  0  0  0
 16  2  1  0  0  0  0
 16 15  2  0  0  0  0
 17 16  1  0  0  0  0
 18 17  2  0  0  0  0
 18 19  1  0  0  0  0
 19 20  2  0  0  0  0
 20 15  1  0  0  0  0
 22 17  1  0  0  0  0
 23 19  1  0  0  0  0
 23 24  1  0  0  0  0
 25 24  1  0  0  0  0
 26 27  1  0  0  0  0
 26 25  1  0  0  0  0
 28 27  1  0  0  0  0
 28 23  1  0  0  0  0
M  END
>  <minimizedAffinity>
-5.51730585

$$$$

 OpenBabel03272501423D

 28 31  0  0  0  0  0  0  0  0999 V2000
   36.7200   28.3880   32.1270 C   0  0  0  0  0  0  0  0  0  0  0  0
   36.5280   28.2090   33.4880 C   0  0  0  0  0  0  0  0  0  0  0  0
   35.6480   29.0740   34.0890 C   0  0  0  0  0  0  0  0  0  0  0  0
   35.0080   30.0590   33.3370 C   0  0  0  0  0  0  0  0  0  0  0  0
   34.1170   31.0180   33.6670 N   0  0  0  0  0  0  0  0  0  0  0  0
   33.7970   31.7240   32.5750 C   0  0  0  0  0  0  0  0  0  0  0  0
   34.4920   31.2170   31.5140 N   0  0  0  0  0  0  0  0  0  0  0  0
   35.2340   30.1960   31.9830 C   0  0  0  0  0  0  0  0  0  0  0  0
   36.0980   29.3530   31.3700 C   0  0  0  0  0  0  0  0  0  0  0  0
   37.4120   27.7260   31.5960 H   0  0  0  0  0  0  0  0  0  0  0  0
   35.4810   28.9580   35.1430 H   0  0  0  0  0  0  0  0  0  0  0  0
   33.7540   31.1550   34.6530 H   0  0  0  0  0  0  0  0  0  0  0  0
   33.0870   32.5470   32.6400 H   0  0  0  0  0  0  0  0  0  0  0  0
   36.2730   29.4600   30.3170 H   0  0  0  0  0  0  0  0  0  0  0  0
   37.3280   25.9410   33.4300 C   0  0  0  0  0  0  0  0  0  0  0  0
   37.2520   27.1510   34.1520 C   0  0  0  0  0  0  0  0  0  0  0  0
   37.8680   27.1830   35.3900 C   0  0  0  0  0  0  0  0  0  0  0  0
   38.5010   26.0720   35.8380 N   0  0  0  0  0  0  0  0  0  0  0  0
   38.5610   24.9260   35.1280 C   0  0  0  0  0  0  0  0  0  0  0  0
   37.9720   24.8770   33.9300 N   0  0  0  0  0  0  0  0  0  0  0  0
   36.8790   25.8000   32.4380 H   0  0  0  0  0  0  0  0  0  0  0  0
   37.7880   28.1260   35.9130 H   0  0  0  0  0  0  0  0  0  0  0  0
   39.2680   23.7350   35.6630 C   0  0  0  0  0  3  0  0  0  0  0  0
   40.7630   23.9500   35.7520 C   0  0  0  0  0  2  0  0  0  0  0  0
   41.3910   22.6120   36.0770 C   0  0  0  0  0  2  0  0  0  0  0  0
   40.6800   21.9340   37.2370 C   0  0  0  0  0  2  0  0  0  0  0  0
   39.8580   22.9700   37.9770 C   0  0  0  0  0  2  0  0  0  0  0  0
   38.7630   23.5090   37.0840 C   0  0  0  0  0  2  0  0  0  0  0  0
  1  2  1  0  0  0  0
  2  3  2  0  0  0  0
  2 16  1  0  0  0  0
  3 11  1  0  0  0  0
  4  5  1  0  0  0  0
  4  3  1  0  0  0  0
  5 12  1  0  0  0  0
  6 13  1  0  0  0  0
  6  5  1  0  0  0  0
  7  8  1  0  0  0  0
  7  6  2  0  0  0  0
  8  4  2  0  0  0  0
  9  8  1  0  0  0  0
  9  1  2  0  0  0  0
 10  1  1  0  0  0  0
 14  9  1  0  0  0  0
 15 20  2  0  0  0  0
 15 16  1  0  0  0  0
 16 17  2  0  0  0  0
 17 18  1  0  0  0  0
 17 22  1  0  0  0  0
 19 23  1  0  0  0  0
 19 18  2  0  0  0  0
 20 19  1  0  0  0  0
 21 15  1  0  0  0  0
 23 24  1  0  0  0  0
 23 28  1  0  0  0  0
 24 25  1  0  0  0  0
 25 26  1  0  0  0  0
 26 27  1  0  0  0  0
 28 27  1  0  0  0  0
M  END
>  <minimizedAffinity>
-5.50010395

$$$$

 OpenBabel03272501423D

 28 31  0  0  0  0  0  0  0  0999 V2000
   36.8140   27.8940   34.5540 C   0  0  0  0  0  0  0  0  0  0  0  0
   37.7000   27.3410   33.6440 C   0  0  0  0  0  0  0  0  0  0  0  0
   37.6030   27.8010   32.3550 C   0  0  0  0  0  0  0  0  0  0  0  0
   36.6550   28.7710   32.0260 C   0  0  0  0  0  0  0  0  0  0  0  0
   36.3510   29.3860   30.8640 N   0  0  0  0  0  0  0  0  0  0  0  0
   35.3490   30.2520   31.0660 C   0  0  0  0  0  0  0  0  0  0  0  0
   34.9940   30.2000   32.3840 N   0  0  0  0  0  0  0  0  0  0  0  0
   35.7950   29.2910   32.9710 C   0  0  0  0  0  0  0  0  0  0  0  0
   35.8730   28.8500   34.2480 C   0  0  0  0  0  0  0  0  0  0  0  0
   36.8470   27.5630   35.5980 H   0  0  0  0  0  0  0  0  0  0  0  0
   38.2770   27.3890   31.6290 H   0  0  0  0  0  0  0  0  0  0  0  0
   36.8550   29.1840   29.9540 H   0  0  0  0  0  0  0  0  0  0  0  0
   34.9620   30.8470   30.2410 H   0  0  0  0  0  0  0  0  0  0  0  0
   35.2040   29.2560   34.9820 H   0  0  0  0  0  0  0  0  0  0  0  0
   38.0990   25.0460   34.2470 C   0  0  0  0  0  0  0  0  0  0  0  0
   38.6340   26.3440   34.1120 C   0  0  0  0  0  0  0  0  0  0  0  0
   39.9680   26.5100   34.4390 C   0  0  0  0  0  0  0  0  0  0  0  0
   40.6790   25.4380   34.8630 N   0  0  0  0  0  0  0  0  0  0  0  0
   40.1440   24.2050   34.9830 C   0  0  0  0  0  0  0  0  0  0  0  0
   38.8580   24.0260   34.6720 N   0  0  0  0  0  0  0  0  0  0  0  0
   37.0550   24.7960   34.0160 H   0  0  0  0  0  0  0  0  0  0  0  0
   40.3430   27.5180   34.3230 H   0  0  0  0  0  0  0  0  0  0  0  0
   40.9660   23.0610   35.4520 C   0  0  0  0  0  3  0  0  0  0  0  0
   42.2670   23.5110   36.0810 C   0  0  0  0  0  2  0  0  0  0  0  0
   43.1120   22.2750   36.2990 C   0  0  0  0  0  2  0  0  0  0  0  0
   42.3160   21.1730   36.9790 C   0  0  0  0  0  2  0  0  0  0  0  0
   41.0790   21.7820   37.6070 C   0  0  0  0  0  2  0  0  0  0  0  0
   40.1690   22.3460   36.5390 C   0  0  0  0  0  2  0  0  0  0  0  0
  1 10  1  0  0  0  0
  2 16  1  0  0  0  0
  2  1  2  0  0  0  0
  3  2  1  0  0  0  0
  4  3  2  0  0  0  0
  4  8  1  0  0  0  0
  5  6  1  0  0  0  0
  5  4  1  0  0  0  0
  6  7  2  0  0  0  0
  7  8  1  0  0  0  0
  8  9  2  0  0  0  0
  9  1  1  0  0  0  0
  9 14  1  0  0  0  0
 11  3  1  0  0  0  0
 12  5  1  0  0  0  0
 13  6  1  0  0  0  0
 15 20  1  0  0  0  0
 16 15  2  0  0  0  0
 16 17  1  0  0  0  0
 17 18  2  0  0  0  0
 18 19  1  0  0  0  0
 19 23  1  0  0  0  0
 20 19  2  0  0  0  0
 21 15  1  0  0  0  0
 22 17  1  0  0  0  0
 23 24  1  0  0  0  0
 23 28  1  0  0  0  0
 24 25  1  0  0  0  0
 25 26  1  0  0  0  0
 26 27  1  0  0  0  0
 28 27  1  0  0  0  0
M  END
>  <minimizedAffinity>
-5.49956083

$$$$

 OpenBabel03272501423D

 28 31  0  0  0  0  0  0  0  0999 V2000
   35.9740   30.9170   35.3800 C   0  0  0  0  0  0  0  0  0  0  0  0
   35.0190   30.1560   34.7260 C   0  0  0  0  0  0  0  0  0  0  0  0
   33.7110   30.4680   34.9990 C   0  0  0  0  0  0  0  0  0  0  0  0
   33.4070   31.5000   35.8890 C   0  0  0  0  0  0  0  0  0  0  0  0
   32.2340   32.0050   36.3270 N   0  0  0  0  0  0  0  0  0  0  0  0
   32.4730   33.0040   37.1870 C   0  0  0  0  0  0  0  0  0  0  0  0
   33.8250   33.1530   37.3110 N   0  0  0  0  0  0  0  0  0  0  0  0
   34.3960   32.2300   36.5150 C   0  0  0  0  0  0  0  0  0  0  0  0
   35.6930   31.9380   36.2590 C   0  0  0  0  0  0  0  0  0  0  0  0
   37.0340   30.7110   35.1990 H   0  0  0  0  0  0  0  0  0  0  0  0
   32.9500   29.8940   34.5060 H   0  0  0  0  0  0  0  0  0  0  0  0
   31.2920   31.6360   36.0120 H   0  0  0  0  0  0  0  0  0  0  0  0
   31.6470   33.5400   37.6500 H   0  0  0  0  0  0  0  0  0  0  0  0
   36.4620   32.5050   36.7460 H   0  0  0  0  0  0  0  0  0  0  0  0
   36.3990   28.2160   34.3810 C   0  0  0  0  0  0  0  0  0  0  0  0
   35.4640   29.1160   33.8290 C   0  0  0  0  0  0  0  0  0  0  0  0
   35.0890   28.9030   32.5140 C   0  0  0  0  0  0  0  0  0  0  0  0
   35.6280   27.8600   31.8370 N   0  0  0  0  0  0  0  0  0  0  0  0
   36.5210   27.0120   32.3900 C   0  0  0  0  0  0  0  0  0  0  0  0
   36.8940   27.2020   33.6570 N   0  0  0  0  0  0  0  0  0  0  0  0
   36.7680   28.2860   35.4130 H   0  0  0  0  0  0  0  0  0  0  0  0
   34.3720   29.6120   32.1250 H   0  0  0  0  0  0  0  0  0  0  0  0
   37.0830   25.8830   31.6060 C   0  0  0  0  0  3  0  0  0  0  0  0
   38.0050   25.0140   32.4340 C   0  0  0  0  0  2  0  0  0  0  0  0
   38.6930   24.0570   31.4870 C   0  0  0  0  0  2  0  0  0  0  0  0
   37.6940   23.3840   30.5580 C   0  0  0  0  0  2  0  0  0  0  0  0
   36.3040   23.5460   31.1380 C   0  0  0  0  0  2  0  0  0  0  0  0
   35.9140   25.0060   31.1710 C   0  0  0  0  0  2  0  0  0  0  0  0
  1  9  1  0  0  0  0
  2  3  1  0  0  0  0
  2  1  2  0  0  0  0
  3  4  2  0  0  0  0
  4  5  1  0  0  0  0
  4  8  1  0  0  0  0
  5  6  1  0  0  0  0
  6  7  2  0  0  0  0
  6 13  1  0  0  0  0
  8  7  1  0  0  0  0
  9  8  2  0  0  0  0
  9 14  1  0  0  0  0
 10  1  1  0  0  0  0
 11  3  1  0  0  0  0
 12  5  1  0  0  0  0
 15 21  1  0  0  0  0
 16 15  1  0  0  0  0
 16  2  1  0  0  0  0
 17 16  2  0  0  0  0
 18 19  2  0  0  0  0
 18 17  1  0  0  0  0
 19 20  1  0  0  0  0
 20 15  2  0  0  0  0
 22 17  1  0  0  0  0
 23 19  1  0  0  0  0
 23 24  1  0  0  0  0
 25 24  1  0  0  0  0
 26 27  1  0  0  0  0
 26 25  1  0  0  0  0
 27 28  1  0  0  0  0
 28 23  1  0  0  0  0
M  END
>  <minimizedAffinity>
-5.40754461

$$$$

 OpenBabel03272501423D

 28 31  0  0  0  0  0  0  0  0999 V2000
   37.4750   21.9280   30.8070 C   0  0  0  0  0  0  0  0  0  0  0  0
   36.4270   22.6480   31.3570 C   0  0  0  0  0  0  0  0  0  0  0  0
   35.4400   21.9080   31.9580 C   0  0  0  0  0  0  0  0  0  0  0  0
   35.5280   20.5160   31.9890 C   0  0  0  0  0  0  0  0  0  0  0  0
   34.7170   19.5670   32.5020 N   0  0  0  0  0  0  0  0  0  0  0  0
   35.2460   18.3570   32.2730 C   0  0  0  0  0  0  0  0  0  0  0  0
   36.4220   18.5220   31.5990 N   0  0  0  0  0  0  0  0  0  0  0  0
   36.5930   19.8450   31.4250 C   0  0  0  0  0  0  0  0  0  0  0  0
   37.5780   20.5560   30.8280 C   0  0  0  0  0  0  0  0  0  0  0  0
   38.2910   22.4680   30.3140 H   0  0  0  0  0  0  0  0  0  0  0  0
   34.6160   22.4410   32.3930 H   0  0  0  0  0  0  0  0  0  0  0  0
   33.8090   19.7890   33.0020 H   0  0  0  0  0  0  0  0  0  0  0  0
   34.7340   17.4600   32.6150 H   0  0  0  0  0  0  0  0  0  0  0  0
   38.4070   20.0340   30.3900 H   0  0  0  0  0  0  0  0  0  0  0  0
   37.7440   24.6610   31.3020 C   0  0  0  0  0  0  0  0  0  0  0  0
   36.4550   24.0880   31.2580 C   0  0  0  0  0  0  0  0  0  0  0  0
   35.3860   24.9570   31.1290 C   0  0  0  0  0  0  0  0  0  0  0  0
   35.6260   26.2880   31.0520 N   0  0  0  0  0  0  0  0  0  0  0  0
   36.8700   26.8120   31.0950 C   0  0  0  0  0  0  0  0  0  0  0  0
   37.9140   25.9880   31.2200 N   0  0  0  0  0  0  0  0  0  0  0  0
   38.6640   24.0700   31.4010 H   0  0  0  0  0  0  0  0  0  0  0  0
   34.4150   24.4820   31.0990 H   0  0  0  0  0  0  0  0  0  0  0  0
   37.0810   28.2790   31.0070 C   0  0  0  0  0  3  0  0  0  0  0  0
   37.1080   28.7670   29.5750 C   0  0  0  0  0  2  0  0  0  0  0  0
   37.5600   30.2100   29.6000 C   0  0  0  0  0  2  0  0  0  0  0  0
   36.7870   31.0150   30.6320 C   0  0  0  0  0  2  0  0  0  0  0  0
   35.5320   30.2520   31.0050 C   0  0  0  0  0  2  0  0  0  0  0  0
   35.8920   28.9500   31.6860 C   0  0  0  0  0  2  0  0  0  0  0  0
  1  9  2  0  0  0  0
  1  2  1  0  0  0  0
  2  3  2  0  0  0  0
  3  4  1  0  0  0  0
  3 11  1  0  0  0  0
  4  5  1  0  0  0  0
  5 12  1  0  0  0  0
  6  5  1  0  0  0  0
  6 13  1  0  0  0  0
  7  6  2  0  0  0  0
  8  7  1  0  0  0  0
  8  4  2  0  0  0  0
  9  8  1  0  0  0  0
 10  1  1  0  0  0  0
 14  9  1  0  0  0  0
 15 21  1  0  0  0  0
 16 15  1  0  0  0  0
 16  2  1  0  0  0  0
 17 16  2  0  0  0  0
 18 19  2  0  0  0  0
 18 17  1  0  0  0  0
 19 20  1  0  0  0  0
 20 15  2  0  0  0  0
 22 17  1  0  0  0  0
 23 19  1  0  0  0  0
 23 28  1  0  0  0  0
 24 25  1  0  0  0  0
 24 23  1  0  0  0  0
 25 26  1  0  0  0  0
 26 27  1  0  0  0  0
 27 28  1  0  0  0  0
M  END
>  <minimizedAffinity>
-5.38703203

$$$$
