
 OpenBabel03262520203D

 18 19  0  0  1  0  0  0  0  0999 V2000
   37.5130   29.4010   50.8670 C   0  0  0  0  0  0  0  0  0  0  0  0
   38.0400   30.7050   50.6320 C   0  0  0  0  0  0  0  0  0  0  0  0
   37.4910   31.4330   49.5760 C   0  0  0  0  0  0  0  0  0  0  0  0
   36.4930   30.8550   48.8430 N   0  0  0  0  0  0  0  0  0  0  0  0
   36.0180   29.6160   49.0950 C   0  0  0  0  0  0  0  0  0  0  0  0
   36.5360   28.9090   50.1040 N   0  0  0  0  0  0  0  0  0  0  0  0
   37.9020   28.7910   51.6740 H   0  0  0  0  0  0  0  0  0  0  0  0
   38.8320   31.0930   51.2580 H   0  0  0  0  0  0  0  0  0  0  0  0
   34.9490   29.0970   48.2470 C   0  0  1  0  0  0  0  0  0  0  0  0
   33.9040   28.3110   49.0430 C   0  0  0  0  0  0  0  0  0  0  0  0
   33.2250   27.4560   47.9770 C   0  0  0  0  0  0  0  0  0  0  0  0
   32.5690   28.2770   46.9230 C   0  0  0  0  0  0  0  0  0  0  0  0
   33.1750   29.5790   46.5970 C   0  0  0  0  0  0  0  0  0  0  0  0
   34.1800   30.1510   47.5140 C   0  0  0  0  0  0  0  0  0  0  0  0
   38.0010   32.7950   49.2870 C   0  0  0  0  0  0  0  0  0  0  0  0
   39.1870   32.8940   49.9700 F   0  0  0  0  0  0  0  0  0  0  0  0
   38.2520   33.0040   47.9420 F   0  0  0  0  0  0  0  0  0  0  0  0
   37.1470   33.7830   49.7500 F   0  0  0  0  0  0  0  0  0  0  0  0
  1  7  1  0  0  0  0
  2  1  1  0  0  0  0
  2  8  1  0  0  0  0
  3  2  2  0  0  0  0
  4  5  2  0  0  0  0
  4  3  1  0  0  0  0
  5  6  1  0  0  0  0
  6  1  2  0  0  0  0
  9 10  1  0  0  0  0
  9  5  1  1  0  0  0
 11 10  1  0  0  0  0
 12 11  1  0  0  0  0
 13 12  2  0  0  0  0
 13 14  1  0  0  0  0
 14  9  1  0  0  0  0
 15  3  1  0  0  0  0
 15 18  1  0  0  0  0
 15 16  1  0  0  0  0
 17 15  1  0  0  0  0
M  END
>  <minimizedAffinity>
-5.74116945

>  <minimizedRMSD>
1.45341682

$$$$
