
 OpenBabel03262521033D

 15 16  0  0  0  0  0  0  0  0999 V2000
   36.7760   31.2070   48.7080 C   0  0  0  0  0  0  0  0  0  0  0  0
   35.8740   30.4710   49.5050 C   0  0  0  0  0  0  0  0  0  0  0  0
   36.3160   30.0270   50.7510 C   0  0  0  0  0  0  0  0  0  0  0  0
   37.5930   30.3300   51.1270 N   0  0  0  0  0  0  0  0  0  0  0  0
   38.4300   31.0360   50.3390 C   0  0  0  0  0  0  0  0  0  0  0  0
   38.0190   31.4730   49.1290 N   0  0  0  0  0  0  0  0  0  0  0  0
   36.4490   31.5580   47.7410 H   0  0  0  0  0  0  0  0  0  0  0  0
   35.6810   29.4620   51.4110 H   0  0  0  0  0  0  0  0  0  0  0  0
   39.4190   31.2140   50.7440 H   0  0  0  0  0  0  0  0  0  0  0  0
   34.4770   30.1650   49.0450 C   0  0  0  0  0  0  0  0  0  0  0  0
   34.2620   30.3380   47.6010 C   0  0  0  0  0  0  0  0  0  0  0  0
   34.3830   29.1270   46.7480 C   0  0  0  0  0  0  0  0  0  0  0  0
   33.9930   27.8400   47.3520 C   0  0  0  0  0  0  0  0  0  0  0  0
   34.2450   27.6580   48.8040 C   0  0  0  0  0  0  0  0  0  0  0  0
   33.9780   28.8760   49.6230 C   0  0  0  0  0  0  0  0  0  0  0  0
  1  6  2  0  0  0  0
  1  2  1  0  0  0  0
  2  3  2  0  0  0  0
  3  4  1  0  0  0  0
  3  8  1  0  0  0  0
  5  9  1  0  0  0  0
  5  4  2  0  0  0  0
  6  5  1  0  0  0  0
  7  1  1  0  0  0  0
 10  2  1  0  0  0  0
 10 15  1  0  0  0  0
 11 10  1  0  0  0  0
 12 13  1  0  0  0  0
 12 11  1  0  0  0  0
 13 14  1  0  0  0  0
 14 15  1  0  0  0  0
M  END
>  <minimizedAffinity>
-4.39351988

>  <minimizedRMSD>
5.36598396

$$$$
