
 OpenBabel03262521063D

 33 35  0  0  0  0  0  0  0  0999 V2000
   38.3690   27.2570   35.5890 Br  0  0  0  0  0  0  0  0  0  0  0  0
   37.8430   26.1340   34.1780 C   0  0  0  0  0  0  0  0  0  0  0  0
   38.0360   24.8000   34.3790 C   0  0  0  0  0  0  0  0  0  0  0  0
   37.6760   23.8850   33.3830 C   0  0  0  0  0  0  0  0  0  0  0  0
   37.1200   24.3590   32.1940 C   0  0  0  0  0  0  0  0  0  0  0  0
   36.9570   25.7050   32.0630 C   0  0  0  0  0  0  0  0  0  0  0  0
   37.3030   26.6120   33.0250 C   0  0  0  0  0  0  0  0  0  0  0  0
   37.7930   22.8240   33.4590 H   0  0  0  0  0  0  0  0  0  0  0  0
   36.8320   23.6730   31.4070 H   0  0  0  0  0  0  0  0  0  0  0  0
   36.5260   26.0690   31.1390 H   0  0  0  0  0  0  0  0  0  0  0  0
   37.8960   23.9030   36.7490 C   0  0  0  0  0  0  0  0  0  0  0  0
   38.6030   24.1400   35.5610 C   0  0  0  0  0  0  0  0  0  0  0  0
   39.9510   23.7110   35.5020 C   0  0  0  0  0  0  0  0  0  0  0  0
   40.4610   23.0950   36.6220 N   0  0  0  0  0  0  0  0  0  0  0  0
   39.7460   22.8970   37.7190 C   0  0  0  0  0  0  0  0  0  0  0  0
   38.4700   23.2960   37.7930 N   0  0  0  0  0  0  0  0  0  0  0  0
   36.8650   24.2400   36.7730 H   0  0  0  0  0  0  0  0  0  0  0  0
   40.5420   23.8670   34.6140 H   0  0  0  0  0  0  0  0  0  0  0  0
   40.3080   22.3940   38.5120 H   0  0  0  0  0  0  0  0  0  0  0  0
   37.1400   28.0100   32.9030 N   0  0  0  0  0  0  0  0  0  0  0  0
   38.0510   28.4930   32.6940 H   0  0  0  0  0  0  0  0  0  0  0  0
   35.8040   29.0560   33.0200 S   0  0  0  0  0  0  0  0  0  0  0  0
   34.6040   28.4800   32.3460 O   0  0  0  0  0  0  0  0  0  0  0  0
   34.1070   28.8630   31.5850 H   0  0  0  0  0  0  0  0  0  0  0  0
   36.1260   30.3530   32.2930 O   0  0  0  0  0  0  0  0  0  0  0  0
   36.4490   31.1980   32.6950 H   0  0  0  0  0  0  0  0  0  0  0  0
   35.4950   29.3760   34.6430 O   0  0  0  0  0  0  0  0  0  0  0  0
   35.2440   30.7150   34.8000 C   0  0  0  0  0  3  0  0  0  0  0  0
   33.7990   31.0170   35.1210 C   0  0  0  0  0  2  0  0  0  0  0  0
   33.5710   31.3240   36.5820 C   0  0  0  0  0  2  0  0  0  0  0  0
   34.2060   32.6580   36.8840 C   0  0  0  0  0  2  0  0  0  0  0  0
   35.5460   32.7190   36.1660 C   0  0  0  0  0  2  0  0  0  0  0  0
   36.0940   31.3350   35.8850 C   0  0  0  0  0  2  0  0  0  0  0  0
  2  3  1  0  0  0  0
  2  1  1  0  0  0  0
  3 12  1  0  0  0  0
  4  8  1  0  0  0  0
  4  3  2  0  0  0  0
  5  4  1  0  0  0  0
  6  5  2  0  0  0  0
  6  7  1  0  0  0  0
  7  2  2  0  0  0  0
  9  5  1  0  0  0  0
 10  6  1  0  0  0  0
 11 17  1  0  0  0  0
 11 16  1  0  0  0  0
 12 11  2  0  0  0  0
 13 12  1  0  0  0  0
 13 14  2  0  0  0  0
 14 15  1  0  0  0  0
 15 16  2  0  0  0  0
 15 19  1  0  0  0  0
 18 13  1  0  0  0  0
 20 22  1  0  0  0  0
 20  7  1  0  0  0  0
 21 20  1  0  0  0  0
 22 27  1  0  0  0  0
 23 22  1  0  0  0  0
 24 23  1  0  0  0  0
 25 26  1  0  0  0  0
 25 22  1  0  0  0  0
 27 28  1  0  0  0  0
 28 29  1  0  0  0  0
 28 33  1  0  0  0  0
 29 30  1  0  0  0  0
 30 31  1  0  0  0  0
 32 31  1  0  0  0  0
 33 32  1  0  0  0  0
M  END
>  <minimizedAffinity>
-5.78439093

$$$$

 OpenBabel03262521063D

 33 35  0  0  0  0  0  0  0  0999 V2000
   36.9040   24.9670   32.2420 Br  0  0  0  0  0  0  0  0  0  0  0  0
   37.5120   25.7470   33.8390 C   0  0  0  0  0  0  0  0  0  0  0  0
   37.4010   27.1030   33.9160 C   0  0  0  0  0  0  0  0  0  0  0  0
   37.8280   27.7740   35.0680 C   0  0  0  0  0  0  0  0  0  0  0  0
   38.3630   27.0360   36.1250 C   0  0  0  0  0  0  0  0  0  0  0  0
   38.4430   25.6850   35.9770 C   0  0  0  0  0  0  0  0  0  0  0  0
   38.0310   25.0140   34.8600 C   0  0  0  0  0  0  0  0  0  0  0  0
   37.7770   28.8340   35.2100 H   0  0  0  0  0  0  0  0  0  0  0  0
   38.7010   27.5300   37.0270 H   0  0  0  0  0  0  0  0  0  0  0  0
   38.8590   25.1160   36.7990 H   0  0  0  0  0  0  0  0  0  0  0  0
   37.5060   28.3240   31.6940 C   0  0  0  0  0  0  0  0  0  0  0  0
   36.8660   28.0210   32.9050 C   0  0  0  0  0  0  0  0  0  0  0  0
   35.6210   28.6450   33.1630 C   0  0  0  0  0  0  0  0  0  0  0  0
   35.1390   29.5030   32.2010 N   0  0  0  0  0  0  0  0  0  0  0  0
   35.7870   29.7520   31.0730 C   0  0  0  0  0  0  0  0  0  0  0  0
   36.9660   29.1720   30.8120 N   0  0  0  0  0  0  0  0  0  0  0  0
   38.4590   27.8360   31.5160 H   0  0  0  0  0  0  0  0  0  0  0  0
   35.0850   28.4490   34.0780 H   0  0  0  0  0  0  0  0  0  0  0  0
   35.2610   30.4560   30.4230 H   0  0  0  0  0  0  0  0  0  0  0  0
   38.1080   23.6130   34.6940 N   0  0  0  0  0  0  0  0  0  0  0  0
   38.4250   23.3510   33.7250 H   0  0  0  0  0  0  0  0  0  0  0  0
   37.8020   22.2850   35.7110 S   0  0  0  0  0  0  0  0  0  0  0  0
   37.0650   22.7040   36.9400 O   0  0  0  0  0  0  0  0  0  0  0  0
   37.3680   22.6160   37.8750 H   0  0  0  0  0  0  0  0  0  0  0  0
   39.1270   21.7040   36.1800 O   0  0  0  0  0  0  0  0  0  0  0  0
   39.6050   20.9250   35.7990 H   0  0  0  0  0  0  0  0  0  0  0  0
   36.9410   21.1210   34.8550 O   0  0  0  0  0  0  0  0  0  0  0  0
   36.8580   21.4990   33.5380 C   0  0  0  0  0  3  0  0  0  0  0  0
   37.8630   20.7990   32.6540 C   0  0  0  0  0  2  0  0  0  0  0  0
   37.2570   19.6800   31.8410 C   0  0  0  0  0  2  0  0  0  0  0  0
   36.3530   20.2940   30.8020 C   0  0  0  0  0  2  0  0  0  0  0  0
   35.5820   21.4310   31.4560 C   0  0  0  0  0  2  0  0  0  0  0  0
   35.4850   21.2510   32.9560 C   0  0  0  0  0  2  0  0  0  0  0  0
  1  2  1  0  0  0  0
  2  3  2  0  0  0  0
  2  7  1  0  0  0  0
  3  4  1  0  0  0  0
  4  8  1  0  0  0  0
  4  5  2  0  0  0  0
  5  9  1  0  0  0  0
  6  5  1  0  0  0  0
  6 10  1  0  0  0  0
  7  6  2  0  0  0  0
 11 12  1  0  0  0  0
 12 13  2  0  0  0  0
 12  3  1  0  0  0  0
 13 18  1  0  0  0  0
 14 13  1  0  0  0  0
 15 14  2  0  0  0  0
 16 15  1  0  0  0  0
 16 11  2  0  0  0  0
 17 11  1  0  0  0  0
 19 15  1  0  0  0  0
 20  7  1  0  0  0  0
 20 22  1  0  0  0  0
 21 20  1  0  0  0  0
 22 25  1  0  0  0  0
 22 23  1  0  0  0  0
 23 24  1  0  0  0  0
 26 25  1  0  0  0  0
 27 22  1  0  0  0  0
 28 27  1  0  0  0  0
 29 28  1  0  0  0  0
 30 29  1  0  0  0  0
 31 32  1  0  0  0  0
 31 30  1  0  0  0  0
 32 33  1  0  0  0  0
 33 28  1  0  0  0  0
M  END
>  <minimizedAffinity>
-5.73396492

$$$$

 OpenBabel03262521063D

 33 35  0  0  0  0  0  0  0  0999 V2000
   37.0440   24.7730   32.3520 Br  0  0  0  0  0  0  0  0  0  0  0  0
   37.5880   25.6730   33.9080 C   0  0  0  0  0  0  0  0  0  0  0  0
   37.5350   27.0340   33.8550 C   0  0  0  0  0  0  0  0  0  0  0  0
   37.9220   27.7920   34.9660 C   0  0  0  0  0  0  0  0  0  0  0  0
   38.3580   27.1350   36.1180 C   0  0  0  0  0  0  0  0  0  0  0  0
   38.3850   25.7740   36.0980 C   0  0  0  0  0  0  0  0  0  0  0  0
   38.0100   25.0190   35.0220 C   0  0  0  0  0  0  0  0  0  0  0  0
   37.9110   28.8610   35.0080 H   0  0  0  0  0  0  0  0  0  0  0  0
   38.6620   27.6970   36.9920 H   0  0  0  0  0  0  0  0  0  0  0  0
   38.7230   25.2680   36.9940 H   0  0  0  0  0  0  0  0  0  0  0  0
   37.8740   28.1150   31.5830 C   0  0  0  0  0  0  0  0  0  0  0  0
   37.1050   27.8750   32.7320 C   0  0  0  0  0  0  0  0  0  0  0  0
   35.8310   28.4870   32.8070 C   0  0  0  0  0  0  0  0  0  0  0  0
   35.4480   29.2720   31.7440 N   0  0  0  0  0  0  0  0  0  0  0  0
   36.2160   29.4630   30.6820 C   0  0  0  0  0  0  0  0  0  0  0  0
   37.4250   28.8930   30.5930 N   0  0  0  0  0  0  0  0  0  0  0  0
   38.8470   27.6370   31.5450 H   0  0  0  0  0  0  0  0  0  0  0  0
   35.1970   28.3380   33.6670 H   0  0  0  0  0  0  0  0  0  0  0  0
   35.7570   30.1130   29.9320 H   0  0  0  0  0  0  0  0  0  0  0  0
   38.0330   23.6060   34.9890 N   0  0  0  0  0  0  0  0  0  0  0  0
   37.9230   23.2370   34.0090 H   0  0  0  0  0  0  0  0  0  0  0  0
   38.1980   22.4000   36.1760 S   0  0  0  0  0  0  0  0  0  0  0  0
   37.0560   21.4400   36.1340 O   0  0  0  0  0  0  0  0  0  0  0  0
   36.4090   21.2520   36.8540 H   0  0  0  0  0  0  0  0  0  0  0  0
   38.1630   23.0510   37.5510 O   0  0  0  0  0  0  0  0  0  0  0  0
   38.9390   23.2970   38.1150 H   0  0  0  0  0  0  0  0  0  0  0  0
   39.6660   21.6090   35.9580 O   0  0  0  0  0  0  0  0  0  0  0  0
   40.6710   22.3610   36.5110 C   0  0  0  0  0  3  0  0  0  0  0  0
   41.6670   21.5400   37.2960 C   0  0  0  0  0  2  0  0  0  0  0  0
   42.9550   21.2980   36.5450 C   0  0  0  0  0  2  0  0  0  0  0  0
   43.6930   22.6100   36.4480 C   0  0  0  0  0  2  0  0  0  0  0  0
   42.6800   23.7020   36.1380 C   0  0  0  0  0  2  0  0  0  0  0  0
   41.4400   23.1430   35.4710 C   0  0  0  0  0  2  0  0  0  0  0  0
  1  2  1  0  0  0  0
  2  7  1  0  0  0  0
  3  2  2  0  0  0  0
  3  4  1  0  0  0  0
  4  8  1  0  0  0  0
  4  5  2  0  0  0  0
  5  9  1  0  0  0  0
  6  5  1  0  0  0  0
  6 10  1  0  0  0  0
  7  6  2  0  0  0  0
 11 12  1  0  0  0  0
 12 13  2  0  0  0  0
 12  3  1  0  0  0  0
 13 18  1  0  0  0  0
 14 13  1  0  0  0  0
 15 14  2  0  0  0  0
 16 15  1  0  0  0  0
 16 11  2  0  0  0  0
 17 11  1  0  0  0  0
 19 15  1  0  0  0  0
 20  7  1  0  0  0  0
 20 22  1  0  0  0  0
 21 20  1  0  0  0  0
 22 25  1  0  0  0  0
 23 22  1  0  0  0  0
 23 24  1  0  0  0  0
 25 26  1  0  0  0  0
 27 22  1  0  0  0  0
 27 28  1  0  0  0  0
 28 29  1  0  0  0  0
 30 29  1  0  0  0  0
 31 30  1  0  0  0  0
 32 31  1  0  0  0  0
 33 32  1  0  0  0  0
 33 28  1  0  0  0  0
M  END
>  <minimizedAffinity>
-5.70404482

$$$$

 OpenBabel03262521063D

 33 35  0  0  0  0  0  0  0  0999 V2000
   40.1690   25.7710   31.5150 Br  0  0  0  0  0  0  0  0  0  0  0  0
   39.2430   26.3920   33.0270 C   0  0  0  0  0  0  0  0  0  0  0  0
   40.0010   26.6060   34.1400 C   0  0  0  0  0  0  0  0  0  0  0  0
   39.3990   27.0680   35.3160 C   0  0  0  0  0  0  0  0  0  0  0  0
   38.0230   27.3040   35.3270 C   0  0  0  0  0  0  0  0  0  0  0  0
   37.3310   27.0680   34.1790 C   0  0  0  0  0  0  0  0  0  0  0  0
   37.9020   26.6170   33.0230 C   0  0  0  0  0  0  0  0  0  0  0  0
   39.9190   27.2620   36.2310 H   0  0  0  0  0  0  0  0  0  0  0  0
   37.5330   27.6630   36.2240 H   0  0  0  0  0  0  0  0  0  0  0  0
   36.2640   27.2520   34.1930 H   0  0  0  0  0  0  0  0  0  0  0  0
   42.4220   27.2800   33.7860 C   0  0  0  0  0  0  0  0  0  0  0  0
   41.4470   26.4100   34.2960 C   0  0  0  0  0  0  0  0  0  0  0  0
   41.8920   25.2700   35.0070 C   0  0  0  0  0  0  0  0  0  0  0  0
   43.2520   25.1060   35.1410 N   0  0  0  0  0  0  0  0  0  0  0  0
   44.1290   25.9620   34.6380 C   0  0  0  0  0  0  0  0  0  0  0  0
   43.7270   27.0460   33.9610 N   0  0  0  0  0  0  0  0  0  0  0  0
   42.0600   28.1470   33.2430 H   0  0  0  0  0  0  0  0  0  0  0  0
   41.1860   24.5670   35.4210 H   0  0  0  0  0  0  0  0  0  0  0  0
   45.1660   25.6790   34.8370 H   0  0  0  0  0  0  0  0  0  0  0  0
   37.1960   26.3680   31.8250 N   0  0  0  0  0  0  0  0  0  0  0  0
   37.1030   27.2360   31.2380 H   0  0  0  0  0  0  0  0  0  0  0  0
   36.4770   24.9850   31.1450 S   0  0  0  0  0  0  0  0  0  0  0  0
   37.3760   24.3460   30.1390 O   0  0  0  0  0  0  0  0  0  0  0  0
   37.1930   24.2080   29.1800 H   0  0  0  0  0  0  0  0  0  0  0  0
   35.2180   25.3980   30.3970 O   0  0  0  0  0  0  0  0  0  0  0  0
   34.2860   25.3570   30.7290 H   0  0  0  0  0  0  0  0  0  0  0  0
   36.0800   23.9080   32.3750 O   0  0  0  0  0  0  0  0  0  0  0  0
   36.4850   22.6460   32.0190 C   0  0  0  0  0  3  0  0  0  0  0  0
   36.9270   21.8080   33.1960 C   0  0  0  0  0  2  0  0  0  0  0  0
   35.8880   20.8000   33.6260 C   0  0  0  0  0  2  0  0  0  0  0  0
   35.7900   19.7440   32.5540 C   0  0  0  0  0  2  0  0  0  0  0  0
   35.8450   20.4350   31.2000 C   0  0  0  0  0  2  0  0  0  0  0  0
   35.4040   21.8810   31.2910 C   0  0  0  0  0  2  0  0  0  0  0  0
  1  2  1  0  0  0  0
  2  3  1  0  0  0  0
  3 12  1  0  0  0  0
  3  4  2  0  0  0  0
  4  5  1  0  0  0  0
  4  8  1  0  0  0  0
  5  9  1  0  0  0  0
  6 10  1  0  0  0  0
  6  5  2  0  0  0  0
  7  2  2  0  0  0  0
  7  6  1  0  0  0  0
 11 16  2  0  0  0  0
 11 12  1  0  0  0  0
 12 13  2  0  0  0  0
 13 14  1  0  0  0  0
 13 18  1  0  0  0  0
 15 19  1  0  0  0  0
 15 14  2  0  0  0  0
 16 15  1  0  0  0  0
 17 11  1  0  0  0  0
 20  7  1  0  0  0  0
 21 20  1  0  0  0  0
 22 20  1  0  0  0  0
 22 27  1  0  0  0  0
 23 22  1  0  0  0  0
 24 23  1  0  0  0  0
 25 26  1  0  0  0  0
 25 22  1  0  0  0  0
 28 27  1  0  0  0  0
 28 29  1  0  0  0  0
 29 30  1  0  0  0  0
 31 30  1  0  0  0  0
 32 33  1  0  0  0  0
 32 31  1  0  0  0  0
 33 28  1  0  0  0  0
M  END
>  <minimizedAffinity>
-5.60853767

$$$$

 OpenBabel03262521063D

 33 35  0  0  0  0  0  0  0  0999 V2000
   37.2920   24.8450   32.9420 Br  0  0  0  0  0  0  0  0  0  0  0  0
   38.8490   25.8840   33.1000 C   0  0  0  0  0  0  0  0  0  0  0  0
   39.5140   25.7790   34.2850 C   0  0  0  0  0  0  0  0  0  0  0  0
   40.6850   26.5160   34.4960 C   0  0  0  0  0  0  0  0  0  0  0  0
   41.1530   27.3520   33.4810 C   0  0  0  0  0  0  0  0  0  0  0  0
   40.4370   27.4080   32.3250 C   0  0  0  0  0  0  0  0  0  0  0  0
   39.2920   26.6940   32.1020 C   0  0  0  0  0  0  0  0  0  0  0  0
   41.2670   26.4920   35.3940 H   0  0  0  0  0  0  0  0  0  0  0  0
   42.0570   27.9330   33.6190 H   0  0  0  0  0  0  0  0  0  0  0  0
   40.8040   28.0570   31.5400 H   0  0  0  0  0  0  0  0  0  0  0  0
   38.1970   25.3050   36.4020 C   0  0  0  0  0  0  0  0  0  0  0  0
   39.1610   24.9530   35.4450 C   0  0  0  0  0  0  0  0  0  0  0  0
   39.8340   23.7200   35.6150 C   0  0  0  0  0  0  0  0  0  0  0  0
   39.4870   22.9620   36.7100 N   0  0  0  0  0  0  0  0  0  0  0  0
   38.5670   23.3440   37.5830 C   0  0  0  0  0  0  0  0  0  0  0  0
   37.9200   24.5080   37.4390 N   0  0  0  0  0  0  0  0  0  0  0  0
   37.6930   26.2540   36.2530 H   0  0  0  0  0  0  0  0  0  0  0  0
   40.5850   23.3990   34.9100 H   0  0  0  0  0  0  0  0  0  0  0  0
   38.4170   22.6220   38.3910 H   0  0  0  0  0  0  0  0  0  0  0  0
   38.5400   26.7420   30.9070 N   0  0  0  0  0  0  0  0  0  0  0  0
   38.8720   26.0300   30.2070 H   0  0  0  0  0  0  0  0  0  0  0  0
   37.2340   27.6910   30.3730 S   0  0  0  0  0  0  0  0  0  0  0  0
   36.0030   26.8670   30.1940 O   0  0  0  0  0  0  0  0  0  0  0  0
   35.4960   26.7260   29.3590 H   0  0  0  0  0  0  0  0  0  0  0  0
   37.5680   28.2690   29.0050 O   0  0  0  0  0  0  0  0  0  0  0  0
   37.9220   29.1730   28.8100 H   0  0  0  0  0  0  0  0  0  0  0  0
   36.9740   28.9400   31.4700 O   0  0  0  0  0  0  0  0  0  0  0  0
   35.8610   28.6570   32.2210 C   0  0  0  0  0  3  0  0  0  0  0  0
   36.1620   28.4900   33.6920 C   0  0  0  0  0  2  0  0  0  0  0  0
   35.7810   29.7000   34.5130 C   0  0  0  0  0  2  0  0  0  0  0  0
   34.2760   29.7870   34.5460 C   0  0  0  0  0  2  0  0  0  0  0  0
   33.7510   29.4600   33.1560 C   0  0  0  0  0  2  0  0  0  0  0  0
   34.7940   29.7190   32.0890 C   0  0  0  0  0  2  0  0  0  0  0  0
  1  2  1  0  0  0  0
  2  3  1  0  0  0  0
  3  4  2  0  0  0  0
  3 12  1  0  0  0  0
  4  8  1  0  0  0  0
  5  9  1  0  0  0  0
  5  4  1  0  0  0  0
  6  5  2  0  0  0  0
  7  6  1  0  0  0  0
  7  2  2  0  0  0  0
 10  6  1  0  0  0  0
 11 16  1  0  0  0  0
 12 13  1  0  0  0  0
 12 11  2  0  0  0  0
 13 14  2  0  0  0  0
 14 15  1  0  0  0  0
 15 19  1  0  0  0  0
 16 15  2  0  0  0  0
 17 11  1  0  0  0  0
 18 13  1  0  0  0  0
 20  7  1  0  0  0  0
 21 20  1  0  0  0  0
 22 20  1  0  0  0  0
 22 27  1  0  0  0  0
 23 22  1  0  0  0  0
 24 23  1  0  0  0  0
 25 22  1  0  0  0  0
 26 25  1  0  0  0  0
 27 28  1  0  0  0  0
 28 29  1  0  0  0  0
 29 30  1  0  0  0  0
 30 31  1  0  0  0  0
 32 31  1  0  0  0  0
 33 28  1  0  0  0  0
 33 32  1  0  0  0  0
M  END
>  <minimizedAffinity>
-5.57354736

$$$$

 OpenBabel03262521063D

 33 35  0  0  0  0  0  0  0  0999 V2000
   34.1460   29.4480   33.0770 Br  0  0  0  0  0  0  0  0  0  0  0  0
   35.3180   30.8000   32.5060 C   0  0  0  0  0  0  0  0  0  0  0  0
   35.4500   31.8650   33.3480 C   0  0  0  0  0  0  0  0  0  0  0  0
   36.3010   32.9220   33.0070 C   0  0  0  0  0  0  0  0  0  0  0  0
   37.0060   32.8670   31.8040 C   0  0  0  0  0  0  0  0  0  0  0  0
   36.8240   31.7740   31.0140 C   0  0  0  0  0  0  0  0  0  0  0  0
   35.9980   30.7320   31.3300 C   0  0  0  0  0  0  0  0  0  0  0  0
   36.4620   33.7930   33.6100 H   0  0  0  0  0  0  0  0  0  0  0  0
   37.6710   33.6720   31.5170 H   0  0  0  0  0  0  0  0  0  0  0  0
   37.3730   31.7350   30.0810 H   0  0  0  0  0  0  0  0  0  0  0  0
   33.4950   32.6020   34.7890 C   0  0  0  0  0  0  0  0  0  0  0  0
   34.7880   32.0780   34.6400 C   0  0  0  0  0  0  0  0  0  0  0  0
   35.4960   31.7340   35.8160 C   0  0  0  0  0  0  0  0  0  0  0  0
   34.8570   31.9420   37.0170 N   0  0  0  0  0  0  0  0  0  0  0  0
   33.6320   32.4410   37.0990 C   0  0  0  0  0  0  0  0  0  0  0  0
   32.9470   32.7730   35.9970 N   0  0  0  0  0  0  0  0  0  0  0  0
   32.9700   32.8590   33.8750 H   0  0  0  0  0  0  0  0  0  0  0  0
   36.4940   31.3270   35.7610 H   0  0  0  0  0  0  0  0  0  0  0  0
   33.2780   32.5400   38.1280 H   0  0  0  0  0  0  0  0  0  0  0  0
   35.8010   29.5920   30.5200 N   0  0  0  0  0  0  0  0  0  0  0  0
   34.8420   29.5820   30.0860 H   0  0  0  0  0  0  0  0  0  0  0  0
   36.7690   28.2560   30.1070 S   0  0  0  0  0  0  0  0  0  0  0  0
   37.1430   28.2850   28.6620 O   0  0  0  0  0  0  0  0  0  0  0  0
   36.9250   27.6090   27.9770 H   0  0  0  0  0  0  0  0  0  0  0  0
   35.9690   26.9790   30.3200 O   0  0  0  0  0  0  0  0  0  0  0  0
   35.9980   26.3820   31.1090 H   0  0  0  0  0  0  0  0  0  0  0  0
   38.1360   28.2420   31.0870 O   0  0  0  0  0  0  0  0  0  0  0  0
   37.9980   27.2640   32.0400 C   0  0  0  0  0  3  0  0  0  0  0  0
   39.3030   26.5930   32.3980 C   0  0  0  0  0  2  0  0  0  0  0  0
   39.8750   27.0760   33.7100 C   0  0  0  0  0  2  0  0  0  0  0  0
   38.9890   26.5700   34.8200 C   0  0  0  0  0  2  0  0  0  0  0  0
   37.5410   26.7190   34.3780 C   0  0  0  0  0  2  0  0  0  0  0  0
   37.3870   27.7900   33.3180 C   0  0  0  0  0  2  0  0  0  0  0  0
  2  1  1  0  0  0  0
  2  3  1  0  0  0  0
  3 12  1  0  0  0  0
  4  3  2  0  0  0  0
  4  8  1  0  0  0  0
  5  4  1  0  0  0  0
  6  7  1  0  0  0  0
  6  5  2  0  0  0  0
  7  2  2  0  0  0  0
  9  5  1  0  0  0  0
 10  6  1  0  0  0  0
 11 16  1  0  0  0  0
 12 11  2  0  0  0  0
 12 13  1  0  0  0  0
 13 14  2  0  0  0  0
 14 15  1  0  0  0  0
 15 19  1  0  0  0  0
 16 15  2  0  0  0  0
 17 11  1  0  0  0  0
 18 13  1  0  0  0  0
 20  7  1  0  0  0  0
 21 20  1  0  0  0  0
 22 25  1  0  0  0  0
 22 20  1  0  0  0  0
 22 27  1  0  0  0  0
 23 22  1  0  0  0  0
 24 23  1  0  0  0  0
 25 26  1  0  0  0  0
 27 28  1  0  0  0  0
 28 29  1  0  0  0  0
 28 33  1  0  0  0  0
 29 30  1  0  0  0  0
 30 31  1  0  0  0  0
 32 31  1  0  0  0  0
 33 32  1  0  0  0  0
M  END
>  <minimizedAffinity>
-5.56080008

$$$$

 OpenBabel03262521063D

 33 35  0  0  0  0  0  0  0  0999 V2000
   36.5380   27.9040   34.6270 Br  0  0  0  0  0  0  0  0  0  0  0  0
   36.2450   28.9230   33.0770 C   0  0  0  0  0  0  0  0  0  0  0  0
   35.5930   30.1070   33.2600 C   0  0  0  0  0  0  0  0  0  0  0  0
   35.3290   30.9350   32.1630 C   0  0  0  0  0  0  0  0  0  0  0  0
   35.7420   30.5310   30.8920 C   0  0  0  0  0  0  0  0  0  0  0  0
   36.3860   29.3360   30.7850 C   0  0  0  0  0  0  0  0  0  0  0  0
   36.6520   28.5160   31.8450 C   0  0  0  0  0  0  0  0  0  0  0  0
   34.8250   31.8770   32.2190 H   0  0  0  0  0  0  0  0  0  0  0  0
   35.5500   31.1530   30.0270 H   0  0  0  0  0  0  0  0  0  0  0  0
   36.7050   29.0270   29.7980 H   0  0  0  0  0  0  0  0  0  0  0  0
   33.8080   30.4610   35.0290 C   0  0  0  0  0  0  0  0  0  0  0  0
   35.0970   30.6760   34.5180 C   0  0  0  0  0  0  0  0  0  0  0  0
   35.9720   31.4960   35.2690 C   0  0  0  0  0  0  0  0  0  0  0  0
   35.4860   32.0200   36.4450 N   0  0  0  0  0  0  0  0  0  0  0  0
   34.2570   31.7830   36.8810 C   0  0  0  0  0  0  0  0  0  0  0  0
   33.4150   31.0100   36.1830 N   0  0  0  0  0  0  0  0  0  0  0  0
   33.1530   29.8300   34.4370 H   0  0  0  0  0  0  0  0  0  0  0  0
   36.9740   31.6960   34.9240 H   0  0  0  0  0  0  0  0  0  0  0  0
   34.0370   32.2770   37.8310 H   0  0  0  0  0  0  0  0  0  0  0  0
   37.3200   27.2750   31.7490 N   0  0  0  0  0  0  0  0  0  0  0  0
   38.2900   27.3200   32.1570 H   0  0  0  0  0  0  0  0  0  0  0  0
   36.8950   25.7520   31.1230 S   0  0  0  0  0  0  0  0  0  0  0  0
   37.9050   25.2710   30.1350 O   0  0  0  0  0  0  0  0  0  0  0  0
   37.7540   25.0640   29.1820 H   0  0  0  0  0  0  0  0  0  0  0  0
   35.5790   25.8750   30.3700 O   0  0  0  0  0  0  0  0  0  0  0  0
   34.6750   25.6590   30.7100 H   0  0  0  0  0  0  0  0  0  0  0  0
   36.7240   24.6620   32.3940 O   0  0  0  0  0  0  0  0  0  0  0  0
   36.8940   23.3860   31.9200 C   0  0  0  0  0  3  0  0  0  0  0  0
   37.7260   22.5180   32.8340 C   0  0  0  0  0  2  0  0  0  0  0  0
   36.8970   21.5570   33.6520 C   0  0  0  0  0  2  0  0  0  0  0  0
   36.3320   20.5150   32.7200 C   0  0  0  0  0  2  0  0  0  0  0  0
   35.8780   21.2150   31.4470 C   0  0  0  0  0  2  0  0  0  0  0  0
   35.5780   22.6790   31.6900 C   0  0  0  0  0  2  0  0  0  0  0  0
  2  3  1  0  0  0  0
  2  1  1  0  0  0  0
  3 12  1  0  0  0  0
  4  8  1  0  0  0  0
  4  3  2  0  0  0  0
  5  4  1  0  0  0  0
  6  5  2  0  0  0  0
  6  7  1  0  0  0  0
  7  2  2  0  0  0  0
  9  5  1  0  0  0  0
 10  6  1  0  0  0  0
 11 16  1  0  0  0  0
 12 11  2  0  0  0  0
 12 13  1  0  0  0  0
 13 14  2  0  0  0  0
 14 15  1  0  0  0  0
 15 19  1  0  0  0  0
 16 15  2  0  0  0  0
 17 11  1  0  0  0  0
 18 13  1  0  0  0  0
 20  7  1  0  0  0  0
 20 21  1  0  0  0  0
 22 20  1  0  0  0  0
 22 27  1  0  0  0  0
 23 22  1  0  0  0  0
 24 23  1  0  0  0  0
 25 26  1  0  0  0  0
 25 22  1  0  0  0  0
 28 27  1  0  0  0  0
 28 29  1  0  0  0  0
 29 30  1  0  0  0  0
 31 30  1  0  0  0  0
 32 33  1  0  0  0  0
 32 31  1  0  0  0  0
 33 28  1  0  0  0  0
M  END
>  <minimizedAffinity>
-5.55021715

$$$$

 OpenBabel03262521063D

 33 35  0  0  0  0  0  0  0  0999 V2000
   39.0520   26.4940   34.7910 Br  0  0  0  0  0  0  0  0  0  0  0  0
   38.4450   24.9850   33.8520 C   0  0  0  0  0  0  0  0  0  0  0  0
   38.2580   23.8580   34.5970 C   0  0  0  0  0  0  0  0  0  0  0  0
   37.8080   22.6830   33.9840 C   0  0  0  0  0  0  0  0  0  0  0  0
   37.5560   22.6860   32.6110 C   0  0  0  0  0  0  0  0  0  0  0  0
   37.7640   23.8480   31.9320 C   0  0  0  0  0  0  0  0  0  0  0  0
   38.2030   25.0040   32.5140 C   0  0  0  0  0  0  0  0  0  0  0  0
   37.6360   21.7580   34.4930 H   0  0  0  0  0  0  0  0  0  0  0  0
   37.2060   21.7910   32.1120 H   0  0  0  0  0  0  0  0  0  0  0  0
   37.5670   23.8460   30.8670 H   0  0  0  0  0  0  0  0  0  0  0  0
   37.5790   24.1150   37.0280 C   0  0  0  0  0  0  0  0  0  0  0  0
   38.4740   23.6860   36.0370 C   0  0  0  0  0  0  0  0  0  0  0  0
   39.6620   23.0440   36.4610 C   0  0  0  0  0  0  0  0  0  0  0  0
   39.8440   22.8930   37.8170 N   0  0  0  0  0  0  0  0  0  0  0  0
   38.9630   23.3190   38.7090 C   0  0  0  0  0  0  0  0  0  0  0  0
   37.8330   23.9280   38.3280 N   0  0  0  0  0  0  0  0  0  0  0  0
   36.6740   24.6050   36.6820 H   0  0  0  0  0  0  0  0  0  0  0  0
   40.3870   22.6930   35.7430 H   0  0  0  0  0  0  0  0  0  0  0  0
   39.2660   23.1170   39.7410 H   0  0  0  0  0  0  0  0  0  0  0  0
   38.4240   26.2150   31.8210 N   0  0  0  0  0  0  0  0  0  0  0  0
   39.4070   26.5670   31.9530 H   0  0  0  0  0  0  0  0  0  0  0  0
   37.4530   27.2050   30.8370 S   0  0  0  0  0  0  0  0  0  0  0  0
   36.1820   26.5180   30.4640 O   0  0  0  0  0  0  0  0  0  0  0  0
   35.8700   26.2940   29.5550 H   0  0  0  0  0  0  0  0  0  0  0  0
   38.1900   27.4860   29.5360 O   0  0  0  0  0  0  0  0  0  0  0  0
   38.7220   28.2900   29.3130 H   0  0  0  0  0  0  0  0  0  0  0  0
   37.1480   28.6510   31.6410 O   0  0  0  0  0  0  0  0  0  0  0  0
   35.9400   28.5630   32.2870 C   0  0  0  0  0  3  0  0  0  0  0  0
   36.0740   28.4500   33.7870 C   0  0  0  0  0  2  0  0  0  0  0  0
   35.7850   29.7470   34.5050 C   0  0  0  0  0  2  0  0  0  0  0  0
   34.3100   30.0330   34.3780 C   0  0  0  0  0  2  0  0  0  0  0  0
   33.8800   29.6920   32.9590 C   0  0  0  0  0  2  0  0  0  0  0  0
   35.0460   29.7460   31.9940 C   0  0  0  0  0  2  0  0  0  0  0  0
  2  3  1  0  0  0  0
  2  1  1  0  0  0  0
  3 12  1  0  0  0  0
  4  8  1  0  0  0  0
  4  3  2  0  0  0  0
  5  4  1  0  0  0  0
  6  7  1  0  0  0  0
  6  5  2  0  0  0  0
  7  2  2  0  0  0  0
  9  5  1  0  0  0  0
 10  6  1  0  0  0  0
 11 16  1  0  0  0  0
 12 13  1  0  0  0  0
 12 11  2  0  0  0  0
 13 14  2  0  0  0  0
 14 15  1  0  0  0  0
 15 19  1  0  0  0  0
 16 15  2  0  0  0  0
 17 11  1  0  0  0  0
 18 13  1  0  0  0  0
 20 21  1  0  0  0  0
 20  7  1  0  0  0  0
 22 27  1  0  0  0  0
 22 20  1  0  0  0  0
 23 22  1  0  0  0  0
 24 23  1  0  0  0  0
 25 22  1  0  0  0  0
 26 25  1  0  0  0  0
 27 28  1  0  0  0  0
 28 29  1  0  0  0  0
 29 30  1  0  0  0  0
 31 30  1  0  0  0  0
 32 31  1  0  0  0  0
 33 28  1  0  0  0  0
 33 32  1  0  0  0  0
M  END
>  <minimizedAffinity>
-5.53835392

$$$$

 OpenBabel03262521063D

 33 35  0  0  0  0  0  0  0  0999 V2000
   40.1610   23.6050   32.6930 Br  0  0  0  0  0  0  0  0  0  0  0  0
   39.1340   24.5600   33.9420 C   0  0  0  0  0  0  0  0  0  0  0  0
   39.4490   24.3510   35.2520 C   0  0  0  0  0  0  0  0  0  0  0  0
   38.7380   25.0180   36.2560 C   0  0  0  0  0  0  0  0  0  0  0  0
   37.7110   25.8920   35.8950 C   0  0  0  0  0  0  0  0  0  0  0  0
   37.4520   26.0510   34.5680 C   0  0  0  0  0  0  0  0  0  0  0  0
   38.1370   25.4080   33.5750 C   0  0  0  0  0  0  0  0  0  0  0  0
   38.9210   24.9120   37.3060 H   0  0  0  0  0  0  0  0  0  0  0  0
   37.1460   26.4220   36.6520 H   0  0  0  0  0  0  0  0  0  0  0  0
   36.6560   26.7300   34.2920 H   0  0  0  0  0  0  0  0  0  0  0  0
   41.8640   23.7570   35.7600 C   0  0  0  0  0  0  0  0  0  0  0  0
   40.4900   23.4740   35.7990 C   0  0  0  0  0  0  0  0  0  0  0  0
   40.0880   22.2600   36.4060 C   0  0  0  0  0  0  0  0  0  0  0  0
   41.0810   21.4520   36.9120 N   0  0  0  0  0  0  0  0  0  0  0  0
   42.3650   21.7710   36.8470 C   0  0  0  0  0  0  0  0  0  0  0  0
   42.7650   22.9150   36.2760 N   0  0  0  0  0  0  0  0  0  0  0  0
   42.1510   24.6920   35.2900 H   0  0  0  0  0  0  0  0  0  0  0  0
   39.0450   21.9910   36.4640 H   0  0  0  0  0  0  0  0  0  0  0  0
   43.0170   21.0170   37.2970 H   0  0  0  0  0  0  0  0  0  0  0  0
   37.8780   25.5640   32.1950 N   0  0  0  0  0  0  0  0  0  0  0  0
   38.4620   26.3310   31.7720 H   0  0  0  0  0  0  0  0  0  0  0  0
   36.8420   24.7860   31.0930 S   0  0  0  0  0  0  0  0  0  0  0  0
   37.6140   24.1030   30.0140 O   0  0  0  0  0  0  0  0  0  0  0  0
   37.5680   24.2820   29.0450 H   0  0  0  0  0  0  0  0  0  0  0  0
   35.9740   25.8310   30.4080 O   0  0  0  0  0  0  0  0  0  0  0  0
   35.0470   26.0850   30.6460 H   0  0  0  0  0  0  0  0  0  0  0  0
   35.8690   23.6960   31.9270 O   0  0  0  0  0  0  0  0  0  0  0  0
   36.3910   22.4330   31.7960 C   0  0  0  0  0  3  0  0  0  0  0  0
   36.7750   21.8080   33.1170 C   0  0  0  0  0  2  0  0  0  0  0  0
   35.7710   20.7900   33.6020 C   0  0  0  0  0  2  0  0  0  0  0  0
   35.8470   19.5890   32.6940 C   0  0  0  0  0  2  0  0  0  0  0  0
   35.9840   20.0840   31.2620 C   0  0  0  0  0  2  0  0  0  0  0  0
   35.4390   21.4880   31.1010 C   0  0  0  0  0  2  0  0  0  0  0  0
  1  2  1  0  0  0  0
  2  3  1  0  0  0  0
  3 12  1  0  0  0  0
  3  4  2  0  0  0  0
  4  8  1  0  0  0  0
  5  4  1  0  0  0  0
  5  9  1  0  0  0  0
  6  5  2  0  0  0  0
  7  2  2  0  0  0  0
  7  6  1  0  0  0  0
 10  6  1  0  0  0  0
 11 12  2  0  0  0  0
 11 16  1  0  0  0  0
 12 13  1  0  0  0  0
 13 18  1  0  0  0  0
 13 14  2  0  0  0  0
 15 14  1  0  0  0  0
 15 19  1  0  0  0  0
 16 15  2  0  0  0  0
 17 11  1  0  0  0  0
 20  7  1  0  0  0  0
 21 20  1  0  0  0  0
 22 27  1  0  0  0  0
 22 20  1  0  0  0  0
 23 22  1  0  0  0  0
 24 23  1  0  0  0  0
 25 26  1  0  0  0  0
 25 22  1  0  0  0  0
 28 27  1  0  0  0  0
 28 29  1  0  0  0  0
 29 30  1  0  0  0  0
 31 30  1  0  0  0  0
 32 31  1  0  0  0  0
 33 32  1  0  0  0  0
 33 28  1  0  0  0  0
M  END
>  <minimizedAffinity>
-5.4370718

$$$$
