REMARK  Name = 
REMARK  6 active torsions:
REMARK  status: ('A' for Active; 'I' for Inactive)
REMARK    1  A    between atoms: C_1  and  O_6
REMARK    2  A    between atoms: C_2  and  S_7
REMARK    3  A    between atoms: C_5  and  O_14
REMARK    4  A    between atoms: S_7  and  C_12
REMARK    5  A    between atoms: O_14  and  C_17
REMARK    6  A    between atoms: C_21  and  C_34
REMARK                            x       y       z     vdW  Elec       q    Type
REMARK                         _______ _______ _______ _____ _____    ______ ____
ROOT
ATOM      1  C   UNL     1      32.165  28.526  47.426  0.00  0.00    +0.000 C 
ATOM      2  C   UNL     1      33.406  28.366  48.254  0.00  0.00    +0.000 C 
ATOM      3  O   UNL     1      33.803  27.065  48.170  0.00  0.00    +0.000 OA
ATOM      4  C   UNL     1      33.112  26.443  47.136  0.00  0.00    +0.000 C 
ATOM      5  C   UNL     1      32.507  27.523  46.279  0.00  0.00    +0.000 C 
ATOM      6  H   UNL     1      31.237  28.203  47.885  0.00  0.00    +0.000 HD
ATOM      7  H   UNL     1      33.200  28.715  49.287  0.00  0.00    +0.000 HD
ATOM      8  H   UNL     1      32.434  25.729  47.573  0.00  0.00    +0.000 HD
ATOM      9  H   UNL     1      33.874  25.884  46.525  0.00  0.00    +0.000 HD
ATOM     10  H   UNL     1      33.217  28.037  45.639  0.00  0.00    +0.000 HD
ENDROOT
BRANCH   1  11
ATOM     11  O   UNL     1      32.091  29.828  46.887  0.00  0.00    +0.000 OA
ATOM     12  H   UNL     1      32.754  29.884  46.163  0.00  0.00    +0.000 HD
ENDBRANCH   1  11
BRANCH   2  13
ATOM     13  S   UNL     1      34.715  29.413  47.500  0.00  0.00    +0.000 S 
BRANCH  13  18
ATOM     14  C   UNL     1      37.138  29.287  50.632  0.00  0.00    +0.000 A 
ATOM     15  C   UNL     1      37.637  30.586  50.753  0.00  0.00    +0.000 A 
ATOM     16  C   UNL     1      37.209  31.538  49.831  0.00  0.00    +0.000 A 
ATOM     17  N   UNL     1      36.328  31.162  48.860  0.00  0.00    +0.000 NA
ATOM     18  C   UNL     1      35.870  29.894  48.778  0.00  0.00    +0.000 A 
ATOM     19  N   UNL     1      36.267  28.941  49.660  0.00  0.00    +0.000 NA
ATOM     20  H   UNL     1      37.496  28.595  51.361  0.00  0.00    +0.000 HD
ATOM     21  H   UNL     1      38.340  30.839  51.547  0.00  0.00    +0.000 HD
ATOM     22  H   UNL     1      37.580  32.548  49.905  0.00  0.00    +0.000 HD
ENDBRANCH  13  18
ENDBRANCH   2  13
BRANCH   5  23
ATOM     23  O   UNL     1      31.364  27.040  45.690  0.00  0.00    +0.000 OA
BRANCH  23  26
ATOM     24 CL   UNL     1      29.884  29.111  44.210  0.00  0.00    +0.000 Cl
ATOM     25  C   UNL     1      29.336  28.123  45.543  0.00  0.00    +0.000 A 
ATOM     26  C   UNL     1      30.124  27.172  46.150  0.00  0.00    +0.000 A 
ATOM     27  C   UNL     1      29.566  26.425  47.190  0.00  0.00    +0.000 A 
ATOM     28  C   UNL     1      28.264  26.641  47.589  0.00  0.00    +0.000 A 
ATOM     29  C   UNL     1      27.465  27.594  46.985  0.00  0.00    +0.000 A 
ATOM     30  C   UNL     1      28.023  28.331  45.957  0.00  0.00    +0.000 A 
ATOM     31  H   UNL     1      30.109  25.659  47.716  0.00  0.00    +0.000 HD
ATOM     32  H   UNL     1      27.793  26.086  48.388  0.00  0.00    +0.000 HD
ATOM     33  H   UNL     1      26.445  27.753  47.309  0.00  0.00    +0.000 HD
BRANCH  30  34
ATOM     34  C   UNL     1      27.168  29.358  45.304  0.00  0.00    +0.000 C 
ATOM     35  C   UNL     1      26.138  28.768  44.384  0.00  0.00    +0.000 C 
ATOM     36  C   UNL     1      25.810  29.721  43.233  0.00  0.00    +0.000 C 
ATOM     37  C   UNL     1      25.804  31.158  43.674  0.00  0.00    +0.000 C 
ATOM     38  C   UNL     1      27.210  31.527  44.094  0.00  0.00    +0.000 C 
ATOM     39  C   UNL     1      28.007  30.311  44.489  0.00  0.00    +0.000 C 
ENDBRANCH  30  34
ENDBRANCH  23  26
ENDBRANCH   5  23
TORSDOF 6
