
 OpenBabel03272510223D

 33 36  0  0  0  0  0  0  0  0999 V2000
   35.2980   31.8300   32.0660 Br  0  0  0  0  0  0  0  0  0  0  0  0
   35.8940   30.0600   32.4530 C   0  0  0  0  0  0  0  0  0  0  0  0
   35.7500   29.5330   33.7450 C   0  0  0  0  0  0  0  0  0  0  0  0
   36.2050   28.2410   33.9510 C   0  0  0  0  0  0  0  0  0  0  0  0
   36.7820   27.4770   32.9470 C   0  0  0  0  0  0  0  0  0  0  0  0
   36.9030   28.0270   31.7070 C   0  0  0  0  0  0  0  0  0  0  0  0
   36.4590   29.3090   31.4780 C   0  0  0  0  0  0  0  0  0  0  0  0
   36.1250   27.7760   34.9220 H   0  0  0  0  0  0  0  0  0  0  0  0
   37.3520   27.4410   30.9150 H   0  0  0  0  0  0  0  0  0  0  0  0
   36.5810   29.6950   30.4670 H   0  0  0  0  0  0  0  0  0  0  0  0
   33.1890   30.8450   35.9720 C   0  0  0  0  0  0  0  0  0  0  0  0
   33.9090   31.7390   36.8110 C   0  0  0  0  0  0  0  0  0  0  0  0
   35.2680   31.8700   36.5900 C   0  0  0  0  0  0  0  0  0  0  0  0
   35.8600   31.1470   35.5890 N   0  0  0  0  0  0  0  0  0  0  0  0
   35.1490   30.3110   34.8130 C   0  0  0  0  0  0  0  0  0  0  0  0
   33.8130   30.1650   35.0110 N   0  0  0  0  0  0  0  0  0  0  0  0
   32.1290   30.6790   36.0690 H   0  0  0  0  0  0  0  0  0  0  0  0
   33.3100   32.2290   37.5450 H   0  0  0  0  0  0  0  0  0  0  0  0
   35.7910   32.5420   37.2280 H   0  0  0  0  0  0  0  0  0  0  0  0
   37.2580   26.1250   33.1690 C   0  0  0  0  0  0  0  0  0  0  0  0
   37.2950   25.1380   32.1980 C   0  0  0  0  0  0  0  0  0  0  0  0
   37.7630   23.8500   32.4640 C   0  0  0  0  0  0  0  0  0  0  0  0
   38.1930   23.5370   33.6880 N   0  0  0  0  0  0  0  0  0  0  0  0
   38.1590   24.4980   34.6390 C   0  0  0  0  0  0  0  0  0  0  0  0
   37.7080   25.7280   34.3700 N   0  0  0  0  0  0  0  0  0  0  0  0
   36.9470   25.3860   31.2010 H   0  0  0  0  0  0  0  0  0  0  0  0
   37.7520   23.1420   31.6310 H   0  0  0  0  0  0  0  0  0  0  0  0
   38.6380   24.1390   35.9930 C   0  0  0  0  0  3  0  0  0  0  0  0
   37.5440   24.2590   37.0330 C   0  0  0  0  0  2  0  0  0  0  0  0
   37.8300   23.4550   38.2620 C   0  0  0  0  0  2  0  0  0  0  0  0
   39.3040   23.2320   38.4930 C   0  0  0  0  0  2  0  0  0  0  0  0
   40.0320   22.6480   37.3270 C   0  0  0  0  0  2  0  0  0  0  0  0
   39.1410   22.7090   36.0830 C   0  0  0  0  0  2  0  0  0  0  0  0
  1  2  1  0  0  0  0
  2  3  1  0  0  0  0
  3  4  2  0  0  0  0
  3 15  1  0  0  0  0
  4  8  1  0  0  0  0
  5 20  1  0  0  0  0
  5  4  1  0  0  0  0
  6  5  2  0  0  0  0
  7  6  1  0  0  0  0
  7  2  2  0  0  0  0
  9  6  1  0  0  0  0
 10  7  1  0  0  0  0
 11 17  1  0  0  0  0
 11 12  1  0  0  0  0
 12 18  1  0  0  0  0
 13 12  2  0  0  0  0
 13 19  1  0  0  0  0
 14 13  1  0  0  0  0
 15 16  1  0  0  0  0
 15 14  2  0  0  0  0
 16 11  2  0  0  0  0
 20 25  1  0  0  0  0
 21 22  1  0  0  0  0
 21 20  2  0  0  0  0
 22 23  2  0  0  0  0
 23 24  1  0  0  0  0
 24 28  1  0  0  0  0
 25 24  2  0  0  0  0
 26 21  1  0  0  0  0
 27 22  1  0  0  0  0
 28 33  1  0  0  0  0
 28 29  1  0  0  0  0
 29 30  1  0  0  0  0
 30 31  1  0  0  0  0
 32 31  1  0  0  0  0
 33 32  1  0  0  0  0
M  END
>  <minimizedAffinity>
-6.73863935

$$$$

 OpenBabel03272510223D

 33 36  0  0  0  0  0  0  0  0999 V2000
   34.9430   32.3540   32.5360 Br  0  0  0  0  0  0  0  0  0  0  0  0
   35.6450   30.6000   32.7960 C   0  0  0  0  0  0  0  0  0  0  0  0
   35.4780   29.9480   34.0260 C   0  0  0  0  0  0  0  0  0  0  0  0
   36.0150   28.6760   34.1420 C   0  0  0  0  0  0  0  0  0  0  0  0
   36.6940   28.0490   33.1070 C   0  0  0  0  0  0  0  0  0  0  0  0
   36.8350   28.7180   31.9300 C   0  0  0  0  0  0  0  0  0  0  0  0
   36.3100   29.9820   31.7900 C   0  0  0  0  0  0  0  0  0  0  0  0
   35.9220   28.1180   35.0610 H   0  0  0  0  0  0  0  0  0  0  0  0
   37.3620   28.2390   31.1140 H   0  0  0  0  0  0  0  0  0  0  0  0
   36.4530   30.4680   30.8260 H   0  0  0  0  0  0  0  0  0  0  0  0
   34.9050   32.0470   36.9420 C   0  0  0  0  0  0  0  0  0  0  0  0
   33.5300   31.8370   37.2340 C   0  0  0  0  0  0  0  0  0  0  0  0
   32.8260   30.9720   36.4150 C   0  0  0  0  0  0  0  0  0  0  0  0
   33.4690   30.3610   35.3720 N   0  0  0  0  0  0  0  0  0  0  0  0
   34.7710   30.5820   35.1250 C   0  0  0  0  0  0  0  0  0  0  0  0
   35.4830   31.4270   35.9150 N   0  0  0  0  0  0  0  0  0  0  0  0
   35.5320   32.7030   37.5240 H   0  0  0  0  0  0  0  0  0  0  0  0
   33.1720   32.3840   38.0780 H   0  0  0  0  0  0  0  0  0  0  0  0
   31.7980   30.8280   36.6480 H   0  0  0  0  0  0  0  0  0  0  0  0
   37.2540   26.7180   33.2340 C   0  0  0  0  0  0  0  0  0  0  0  0
   37.7020   25.9510   32.1700 C   0  0  0  0  0  0  0  0  0  0  0  0
   38.2340   24.6730   32.3470 C   0  0  0  0  0  0  0  0  0  0  0  0
   38.3240   24.1520   33.5720 N   0  0  0  0  0  0  0  0  0  0  0  0
   37.8890   24.8970   34.6140 C   0  0  0  0  0  0  0  0  0  0  0  0
   37.3810   26.1200   34.4300 N   0  0  0  0  0  0  0  0  0  0  0  0
   37.6300   26.3680   31.1710 H   0  0  0  0  0  0  0  0  0  0  0  0
   38.5590   24.1470   31.4450 H   0  0  0  0  0  0  0  0  0  0  0  0
   37.9940   24.3080   35.9680 C   0  0  0  0  0  3  0  0  0  0  0  0
   39.1110   23.2900   36.0590 C   0  0  0  0  0  2  0  0  0  0  0  0
   39.5620   23.0580   37.4670 C   0  0  0  0  0  2  0  0  0  0  0  0
   38.4890   23.3470   38.4870 C   0  0  0  0  0  2  0  0  0  0  0  0
   37.8730   24.7030   38.3710 C   0  0  0  0  0  2  0  0  0  0  0  0
   38.2850   25.3420   37.0420 C   0  0  0  0  0  2  0  0  0  0  0  0
  1  2  1  0  0  0  0
  2  3  1  0  0  0  0
  3  4  2  0  0  0  0
  3 15  1  0  0  0  0
  4  8  1  0  0  0  0
  5 20  1  0  0  0  0
  5  4  1  0  0  0  0
  6  5  2  0  0  0  0
  7  6  1  0  0  0  0
  7  2  2  0  0  0  0
  9  6  1  0  0  0  0
 10  7  1  0  0  0  0
 11 12  1  0  0  0  0
 11 17  1  0  0  0  0
 12 18  1  0  0  0  0
 13 19  1  0  0  0  0
 13 12  2  0  0  0  0
 14 13  1  0  0  0  0
 15 14  2  0  0  0  0
 15 16  1  0  0  0  0
 16 11  2  0  0  0  0
 20 25  1  0  0  0  0
 21 22  1  0  0  0  0
 21 20  2  0  0  0  0
 22 23  2  0  0  0  0
 23 24  1  0  0  0  0
 24 28  1  0  0  0  0
 25 24  2  0  0  0  0
 26 21  1  0  0  0  0
 27 22  1  0  0  0  0
 28 29  1  0  0  0  0
 28 33  1  0  0  0  0
 29 30  1  0  0  0  0
 30 31  1  0  0  0  0
 32 31  1  0  0  0  0
 33 32  1  0  0  0  0
M  END
>  <minimizedAffinity>
-6.58888483

$$$$

 OpenBabel03272510223D

 33 36  0  0  0  0  0  0  0  0999 V2000
   40.7100   24.5730   34.7550 Br  0  0  0  0  0  0  0  0  0  0  0  0
   39.2980   25.8000   34.3830 C   0  0  0  0  0  0  0  0  0  0  0  0
   38.1550   25.8300   35.1960 C   0  0  0  0  0  0  0  0  0  0  0  0
   37.1720   26.7470   34.8660 C   0  0  0  0  0  0  0  0  0  0  0  0
   37.2810   27.6110   33.7860 C   0  0  0  0  0  0  0  0  0  0  0  0
   38.4060   27.5490   33.0220 C   0  0  0  0  0  0  0  0  0  0  0  0
   39.3970   26.6460   33.3300 C   0  0  0  0  0  0  0  0  0  0  0  0
   36.2670   26.8220   35.4500 H   0  0  0  0  0  0  0  0  0  0  0  0
   38.5030   28.2180   32.1760 H   0  0  0  0  0  0  0  0  0  0  0  0
   40.2740   26.6420   32.6840 H   0  0  0  0  0  0  0  0  0  0  0  0
   37.5940   22.7540   37.0560 C   0  0  0  0  0  0  0  0  0  0  0  0
   37.7340   23.1580   38.4120 C   0  0  0  0  0  0  0  0  0  0  0  0
   38.0210   24.4890   38.6570 C   0  0  0  0  0  0  0  0  0  0  0  0
   38.1570   25.3530   37.6020 N   0  0  0  0  0  0  0  0  0  0  0  0
   38.0170   24.9360   36.3330 C   0  0  0  0  0  0  0  0  0  0  0  0
   37.7350   23.6340   36.0670 N   0  0  0  0  0  0  0  0  0  0  0  0
   37.3700   21.7390   36.7700 H   0  0  0  0  0  0  0  0  0  0  0  0
   37.6000   22.3720   39.1200 H   0  0  0  0  0  0  0  0  0  0  0  0
   38.1230   24.7740   39.6760 H   0  0  0  0  0  0  0  0  0  0  0  0
   36.2480   28.5690   33.4440 C   0  0  0  0  0  0  0  0  0  0  0  0
   35.6870   28.7010   32.1840 C   0  0  0  0  0  0  0  0  0  0  0  0
   34.6930   29.6420   31.9080 C   0  0  0  0  0  0  0  0  0  0  0  0
   34.2530   30.4510   32.8730 N   0  0  0  0  0  0  0  0  0  0  0  0
   34.7980   30.3250   34.1050 C   0  0  0  0  0  0  0  0  0  0  0  0
   35.7490   29.4200   34.3560 N   0  0  0  0  0  0  0  0  0  0  0  0
   36.0400   28.0470   31.3950 H   0  0  0  0  0  0  0  0  0  0  0  0
   34.3140   29.6680   30.8810 H   0  0  0  0  0  0  0  0  0  0  0  0
   34.3020   31.2290   35.1680 C   0  0  0  0  0  3  0  0  0  0  0  0
   33.1130   30.6450   35.9000 C   0  0  0  0  0  2  0  0  0  0  0  0
   32.9100   31.2610   37.2480 C   0  0  0  0  0  2  0  0  0  0  0  0
   33.4590   32.6630   37.3460 C   0  0  0  0  0  2  0  0  0  0  0  0
   34.8900   32.7980   36.9380 C   0  0  0  0  0  2  0  0  0  0  0  0
   35.3450   31.5180   36.2330 C   0  0  0  0  0  2  0  0  0  0  0  0
  2  1  1  0  0  0  0
  2  3  1  0  0  0  0
  3 15  1  0  0  0  0
  4  3  2  0  0  0  0
  4  8  1  0  0  0  0
  5  4  1  0  0  0  0
  6  7  1  0  0  0  0
  6  5  2  0  0  0  0
  7  2  2  0  0  0  0
  9  6  1  0  0  0  0
 10  7  1  0  0  0  0
 11 12  1  0  0  0  0
 12 13  2  0  0  0  0
 12 18  1  0  0  0  0
 13 19  1  0  0  0  0
 14 13  1  0  0  0  0
 15 14  2  0  0  0  0
 16 15  1  0  0  0  0
 16 11  2  0  0  0  0
 17 11  1  0  0  0  0
 20  5  1  0  0  0  0
 20 25  1  0  0  0  0
 21 20  2  0  0  0  0
 22 21  1  0  0  0  0
 22 23  2  0  0  0  0
 23 24  1  0  0  0  0
 24 25  2  0  0  0  0
 24 28  1  0  0  0  0
 26 21  1  0  0  0  0
 27 22  1  0  0  0  0
 28 29  1  0  0  0  0
 28 33  1  0  0  0  0
 29 30  1  0  0  0  0
 30 31  1  0  0  0  0
 32 31  1  0  0  0  0
 33 32  1  0  0  0  0
M  END
>  <minimizedAffinity>
-6.3388834

$$$$

 OpenBabel03272510223D

 33 36  0  0  0  0  0  0  0  0999 V2000
   35.2260   31.3480   31.7470 Br  0  0  0  0  0  0  0  0  0  0  0  0
   35.9990   29.6870   32.2770 C   0  0  0  0  0  0  0  0  0  0  0  0
   35.8910   29.2490   33.6040 C   0  0  0  0  0  0  0  0  0  0  0  0
   36.4760   28.0330   33.9160 C   0  0  0  0  0  0  0  0  0  0  0  0
   37.1470   27.2590   32.9790 C   0  0  0  0  0  0  0  0  0  0  0  0
   37.2300   27.7220   31.7010 C   0  0  0  0  0  0  0  0  0  0  0  0
   36.6560   28.9270   31.3680 C   0  0  0  0  0  0  0  0  0  0  0  0
   36.4300   27.6380   34.9190 H   0  0  0  0  0  0  0  0  0  0  0  0
   37.7500   27.1270   30.9610 H   0  0  0  0  0  0  0  0  0  0  0  0
   36.7530   29.2450   30.3310 H   0  0  0  0  0  0  0  0  0  0  0  0
   35.3760   31.6420   36.2970 C   0  0  0  0  0  0  0  0  0  0  0  0
   33.9730   31.5840   36.5250 C   0  0  0  0  0  0  0  0  0  0  0  0
   33.2320   30.7180   35.7420 C   0  0  0  0  0  0  0  0  0  0  0  0
   33.8660   29.9600   34.7920 N   0  0  0  0  0  0  0  0  0  0  0  0
   35.1940   30.0390   34.6030 C   0  0  0  0  0  0  0  0  0  0  0  0
   35.9420   30.8830   35.3600 N   0  0  0  0  0  0  0  0  0  0  0  0
   36.0320   32.2860   36.8580 H   0  0  0  0  0  0  0  0  0  0  0  0
   33.6280   32.2330   37.2980 H   0  0  0  0  0  0  0  0  0  0  0  0
   32.1850   30.6880   35.9250 H   0  0  0  0  0  0  0  0  0  0  0  0
   37.7590   25.9870   33.3110 C   0  0  0  0  0  0  0  0  0  0  0  0
   38.9170   25.8450   34.0580 C   0  0  0  0  0  0  0  0  0  0  0  0
   39.4650   24.5960   34.3500 C   0  0  0  0  0  0  0  0  0  0  0  0
   38.8720   23.4860   33.9040 N   0  0  0  0  0  0  0  0  0  0  0  0
   37.7410   23.6200   33.1740 C   0  0  0  0  0  0  0  0  0  0  0  0
   37.2270   24.8240   32.9020 N   0  0  0  0  0  0  0  0  0  0  0  0
   39.4040   26.7430   34.4230 H   0  0  0  0  0  0  0  0  0  0  0  0
   40.3820   24.5890   34.9470 H   0  0  0  0  0  0  0  0  0  0  0  0
   37.0920   22.3820   32.6840 C   0  0  0  0  0  3  0  0  0  0  0  0
   36.7250   21.4480   33.8180 C   0  0  0  0  0  2  0  0  0  0  0  0
   35.6610   20.4690   33.4320 C   0  0  0  0  0  2  0  0  0  0  0  0
   35.6290   20.1840   31.9510 C   0  0  0  0  0  2  0  0  0  0  0  0
   35.5350   21.3990   31.0880 C   0  0  0  0  0  2  0  0  0  0  0  0
   35.8010   22.6490   31.9310 C   0  0  0  0  0  2  0  0  0  0  0  0
  1  2  1  0  0  0  0
  2  3  1  0  0  0  0
  3  4  2  0  0  0  0
  3 15  1  0  0  0  0
  4  8  1  0  0  0  0
  5 20  1  0  0  0  0
  5  4  1  0  0  0  0
  6  5  2  0  0  0  0
  7  6  1  0  0  0  0
  7  2  2  0  0  0  0
  9  6  1  0  0  0  0
 10  7  1  0  0  0  0
 11 12  1  0  0  0  0
 11 17  1  0  0  0  0
 12 18  1  0  0  0  0
 13 19  1  0  0  0  0
 13 12  2  0  0  0  0
 14 13  1  0  0  0  0
 15 14  2  0  0  0  0
 15 16  1  0  0  0  0
 16 11  2  0  0  0  0
 20 21  1  0  0  0  0
 21 22  2  0  0  0  0
 21 26  1  0  0  0  0
 22 27  1  0  0  0  0
 23 22  1  0  0  0  0
 24 23  2  0  0  0  0
 25 24  1  0  0  0  0
 25 20  2  0  0  0  0
 28 24  1  0  0  0  0
 28 29  1  0  0  0  0
 30 29  1  0  0  0  0
 31 30  1  0  0  0  0
 32 33  1  0  0  0  0
 32 31  1  0  0  0  0
 33 28  1  0  0  0  0
M  END
>  <minimizedAffinity>
-6.26612329

$$$$

 OpenBabel03272510223D

 33 36  0  0  0  0  0  0  0  0999 V2000
   37.9300   22.0050   32.8220 Br  0  0  0  0  0  0  0  0  0  0  0  0
   37.5060   23.8650   32.8510 C   0  0  0  0  0  0  0  0  0  0  0  0
   37.8800   24.6580   33.9450 C   0  0  0  0  0  0  0  0  0  0  0  0
   37.5390   25.9990   33.8970 C   0  0  0  0  0  0  0  0  0  0  0  0
   36.8570   26.5630   32.8280 C   0  0  0  0  0  0  0  0  0  0  0  0
   36.5110   25.7580   31.7870 C   0  0  0  0  0  0  0  0  0  0  0  0
   36.8390   24.4230   31.8120 C   0  0  0  0  0  0  0  0  0  0  0  0
   37.7970   26.6650   34.7060 H   0  0  0  0  0  0  0  0  0  0  0  0
   35.9780   26.1870   30.9470 H   0  0  0  0  0  0  0  0  0  0  0  0
   36.5370   23.8280   30.9510 H   0  0  0  0  0  0  0  0  0  0  0  0
   38.4470   23.2360   37.2470 C   0  0  0  0  0  0  0  0  0  0  0  0
   39.8500   23.0110   37.2720 C   0  0  0  0  0  0  0  0  0  0  0  0
   40.5750   23.3560   36.1450 C   0  0  0  0  0  0  0  0  0  0  0  0
   39.9240   23.8920   35.0650 N   0  0  0  0  0  0  0  0  0  0  0  0
   38.5960   24.0920   35.0750 C   0  0  0  0  0  0  0  0  0  0  0  0
   37.8630   23.7610   36.1710 N   0  0  0  0  0  0  0  0  0  0  0  0
   37.8030   23.0000   38.0780 H   0  0  0  0  0  0  0  0  0  0  0  0
   40.2100   22.5880   38.1830 H   0  0  0  0  0  0  0  0  0  0  0  0
   41.6230   23.1790   36.1810 H   0  0  0  0  0  0  0  0  0  0  0  0
   36.5010   27.9690   32.7830 C   0  0  0  0  0  0  0  0  0  0  0  0
   36.6520   28.7800   31.6710 C   0  0  0  0  0  0  0  0  0  0  0  0
   36.2940   30.1290   31.6800 C   0  0  0  0  0  0  0  0  0  0  0  0
   35.7870   30.6770   32.7860 N   0  0  0  0  0  0  0  0  0  0  0  0
   35.6370   29.8880   33.8750 C   0  0  0  0  0  0  0  0  0  0  0  0
   35.9850   28.5970   33.8520 N   0  0  0  0  0  0  0  0  0  0  0  0
   37.0640   28.3410   30.7680 H   0  0  0  0  0  0  0  0  0  0  0  0
   36.4520   30.6850   30.7510 H   0  0  0  0  0  0  0  0  0  0  0  0
   35.0740   30.5070   35.0960 C   0  0  0  0  0  3  0  0  0  0  0  0
   35.9780   31.5870   35.6530 C   0  0  0  0  0  2  0  0  0  0  0  0
   35.2490   32.5430   36.5440 C   0  0  0  0  0  2  0  0  0  0  0  0
   34.0280   31.9350   37.1900 C   0  0  0  0  0  2  0  0  0  0  0  0
   33.0710   31.3040   36.2320 C   0  0  0  0  0  2  0  0  0  0  0  0
   33.7310   31.1730   34.8570 C   0  0  0  0  0  2  0  0  0  0  0  0
  1  2  1  0  0  0  0
  2  3  1  0  0  0  0
  3 15  1  0  0  0  0
  4  3  2  0  0  0  0
  4  8  1  0  0  0  0
  5  4  1  0  0  0  0
  6  7  1  0  0  0  0
  6  5  2  0  0  0  0
  7  2  2  0  0  0  0
  9  6  1  0  0  0  0
 10  7  1  0  0  0  0
 11 12  1  0  0  0  0
 11 17  1  0  0  0  0
 12 18  1  0  0  0  0
 13 19  1  0  0  0  0
 13 12  2  0  0  0  0
 14 15  2  0  0  0  0
 14 13  1  0  0  0  0
 15 16  1  0  0  0  0
 16 11  2  0  0  0  0
 20  5  1  0  0  0  0
 20 25  1  0  0  0  0
 21 22  1  0  0  0  0
 21 20  2  0  0  0  0
 22 23  2  0  0  0  0
 23 24  1  0  0  0  0
 24 28  1  0  0  0  0
 25 24  2  0  0  0  0
 26 21  1  0  0  0  0
 27 22  1  0  0  0  0
 28 29  1  0  0  0  0
 29 30  1  0  0  0  0
 30 31  1  0  0  0  0
 32 31  1  0  0  0  0
 33 28  1  0  0  0  0
 33 32  1  0  0  0  0
M  END
>  <minimizedAffinity>
-6.22225428

$$$$

 OpenBabel03272510223D

 33 36  0  0  0  0  0  0  0  0999 V2000
   39.8700   23.9600   35.6920 Br  0  0  0  0  0  0  0  0  0  0  0  0
   38.7200   25.3310   35.0290 C   0  0  0  0  0  0  0  0  0  0  0  0
   38.0130   25.1420   33.8330 C   0  0  0  0  0  0  0  0  0  0  0  0
   37.1980   26.1790   33.4140 C   0  0  0  0  0  0  0  0  0  0  0  0
   37.0660   27.3650   34.1220 C   0  0  0  0  0  0  0  0  0  0  0  0
   37.7710   27.5080   35.2780 C   0  0  0  0  0  0  0  0  0  0  0  0
   38.5870   26.4910   35.7150 C   0  0  0  0  0  0  0  0  0  0  0  0
   36.6250   26.0990   32.5020 H   0  0  0  0  0  0  0  0  0  0  0  0
   37.6760   28.4290   35.8390 H   0  0  0  0  0  0  0  0  0  0  0  0
   39.1260   26.6620   36.6460 H   0  0  0  0  0  0  0  0  0  0  0  0
   39.1940   22.8040   31.3070 C   0  0  0  0  0  0  0  0  0  0  0  0
   38.4420   21.6260   31.5710 C   0  0  0  0  0  0  0  0  0  0  0  0
   37.5400   21.6640   32.6190 C   0  0  0  0  0  0  0  0  0  0  0  0
   37.4070   22.8140   33.3520 N   0  0  0  0  0  0  0  0  0  0  0  0
   38.1340   23.9100   33.0740 C   0  0  0  0  0  0  0  0  0  0  0  0
   39.0260   23.8970   32.0500 N   0  0  0  0  0  0  0  0  0  0  0  0
   39.9180   22.8680   30.5120 H   0  0  0  0  0  0  0  0  0  0  0  0
   38.6570   20.8130   30.9150 H   0  0  0  0  0  0  0  0  0  0  0  0
   36.9870   20.7740   32.8030 H   0  0  0  0  0  0  0  0  0  0  0  0
   36.2110   28.4490   33.6780 C   0  0  0  0  0  0  0  0  0  0  0  0
   35.8560   28.6770   32.3580 C   0  0  0  0  0  0  0  0  0  0  0  0
   35.0290   29.7370   31.9820 C   0  0  0  0  0  0  0  0  0  0  0  0
   34.5520   30.5710   32.9080 N   0  0  0  0  0  0  0  0  0  0  0  0
   34.8960   30.3520   34.1980 C   0  0  0  0  0  0  0  0  0  0  0  0
   35.6890   29.3330   34.5430 N   0  0  0  0  0  0  0  0  0  0  0  0
   36.2400   28.0020   31.6000 H   0  0  0  0  0  0  0  0  0  0  0  0
   34.8070   29.8320   30.9150 H   0  0  0  0  0  0  0  0  0  0  0  0
   34.3620   31.2850   35.2160 C   0  0  0  0  0  3  0  0  0  0  0  0
   33.1530   30.7150   35.9290 C   0  0  0  0  0  2  0  0  0  0  0  0
   32.9050   31.3720   37.2510 C   0  0  0  0  0  2  0  0  0  0  0  0
   33.4410   32.7800   37.3220 C   0  0  0  0  0  2  0  0  0  0  0  0
   34.8830   32.9120   36.9550 C   0  0  0  0  0  2  0  0  0  0  0  0
   35.3680   31.6140   36.3040 C   0  0  0  0  0  2  0  0  0  0  0  0
  2  1  1  0  0  0  0
  2  7  1  0  0  0  0
  3  2  2  0  0  0  0
  4  3  1  0  0  0  0
  4  5  2  0  0  0  0
  5  6  1  0  0  0  0
  6  7  2  0  0  0  0
  6  9  1  0  0  0  0
  7 10  1  0  0  0  0
  8  4  1  0  0  0  0
 11 12  2  0  0  0  0
 11 16  1  0  0  0  0
 12 13  1  0  0  0  0
 13 19  1  0  0  0  0
 13 14  2  0  0  0  0
 15 14  1  0  0  0  0
 15  3  1  0  0  0  0
 16 15  2  0  0  0  0
 17 11  1  0  0  0  0
 18 12  1  0  0  0  0
 20  5  1  0  0  0  0
 20 25  1  0  0  0  0
 21 20  2  0  0  0  0
 22 21  1  0  0  0  0
 22 23  2  0  0  0  0
 23 24  1  0  0  0  0
 24 25  2  0  0  0  0
 24 28  1  0  0  0  0
 26 21  1  0  0  0  0
 27 22  1  0  0  0  0
 28 29  1  0  0  0  0
 28 33  1  0  0  0  0
 29 30  1  0  0  0  0
 30 31  1  0  0  0  0
 32 31  1  0  0  0  0
 33 32  1  0  0  0  0
M  END
>  <minimizedAffinity>
-6.14028311

$$$$

 OpenBabel03272510223D

 33 36  0  0  0  0  0  0  0  0999 V2000
   40.6050   24.2230   33.8040 Br  0  0  0  0  0  0  0  0  0  0  0  0
   39.3120   25.5970   33.5200 C   0  0  0  0  0  0  0  0  0  0  0  0
   38.2270   25.7370   34.3970 C   0  0  0  0  0  0  0  0  0  0  0  0
   37.3290   26.7570   34.1280 C   0  0  0  0  0  0  0  0  0  0  0  0
   37.4690   27.6170   33.0480 C   0  0  0  0  0  0  0  0  0  0  0  0
   38.5360   27.4450   32.2210 C   0  0  0  0  0  0  0  0  0  0  0  0
   39.4410   26.4390   32.4680 C   0  0  0  0  0  0  0  0  0  0  0  0
   36.4710   26.9200   34.7640 H   0  0  0  0  0  0  0  0  0  0  0  0
   38.6560   28.1100   31.3750 H   0  0  0  0  0  0  0  0  0  0  0  0
   40.2750   26.3500   31.7730 H   0  0  0  0  0  0  0  0  0  0  0  0
   38.0540   24.6480   37.8640 C   0  0  0  0  0  0  0  0  0  0  0  0
   37.7580   23.2610   37.7600 C   0  0  0  0  0  0  0  0  0  0  0  0
   37.6250   22.7290   36.4900 C   0  0  0  0  0  0  0  0  0  0  0  0
   37.7790   23.5440   35.4000 N   0  0  0  0  0  0  0  0  0  0  0  0
   38.0580   24.8510   35.5350 C   0  0  0  0  0  0  0  0  0  0  0  0
   38.1940   25.3960   36.7720 N   0  0  0  0  0  0  0  0  0  0  0  0
   38.1760   25.1490   38.8110 H   0  0  0  0  0  0  0  0  0  0  0  0
   37.6680   22.7610   38.6970 H   0  0  0  0  0  0  0  0  0  0  0  0
   37.4030   21.6910   36.4310 H   0  0  0  0  0  0  0  0  0  0  0  0
   36.5240   28.6820   32.7710 C   0  0  0  0  0  0  0  0  0  0  0  0
   36.0810   29.0270   31.5050 C   0  0  0  0  0  0  0  0  0  0  0  0
   35.1700   30.0630   31.2920 C   0  0  0  0  0  0  0  0  0  0  0  0
   34.6970   30.7580   32.3280 N   0  0  0  0  0  0  0  0  0  0  0  0
   35.1270   30.4250   33.5670 C   0  0  0  0  0  0  0  0  0  0  0  0
   36.0000   29.4300   33.7560 N   0  0  0  0  0  0  0  0  0  0  0  0
   36.4630   28.4660   30.6580 H   0  0  0  0  0  0  0  0  0  0  0  0
   34.8820   30.2590   30.2550 H   0  0  0  0  0  0  0  0  0  0  0  0
   34.5960   31.2040   34.7080 C   0  0  0  0  0  3  0  0  0  0  0  0
   33.3400   30.5820   35.2830 C   0  0  0  0  0  2  0  0  0  0  0  0
   33.0720   31.0260   36.6870 C   0  0  0  0  0  2  0  0  0  0  0  0
   33.6630   32.3770   37.0030 C   0  0  0  0  0  2  0  0  0  0  0  0
   35.1210   32.5000   36.7040 C   0  0  0  0  0  2  0  0  0  0  0  0
   35.5760   31.3040   35.8630 C   0  0  0  0  0  2  0  0  0  0  0  0
  2  1  1  0  0  0  0
  2  3  1  0  0  0  0
  3 15  1  0  0  0  0
  4  3  2  0  0  0  0
  4  8  1  0  0  0  0
  5  4  1  0  0  0  0
  6  7  1  0  0  0  0
  6  5  2  0  0  0  0
  7  2  2  0  0  0  0
  9  6  1  0  0  0  0
 10  7  1  0  0  0  0
 11 17  1  0  0  0  0
 12 11  1  0  0  0  0
 12 18  1  0  0  0  0
 13 12  2  0  0  0  0
 14 15  2  0  0  0  0
 14 13  1  0  0  0  0
 15 16  1  0  0  0  0
 16 11  2  0  0  0  0
 19 13  1  0  0  0  0
 20  5  1  0  0  0  0
 20 25  1  0  0  0  0
 21 20  2  0  0  0  0
 22 21  1  0  0  0  0
 22 23  2  0  0  0  0
 23 24  1  0  0  0  0
 24 25  2  0  0  0  0
 24 28  1  0  0  0  0
 26 21  1  0  0  0  0
 27 22  1  0  0  0  0
 28 29  1  0  0  0  0
 28 33  1  0  0  0  0
 29 30  1  0  0  0  0
 30 31  1  0  0  0  0
 32 31  1  0  0  0  0
 33 32  1  0  0  0  0
M  END
>  <minimizedAffinity>
-6.05178356

$$$$

 OpenBabel03272510223D

 33 36  0  0  0  0  0  0  0  0999 V2000
   35.5030   30.7270   35.0740 Br  0  0  0  0  0  0  0  0  0  0  0  0
   35.9420   29.1700   34.0630 C   0  0  0  0  0  0  0  0  0  0  0  0
   35.4730   29.0250   32.7500 C   0  0  0  0  0  0  0  0  0  0  0  0
   35.8310   27.8680   32.0770 C   0  0  0  0  0  0  0  0  0  0  0  0
   36.6180   26.8790   32.6500 C   0  0  0  0  0  0  0  0  0  0  0  0
   37.0520   27.0590   33.9270 C   0  0  0  0  0  0  0  0  0  0  0  0
   36.7090   28.1990   34.6150 C   0  0  0  0  0  0  0  0  0  0  0  0
   35.5040   27.6940   31.0630 H   0  0  0  0  0  0  0  0  0  0  0  0
   37.6660   26.2930   34.3850 H   0  0  0  0  0  0  0  0  0  0  0  0
   37.0850   28.2890   35.6330 H   0  0  0  0  0  0  0  0  0  0  0  0
   34.6010   31.9750   30.8070 C   0  0  0  0  0  0  0  0  0  0  0  0
   33.1830   32.0280   30.9060 C   0  0  0  0  0  0  0  0  0  0  0  0
   32.5560   31.0400   31.6440 C   0  0  0  0  0  0  0  0  0  0  0  0
   33.3100   30.0650   32.2410 N   0  0  0  0  0  0  0  0  0  0  0  0
   34.6490   30.0460   32.1270 C   0  0  0  0  0  0  0  0  0  0  0  0
   35.2870   31.0050   31.4080 N   0  0  0  0  0  0  0  0  0  0  0  0
   35.1750   32.7020   30.2550 H   0  0  0  0  0  0  0  0  0  0  0  0
   32.7380   32.8460   30.3870 H   0  0  0  0  0  0  0  0  0  0  0  0
   31.4950   31.0950   31.7060 H   0  0  0  0  0  0  0  0  0  0  0  0
   36.9900   25.6690   31.9410 C   0  0  0  0  0  0  0  0  0  0  0  0
   37.9500   25.6090   30.9440 C   0  0  0  0  0  0  0  0  0  0  0  0
   38.2710   24.4170   30.2920 C   0  0  0  0  0  0  0  0  0  0  0  0
   37.6450   23.2860   30.6230 N   0  0  0  0  0  0  0  0  0  0  0  0
   36.7070   23.3410   31.5960 C   0  0  0  0  0  0  0  0  0  0  0  0
   36.4100   24.4890   32.2120 N   0  0  0  0  0  0  0  0  0  0  0  0
   38.4630   26.5250   30.6700 H   0  0  0  0  0  0  0  0  0  0  0  0
   39.0430   24.4730   29.5190 H   0  0  0  0  0  0  0  0  0  0  0  0
   36.0190   22.0800   31.9550 C   0  0  0  0  0  3  0  0  0  0  0  0
   36.0660   21.0680   30.8290 C   0  0  0  0  0  2  0  0  0  0  0  0
   35.8430   19.6680   31.3070 C   0  0  0  0  0  2  0  0  0  0  0  0
   35.0350   19.5980   32.5790 C   0  0  0  0  0  2  0  0  0  0  0  0
   35.5660   20.4350   33.6960 C   0  0  0  0  0  2  0  0  0  0  0  0
   36.6350   21.3900   33.1590 C   0  0  0  0  0  2  0  0  0  0  0  0
  2  7  1  0  0  0  0
  2  1  1  0  0  0  0
  3  2  2  0  0  0  0
  4  5  2  0  0  0  0
  4  3  1  0  0  0  0
  5  6  1  0  0  0  0
  6  9  1  0  0  0  0
  6  7  2  0  0  0  0
  7 10  1  0  0  0  0
  8  4  1  0  0  0  0
 11 12  2  0  0  0  0
 11 16  1  0  0  0  0
 12 13  1  0  0  0  0
 13 19  1  0  0  0  0
 13 14  2  0  0  0  0
 15 14  1  0  0  0  0
 15  3  1  0  0  0  0
 16 15  2  0  0  0  0
 17 11  1  0  0  0  0
 18 12  1  0  0  0  0
 20 25  1  0  0  0  0
 20  5  1  0  0  0  0
 21 20  2  0  0  0  0
 22 23  2  0  0  0  0
 22 21  1  0  0  0  0
 23 24  1  0  0  0  0
 24 28  1  0  0  0  0
 24 25  2  0  0  0  0
 26 21  1  0  0  0  0
 27 22  1  0  0  0  0
 28 33  1  0  0  0  0
 29 30  1  0  0  0  0
 29 28  1  0  0  0  0
 30 31  1  0  0  0  0
 31 32  1  0  0  0  0
 33 32  1  0  0  0  0
M  END
>  <minimizedAffinity>
-6.0271883

$$$$

 OpenBabel03272510223D

 33 36  0  0  0  0  0  0  0  0999 V2000
   35.1890   31.7590   32.0220 Br  0  0  0  0  0  0  0  0  0  0  0  0
   35.8550   30.0260   32.4620 C   0  0  0  0  0  0  0  0  0  0  0  0
   35.7490   29.5410   33.7730 C   0  0  0  0  0  0  0  0  0  0  0  0
   36.2540   28.2750   34.0180 C   0  0  0  0  0  0  0  0  0  0  0  0
   36.8450   27.4970   33.0320 C   0  0  0  0  0  0  0  0  0  0  0  0
   36.9290   28.0070   31.7730 C   0  0  0  0  0  0  0  0  0  0  0  0
   36.4350   29.2620   31.5050 C   0  0  0  0  0  0  0  0  0  0  0  0
   36.2040   27.8410   35.0050 H   0  0  0  0  0  0  0  0  0  0  0  0
   37.3890   27.4100   30.9950 H   0  0  0  0  0  0  0  0  0  0  0  0
   36.5290   29.6170   30.4800 H   0  0  0  0  0  0  0  0  0  0  0  0
   33.1520   30.9140   35.9200 C   0  0  0  0  0  0  0  0  0  0  0  0
   33.8660   31.7920   36.7810 C   0  0  0  0  0  0  0  0  0  0  0  0
   35.2340   31.8920   36.6010 C   0  0  0  0  0  0  0  0  0  0  0  0
   35.8400   31.1540   35.6180 N   0  0  0  0  0  0  0  0  0  0  0  0
   35.1340   30.3340   34.8220 C   0  0  0  0  0  0  0  0  0  0  0  0
   33.7890   30.2190   34.9790 N   0  0  0  0  0  0  0  0  0  0  0  0
   32.0860   30.7720   35.9860 H   0  0  0  0  0  0  0  0  0  0  0  0
   33.2570   32.2970   37.4960 H   0  0  0  0  0  0  0  0  0  0  0  0
   35.7520   32.5530   37.2540 H   0  0  0  0  0  0  0  0  0  0  0  0
   37.3730   26.1720   33.2940 C   0  0  0  0  0  0  0  0  0  0  0  0
   38.3440   25.8890   34.2420 C   0  0  0  0  0  0  0  0  0  0  0  0
   38.8190   24.5940   34.4550 C   0  0  0  0  0  0  0  0  0  0  0  0
   38.3370   23.5800   33.7350 N   0  0  0  0  0  0  0  0  0  0  0  0
   37.3890   23.8520   32.8090 C   0  0  0  0  0  0  0  0  0  0  0  0
   36.9430   25.0970   32.6150 N   0  0  0  0  0  0  0  0  0  0  0  0
   38.7400   26.7100   34.8310 H   0  0  0  0  0  0  0  0  0  0  0  0
   39.5860   24.4730   35.2260 H   0  0  0  0  0  0  0  0  0  0  0  0
   36.8620   22.7180   32.0150 C   0  0  0  0  0  3  0  0  0  0  0  0
   37.9350   22.0780   31.1590 C   0  0  0  0  0  2  0  0  0  0  0  0
   37.5860   20.6810   30.7520 C   0  0  0  0  0  2  0  0  0  0  0  0
   36.0990   20.4320   30.7100 C   0  0  0  0  0  2  0  0  0  0  0  0
   35.3760   20.7870   31.9680 C   0  0  0  0  0  2  0  0  0  0  0  0
   36.2980   21.6030   32.8770 C   0  0  0  0  0  2  0  0  0  0  0  0
  1  2  1  0  0  0  0
  2  3  1  0  0  0  0
  3  4  2  0  0  0  0
  3 15  1  0  0  0  0
  4  8  1  0  0  0  0
  5 20  1  0  0  0  0
  5  4  1  0  0  0  0
  6  5  2  0  0  0  0
  7  6  1  0  0  0  0
  7  2  2  0  0  0  0
  9  6  1  0  0  0  0
 10  7  1  0  0  0  0
 11 17  1  0  0  0  0
 11 12  1  0  0  0  0
 12 18  1  0  0  0  0
 13 12  2  0  0  0  0
 13 19  1  0  0  0  0
 14 13  1  0  0  0  0
 15 16  1  0  0  0  0
 15 14  2  0  0  0  0
 16 11  2  0  0  0  0
 20 21  1  0  0  0  0
 21 22  2  0  0  0  0
 21 26  1  0  0  0  0
 22 27  1  0  0  0  0
 23 22  1  0  0  0  0
 24 23  2  0  0  0  0
 25 24  1  0  0  0  0
 25 20  2  0  0  0  0
 28 24  1  0  0  0  0
 28 33  1  0  0  0  0
 29 28  1  0  0  0  0
 30 29  1  0  0  0  0
 31 30  1  0  0  0  0
 31 32  1  0  0  0  0
 32 33  1  0  0  0  0
M  END
>  <minimizedAffinity>
-6.01451206

$$$$
