
     RDKit          3D

 26 27  0  0  0  0  0  0  0  0999 V2000
   37.2972   30.1832   51.4148 C   0  0  0  0  0  0  0  0  0  0  0  0
   38.0729   30.6835   50.3456 C   0  0  0  0  0  0  0  0  0  0  0  0
   37.6746   30.3405   49.0448 C   0  0  0  0  0  0  0  0  0  0  0  0
   36.5724   29.5516   48.8894 N   0  0  0  0  0  0  0  0  0  0  0  0
   35.8579   29.0936   49.9341 C   0  0  0  0  0  0  0  0  0  0  0  0
   36.2191   29.4086   51.1993 N   0  0  0  0  0  0  0  0  0  0  0  0
   37.6262   30.4629   52.4108 H   0  0  0  0  0  0  0  0  0  0  0  0
   38.9312   31.3007   50.5261 H   0  0  0  0  0  0  0  0  0  0  0  0
   35.0020   28.4765   49.7183 H   0  0  0  0  0  0  0  0  0  0  0  0
   38.4527   30.8396   47.9105 C   0  0  0  0  0  0  0  0  0  0  0  0
   39.9070   30.5309   47.9250 C   0  0  0  0  0  0  0  0  0  0  0  0
   40.5524   31.4414   46.8979 C   0  0  0  0  0  0  0  0  0  0  0  0
   39.7433   31.5356   45.6590 C   0  0  0  0  0  0  0  0  0  0  0  0
   38.7178   30.4745   45.4442 C   0  0  0  0  0  0  0  0  0  0  0  0
   37.9001   30.1423   46.6605 C   0  0  0  0  0  0  0  0  0  0  0  0
   38.2727   31.9279   47.7033 H   0  0  0  0  0  0  0  0  0  0  0  0
   40.1298   29.4916   47.6731 H   0  0  0  0  0  0  0  0  0  0  0  0
   40.4154   30.7867   48.8756 H   0  0  0  0  0  0  0  0  0  0  0  0
   41.6151   31.1691   46.7278 H   0  0  0  0  0  0  0  0  0  0  0  0
   40.5885   32.4614   47.3665 H   0  0  0  0  0  0  0  0  0  0  0  0
   39.2839   32.5513   45.5049 H   0  0  0  0  0  0  0  0  0  0  0  0
   40.4662   31.4299   44.8004 H   0  0  0  0  0  0  0  0  0  0  0  0
   37.9883   30.8884   44.6863 H   0  0  0  0  0  0  0  0  0  0  0  0
   39.0947   29.5420   44.9755 H   0  0  0  0  0  0  0  0  0  0  0  0
   36.8292   30.4056   46.5635 H   0  0  0  0  0  0  0  0  0  0  0  0
   37.9539   29.0520   46.8843 H   0  0  0  0  0  0  0  0  0  0  0  0
  2  1  2  0
  3  2  1  0
  4  3  2  0
  4  5  1  0
  5  6  2  0
  6  1  1  0
  1  7  1  0
  2  8  1  0
  5  9  1  0
 10 11  1  0
 11 12  1  0
 12 13  1  0
 13 14  1  0
 14 15  1  0
 15 10  1  0
 10 16  1  0
 11 17  1  0
 11 18  1  0
 12 19  1  0
 12 20  1  0
 13 21  1  0
 13 22  1  0
 14 23  1  0
 14 24  1  0
 15 25  1  0
 15 26  1  0
  3 10  1  0
M  ISO  3   7  14   8  14   9  14
M  END
>  <DihAtoms>  (1) 
1,2,9,10

>  <DihDeg>  (1) 
-49.97841113850576

$$$$
