
     RDKit          3D

 43 45  0  0  0  0  0  0  0  0999 V2000
   33.2817   27.2751   48.0016 C   0  0  0  0  0  0  0  0  0  0  0  0
   33.7068   26.2103   47.0447 C   0  0  0  0  0  0  0  0  0  0  0  0
   33.9249   24.8976   47.3762 C   0  0  0  0  0  0  0  0  0  0  0  0
   34.3166   23.9873   46.4170 C   0  0  0  0  0  0  0  0  0  0  0  0
   34.5005   24.3864   45.0786 C   0  0  0  0  0  0  0  0  0  0  0  0
   34.2846   25.6927   44.7428 C   0  0  0  0  0  0  0  0  0  0  0  0
   33.8913   26.5916   45.7223 C   0  0  0  0  0  0  0  0  0  0  0  0
   34.6789   28.3967   49.7446 C   0  0  0  0  0  0  0  0  0  0  0  0
   34.4186   28.0691   48.5064 C   0  0  0  0  0  0  0  0  0  0  0  0
   37.3699   30.2271   51.4195 C   0  0  0  0  0  0  0  0  0  0  0  0
   38.1200   30.6955   50.3221 C   0  0  0  0  0  0  0  0  0  0  0  0
   37.6750   30.3646   49.0256 C   0  0  0  0  0  0  0  0  0  0  0  0
   36.5522   29.6156   48.9138 N   0  0  0  0  0  0  0  0  0  0  0  0
   35.8587   29.1841   49.9862 C   0  0  0  0  0  0  0  0  0  0  0  0
   36.2853   29.5014   51.2276 N   0  0  0  0  0  0  0  0  0  0  0  0
   32.6011   27.9678   47.4451 H   0  0  0  0  0  0  0  0  0  0  0  0
   32.6848   26.8000   48.8087 H   0  0  0  0  0  0  0  0  0  0  0  0
   33.7707   24.6367   48.4196 H   0  0  0  0  0  0  0  0  0  0  0  0
   34.4705   22.9794   46.7387 H   0  0  0  0  0  0  0  0  0  0  0  0
   34.8052   23.5902   44.4266 H   0  0  0  0  0  0  0  0  0  0  0  0
   34.4317   25.9774   43.7093 H   0  0  0  0  0  0  0  0  0  0  0  0
   33.7361   27.6195   45.3857 H   0  0  0  0  0  0  0  0  0  0  0  0
   34.0697   28.1168   50.5953 H   0  0  0  0  0  0  0  0  0  0  0  0
   35.0225   28.3447   47.6486 H   0  0  0  0  0  0  0  0  0  0  0  0
   37.7366   30.4973   52.3971 H   0  0  0  0  0  0  0  0  0  0  0  0
   39.0043   31.2841   50.3716 H   0  0  0  0  0  0  0  0  0  0  0  0
   38.3443   30.7749   47.7636 C   0  0  0  0  0  0  0  0  0  0  0  0
   38.1341   32.2398   47.4628 C   0  0  0  0  0  0  0  0  0  0  0  0
   38.9960   32.5293   46.2294 C   0  0  0  0  0  0  0  0  0  0  0  0
   40.4630   32.5256   46.5825 C   0  0  0  0  0  0  0  0  0  0  0  0
   40.6175   31.8481   47.9162 C   0  0  0  0  0  0  0  0  0  0  0  0
   39.8476   30.5364   47.8339 C   0  0  0  0  0  0  0  0  0  0  0  0
   38.0004   30.2112   46.8969 H   0  0  0  0  0  0  0  0  0  0  0  0
   38.3389   32.9182   48.2892 H   0  0  0  0  0  0  0  0  0  0  0  0
   37.0770   32.3625   47.1067 H   0  0  0  0  0  0  0  0  0  0  0  0
   38.7280   33.5385   45.8720 H   0  0  0  0  0  0  0  0  0  0  0  0
   38.7995   31.7219   45.5020 H   0  0  0  0  0  0  0  0  0  0  0  0
   40.9066   33.5220   46.6037 H   0  0  0  0  0  0  0  0  0  0  0  0
   41.0543   31.8994   45.8551 H   0  0  0  0  0  0  0  0  0  0  0  0
   41.6698   31.5722   48.1253 H   0  0  0  0  0  0  0  0  0  0  0  0
   40.2569   32.4234   48.7774 H   0  0  0  0  0  0  0  0  0  0  0  0
   40.2312   29.9068   47.0154 H   0  0  0  0  0  0  0  0  0  0  0  0
   40.0421   30.0004   48.7843 H   0  0  0  0  0  0  0  0  0  0  0  0
  1  9  1  0
  2  3  2  0
  2  1  1  0
  4  3  1  0
  5  4  2  0
  6  5  1  0
  6  7  2  0
  7  2  1  0
  8 14  1  0
  9  8  2  0
 11 10  2  0
 12 11  1  0
 13 12  2  0
 13 14  1  0
 14 15  2  0
 15 10  1  0
  1 16  1  0
  1 17  1  0
  3 18  1  0
  4 19  1  0
  5 20  1  0
  6 21  1  0
  7 22  1  0
  8 23  1  0
  9 24  1  0
 10 25  1  0
 11 26  1  0
 27 28  1  0
 28 29  1  0
 29 30  1  0
 30 31  1  0
 31 32  1  0
 32 27  1  0
 27 33  1  0
 28 34  1  0
 28 35  1  0
 29 36  1  0
 29 37  1  0
 30 38  1  0
 30 39  1  0
 31 40  1  0
 31 41  1  0
 32 42  1  0
 32 43  1  0
 12 27  1  0
M  ISO  8  16   8  17   8  18  14  19  14  20  14  21  14  22  14  25  14
M  ISO  1  26  14
M  END
>  <DihAtoms>  (1) 
10,11,26,27

>  <DihDeg>  (1) 
121.47074931757105

$$$$
