
 OpenBabel03272500363D

 18 19  0  0  0  0  0  0  0  0999 V2000
   37.2000   30.5340   49.4500 C   0  0  0  0  0  0  0  0  0  0  0  0
   37.0440   31.7270   50.1680 C   0  0  0  0  0  0  0  0  0  0  0  0
   37.5900   32.9000   49.6210 C   0  0  0  0  0  0  0  0  0  0  0  0
   38.2350   32.8060   48.4280 N   0  0  0  0  0  0  0  0  0  0  0  0
   38.3610   31.6340   47.7710 C   0  0  0  0  0  0  0  0  0  0  0  0
   37.8440   30.5200   48.2900 N   0  0  0  0  0  0  0  0  0  0  0  0
   36.5240   31.7670   51.1160 H   0  0  0  0  0  0  0  0  0  0  0  0
   37.5000   33.8580   50.1320 H   0  0  0  0  0  0  0  0  0  0  0  0
   39.0670   31.5540   46.4730 C   0  0  0  0  0  0  0  0  0  0  0  0
   39.9270   32.8050   46.2810 C   0  0  0  0  0  0  0  0  0  0  0  0
   40.7690   32.5220   45.0430 C   0  0  0  0  0  0  0  0  0  0  0  0
   39.8200   32.5930   43.8590 C   0  0  0  0  0  0  0  0  0  0  0  0
   38.3740   32.4850   44.2520 C   0  0  0  0  0  0  0  0  0  0  0  0
   38.1600   31.3930   45.3000 C   0  0  0  0  0  0  0  0  0  0  0  0
   36.6170   29.2810   50.0370 C   0  0  0  0  0  0  0  0  0  0  0  0
   35.9630   28.5680   49.0500 F   0  0  0  0  0  0  0  0  0  0  0  0
   37.6470   28.5820   50.6240 F   0  0  0  0  0  0  0  0  0  0  0  0
   35.6650   29.6670   50.9700 F   0  0  0  0  0  0  0  0  0  0  0  0
  1 15  1  0  0  0  0
  1  2  1  0  0  0  0
  2  7  1  0  0  0  0
  3  8  1  0  0  0  0
  3  2  2  0  0  0  0
  4  3  1  0  0  0  0
  5  6  1  0  0  0  0
  5  4  2  0  0  0  0
  6  1  2  0  0  0  0
  9  5  1  0  0  0  0
 10  9  1  0  0  0  0
 11 10  1  0  0  0  0
 12 13  1  0  0  0  0
 12 11  1  0  0  0  0
 13 14  1  0  0  0  0
 14  9  1  0  0  0  0
 15 17  1  0  0  0  0
 15 18  1  0  0  0  0
 16 15  1  0  0  0  0
M  END
>  <minimizedAffinity>
-5.9771471

>  <minimizedRMSD>
2.75017667

$$$$
