
 OpenBabel03262522193D

 22 23  0  0  0  0  0  0  0  0999 V2000
   41.0210   26.7120   34.7910 O   0  0  0  0  0  0  0  0  0  0  0  0
   39.4920   26.6260   34.7670 P   0  0  1  0  0  0  0  0  0  0  0  0
   38.9250   27.5530   36.0910 O   0  0  0  0  0  0  0  0  0  0  0  0
   38.4440   26.9880   36.7380 H   0  0  0  0  0  0  0  0  0  0  0  0
   38.9420   27.3990   33.3780 O   0  0  0  0  0  0  0  0  0  0  0  0
   36.7150   27.8140   32.5850 C   0  0  0  0  0  0  0  0  0  0  0  0
   37.8860   27.0170   32.5850 C   0  0  0  0  0  0  0  0  0  0  0  0
   37.8780   25.8870   31.7670 C   0  0  0  0  0  0  0  0  0  0  0  0
   36.7670   25.6120   31.0260 N   0  0  0  0  0  0  0  0  0  0  0  0
   35.6820   26.4010   31.0630 C   0  0  0  0  0  0  0  0  0  0  0  0
   35.6440   27.5180   31.8480 N   0  0  0  0  0  0  0  0  0  0  0  0
   36.7240   28.6860   33.2180 H   0  0  0  0  0  0  0  0  0  0  0  0
   38.7630   25.2660   31.7540 H   0  0  0  0  0  0  0  0  0  0  0  0
   34.7860   26.2230   30.4960 H   0  0  0  0  0  0  0  0  0  0  0  0
   39.0740   25.0280   34.9040 O   0  0  0  0  0  0  0  0  0  0  0  0
   39.0080   24.4060   36.1470 C   0  0  0  0  0  0  0  0  0  0  0  0
   39.8430   23.3790   36.5380 C   0  0  0  0  0  3  0  0  0  0  0  0
   39.7510   22.7830   37.7790 C   0  0  0  0  0  0  0  0  0  0  0  0
   40.4430   21.9680   38.0410 H   0  0  0  0  0  0  0  0  0  0  0  0
   38.8130   23.2320   38.6190 N   0  0  0  0  0  0  0  0  0  0  0  0
   37.9720   24.2420   38.2650 C   0  0  0  0  0  3  0  0  0  0  0  0
   38.0690   24.8260   37.0370 N   0  0  0  0  0  0  0  0  0  0  0  0
  2  1  2  6  0  0  0
  2 15  1  0  0  0  0
  2  3  1  0  0  0  0
  3  4  1  0  0  0  0
  5  2  1  0  0  0  0
  6  7  1  0  0  0  0
  6 12  1  0  0  0  0
  7  5  1  0  0  0  0
  8  7  2  0  0  0  0
  9 10  2  0  0  0  0
  9  8  1  0  0  0  0
 10 11  1  0  0  0  0
 11  6  2  0  0  0  0
 13  8  1  0  0  0  0
 14 10  1  0  0  0  0
 15 16  1  0  0  0  0
 16 17  2  0  0  0  0
 16 22  1  0  0  0  0
 17 18  1  0  0  0  0
 18 19  1  0  0  0  0
 18 20  2  0  0  0  0
 21 20  1  0  0  0  0
 22 21  2  0  0  0  0
M  END
>  <minimizedAffinity>
-4.59511662

$$$$

 OpenBabel03262522193D

 22 23  0  0  0  0  0  0  0  0999 V2000
   36.7090   27.6990   34.8760 O   0  0  0  0  0  0  0  0  0  0  0  0
   37.8480   26.6750   34.9210 P   0  0  1  0  0  0  0  0  0  0  0  0
   39.1750   27.4480   35.6780 O   0  0  0  0  0  0  0  0  0  0  0  0
   39.9400   27.5210   35.0630 H   0  0  0  0  0  0  0  0  0  0  0  0
   37.3870   25.4190   35.9410 O   0  0  0  0  0  0  0  0  0  0  0  0
   39.2820   23.9500   35.8390 C   0  0  0  0  0  0  0  0  0  0  0  0
   38.2180   24.5260   36.5750 C   0  0  0  0  0  0  0  0  0  0  0  0
   38.0920   24.1370   37.9090 C   0  0  0  0  0  0  0  0  0  0  0  0
   38.9800   23.2390   38.4250 N   0  0  0  0  0  0  0  0  0  0  0  0
   39.9720   22.7240   37.6830 C   0  0  0  0  0  0  0  0  0  0  0  0
   40.1350   23.0750   36.3730 N   0  0  0  0  0  0  0  0  0  0  0  0
   39.3770   24.2520   34.8100 H   0  0  0  0  0  0  0  0  0  0  0  0
   37.2860   24.5660   38.4870 H   0  0  0  0  0  0  0  0  0  0  0  0
   40.6930   22.0150   38.0480 H   0  0  0  0  0  0  0  0  0  0  0  0
   38.1930   26.2340   33.3610 O   0  0  0  0  0  0  0  0  0  0  0  0
   37.2970   25.4770   32.6130 C   0  0  0  0  0  0  0  0  0  0  0  0
   36.3270   26.0210   31.7960 C   0  0  0  0  0  3  0  0  0  0  0  0
   35.4520   25.2420   31.0670 C   0  0  0  0  0  0  0  0  0  0  0  0
   34.6970   25.7270   30.4290 H   0  0  0  0  0  0  0  0  0  0  0  0
   35.5650   23.9140   31.1690 N   0  0  0  0  0  0  0  0  0  0  0  0
   36.5100   23.3440   31.9660 C   0  0  0  0  0  3  0  0  0  0  0  0
   37.3710   24.1210   32.6840 N   0  0  0  0  0  0  0  0  0  0  0  0
  2  1  2  6  0  0  0
  2  3  1  0  0  0  0
  2  5  1  0  0  0  0
  4  3  1  0  0  0  0
  5  7  1  0  0  0  0
  6 11  2  0  0  0  0
  6  7  1  0  0  0  0
  7  8  2  0  0  0  0
  8  9  1  0  0  0  0
  8 13  1  0  0  0  0
 10 14  1  0  0  0  0
 10  9  2  0  0  0  0
 11 10  1  0  0  0  0
 12  6  1  0  0  0  0
 15  2  1  0  0  0  0
 16 22  1  0  0  0  0
 16 15  1  0  0  0  0
 17 16  2  0  0  0  0
 18 20  2  0  0  0  0
 18 17  1  0  0  0  0
 19 18  1  0  0  0  0
 20 21  1  0  0  0  0
 21 22  2  0  0  0  0
M  END
>  <minimizedAffinity>
-4.51023531

$$$$

 OpenBabel03262522193D

 22 23  0  0  0  0  0  0  0  0999 V2000
   39.2850   27.1580   35.5950 O   0  0  0  0  0  0  0  0  0  0  0  0
   37.9370   26.7200   35.0140 P   0  0  1  0  0  0  0  0  0  0  0  0
   36.9580   28.1230   34.9280 O   0  0  0  0  0  0  0  0  0  0  0  0
   36.1670   28.0380   35.5070 H   0  0  0  0  0  0  0  0  0  0  0  0
   38.1850   26.2190   33.4280 O   0  0  0  0  0  0  0  0  0  0  0  0
   36.3520   26.0330   31.8890 C   0  0  0  0  0  0  0  0  0  0  0  0
   37.3560   25.4180   32.6770 C   0  0  0  0  0  0  0  0  0  0  0  0
   37.4280   24.0260   32.6310 C   0  0  0  0  0  0  0  0  0  0  0  0
   36.5460   23.3410   31.8480 N   0  0  0  0  0  0  0  0  0  0  0  0
   35.6130   23.9730   31.1200 C   0  0  0  0  0  0  0  0  0  0  0  0
   35.5040   25.3350   31.1320 N   0  0  0  0  0  0  0  0  0  0  0  0
   36.2980   27.1080   31.9270 H   0  0  0  0  0  0  0  0  0  0  0  0
   38.1880   23.5390   33.2260 H   0  0  0  0  0  0  0  0  0  0  0  0
   34.8990   23.4740   30.4890 H   0  0  0  0  0  0  0  0  0  0  0  0
   37.2960   25.5780   36.0290 O   0  0  0  0  0  0  0  0  0  0  0  0
   38.1090   24.6420   36.6640 C   0  0  0  0  0  0  0  0  0  0  0  0
   38.0350   24.3480   38.0090 C   0  0  0  0  0  3  0  0  0  0  0  0
   38.8560   23.4150   38.6090 C   0  0  0  0  0  0  0  0  0  0  0  0
   38.7560   23.2160   39.6860 H   0  0  0  0  0  0  0  0  0  0  0  0
   39.7490   22.7840   37.8390 N   0  0  0  0  0  0  0  0  0  0  0  0
   39.8500   23.0510   36.5080 C   0  0  0  0  0  3  0  0  0  0  0  0
   39.0340   23.9750   35.9230 N   0  0  0  0  0  0  0  0  0  0  0  0
  2  1  2  1  0  0  0
  2 15  1  0  0  0  0
  3  2  1  0  0  0  0
  3  4  1  0  0  0  0
  5  2  1  0  0  0  0
  6 12  1  0  0  0  0
  6  7  1  0  0  0  0
  7  5  1  0  0  0  0
  8  7  2  0  0  0  0
  8 13  1  0  0  0  0
  9  8  1  0  0  0  0
 10 11  1  0  0  0  0
 10  9  2  0  0  0  0
 11  6  2  0  0  0  0
 14 10  1  0  0  0  0
 15 16  1  0  0  0  0
 16 17  1  0  0  0  0
 17 18  2  0  0  0  0
 18 19  1  0  0  0  0
 20 18  1  0  0  0  0
 21 20  2  0  0  0  0
 22 21  1  0  0  0  0
 22 16  2  0  0  0  0
M  END
>  <minimizedAffinity>
-4.41949272

$$$$

 OpenBabel03262522193D

 22 23  0  0  0  0  0  0  0  0999 V2000
   39.3960   27.1690   33.5380 O   0  0  0  0  0  0  0  0  0  0  0  0
   38.4930   26.6260   34.6490 P   0  0  1  0  0  0  0  0  0  0  0  0
   38.8580   27.5220   36.0630 O   0  0  0  0  0  0  0  0  0  0  0  0
   39.2240   26.9390   36.7660 H   0  0  0  0  0  0  0  0  0  0  0  0
   36.8980   26.9910   34.2580 O   0  0  0  0  0  0  0  0  0  0  0  0
   35.8860   29.1620   34.4030 C   0  0  0  0  0  0  0  0  0  0  0  0
   36.4440   28.1220   33.6210 C   0  0  0  0  0  0  0  0  0  0  0  0
   36.4920   28.3280   32.2420 C   0  0  0  0  0  0  0  0  0  0  0  0
   36.0070   29.4940   31.7280 N   0  0  0  0  0  0  0  0  0  0  0  0
   35.4880   30.4490   32.5150 C   0  0  0  0  0  0  0  0  0  0  0  0
   35.4200   30.2930   33.8700 N   0  0  0  0  0  0  0  0  0  0  0  0
   35.8500   29.0000   35.4680 H   0  0  0  0  0  0  0  0  0  0  0  0
   36.9150   27.5450   31.6280 H   0  0  0  0  0  0  0  0  0  0  0  0
   35.0950   31.3820   32.1530 H   0  0  0  0  0  0  0  0  0  0  0  0
   38.8300   25.0140   34.8320 O   0  0  0  0  0  0  0  0  0  0  0  0
   38.8650   24.4250   36.0930 C   0  0  0  0  0  0  0  0  0  0  0  0
   39.7710   23.4510   36.4600 C   0  0  0  0  0  3  0  0  0  0  0  0
   39.7790   22.8860   37.7200 C   0  0  0  0  0  0  0  0  0  0  0  0
   40.5240   22.1130   37.9620 H   0  0  0  0  0  0  0  0  0  0  0  0
   38.8690   23.3140   38.6010 N   0  0  0  0  0  0  0  0  0  0  0  0
   37.9610   24.2720   38.2710 C   0  0  0  0  0  3  0  0  0  0  0  0
   37.9590   24.8250   37.0250 N   0  0  0  0  0  0  0  0  0  0  0  0
  2  1  2  6  0  0  0
  2 15  1  0  0  0  0
  2  3  1  0  0  0  0
  3  4  1  0  0  0  0
  5  2  1  0  0  0  0
  6 12  1  0  0  0  0
  7  5  1  0  0  0  0
  7  6  2  0  0  0  0
  8  7  1  0  0  0  0
  9  8  2  0  0  0  0
  9 10  1  0  0  0  0
 10 11  2  0  0  0  0
 11  6  1  0  0  0  0
 13  8  1  0  0  0  0
 14 10  1  0  0  0  0
 15 16  1  0  0  0  0
 16 17  2  0  0  0  0
 16 22  1  0  0  0  0
 17 18  1  0  0  0  0
 18 19  1  0  0  0  0
 18 20  2  0  0  0  0
 21 20  1  0  0  0  0
 22 21  2  0  0  0  0
M  END
>  <minimizedAffinity>
-4.4056468

$$$$

 OpenBabel03262522193D

 22 23  0  0  0  0  0  0  0  0999 V2000
   36.6720   27.7090   34.8040 O   0  0  0  0  0  0  0  0  0  0  0  0
   37.9120   26.8430   35.0470 P   0  0  1  0  0  0  0  0  0  0  0  0
   38.8400   27.6360   36.2490 O   0  0  0  0  0  0  0  0  0  0  0  0
   39.7180   27.9070   35.8960 H   0  0  0  0  0  0  0  0  0  0  0  0
   37.4120   25.3850   35.7220 O   0  0  0  0  0  0  0  0  0  0  0  0
   39.1690   23.7550   35.8520 C   0  0  0  0  0  0  0  0  0  0  0  0
   38.1680   24.5290   36.4880 C   0  0  0  0  0  0  0  0  0  0  0  0
   38.0230   24.3620   37.8650 C   0  0  0  0  0  0  0  0  0  0  0  0
   38.8340   23.4790   38.5150 N   0  0  0  0  0  0  0  0  0  0  0  0
   39.7680   22.7700   37.8640 C   0  0  0  0  0  0  0  0  0  0  0  0
   39.9470   22.9000   36.5160 N   0  0  0  0  0  0  0  0  0  0  0  0
   39.2790   23.8860   34.7880 H   0  0  0  0  0  0  0  0  0  0  0  0
   37.2640   24.9450   38.3680 H   0  0  0  0  0  0  0  0  0  0  0  0
   40.4280   22.0640   38.3360 H   0  0  0  0  0  0  0  0  0  0  0  0
   38.7320   26.7180   33.6120 O   0  0  0  0  0  0  0  0  0  0  0  0
   40.1170   26.8440   33.5620 C   0  0  0  0  0  0  0  0  0  0  0  0
   40.7960   27.4530   32.5260 C   0  0  0  0  0  3  0  0  0  0  0  0
   42.1720   27.5610   32.5060 C   0  0  0  0  0  0  0  0  0  0  0  0
   42.6640   28.0570   31.6560 H   0  0  0  0  0  0  0  0  0  0  0  0
   42.8520   27.0520   33.5380 N   0  0  0  0  0  0  0  0  0  0  0  0
   42.2140   26.4440   34.5750 C   0  0  0  0  0  3  0  0  0  0  0  0
   40.8550   26.3410   34.5880 N   0  0  0  0  0  0  0  0  0  0  0  0
  2  1  2  6  0  0  0
  2  5  1  0  0  0  0
  2  3  1  0  0  0  0
  4  3  1  0  0  0  0
  5  7  1  0  0  0  0
  6  7  2  0  0  0  0
  6 11  1  0  0  0  0
  7  8  1  0  0  0  0
  8 13  1  0  0  0  0
  8  9  2  0  0  0  0
 10 14  1  0  0  0  0
 10  9  1  0  0  0  0
 11 10  2  0  0  0  0
 12  6  1  0  0  0  0
 15  2  1  0  0  0  0
 16 15  1  0  0  0  0
 16 22  1  0  0  0  0
 17 16  2  0  0  0  0
 18 17  1  0  0  0  0
 18 20  2  0  0  0  0
 19 18  1  0  0  0  0
 20 21  1  0  0  0  0
 21 22  2  0  0  0  0
M  END
>  <minimizedAffinity>
-4.24806976

$$$$

 OpenBabel03262522193D

 22 23  0  0  0  0  0  0  0  0999 V2000
   40.8330   26.7150   34.9550 O   0  0  0  0  0  0  0  0  0  0  0  0
   39.3070   26.6790   34.8220 P   0  0  1  0  0  0  0  0  0  0  0  0
   38.6800   27.6780   36.0630 O   0  0  0  0  0  0  0  0  0  0  0  0
   38.1340   27.1570   36.6940 H   0  0  0  0  0  0  0  0  0  0  0  0
   38.8890   27.4130   33.3670 O   0  0  0  0  0  0  0  0  0  0  0  0
   38.2630   25.8570   31.6500 C   0  0  0  0  0  0  0  0  0  0  0  0
   39.0920   26.9130   32.1030 C   0  0  0  0  0  0  0  0  0  0  0  0
   40.0670   27.3720   31.2170 C   0  0  0  0  0  0  0  0  0  0  0  0
   40.1710   26.7920   29.9870 N   0  0  0  0  0  0  0  0  0  0  0  0
   39.3590   25.7930   29.6070 C   0  0  0  0  0  0  0  0  0  0  0  0
   38.3900   25.3110   30.4400 N   0  0  0  0  0  0  0  0  0  0  0  0
   37.5110   25.5050   32.3360 H   0  0  0  0  0  0  0  0  0  0  0  0
   40.7090   28.1770   31.5440 H   0  0  0  0  0  0  0  0  0  0  0  0
   39.4060   25.3080   28.6490 H   0  0  0  0  0  0  0  0  0  0  0  0
   38.8220   25.1030   34.9880 O   0  0  0  0  0  0  0  0  0  0  0  0
   38.8630   24.4650   36.2250 C   0  0  0  0  0  0  0  0  0  0  0  0
   39.7170   23.4230   36.5230 C   0  0  0  0  0  3  0  0  0  0  0  0
   39.7330   22.8110   37.7610 C   0  0  0  0  0  0  0  0  0  0  0  0
   40.4350   21.9850   37.9470 H   0  0  0  0  0  0  0  0  0  0  0  0
   38.8820   23.2600   38.6890 N   0  0  0  0  0  0  0  0  0  0  0  0
   38.0250   24.2840   38.4270 C   0  0  0  0  0  3  0  0  0  0  0  0
   38.0160   24.8840   37.2030 N   0  0  0  0  0  0  0  0  0  0  0  0
  2  1  2  1  0  0  0
  2 15  1  0  0  0  0
  2  3  1  0  0  0  0
  3  4  1  0  0  0  0
  5  2  1  0  0  0  0
  6  7  1  0  0  0  0
  6 12  1  0  0  0  0
  7  5  1  0  0  0  0
  8 13  1  0  0  0  0
  8  7  2  0  0  0  0
  9  8  1  0  0  0  0
 10  9  2  0  0  0  0
 10 11  1  0  0  0  0
 11  6  2  0  0  0  0
 14 10  1  0  0  0  0
 15 16  1  0  0  0  0
 16 17  2  0  0  0  0
 16 22  1  0  0  0  0
 17 18  1  0  0  0  0
 18 19  1  0  0  0  0
 18 20  2  0  0  0  0
 21 20  1  0  0  0  0
 22 21  2  0  0  0  0
M  END
>  <minimizedAffinity>
-4.1727705

$$$$

 OpenBabel03262522193D

 22 23  0  0  0  0  0  0  0  0999 V2000
   36.3910   25.7360   31.9630 O   0  0  0  0  0  0  0  0  0  0  0  0
   36.8760   24.3070   31.7000 P   0  0  1  0  0  0  0  0  0  0  0  0
   37.5190   24.2880   30.1130 O   0  0  0  0  0  0  0  0  0  0  0  0
   37.0050   23.6830   29.5300 H   0  0  0  0  0  0  0  0  0  0  0  0
   38.1630   23.9890   32.7350 O   0  0  0  0  0  0  0  0  0  0  0  0
   38.1320   24.7080   35.0250 C   0  0  0  0  0  0  0  0  0  0  0  0
   38.0860   23.6640   34.0690 C   0  0  0  0  0  0  0  0  0  0  0  0
   37.9660   22.3650   34.5630 C   0  0  0  0  0  0  0  0  0  0  0  0
   37.9000   22.1700   35.9110 N   0  0  0  0  0  0  0  0  0  0  0  0
   37.9480   23.1970   36.7740 C   0  0  0  0  0  0  0  0  0  0  0  0
   38.0650   24.4850   36.3380 N   0  0  0  0  0  0  0  0  0  0  0  0
   38.2250   25.7110   34.6410 H   0  0  0  0  0  0  0  0  0  0  0  0
   37.9290   21.5540   33.8480 H   0  0  0  0  0  0  0  0  0  0  0  0
   37.8990   23.0890   37.8430 H   0  0  0  0  0  0  0  0  0  0  0  0
   35.5720   23.2950   31.8540 O   0  0  0  0  0  0  0  0  0  0  0  0
   35.6980   21.9240   31.6460 C   0  0  0  0  0  0  0  0  0  0  0  0
   34.8450   20.9840   32.1870 C   0  0  0  0  0  3  0  0  0  0  0  0
   34.9980   19.6300   31.9610 C   0  0  0  0  0  0  0  0  0  0  0  0
   34.2890   18.9220   32.4160 H   0  0  0  0  0  0  0  0  0  0  0  0
   36.0140   19.2380   31.1870 N   0  0  0  0  0  0  0  0  0  0  0  0
   36.8750   20.1390   30.6380 C   0  0  0  0  0  3  0  0  0  0  0  0
   36.7170   21.4740   30.8660 N   0  0  0  0  0  0  0  0  0  0  0  0
  2 15  1  0  0  0  0
  2  1  2  1  0  0  0
  2  5  1  0  0  0  0
  3  2  1  0  0  0  0
  4  3  1  0  0  0  0
  5  7  1  0  0  0  0
  6 11  1  0  0  0  0
  7  8  1  0  0  0  0
  7  6  2  0  0  0  0
  8  9  2  0  0  0  0
  9 10  1  0  0  0  0
 10 14  1  0  0  0  0
 11 10  2  0  0  0  0
 12  6  1  0  0  0  0
 13  8  1  0  0  0  0
 16 15  1  0  0  0  0
 16 17  1  0  0  0  0
 18 17  2  0  0  0  0
 18 19  1  0  0  0  0
 20 18  1  0  0  0  0
 21 22  1  0  0  0  0
 21 20  2  0  0  0  0
 22 16  2  0  0  0  0
M  END
>  <minimizedAffinity>
-4.15041733

$$$$

 OpenBabel03262522193D

 22 23  0  0  0  0  0  0  0  0999 V2000
   38.5210   27.3160   36.3820 O   0  0  0  0  0  0  0  0  0  0  0  0
   38.0710   26.7300   35.0390 P   0  0  1  0  0  0  0  0  0  0  0  0
   39.3460   27.0080   33.9290 O   0  0  0  0  0  0  0  0  0  0  0  0
   39.0540   27.5980   33.1970 H   0  0  0  0  0  0  0  0  0  0  0  0
   37.9470   25.0610   35.2080 O   0  0  0  0  0  0  0  0  0  0  0  0
   39.8990   23.7310   35.6340 C   0  0  0  0  0  0  0  0  0  0  0  0
   38.6620   24.2640   36.0710 C   0  0  0  0  0  0  0  0  0  0  0  0
   38.2570   23.9360   37.3650 C   0  0  0  0  0  0  0  0  0  0  0  0
   39.0550   23.1340   38.1270 N   0  0  0  0  0  0  0  0  0  0  0  0
   40.2190   22.6550   37.6640 C   0  0  0  0  0  0  0  0  0  0  0  0
   40.6570   22.9490   36.4040 N   0  0  0  0  0  0  0  0  0  0  0  0
   40.2090   23.9850   34.6350 H   0  0  0  0  0  0  0  0  0  0  0  0
   37.3160   24.3350   37.7170 H   0  0  0  0  0  0  0  0  0  0  0  0
   40.8780   22.0200   38.2290 H   0  0  0  0  0  0  0  0  0  0  0  0
   36.6770   27.5050   34.5910 O   0  0  0  0  0  0  0  0  0  0  0  0
   36.5000   27.9720   33.2910 C   0  0  0  0  0  0  0  0  0  0  0  0
   35.9880   29.2160   32.9850 C   0  0  0  0  0  3  0  0  0  0  0  0
   35.8250   29.6490   31.6850 C   0  0  0  0  0  0  0  0  0  0  0  0
   35.4130   30.6510   31.4950 H   0  0  0  0  0  0  0  0  0  0  0  0
   36.1820   28.8170   30.7010 N   0  0  0  0  0  0  0  0  0  0  0  0
   36.6890   27.5830   30.9670 C   0  0  0  0  0  3  0  0  0  0  0  0
   36.8480   27.1620   32.2550 N   0  0  0  0  0  0  0  0  0  0  0  0
  2  5  1  0  0  0  0
  2  1  2  1  0  0  0
  3  2  1  0  0  0  0
  4  3  1  0  0  0  0
  5  7  1  0  0  0  0
  6  7  2  0  0  0  0
  6 11  1  0  0  0  0
  7  8  1  0  0  0  0
  8 13  1  0  0  0  0
  8  9  2  0  0  0  0
 10  9  1  0  0  0  0
 10 14  1  0  0  0  0
 11 10  2  0  0  0  0
 12  6  1  0  0  0  0
 15  2  1  0  0  0  0
 16 15  1  0  0  0  0
 17 16  1  0  0  0  0
 18 17  2  0  0  0  0
 19 18  1  0  0  0  0
 20 21  2  0  0  0  0
 20 18  1  0  0  0  0
 21 22  1  0  0  0  0
 22 16  2  0  0  0  0
M  END
>  <minimizedAffinity>
-4.14781332

$$$$

 OpenBabel03262522193D

 22 23  0  0  0  0  0  0  0  0999 V2000
   39.9580   22.7990   33.2010 O   0  0  0  0  0  0  0  0  0  0  0  0
   39.2920   24.1200   33.5990 P   0  0  1  0  0  0  0  0  0  0  0  0
   40.5170   25.1050   34.2790 O   0  0  0  0  0  0  0  0  0  0  0  0
   40.3260   25.3060   35.2230 H   0  0  0  0  0  0  0  0  0  0  0  0
   38.7850   24.8970   32.1960 O   0  0  0  0  0  0  0  0  0  0  0  0
   36.7010   23.9320   31.4980 C   0  0  0  0  0  0  0  0  0  0  0  0
   37.4880   25.0760   31.7760 C   0  0  0  0  0  0  0  0  0  0  0  0
   36.8770   26.3180   31.5990 C   0  0  0  0  0  0  0  0  0  0  0  0
   35.5810   26.3660   31.1760 N   0  0  0  0  0  0  0  0  0  0  0  0
   34.8800   25.2490   30.9270 C   0  0  0  0  0  0  0  0  0  0  0  0
   35.4350   24.0120   31.0860 N   0  0  0  0  0  0  0  0  0  0  0  0
   37.1750   22.9740   31.6350 H   0  0  0  0  0  0  0  0  0  0  0  0
   37.4620   27.2030   31.8060 H   0  0  0  0  0  0  0  0  0  0  0  0
   33.8580   25.2410   30.5920 H   0  0  0  0  0  0  0  0  0  0  0  0
   38.0960   23.7740   34.6920 O   0  0  0  0  0  0  0  0  0  0  0  0
   38.3750   23.6600   36.0510 C   0  0  0  0  0  0  0  0  0  0  0  0
   37.5870   24.2050   37.0450 C   0  0  0  0  0  3  0  0  0  0  0  0
   37.8920   24.0740   38.3850 C   0  0  0  0  0  0  0  0  0  0  0  0
   37.2300   24.5280   39.1370 H   0  0  0  0  0  0  0  0  0  0  0  0
   38.9940   23.3910   38.7100 N   0  0  0  0  0  0  0  0  0  0  0  0
   39.7940   22.8420   37.7550 C   0  0  0  0  0  3  0  0  0  0  0  0
   39.4860   22.9750   36.4330 N   0  0  0  0  0  0  0  0  0  0  0  0
  2  1  2  6  0  0  0
  2  3  1  0  0  0  0
  2 15  1  0  0  0  0
  3  4  1  0  0  0  0
  5  2  1  0  0  0  0
  6 12  1  0  0  0  0
  6  7  1  0  0  0  0
  7  5  1  0  0  0  0
  8  7  2  0  0  0  0
  8 13  1  0  0  0  0
  9  8  1  0  0  0  0
 10 11  1  0  0  0  0
 10  9  2  0  0  0  0
 11  6  2  0  0  0  0
 14 10  1  0  0  0  0
 15 16  1  0  0  0  0
 16 22  2  0  0  0  0
 16 17  1  0  0  0  0
 17 18  2  0  0  0  0
 18 20  1  0  0  0  0
 18 19  1  0  0  0  0
 21 20  2  0  0  0  0
 22 21  1  0  0  0  0
M  END
>  <minimizedAffinity>
-4.12596846

$$$$
