REMARK  Name = 
REMARK  5 active torsions:
REMARK  status: ('A' for Active; 'I' for Inactive)
REMARK    1  A    between atoms: C_3  and  O_7
REMARK    2  A    between atoms: O_7  and  P_9
REMARK    3  A    between atoms: P_9  and  O_10
REMARK    4  A    between atoms: P_9  and  O_11
REMARK    5  A    between atoms: O_11  and  C_16
REMARK                            x       y       z     vdW  Elec       q    Type
REMARK                         _______ _______ _______ _____ _____    ______ ____
ROOT
ATOM      1  O   UNL     1      39.057  32.735  48.149  0.00  0.00    +0.000 OA
ATOM      2  P   UNL     1      38.701  31.710  47.107  0.00  0.00    +0.000 P 
ENDROOT
BRANCH   2   3
ATOM      3  O   UNL     1      37.828  32.462  45.852  0.00  0.00    +0.000 OA
ATOM      4  H   UNL     1      37.796  33.440  46.000  0.00  0.00    +0.000 HD
ENDBRANCH   2   3
BRANCH   2   5
ATOM      5  O   UNL     1      37.865  30.371  47.693  0.00  0.00    +0.000 OA
BRANCH   5   8
ATOM      6  C   UNL     1      37.337  30.158  51.343  0.00  0.00    +0.000 A 
ATOM      7  C   UNL     1      37.997  30.510  50.173  0.00  0.00    +0.000 A 
ATOM      8  C   UNL     1      37.423  30.148  48.964  0.00  0.00    +0.000 A 
ATOM      9  N   UNL     1      36.244  29.465  48.990  0.00  0.00    +0.000 NA
ATOM     10  C   UNL     1      35.634  29.142  50.158  0.00  0.00    +0.000 A 
ATOM     11  N   UNL     1      36.184  29.489  51.327  0.00  0.00    +0.000 NA
ATOM     12  H   UNL     1      37.860  30.483  52.230  0.00  0.00    +0.000 HD
ATOM     13  H   UNL     1      38.921  31.042  50.067  0.00  0.00    +0.000 HD
ATOM     14  H   UNL     1      34.690  28.595  50.173  0.00  0.00    +0.000 HD
ENDBRANCH   5   8
ENDBRANCH   2   5
BRANCH   2  15
ATOM     15  O   UNL     1      40.150  31.181  46.398  0.00  0.00    +0.000 OA
BRANCH  15  16
ATOM     16  C   UNL     1      40.318  30.033  45.663  0.00  0.00    +0.000 A 
ATOM     17  C   UNL     1      40.119  28.726  46.035  0.00  0.00    +0.000 A 
ATOM     18  C   UNL     1      40.343  27.688  45.148  0.00  0.00    +0.000 A 
ATOM     19  H   UNL     1      40.169  26.667  45.494  0.00  0.00    +0.000 HD
ATOM     20  N   UNL     1      40.767  27.959  43.888  0.00  0.00    +0.000 NA
ATOM     21  C   UNL     1      40.955  29.240  43.548  0.00  0.00    +0.000 A 
ATOM     22  N   UNL     1      40.742  30.277  44.399  0.00  0.00    +0.000 NA
ENDBRANCH  15  16
ENDBRANCH   2  15
TORSDOF 5
