
 OpenBabel03272507293D

 39 41  0  0  1  0  0  0  0  0999 V2000
   42.3740   22.0220   36.4150 C   0  0  0  0  0  0  0  0  0  0  0  0
   42.1330   23.1530   35.6050 C   0  0  0  0  0  0  0  0  0  0  0  0
   40.9170   23.8120   35.7890 C   0  0  0  0  0  0  0  0  0  0  0  0
   40.0520   23.3500   36.7070 N   0  0  0  0  0  0  0  0  0  0  0  0
   40.3170   22.2670   37.4620 C   0  0  0  0  0  0  0  0  0  0  0  0
   41.4650   21.6130   37.3150 N   0  0  0  0  0  0  0  0  0  0  0  0
   40.6010   24.9340   35.0270 N   0  0  0  0  0  0  0  0  0  0  0  0
   41.5730   25.9340   34.5080 C   0  0  0  0  0  0  0  0  0  0  0  0
   40.8050   27.0840   33.9880 C   0  0  0  0  0  0  0  0  0  0  0  0
   39.4850   26.9210   34.5860 C   0  0  0  0  0  0  0  0  0  0  0  0
   39.3500   25.4450   34.5680 C   0  0  2  0  0  0  0  0  0  0  0  0
   43.3530   21.5860   36.1860 H   0  0  0  0  0  0  0  0  0  0  0  0
   42.7910   23.5500   34.8670 H   0  0  0  0  0  0  0  0  0  0  0  0
   39.6740   21.8440   38.2130 H   0  0  0  0  0  0  0  0  0  0  0  0
   42.4210   25.5570   33.9930 H   0  0  0  0  0  0  0  0  0  0  0  0
   42.0410   26.2490   35.5280 H   0  0  0  0  0  0  0  0  0  0  0  0
   41.2310   27.9890   34.6250 H   0  0  0  0  0  0  0  0  0  0  0  0
   40.9750   27.4980   33.0270 H   0  0  0  0  0  0  0  0  0  0  0  0
   39.4020   27.2980   35.6260 H   0  0  0  0  0  0  0  0  0  0  0  0
   38.6380   27.3610   34.0170 H   0  0  0  0  0  0  0  0  0  0  0  0
   38.1440   25.0250   35.4130 C   0  0  0  0  0  0  0  0  0  0  0  0
   38.4420   25.2610   36.7370 F   0  0  0  0  0  0  0  0  0  0  0  0
   37.7950   23.7100   35.3210 F   0  0  0  0  0  0  0  0  0  0  0  0
   37.1150   25.8770   35.0810 F   0  0  0  0  0  0  0  0  0  0  0  0
   39.1170   24.9200   33.2550 C   0  0  2  0  0  0  0  0  0  0  0  0
   39.7800   25.3270   32.5250 H   0  0  0  0  0  0  0  0  0  0  0  0
   37.7890   25.3360   32.4970 C   0  0  0  0  0  0  0  0  0  0  0  0
   36.7770   24.4480   32.1550 C   0  0  0  0  0  3  0  0  0  0  0  0
   35.7010   24.9060   31.4350 C   0  0  0  0  0  0  0  0  0  0  0  0
   34.9770   24.1290   31.2250 H   0  0  0  0  0  0  0  0  0  0  0  0
   35.6090   26.1850   31.0600 N   0  0  0  0  0  0  0  0  0  0  0  0
   36.5660   27.0650   31.3740 C   0  0  0  0  0  3  0  0  0  0  0  0
   37.5870   26.5990   32.0650 N   0  0  0  0  0  0  0  0  0  0  0  0
   38.9320   23.6810   33.3540 O   0  0  0  0  0  0  0  0  0  0  0  0
   39.3390   22.5340   32.7870 C   0  0  0  0  0  0  0  0  0  0  0  0
   39.3400   21.5960   33.5870 O   0  0  0  0  0  0  0  0  0  0  0  0
   39.7930   21.8460   31.6300 N   0  0  0  0  0  0  0  0  0  0  0  0
   40.7680   21.8170   31.2490 H   0  0  0  0  0  0  0  0  0  0  0  0
   39.1500   21.2660   31.0120 H   0  0  0  0  0  0  0  0  0  0  0  0
  1  6  1  0  0  0  0
  2  3  1  0  0  0  0
  2  1  2  0  0  0  0
  3  4  2  0  0  0  0
  4  5  1  0  0  0  0
  5 14  1  0  0  0  0
  6  5  2  0  0  0  0
  7  3  1  0  0  0  0
  8  7  1  0  0  0  0
  8 16  1  0  0  0  0
  9  8  1  0  0  0  0
  9 10  1  0  0  0  0
  9 17  1  0  0  0  0
 10 19  1  0  0  0  0
 11 10  1  0  0  0  0
 11  7  1  0  0  0  0
 11 21  1  1  0  0  0
 12  1  1  0  0  0  0
 13  2  1  0  0  0  0
 15  8  1  0  0  0  0
 18  9  1  0  0  0  0
 20 10  1  0  0  0  0
 21 22  1  0  0  0  0
 23 21  1  0  0  0  0
 24 21  1  0  0  0  0
 25 26  1  6  0  0  0
 25 34  1  0  0  0  0
 25 11  1  0  0  0  0
 27 25  1  0  0  0  0
 28 27  1  0  0  0  0
 29 28  2  0  0  0  0
 30 29  1  0  0  0  0
 31 32  2  0  0  0  0
 31 29  1  0  0  0  0
 32 33  1  0  0  0  0
 33 27  2  0  0  0  0
 35 34  1  0  0  0  0
 35 36  2  0  0  0  0
 37 35  1  0  0  0  0
 38 37  1  0  0  0  0
 39 37  1  0  0  0  0
M  END
>  <minimizedAffinity>
-5.14175272

$$$$

 OpenBabel03272507293D

 39 41  0  0  1  0  0  0  0  0999 V2000
   37.7310   27.3270   32.4780 C   0  0  0  0  0  0  0  0  0  0  0  0
   38.2000   26.0330   32.7910 C   0  0  0  0  0  0  0  0  0  0  0  0
   37.8600   25.5260   34.0460 C   0  0  0  0  0  0  0  0  0  0  0  0
   37.1200   26.2760   34.8790 N   0  0  0  0  0  0  0  0  0  0  0  0
   36.6900   27.5080   34.5450 C   0  0  0  0  0  0  0  0  0  0  0  0
   36.9940   28.0240   33.3580 N   0  0  0  0  0  0  0  0  0  0  0  0
   38.2880   24.2580   34.4330 N   0  0  0  0  0  0  0  0  0  0  0  0
   38.4940   23.0960   33.5260 C   0  0  0  0  0  0  0  0  0  0  0  0
   38.6870   21.8960   34.3650 C   0  0  0  0  0  0  0  0  0  0  0  0
   38.1790   22.2980   35.6720 C   0  0  0  0  0  0  0  0  0  0  0  0
   38.6070   23.7160   35.7140 C   0  0  2  0  0  0  0  0  0  0  0  0
   38.0560   27.6220   31.4740 H   0  0  0  0  0  0  0  0  0  0  0  0
   38.7890   25.4070   32.1600 H   0  0  0  0  0  0  0  0  0  0  0  0
   36.0960   28.1600   35.1590 H   0  0  0  0  0  0  0  0  0  0  0  0
   39.0790   23.2630   32.6570 H   0  0  0  0  0  0  0  0  0  0  0  0
   37.4190   23.0480   33.0770 H   0  0  0  0  0  0  0  0  0  0  0  0
   37.8180   21.1790   33.9960 H   0  0  0  0  0  0  0  0  0  0  0  0
   39.4930   21.2220   34.2230 H   0  0  0  0  0  0  0  0  0  0  0  0
   37.0770   22.2300   35.7770 H   0  0  0  0  0  0  0  0  0  0  0  0
   38.6170   21.7700   36.5460 H   0  0  0  0  0  0  0  0  0  0  0  0
   37.9300   24.4270   36.8900 C   0  0  0  0  0  0  0  0  0  0  0  0
   38.2390   23.7400   38.0440 F   0  0  0  0  0  0  0  0  0  0  0  0
   36.5700   24.4930   36.8290 F   0  0  0  0  0  0  0  0  0  0  0  0
   38.5240   25.6650   36.9960 F   0  0  0  0  0  0  0  0  0  0  0  0
   40.0170   23.8700   35.9160 C   0  0  2  0  0  0  0  0  0  0  0  0
   40.2490   24.5600   36.6950 H   0  0  0  0  0  0  0  0  0  0  0  0
   40.8660   24.6120   34.8030 C   0  0  0  0  0  0  0  0  0  0  0  0
   41.5300   23.9650   33.7690 C   0  0  0  0  0  3  0  0  0  0  0  0
   42.2960   24.7030   32.9010 C   0  0  0  0  0  0  0  0  0  0  0  0
   42.7670   24.0970   32.1380 H   0  0  0  0  0  0  0  0  0  0  0  0
   42.4130   26.0280   33.0300 N   0  0  0  0  0  0  0  0  0  0  0  0
   41.7850   26.6820   34.0140 C   0  0  0  0  0  3  0  0  0  0  0  0
   41.0570   25.9480   34.8330 N   0  0  0  0  0  0  0  0  0  0  0  0
   40.5470   22.7310   35.8700 O   0  0  0  0  0  0  0  0  0  0  0  0
   41.1500   21.8450   36.6800 C   0  0  0  0  0  0  0  0  0  0  0  0
   42.1730   21.3790   36.1770 O   0  0  0  0  0  0  0  0  0  0  0  0
   41.1700   21.1540   37.9200 N   0  0  0  0  0  0  0  0  0  0  0  0
   40.6320   20.2920   38.1770 H   0  0  0  0  0  0  0  0  0  0  0  0
   41.7640   21.4630   38.7460 H   0  0  0  0  0  0  0  0  0  0  0  0
  1  2  2  0  0  0  0
  1  6  1  0  0  0  0
  2  3  1  0  0  0  0
  3  7  1  0  0  0  0
  3  4  2  0  0  0  0
  5  4  1  0  0  0  0
  5 14  1  0  0  0  0
  6  5  2  0  0  0  0
  7 11  1  0  0  0  0
  8  9  1  0  0  0  0
  8  7  1  0  0  0  0
  9 10  1  0  0  0  0
 10 11  1  0  0  0  0
 10 19  1  0  0  0  0
 10 20  1  0  0  0  0
 11 25  1  0  0  0  0
 11 21  1  1  0  0  0
 12  1  1  0  0  0  0
 13  2  1  0  0  0  0
 15  8  1  0  0  0  0
 16  8  1  0  0  0  0
 17  9  1  0  0  0  0
 18  9  1  0  0  0  0
 21 24  1  0  0  0  0
 21 22  1  0  0  0  0
 23 21  1  0  0  0  0
 25 26  1  1  0  0  0
 27 33  1  0  0  0  0
 27 25  1  0  0  0  0
 28 27  2  0  0  0  0
 29 31  2  0  0  0  0
 29 28  1  0  0  0  0
 30 29  1  0  0  0  0
 31 32  1  0  0  0  0
 32 33  2  0  0  0  0
 34 25  1  0  0  0  0
 34 35  1  0  0  0  0
 35 37  1  0  0  0  0
 36 35  2  0  0  0  0
 37 38  1  0  0  0  0
 37 39  1  0  0  0  0
M  END
>  <minimizedAffinity>
-5.05588436

$$$$

 OpenBabel03272507293D

 39 41  0  0  1  0  0  0  0  0999 V2000
   37.3690   28.2940   29.4290 C   0  0  0  0  0  0  0  0  0  0  0  0
   37.0320   28.0820   30.7830 C   0  0  0  0  0  0  0  0  0  0  0  0
   38.0780   27.7520   31.6480 C   0  0  0  0  0  0  0  0  0  0  0  0
   39.3260   27.6550   31.1610 N   0  0  0  0  0  0  0  0  0  0  0  0
   39.6090   27.8650   29.8620 C   0  0  0  0  0  0  0  0  0  0  0  0
   38.6390   28.1800   29.0090 N   0  0  0  0  0  0  0  0  0  0  0  0
   37.8300   27.5230   32.9990 N   0  0  0  0  0  0  0  0  0  0  0  0
   36.7730   28.1830   33.8120 C   0  0  0  0  0  0  0  0  0  0  0  0
   37.0240   27.8580   35.2310 C   0  0  0  0  0  0  0  0  0  0  0  0
   38.4070   27.3960   35.2440 C   0  0  0  0  0  0  0  0  0  0  0  0
   38.4740   26.6760   33.9500 C   0  0  2  0  0  0  0  0  0  0  0  0
   36.4760   28.5450   28.8460 H   0  0  0  0  0  0  0  0  0  0  0  0
   36.0580   28.1480   31.2080 H   0  0  0  0  0  0  0  0  0  0  0  0
   40.5800   27.8050   29.4060 H   0  0  0  0  0  0  0  0  0  0  0  0
   35.7900   28.1870   33.4120 H   0  0  0  0  0  0  0  0  0  0  0  0
   37.1000   29.2890   33.6370 H   0  0  0  0  0  0  0  0  0  0  0  0
   37.1390   28.9290   35.7260 H   0  0  0  0  0  0  0  0  0  0  0  0
   36.2680   27.4870   35.8750 H   0  0  0  0  0  0  0  0  0  0  0  0
   39.1620   28.2090   35.2660 H   0  0  0  0  0  0  0  0  0  0  0  0
   38.6740   26.6880   36.0570 H   0  0  0  0  0  0  0  0  0  0  0  0
   39.9310   26.3410   33.6170 C   0  0  0  0  0  0  0  0  0  0  0  0
   40.5840   27.5160   33.3130 F   0  0  0  0  0  0  0  0  0  0  0  0
   40.1110   25.5090   32.5530 F   0  0  0  0  0  0  0  0  0  0  0  0
   40.4980   25.8610   34.7760 F   0  0  0  0  0  0  0  0  0  0  0  0
   37.7740   25.4260   33.9690 C   0  0  2  0  0  0  0  0  0  0  0  0
   36.7870   25.5120   34.3650 H   0  0  0  0  0  0  0  0  0  0  0  0
   38.2460   24.3080   34.9870 C   0  0  0  0  0  0  0  0  0  0  0  0
   38.0560   24.3770   36.3620 C   0  0  0  0  0  3  0  0  0  0  0  0
   38.5700   23.3830   37.1580 C   0  0  0  0  0  0  0  0  0  0  0  0
   38.3630   23.5390   38.2090 H   0  0  0  0  0  0  0  0  0  0  0  0
   39.2470   22.3550   36.6370 N   0  0  0  0  0  0  0  0  0  0  0  0
   39.4470   22.2600   35.3180 C   0  0  0  0  0  3  0  0  0  0  0  0
   38.9430   23.2270   34.5780 N   0  0  0  0  0  0  0  0  0  0  0  0
   37.9930   24.8360   32.8800 O   0  0  0  0  0  0  0  0  0  0  0  0
   37.3280   24.3850   31.8050 C   0  0  0  0  0  0  0  0  0  0  0  0
   36.6230   23.4100   32.0710 O   0  0  0  0  0  0  0  0  0  0  0  0
   37.0310   24.5100   30.4220 N   0  0  0  0  0  0  0  0  0  0  0  0
   37.6000   24.1620   29.6140 H   0  0  0  0  0  0  0  0  0  0  0  0
   36.1550   24.9940   30.0590 H   0  0  0  0  0  0  0  0  0  0  0  0
  1  2  1  0  0  0  0
  2 13  1  0  0  0  0
  2  3  2  0  0  0  0
  3  7  1  0  0  0  0
  4  3  1  0  0  0  0
  5  4  2  0  0  0  0
  6  1  2  0  0  0  0
  6  5  1  0  0  0  0
  7  8  1  0  0  0  0
  7 11  1  0  0  0  0
  8  9  1  0  0  0  0
  9 10  1  0  0  0  0
  9 17  1  0  0  0  0
  9 18  1  0  0  0  0
 10 19  1  0  0  0  0
 10 20  1  0  0  0  0
 11 21  1  6  0  0  0
 11 25  1  0  0  0  0
 11 10  1  0  0  0  0
 12  1  1  0  0  0  0
 14  5  1  0  0  0  0
 15  8  1  0  0  0  0
 16  8  1  0  0  0  0
 21 24  1  0  0  0  0
 22 21  1  0  0  0  0
 23 21  1  0  0  0  0
 25 26  1  1  0  0  0
 25 27  1  0  0  0  0
 27 28  1  0  0  0  0
 28 29  2  0  0  0  0
 29 30  1  0  0  0  0
 31 29  1  0  0  0  0
 32 31  2  0  0  0  0
 33 27  2  0  0  0  0
 33 32  1  0  0  0  0
 34 25  1  0  0  0  0
 35 36  2  0  0  0  0
 35 34  1  0  0  0  0
 37 35  1  0  0  0  0
 38 37  1  0  0  0  0
 39 37  1  0  0  0  0
M  END
>  <minimizedAffinity>
-5.05360079

$$$$

 OpenBabel03272507293D

 39 41  0  0  1  0  0  0  0  0999 V2000
   41.2040   22.5410   37.2430 C   0  0  0  0  0  0  0  0  0  0  0  0
   40.0350   22.5250   36.4520 C   0  0  0  0  0  0  0  0  0  0  0  0
   40.1570   22.9770   35.1380 C   0  0  0  0  0  0  0  0  0  0  0  0
   41.3540   23.3970   34.6960 N   0  0  0  0  0  0  0  0  0  0  0  0
   42.4490   23.3980   35.4800 C   0  0  0  0  0  0  0  0  0  0  0  0
   42.3710   22.9740   36.7380 N   0  0  0  0  0  0  0  0  0  0  0  0
   39.0490   22.9970   34.2930 N   0  0  0  0  0  0  0  0  0  0  0  0
   37.9130   22.0370   34.3280 C   0  0  0  0  0  0  0  0  0  0  0  0
   37.1010   22.2510   33.1130 C   0  0  0  0  0  0  0  0  0  0  0  0
   37.9880   22.9990   32.2290 C   0  0  0  0  0  0  0  0  0  0  0  0
   38.7020   23.8540   33.2060 C   0  0  2  0  0  0  0  0  0  0  0  0
   40.9920   22.1670   38.2510 H   0  0  0  0  0  0  0  0  0  0  0  0
   39.0680   22.2010   36.7640 H   0  0  0  0  0  0  0  0  0  0  0  0
   43.4340   23.7180   35.1940 H   0  0  0  0  0  0  0  0  0  0  0  0
   37.4590   21.8630   35.2720 H   0  0  0  0  0  0  0  0  0  0  0  0
   38.5250   21.0550   34.1800 H   0  0  0  0  0  0  0  0  0  0  0  0
   37.1180   21.1830   32.5980 H   0  0  0  0  0  0  0  0  0  0  0  0
   36.0490   22.3760   33.1420 H   0  0  0  0  0  0  0  0  0  0  0  0
   38.7140   22.3730   31.6700 H   0  0  0  0  0  0  0  0  0  0  0  0
   37.4890   23.6540   31.4830 H   0  0  0  0  0  0  0  0  0  0  0  0
   39.8950   24.5330   32.5270 C   0  0  0  0  0  0  0  0  0  0  0  0
   40.8320   23.5650   32.2340 F   0  0  0  0  0  0  0  0  0  0  0  0
   40.5330   25.4780   33.2740 F   0  0  0  0  0  0  0  0  0  0  0  0
   39.4380   25.0190   31.3230 F   0  0  0  0  0  0  0  0  0  0  0  0
   37.8870   24.9120   33.7250 C   0  0  2  0  0  0  0  0  0  0  0  0
   36.9260   24.5730   34.0440 H   0  0  0  0  0  0  0  0  0  0  0  0
   37.3330   26.0050   32.7210 C   0  0  0  0  0  0  0  0  0  0  0  0
   37.7970   27.3130   32.6600 C   0  0  0  0  0  3  0  0  0  0  0  0
   37.1950   28.1960   31.7990 C   0  0  0  0  0  0  0  0  0  0  0  0
   37.6360   29.1840   31.8360 H   0  0  0  0  0  0  0  0  0  0  0  0
   36.1750   27.8230   31.0190 N   0  0  0  0  0  0  0  0  0  0  0  0
   35.7060   26.5710   31.0530 C   0  0  0  0  0  3  0  0  0  0  0  0
   36.3020   25.7440   31.8890 N   0  0  0  0  0  0  0  0  0  0  0  0
   38.6040   25.6360   34.4620 O   0  0  0  0  0  0  0  0  0  0  0  0
   38.5310   26.3140   35.6180 C   0  0  0  0  0  0  0  0  0  0  0  0
   38.1980   25.5920   36.5590 O   0  0  0  0  0  0  0  0  0  0  0  0
   38.6690   27.5450   36.3140 N   0  0  0  0  0  0  0  0  0  0  0  0
   37.9720   28.3250   36.3710 H   0  0  0  0  0  0  0  0  0  0  0  0
   39.5390   27.8010   36.8700 H   0  0  0  0  0  0  0  0  0  0  0  0
  1 12  1  0  0  0  0
  2 13  1  0  0  0  0
  2  1  2  0  0  0  0
  3  2  1  0  0  0  0
  4  3  2  0  0  0  0
  4  5  1  0  0  0  0
  5  6  2  0  0  0  0
  6  1  1  0  0  0  0
  7  8  1  0  0  0  0
  7  3  1  0  0  0  0
  8 15  1  0  0  0  0
  9 18  1  0  0  0  0
  9  8  1  0  0  0  0
 10  9  1  0  0  0  0
 10 11  1  0  0  0  0
 11 21  1  6  0  0  0
 11 25  1  0  0  0  0
 11  7  1  0  0  0  0
 14  5  1  0  0  0  0
 16  8  1  0  0  0  0
 17  9  1  0  0  0  0
 19 10  1  0  0  0  0
 20 10  1  0  0  0  0
 21 23  1  0  0  0  0
 22 21  1  0  0  0  0
 24 21  1  0  0  0  0
 25 26  1  1  0  0  0
 25 34  1  0  0  0  0
 27 25  1  0  0  0  0
 28 27  1  0  0  0  0
 29 30  1  0  0  0  0
 29 28  2  0  0  0  0
 31 32  2  0  0  0  0
 31 29  1  0  0  0  0
 32 33  1  0  0  0  0
 33 27  2  0  0  0  0
 34 35  1  0  0  0  0
 35 37  1  0  0  0  0
 35 36  2  0  0  0  0
 37 38  1  0  0  0  0
 37 39  1  0  0  0  0
M  END
>  <minimizedAffinity>
-4.9503293

$$$$

 OpenBabel03272507293D

 39 41  0  0  1  0  0  0  0  0999 V2000
   41.6730   27.0890   31.1700 C   0  0  0  0  0  0  0  0  0  0  0  0
   40.2870   27.1570   31.4320 C   0  0  0  0  0  0  0  0  0  0  0  0
   39.9000   27.1800   32.7720 C   0  0  0  0  0  0  0  0  0  0  0  0
   40.8420   27.1370   33.7290 N   0  0  0  0  0  0  0  0  0  0  0  0
   42.1560   27.0720   33.4410 C   0  0  0  0  0  0  0  0  0  0  0  0
   42.5630   27.0490   32.1750 N   0  0  0  0  0  0  0  0  0  0  0  0
   38.5520   27.2430   33.1150 N   0  0  0  0  0  0  0  0  0  0  0  0
   37.4870   27.9300   32.3340 C   0  0  0  0  0  0  0  0  0  0  0  0
   36.2720   27.9810   33.1720 C   0  0  0  0  0  0  0  0  0  0  0  0
   36.7660   27.7230   34.5200 C   0  0  0  0  0  0  0  0  0  0  0  0
   37.8360   26.7350   34.2400 C   0  0  2  0  0  0  0  0  0  0  0  0
   41.8610   27.0760   30.0910 H   0  0  0  0  0  0  0  0  0  0  0  0
   39.5100   27.1920   30.7040 H   0  0  0  0  0  0  0  0  0  0  0  0
   42.9610   27.0360   34.1520 H   0  0  0  0  0  0  0  0  0  0  0  0
   37.4350   27.7100   31.2970 H   0  0  0  0  0  0  0  0  0  0  0  0
   37.9580   28.9970   32.3220 H   0  0  0  0  0  0  0  0  0  0  0  0
   36.0490   29.1440   33.2330 H   0  0  0  0  0  0  0  0  0  0  0  0
   35.3210   27.6750   32.8200 H   0  0  0  0  0  0  0  0  0  0  0  0
   37.1930   28.6100   35.0310 H   0  0  0  0  0  0  0  0  0  0  0  0
   36.0380   27.2660   35.2240 H   0  0  0  0  0  0  0  0  0  0  0  0
   38.6900   26.5270   35.4950 C   0  0  0  0  0  0  0  0  0  0  0  0
   39.0880   27.7630   35.9540 F   0  0  0  0  0  0  0  0  0  0  0  0
   39.8250   25.7940   35.3140 F   0  0  0  0  0  0  0  0  0  0  0  0
   37.8560   25.9970   36.4540 F   0  0  0  0  0  0  0  0  0  0  0  0
   37.3260   25.4430   33.8890 C   0  0  2  0  0  0  0  0  0  0  0  0
   36.6170   25.0730   34.5950 H   0  0  0  0  0  0  0  0  0  0  0  0
   38.2960   24.1930   33.9850 C   0  0  0  0  0  0  0  0  0  0  0  0
   38.2230   23.2250   34.9790 C   0  0  0  0  0  3  0  0  0  0  0  0
   39.1610   22.2230   35.0060 C   0  0  0  0  0  0  0  0  0  0  0  0
   39.0070   21.5270   35.8210 H   0  0  0  0  0  0  0  0  0  0  0  0
   40.1390   22.1610   34.0970 N   0  0  0  0  0  0  0  0  0  0  0  0
   40.2370   23.0770   33.1280 C   0  0  0  0  0  3  0  0  0  0  0  0
   39.3230   24.0280   33.1250 N   0  0  0  0  0  0  0  0  0  0  0  0
   37.0860   25.4370   32.6550 O   0  0  0  0  0  0  0  0  0  0  0  0
   36.5950   24.6210   31.7080 C   0  0  0  0  0  0  0  0  0  0  0  0
   35.3960   24.8200   31.5010 O   0  0  0  0  0  0  0  0  0  0  0  0
   36.8170   23.5760   30.7720 N   0  0  0  0  0  0  0  0  0  0  0  0
   36.8450   22.5470   30.9630 H   0  0  0  0  0  0  0  0  0  0  0  0
   36.9860   23.7530   29.7370 H   0  0  0  0  0  0  0  0  0  0  0  0
  1  2  2  0  0  0  0
  1  6  1  0  0  0  0
  2  3  1  0  0  0  0
  3  7  1  0  0  0  0
  3  4  2  0  0  0  0
  5  4  1  0  0  0  0
  5 14  1  0  0  0  0
  6  5  2  0  0  0  0
  7 11  1  0  0  0  0
  8  7  1  0  0  0  0
  8  9  1  0  0  0  0
  9 17  1  0  0  0  0
  9 10  1  0  0  0  0
 10 19  1  0  0  0  0
 10 20  1  0  0  0  0
 11 10  1  0  0  0  0
 11 21  1  1  0  0  0
 12  1  1  0  0  0  0
 13  2  1  0  0  0  0
 15  8  1  0  0  0  0
 16  8  1  0  0  0  0
 18  9  1  0  0  0  0
 21 22  1  0  0  0  0
 21 24  1  0  0  0  0
 23 21  1  0  0  0  0
 25 27  1  0  0  0  0
 25 11  1  0  0  0  0
 25 26  1  1  0  0  0
 27 28  1  0  0  0  0
 28 29  2  0  0  0  0
 29 30  1  0  0  0  0
 31 29  1  0  0  0  0
 32 31  2  0  0  0  0
 33 32  1  0  0  0  0
 33 27  2  0  0  0  0
 34 25  1  0  0  0  0
 35 34  1  0  0  0  0
 36 35  2  0  0  0  0
 37 38  1  0  0  0  0
 37 35  1  0  0  0  0
 39 37  1  0  0  0  0
M  END
>  <minimizedAffinity>
-4.95026875

$$$$

 OpenBabel03272507293D

 39 41  0  0  1  0  0  0  0  0999 V2000
   36.6680   27.8750   32.2720 C   0  0  0  0  0  0  0  0  0  0  0  0
   37.1930   26.5650   32.3000 C   0  0  0  0  0  0  0  0  0  0  0  0
   37.3880   25.9910   33.5570 C   0  0  0  0  0  0  0  0  0  0  0  0
   37.0740   26.6960   34.6570 N   0  0  0  0  0  0  0  0  0  0  0  0
   36.5760   27.9450   34.5910 C   0  0  0  0  0  0  0  0  0  0  0  0
   36.3760   28.5250   33.4110 N   0  0  0  0  0  0  0  0  0  0  0  0
   37.9050   24.7030   33.6710 N   0  0  0  0  0  0  0  0  0  0  0  0
   37.6910   23.5920   32.7050 C   0  0  0  0  0  0  0  0  0  0  0  0
   38.1840   22.3470   33.3290 C   0  0  0  0  0  0  0  0  0  0  0  0
   38.2690   22.6780   34.7470 C   0  0  0  0  0  0  0  0  0  0  0  0
   38.7100   24.0920   34.6780 C   0  0  2  0  0  0  0  0  0  0  0  0
   36.5570   28.2230   31.2390 H   0  0  0  0  0  0  0  0  0  0  0  0
   37.4540   25.9730   31.4530 H   0  0  0  0  0  0  0  0  0  0  0  0
   36.3030   28.5650   35.4260 H   0  0  0  0  0  0  0  0  0  0  0  0
   37.8700   23.8050   31.6800 H   0  0  0  0  0  0  0  0  0  0  0  0
   36.5250   23.5700   32.7370 H   0  0  0  0  0  0  0  0  0  0  0  0
   37.2220   21.6530   33.3180 H   0  0  0  0  0  0  0  0  0  0  0  0
   38.8420   21.6810   32.8350 H   0  0  0  0  0  0  0  0  0  0  0  0
   37.3060   22.6070   35.2940 H   0  0  0  0  0  0  0  0  0  0  0  0
   39.0150   22.1020   35.3350 H   0  0  0  0  0  0  0  0  0  0  0  0
   38.5960   24.7390   36.0620 C   0  0  0  0  0  0  0  0  0  0  0  0
   37.2650   24.7600   36.4190 F   0  0  0  0  0  0  0  0  0  0  0  0
   39.0420   26.0240   36.1450 F   0  0  0  0  0  0  0  0  0  0  0  0
   39.2290   23.8930   36.9450 F   0  0  0  0  0  0  0  0  0  0  0  0
   40.0820   24.2310   34.2870 C   0  0  2  0  0  0  0  0  0  0  0  0
   40.2980   23.7440   33.3630 H   0  0  0  0  0  0  0  0  0  0  0  0
   41.1890   23.4640   35.1220 C   0  0  0  0  0  0  0  0  0  0  0  0
   42.2020   24.0930   35.8350 C   0  0  0  0  0  3  0  0  0  0  0  0
   43.1510   23.3270   36.4640 C   0  0  0  0  0  0  0  0  0  0  0  0
   43.8900   23.9210   36.9870 H   0  0  0  0  0  0  0  0  0  0  0  0
   43.1200   21.9920   36.4050 N   0  0  0  0  0  0  0  0  0  0  0  0
   42.1580   21.3560   35.7280 C   0  0  0  0  0  3  0  0  0  0  0  0
   41.2590   22.1160   35.1330 N   0  0  0  0  0  0  0  0  0  0  0  0
   40.4330   25.4190   34.5000 O   0  0  0  0  0  0  0  0  0  0  0  0
   41.1360   26.4020   33.9150 C   0  0  0  0  0  0  0  0  0  0  0  0
   40.7670   26.6100   32.7580 O   0  0  0  0  0  0  0  0  0  0  0  0
   42.1620   27.3790   34.0060 N   0  0  0  0  0  0  0  0  0  0  0  0
   43.1930   27.2320   33.8910 H   0  0  0  0  0  0  0  0  0  0  0  0
   41.9690   28.4060   34.2100 H   0  0  0  0  0  0  0  0  0  0  0  0
  1  2  2  0  0  0  0
  1  6  1  0  0  0  0
  2  3  1  0  0  0  0
  3  7  1  0  0  0  0
  3  4  2  0  0  0  0
  5  4  1  0  0  0  0
  5 14  1  0  0  0  0
  6  5  2  0  0  0  0
  7 11  1  0  0  0  0
  8 16  1  0  0  0  0
  8  9  1  0  0  0  0
  8  7  1  0  0  0  0
  9 10  1  0  0  0  0
 10 19  1  0  0  0  0
 10 20  1  0  0  0  0
 11 10  1  0  0  0  0
 11 21  1  1  0  0  0
 12  1  1  0  0  0  0
 13  2  1  0  0  0  0
 15  8  1  0  0  0  0
 17  9  1  0  0  0  0
 18  9  1  0  0  0  0
 21 23  1  0  0  0  0
 21 22  1  0  0  0  0
 21 24  1  0  0  0  0
 25 26  1  6  0  0  0
 25 34  1  0  0  0  0
 25 11  1  0  0  0  0
 25 27  1  0  0  0  0
 27 33  2  0  0  0  0
 27 28  1  0  0  0  0
 28 29  2  0  0  0  0
 29 30  1  0  0  0  0
 31 29  1  0  0  0  0
 32 31  2  0  0  0  0
 33 32  1  0  0  0  0
 35 37  1  0  0  0  0
 35 34  1  0  0  0  0
 36 35  2  0  0  0  0
 37 39  1  0  0  0  0
 38 37  1  0  0  0  0
M  END
>  <minimizedAffinity>
-4.92732286

$$$$

 OpenBabel03272507293D

 39 41  0  0  1  0  0  0  0  0999 V2000
   38.9080   27.7400   29.5620 C   0  0  0  0  0  0  0  0  0  0  0  0
   38.4320   27.4070   30.8470 C   0  0  0  0  0  0  0  0  0  0  0  0
   39.3800   27.3230   31.8680 C   0  0  0  0  0  0  0  0  0  0  0  0
   40.6720   27.5570   31.5850 N   0  0  0  0  0  0  0  0  0  0  0  0
   41.0900   27.8720   30.3440 C   0  0  0  0  0  0  0  0  0  0  0  0
   40.2150   27.9620   29.3470 N   0  0  0  0  0  0  0  0  0  0  0  0
   38.9920   26.9960   33.1650 N   0  0  0  0  0  0  0  0  0  0  0  0
   37.6900   27.3440   33.7970 C   0  0  0  0  0  0  0  0  0  0  0  0
   37.7940   27.0460   35.2400 C   0  0  0  0  0  0  0  0  0  0  0  0
   39.2300   26.9460   35.4740 C   0  0  0  0  0  0  0  0  0  0  0  0
   39.6750   26.3070   34.2120 C   0  0  2  0  0  0  0  0  0  0  0  0
   38.0820   27.7780   28.8430 H   0  0  0  0  0  0  0  0  0  0  0  0
   37.4180   27.2140   31.1130 H   0  0  0  0  0  0  0  0  0  0  0  0
   42.1030   28.0720   30.0470 H   0  0  0  0  0  0  0  0  0  0  0  0
   36.8130   27.1140   33.2460 H   0  0  0  0  0  0  0  0  0  0  0  0
   37.7510   28.5010   33.6660 H   0  0  0  0  0  0  0  0  0  0  0  0
   37.5570   28.0960   35.7390 H   0  0  0  0  0  0  0  0  0  0  0  0
   37.0660   26.4780   35.7600 H   0  0  0  0  0  0  0  0  0  0  0  0
   39.7430   27.9200   35.6080 H   0  0  0  0  0  0  0  0  0  0  0  0
   39.5380   26.3020   36.3250 H   0  0  0  0  0  0  0  0  0  0  0  0
   41.2020   26.3590   34.1160 C   0  0  0  0  0  0  0  0  0  0  0  0
   41.7250   25.8350   35.2780 F   0  0  0  0  0  0  0  0  0  0  0  0
   41.7380   27.6040   33.9750 F   0  0  0  0  0  0  0  0  0  0  0  0
   41.5610   25.5020   33.0990 F   0  0  0  0  0  0  0  0  0  0  0  0
   39.3180   24.9220   34.1310 C   0  0  2  0  0  0  0  0  0  0  0  0
   40.1570   24.2910   33.9370 H   0  0  0  0  0  0  0  0  0  0  0  0
   38.4720   24.4280   32.8850 C   0  0  0  0  0  0  0  0  0  0  0  0
   39.0260   23.8820   31.7350 C   0  0  0  0  0  3  0  0  0  0  0  0
   38.2010   23.5540   30.6870 C   0  0  0  0  0  0  0  0  0  0  0  0
   38.7390   23.1370   29.8450 H   0  0  0  0  0  0  0  0  0  0  0  0
   36.8810   23.7500   30.7530 N   0  0  0  0  0  0  0  0  0  0  0  0
   36.3170   24.2740   31.8470 C   0  0  0  0  0  3  0  0  0  0  0  0
   37.1310   24.5790   32.8370 N   0  0  0  0  0  0  0  0  0  0  0  0
   38.5080   24.6680   35.0590 O   0  0  0  0  0  0  0  0  0  0  0  0
   38.2140   23.6850   35.9240 C   0  0  0  0  0  0  0  0  0  0  0  0
   38.0940   24.1030   37.0770 O   0  0  0  0  0  0  0  0  0  0  0  0
   37.9540   22.3070   36.1520 N   0  0  0  0  0  0  0  0  0  0  0  0
   38.6550   21.5380   36.2640 H   0  0  0  0  0  0  0  0  0  0  0  0
   36.9700   21.9100   36.2360 H   0  0  0  0  0  0  0  0  0  0  0  0
  1  2  1  0  0  0  0
  2 13  1  0  0  0  0
  2  3  2  0  0  0  0
  3  7  1  0  0  0  0
  4  3  1  0  0  0  0
  5  4  2  0  0  0  0
  6  1  2  0  0  0  0
  6  5  1  0  0  0  0
  7  8  1  0  0  0  0
  7 11  1  0  0  0  0
  8  9  1  0  0  0  0
  9 10  1  0  0  0  0
  9 17  1  0  0  0  0
  9 18  1  0  0  0  0
 10 19  1  0  0  0  0
 10 20  1  0  0  0  0
 11 21  1  6  0  0  0
 11 10  1  0  0  0  0
 12  1  1  0  0  0  0
 14  5  1  0  0  0  0
 15  8  1  0  0  0  0
 16  8  1  0  0  0  0
 21 22  1  0  0  0  0
 23 21  1  0  0  0  0
 24 21  1  0  0  0  0
 25 26  1  1  0  0  0
 25 11  1  0  0  0  0
 25 34  1  0  0  0  0
 27 25  1  0  0  0  0
 28 27  2  0  0  0  0
 29 31  2  0  0  0  0
 29 28  1  0  0  0  0
 30 29  1  0  0  0  0
 31 32  1  0  0  0  0
 32 33  2  0  0  0  0
 33 27  1  0  0  0  0
 34 35  1  0  0  0  0
 35 37  1  0  0  0  0
 35 36  2  0  0  0  0
 37 39  1  0  0  0  0
 37 38  1  0  0  0  0
M  END
>  <minimizedAffinity>
-4.92663527

$$$$

 OpenBabel03272507293D

 39 41  0  0  1  0  0  0  0  0999 V2000
   36.9970   28.1360   31.2120 C   0  0  0  0  0  0  0  0  0  0  0  0
   38.2440   27.6170   31.6190 C   0  0  0  0  0  0  0  0  0  0  0  0
   38.3040   26.2450   31.8680 C   0  0  0  0  0  0  0  0  0  0  0  0
   37.1960   25.5000   31.7130 N   0  0  0  0  0  0  0  0  0  0  0  0
   36.0230   26.0320   31.3230 C   0  0  0  0  0  0  0  0  0  0  0  0
   35.9270   27.3350   31.0760 N   0  0  0  0  0  0  0  0  0  0  0  0
   39.4970   25.6540   32.2770 N   0  0  0  0  0  0  0  0  0  0  0  0
   40.8640   26.0940   31.8850 C   0  0  0  0  0  0  0  0  0  0  0  0
   41.8160   25.0500   32.3160 C   0  0  0  0  0  0  0  0  0  0  0  0
   40.9730   23.8830   32.5500 C   0  0  0  0  0  0  0  0  0  0  0  0
   39.7580   24.5230   33.1070 C   0  0  2  0  0  0  0  0  0  0  0  0
   37.0660   29.2170   31.0460 H   0  0  0  0  0  0  0  0  0  0  0  0
   39.1440   28.1720   31.7550 H   0  0  0  0  0  0  0  0  0  0  0  0
   35.1010   25.4980   31.1780 H   0  0  0  0  0  0  0  0  0  0  0  0
   41.0870   27.1250   31.9950 H   0  0  0  0  0  0  0  0  0  0  0  0
   40.7370   26.0050   30.7290 H   0  0  0  0  0  0  0  0  0  0  0  0
   42.3450   24.7460   31.2990 H   0  0  0  0  0  0  0  0  0  0  0  0
   42.6930   25.2700   32.8690 H   0  0  0  0  0  0  0  0  0  0  0  0
   40.7160   23.3120   31.6350 H   0  0  0  0  0  0  0  0  0  0  0  0
   41.3570   23.1480   33.2890 H   0  0  0  0  0  0  0  0  0  0  0  0
   38.6170   23.5030   33.1690 C   0  0  0  0  0  0  0  0  0  0  0  0
   38.2300   23.2120   31.8780 F   0  0  0  0  0  0  0  0  0  0  0  0
   37.4970   23.9180   33.8260 F   0  0  0  0  0  0  0  0  0  0  0  0
   39.1500   22.3470   33.6930 F   0  0  0  0  0  0  0  0  0  0  0  0
   39.9400   24.9960   34.4480 C   0  0  2  0  0  0  0  0  0  0  0  0
   40.8590   25.5210   34.5790 H   0  0  0  0  0  0  0  0  0  0  0  0
   40.2100   23.9370   35.5950 C   0  0  0  0  0  0  0  0  0  0  0  0
   39.2950   23.6150   36.5900 C   0  0  0  0  0  3  0  0  0  0  0  0
   39.6630   22.7340   37.5760 C   0  0  0  0  0  0  0  0  0  0  0  0
   38.8730   22.5580   38.2960 H   0  0  0  0  0  0  0  0  0  0  0  0
   40.8800   22.1820   37.5980 N   0  0  0  0  0  0  0  0  0  0  0  0
   41.7830   22.4700   36.6550 C   0  0  0  0  0  3  0  0  0  0  0  0
   41.4040   23.3190   35.7200 N   0  0  0  0  0  0  0  0  0  0  0  0
   38.8480   25.4750   34.8480 O   0  0  0  0  0  0  0  0  0  0  0  0
   38.3670   26.5810   35.4380 C   0  0  0  0  0  0  0  0  0  0  0  0
   37.2040   26.8150   35.1060 O   0  0  0  0  0  0  0  0  0  0  0  0
   38.5760   27.6730   36.3220 N   0  0  0  0  0  0  0  0  0  0  0  0
   39.0570   28.5790   36.1110 H   0  0  0  0  0  0  0  0  0  0  0  0
   38.2460   27.6710   37.3330 H   0  0  0  0  0  0  0  0  0  0  0  0
  1  2  1  0  0  0  0
  2 13  1  0  0  0  0
  2  3  2  0  0  0  0
  3  7  1  0  0  0  0
  4  3  1  0  0  0  0
  5  4  2  0  0  0  0
  6  1  2  0  0  0  0
  6  5  1  0  0  0  0
  7 11  1  0  0  0  0
  8 15  1  0  0  0  0
  8  7  1  0  0  0  0
  8  9  1  0  0  0  0
  9 10  1  0  0  0  0
  9 18  1  0  0  0  0
 10 11  1  0  0  0  0
 10 20  1  0  0  0  0
 11 21  1  6  0  0  0
 11 25  1  0  0  0  0
 12  1  1  0  0  0  0
 14  5  1  0  0  0  0
 16  8  1  0  0  0  0
 17  9  1  0  0  0  0
 19 10  1  0  0  0  0
 21 24  1  0  0  0  0
 21 23  1  0  0  0  0
 22 21  1  0  0  0  0
 25 26  1  1  0  0  0
 25 34  1  0  0  0  0
 25 27  1  0  0  0  0
 27 33  2  0  0  0  0
 27 28  1  0  0  0  0
 28 29  2  0  0  0  0
 29 31  1  0  0  0  0
 29 30  1  0  0  0  0
 32 31  2  0  0  0  0
 33 32  1  0  0  0  0
 34 35  1  0  0  0  0
 35 37  1  0  0  0  0
 36 35  2  0  0  0  0
 37 39  1  0  0  0  0
 38 37  1  0  0  0  0
M  END
>  <minimizedAffinity>
-4.92071581

$$$$

 OpenBabel03272507293D

 39 41  0  0  1  0  0  0  0  0999 V2000
   34.8930   19.7210   31.9250 C   0  0  0  0  0  0  0  0  0  0  0  0
   35.0280   21.1220   32.0290 C   0  0  0  0  0  0  0  0  0  0  0  0
   36.2360   21.6720   31.5970 C   0  0  0  0  0  0  0  0  0  0  0  0
   37.1910   20.8610   31.1130 N   0  0  0  0  0  0  0  0  0  0  0  0
   37.0260   19.5280   31.0290 C   0  0  0  0  0  0  0  0  0  0  0  0
   35.8900   18.9670   31.4310 N   0  0  0  0  0  0  0  0  0  0  0  0
   36.4500   23.0460   31.6700 N   0  0  0  0  0  0  0  0  0  0  0  0
   35.4060   24.0980   31.5250 C   0  0  0  0  0  0  0  0  0  0  0  0
   36.0900   25.4010   31.4040 C   0  0  0  0  0  0  0  0  0  0  0  0
   37.4620   25.0450   31.0610 C   0  0  0  0  0  0  0  0  0  0  0  0
   37.6390   23.8110   31.8620 C   0  0  2  0  0  0  0  0  0  0  0  0
   33.9110   19.4000   32.2910 H   0  0  0  0  0  0  0  0  0  0  0  0
   34.2960   21.7980   32.4060 H   0  0  0  0  0  0  0  0  0  0  0  0
   37.7450   18.8220   30.6540 H   0  0  0  0  0  0  0  0  0  0  0  0
   34.5280   23.9860   32.1100 H   0  0  0  0  0  0  0  0  0  0  0  0
   35.0200   23.7980   30.4660 H   0  0  0  0  0  0  0  0  0  0  0  0
   35.6950   25.8050   30.3610 H   0  0  0  0  0  0  0  0  0  0  0  0
   35.8240   26.2430   31.9900 H   0  0  0  0  0  0  0  0  0  0  0  0
   37.6250   24.8260   29.9850 H   0  0  0  0  0  0  0  0  0  0  0  0
   38.2420   25.7770   31.3610 H   0  0  0  0  0  0  0  0  0  0  0  0
   38.9270   23.0980   31.4390 C   0  0  0  0  0  0  0  0  0  0  0  0
   38.7450   22.5990   30.1670 F   0  0  0  0  0  0  0  0  0  0  0  0
   39.2970   22.0440   32.2210 F   0  0  0  0  0  0  0  0  0  0  0  0
   39.9020   24.0670   31.3490 F   0  0  0  0  0  0  0  0  0  0  0  0
   37.7720   24.0690   33.2650 C   0  0  2  0  0  0  0  0  0  0  0  0
   37.0080   24.7120   33.6400 H   0  0  0  0  0  0  0  0  0  0  0  0
   38.9790   24.9700   33.7600 C   0  0  0  0  0  0  0  0  0  0  0  0
   39.0600   26.3420   33.5560 C   0  0  0  0  0  3  0  0  0  0  0  0
   40.1870   27.0120   33.9650 C   0  0  0  0  0  0  0  0  0  0  0  0
   40.1420   28.0730   33.7570 H   0  0  0  0  0  0  0  0  0  0  0  0
   41.2020   26.3720   34.5530 N   0  0  0  0  0  0  0  0  0  0  0  0
   41.1540   25.0520   34.7630 C   0  0  0  0  0  3  0  0  0  0  0  0
   40.0620   24.4330   34.3610 N   0  0  0  0  0  0  0  0  0  0  0  0
   38.0580   22.9880   33.8400 O   0  0  0  0  0  0  0  0  0  0  0  0
   37.9050   22.3850   35.0290 C   0  0  0  0  0  0  0  0  0  0  0  0
   36.9940   21.5560   35.0150 O   0  0  0  0  0  0  0  0  0  0  0  0
   38.3250   22.2390   36.3780 N   0  0  0  0  0  0  0  0  0  0  0  0
   38.0670   22.8430   37.1940 H   0  0  0  0  0  0  0  0  0  0  0  0
   38.9750   21.4600   36.7010 H   0  0  0  0  0  0  0  0  0  0  0  0
  1  2  1  0  0  0  0
  1 12  1  0  0  0  0
  2 13  1  0  0  0  0
  3  7  1  0  0  0  0
  3  2  2  0  0  0  0
  4  3  1  0  0  0  0
  5  4  2  0  0  0  0
  5  6  1  0  0  0  0
  6  1  2  0  0  0  0
  7 11  1  0  0  0  0
  8  7  1  0  0  0  0
  8 15  1  0  0  0  0
  9  8  1  0  0  0  0
  9 18  1  0  0  0  0
 10 20  1  0  0  0  0
 10  9  1  0  0  0  0
 10 11  1  0  0  0  0
 11 21  1  6  0  0  0
 11 25  1  0  0  0  0
 14  5  1  0  0  0  0
 16  8  1  0  0  0  0
 17  9  1  0  0  0  0
 19 10  1  0  0  0  0
 21 23  1  0  0  0  0
 22 21  1  0  0  0  0
 24 21  1  0  0  0  0
 25 26  1  1  0  0  0
 25 27  1  0  0  0  0
 25 34  1  0  0  0  0
 27 33  1  0  0  0  0
 28 27  2  0  0  0  0
 28 29  1  0  0  0  0
 29 31  2  0  0  0  0
 30 29  1  0  0  0  0
 31 32  1  0  0  0  0
 33 32  2  0  0  0  0
 34 35  1  0  0  0  0
 35 37  1  0  0  0  0
 36 35  2  0  0  0  0
 37 39  1  0  0  0  0
 37 38  1  0  0  0  0
M  END
>  <minimizedAffinity>
-4.91841269

$$$$
