
 OpenBabel03272510013D

 19 20  0  0  0  0  0  0  0  0999 V2000
   38.1470   32.8600   49.3830 C   0  0  0  0  0  0  0  0  0  0  0  0
   38.5640   32.7120   48.0490 C   0  0  0  0  0  0  0  0  0  0  0  0
   37.9640   31.7030   47.3100 C   0  0  0  0  0  0  0  0  0  0  0  0
   37.0230   30.9160   47.8870 N   0  0  0  0  0  0  0  0  0  0  0  0
   36.6510   31.0930   49.1760 C   0  0  0  0  0  0  0  0  0  0  0  0
   37.2090   32.0570   49.9160 N   0  0  0  0  0  0  0  0  0  0  0  0
   38.5900   33.6360   49.9940 H   0  0  0  0  0  0  0  0  0  0  0  0
   39.3200   33.3690   47.6380 H   0  0  0  0  0  0  0  0  0  0  0  0
   38.3500   31.4940   45.9190 C   0  0  0  0  0  0  0  0  0  0  0  0
   38.0390   32.4490   44.9710 C   0  0  0  0  0  3  0  0  0  0  0  0
   38.4340   32.1860   43.6740 C   0  0  0  0  0  0  0  0  0  0  0  0
   38.2050   32.9110   42.9200 H   0  0  0  0  0  0  0  0  0  0  0  0
   39.0850   31.0460   43.4000 N   0  0  0  0  0  0  0  0  0  0  0  0
   39.3920   30.1150   44.3070 C   0  0  0  0  0  3  0  0  0  0  0  0
   39.0050   30.3710   45.5830 N   0  0  0  0  0  0  0  0  0  0  0  0
   35.6140   30.1870   49.7270 C   0  0  0  0  0  0  0  0  0  0  0  0
   35.8820   29.8080   51.0370 F   0  0  0  0  0  0  0  0  0  0  0  0
   34.3710   30.7980   49.7390 F   0  0  0  0  0  0  0  0  0  0  0  0
   35.4560   29.0360   48.9910 F   0  0  0  0  0  0  0  0  0  0  0  0
  1  6  1  0  0  0  0
  1  7  1  0  0  0  0
  2  1  2  0  0  0  0
  3  4  2  0  0  0  0
  3  2  1  0  0  0  0
  4  5  1  0  0  0  0
  5 16  1  0  0  0  0
  5  6  2  0  0  0  0
  8  2  1  0  0  0  0
  9  3  1  0  0  0  0
 10  9  2  0  0  0  0
 11 10  1  0  0  0  0
 12 11  1  0  0  0  0
 13 11  2  0  0  0  0
 13 14  1  0  0  0  0
 14 15  2  0  0  0  0
 15  9  1  0  0  0  0
 16 18  1  0  0  0  0
 16 17  1  0  0  0  0
 19 16  1  0  0  0  0
M  END
>  <minimizedAffinity>
-5.20103979

>  <minimizedRMSD>
1.5991987

$$$$
