REMARK  Name = 
REMARK  3 active torsions:
REMARK  status: ('A' for Active; 'I' for Inactive)
REMARK    1  A    between atoms: C_1  and  C_7
REMARK    2  A    between atoms: C_3  and  C_12
REMARK    3  A    between atoms: N_10  and  C_20
REMARK                            x       y       z     vdW  Elec       q    Type
REMARK                         _______ _______ _______ _____ _____    ______ ____
ROOT
ATOM      1  C   UNL     1      39.096  31.112  45.907  0.00  0.00    +0.000 A 
ATOM      2  C   UNL     1      39.933  32.195  45.908  0.00  0.00    +0.000 A 
ATOM      3  C   UNL     1      40.944  32.016  44.971  0.00  0.00    +0.000 A 
ATOM      4  N   UNL     1      40.675  30.805  44.427  0.00  0.00    +0.000 N 
ATOM      5  N   UNL     1      39.601  30.284  44.974  0.00  0.00    +0.000 NA
ATOM      6  H   UNL     1      39.845  33.072  46.532  0.00  0.00    +0.000 HD
ATOM      7  H   UNL     1      41.772  32.651  44.695  0.00  0.00    +0.000 HD
ENDROOT
BRANCH   1   8
ATOM      8  C   UNL     1      37.909  30.875  46.726  0.00  0.00    +0.000 A 
ATOM      9  C   UNL     1      38.055  31.040  48.137  0.00  0.00    +0.000 A 
ATOM     10  C   UNL     1      36.929  30.816  48.928  0.00  0.00    +0.000 A 
ATOM     11  N   UNL     1      35.772  30.458  48.319  0.00  0.00    +0.000 NA
ATOM     12  C   UNL     1      35.664  30.310  46.978  0.00  0.00    +0.000 A 
ATOM     13  N   UNL     1      36.748  30.524  46.206  0.00  0.00    +0.000 NA
ATOM     14  H   UNL     1      39.016  31.327  48.529  0.00  0.00    +0.000 HD
ATOM     15  H   UNL     1      34.726  30.023  46.518  0.00  0.00    +0.000 HD
BRANCH  10  16
ATOM     16  C   UNL     1      37.049  30.980  50.404  0.00  0.00    +0.000 C 
ATOM     17  F   UNL     1      36.539  32.229  50.677  0.00  0.00    +0.000 F 
ATOM     18  F   UNL     1      36.331  30.031  51.106  0.00  0.00    +0.000 F 
ATOM     19  F   UNL     1      38.378  30.978  50.822  0.00  0.00    +0.000 F 
ENDBRANCH  10  16
ENDBRANCH   1   8
BRANCH   4  20
ATOM     20  C   UNL     1      41.371  30.093  43.411  0.00  0.00    +0.000 A 
ATOM     21  C   UNL     1      42.364  30.726  42.656  0.00  0.00    +0.000 A 
ATOM     22  C   UNL     1      43.096  30.125  41.650  0.00  0.00    +0.000 A 
ATOM     23  H   UNL     1      43.835  30.732  41.145  0.00  0.00    +0.000 HD
ATOM     24  N   UNL     1      42.803  28.836  41.407  0.00  0.00    +0.000 NA
ATOM     25  C   UNL     1      41.852  28.184  42.112  0.00  0.00    +0.000 A 
ATOM     26  N   UNL     1      41.147  28.806  43.099  0.00  0.00    +0.000 NA
ENDBRANCH   4  20
TORSDOF 3
