
 OpenBabel03272500283D

 32 34  0  0  0  0  0  0  0  0999 V2000
   37.4430   26.7490   33.1940 C   0  0  0  0  0  0  0  0  0  0  0  0
   37.8830   26.4480   32.1980 H   0  0  0  0  0  0  0  0  0  0  0  0
   36.7490   25.8840   33.4140 H   0  0  0  0  0  0  0  0  0  0  0  0
   36.6810   27.9380   32.9890 C   0  0  0  0  0  0  0  0  0  0  0  0
   36.4510   28.3880   31.7260 C   0  0  0  0  0  0  0  0  0  0  0  0
   35.7060   29.5560   31.4700 C   0  0  0  0  0  0  0  0  0  0  0  0
   35.2370   30.1920   32.5990 N   0  0  0  0  0  0  0  0  0  0  0  0
   35.4810   29.7240   33.8340 C   0  0  0  0  0  0  0  0  0  0  0  0
   36.1980   28.6040   34.0290 N   0  0  0  0  0  0  0  0  0  0  0  0
   36.7950   27.9290   30.8010 H   0  0  0  0  0  0  0  0  0  0  0  0
   35.5120   29.9320   30.4740 H   0  0  0  0  0  0  0  0  0  0  0  0
   34.9330   30.4820   34.9540 C   0  0  0  0  0  0  0  0  0  0  0  0
   35.6780   31.3280   35.7320 C   0  0  0  0  0  3  0  0  0  0  0  0
   35.0770   32.0010   36.7670 C   0  0  0  0  0  0  0  0  0  0  0  0
   35.7260   32.6620   37.3490 H   0  0  0  0  0  0  0  0  0  0  0  0
   33.7850   31.8740   37.0630 N   0  0  0  0  0  0  0  0  0  0  0  0
   33.0570   31.0270   36.2780 C   0  0  0  0  0  3  0  0  0  0  0  0
   33.6230   30.3420   35.2420 N   0  0  0  0  0  0  0  0  0  0  0  0
   38.4970   26.6940   34.2100 C   0  0  0  0  0  0  0  0  0  0  0  0
   38.6090   27.6460   34.7940 H   0  0  0  0  0  0  0  0  0  0  0  0
   39.5220   26.5690   33.7490 H   0  0  0  0  0  0  0  0  0  0  0  0
   38.3770   25.5950   35.1830 C   0  0  0  0  0  0  0  0  0  0  0  0
   38.2320   24.2810   34.7630 C   0  0  0  0  0  0  0  0  0  0  0  0
   38.1440   23.4720   35.8660 C   0  0  0  0  0  0  0  0  0  0  0  0
   38.2320   24.2710   36.9260 N   0  0  0  0  0  0  0  0  0  0  0  0
   38.3680   25.5130   36.5030 N   0  0  0  0  0  0  0  0  0  0  0  0
   38.1840   23.8480   33.7660 H   0  0  0  0  0  0  0  0  0  0  0  0
   38.0250   22.3950   35.9810 H   0  0  0  0  0  0  0  0  0  0  0  0
   38.1930   23.9060   38.3410 C   0  0  0  0  0  0  0  0  0  0  0  0
   37.8510   25.0050   39.1150 F   0  0  0  0  0  0  0  0  0  0  0  0
   39.4020   23.4330   38.7860 F   0  0  0  0  0  0  0  0  0  0  0  0
   37.2320   22.9470   38.5850 F   0  0  0  0  0  0  0  0  0  0  0  0
  1  3  1  0  0  0  0
  1 19  1  0  0  0  0
  2  1  1  0  0  0  0
  4  1  1  0  0  0  0
  4  9  1  0  0  0  0
  5  4  2  0  0  0  0
  6  5  1  0  0  0  0
  6  7  2  0  0  0  0
  7  8  1  0  0  0  0
  8  9  2  0  0  0  0
  8 12  1  0  0  0  0
 10  5  1  0  0  0  0
 11  6  1  0  0  0  0
 12 18  2  0  0  0  0
 12 13  1  0  0  0  0
 13 14  2  0  0  0  0
 14 16  1  0  0  0  0
 14 15  1  0  0  0  0
 17 16  2  0  0  0  0
 18 17  1  0  0  0  0
 19 20  1  0  0  0  0
 19 22  1  0  0  0  0
 21 19  1  0  0  0  0
 22 26  2  0  0  0  0
 23 22  1  0  0  0  0
 23 24  2  0  0  0  0
 24 28  1  0  0  0  0
 24 25  1  0  0  0  0
 25 29  1  0  0  0  0
 26 25  1  0  0  0  0
 27 23  1  0  0  0  0
 29 32  1  0  0  0  0
 29 31  1  0  0  0  0
 29 30  1  0  0  0  0
M  END
>  <minimizedAffinity>
-5.95861959

$$$$

 OpenBabel03272500283D

 32 34  0  0  0  0  0  0  0  0999 V2000
   38.5180   26.0410   32.7620 C   0  0  0  0  0  0  0  0  0  0  0  0
   38.8710   26.8580   32.0650 H   0  0  0  0  0  0  0  0  0  0  0  0
   39.3850   25.3160   32.7300 H   0  0  0  0  0  0  0  0  0  0  0  0
   37.3650   25.4400   32.1730 C   0  0  0  0  0  0  0  0  0  0  0  0
   36.3960   26.2220   31.6280 C   0  0  0  0  0  0  0  0  0  0  0  0
   35.2390   25.6790   31.0360 C   0  0  0  0  0  0  0  0  0  0  0  0
   35.1790   24.3020   31.0580 N   0  0  0  0  0  0  0  0  0  0  0  0
   36.1530   23.5560   31.6050 C   0  0  0  0  0  0  0  0  0  0  0  0
   37.2400   24.1200   32.1590 N   0  0  0  0  0  0  0  0  0  0  0  0
   36.3880   27.3090   31.5810 H   0  0  0  0  0  0  0  0  0  0  0  0
   34.4550   26.2820   30.5970 H   0  0  0  0  0  0  0  0  0  0  0  0
   35.9820   22.1070   31.5710 C   0  0  0  0  0  0  0  0  0  0  0  0
   34.9920   21.4450   32.2480 C   0  0  0  0  0  3  0  0  0  0  0  0
   34.9070   20.0780   32.1570 C   0  0  0  0  0  0  0  0  0  0  0  0
   34.0940   19.6100   32.7200 H   0  0  0  0  0  0  0  0  0  0  0  0
   35.7510   19.3450   31.4330 N   0  0  0  0  0  0  0  0  0  0  0  0
   36.7320   20.0190   30.7650 C   0  0  0  0  0  3  0  0  0  0  0  0
   36.8450   21.3780   30.8340 N   0  0  0  0  0  0  0  0  0  0  0  0
   38.4790   26.5710   34.1270 C   0  0  0  0  0  0  0  0  0  0  0  0
   37.5510   27.1590   34.3550 H   0  0  0  0  0  0  0  0  0  0  0  0
   39.2990   27.3280   34.3110 H   0  0  0  0  0  0  0  0  0  0  0  0
   38.6360   25.5690   35.1950 C   0  0  0  0  0  0  0  0  0  0  0  0
   39.4690   24.4730   35.0310 C   0  0  0  0  0  0  0  0  0  0  0  0
   39.4270   23.7110   36.1690 C   0  0  0  0  0  0  0  0  0  0  0  0
   38.5920   24.3260   37.0020 N   0  0  0  0  0  0  0  0  0  0  0  0
   38.1380   25.4150   36.4110 N   0  0  0  0  0  0  0  0  0  0  0  0
   40.0950   24.1670   34.1940 H   0  0  0  0  0  0  0  0  0  0  0  0
   39.9230   22.7830   36.4520 H   0  0  0  0  0  0  0  0  0  0  0  0
   38.2000   23.9230   38.3510 C   0  0  0  0  0  0  0  0  0  0  0  0
   39.3070   23.4960   39.0700 F   0  0  0  0  0  0  0  0  0  0  0  0
   37.2810   22.9030   38.3400 F   0  0  0  0  0  0  0  0  0  0  0  0
   37.6670   24.9830   39.0560 F   0  0  0  0  0  0  0  0  0  0  0  0
  1 19  1  0  0  0  0
  2  1  1  0  0  0  0
  3  1  1  0  0  0  0
  4  1  1  0  0  0  0
  5  4  2  0  0  0  0
  6  7  2  0  0  0  0
  6  5  1  0  0  0  0
  7  8  1  0  0  0  0
  8  9  2  0  0  0  0
  9  4  1  0  0  0  0
 10  5  1  0  0  0  0
 11  6  1  0  0  0  0
 12  8  1  0  0  0  0
 12 13  1  0  0  0  0
 14 13  2  0  0  0  0
 14 15  1  0  0  0  0
 16 14  1  0  0  0  0
 17 18  1  0  0  0  0
 17 16  2  0  0  0  0
 18 12  2  0  0  0  0
 19 21  1  0  0  0  0
 19 20  1  0  0  0  0
 19 22  1  0  0  0  0
 22 26  2  0  0  0  0
 23 22  1  0  0  0  0
 23 24  2  0  0  0  0
 24 28  1  0  0  0  0
 24 25  1  0  0  0  0
 25 29  1  0  0  0  0
 26 25  1  0  0  0  0
 27 23  1  0  0  0  0
 29 32  1  0  0  0  0
 29 30  1  0  0  0  0
 31 29  1  0  0  0  0
M  END
>  <minimizedAffinity>
-5.88251543

$$$$

 OpenBabel03272500283D

 32 34  0  0  0  0  0  0  0  0999 V2000
   37.0510   25.4400   31.6910 C   0  0  0  0  0  0  0  0  0  0  0  0
   37.9710   24.8730   31.3620 H   0  0  0  0  0  0  0  0  0  0  0  0
   37.0700   26.3360   31.0030 H   0  0  0  0  0  0  0  0  0  0  0  0
   37.2640   25.8630   33.0380 C   0  0  0  0  0  0  0  0  0  0  0  0
   36.9350   27.1290   33.4120 C   0  0  0  0  0  0  0  0  0  0  0  0
   37.1250   27.5960   34.7270 C   0  0  0  0  0  0  0  0  0  0  0  0
   37.6670   26.6670   35.5890 N   0  0  0  0  0  0  0  0  0  0  0  0
   37.9820   25.4230   35.1910 C   0  0  0  0  0  0  0  0  0  0  0  0
   37.7820   25.0230   33.9230 N   0  0  0  0  0  0  0  0  0  0  0  0
   36.5060   27.9020   32.7780 H   0  0  0  0  0  0  0  0  0  0  0  0
   36.8710   28.5980   35.0460 H   0  0  0  0  0  0  0  0  0  0  0  0
   38.5490   24.5260   36.1910 C   0  0  0  0  0  0  0  0  0  0  0  0
   38.0310   24.3700   37.4500 C   0  0  0  0  0  3  0  0  0  0  0  0
   38.6320   23.5010   38.3270 C   0  0  0  0  0  0  0  0  0  0  0  0
   38.1690   23.4210   39.3150 H   0  0  0  0  0  0  0  0  0  0  0  0
   39.7130   22.7880   38.0160 N   0  0  0  0  0  0  0  0  0  0  0  0
   40.2180   22.9560   36.7590 C   0  0  0  0  0  3  0  0  0  0  0  0
   39.6440   23.8120   35.8620 N   0  0  0  0  0  0  0  0  0  0  0  0
   35.8630   24.6660   31.3220 C   0  0  0  0  0  0  0  0  0  0  0  0
   35.4900   24.8820   30.2860 H   0  0  0  0  0  0  0  0  0  0  0  0
   34.9700   24.9310   31.9630 H   0  0  0  0  0  0  0  0  0  0  0  0
   36.0030   23.2050   31.4430 C   0  0  0  0  0  0  0  0  0  0  0  0
   37.1510   22.5580   31.0130 C   0  0  0  0  0  0  0  0  0  0  0  0
   37.0130   21.2140   31.2430 C   0  0  0  0  0  0  0  0  0  0  0  0
   35.8150   21.0480   31.7960 N   0  0  0  0  0  0  0  0  0  0  0  0
   35.2380   22.2290   31.9050 N   0  0  0  0  0  0  0  0  0  0  0  0
   38.0630   22.9410   30.5590 H   0  0  0  0  0  0  0  0  0  0  0  0
   37.6700   20.3640   31.0570 H   0  0  0  0  0  0  0  0  0  0  0  0
   35.1840   19.8040   32.2330 C   0  0  0  0  0  0  0  0  0  0  0  0
   33.8270   19.8230   31.9480 F   0  0  0  0  0  0  0  0  0  0  0  0
   35.3310   19.5950   33.5820 F   0  0  0  0  0  0  0  0  0  0  0  0
   35.7040   18.7160   31.5630 F   0  0  0  0  0  0  0  0  0  0  0  0
  1  4  1  0  0  0  0
  2  1  1  0  0  0  0
  3  1  1  0  0  0  0
  4  5  2  0  0  0  0
  4  9  1  0  0  0  0
  5  6  1  0  0  0  0
  6 11  1  0  0  0  0
  6  7  2  0  0  0  0
  8  7  1  0  0  0  0
  8 12  1  0  0  0  0
  9  8  2  0  0  0  0
 10  5  1  0  0  0  0
 12 13  1  0  0  0  0
 13 14  2  0  0  0  0
 14 15  1  0  0  0  0
 16 14  1  0  0  0  0
 17 16  2  0  0  0  0
 18 12  2  0  0  0  0
 18 17  1  0  0  0  0
 19 22  1  0  0  0  0
 19  1  1  0  0  0  0
 19 21  1  0  0  0  0
 20 19  1  0  0  0  0
 22 26  2  0  0  0  0
 23 24  2  0  0  0  0
 23 22  1  0  0  0  0
 24 25  1  0  0  0  0
 25 26  1  0  0  0  0
 25 29  1  0  0  0  0
 27 23  1  0  0  0  0
 28 24  1  0  0  0  0
 29 31  1  0  0  0  0
 30 29  1  0  0  0  0
 32 29  1  0  0  0  0
M  END
>  <minimizedAffinity>
-5.8438921

$$$$

 OpenBabel03272500283D

 32 34  0  0  0  0  0  0  0  0999 V2000
   38.4900   26.8580   32.9760 C   0  0  0  0  0  0  0  0  0  0  0  0
   39.4030   26.8940   32.3110 H   0  0  0  0  0  0  0  0  0  0  0  0
   38.1670   25.7800   32.8720 H   0  0  0  0  0  0  0  0  0  0  0  0
   37.5030   27.7140   32.4010 C   0  0  0  0  0  0  0  0  0  0  0  0
   37.6350   28.1350   31.1150 C   0  0  0  0  0  0  0  0  0  0  0  0
   36.6900   28.9810   30.5020 C   0  0  0  0  0  0  0  0  0  0  0  0
   35.6330   29.3370   31.3120 N   0  0  0  0  0  0  0  0  0  0  0  0
   35.5300   28.9050   32.5790 C   0  0  0  0  0  0  0  0  0  0  0  0
   36.4580   28.0990   33.1220 N   0  0  0  0  0  0  0  0  0  0  0  0
   38.4440   27.8880   30.4310 H   0  0  0  0  0  0  0  0  0  0  0  0
   36.7750   29.3280   29.4810 H   0  0  0  0  0  0  0  0  0  0  0  0
   34.3670   29.3480   33.3420 C   0  0  0  0  0  0  0  0  0  0  0  0
   34.4510   29.9480   34.5710 C   0  0  0  0  0  3  0  0  0  0  0  0
   33.3010   30.3330   35.2160 C   0  0  0  0  0  0  0  0  0  0  0  0
   33.4370   30.8080   36.1930 H   0  0  0  0  0  0  0  0  0  0  0  0
   32.0860   30.1500   34.7040 N   0  0  0  0  0  0  0  0  0  0  0  0
   32.0190   29.5500   33.4800 C   0  0  0  0  0  3  0  0  0  0  0  0
   33.1430   29.1550   32.8110 N   0  0  0  0  0  0  0  0  0  0  0  0
   38.9150   27.0240   34.3680 C   0  0  0  0  0  0  0  0  0  0  0  0
   38.4480   27.9080   34.8790 H   0  0  0  0  0  0  0  0  0  0  0  0
   40.0190   27.2520   34.4490 H   0  0  0  0  0  0  0  0  0  0  0  0
   38.7000   25.8530   35.2350 C   0  0  0  0  0  0  0  0  0  0  0  0
   38.6630   24.5710   34.7090 C   0  0  0  0  0  0  0  0  0  0  0  0
   38.4520   23.6800   35.7290 C   0  0  0  0  0  0  0  0  0  0  0  0
   38.3610   24.4000   36.8440 N   0  0  0  0  0  0  0  0  0  0  0  0
   38.5100   25.6740   36.5320 N   0  0  0  0  0  0  0  0  0  0  0  0
   38.7710   24.2120   33.6870 H   0  0  0  0  0  0  0  0  0  0  0  0
   38.3580   22.5950   35.7510 H   0  0  0  0  0  0  0  0  0  0  0  0
   38.1390   23.9300   38.2100 C   0  0  0  0  0  0  0  0  0  0  0  0
   37.1910   22.9160   38.2240 F   0  0  0  0  0  0  0  0  0  0  0  0
   37.6990   24.9330   39.0370 F   0  0  0  0  0  0  0  0  0  0  0  0
   39.2880   23.3920   38.7490 F   0  0  0  0  0  0  0  0  0  0  0  0
  1 19  1  0  0  0  0
  2  1  1  0  0  0  0
  3  1  1  0  0  0  0
  4  1  1  0  0  0  0
  4  9  1  0  0  0  0
  5  4  2  0  0  0  0
  6  5  1  0  0  0  0
  6  7  2  0  0  0  0
  7  8  1  0  0  0  0
  8  9  2  0  0  0  0
  8 12  1  0  0  0  0
 10  5  1  0  0  0  0
 11  6  1  0  0  0  0
 12 13  1  0  0  0  0
 13 14  2  0  0  0  0
 14 15  1  0  0  0  0
 16 14  1  0  0  0  0
 17 16  2  0  0  0  0
 18 12  2  0  0  0  0
 18 17  1  0  0  0  0
 19 21  1  0  0  0  0
 19 20  1  0  0  0  0
 19 22  1  0  0  0  0
 22 26  2  0  0  0  0
 23 22  1  0  0  0  0
 23 24  2  0  0  0  0
 24 28  1  0  0  0  0
 24 25  1  0  0  0  0
 25 29  1  0  0  0  0
 26 25  1  0  0  0  0
 27 23  1  0  0  0  0
 29 30  1  0  0  0  0
 29 32  1  0  0  0  0
 29 31  1  0  0  0  0
M  END
>  <minimizedAffinity>
-5.53061581

$$$$

 OpenBabel03272500283D

 32 34  0  0  0  0  0  0  0  0999 V2000
   38.9400   23.7890   32.6380 C   0  0  0  0  0  0  0  0  0  0  0  0
   39.6370   23.6160   31.7650 H   0  0  0  0  0  0  0  0  0  0  0  0
   38.7780   22.7370   33.0200 H   0  0  0  0  0  0  0  0  0  0  0  0
   37.7160   24.3060   32.1180 C   0  0  0  0  0  0  0  0  0  0  0  0
   36.7080   23.4560   31.7810 C   0  0  0  0  0  0  0  0  0  0  0  0
   35.4810   23.9150   31.2630 C   0  0  0  0  0  0  0  0  0  0  0  0
   35.3950   25.2840   31.1310 N   0  0  0  0  0  0  0  0  0  0  0  0
   36.4070   26.0990   31.4720 C   0  0  0  0  0  0  0  0  0  0  0  0
   37.5610   25.6130   31.9620 N   0  0  0  0  0  0  0  0  0  0  0  0
   36.7200   22.3710   31.8640 H   0  0  0  0  0  0  0  0  0  0  0  0
   34.6670   23.2580   30.9890 H   0  0  0  0  0  0  0  0  0  0  0  0
   36.2020   27.5310   31.2880 C   0  0  0  0  0  0  0  0  0  0  0  0
   36.8140   28.2650   30.3050 C   0  0  0  0  0  3  0  0  0  0  0  0
   36.5590   29.6100   30.2070 C   0  0  0  0  0  0  0  0  0  0  0  0
   37.0780   30.1380   29.4010 H   0  0  0  0  0  0  0  0  0  0  0  0
   35.7350   30.2550   31.0310 N   0  0  0  0  0  0  0  0  0  0  0  0
   35.1340   29.5110   32.0050 C   0  0  0  0  0  3  0  0  0  0  0  0
   35.3650   28.1710   32.1300 N   0  0  0  0  0  0  0  0  0  0  0  0
   39.6720   24.4970   33.6910 C   0  0  0  0  0  0  0  0  0  0  0  0
   39.4630   25.5990   33.7200 H   0  0  0  0  0  0  0  0  0  0  0  0
   40.7890   24.4650   33.5250 H   0  0  0  0  0  0  0  0  0  0  0  0
   39.4720   23.9770   35.0550 C   0  0  0  0  0  0  0  0  0  0  0  0
   39.9940   22.7500   35.4360 C   0  0  0  0  0  0  0  0  0  0  0  0
   39.6610   22.5160   36.7440 C   0  0  0  0  0  0  0  0  0  0  0  0
   38.9560   23.5690   37.1480 N   0  0  0  0  0  0  0  0  0  0  0  0
   38.8570   24.4160   36.1400 N   0  0  0  0  0  0  0  0  0  0  0  0
   40.5790   22.0170   34.8830 H   0  0  0  0  0  0  0  0  0  0  0  0
   39.8680   21.6850   37.4190 H   0  0  0  0  0  0  0  0  0  0  0  0
   38.3660   23.8140   38.4620 C   0  0  0  0  0  0  0  0  0  0  0  0
   39.3270   23.6890   39.4550 F   0  0  0  0  0  0  0  0  0  0  0  0
   37.3480   22.9360   38.7440 F   0  0  0  0  0  0  0  0  0  0  0  0
   37.8740   25.0990   38.5590 F   0  0  0  0  0  0  0  0  0  0  0  0
  1  3  1  0  0  0  0
  1 19  1  0  0  0  0
  2  1  1  0  0  0  0
  4  1  1  0  0  0  0
  5 10  1  0  0  0  0
  5  4  2  0  0  0  0
  6  5  1  0  0  0  0
  7  6  2  0  0  0  0
  7  8  1  0  0  0  0
  8  9  2  0  0  0  0
  9  4  1  0  0  0  0
 11  6  1  0  0  0  0
 12  8  1  0  0  0  0
 12 18  1  0  0  0  0
 13 12  2  0  0  0  0
 14 13  1  0  0  0  0
 14 16  2  0  0  0  0
 15 14  1  0  0  0  0
 16 17  1  0  0  0  0
 17 18  2  0  0  0  0
 19 20  1  0  0  0  0
 19 22  1  0  0  0  0
 21 19  1  0  0  0  0
 22 23  1  0  0  0  0
 22 26  2  0  0  0  0
 23 24  2  0  0  0  0
 24 25  1  0  0  0  0
 24 28  1  0  0  0  0
 25 29  1  0  0  0  0
 26 25  1  0  0  0  0
 27 23  1  0  0  0  0
 29 32  1  0  0  0  0
 29 31  1  0  0  0  0
 29 30  1  0  0  0  0
M  END
>  <minimizedAffinity>
-5.48222542

$$$$

 OpenBabel03272500283D

 32 34  0  0  0  0  0  0  0  0999 V2000
   36.8990   27.7750   34.6810 C   0  0  0  0  0  0  0  0  0  0  0  0
   36.0930   27.2530   35.2770 H   0  0  0  0  0  0  0  0  0  0  0  0
   36.5710   28.8550   34.7390 H   0  0  0  0  0  0  0  0  0  0  0  0
   36.8050   27.3150   33.3330 C   0  0  0  0  0  0  0  0  0  0  0  0
   36.7050   28.2120   32.3150 C   0  0  0  0  0  0  0  0  0  0  0  0
   36.6100   27.8110   30.9680 C   0  0  0  0  0  0  0  0  0  0  0  0
   36.6270   26.4450   30.7770 N   0  0  0  0  0  0  0  0  0  0  0  0
   36.7270   25.5840   31.8030 C   0  0  0  0  0  0  0  0  0  0  0  0
   36.8160   26.0150   33.0730 N   0  0  0  0  0  0  0  0  0  0  0  0
   36.6870   29.2960   32.4050 H   0  0  0  0  0  0  0  0  0  0  0  0
   36.5290   28.5060   30.1430 H   0  0  0  0  0  0  0  0  0  0  0  0
   36.7350   24.1610   31.4800 C   0  0  0  0  0  0  0  0  0  0  0  0
   35.6190   23.3670   31.5250 C   0  0  0  0  0  3  0  0  0  0  0  0
   35.7220   22.0370   31.2030 C   0  0  0  0  0  0  0  0  0  0  0  0
   34.7950   21.4580   31.2570 H   0  0  0  0  0  0  0  0  0  0  0  0
   36.8690   21.4630   30.8440 N   0  0  0  0  0  0  0  0  0  0  0  0
   37.9720   22.2670   30.8060 C   0  0  0  0  0  3  0  0  0  0  0  0
   37.9040   23.5940   31.1200 N   0  0  0  0  0  0  0  0  0  0  0  0
   38.1610   27.6910   35.4210 C   0  0  0  0  0  0  0  0  0  0  0  0
   38.1380   28.2220   36.4090 H   0  0  0  0  0  0  0  0  0  0  0  0
   39.0040   28.2170   34.8810 H   0  0  0  0  0  0  0  0  0  0  0  0
   38.6550   26.3260   35.6680 C   0  0  0  0  0  0  0  0  0  0  0  0
   39.7930   25.8510   35.0330 C   0  0  0  0  0  0  0  0  0  0  0  0
   40.0230   24.5640   35.4420 C   0  0  0  0  0  0  0  0  0  0  0  0
   39.0530   24.2630   36.3010 N   0  0  0  0  0  0  0  0  0  0  0  0
   38.2600   25.3120   36.4190 N   0  0  0  0  0  0  0  0  0  0  0  0
   40.4650   26.3240   34.3180 H   0  0  0  0  0  0  0  0  0  0  0  0
   40.7980   23.8400   35.1910 H   0  0  0  0  0  0  0  0  0  0  0  0
   38.8410   23.0120   37.0250 C   0  0  0  0  0  0  0  0  0  0  0  0
   39.8190   22.8410   37.9940 F   0  0  0  0  0  0  0  0  0  0  0  0
   38.8740   21.9210   36.1930 F   0  0  0  0  0  0  0  0  0  0  0  0
   37.6340   23.0160   37.6920 F   0  0  0  0  0  0  0  0  0  0  0  0
  1  3  1  0  0  0  0
  1  2  1  0  0  0  0
  1 19  1  0  0  0  0
  4  1  1  0  0  0  0
  5 10  1  0  0  0  0
  5  4  2  0  0  0  0
  6  5  1  0  0  0  0
  7  6  2  0  0  0  0
  7  8  1  0  0  0  0
  8  9  2  0  0  0  0
  9  4  1  0  0  0  0
 11  6  1  0  0  0  0
 12 13  1  0  0  0  0
 12  8  1  0  0  0  0
 14 15  1  0  0  0  0
 14 13  2  0  0  0  0
 16 14  1  0  0  0  0
 17 16  2  0  0  0  0
 17 18  1  0  0  0  0
 18 12  2  0  0  0  0
 19 22  1  0  0  0  0
 19 20  1  0  0  0  0
 21 19  1  0  0  0  0
 22 26  2  0  0  0  0
 23 24  2  0  0  0  0
 23 22  1  0  0  0  0
 24 25  1  0  0  0  0
 25 26  1  0  0  0  0
 25 29  1  0  0  0  0
 27 23  1  0  0  0  0
 28 24  1  0  0  0  0
 29 32  1  0  0  0  0
 29 30  1  0  0  0  0
 31 29  1  0  0  0  0
M  END
>  <minimizedAffinity>
-5.45031357

$$$$

 OpenBabel03272500283D

 32 34  0  0  0  0  0  0  0  0999 V2000
   38.3520   26.4960   35.1170 C   0  0  0  0  0  0  0  0  0  0  0  0
   38.7950   27.2010   35.8810 H   0  0  0  0  0  0  0  0  0  0  0  0
   39.2780   26.0360   34.6590 H   0  0  0  0  0  0  0  0  0  0  0  0
   37.6730   27.2850   34.1420 C   0  0  0  0  0  0  0  0  0  0  0  0
   38.1050   27.2910   32.8520 C   0  0  0  0  0  0  0  0  0  0  0  0
   37.4700   28.0530   31.8520 C   0  0  0  0  0  0  0  0  0  0  0  0
   36.3860   28.7830   32.2920 N   0  0  0  0  0  0  0  0  0  0  0  0
   35.9830   28.7570   33.5730 C   0  0  0  0  0  0  0  0  0  0  0  0
   36.6210   28.0130   34.4930 N   0  0  0  0  0  0  0  0  0  0  0  0
   38.9500   26.7380   32.4490 H   0  0  0  0  0  0  0  0  0  0  0  0
   37.7970   28.0730   30.8210 H   0  0  0  0  0  0  0  0  0  0  0  0
   34.8230   29.5690   33.9230 C   0  0  0  0  0  0  0  0  0  0  0  0
   34.8480   30.5550   34.8750 C   0  0  0  0  0  3  0  0  0  0  0  0
   33.7060   31.2700   35.1380 C   0  0  0  0  0  0  0  0  0  0  0  0
   33.7920   32.0440   35.9070 H   0  0  0  0  0  0  0  0  0  0  0  0
   32.5520   31.0540   34.5080 N   0  0  0  0  0  0  0  0  0  0  0  0
   32.5440   30.0680   33.5640 C   0  0  0  0  0  3  0  0  0  0  0  0
   33.6620   29.3380   33.2780 N   0  0  0  0  0  0  0  0  0  0  0  0
   37.6650   25.4110   35.8220 C   0  0  0  0  0  0  0  0  0  0  0  0
   36.9470   24.8380   35.1760 H   0  0  0  0  0  0  0  0  0  0  0  0
   36.9940   25.7990   36.6460 H   0  0  0  0  0  0  0  0  0  0  0  0
   38.5460   24.4280   36.4760 C   0  0  0  0  0  0  0  0  0  0  0  0
   38.2590   23.9410   37.7420 C   0  0  0  0  0  0  0  0  0  0  0  0
   39.2350   23.0490   38.1030 C   0  0  0  0  0  0  0  0  0  0  0  0
   40.0920   22.9960   37.0870 N   0  0  0  0  0  0  0  0  0  0  0  0
   39.6680   23.8130   36.1410 N   0  0  0  0  0  0  0  0  0  0  0  0
   37.4370   24.1530   38.4230 H   0  0  0  0  0  0  0  0  0  0  0  0
   39.3890   22.4500   39.0010 H   0  0  0  0  0  0  0  0  0  0  0  0
   41.3080   22.1940   36.9690 C   0  0  0  0  0  0  0  0  0  0  0  0
   41.3990   21.2950   38.0220 F   0  0  0  0  0  0  0  0  0  0  0  0
   42.4410   22.9690   36.9740 F   0  0  0  0  0  0  0  0  0  0  0  0
   41.3010   21.4390   35.8150 F   0  0  0  0  0  0  0  0  0  0  0  0
  1 19  1  0  0  0  0
  1  2  1  0  0  0  0
  3  1  1  0  0  0  0
  4  9  1  0  0  0  0
  4  1  1  0  0  0  0
  5  4  2  0  0  0  0
  6  7  2  0  0  0  0
  6  5  1  0  0  0  0
  7  8  1  0  0  0  0
  8 12  1  0  0  0  0
  8  9  2  0  0  0  0
 10  5  1  0  0  0  0
 11  6  1  0  0  0  0
 12 13  1  0  0  0  0
 13 14  2  0  0  0  0
 14 15  1  0  0  0  0
 16 14  1  0  0  0  0
 17 16  2  0  0  0  0
 18 17  1  0  0  0  0
 18 12  2  0  0  0  0
 19 22  1  0  0  0  0
 19 21  1  0  0  0  0
 20 19  1  0  0  0  0
 22 23  1  0  0  0  0
 23 24  2  0  0  0  0
 23 27  1  0  0  0  0
 24 28  1  0  0  0  0
 25 24  1  0  0  0  0
 26 22  2  0  0  0  0
 26 25  1  0  0  0  0
 29 31  1  0  0  0  0
 29 25  1  0  0  0  0
 29 30  1  0  0  0  0
 32 29  1  0  0  0  0
M  END
>  <minimizedAffinity>
-5.30732441

$$$$

 OpenBabel03272500283D

 32 34  0  0  0  0  0  0  0  0999 V2000
   36.8150   27.6050   34.6120 C   0  0  0  0  0  0  0  0  0  0  0  0
   36.1250   26.8100   35.0220 H   0  0  0  0  0  0  0  0  0  0  0  0
   36.3050   28.5550   34.9520 H   0  0  0  0  0  0  0  0  0  0  0  0
   36.7740   27.5200   33.1870 C   0  0  0  0  0  0  0  0  0  0  0  0
   36.6780   26.3060   32.5820 C   0  0  0  0  0  0  0  0  0  0  0  0
   36.6350   26.1680   31.1810 C   0  0  0  0  0  0  0  0  0  0  0  0
   36.6980   27.3580   30.4880 N   0  0  0  0  0  0  0  0  0  0  0  0
   36.7930   28.5430   31.1140 C   0  0  0  0  0  0  0  0  0  0  0  0
   36.8300   28.6240   32.4560 N   0  0  0  0  0  0  0  0  0  0  0  0
   36.6250   25.3380   33.0750 H   0  0  0  0  0  0  0  0  0  0  0  0
   36.5590   25.2130   30.6780 H   0  0  0  0  0  0  0  0  0  0  0  0
   36.8520   29.7360   30.2780 C   0  0  0  0  0  0  0  0  0  0  0  0
   36.3580   30.9560   30.6610 C   0  0  0  0  0  3  0  0  0  0  0  0
   36.4590   32.0260   29.8060 C   0  0  0  0  0  0  0  0  0  0  0  0
   36.0470   32.9710   30.1720 H   0  0  0  0  0  0  0  0  0  0  0  0
   37.0200   31.9420   28.6010 N   0  0  0  0  0  0  0  0  0  0  0  0
   37.5060   30.7210   28.2340 C   0  0  0  0  0  3  0  0  0  0  0  0
   37.4220   29.6360   29.0600 N   0  0  0  0  0  0  0  0  0  0  0  0
   38.0870   27.5430   35.3350 C   0  0  0  0  0  0  0  0  0  0  0  0
   38.1550   28.2680   36.1890 H   0  0  0  0  0  0  0  0  0  0  0  0
   38.9590   27.8500   34.6850 H   0  0  0  0  0  0  0  0  0  0  0  0
   38.4480   26.2140   35.8590 C   0  0  0  0  0  0  0  0  0  0  0  0
   39.2360   25.3440   35.1200 C   0  0  0  0  0  0  0  0  0  0  0  0
   39.4150   24.1910   35.8400 C   0  0  0  0  0  0  0  0  0  0  0  0
   38.7540   24.3550   36.9830 N   0  0  0  0  0  0  0  0  0  0  0  0
   38.1940   25.5500   36.9740 N   0  0  0  0  0  0  0  0  0  0  0  0
   39.6890   25.4470   34.1360 H   0  0  0  0  0  0  0  0  0  0  0  0
   39.9570   23.2700   35.6300 H   0  0  0  0  0  0  0  0  0  0  0  0
   38.6290   23.4190   38.0980 C   0  0  0  0  0  0  0  0  0  0  0  0
   39.5490   22.3870   37.9690 F   0  0  0  0  0  0  0  0  0  0  0  0
   37.3760   22.8630   38.1690 F   0  0  0  0  0  0  0  0  0  0  0  0
   38.9040   24.0330   39.3020 F   0  0  0  0  0  0  0  0  0  0  0  0
  1  3  1  0  0  0  0
  1  2  1  0  0  0  0
  1 19  1  0  0  0  0
  4  1  1  0  0  0  0
  5 10  1  0  0  0  0
  5  4  1  0  0  0  0
  6  5  2  0  0  0  0
  7  8  2  0  0  0  0
  7  6  1  0  0  0  0
  8  9  1  0  0  0  0
  9  4  2  0  0  0  0
 11  6  1  0  0  0  0
 12 13  1  0  0  0  0
 12  8  1  0  0  0  0
 14 15  1  0  0  0  0
 14 13  2  0  0  0  0
 16 14  1  0  0  0  0
 17 16  2  0  0  0  0
 17 18  1  0  0  0  0
 18 12  2  0  0  0  0
 19 22  1  0  0  0  0
 19 20  1  0  0  0  0
 21 19  1  0  0  0  0
 22 26  2  0  0  0  0
 23 24  2  0  0  0  0
 23 22  1  0  0  0  0
 24 25  1  0  0  0  0
 25 29  1  0  0  0  0
 26 25  1  0  0  0  0
 27 23  1  0  0  0  0
 28 24  1  0  0  0  0
 29 31  1  0  0  0  0
 29 32  1  0  0  0  0
 30 29  1  0  0  0  0
M  END
>  <minimizedAffinity>
-5.28260136

$$$$

 OpenBabel03272500283D

 32 34  0  0  0  0  0  0  0  0999 V2000
   37.5070   26.0260   33.5640 C   0  0  0  0  0  0  0  0  0  0  0  0
   36.8100   25.4820   34.2670 H   0  0  0  0  0  0  0  0  0  0  0  0
   38.3900   26.2480   34.2350 H   0  0  0  0  0  0  0  0  0  0  0  0
   36.8720   27.2470   33.1850 C   0  0  0  0  0  0  0  0  0  0  0  0
   36.7740   27.5820   31.8710 C   0  0  0  0  0  0  0  0  0  0  0  0
   36.1580   28.7750   31.4450 C   0  0  0  0  0  0  0  0  0  0  0  0
   35.6700   29.5610   32.4670 N   0  0  0  0  0  0  0  0  0  0  0  0
   35.7820   29.2040   33.7570 C   0  0  0  0  0  0  0  0  0  0  0  0
   36.3790   28.0540   34.1150 N   0  0  0  0  0  0  0  0  0  0  0  0
   37.1390   27.0040   31.0250 H   0  0  0  0  0  0  0  0  0  0  0  0
   36.0690   29.0620   30.4060 H   0  0  0  0  0  0  0  0  0  0  0  0
   35.2270   30.1150   34.7510 C   0  0  0  0  0  0  0  0  0  0  0  0
   35.9880   30.9790   35.4950 C   0  0  0  0  0  3  0  0  0  0  0  0
   35.3790   31.8020   36.4100 C   0  0  0  0  0  0  0  0  0  0  0  0
   36.0420   32.4690   36.9700 H   0  0  0  0  0  0  0  0  0  0  0  0
   34.0640   31.8070   36.6190 N   0  0  0  0  0  0  0  0  0  0  0  0
   33.3200   30.9410   35.8710 C   0  0  0  0  0  3  0  0  0  0  0  0
   33.8940   30.1080   34.9530 N   0  0  0  0  0  0  0  0  0  0  0  0
   37.9890   25.0810   32.5530 C   0  0  0  0  0  0  0  0  0  0  0  0
   39.0280   24.7050   32.7490 H   0  0  0  0  0  0  0  0  0  0  0  0
   38.0920   25.5650   31.5370 H   0  0  0  0  0  0  0  0  0  0  0  0
   37.1300   23.9050   32.3330 C   0  0  0  0  0  0  0  0  0  0  0  0
   36.2810   23.8330   31.2390 C   0  0  0  0  0  0  0  0  0  0  0  0
   35.6080   22.6410   31.2800 C   0  0  0  0  0  0  0  0  0  0  0  0
   36.0340   22.0050   32.3680 N   0  0  0  0  0  0  0  0  0  0  0  0
   36.9280   22.7650   32.9720 N   0  0  0  0  0  0  0  0  0  0  0  0
   36.0980   24.5350   30.4280 H   0  0  0  0  0  0  0  0  0  0  0  0
   34.8600   22.1950   30.6240 H   0  0  0  0  0  0  0  0  0  0  0  0
   35.6270   20.6930   32.8680 C   0  0  0  0  0  0  0  0  0  0  0  0
   36.6310   19.7600   32.6490 F   0  0  0  0  0  0  0  0  0  0  0  0
   34.4850   20.2380   32.2580 F   0  0  0  0  0  0  0  0  0  0  0  0
   35.4140   20.7190   34.2300 F   0  0  0  0  0  0  0  0  0  0  0  0
  1  3  1  0  0  0  0
  1  2  1  0  0  0  0
  4  1  1  0  0  0  0
  4  9  1  0  0  0  0
  5  4  2  0  0  0  0
  6  5  1  0  0  0  0
  6  7  2  0  0  0  0
  7  8  1  0  0  0  0
  8  9  2  0  0  0  0
  8 12  1  0  0  0  0
 10  5  1  0  0  0  0
 11  6  1  0  0  0  0
 12 18  2  0  0  0  0
 12 13  1  0  0  0  0
 13 14  2  0  0  0  0
 14 16  1  0  0  0  0
 14 15  1  0  0  0  0
 17 16  2  0  0  0  0
 18 17  1  0  0  0  0
 19 20  1  0  0  0  0
 19  1  1  0  0  0  0
 21 19  1  0  0  0  0
 22 19  1  0  0  0  0
 22 26  2  0  0  0  0
 23 24  2  0  0  0  0
 23 22  1  0  0  0  0
 24 25  1  0  0  0  0
 25 29  1  0  0  0  0
 25 26  1  0  0  0  0
 27 23  1  0  0  0  0
 28 24  1  0  0  0  0
 29 32  1  0  0  0  0
 30 29  1  0  0  0  0
 31 29  1  0  0  0  0
M  END
>  <minimizedAffinity>
-5.22581196

$$$$
