
 OpenBabel03272500363D

 19 20  0  0  0  0  0  0  0  0999 V2000
   38.4170   23.8820   37.0280 C   0  0  0  0  0  0  0  0  0  0  0  0
   39.1540   22.8670   36.4080 C   0  0  0  0  0  0  0  0  0  0  0  0
   39.2990   22.9290   35.0170 C   0  0  0  0  0  0  0  0  0  0  0  0
   38.7190   23.9650   34.3530 N   0  0  0  0  0  0  0  0  0  0  0  0
   38.0160   24.9250   34.9940 C   0  0  0  0  0  0  0  0  0  0  0  0
   37.8690   24.8800   36.3230 N   0  0  0  0  0  0  0  0  0  0  0  0
   39.6130   22.0430   36.9450 H   0  0  0  0  0  0  0  0  0  0  0  0
   39.8500   22.1900   34.4530 H   0  0  0  0  0  0  0  0  0  0  0  0
   37.4140   26.0160   34.2360 C   0  0  0  0  0  0  0  0  0  0  0  0
   37.0260   27.1780   34.8960 C   0  0  0  0  0  3  0  0  0  0  0  0
   36.4490   28.2640   34.2660 C   0  0  0  0  0  0  0  0  0  0  0  0
   36.1580   29.1540   34.8030 H   0  0  0  0  0  0  0  0  0  0  0  0
   36.2620   28.1580   32.9240 N   0  0  0  0  0  0  0  0  0  0  0  0
   36.6370   27.0260   32.2690 C   0  0  0  0  0  3  0  0  0  0  0  0
   37.2040   25.9700   32.9110 N   0  0  0  0  0  0  0  0  0  0  0  0
   38.2590   23.8220   38.5170 C   0  0  0  0  0  0  0  0  0  0  0  0
   37.9200   25.0710   39.0080 F   0  0  0  0  0  0  0  0  0  0  0  0
   37.3130   22.8620   38.7970 F   0  0  0  0  0  0  0  0  0  0  0  0
   39.4920   23.4930   39.0620 F   0  0  0  0  0  0  0  0  0  0  0  0
  1 16  1  0  0  0  0
  2  7  1  0  0  0  0
  2  1  1  0  0  0  0
  3  2  2  0  0  0  0
  4  5  2  0  0  0  0
  4  3  1  0  0  0  0
  5  6  1  0  0  0  0
  6  1  2  0  0  0  0
  8  3  1  0  0  0  0
  9 10  1  0  0  0  0
  9  5  1  0  0  0  0
 11 12  1  0  0  0  0
 11 10  2  0  0  0  0
 13 11  1  0  0  0  0
 14 15  1  0  0  0  0
 14 13  2  0  0  0  0
 15  9  2  0  0  0  0
 16 18  1  0  0  0  0
 16 17  1  0  0  0  0
 16 19  1  0  0  0  0
M  END
>  <minimizedAffinity>
-5.03790474

$$$$

 OpenBabel03272500363D

 19 20  0  0  0  0  0  0  0  0999 V2000
   38.5100   24.0840   37.0250 C   0  0  0  0  0  0  0  0  0  0  0  0
   39.4070   23.1960   36.4220 C   0  0  0  0  0  0  0  0  0  0  0  0
   39.6200   23.3250   35.0440 C   0  0  0  0  0  0  0  0  0  0  0  0
   38.9470   24.2990   34.3750 N   0  0  0  0  0  0  0  0  0  0  0  0
   38.0890   25.1370   34.9990 C   0  0  0  0  0  0  0  0  0  0  0  0
   37.8750   25.0260   36.3150 N   0  0  0  0  0  0  0  0  0  0  0  0
   39.9400   22.4200   36.9640 H   0  0  0  0  0  0  0  0  0  0  0  0
   40.2950   22.6840   34.4950 H   0  0  0  0  0  0  0  0  0  0  0  0
   37.3910   26.1660   34.2370 C   0  0  0  0  0  0  0  0  0  0  0  0
   36.9860   27.3350   34.8730 C   0  0  0  0  0  3  0  0  0  0  0  0
   36.3210   28.3660   34.2370 C   0  0  0  0  0  0  0  0  0  0  0  0
   36.0180   29.2630   34.7550 H   0  0  0  0  0  0  0  0  0  0  0  0
   36.0620   28.1960   32.9130 N   0  0  0  0  0  0  0  0  0  0  0  0
   36.4540   27.0570   32.2820 C   0  0  0  0  0  3  0  0  0  0  0  0
   37.1080   26.0560   32.9290 N   0  0  0  0  0  0  0  0  0  0  0  0
   38.2780   23.9520   38.4990 C   0  0  0  0  0  0  0  0  0  0  0  0
   39.4180   23.4650   39.1160 F   0  0  0  0  0  0  0  0  0  0  0  0
   37.9000   25.1870   38.9740 F   0  0  0  0  0  0  0  0  0  0  0  0
   37.2790   23.0080   38.6880 F   0  0  0  0  0  0  0  0  0  0  0  0
  1 16  1  0  0  0  0
  2  7  1  0  0  0  0
  2  1  1  0  0  0  0
  3  2  2  0  0  0  0
  4  5  2  0  0  0  0
  4  3  1  0  0  0  0
  5  6  1  0  0  0  0
  6  1  2  0  0  0  0
  8  3  1  0  0  0  0
  9 10  1  0  0  0  0
  9  5  1  0  0  0  0
 11 12  1  0  0  0  0
 11 10  2  0  0  0  0
 13 11  1  0  0  0  0
 14 13  2  0  0  0  0
 14 15  1  0  0  0  0
 15  9  2  0  0  0  0
 16 19  1  0  0  0  0
 16 18  1  0  0  0  0
 16 17  1  0  0  0  0
M  END
>  <minimizedAffinity>
-4.97501993

$$$$

 OpenBabel03272500363D

 19 20  0  0  0  0  0  0  0  0999 V2000
   38.7680   23.0340   36.8790 C   0  0  0  0  0  0  0  0  0  0  0  0
   40.1330   22.8350   36.6460 C   0  0  0  0  0  0  0  0  0  0  0  0
   40.5100   22.3340   35.3940 C   0  0  0  0  0  0  0  0  0  0  0  0
   39.5350   22.0710   34.4830 N   0  0  0  0  0  0  0  0  0  0  0  0
   38.2260   22.2800   34.7520 C   0  0  0  0  0  0  0  0  0  0  0  0
   37.8500   22.7580   35.9430 N   0  0  0  0  0  0  0  0  0  0  0  0
   40.9050   23.0460   37.3790 H   0  0  0  0  0  0  0  0  0  0  0  0
   41.5400   22.1490   35.1250 H   0  0  0  0  0  0  0  0  0  0  0  0
   37.2180   21.9820   33.7400 C   0  0  0  0  0  0  0  0  0  0  0  0
   36.2720   20.9920   33.9850 C   0  0  0  0  0  3  0  0  0  0  0  0
   35.2790   20.6390   33.0910 C   0  0  0  0  0  0  0  0  0  0  0  0
   34.5580   19.8670   33.3060 H   0  0  0  0  0  0  0  0  0  0  0  0
   35.2550   21.3170   31.9130 N   0  0  0  0  0  0  0  0  0  0  0  0
   36.1760   22.2870   31.6640 C   0  0  0  0  0  3  0  0  0  0  0  0
   37.1430   22.6170   32.5600 N   0  0  0  0  0  0  0  0  0  0  0  0
   38.3580   23.5700   38.2160 C   0  0  0  0  0  0  0  0  0  0  0  0
   37.2710   22.8600   38.6990 F   0  0  0  0  0  0  0  0  0  0  0  0
   39.4530   23.5010   39.0470 F   0  0  0  0  0  0  0  0  0  0  0  0
   37.9390   24.8810   38.0380 F   0  0  0  0  0  0  0  0  0  0  0  0
  1 16  1  0  0  0  0
  2  1  1  0  0  0  0
  2  7  1  0  0  0  0
  3  2  2  0  0  0  0
  4  5  2  0  0  0  0
  4  3  1  0  0  0  0
  5  6  1  0  0  0  0
  6  1  2  0  0  0  0
  8  3  1  0  0  0  0
  9 10  1  0  0  0  0
  9  5  1  0  0  0  0
 11 12  1  0  0  0  0
 11 10  2  0  0  0  0
 13 11  1  0  0  0  0
 14 13  2  0  0  0  0
 14 15  1  0  0  0  0
 15  9  2  0  0  0  0
 16 17  1  0  0  0  0
 16 18  1  0  0  0  0
 19 16  1  0  0  0  0
M  END
>  <minimizedAffinity>
-4.78108644

$$$$

 OpenBabel03272500363D

 19 20  0  0  0  0  0  0  0  0999 V2000
   38.1470   23.9990   36.9160 C   0  0  0  0  0  0  0  0  0  0  0  0
   38.1590   25.3260   36.4720 C   0  0  0  0  0  0  0  0  0  0  0  0
   38.1260   25.5470   35.0900 C   0  0  0  0  0  0  0  0  0  0  0  0
   38.0850   24.4660   34.2640 N   0  0  0  0  0  0  0  0  0  0  0  0
   38.0740   23.2010   34.7380 C   0  0  0  0  0  0  0  0  0  0  0  0
   38.1040   22.9740   36.0560 N   0  0  0  0  0  0  0  0  0  0  0  0
   38.1930   26.1830   37.1380 H   0  0  0  0  0  0  0  0  0  0  0  0
   38.1330   26.5370   34.6560 H   0  0  0  0  0  0  0  0  0  0  0  0
   38.0280   22.0760   33.8110 C   0  0  0  0  0  0  0  0  0  0  0  0
   36.8110   21.4570   33.5430 C   0  0  0  0  0  3  0  0  0  0  0  0
   36.6660   20.3870   32.6800 C   0  0  0  0  0  0  0  0  0  0  0  0
   35.7100   19.9250   32.4890 H   0  0  0  0  0  0  0  0  0  0  0  0
   37.7990   19.9370   32.0760 N   0  0  0  0  0  0  0  0  0  0  0  0
   38.9930   20.5340   32.3320 C   0  0  0  0  0  3  0  0  0  0  0  0
   39.1110   21.5870   33.1850 N   0  0  0  0  0  0  0  0  0  0  0  0
   38.1810   23.7560   38.3940 C   0  0  0  0  0  0  0  0  0  0  0  0
   37.9560   24.9410   39.0750 F   0  0  0  0  0  0  0  0  0  0  0  0
   37.2430   22.7900   38.6790 F   0  0  0  0  0  0  0  0  0  0  0  0
   39.4610   23.3350   38.7250 F   0  0  0  0  0  0  0  0  0  0  0  0
  1 16  1  0  0  0  0
  2  1  1  0  0  0  0
  2  7  1  0  0  0  0
  3  2  2  0  0  0  0
  4  5  2  0  0  0  0
  4  3  1  0  0  0  0
  5  6  1  0  0  0  0
  6  1  2  0  0  0  0
  8  3  1  0  0  0  0
  9  5  1  0  0  0  0
 10  9  1  0  0  0  0
 11 10  2  0  0  0  0
 12 11  1  0  0  0  0
 13 14  2  0  0  0  0
 13 11  1  0  0  0  0
 14 15  1  0  0  0  0
 15  9  2  0  0  0  0
 16 18  1  0  0  0  0
 16 19  1  0  0  0  0
 16 17  1  0  0  0  0
M  END
>  <minimizedAffinity>
-4.70334148

$$$$

 OpenBabel03272500363D

 19 20  0  0  0  0  0  0  0  0999 V2000
   39.9560   23.0620   37.0310 C   0  0  0  0  0  0  0  0  0  0  0  0
   39.2950   23.0430   38.2630 C   0  0  0  0  0  0  0  0  0  0  0  0
   38.1320   23.8120   38.3870 C   0  0  0  0  0  0  0  0  0  0  0  0
   37.7140   24.5290   37.3090 N   0  0  0  0  0  0  0  0  0  0  0  0
   38.3840   24.5160   36.1350 C   0  0  0  0  0  0  0  0  0  0  0  0
   39.4970   23.7860   36.0020 N   0  0  0  0  0  0  0  0  0  0  0  0
   39.6360   22.4690   39.1200 H   0  0  0  0  0  0  0  0  0  0  0  0
   37.5560   23.8580   39.3010 H   0  0  0  0  0  0  0  0  0  0  0  0
   37.8940   25.3020   35.0080 C   0  0  0  0  0  0  0  0  0  0  0  0
   37.4690   26.6100   35.2180 C   0  0  0  0  0  3  0  0  0  0  0  0
   36.9890   27.4330   34.2160 C   0  0  0  0  0  0  0  0  0  0  0  0
   36.6660   28.4440   34.4060 H   0  0  0  0  0  0  0  0  0  0  0  0
   36.9430   26.9010   32.9650 N   0  0  0  0  0  0  0  0  0  0  0  0
   37.3570   25.6230   32.7500 C   0  0  0  0  0  3  0  0  0  0  0  0
   37.8250   24.8340   33.7530 N   0  0  0  0  0  0  0  0  0  0  0  0
   41.2010   22.2400   36.8920 C   0  0  0  0  0  0  0  0  0  0  0  0
   41.3140   21.3670   37.9600 F   0  0  0  0  0  0  0  0  0  0  0  0
   41.1410   21.5950   35.6780 F   0  0  0  0  0  0  0  0  0  0  0  0
   42.2870   23.1020   36.9550 F   0  0  0  0  0  0  0  0  0  0  0  0
  1  2  1  0  0  0  0
  2  3  2  0  0  0  0
  2  7  1  0  0  0  0
  3  8  1  0  0  0  0
  4  3  1  0  0  0  0
  5  4  2  0  0  0  0
  6  5  1  0  0  0  0
  6  1  2  0  0  0  0
  9 10  1  0  0  0  0
  9  5  1  0  0  0  0
 11 12  1  0  0  0  0
 11 10  2  0  0  0  0
 13 11  1  0  0  0  0
 14 13  2  0  0  0  0
 14 15  1  0  0  0  0
 15  9  2  0  0  0  0
 16 19  1  0  0  0  0
 16  1  1  0  0  0  0
 16 17  1  0  0  0  0
 18 16  1  0  0  0  0
M  END
>  <minimizedAffinity>
-4.66116476

$$$$

 OpenBabel03272500363D

 19 20  0  0  0  0  0  0  0  0999 V2000
   36.4160   21.3790   32.9800 C   0  0  0  0  0  0  0  0  0  0  0  0
   36.5990   22.3260   31.9660 C   0  0  0  0  0  0  0  0  0  0  0  0
   37.4400   23.4120   32.2370 C   0  0  0  0  0  0  0  0  0  0  0  0
   38.0270   23.4840   33.4620 N   0  0  0  0  0  0  0  0  0  0  0  0
   37.8220   22.5450   34.4120 C   0  0  0  0  0  0  0  0  0  0  0  0
   37.0210   21.5020   34.1680 N   0  0  0  0  0  0  0  0  0  0  0  0
   36.1260   22.2620   30.9900 H   0  0  0  0  0  0  0  0  0  0  0  0
   37.6400   24.1910   31.5140 H   0  0  0  0  0  0  0  0  0  0  0  0
   38.4750   22.6680   35.7110 C   0  0  0  0  0  0  0  0  0  0  0  0
   37.8000   23.2780   36.7630 C   0  0  0  0  0  3  0  0  0  0  0  0
   38.3330   23.4410   38.0280 C   0  0  0  0  0  0  0  0  0  0  0  0
   37.7870   23.9180   38.8270 H   0  0  0  0  0  0  0  0  0  0  0  0
   39.5940   22.9680   38.2200 N   0  0  0  0  0  0  0  0  0  0  0  0
   40.2620   22.3700   37.1970 C   0  0  0  0  0  3  0  0  0  0  0  0
   39.7150   22.2210   35.9610 N   0  0  0  0  0  0  0  0  0  0  0  0
   35.5180   20.2150   32.6960 C   0  0  0  0  0  0  0  0  0  0  0  0
   36.0040   19.4920   31.6190 F   0  0  0  0  0  0  0  0  0  0  0  0
   35.4310   19.4650   33.8470 F   0  0  0  0  0  0  0  0  0  0  0  0
   34.2790   20.7160   32.3220 F   0  0  0  0  0  0  0  0  0  0  0  0
  1  6  1  0  0  0  0
  2  3  1  0  0  0  0
  2  1  2  0  0  0  0
  3  4  2  0  0  0  0
  4  5  1  0  0  0  0
  5  9  1  0  0  0  0
  6  5  2  0  0  0  0
  7  2  1  0  0  0  0
  8  3  1  0  0  0  0
  9 15  2  0  0  0  0
  9 10  1  0  0  0  0
 10 11  2  0  0  0  0
 11 13  1  0  0  0  0
 11 12  1  0  0  0  0
 14 13  2  0  0  0  0
 15 14  1  0  0  0  0
 16  1  1  0  0  0  0
 16 18  1  0  0  0  0
 17 16  1  0  0  0  0
 19 16  1  0  0  0  0
M  END
>  <minimizedAffinity>
-4.61772394

$$$$

 OpenBabel03272500363D

 19 20  0  0  0  0  0  0  0  0999 V2000
   38.2770   23.6230   36.9360 C   0  0  0  0  0  0  0  0  0  0  0  0
   37.7160   22.5110   36.3010 C   0  0  0  0  0  0  0  0  0  0  0  0
   37.8440   22.4250   34.9090 C   0  0  0  0  0  0  0  0  0  0  0  0
   38.5040   23.4220   34.2590 N   0  0  0  0  0  0  0  0  0  0  0  0
   39.0320   24.4800   34.9150 C   0  0  0  0  0  0  0  0  0  0  0  0
   38.9170   24.5750   36.2440 N   0  0  0  0  0  0  0  0  0  0  0  0
   37.1900   21.7190   36.8270 H   0  0  0  0  0  0  0  0  0  0  0  0
   37.4430   21.6020   34.3350 H   0  0  0  0  0  0  0  0  0  0  0  0
   39.7300   25.5230   34.1720 C   0  0  0  0  0  0  0  0  0  0  0  0
   40.9710   25.9670   34.6170 C   0  0  0  0  0  3  0  0  0  0  0  0
   41.7090   26.9490   33.9820 C   0  0  0  0  0  0  0  0  0  0  0  0
   42.6700   27.2750   34.3480 H   0  0  0  0  0  0  0  0  0  0  0  0
   41.1610   27.4900   32.8610 N   0  0  0  0  0  0  0  0  0  0  0  0
   39.9480   27.0630   32.4190 C   0  0  0  0  0  3  0  0  0  0  0  0
   39.2410   26.0940   33.0610 N   0  0  0  0  0  0  0  0  0  0  0  0
   38.1430   23.7210   38.4250 C   0  0  0  0  0  0  0  0  0  0  0  0
   37.7740   25.0060   38.7850 F   0  0  0  0  0  0  0  0  0  0  0  0
   37.2300   22.7710   38.8240 F   0  0  0  0  0  0  0  0  0  0  0  0
   39.3930   23.4870   38.9800 F   0  0  0  0  0  0  0  0  0  0  0  0
  1 16  1  0  0  0  0
  2  7  1  0  0  0  0
  2  1  1  0  0  0  0
  3  2  2  0  0  0  0
  4  3  1  0  0  0  0
  4  5  2  0  0  0  0
  5  6  1  0  0  0  0
  6  1  2  0  0  0  0
  8  3  1  0  0  0  0
  9 10  1  0  0  0  0
  9  5  1  0  0  0  0
 11 12  1  0  0  0  0
 11 10  2  0  0  0  0
 13 11  1  0  0  0  0
 14 13  2  0  0  0  0
 14 15  1  0  0  0  0
 15  9  2  0  0  0  0
 16 17  1  0  0  0  0
 16 18  1  0  0  0  0
 16 19  1  0  0  0  0
M  END
>  <minimizedAffinity>
-4.46942854

$$$$

 OpenBabel03272500363D

 19 20  0  0  0  0  0  0  0  0999 V2000
   37.3730   26.8940   33.9490 C   0  0  0  0  0  0  0  0  0  0  0  0
   36.7010   27.8860   33.2270 C   0  0  0  0  0  0  0  0  0  0  0  0
   36.0650   27.5050   32.0390 C   0  0  0  0  0  0  0  0  0  0  0  0
   36.1360   26.2010   31.6590 N   0  0  0  0  0  0  0  0  0  0  0  0
   36.7970   25.2750   32.3890 C   0  0  0  0  0  0  0  0  0  0  0  0
   37.4100   25.6240   33.5260 N   0  0  0  0  0  0  0  0  0  0  0  0
   36.6500   28.9250   33.5380 H   0  0  0  0  0  0  0  0  0  0  0  0
   35.5220   28.2030   31.4180 H   0  0  0  0  0  0  0  0  0  0  0  0
   36.8440   23.8890   31.9370 C   0  0  0  0  0  0  0  0  0  0  0  0
   35.6630   23.2420   31.5850 C   0  0  0  0  0  3  0  0  0  0  0  0
   35.6050   21.9330   31.1460 C   0  0  0  0  0  0  0  0  0  0  0  0
   34.6760   21.4550   30.8790 H   0  0  0  0  0  0  0  0  0  0  0  0
   36.7880   21.2670   31.0660 N   0  0  0  0  0  0  0  0  0  0  0  0
   37.9480   21.8900   31.4080 C   0  0  0  0  0  3  0  0  0  0  0  0
   37.9790   23.1800   31.8370 N   0  0  0  0  0  0  0  0  0  0  0  0
   38.0560   27.2950   35.2210 C   0  0  0  0  0  0  0  0  0  0  0  0
   39.4210   27.3950   35.0150 F   0  0  0  0  0  0  0  0  0  0  0  0
   37.4910   28.4780   35.6410 F   0  0  0  0  0  0  0  0  0  0  0  0
   37.8580   26.2810   36.1470 F   0  0  0  0  0  0  0  0  0  0  0  0
  1 16  1  0  0  0  0
  2  7  1  0  0  0  0
  2  1  2  0  0  0  0
  3  2  1  0  0  0  0
  4  3  2  0  0  0  0
  4  5  1  0  0  0  0
  5  6  2  0  0  0  0
  6  1  1  0  0  0  0
  8  3  1  0  0  0  0
  9  5  1  0  0  0  0
 10  9  2  0  0  0  0
 11 10  1  0  0  0  0
 12 11  1  0  0  0  0
 13 11  2  0  0  0  0
 13 14  1  0  0  0  0
 14 15  2  0  0  0  0
 15  9  1  0  0  0  0
 16 18  1  0  0  0  0
 16 19  1  0  0  0  0
 17 16  1  0  0  0  0
M  END
>  <minimizedAffinity>
-4.38308668

$$$$

 OpenBabel03272500363D

 19 20  0  0  0  0  0  0  0  0999 V2000
   35.9670   23.5830   31.7230 C   0  0  0  0  0  0  0  0  0  0  0  0
   35.1810   24.3760   30.8800 C   0  0  0  0  0  0  0  0  0  0  0  0
   35.3220   25.7650   30.9780 C   0  0  0  0  0  0  0  0  0  0  0  0
   36.2090   26.2620   31.8820 N   0  0  0  0  0  0  0  0  0  0  0  0
   36.9490   25.4580   32.6770 C   0  0  0  0  0  0  0  0  0  0  0  0
   36.8260   24.1280   32.5950 N   0  0  0  0  0  0  0  0  0  0  0  0
   34.4740   23.9710   30.1610 H   0  0  0  0  0  0  0  0  0  0  0  0
   34.7560   26.4540   30.3670 H   0  0  0  0  0  0  0  0  0  0  0  0
   37.8880   26.0400   33.6300 C   0  0  0  0  0  0  0  0  0  0  0  0
   37.4040   26.6500   34.7840 C   0  0  0  0  0  3  0  0  0  0  0  0
   38.2120   27.2280   35.7440 C   0  0  0  0  0  0  0  0  0  0  0  0
   37.8100   27.6940   36.6300 H   0  0  0  0  0  0  0  0  0  0  0  0
   39.5520   27.1820   35.5180 N   0  0  0  0  0  0  0  0  0  0  0  0
   40.0340   26.5890   34.3930 C   0  0  0  0  0  3  0  0  0  0  0  0
   39.2190   26.0250   33.4620 N   0  0  0  0  0  0  0  0  0  0  0  0
   35.8210   22.0960   31.6230 C   0  0  0  0  0  0  0  0  0  0  0  0
   35.1570   21.7630   30.4540 F   0  0  0  0  0  0  0  0  0  0  0  0
   37.0810   21.5480   31.6970 F   0  0  0  0  0  0  0  0  0  0  0  0
   35.0220   21.6760   32.6770 F   0  0  0  0  0  0  0  0  0  0  0  0
  1  6  1  0  0  0  0
  2  3  1  0  0  0  0
  2  1  2  0  0  0  0
  3  4  2  0  0  0  0
  4  5  1  0  0  0  0
  5  9  1  0  0  0  0
  6  5  2  0  0  0  0
  7  2  1  0  0  0  0
  8  3  1  0  0  0  0
  9 10  1  0  0  0  0
 10 11  2  0  0  0  0
 11 12  1  0  0  0  0
 13 11  1  0  0  0  0
 14 13  2  0  0  0  0
 15  9  2  0  0  0  0
 15 14  1  0  0  0  0
 16 18  1  0  0  0  0
 16  1  1  0  0  0  0
 16 19  1  0  0  0  0
 17 16  1  0  0  0  0
M  END
>  <minimizedAffinity>
-4.33738899

$$$$
