REMARK  Name = 
REMARK  3 active torsions:
REMARK  status: ('A' for Active; 'I' for Inactive)
REMARK    1  A    between atoms: C_1  and  C_16
REMARK    2  A    between atoms: C_3  and  C_4
REMARK    3  A    between atoms: C_18  and  C_33
REMARK                            x       y       z     vdW  Elec       q    Type
REMARK                         _______ _______ _______ _____ _____    ______ ____
ROOT
ATOM      1  C   UNL     1      37.558  32.064  48.502  0.00  0.00    +0.000 C 
ATOM      2  C   UNL     1      38.794  32.794  48.837  0.00  0.00    +0.000 C 
ATOM      3  C   UNL     1      38.935  31.636  47.918  0.00  0.00    +0.000 C 
ATOM      4  H   UNL     1      36.912  32.406  47.710  0.00  0.00    +0.000 HD
ATOM      5  H   UNL     1      38.713  33.846  48.616  0.00  0.00    +0.000 HD
ATOM      6  H   UNL     1      39.123  32.636  49.913  0.00  0.00    +0.000 HD
ATOM      7  H   UNL     1      39.060  30.578  48.076  0.00  0.00    +0.000 HD
ENDROOT
BRANCH   3   8
ATOM      8  C   UNL     1      39.299  32.101  46.554  0.00  0.00    +0.000 A 
ATOM      9  C   UNL     1      39.753  33.423  46.587  0.00  0.00    +0.000 A 
ATOM     10  C   UNL     1      40.222  34.038  45.445  0.00  0.00    +0.000 A 
ATOM     11  C   UNL     1      40.261  33.368  44.228  0.00  0.00    +0.000 A 
ATOM     12  C   UNL     1      39.811  32.068  44.214  0.00  0.00    +0.000 A 
ATOM     13  C   UNL     1      39.764  31.265  43.099  0.00  0.00    +0.000 A 
ATOM     14  C   UNL     1      39.304  29.965  43.069  0.00  0.00    +0.000 A 
ATOM     15  C   UNL     1      38.849  29.408  44.250  0.00  0.00    +0.000 A 
ATOM     16  C   UNL     1      38.884  30.185  45.374  0.00  0.00    +0.000 A 
ATOM     17  C   UNL     1      39.352  31.476  45.353  0.00  0.00    +0.000 A 
ATOM     18  H   UNL     1      39.878  34.191  47.320  0.00  0.00    +0.000 HD
ATOM     19  H   UNL     1      40.603  35.039  45.301  0.00  0.00    +0.000 HD
ATOM     20  H   UNL     1      40.593  33.699  43.251  0.00  0.00    +0.000 HD
ATOM     21  H   UNL     1      40.121  31.683  42.144  0.00  0.00    +0.000 HD
ATOM     22  H   UNL     1      39.293  29.385  42.156  0.00  0.00    +0.000 HD
ATOM     23  H   UNL     1      38.473  28.396  44.312  0.00  0.00    +0.000 HD
ATOM     24  H   UNL     1      38.516  29.719  46.307  0.00  0.00    +0.000 HD
ENDBRANCH   3   8
BRANCH   1  27
ATOM     25  C   UNL     1      35.295  29.573  50.203  0.00  0.00    +0.000 A 
ATOM     26  C   UNL     1      35.802  30.490  49.236  0.00  0.00    +0.000 A 
ATOM     27  C   UNL     1      37.011  31.100  49.479  0.00  0.00    +0.000 A 
ATOM     28  N   UNL     1      37.634  30.772  50.641  0.00  0.00    +0.000 NA
ATOM     29  C   UNL     1      37.156  29.909  51.550  0.00  0.00    +0.000 A 
ATOM     30  N   UNL     1      35.964  29.298  51.326  0.00  0.00    +0.000 NA
ATOM     31  H   UNL     1      34.343  29.100  50.002  0.00  0.00    +0.000 HD
ATOM     32  H   UNL     1      35.281  30.727  48.323  0.00  0.00    +0.000 HD
BRANCH  29  33
ATOM     33  C   UNL     1      37.893  29.614  52.773  0.00  0.00    +0.000 A 
ATOM     34  C   UNL     1      39.002  28.810  52.728  0.00  0.00    +0.000 A 
ATOM     35  C   UNL     1      39.683  28.550  53.922  0.00  0.00    +0.000 A 
ATOM     36  H   UNL     1      40.567  27.935  54.022  0.00  0.00    +0.000 HD
ATOM     37  N   UNL     1      39.244  29.091  55.094  0.00  0.00    +0.000 NA
ATOM     38  C   UNL     1      38.146  29.878  55.092  0.00  0.00    +0.000 A 
ATOM     39  N   UNL     1      37.482  30.137  53.955  0.00  0.00    +0.000 NA
ENDBRANCH  29  33
ENDBRANCH   1  27
TORSDOF 3
