
 OpenBabel03272508183D

 23 25  0  0  0  0  0  0  0  0999 V2000
   37.1800   31.2210   49.6070 C   0  0  0  0  0  0  0  0  0  0  0  0
   36.2660   30.3490   49.0190 C   0  0  0  0  0  0  0  0  0  0  0  0
   35.8980   29.2640   49.8600 C   0  0  0  0  0  0  0  0  0  0  0  0
   36.4100   29.1290   51.1220 N   0  0  0  0  0  0  0  0  0  0  0  0
   37.2880   30.0210   51.6160 C   0  0  0  0  0  0  0  0  0  0  0  0
   37.6680   31.0680   50.8430 N   0  0  0  0  0  0  0  0  0  0  0  0
   35.2110   28.4640   49.6230 H   0  0  0  0  0  0  0  0  0  0  0  0
   37.7510   30.0160   52.5880 H   0  0  0  0  0  0  0  0  0  0  0  0
   37.5610   32.4120   48.7640 C   0  0  0  0  0  0  0  0  0  0  0  0
   38.7090   33.2300   49.0940 C   0  0  0  0  0  0  0  0  0  0  0  0
   38.9020   32.1800   48.0280 C   0  0  0  0  0  0  0  0  0  0  0  0
   36.7810   32.6720   48.0210 H   0  0  0  0  0  0  0  0  0  0  0  0
   38.7610   34.3050   48.8270 H   0  0  0  0  0  0  0  0  0  0  0  0
   39.1690   33.0250   50.1000 H   0  0  0  0  0  0  0  0  0  0  0  0
   39.4630   31.2810   48.2580 H   0  0  0  0  0  0  0  0  0  0  0  0
   38.9230   32.6250   47.0190 H   0  0  0  0  0  0  0  0  0  0  0  0
   35.6250   30.2430   47.7620 C   0  0  0  0  0  0  0  0  0  0  0  0
   36.1140   30.1750   46.4910 C   0  0  0  0  0  0  0  0  0  0  0  0
   35.4130   30.1390   45.3350 C   0  0  0  0  0  0  0  0  0  0  0  0
   35.8040   30.0850   44.3410 H   0  0  0  0  0  0  0  0  0  0  0  0
   34.0660   30.1760   45.4420 N   0  0  0  0  0  0  0  0  0  0  0  0
   33.4950   30.2460   46.6520 C   0  0  0  0  0  0  0  0  0  0  0  0
   34.2620   30.2760   47.7450 N   0  0  0  0  0  0  0  0  0  0  0  0
  1  6  1  0  0  0  0
  2  1  2  0  0  0  0
  2  3  1  0  0  0  0
  3  4  2  0  0  0  0
  4  5  1  0  0  0  0
  5  8  1  0  0  0  0
  6  5  2  0  0  0  0
  7  3  1  0  0  0  0
  9 10  1  0  0  0  0
  9  1  1  0  0  0  0
 10 14  1  0  0  0  0
 11 15  1  0  0  0  0
 11  9  1  0  0  0  0
 11 10  1  0  0  0  0
 12  9  1  0  0  0  0
 13 10  1  0  0  0  0
 16 11  1  0  0  0  0
 17  2  1  0  0  0  0
 18 17  2  0  0  0  0
 19 21  2  0  0  0  0
 19 18  1  0  0  0  0
 20 19  1  0  0  0  0
 21 22  1  0  0  0  0
 22 23  2  0  0  0  0
 23 17  1  0  0  0  0
M  END
>  <minimizedAffinity>
-4.83834076

>  <minimizedRMSD>
5.36882877

$$$$
