
     RDKit          3D

 29 31  0  0  0  0  0  0  0  0999 V2000
   36.9917   31.4144   48.5560 N   0  0  0  0  0  0  0  0  0  0  0  0
   37.1670   32.1567   49.6668 C   0  0  0  0  0  0  0  0  0  0  0  0
   38.1506   33.1409   49.6847 C   0  0  0  0  0  0  0  0  0  0  0  0
   38.8698   33.2601   48.5245 C   0  0  0  0  0  0  0  0  0  0  0  0
   39.7705   34.1499   48.5185 O   0  0  0  0  0  0  0  0  0  0  0  0
   38.7118   32.5332   47.4100 N   0  0  0  0  0  0  0  0  0  0  0  0
   37.7397   31.5860   47.4422 C   0  0  0  0  0  0  0  0  0  0  0  0
   37.5846   30.8964   46.3949 O   0  0  0  0  0  0  0  0  0  0  0  0
   36.1628   29.2545   49.3007 C   0  0  0  0  0  0  0  0  0  0  0  0
   35.9946   30.3897   48.4850 C   0  0  0  0  0  0  0  0  0  0  0  0
   34.8803   30.4374   47.6728 C   0  0  0  0  0  0  0  0  0  0  0  0
   33.9966   29.4105   47.6829 N   0  0  0  0  0  0  0  0  0  0  0  0
   34.1771   28.3361   48.4699 C   0  0  0  0  0  0  0  0  0  0  0  0
   35.2582   28.2484   49.2832 N   0  0  0  0  0  0  0  0  0  0  0  0
   33.2989   27.2587   48.5148 O   0  0  0  0  0  0  0  0  0  0  0  0
   36.5506   31.9936   50.5423 H   0  0  0  0  0  0  0  0  0  0  0  0
   38.3378   33.7638   50.5395 H   0  0  0  0  0  0  0  0  0  0  0  0
   39.2860   32.6704   46.5656 H   0  0  0  0  0  0  0  0  0  0  0  0
   37.0279   29.1893   49.9485 H   0  0  0  0  0  0  0  0  0  0  0  0
   34.7468   31.3014   47.0482 H   0  0  0  0  0  0  0  0  0  0  0  0
   32.1425   27.2148   47.7293 C   0  0  0  0  0  0  0  0  0  0  0  0
   31.2191   28.2231   47.9187 C   0  0  0  0  0  0  0  0  0  0  0  0
   30.0987   28.1376   47.1241 C   0  0  0  0  0  0  0  0  0  0  0  0
   29.3289   28.8914   47.2140 H   0  0  0  0  0  0  0  0  0  0  0  0
   29.8820   27.1500   46.2104 N   0  0  0  0  0  0  0  0  0  0  0  0
   30.8270   26.1835   46.0677 C   0  0  0  0  0  0  0  0  0  0  0  0
   31.9424   26.2239   46.8239 N   0  0  0  0  0  0  0  0  0  0  0  0
   31.3538   29.0203   48.6300 H   0  0  0  0  0  0  0  0  0  0  0  0
   30.6979   25.3869   45.3605 H   0  0  0  0  0  0  0  0  0  0  0  0
  1  2  1  0
  2  3  2  0
  4  5  2  0
  4  3  1  0
  6  7  1  0
  6  4  1  0
  7  1  1  0
  8  7  2  0
 10  1  1  0
 10  9  2  0
 11 12  2  0
 11 10  1  0
 12 13  1  0
 13 15  1  0
 13 14  2  0
 14  9  1  0
  2 16  1  0
  3 17  1  0
  6 18  1  0
  9 19  1  0
 11 20  1  0
 21 22  2  0
 22 23  1  0
 23 24  1  0
 23 25  2  0
 25 26  1  0
 26 27  2  0
 27 21  1  0
 22 28  1  0
 26 29  1  0
 15 21  1  0
M  ISO  6  16  14  17  14  18   9  19  14  20  14  24  14
M  END
>  <DihAtoms>  (1) 
12,14,20,21

>  <DihDeg>  (1) 
-179.99993788020817

$$$$
