
 OpenBabel03262520123D

 40 42  0  0  0  0  0  0  0  0999 V2000
   35.2900   30.4750   49.4330 C   0  0  0  0  0  0  0  0  0  0  0  0
   36.1590   30.2840   50.0940 H   0  0  0  0  0  0  0  0  0  0  0  0
   34.9120   31.4820   49.7160 H   0  0  0  0  0  0  0  0  0  0  0  0
   38.1990   31.6270   48.9670 Br  0  0  0  0  0  0  0  0  0  0  0  0
   36.9720   30.9780   47.6330 C   0  0  0  0  0  0  0  0  0  0  0  0
   37.3210   30.9800   46.3030 C   0  0  0  0  0  0  0  0  0  0  0  0
   36.4080   30.5160   45.4020 C   0  0  0  0  0  0  0  0  0  0  0  0
   35.1570   30.0490   45.7790 C   0  0  0  0  0  0  0  0  0  0  0  0
   34.8380   30.0630   47.1420 C   0  0  0  0  0  0  0  0  0  0  0  0
   35.7490   30.5260   48.0500 C   0  0  0  0  0  0  0  0  0  0  0  0
   36.7410   30.5400   44.3520 H   0  0  0  0  0  0  0  0  0  0  0  0
   34.5640   29.7220   44.9460 H   0  0  0  0  0  0  0  0  0  0  0  0
   33.8480   29.6860   47.2150 H   0  0  0  0  0  0  0  0  0  0  0  0
   39.8810   33.2630   45.0520 C   0  0  0  0  0  0  0  0  0  0  0  0
   41.0670   32.4550   45.0330 C   0  0  0  0  0  0  0  0  0  0  0  0
   40.9410   31.1580   45.4500 C   0  0  0  0  0  0  0  0  0  0  0  0
   39.7200   30.6720   45.8650 N   0  0  0  0  0  0  0  0  0  0  0  0
   38.6350   31.4700   45.8660 C   0  0  0  0  0  0  0  0  0  0  0  0
   38.7300   32.7460   45.4610 N   0  0  0  0  0  0  0  0  0  0  0  0
   39.9570   34.2920   44.7250 H   0  0  0  0  0  0  0  0  0  0  0  0
   41.9840   32.9140   44.6920 H   0  0  0  0  0  0  0  0  0  0  0  0
   41.8280   30.5360   45.4400 H   0  0  0  0  0  0  0  0  0  0  0  0
   34.2220   29.4970   49.7590 C   0  0  0  0  0  0  0  0  0  0  0  0
   33.2520   29.7760   49.3980 H   0  0  0  0  0  0  0  0  0  0  0  0
   34.1160   29.5960   50.8960 H   0  0  0  0  0  0  0  0  0  0  0  0
   34.7140   28.1800   49.5750 N   0  0  0  0  0  0  0  0  0  0  0  0
   35.7460   28.1230   49.4260 H   0  0  0  0  0  0  0  0  0  0  0  0
   33.9590   27.3180   48.7440 C   0  0  0  0  0  0  0  0  0  0  0  0
   34.3170   27.3010   47.6820 H   0  0  0  0  0  0  0  0  0  0  0  0
   33.9800   26.3000   49.1670 H   0  0  0  0  0  0  0  0  0  0  0  0
   32.5470   27.7890   48.7040 C   0  0  0  0  0  0  0  0  0  0  0  0
   32.0130   27.6690   49.6730 H   0  0  0  0  0  0  0  0  0  0  0  0
   32.2960   28.7000   48.1750 H   0  0  0  0  0  0  0  0  0  0  0  0
   31.8510   26.7370   47.8260 C   0  0  0  0  0  0  0  0  0  0  0  0
   32.5130   25.5610   47.5200 C   0  0  0  0  0  0  0  0  0  0  0  0
   31.8540   24.6380   46.7280 C   0  0  0  0  0  0  0  0  0  0  0  0
   32.4680   23.7440   46.5470 H   0  0  0  0  0  0  0  0  0  0  0  0
   30.6110   24.8640   46.2620 N   0  0  0  0  0  0  0  0  0  0  0  0
   29.9920   26.0200   46.5780 C   0  0  0  0  0  0  0  0  0  0  0  0
   30.5940   26.9440   47.3450 N   0  0  0  0  0  0  0  0  0  0  0  0
  1  3  1  0  0  0  0
  1 23  1  0  0  0  0
  1  2  1  0  0  0  0
  5 10  1  0  0  0  0
  5  4  1  0  0  0  0
  6  5  2  0  0  0  0
  7  8  2  0  0  0  0
  7  6  1  0  0  0  0
  8  9  1  0  0  0  0
  9 13  1  0  0  0  0
  9 10  2  0  0  0  0
 10  1  1  0  0  0  0
 11  7  1  0  0  0  0
 12  8  1  0  0  0  0
 14 19  1  0  0  0  0
 15 14  2  0  0  0  0
 15 16  1  0  0  0  0
 16 17  2  0  0  0  0
 17 18  1  0  0  0  0
 18  6  1  0  0  0  0
 19 18  2  0  0  0  0
 20 14  1  0  0  0  0
 21 15  1  0  0  0  0
 22 16  1  0  0  0  0
 23 25  1  0  0  0  0
 24 23  1  0  0  0  0
 26 23  1  0  0  0  0
 27 26  1  0  0  0  0
 28 30  1  0  0  0  0
 28 26  1  0  0  0  0
 29 28  1  0  0  0  0
 31 28  1  0  0  0  0
 31 32  1  0  0  0  0
 33 31  1  0  0  0  0
 34 31  1  0  0  0  0
 35 34  1  0  0  0  0
 36 35  2  0  0  0  0
 37 36  1  0  0  0  0
 38 39  2  0  0  0  0
 38 36  1  0  0  0  0
 39 40  1  0  0  0  0
 40 34  2  0  0  0  0
M  END
>  <minimizedAffinity>
-5.25331497

>  <minimizedRMSD>
0.338463783

$$$$
