
 OpenBabel03272510333D

 26 28  0  0  0  0  0  0  0  0999 V2000
   35.8730   30.0870   47.5050 C   0  0  0  0  0  0  0  0  0  0  0  0
   35.1600   30.0210   46.3380 C   0  0  0  0  0  0  0  0  0  0  0  0
   34.0190   29.2530   46.2220 C   0  0  0  0  0  0  0  0  0  0  0  0
   33.6050   28.5420   47.3180 C   0  0  0  0  0  0  0  0  0  0  0  0
   34.2970   28.5810   48.5180 C   0  0  0  0  0  0  0  0  0  0  0  0
   35.4430   29.3620   48.6080 C   0  0  0  0  0  0  0  0  0  0  0  0
   35.4620   30.5750   45.4420 H   0  0  0  0  0  0  0  0  0  0  0  0
   33.4710   29.2170   45.2850 H   0  0  0  0  0  0  0  0  0  0  0  0
   32.7060   27.9520   47.1870 H   0  0  0  0  0  0  0  0  0  0  0  0
   33.9300   28.0030   49.3520 H   0  0  0  0  0  0  0  0  0  0  0  0
   38.1580   32.7240   48.5190 C   0  0  0  0  0  0  0  0  0  0  0  0
   39.2580   32.5820   47.6750 C   0  0  0  0  0  0  0  0  0  0  0  0
   39.1950   31.5420   46.7320 C   0  0  0  0  0  0  0  0  0  0  0  0
   38.0960   30.7520   46.6950 N   0  0  0  0  0  0  0  0  0  0  0  0
   37.0620   30.9230   47.5270 C   0  0  0  0  0  0  0  0  0  0  0  0
   37.0970   31.9210   48.4470 N   0  0  0  0  0  0  0  0  0  0  0  0
   38.2530   33.5500   49.2400 H   0  0  0  0  0  0  0  0  0  0  0  0
   40.1520   33.1740   47.6560 H   0  0  0  0  0  0  0  0  0  0  0  0
   39.9720   31.2900   45.9910 H   0  0  0  0  0  0  0  0  0  0  0  0
   36.2010   29.4310   49.8530 C   0  0  0  0  0  0  0  0  0  0  0  0
   37.4420   28.8280   49.8910 C   0  0  0  0  0  3  0  0  0  0  0  0
   38.1560   28.8870   51.0470 C   0  0  0  0  0  0  0  0  0  0  0  0
   39.1420   28.4700   51.2480 H   0  0  0  0  0  0  0  0  0  0  0  0
   37.6760   29.5110   52.1250 N   0  0  0  0  0  0  0  0  0  0  0  0
   36.4530   30.1150   52.1150 C   0  0  0  0  0  3  0  0  0  0  0  0
   35.7840   30.0340   50.9630 N   0  0  0  0  0  0  0  0  0  0  0  0
  1 15  1  0  0  0  0
  1  6  1  0  0  0  0
  2  1  2  0  0  0  0
  3  2  1  0  0  0  0
  3  4  2  0  0  0  0
  4  5  1  0  0  0  0
  5  6  2  0  0  0  0
  5 10  1  0  0  0  0
  6 20  1  0  0  0  0
  7  2  1  0  0  0  0
  8  3  1  0  0  0  0
  9  4  1  0  0  0  0
 11 17  1  0  0  0  0
 12 11  2  0  0  0  0
 13 12  1  0  0  0  0
 14 13  2  0  0  0  0
 14 15  1  0  0  0  0
 15 16  2  0  0  0  0
 16 11  1  0  0  0  0
 18 12  1  0  0  0  0
 19 13  1  0  0  0  0
 20 21  2  0  0  0  0
 20 26  1  0  0  0  0
 21 22  1  0  0  0  0
 22 23  1  0  0  0  0
 22 24  2  0  0  0  0
 25 24  1  0  0  0  0
 26 25  2  0  0  0  0
M  END
>  <minimizedAffinity>
-3.37403512

>  <minimizedRMSD>
1.32169378

$$$$
