
 OpenBabel03272505443D

 22 23  0  0  0  0  0  0  0  0999 V2000
   37.2220   28.0760   35.1960 O   0  0  0  0  0  0  0  0  0  0  0  0
   38.0690   26.8480   34.9390 P   0  0  2  0  0  0  0  0  0  0  0  0
   39.6160   27.2060   35.5410 O   0  0  0  0  0  0  0  0  0  0  0  0
   40.0150   27.9540   35.0050 H   0  0  0  0  0  0  0  0  0  0  0  0
   38.1120   26.5550   33.2660 O   0  0  0  0  0  0  0  0  0  0  0  0
   36.4840   23.5730   31.9300 C   0  0  0  0  0  0  0  0  0  0  0  0
   35.4650   24.2020   31.1440 C   0  0  0  0  0  0  0  0  0  0  0  0
   35.4170   25.6020   31.1340 C   0  0  0  0  0  0  0  0  0  0  0  0
   36.3330   26.2830   31.8660 N   0  0  0  0  0  0  0  0  0  0  0  0
   37.2810   25.6630   32.5970 C   0  0  0  0  0  0  0  0  0  0  0  0
   37.3550   24.3150   32.6280 N   0  0  0  0  0  0  0  0  0  0  0  0
   36.5460   22.4920   31.9580 H   0  0  0  0  0  0  0  0  0  0  0  0
   34.7660   23.5860   30.5840 H   0  0  0  0  0  0  0  0  0  0  0  0
   34.6510   26.1020   30.5430 H   0  0  0  0  0  0  0  0  0  0  0  0
   37.4250   25.5830   35.8170 O   0  0  0  0  0  0  0  0  0  0  0  0
   38.1130   24.6850   36.6100 C   0  0  0  0  0  0  0  0  0  0  0  0
   37.9330   24.3040   37.9230 C   0  0  0  0  0  3  0  0  0  0  0  0
   38.7780   23.3710   38.4800 C   0  0  0  0  0  0  0  0  0  0  0  0
   38.5570   23.1340   39.5210 H   0  0  0  0  0  0  0  0  0  0  0  0
   39.7510   22.8510   37.7450 N   0  0  0  0  0  0  0  0  0  0  0  0
   39.9530   23.1970   36.4710 C   0  0  0  0  0  3  0  0  0  0  0  0
   39.1350   24.1120   35.9080 N   0  0  0  0  0  0  0  0  0  0  0  0
  2  1  2  1  0  0  0
  2  3  1  0  0  0  0
  2 15  1  0  0  0  0
  4  3  1  0  0  0  0
  5  2  1  0  0  0  0
  6 12  1  0  0  0  0
  6 11  1  0  0  0  0
  7  6  2  0  0  0  0
  8  7  1  0  0  0  0
  8  9  2  0  0  0  0
  9 10  1  0  0  0  0
 10 11  2  0  0  0  0
 10  5  1  0  0  0  0
 13  7  1  0  0  0  0
 14  8  1  0  0  0  0
 15 16  1  0  0  0  0
 16 17  1  0  0  0  0
 17 18  2  0  0  0  0
 18 19  1  0  0  0  0
 20 18  1  0  0  0  0
 21 20  2  0  0  0  0
 22 21  1  0  0  0  0
 22 16  2  0  0  0  0
M  END
>  <minimizedAffinity>
-4.68908501

$$$$

 OpenBabel03272505443D

 22 23  0  0  0  0  0  0  0  0999 V2000
   39.8070   27.2620   33.5850 O   0  0  0  0  0  0  0  0  0  0  0  0
   38.8150   26.6250   34.5370 P   0  0  2  0  0  0  0  0  0  0  0  0
   38.8830   27.5340   35.9690 O   0  0  0  0  0  0  0  0  0  0  0  0
   39.7910   27.4340   36.3820 H   0  0  0  0  0  0  0  0  0  0  0  0
   39.2780   25.0130   34.8080 O   0  0  0  0  0  0  0  0  0  0  0  0
   39.8080   22.8370   37.6910 C   0  0  0  0  0  0  0  0  0  0  0  0
   38.7360   23.2960   38.5240 C   0  0  0  0  0  0  0  0  0  0  0  0
   37.9160   24.3180   38.0310 C   0  0  0  0  0  0  0  0  0  0  0  0
   38.1780   24.8150   36.7960 N   0  0  0  0  0  0  0  0  0  0  0  0
   39.1940   24.3620   36.0350 C   0  0  0  0  0  0  0  0  0  0  0  0
   40.0040   23.3780   36.4810 N   0  0  0  0  0  0  0  0  0  0  0  0
   40.4590   22.0480   38.0460 H   0  0  0  0  0  0  0  0  0  0  0  0
   38.5910   22.8470   39.5040 H   0  0  0  0  0  0  0  0  0  0  0  0
   37.0950   24.6830   38.6460 H   0  0  0  0  0  0  0  0  0  0  0  0
   37.2920   26.7760   33.8710 O   0  0  0  0  0  0  0  0  0  0  0  0
   36.6740   27.9420   33.4620 C   0  0  0  0  0  0  0  0  0  0  0  0
   36.4480   28.4600   32.2040 C   0  0  0  0  0  3  0  0  0  0  0  0
   35.7960   29.6660   32.0750 C   0  0  0  0  0  0  0  0  0  0  0  0
   35.6640   29.9940   31.0450 H   0  0  0  0  0  0  0  0  0  0  0  0
   35.3950   30.3100   33.1630 N   0  0  0  0  0  0  0  0  0  0  0  0
   35.5970   29.8360   34.3950 C   0  0  0  0  0  3  0  0  0  0  0  0
   36.2350   28.6560   34.5410 N   0  0  0  0  0  0  0  0  0  0  0  0
  2  1  2  6  0  0  0
  2  5  1  0  0  0  0
  2  3  1  0  0  0  0
  3  4  1  0  0  0  0
  5 10  1  0  0  0  0
  6 12  1  0  0  0  0
  6  7  1  0  0  0  0
  7 13  1  0  0  0  0
  8  7  2  0  0  0  0
  8 14  1  0  0  0  0
  9  8  1  0  0  0  0
 10 11  1  0  0  0  0
 10  9  2  0  0  0  0
 11  6  2  0  0  0  0
 15  2  1  0  0  0  0
 16 15  1  0  0  0  0
 16 22  1  0  0  0  0
 17 16  2  0  0  0  0
 18 17  1  0  0  0  0
 18 20  2  0  0  0  0
 19 18  1  0  0  0  0
 20 21  1  0  0  0  0
 21 22  2  0  0  0  0
M  END
>  <minimizedAffinity>
-4.47777605

$$$$

 OpenBabel03272505443D

 22 23  0  0  0  0  0  0  0  0999 V2000
   39.2350   27.3030   35.0640 O   0  0  0  0  0  0  0  0  0  0  0  0
   37.9250   26.6290   34.7140 P   0  0  2  0  0  0  0  0  0  0  0  0
   36.7820   27.8740   34.5480 O   0  0  0  0  0  0  0  0  0  0  0  0
   36.6520   28.3250   35.4340 H   0  0  0  0  0  0  0  0  0  0  0  0
   37.5030   25.5700   35.9730 O   0  0  0  0  0  0  0  0  0  0  0  0
   40.1180   23.0850   36.5360 C   0  0  0  0  0  0  0  0  0  0  0  0
   39.8130   22.7370   37.8910 C   0  0  0  0  0  0  0  0  0  0  0  0
   38.7340   23.3830   38.5070 C   0  0  0  0  0  0  0  0  0  0  0  0
   38.0370   24.2990   37.7890 N   0  0  0  0  0  0  0  0  0  0  0  0
   38.3480   24.6060   36.5130 C   0  0  0  0  0  0  0  0  0  0  0  0
   39.3820   24.0020   35.8920 N   0  0  0  0  0  0  0  0  0  0  0  0
   40.9480   22.6020   36.0340 H   0  0  0  0  0  0  0  0  0  0  0  0
   40.4200   21.9910   38.4000 H   0  0  0  0  0  0  0  0  0  0  0  0
   38.4840   23.1340   39.5370 H   0  0  0  0  0  0  0  0  0  0  0  0
   38.1140   25.8680   33.2410 O   0  0  0  0  0  0  0  0  0  0  0  0
   37.1160   25.3570   32.4330 C   0  0  0  0  0  0  0  0  0  0  0  0
   36.8030   24.0610   32.0800 C   0  0  0  0  0  3  0  0  0  0  0  0
   35.7350   23.8260   31.2440 C   0  0  0  0  0  0  0  0  0  0  0  0
   35.5660   22.7730   31.0210 H   0  0  0  0  0  0  0  0  0  0  0  0
   35.0230   24.8490   30.7910 N   0  0  0  0  0  0  0  0  0  0  0  0
   35.2980   26.1150   31.1140 C   0  0  0  0  0  3  0  0  0  0  0  0
   36.3420   26.3660   31.9320 N   0  0  0  0  0  0  0  0  0  0  0  0
  2  1  2  1  0  0  0
  2  5  1  0  0  0  0
  3  2  1  0  0  0  0
  3  4  1  0  0  0  0
  5 10  1  0  0  0  0
  6  7  1  0  0  0  0
  7 13  1  0  0  0  0
  7  8  2  0  0  0  0
  8 14  1  0  0  0  0
  9  8  1  0  0  0  0
 10  9  2  0  0  0  0
 11 10  1  0  0  0  0
 11  6  2  0  0  0  0
 12  6  1  0  0  0  0
 15  2  1  0  0  0  0
 16 15  1  0  0  0  0
 17 16  1  0  0  0  0
 18 17  2  0  0  0  0
 19 18  1  0  0  0  0
 20 21  2  0  0  0  0
 20 18  1  0  0  0  0
 21 22  1  0  0  0  0
 22 16  2  0  0  0  0
M  END
>  <minimizedAffinity>
-4.46749496

$$$$

 OpenBabel03272505443D

 22 23  0  0  0  0  0  0  0  0999 V2000
   39.7420   27.0790   34.4120 O   0  0  0  0  0  0  0  0  0  0  0  0
   38.4360   26.8470   35.1430 P   0  0  2  0  0  0  0  0  0  0  0  0
   38.6160   27.5620   36.6720 O   0  0  0  0  0  0  0  0  0  0  0  0
   39.3290   27.0750   37.1830 H   0  0  0  0  0  0  0  0  0  0  0  0
   38.1740   25.1740   35.2720 O   0  0  0  0  0  0  0  0  0  0  0  0
   40.8240   22.9330   36.4060 C   0  0  0  0  0  0  0  0  0  0  0  0
   40.3060   22.6030   37.7000 C   0  0  0  0  0  0  0  0  0  0  0  0
   39.0870   23.1760   38.0830 C   0  0  0  0  0  0  0  0  0  0  0  0
   38.4640   24.0080   37.2110 N   0  0  0  0  0  0  0  0  0  0  0  0
   38.9780   24.3010   35.9980 C   0  0  0  0  0  0  0  0  0  0  0  0
   40.1510   23.7650   35.6000 N   0  0  0  0  0  0  0  0  0  0  0  0
   41.7660   22.5060   36.0830 H   0  0  0  0  0  0  0  0  0  0  0  0
   40.8650   21.9270   38.3430 H   0  0  0  0  0  0  0  0  0  0  0  0
   38.6730   22.9390   39.0610 H   0  0  0  0  0  0  0  0  0  0  0  0
   37.2290   27.6450   34.3100 O   0  0  0  0  0  0  0  0  0  0  0  0
   36.8950   27.4910   32.9780 C   0  0  0  0  0  0  0  0  0  0  0  0
   36.6010   26.3660   32.2370 C   0  0  0  0  0  3  0  0  0  0  0  0
   36.2950   26.4950   30.9010 C   0  0  0  0  0  0  0  0  0  0  0  0
   36.0770   25.5520   30.3990 H   0  0  0  0  0  0  0  0  0  0  0  0
   36.2890   27.7000   30.3470 N   0  0  0  0  0  0  0  0  0  0  0  0
   36.5680   28.8090   31.0360 C   0  0  0  0  0  3  0  0  0  0  0  0
   36.8700   28.7020   32.3470 N   0  0  0  0  0  0  0  0  0  0  0  0
  2  1  2  6  0  0  0
  2  5  1  0  0  0  0
  2  3  1  0  0  0  0
  3  4  1  0  0  0  0
  5 10  1  0  0  0  0
  6  7  1  0  0  0  0
  7  8  2  0  0  0  0
  7 13  1  0  0  0  0
  8 14  1  0  0  0  0
  9  8  1  0  0  0  0
 10  9  2  0  0  0  0
 11 10  1  0  0  0  0
 11  6  2  0  0  0  0
 12  6  1  0  0  0  0
 15  2  1  0  0  0  0
 16 15  1  0  0  0  0
 17 16  2  0  0  0  0
 18 17  1  0  0  0  0
 19 18  1  0  0  0  0
 20 18  2  0  0  0  0
 20 21  1  0  0  0  0
 21 22  2  0  0  0  0
 22 16  1  0  0  0  0
M  END
>  <minimizedAffinity>
-4.37604046

$$$$

 OpenBabel03272505443D

 22 23  0  0  0  0  0  0  0  0999 V2000
   38.9860   27.3530   35.3780 O   0  0  0  0  0  0  0  0  0  0  0  0
   37.9250   26.4910   34.7260 P   0  0  2  0  0  0  0  0  0  0  0  0
   38.7150   25.6080   33.5100 O   0  0  0  0  0  0  0  0  0  0  0  0
   39.0520   26.2400   32.8080 H   0  0  0  0  0  0  0  0  0  0  0  0
   36.7270   27.5030   34.0720 O   0  0  0  0  0  0  0  0  0  0  0  0
   37.1080   27.9250   30.4660 C   0  0  0  0  0  0  0  0  0  0  0  0
   36.5570   29.2400   30.3310 C   0  0  0  0  0  0  0  0  0  0  0  0
   36.0960   29.8790   31.4880 C   0  0  0  0  0  0  0  0  0  0  0  0
   36.1980   29.2220   32.6710 N   0  0  0  0  0  0  0  0  0  0  0  0
   36.7220   27.9830   32.7670 C   0  0  0  0  0  0  0  0  0  0  0  0
   37.1740   27.3400   31.6700 N   0  0  0  0  0  0  0  0  0  0  0  0
   37.4720   27.4050   29.5880 H   0  0  0  0  0  0  0  0  0  0  0  0
   36.5100   29.7000   29.3460 H   0  0  0  0  0  0  0  0  0  0  0  0
   35.6730   30.8790   31.4090 H   0  0  0  0  0  0  0  0  0  0  0  0
   37.3440   25.4300   35.8760 O   0  0  0  0  0  0  0  0  0  0  0  0
   38.0850   24.5790   36.6720 C   0  0  0  0  0  0  0  0  0  0  0  0
   37.9780   24.2590   38.0100 C   0  0  0  0  0  3  0  0  0  0  0  0
   38.8630   23.3620   38.5640 C   0  0  0  0  0  0  0  0  0  0  0  0
   38.7010   23.1730   39.6250 H   0  0  0  0  0  0  0  0  0  0  0  0
   39.8050   22.8200   37.8040 N   0  0  0  0  0  0  0  0  0  0  0  0
   39.9350   23.1070   36.5070 C   0  0  0  0  0  3  0  0  0  0  0  0
   39.0770   23.9850   35.9450 N   0  0  0  0  0  0  0  0  0  0  0  0
  2  1  2  1  0  0  0
  2 15  1  0  0  0  0
  3  2  1  0  0  0  0
  4  3  1  0  0  0  0
  5  2  1  0  0  0  0
  6 11  1  0  0  0  0
  7  6  2  0  0  0  0
  7  8  1  0  0  0  0
  8  9  2  0  0  0  0
  9 10  1  0  0  0  0
 10  5  1  0  0  0  0
 11 10  2  0  0  0  0
 12  6  1  0  0  0  0
 13  7  1  0  0  0  0
 14  8  1  0  0  0  0
 15 16  1  0  0  0  0
 16 17  1  0  0  0  0
 17 18  2  0  0  0  0
 18 19  1  0  0  0  0
 20 18  1  0  0  0  0
 21 20  2  0  0  0  0
 22 21  1  0  0  0  0
 22 16  2  0  0  0  0
M  END
>  <minimizedAffinity>
-4.23691607

$$$$

 OpenBabel03272505443D

 22 23  0  0  0  0  0  0  0  0999 V2000
   39.2500   21.4290   33.4430 O   0  0  0  0  0  0  0  0  0  0  0  0
   38.0300   22.3270   33.4700 P   0  0  2  0  0  0  0  0  0  0  0  0
   36.7460   21.3630   34.0220 O   0  0  0  0  0  0  0  0  0  0  0  0
   36.5630   20.6400   33.3520 H   0  0  0  0  0  0  0  0  0  0  0  0
   37.7390   22.8980   31.8970 O   0  0  0  0  0  0  0  0  0  0  0  0
   34.9720   25.1000   30.9900 C   0  0  0  0  0  0  0  0  0  0  0  0
   35.6580   26.3570   31.0320 C   0  0  0  0  0  0  0  0  0  0  0  0
   37.0170   26.3510   31.3690 C   0  0  0  0  0  0  0  0  0  0  0  0
   37.6090   25.1590   31.6350 N   0  0  0  0  0  0  0  0  0  0  0  0
   36.9360   23.9910   31.5880 C   0  0  0  0  0  0  0  0  0  0  0  0
   35.6260   23.9640   31.2670 N   0  0  0  0  0  0  0  0  0  0  0  0
   33.9190   25.0740   30.7330 H   0  0  0  0  0  0  0  0  0  0  0  0
   35.1120   27.2710   30.8050 H   0  0  0  0  0  0  0  0  0  0  0  0
   37.5580   27.2940   31.4060 H   0  0  0  0  0  0  0  0  0  0  0  0
   38.3100   23.5440   34.5780 O   0  0  0  0  0  0  0  0  0  0  0  0
   38.6650   23.3960   35.9040 C   0  0  0  0  0  0  0  0  0  0  0  0
   39.7800   22.8350   36.4920 C   0  0  0  0  0  3  0  0  0  0  0  0
   39.8860   22.8170   37.8650 C   0  0  0  0  0  0  0  0  0  0  0  0
   40.7990   22.3550   38.2360 H   0  0  0  0  0  0  0  0  0  0  0  0
   38.9140   23.3400   38.6000 N   0  0  0  0  0  0  0  0  0  0  0  0
   37.8220   23.8910   38.0630 C   0  0  0  0  0  3  0  0  0  0  0  0
   37.7010   23.9170   36.7200 N   0  0  0  0  0  0  0  0  0  0  0  0
  2  1  2  6  0  0  0
  2  3  1  0  0  0  0
  2 15  1  0  0  0  0
  4  3  1  0  0  0  0
  5  2  1  0  0  0  0
  6  7  2  0  0  0  0
  6 11  1  0  0  0  0
  7  8  1  0  0  0  0
  8 14  1  0  0  0  0
  8  9  2  0  0  0  0
 10  9  1  0  0  0  0
 10  5  1  0  0  0  0
 11 10  2  0  0  0  0
 12  6  1  0  0  0  0
 13  7  1  0  0  0  0
 15 16  1  0  0  0  0
 16 17  2  0  0  0  0
 16 22  1  0  0  0  0
 17 18  1  0  0  0  0
 18 19  1  0  0  0  0
 18 20  2  0  0  0  0
 21 20  1  0  0  0  0
 22 21  2  0  0  0  0
M  END
>  <minimizedAffinity>
-4.16254139

$$$$

 OpenBabel03272505443D

 22 23  0  0  0  0  0  0  0  0999 V2000
   37.0290   27.8570   34.9420 O   0  0  0  0  0  0  0  0  0  0  0  0
   37.8950   26.6160   34.8700 P   0  0  2  0  0  0  0  0  0  0  0  0
   39.4600   27.1060   35.3110 O   0  0  0  0  0  0  0  0  0  0  0  0
   39.8110   27.7480   34.6260 H   0  0  0  0  0  0  0  0  0  0  0  0
   37.8610   26.0190   33.2810 O   0  0  0  0  0  0  0  0  0  0  0  0
   36.6360   27.9760   30.4520 C   0  0  0  0  0  0  0  0  0  0  0  0
   37.8920   28.3700   29.8870 C   0  0  0  0  0  0  0  0  0  0  0  0
   39.0610   27.9340   30.5210 C   0  0  0  0  0  0  0  0  0  0  0  0
   38.9430   27.1630   31.6320 N   0  0  0  0  0  0  0  0  0  0  0  0
   37.7460   26.8080   32.1410 C   0  0  0  0  0  0  0  0  0  0  0  0
   36.6000   27.2130   31.5530 N   0  0  0  0  0  0  0  0  0  0  0  0
   35.7140   28.2990   29.9830 H   0  0  0  0  0  0  0  0  0  0  0  0
   37.9040   28.9900   28.9930 H   0  0  0  0  0  0  0  0  0  0  0  0
   40.0270   28.2210   30.1090 H   0  0  0  0  0  0  0  0  0  0  0  0
   37.3290   25.5260   36.0010 O   0  0  0  0  0  0  0  0  0  0  0  0
   38.0790   24.6370   36.7470 C   0  0  0  0  0  0  0  0  0  0  0  0
   37.9740   24.2370   38.0630 C   0  0  0  0  0  3  0  0  0  0  0  0
   38.8690   23.3190   38.5650 C   0  0  0  0  0  0  0  0  0  0  0  0
   38.7070   23.0640   39.6120 H   0  0  0  0  0  0  0  0  0  0  0  0
   39.8170   22.8330   37.7750 N   0  0  0  0  0  0  0  0  0  0  0  0
   39.9460   23.1990   36.4980 C   0  0  0  0  0  3  0  0  0  0  0  0
   39.0780   24.0990   35.9880 N   0  0  0  0  0  0  0  0  0  0  0  0
  2  1  2  1  0  0  0
  2  3  1  0  0  0  0
  2 15  1  0  0  0  0
  4  3  1  0  0  0  0
  5  2  1  0  0  0  0
  6 11  1  0  0  0  0
  7  6  2  0  0  0  0
  7  8  1  0  0  0  0
  8  9  2  0  0  0  0
  9 10  1  0  0  0  0
 10  5  1  0  0  0  0
 11 10  2  0  0  0  0
 12  6  1  0  0  0  0
 13  7  1  0  0  0  0
 14  8  1  0  0  0  0
 15 16  1  0  0  0  0
 16 17  1  0  0  0  0
 17 18  2  0  0  0  0
 18 19  1  0  0  0  0
 20 18  1  0  0  0  0
 21 20  2  0  0  0  0
 22 21  1  0  0  0  0
 22 16  2  0  0  0  0
M  END
>  <minimizedAffinity>
-4.13454819

$$$$

 OpenBabel03272505443D

 22 23  0  0  0  0  0  0  0  0999 V2000
   36.4640   25.7710   32.0370 O   0  0  0  0  0  0  0  0  0  0  0  0
   36.9110   24.3590   31.7210 P   0  0  2  0  0  0  0  0  0  0  0  0
   37.5050   24.3970   30.1310 O   0  0  0  0  0  0  0  0  0  0  0  0
   36.7550   24.6150   29.5020 H   0  0  0  0  0  0  0  0  0  0  0  0
   35.5740   23.3210   31.8540 O   0  0  0  0  0  0  0  0  0  0  0  0
   34.9510   19.7270   32.0160 C   0  0  0  0  0  0  0  0  0  0  0  0
   36.0330   19.2710   31.1960 C   0  0  0  0  0  0  0  0  0  0  0  0
   36.8920   20.2330   30.6510 C   0  0  0  0  0  0  0  0  0  0  0  0
   36.6550   21.5390   30.9280 N   0  0  0  0  0  0  0  0  0  0  0  0
   35.6270   21.9390   31.7040 C   0  0  0  0  0  0  0  0  0  0  0  0
   34.7800   21.0370   32.2440 N   0  0  0  0  0  0  0  0  0  0  0  0
   34.2690   19.0060   32.4510 H   0  0  0  0  0  0  0  0  0  0  0  0
   36.1570   18.2040   31.0210 H   0  0  0  0  0  0  0  0  0  0  0  0
   37.7220   19.9090   30.0260 H   0  0  0  0  0  0  0  0  0  0  0  0
   38.1600   23.9690   32.7570 O   0  0  0  0  0  0  0  0  0  0  0  0
   38.0920   23.8400   34.1310 C   0  0  0  0  0  0  0  0  0  0  0  0
   38.1600   24.7800   35.1390 C   0  0  0  0  0  3  0  0  0  0  0  0
   38.0630   24.3740   36.4510 C   0  0  0  0  0  0  0  0  0  0  0  0
   38.1280   25.1850   37.1750 H   0  0  0  0  0  0  0  0  0  0  0  0
   37.9050   23.0860   36.7250 N   0  0  0  0  0  0  0  0  0  0  0  0
   37.8350   22.1520   35.7730 C   0  0  0  0  0  3  0  0  0  0  0  0
   37.9290   22.5310   34.4820 N   0  0  0  0  0  0  0  0  0  0  0  0
  2  5  1  0  0  0  0
  2  1  2  1  0  0  0
  2 15  1  0  0  0  0
  3  2  1  0  0  0  0
  4  3  1  0  0  0  0
  6 11  1  0  0  0  0
  6 12  1  0  0  0  0
  7  6  2  0  0  0  0
  8  9  2  0  0  0  0
  8  7  1  0  0  0  0
  9 10  1  0  0  0  0
 10  5  1  0  0  0  0
 10 11  2  0  0  0  0
 13  7  1  0  0  0  0
 14  8  1  0  0  0  0
 15 16  1  0  0  0  0
 16 22  2  0  0  0  0
 16 17  1  0  0  0  0
 17 18  2  0  0  0  0
 18 20  1  0  0  0  0
 18 19  1  0  0  0  0
 21 20  2  0  0  0  0
 22 21  1  0  0  0  0
M  END
>  <minimizedAffinity>
-4.1286273

$$$$

 OpenBabel03272505443D

 22 23  0  0  0  0  0  0  0  0999 V2000
   36.7810   25.8930   32.9060 O   0  0  0  0  0  0  0  0  0  0  0  0
   37.9950   25.2520   33.5470 P   0  0  2  0  0  0  0  0  0  0  0  0
   39.3000   26.2920   33.2310 O   0  0  0  0  0  0  0  0  0  0  0  0
   39.4700   26.3190   32.2430 H   0  0  0  0  0  0  0  0  0  0  0  0
   38.2400   23.7250   32.8450 O   0  0  0  0  0  0  0  0  0  0  0  0
   35.5300   21.8680   31.2530 C   0  0  0  0  0  0  0  0  0  0  0  0
   35.3000   20.8850   32.2680 C   0  0  0  0  0  0  0  0  0  0  0  0
   36.0940   20.9350   33.4200 C   0  0  0  0  0  0  0  0  0  0  0  0
   37.0330   21.9100   33.5130 N   0  0  0  0  0  0  0  0  0  0  0  0
   37.2270   22.8230   32.5400 C   0  0  0  0  0  0  0  0  0  0  0  0
   36.4780   22.8010   31.4160 N   0  0  0  0  0  0  0  0  0  0  0  0
   34.9310   21.8540   30.3500 H   0  0  0  0  0  0  0  0  0  0  0  0
   34.5260   20.1340   32.1190 H   0  0  0  0  0  0  0  0  0  0  0  0
   35.9370   20.1980   34.2060 H   0  0  0  0  0  0  0  0  0  0  0  0
   37.7360   25.1920   35.1950 O   0  0  0  0  0  0  0  0  0  0  0  0
   38.3940   24.3950   36.1120 C   0  0  0  0  0  0  0  0  0  0  0  0
   39.4890   23.5660   35.9790 C   0  0  0  0  0  3  0  0  0  0  0  0
   39.9500   22.8720   37.0740 C   0  0  0  0  0  0  0  0  0  0  0  0
   40.8170   22.2440   36.8720 H   0  0  0  0  0  0  0  0  0  0  0  0
   39.3350   23.0120   38.2410 N   0  0  0  0  0  0  0  0  0  0  0  0
   38.2740   23.8060   38.4040 C   0  0  0  0  0  3  0  0  0  0  0  0
   37.8070   24.4940   37.3410 N   0  0  0  0  0  0  0  0  0  0  0  0
  2  1  2  6  0  0  0
  2 15  1  0  0  0  0
  3  2  1  0  0  0  0
  4  3  1  0  0  0  0
  5  2  1  0  0  0  0
  6 11  2  0  0  0  0
  6  7  1  0  0  0  0
  7  8  2  0  0  0  0
  8  9  1  0  0  0  0
  8 14  1  0  0  0  0
 10  5  1  0  0  0  0
 10  9  2  0  0  0  0
 11 10  1  0  0  0  0
 12  6  1  0  0  0  0
 13  7  1  0  0  0  0
 15 16  1  0  0  0  0
 16 22  1  0  0  0  0
 17 16  2  0  0  0  0
 17 18  1  0  0  0  0
 18 20  2  0  0  0  0
 19 18  1  0  0  0  0
 20 21  1  0  0  0  0
 22 21  2  0  0  0  0
M  END
>  <minimizedAffinity>
-4.11602306

$$$$
