
 OpenBabel03272508163D

 29 31  0  0  0  0  0  0  0  0999 V2000
   34.9660   30.5410   47.3500 Cl  0  0  0  0  0  0  0  0  0  0  0  0
   35.1420   29.7330   45.8340 C   0  0  0  0  0  0  0  0  0  0  0  0
   34.1620   28.8240   45.5920 C   0  0  0  0  0  0  0  0  0  0  0  0
   34.2130   28.1050   44.3710 C   0  0  0  0  0  0  0  0  0  0  0  0
   35.2080   28.3100   43.4620 C   0  0  0  0  0  0  0  0  0  0  0  0
   36.1810   29.2330   43.7340 C   0  0  0  0  0  0  0  0  0  0  0  0
   37.4690   29.5350   42.6030 Cl  0  0  0  0  0  0  0  0  0  0  0  0
   36.1340   29.9230   44.9020 C   0  0  0  0  0  0  0  0  0  0  0  0
   33.4780   27.3610   44.0940 H   0  0  0  0  0  0  0  0  0  0  0  0
   35.2670   27.7720   42.5240 H   0  0  0  0  0  0  0  0  0  0  0  0
   33.1940   27.4440   47.3810 C   0  0  0  0  0  0  0  0  0  0  0  0
   32.9980   28.4350   46.4160 C   0  0  0  0  0  0  0  0  0  0  0  0
   31.7340   29.0150   46.2610 C   0  0  0  0  0  0  0  0  0  0  0  0
   30.7500   28.5610   47.0870 N   0  0  0  0  0  0  0  0  0  0  0  0
   30.9580   27.6030   48.0130 C   0  0  0  0  0  0  0  0  0  0  0  0
   32.2000   27.0340   48.1640 N   0  0  0  0  0  0  0  0  0  0  0  0
   34.1620   26.9830   47.5180 H   0  0  0  0  0  0  0  0  0  0  0  0
   31.6050   29.7710   45.5170 H   0  0  0  0  0  0  0  0  0  0  0  0
   30.0850   27.3450   48.5940 H   0  0  0  0  0  0  0  0  0  0  0  0
   37.1430   30.9330   45.2730 C   0  0  0  0  0  0  0  0  0  0  0  0
   37.2230   32.1280   44.9890 O   0  0  0  0  0  0  0  0  0  0  0  0
   38.2890   30.7090   46.0800 O   0  0  0  0  0  0  0  0  0  0  0  0
   38.3140   31.1620   47.3930 C   0  0  0  0  0  0  0  0  0  0  0  0
   38.6740   32.4390   47.7710 C   0  0  0  0  0  3  0  0  0  0  0  0
   38.6350   32.6860   49.1170 C   0  0  0  0  0  0  0  0  0  0  0  0
   38.9220   33.7040   49.4220 H   0  0  0  0  0  0  0  0  0  0  0  0
   38.2740   31.7630   50.0260 N   0  0  0  0  0  0  0  0  0  0  0  0
   37.9250   30.5200   49.6340 C   0  0  0  0  0  3  0  0  0  0  0  0
   37.9530   30.2380   48.3030 N   0  0  0  0  0  0  0  0  0  0  0  0
  2  1  1  0  0  0  0
  3  2  1  0  0  0  0
  3 12  1  0  0  0  0
  4  3  2  0  0  0  0
  5  6  2  0  0  0  0
  5  4  1  0  0  0  0
  6  8  1  0  0  0  0
  7  6  1  0  0  0  0
  8 20  1  0  0  0  0
  8  2  2  0  0  0  0
  9  4  1  0  0  0  0
 10  5  1  0  0  0  0
 11 17  1  0  0  0  0
 11 16  1  0  0  0  0
 12 11  2  0  0  0  0
 13 12  1  0  0  0  0
 13 14  2  0  0  0  0
 14 15  1  0  0  0  0
 15 16  2  0  0  0  0
 15 19  1  0  0  0  0
 18 13  1  0  0  0  0
 20 22  1  0  0  0  0
 21 20  2  0  0  0  0
 22 23  1  0  0  0  0
 23 24  2  0  0  0  0
 23 29  1  0  0  0  0
 24 25  1  0  0  0  0
 25 26  1  0  0  0  0
 25 27  2  0  0  0  0
 28 27  1  0  0  0  0
 29 28  2  0  0  0  0
M  END
>  <minimizedAffinity>
-4.53425121

>  <minimizedRMSD>
4.81701994

$$$$
