
     RDKit          3D

 25 26  0  0  0  0  0  0  0  0999 V2000
   37.3244   30.2280   51.4207 C   0  0  0  0  0  0  0  0  0  0  0  0
   38.0509   30.6719   50.2990 C   0  0  0  0  0  0  0  0  0  0  0  0
   37.6153   30.2785   49.0386 C   0  0  0  0  0  0  0  0  0  0  0  0
   36.5033   29.4817   48.9757 N   0  0  0  0  0  0  0  0  0  0  0  0
   35.8330   29.0755   50.0608 C   0  0  0  0  0  0  0  0  0  0  0  0
   36.2491   29.4531   51.2925 N   0  0  0  0  0  0  0  0  0  0  0  0
   34.7562   28.2874   49.7490 O   0  0  0  0  0  0  0  0  0  0  0  0
   34.1836   28.4067   48.4517 C   0  0  0  0  0  0  0  0  0  0  0  0
   33.8393   27.0483   47.9140 C   0  0  0  0  0  0  0  0  0  0  0  0
   37.6084   30.4972   52.4346 H   0  0  0  0  0  0  0  0  0  0  0  0
   38.9209   31.3015   50.4427 H   0  0  0  0  0  0  0  0  0  0  0  0
   38.1470   30.5989   48.1504 H   0  0  0  0  0  0  0  0  0  0  0  0
   34.8099   29.0019   47.7762 H   0  0  0  0  0  0  0  0  0  0  0  0
   33.2364   28.9641   48.6078 H   0  0  0  0  0  0  0  0  0  0  0  0
   33.1676   26.5366   48.6027 H   0  0  0  0  0  0  0  0  0  0  0  0
   34.7794   26.4461   47.7818 H   0  0  0  0  0  0  0  0  0  0  0  0
   33.2350   27.1112   46.5557 C   0  0  0  0  0  0  0  0  0  0  0  0
   33.7053   26.2090   45.6230 C   0  0  0  0  0  0  0  0  0  0  0  0
   33.2199   26.1746   44.3334 C   0  0  0  0  0  0  0  0  0  0  0  0
   33.5428   25.4945   43.5519 H   0  0  0  0  0  0  0  0  0  0  0  0
   32.2666   27.0380   43.9727 N   0  0  0  0  0  0  0  0  0  0  0  0
   31.8092   27.9212   44.8937 C   0  0  0  0  0  0  0  0  0  0  0  0
   32.2686   27.9719   46.1558 N   0  0  0  0  0  0  0  0  0  0  0  0
   34.4857   25.4561   45.8107 H   0  0  0  0  0  0  0  0  0  0  0  0
   31.0407   28.6391   44.6534 H   0  0  0  0  0  0  0  0  0  0  0  0
  2  1  2  0
  3  2  1  0
  4  3  2  0
  4  5  1  0
  5  6  2  0
  6  1  1  0
  7  5  1  0
  8  7  1  0
  9  8  1  0
  1 10  1  0
  2 11  1  0
  3 12  1  0
  8 13  1  0
  8 14  1  0
  9 15  1  0
  9 16  1  0
 17 18  2  0
 18 19  1  0
 19 20  1  0
 19 21  2  0
 21 22  1  0
 22 23  2  0
 23 17  1  0
 18 24  1  0
 22 25  1  0
  9 17  1  0
M  ISO  8  10  14  11  14  12  14  13   8  14   8  15   8  16   8  20  14
M  END
>  <DihAtoms>  (1) 
7,8,16,17

>  <DihDeg>  (1) 
179.99755726661672

$$$$
