
 OpenBabel03272500043D

 27 29  0  0  0  0  0  0  0  0999 V2000
   36.1790   29.2160   49.2830 C   0  0  0  0  0  0  0  0  0  0  0  0
   36.0080   30.3490   48.4640 C   0  0  0  0  0  0  0  0  0  0  0  0
   34.9110   30.3760   47.6270 C   0  0  0  0  0  0  0  0  0  0  0  0
   34.0470   29.3330   47.6170 N   0  0  0  0  0  0  0  0  0  0  0  0
   34.2290   28.2620   48.4070 C   0  0  0  0  0  0  0  0  0  0  0  0
   35.2930   28.1930   49.2440 N   0  0  0  0  0  0  0  0  0  0  0  0
   37.0300   29.1650   49.9500 H   0  0  0  0  0  0  0  0  0  0  0  0
   34.7770   31.2390   47.0000 H   0  0  0  0  0  0  0  0  0  0  0  0
   36.9850   31.3910   48.5580 N   0  0  0  0  0  0  0  0  0  0  0  0
   37.1210   32.1350   49.6730 C   0  0  0  0  0  0  0  0  0  0  0  0
   38.0860   33.1370   49.7140 C   0  0  0  0  0  0  0  0  0  0  0  0
   38.8290   33.2700   48.5710 C   0  0  0  0  0  0  0  0  0  0  0  0
   39.7130   34.1770   48.5860 O   0  0  0  0  0  0  0  0  0  0  0  0
   38.7100   32.5420   47.4520 N   0  0  0  0  0  0  0  0  0  0  0  0
   37.7540   31.5770   47.4610 C   0  0  0  0  0  0  0  0  0  0  0  0
   37.6360   30.8860   46.4110 O   0  0  0  0  0  0  0  0  0  0  0  0
   36.4890   31.9600   50.5340 H   0  0  0  0  0  0  0  0  0  0  0  0
   38.2430   33.7630   50.5720 H   0  0  0  0  0  0  0  0  0  0  0  0
   39.3000   32.6900   46.6210 H   0  0  0  0  0  0  0  0  0  0  0  0
   33.3700   27.1690   48.4310 O   0  0  0  0  0  0  0  0  0  0  0  0
   31.9900   27.3090   48.2450 C   0  0  0  0  0  0  0  0  0  0  0  0
   31.4840   26.9400   47.0150 C   0  0  0  0  0  3  0  0  0  0  0  0
   30.1240   27.0950   46.8800 C   0  0  0  0  0  0  0  0  0  0  0  0
   29.6530   26.8270   45.9450 H   0  0  0  0  0  0  0  0  0  0  0  0
   29.3070   27.5730   47.8600 N   0  0  0  0  0  0  0  0  0  0  0  0
   29.8620   27.9210   49.0510 C   0  0  0  0  0  3  0  0  0  0  0  0
   31.1910   27.7870   49.2320 N   0  0  0  0  0  0  0  0  0  0  0  0
  1  7  1  0  0  0  0
  2  9  1  0  0  0  0
  2  1  2  0  0  0  0
  3  2  1  0  0  0  0
  4  3  2  0  0  0  0
  4  5  1  0  0  0  0
  5 20  1  0  0  0  0
  5  6  2  0  0  0  0
  6  1  1  0  0  0  0
  8  3  1  0  0  0  0
  9 10  1  0  0  0  0
 10 11  2  0  0  0  0
 10 17  1  0  0  0  0
 11 18  1  0  0  0  0
 12 13  2  0  0  0  0
 12 11  1  0  0  0  0
 14 15  1  0  0  0  0
 14 12  1  0  0  0  0
 15  9  1  0  0  0  0
 16 15  2  0  0  0  0
 19 14  1  0  0  0  0
 21 20  1  0  0  0  0
 21 27  1  0  0  0  0
 22 21  2  0  0  0  0
 23 22  1  0  0  0  0
 23 25  2  0  0  0  0
 24 23  1  0  0  0  0
 25 26  1  0  0  0  0
 26 27  2  0  0  0  0
M  END
>  <minimizedAffinity>
-5.49597788

>  <minimizedRMSD>
0.888915539

$$$$
