
 OpenBabel03272505153D

 26 28  0  0  0  0  0  0  0  0999 V2000
   38.1820   31.0350   48.3080 Cl  0  0  0  0  0  0  0  0  0  0  0  0
   37.0170   30.6270   47.0820 C   0  0  0  0  0  0  0  0  0  0  0  0
   35.8250   30.0500   47.4230 C   0  0  0  0  0  0  0  0  0  0  0  0
   34.9650   29.7580   46.3970 C   0  0  0  0  0  0  0  0  0  0  0  0
   35.2110   29.9970   45.0860 C   0  0  0  0  0  0  0  0  0  0  0  0
   36.4080   30.5730   44.7650 C   0  0  0  0  0  0  0  0  0  0  0  0
   37.3210   30.8930   45.7550 C   0  0  0  0  0  0  0  0  0  0  0  0
   34.0030   29.2930   46.6700 H   0  0  0  0  0  0  0  0  0  0  0  0
   34.4970   29.7460   44.3120 H   0  0  0  0  0  0  0  0  0  0  0  0
   36.6290   30.7740   43.7250 H   0  0  0  0  0  0  0  0  0  0  0  0
   36.2510   29.2290   51.0990 C   0  0  0  0  0  0  0  0  0  0  0  0
   36.5340   29.4680   49.7570 C   0  0  0  0  0  0  0  0  0  0  0  0
   35.5570   29.7940   48.8340 C   0  0  0  0  0  0  0  0  0  0  0  0
   34.2890   29.8630   49.3350 N   0  0  0  0  0  0  0  0  0  0  0  0
   34.0190   29.6320   50.6270 C   0  0  0  0  0  0  0  0  0  0  0  0
   34.9710   29.3190   51.5060 N   0  0  0  0  0  0  0  0  0  0  0  0
   37.0770   28.9800   51.7520 H   0  0  0  0  0  0  0  0  0  0  0  0
   37.5610   29.4040   49.3870 H   0  0  0  0  0  0  0  0  0  0  0  0
   32.9730   29.7170   50.9110 H   0  0  0  0  0  0  0  0  0  0  0  0
   38.6110   31.5080   45.4690 C   0  0  0  0  0  0  0  0  0  0  0  0
   39.8160   30.8420   45.4930 C   0  0  0  0  0  0  0  0  0  0  0  0
   41.0280   31.4330   45.2200 C   0  0  0  0  0  0  0  0  0  0  0  0
   41.9480   30.8450   45.2580 H   0  0  0  0  0  0  0  0  0  0  0  0
   41.0430   32.7460   44.9090 N   0  0  0  0  0  0  0  0  0  0  0  0
   39.8760   33.4250   44.8770 C   0  0  0  0  0  0  0  0  0  0  0  0
   38.7270   32.8180   45.1470 N   0  0  0  0  0  0  0  0  0  0  0  0
  2  3  1  0  0  0  0
  2  1  1  0  0  0  0
  3 13  1  0  0  0  0
  4  8  1  0  0  0  0
  4  3  2  0  0  0  0
  5  4  1  0  0  0  0
  6  5  2  0  0  0  0
  6  7  1  0  0  0  0
  7  2  2  0  0  0  0
  9  5  1  0  0  0  0
 10  6  1  0  0  0  0
 11 16  1  0  0  0  0
 11 17  1  0  0  0  0
 12 11  2  0  0  0  0
 13 14  2  0  0  0  0
 13 12  1  0  0  0  0
 14 15  1  0  0  0  0
 15 19  1  0  0  0  0
 15 16  2  0  0  0  0
 18 12  1  0  0  0  0
 20 21  1  0  0  0  0
 20  7  1  0  0  0  0
 22 23  1  0  0  0  0
 22 21  2  0  0  0  0
 24 22  1  0  0  0  0
 25 24  2  0  0  0  0
 25 26  1  0  0  0  0
 26 20  2  0  0  0  0
M  END
>  <minimizedAffinity>
-5.45787907

>  <minimizedRMSD>
3.58835626

$$$$
