
 OpenBabel03272507593D

 30 32  0  0  0  0  0  0  0  0999 V2000
   39.7440   24.6660   34.8770 C   0  0  0  0  0  0  0  0  0  0  0  0
   40.3030   25.9190   35.0410 C   0  0  0  0  0  0  0  0  0  0  0  0
   39.7900   26.9980   34.3360 C   0  0  0  0  0  0  0  0  0  0  0  0
   38.7190   26.8140   33.4710 C   0  0  0  0  0  0  0  0  0  0  0  0
   38.1920   25.5520   33.3370 C   0  0  0  0  0  0  0  0  0  0  0  0
   38.7010   24.5130   34.0280 N   0  0  0  0  0  0  0  0  0  0  0  0
   41.1310   26.2290   35.6700 H   0  0  0  0  0  0  0  0  0  0  0  0
   40.1580   28.0130   34.3980 H   0  0  0  0  0  0  0  0  0  0  0  0
   38.2840   27.6250   32.9020 H   0  0  0  0  0  0  0  0  0  0  0  0
   40.4660   22.1750   37.5950 C   0  0  0  0  0  0  0  0  0  0  0  0
   39.7820   23.1610   36.8290 C   0  0  0  0  0  0  0  0  0  0  0  0
   40.4090   23.6550   35.6910 C   0  0  0  0  0  0  0  0  0  0  0  0
   41.6470   23.1710   35.3620 N   0  0  0  0  0  0  0  0  0  0  0  0
   42.2510   22.2270   36.1350 C   0  0  0  0  0  0  0  0  0  0  0  0
   41.6860   21.7310   37.2280 N   0  0  0  0  0  0  0  0  0  0  0  0
   43.5350   21.8850   35.6090 N   0  0  0  0  0  0  0  0  0  0  0  0
   40.0010   21.7770   38.4820 H   0  0  0  0  0  0  0  0  0  0  0  0
   43.5250   21.3220   34.7190 H   0  0  0  0  0  0  0  0  0  0  0  0
   44.3780   22.2120   36.1360 H   0  0  0  0  0  0  0  0  0  0  0  0
   38.4430   23.6150   37.2790 C   0  0  0  0  0  0  0  0  0  0  0  0
   37.4340   23.1260   36.4480 F   0  0  0  0  0  0  0  0  0  0  0  0
   38.2300   23.1480   38.5370 F   0  0  0  0  0  0  0  0  0  0  0  0
   38.3150   24.9930   37.3040 F   0  0  0  0  0  0  0  0  0  0  0  0
   37.0680   25.3090   32.4420 C   0  0  0  0  0  0  0  0  0  0  0  0
   36.6950   24.0340   32.0890 C   0  0  0  0  0  3  0  0  0  0  0  0
   35.6160   23.9370   31.2360 C   0  0  0  0  0  0  0  0  0  0  0  0
   35.2900   22.9310   30.9330 H   0  0  0  0  0  0  0  0  0  0  0  0
   34.9600   25.0160   30.7720 N   0  0  0  0  0  0  0  0  0  0  0  0
   35.3490   26.2670   31.1360 C   0  0  0  0  0  3  0  0  0  0  0  0
   36.3860   26.3610   31.9550 N   0  0  0  0  0  0  0  0  0  0  0  0
  1  2  1  0  0  0  0
  1 12  1  0  0  0  0
  2  7  1  0  0  0  0
  3  8  1  0  0  0  0
  3  2  2  0  0  0  0
  4  3  1  0  0  0  0
  5  4  2  0  0  0  0
  5  6  1  0  0  0  0
  6  1  2  0  0  0  0
  9  4  1  0  0  0  0
 10 17  1  0  0  0  0
 11 20  1  0  0  0  0
 11 10  2  0  0  0  0
 12 11  1  0  0  0  0
 13 12  2  0  0  0  0
 13 14  1  0  0  0  0
 14 15  2  0  0  0  0
 15 10  1  0  0  0  0
 16 14  1  0  0  0  0
 16 19  1  0  0  0  0
 18 16  1  0  0  0  0
 20 23  1  0  0  0  0
 20 22  1  0  0  0  0
 21 20  1  0  0  0  0
 24  5  1  0  0  0  0
 25 24  1  0  0  0  0
 26 25  2  0  0  0  0
 27 26  1  0  0  0  0
 28 29  2  0  0  0  0
 28 26  1  0  0  0  0
 29 30  1  0  0  0  0
 30 24  2  0  0  0  0
M  END
>  <minimizedAffinity>
-5.8218751

$$$$

 OpenBabel03272507593D

 30 32  0  0  0  0  0  0  0  0999 V2000
   37.6340   22.5250   32.4240 C   0  0  0  0  0  0  0  0  0  0  0  0
   37.4140   23.7540   31.8320 C   0  0  0  0  0  0  0  0  0  0  0  0
   37.5400   24.9130   32.5840 C   0  0  0  0  0  0  0  0  0  0  0  0
   37.8880   24.8320   33.9260 C   0  0  0  0  0  0  0  0  0  0  0  0
   38.0990   23.5910   34.4770 C   0  0  0  0  0  0  0  0  0  0  0  0
   37.9720   22.4740   33.7350 N   0  0  0  0  0  0  0  0  0  0  0  0
   37.1400   23.9870   30.8090 H   0  0  0  0  0  0  0  0  0  0  0  0
   37.3890   25.9160   32.2110 H   0  0  0  0  0  0  0  0  0  0  0  0
   38.0010   25.7080   34.5520 H   0  0  0  0  0  0  0  0  0  0  0  0
   36.1410   19.6170   30.5740 C   0  0  0  0  0  0  0  0  0  0  0  0
   36.2750   20.6860   31.5040 C   0  0  0  0  0  0  0  0  0  0  0  0
   37.4550   21.4220   31.4890 C   0  0  0  0  0  0  0  0  0  0  0  0
   38.4260   21.0850   30.5830 N   0  0  0  0  0  0  0  0  0  0  0  0
   38.2390   20.0500   29.7170 C   0  0  0  0  0  0  0  0  0  0  0  0
   37.1280   19.3250   29.7020 N   0  0  0  0  0  0  0  0  0  0  0  0
   39.3840   19.8750   28.8810 N   0  0  0  0  0  0  0  0  0  0  0  0
   35.2360   19.0310   30.5670 H   0  0  0  0  0  0  0  0  0  0  0  0
   39.5290   20.6180   28.1490 H   0  0  0  0  0  0  0  0  0  0  0  0
   39.9860   19.0360   29.0510 H   0  0  0  0  0  0  0  0  0  0  0  0
   35.1590   20.9630   32.4420 C   0  0  0  0  0  0  0  0  0  0  0  0
   34.7650   22.3000   32.3830 F   0  0  0  0  0  0  0  0  0  0  0  0
   34.1010   20.1850   32.0930 F   0  0  0  0  0  0  0  0  0  0  0  0
   35.4770   20.6910   33.7610 F   0  0  0  0  0  0  0  0  0  0  0  0
   38.4670   23.4550   35.8810 C   0  0  0  0  0  0  0  0  0  0  0  0
   39.6140   22.8010   36.2610 C   0  0  0  0  0  3  0  0  0  0  0  0
   39.8500   22.7410   37.6190 C   0  0  0  0  0  0  0  0  0  0  0  0
   40.7600   22.2230   37.9590 H   0  0  0  0  0  0  0  0  0  0  0  0
   39.0160   23.2840   38.5240 N   0  0  0  0  0  0  0  0  0  0  0  0
   37.8870   23.9260   38.1220 C   0  0  0  0  0  3  0  0  0  0  0  0
   37.6600   23.9850   36.8180 N   0  0  0  0  0  0  0  0  0  0  0  0
  1  6  1  0  0  0  0
  2  1  2  0  0  0  0
  2  3  1  0  0  0  0
  3  4  2  0  0  0  0
  4  5  1  0  0  0  0
  4  9  1  0  0  0  0
  5 24  1  0  0  0  0
  6  5  2  0  0  0  0
  7  2  1  0  0  0  0
  8  3  1  0  0  0  0
 10 11  1  0  0  0  0
 11 20  1  0  0  0  0
 12 11  2  0  0  0  0
 12  1  1  0  0  0  0
 13 12  1  0  0  0  0
 14 13  2  0  0  0  0
 15 14  1  0  0  0  0
 15 10  2  0  0  0  0
 16 19  1  0  0  0  0
 16 14  1  0  0  0  0
 17 10  1  0  0  0  0
 18 16  1  0  0  0  0
 20 23  1  0  0  0  0
 21 20  1  0  0  0  0
 22 20  1  0  0  0  0
 24 25  2  0  0  0  0
 24 30  1  0  0  0  0
 25 26  1  0  0  0  0
 26 27  1  0  0  0  0
 26 28  2  0  0  0  0
 29 28  1  0  0  0  0
 30 29  2  0  0  0  0
M  END
>  <minimizedAffinity>
-5.59253931

$$$$

 OpenBabel03272507593D

 30 32  0  0  0  0  0  0  0  0999 V2000
   37.3130   25.1410   32.5130 C   0  0  0  0  0  0  0  0  0  0  0  0
   36.4610   26.0190   31.8710 C   0  0  0  0  0  0  0  0  0  0  0  0
   35.4050   25.5270   31.1190 C   0  0  0  0  0  0  0  0  0  0  0  0
   35.2100   24.1560   31.0130 C   0  0  0  0  0  0  0  0  0  0  0  0
   36.0800   23.3170   31.6670 C   0  0  0  0  0  0  0  0  0  0  0  0
   37.1020   23.8090   32.3940 N   0  0  0  0  0  0  0  0  0  0  0  0
   36.4730   27.1040   31.8540 H   0  0  0  0  0  0  0  0  0  0  0  0
   34.6870   26.1330   30.5830 H   0  0  0  0  0  0  0  0  0  0  0  0
   34.4000   23.7250   30.4390 H   0  0  0  0  0  0  0  0  0  0  0  0
   40.6450   26.5770   33.4880 C   0  0  0  0  0  0  0  0  0  0  0  0
   39.6510   25.8920   32.7330 C   0  0  0  0  0  0  0  0  0  0  0  0
   38.3620   25.8320   33.2530 C   0  0  0  0  0  0  0  0  0  0  0  0
   38.1130   26.4310   34.4590 N   0  0  0  0  0  0  0  0  0  0  0  0
   39.1070   27.0710   35.1350 C   0  0  0  0  0  0  0  0  0  0  0  0
   40.3480   27.1500   34.6730 N   0  0  0  0  0  0  0  0  0  0  0  0
   38.6210   27.6050   36.3680 N   0  0  0  0  0  0  0  0  0  0  0  0
   41.6510   26.6370   33.1070 H   0  0  0  0  0  0  0  0  0  0  0  0
   37.9800   28.4370   36.2810 H   0  0  0  0  0  0  0  0  0  0  0  0
   38.9300   27.1400   37.2540 H   0  0  0  0  0  0  0  0  0  0  0  0
   40.0320   25.2790   31.4370 C   0  0  0  0  0  0  0  0  0  0  0  0
   39.2370   25.7570   30.3940 F   0  0  0  0  0  0  0  0  0  0  0  0
   41.3260   25.5970   31.1750 F   0  0  0  0  0  0  0  0  0  0  0  0
   39.9190   23.8990   31.4350 F   0  0  0  0  0  0  0  0  0  0  0  0
   35.9160   21.8700   31.5860 C   0  0  0  0  0  0  0  0  0  0  0  0
   34.9360   21.2200   32.2980 C   0  0  0  0  0  3  0  0  0  0  0  0
   34.8840   19.8510   32.1360 C   0  0  0  0  0  0  0  0  0  0  0  0
   34.1120   19.2980   32.6920 H   0  0  0  0  0  0  0  0  0  0  0  0
   35.7340   19.1830   31.3360 N   0  0  0  0  0  0  0  0  0  0  0  0
   36.6950   19.8500   30.6430 C   0  0  0  0  0  3  0  0  0  0  0  0
   36.7460   21.1650   30.7970 N   0  0  0  0  0  0  0  0  0  0  0  0
  1 12  1  0  0  0  0
  2  1  2  0  0  0  0
  3  2  1  0  0  0  0
  4  3  2  0  0  0  0
  4  5  1  0  0  0  0
  5  6  2  0  0  0  0
  6  1  1  0  0  0  0
  7  2  1  0  0  0  0
  8  3  1  0  0  0  0
  9  4  1  0  0  0  0
 10 15  1  0  0  0  0
 11 12  1  0  0  0  0
 11 10  2  0  0  0  0
 12 13  2  0  0  0  0
 13 14  1  0  0  0  0
 14 16  1  0  0  0  0
 15 14  2  0  0  0  0
 16 19  1  0  0  0  0
 17 10  1  0  0  0  0
 18 16  1  0  0  0  0
 20 11  1  0  0  0  0
 21 20  1  0  0  0  0
 22 20  1  0  0  0  0
 23 20  1  0  0  0  0
 24  5  1  0  0  0  0
 24 25  1  0  0  0  0
 26 25  2  0  0  0  0
 26 27  1  0  0  0  0
 28 26  1  0  0  0  0
 29 30  1  0  0  0  0
 29 28  2  0  0  0  0
 30 24  2  0  0  0  0
M  END
>  <minimizedAffinity>
-5.48737001

$$$$

 OpenBabel03272507593D

 30 32  0  0  0  0  0  0  0  0999 V2000
   37.6700   26.4650   32.9340 C   0  0  0  0  0  0  0  0  0  0  0  0
   38.7490   26.6250   32.0870 C   0  0  0  0  0  0  0  0  0  0  0  0
   38.7500   27.6570   31.1600 C   0  0  0  0  0  0  0  0  0  0  0  0
   37.6660   28.5230   31.0880 C   0  0  0  0  0  0  0  0  0  0  0  0
   36.6120   28.3290   31.9480 C   0  0  0  0  0  0  0  0  0  0  0  0
   36.6250   27.3220   32.8440 N   0  0  0  0  0  0  0  0  0  0  0  0
   39.6630   26.0440   32.0160 H   0  0  0  0  0  0  0  0  0  0  0  0
   39.5450   27.8620   30.4580 H   0  0  0  0  0  0  0  0  0  0  0  0
   37.6210   29.3430   30.3830 H   0  0  0  0  0  0  0  0  0  0  0  0
   38.2770   24.4220   36.0270 C   0  0  0  0  0  0  0  0  0  0  0  0
   38.1180   25.5550   35.1810 C   0  0  0  0  0  0  0  0  0  0  0  0
   37.8400   25.3330   33.8370 C   0  0  0  0  0  0  0  0  0  0  0  0
   37.7310   24.0410   33.3950 N   0  0  0  0  0  0  0  0  0  0  0  0
   37.8930   22.9970   34.2540 C   0  0  0  0  0  0  0  0  0  0  0  0
   38.1600   23.1680   35.5420 N   0  0  0  0  0  0  0  0  0  0  0  0
   37.7500   21.7500   33.5710 N   0  0  0  0  0  0  0  0  0  0  0  0
   38.4940   24.5680   37.0730 H   0  0  0  0  0  0  0  0  0  0  0  0
   36.7700   21.5070   33.2720 H   0  0  0  0  0  0  0  0  0  0  0  0
   38.6130   21.1770   33.4200 H   0  0  0  0  0  0  0  0  0  0  0  0
   38.2580   26.9110   35.7660 C   0  0  0  0  0  0  0  0  0  0  0  0
   37.1460   27.7050   35.4840 F   0  0  0  0  0  0  0  0  0  0  0  0
   38.3700   26.7880   37.1140 F   0  0  0  0  0  0  0  0  0  0  0  0
   39.3710   27.5910   35.3030 F   0  0  0  0  0  0  0  0  0  0  0  0
   35.4530   29.2120   31.9110 C   0  0  0  0  0  0  0  0  0  0  0  0
   35.4390   30.3440   31.1310 C   0  0  0  0  0  3  0  0  0  0  0  0
   34.2830   31.0960   31.1830 C   0  0  0  0  0  0  0  0  0  0  0  0
   34.2380   32.0090   30.5710 H   0  0  0  0  0  0  0  0  0  0  0  0
   33.2300   30.7530   31.9460 N   0  0  0  0  0  0  0  0  0  0  0  0
   33.2690   29.6280   32.7090 C   0  0  0  0  0  3  0  0  0  0  0  0
   34.3780   28.9050   32.6600 N   0  0  0  0  0  0  0  0  0  0  0  0
  1 12  1  0  0  0  0
  2  1  2  0  0  0  0
  3  2  1  0  0  0  0
  4  3  2  0  0  0  0
  4  5  1  0  0  0  0
  5  6  2  0  0  0  0
  6  1  1  0  0  0  0
  7  2  1  0  0  0  0
  8  3  1  0  0  0  0
  9  4  1  0  0  0  0
 10 17  1  0  0  0  0
 11 20  1  0  0  0  0
 11 10  2  0  0  0  0
 12 11  1  0  0  0  0
 13 12  2  0  0  0  0
 13 14  1  0  0  0  0
 14 15  2  0  0  0  0
 15 10  1  0  0  0  0
 16 14  1  0  0  0  0
 18 16  1  0  0  0  0
 19 16  1  0  0  0  0
 20 22  1  0  0  0  0
 21 20  1  0  0  0  0
 23 20  1  0  0  0  0
 24  5  1  0  0  0  0
 24 30  1  0  0  0  0
 25 26  1  0  0  0  0
 25 24  2  0  0  0  0
 26 28  2  0  0  0  0
 27 26  1  0  0  0  0
 28 29  1  0  0  0  0
 30 29  2  0  0  0  0
M  END
>  <minimizedAffinity>
-5.47805882

$$$$

 OpenBabel03272507593D

 30 32  0  0  0  0  0  0  0  0999 V2000
   38.1160   25.9510   34.1070 C   0  0  0  0  0  0  0  0  0  0  0  0
   37.2880   26.6940   34.9280 C   0  0  0  0  0  0  0  0  0  0  0  0
   36.6550   27.8220   34.4280 C   0  0  0  0  0  0  0  0  0  0  0  0
   36.8560   28.2000   33.1060 C   0  0  0  0  0  0  0  0  0  0  0  0
   37.6870   27.4350   32.3230 C   0  0  0  0  0  0  0  0  0  0  0  0
   38.2960   26.3410   32.8230 N   0  0  0  0  0  0  0  0  0  0  0  0
   37.0270   26.5360   35.9690 H   0  0  0  0  0  0  0  0  0  0  0  0
   35.9910   28.4630   34.9900 H   0  0  0  0  0  0  0  0  0  0  0  0
   36.3830   29.0710   32.6710 H   0  0  0  0  0  0  0  0  0  0  0  0
   40.5830   23.6460   35.7530 C   0  0  0  0  0  0  0  0  0  0  0  0
   40.0580   24.7830   35.0770 C   0  0  0  0  0  0  0  0  0  0  0  0
   38.6960   24.8070   34.7980 C   0  0  0  0  0  0  0  0  0  0  0  0
   37.9280   23.7400   35.1870 N   0  0  0  0  0  0  0  0  0  0  0  0
   38.4900   22.6790   35.8310 C   0  0  0  0  0  0  0  0  0  0  0  0
   39.7840   22.6200   36.1150 N   0  0  0  0  0  0  0  0  0  0  0  0
   37.5050   21.6860   36.1250 N   0  0  0  0  0  0  0  0  0  0  0  0
   41.6360   23.6040   35.9800 H   0  0  0  0  0  0  0  0  0  0  0  0
   36.8190   21.9370   36.8830 H   0  0  0  0  0  0  0  0  0  0  0  0
   37.5370   20.7950   35.5760 H   0  0  0  0  0  0  0  0  0  0  0  0
   40.9810   25.8820   34.7020 C   0  0  0  0  0  0  0  0  0  0  0  0
   40.4950   27.1210   35.1210 F   0  0  0  0  0  0  0  0  0  0  0  0
   42.1790   25.6620   35.3030 F   0  0  0  0  0  0  0  0  0  0  0  0
   41.1950   25.9710   33.3370 F   0  0  0  0  0  0  0  0  0  0  0  0
   37.9280   27.7910   30.9300 C   0  0  0  0  0  0  0  0  0  0  0  0
   37.1190   28.6840   30.2690 C   0  0  0  0  0  3  0  0  0  0  0  0
   37.4530   28.9370   28.9550 C   0  0  0  0  0  0  0  0  0  0  0  0
   36.8270   29.6470   28.3950 H   0  0  0  0  0  0  0  0  0  0  0  0
   38.5020   28.3530   28.3470 N   0  0  0  0  0  0  0  0  0  0  0  0
   39.2860   27.4720   29.0240 C   0  0  0  0  0  3  0  0  0  0  0  0
   38.9660   27.2280   30.2870 N   0  0  0  0  0  0  0  0  0  0  0  0
  1 12  1  0  0  0  0
  1  2  1  0  0  0  0
  2  7  1  0  0  0  0
  3  2  2  0  0  0  0
  3  8  1  0  0  0  0
  4  3  1  0  0  0  0
  5  6  1  0  0  0  0
  5  4  2  0  0  0  0
  6  1  2  0  0  0  0
  9  4  1  0  0  0  0
 10 17  1  0  0  0  0
 10 15  1  0  0  0  0
 11 10  2  0  0  0  0
 12 11  1  0  0  0  0
 12 13  2  0  0  0  0
 13 14  1  0  0  0  0
 14 15  2  0  0  0  0
 14 16  1  0  0  0  0
 16 18  1  0  0  0  0
 19 16  1  0  0  0  0
 20 11  1  0  0  0  0
 20 21  1  0  0  0  0
 20 22  1  0  0  0  0
 23 20  1  0  0  0  0
 24  5  1  0  0  0  0
 25 24  2  0  0  0  0
 26 25  1  0  0  0  0
 27 26  1  0  0  0  0
 28 26  2  0  0  0  0
 28 29  1  0  0  0  0
 29 30  2  0  0  0  0
 30 24  1  0  0  0  0
M  END
>  <minimizedAffinity>
-5.43378401

$$$$

 OpenBabel03272507593D

 30 32  0  0  0  0  0  0  0  0999 V2000
   37.7120   25.3540   32.3780 C   0  0  0  0  0  0  0  0  0  0  0  0
   36.7980   26.2760   31.9060 C   0  0  0  0  0  0  0  0  0  0  0  0
   35.6150   25.8400   31.3300 C   0  0  0  0  0  0  0  0  0  0  0  0
   35.3540   24.4790   31.2300 C   0  0  0  0  0  0  0  0  0  0  0  0
   36.2890   23.5940   31.7110 C   0  0  0  0  0  0  0  0  0  0  0  0
   37.4350   24.0330   32.2680 N   0  0  0  0  0  0  0  0  0  0  0  0
   36.8480   27.3600   31.9090 H   0  0  0  0  0  0  0  0  0  0  0  0
   34.8410   26.4830   30.9340 H   0  0  0  0  0  0  0  0  0  0  0  0
   34.4450   24.0910   30.7900 H   0  0  0  0  0  0  0  0  0  0  0  0
   40.1670   26.7820   34.8360 C   0  0  0  0  0  0  0  0  0  0  0  0
   38.9950   26.1570   34.3230 C   0  0  0  0  0  0  0  0  0  0  0  0
   38.8940   25.9890   32.9460 C   0  0  0  0  0  0  0  0  0  0  0  0
   39.9220   26.4310   32.1550 N   0  0  0  0  0  0  0  0  0  0  0  0
   41.0180   27.0220   32.7060 C   0  0  0  0  0  0  0  0  0  0  0  0
   41.1510   27.2000   34.0140 N   0  0  0  0  0  0  0  0  0  0  0  0
   41.9480   27.4110   31.6930 N   0  0  0  0  0  0  0  0  0  0  0  0
   40.2690   26.9240   35.9000 H   0  0  0  0  0  0  0  0  0  0  0  0
   42.4620   26.6220   31.2210 H   0  0  0  0  0  0  0  0  0  0  0  0
   42.0500   28.4340   31.4950 H   0  0  0  0  0  0  0  0  0  0  0  0
   37.9440   25.7170   35.2720 C   0  0  0  0  0  0  0  0  0  0  0  0
   37.7500   24.3370   35.2150 F   0  0  0  0  0  0  0  0  0  0  0  0
   38.3360   26.0460   36.5310 F   0  0  0  0  0  0  0  0  0  0  0  0
   36.7160   26.3100   35.0360 F   0  0  0  0  0  0  0  0  0  0  0  0
   36.0600   22.1570   31.6300 C   0  0  0  0  0  0  0  0  0  0  0  0
   35.0460   21.5520   32.3330 C   0  0  0  0  0  3  0  0  0  0  0  0
   34.9340   20.1860   32.1710 C   0  0  0  0  0  0  0  0  0  0  0  0
   34.1320   19.6690   32.7200 H   0  0  0  0  0  0  0  0  0  0  0  0
   35.7590   19.4810   31.3770 N   0  0  0  0  0  0  0  0  0  0  0  0
   36.7550   20.1030   30.6920 C   0  0  0  0  0  3  0  0  0  0  0  0
   36.8640   21.4150   30.8470 N   0  0  0  0  0  0  0  0  0  0  0  0
  1 12  1  0  0  0  0
  2  7  1  0  0  0  0
  2  1  2  0  0  0  0
  3  2  1  0  0  0  0
  4  3  2  0  0  0  0
  4  5  1  0  0  0  0
  5  6  2  0  0  0  0
  6  1  1  0  0  0  0
  8  3  1  0  0  0  0
  9  4  1  0  0  0  0
 10 17  1  0  0  0  0
 11 10  1  0  0  0  0
 11 20  1  0  0  0  0
 12 11  2  0  0  0  0
 13 14  2  0  0  0  0
 13 12  1  0  0  0  0
 14 15  1  0  0  0  0
 15 10  2  0  0  0  0
 16 14  1  0  0  0  0
 18 16  1  0  0  0  0
 19 16  1  0  0  0  0
 20 22  1  0  0  0  0
 21 20  1  0  0  0  0
 23 20  1  0  0  0  0
 24  5  1  0  0  0  0
 24 25  1  0  0  0  0
 26 25  2  0  0  0  0
 26 27  1  0  0  0  0
 28 26  1  0  0  0  0
 29 30  1  0  0  0  0
 29 28  2  0  0  0  0
 30 24  2  0  0  0  0
M  END
>  <minimizedAffinity>
-5.41725206

$$$$

 OpenBabel03272507593D

 30 32  0  0  0  0  0  0  0  0999 V2000
   37.8490   26.0450   33.5410 C   0  0  0  0  0  0  0  0  0  0  0  0
   37.2460   26.4980   34.6980 C   0  0  0  0  0  0  0  0  0  0  0  0
   38.0280   26.9710   35.7420 C   0  0  0  0  0  0  0  0  0  0  0  0
   39.4110   26.9870   35.6190 C   0  0  0  0  0  0  0  0  0  0  0  0
   39.9720   26.5280   34.4510 C   0  0  0  0  0  0  0  0  0  0  0  0
   39.2000   26.0710   33.4450 N   0  0  0  0  0  0  0  0  0  0  0  0
   36.1930   26.5530   34.9510 H   0  0  0  0  0  0  0  0  0  0  0  0
   37.6490   27.3450   36.6830 H   0  0  0  0  0  0  0  0  0  0  0  0
   40.0620   27.3470   36.4050 H   0  0  0  0  0  0  0  0  0  0  0  0
   35.2790   26.0160   30.8020 C   0  0  0  0  0  0  0  0  0  0  0  0
   36.2200   26.5080   31.7500 C   0  0  0  0  0  0  0  0  0  0  0  0
   36.8790   25.5860   32.5560 C   0  0  0  0  0  0  0  0  0  0  0  0
   36.5930   24.2550   32.3970 N   0  0  0  0  0  0  0  0  0  0  0  0
   35.6820   23.8460   31.4710 C   0  0  0  0  0  0  0  0  0  0  0  0
   35.0330   24.6950   30.6850 N   0  0  0  0  0  0  0  0  0  0  0  0
   35.5380   22.4240   31.4950 N   0  0  0  0  0  0  0  0  0  0  0  0
   34.7550   26.7120   30.1660 H   0  0  0  0  0  0  0  0  0  0  0  0
   36.3540   21.8800   31.1100 H   0  0  0  0  0  0  0  0  0  0  0  0
   34.6500   22.0330   31.8850 H   0  0  0  0  0  0  0  0  0  0  0  0
   36.4510   27.9710   31.8370 C   0  0  0  0  0  0  0  0  0  0  0  0
   35.9230   28.5010   33.0150 F   0  0  0  0  0  0  0  0  0  0  0  0
   37.7910   28.1960   31.8250 F   0  0  0  0  0  0  0  0  0  0  0  0
   35.8880   28.6740   30.7870 F   0  0  0  0  0  0  0  0  0  0  0  0
   41.4190   26.5260   34.2740 C   0  0  0  0  0  0  0  0  0  0  0  0
   42.0340   27.3820   33.3930 C   0  0  0  0  0  3  0  0  0  0  0  0
   43.4080   27.2820   33.3170 C   0  0  0  0  0  0  0  0  0  0  0  0
   43.9330   27.9530   32.6210 H   0  0  0  0  0  0  0  0  0  0  0  0
   44.1120   26.4050   34.0550 N   0  0  0  0  0  0  0  0  0  0  0  0
   43.4790   25.5680   34.9190 C   0  0  0  0  0  3  0  0  0  0  0  0
   42.1600   25.6630   34.9930 N   0  0  0  0  0  0  0  0  0  0  0  0
  1  2  1  0  0  0  0
  2  7  1  0  0  0  0
  2  3  2  0  0  0  0
  3  8  1  0  0  0  0
  4  3  1  0  0  0  0
  4  9  1  0  0  0  0
  5  4  2  0  0  0  0
  6  1  2  0  0  0  0
  6  5  1  0  0  0  0
 10 11  1  0  0  0  0
 11 20  1  0  0  0  0
 11 12  2  0  0  0  0
 12  1  1  0  0  0  0
 13 12  1  0  0  0  0
 14 16  1  0  0  0  0
 14 13  2  0  0  0  0
 15 10  2  0  0  0  0
 15 14  1  0  0  0  0
 16 19  1  0  0  0  0
 17 10  1  0  0  0  0
 18 16  1  0  0  0  0
 20 21  1  0  0  0  0
 22 20  1  0  0  0  0
 23 20  1  0  0  0  0
 24  5  1  0  0  0  0
 24 30  1  0  0  0  0
 25 24  2  0  0  0  0
 26 25  1  0  0  0  0
 26 28  2  0  0  0  0
 27 26  1  0  0  0  0
 28 29  1  0  0  0  0
 29 30  2  0  0  0  0
M  END
>  <minimizedAffinity>
-5.41585732

$$$$

 OpenBabel03272507593D

 30 32  0  0  0  0  0  0  0  0999 V2000
   37.2450   27.0460   33.1640 C   0  0  0  0  0  0  0  0  0  0  0  0
   37.4770   27.4440   31.8610 C   0  0  0  0  0  0  0  0  0  0  0  0
   36.9770   28.6570   31.4130 C   0  0  0  0  0  0  0  0  0  0  0  0
   36.2450   29.4650   32.2740 C   0  0  0  0  0  0  0  0  0  0  0  0
   36.0370   29.0330   33.5620 C   0  0  0  0  0  0  0  0  0  0  0  0
   36.5280   27.8520   33.9830 N   0  0  0  0  0  0  0  0  0  0  0  0
   38.0230   26.9380   31.0720 H   0  0  0  0  0  0  0  0  0  0  0  0
   37.1060   29.0540   30.4160 H   0  0  0  0  0  0  0  0  0  0  0  0
   35.8360   30.4200   31.9710 H   0  0  0  0  0  0  0  0  0  0  0  0
   39.5920   24.3950   34.4160 C   0  0  0  0  0  0  0  0  0  0  0  0
   39.0460   25.6820   34.1490 C   0  0  0  0  0  0  0  0  0  0  0  0
   37.8400   25.7490   33.4590 C   0  0  0  0  0  0  0  0  0  0  0  0
   37.2390   24.5800   33.0730 N   0  0  0  0  0  0  0  0  0  0  0  0
   37.8120   23.3770   33.3590 C   0  0  0  0  0  0  0  0  0  0  0  0
   38.9610   23.2720   34.0140 N   0  0  0  0  0  0  0  0  0  0  0  0
   37.0180   22.3030   32.8500 N   0  0  0  0  0  0  0  0  0  0  0  0
   40.5260   24.3160   34.9490 H   0  0  0  0  0  0  0  0  0  0  0  0
   36.1130   22.1280   33.3580 H   0  0  0  0  0  0  0  0  0  0  0  0
   37.3870   21.7770   32.0230 H   0  0  0  0  0  0  0  0  0  0  0  0
   39.7820   26.8830   34.6130 C   0  0  0  0  0  0  0  0  0  0  0  0
   39.0220   27.6300   35.5130 F   0  0  0  0  0  0  0  0  0  0  0  0
   40.9170   26.4760   35.2400 F   0  0  0  0  0  0  0  0  0  0  0  0
   40.1420   27.7320   33.5810 F   0  0  0  0  0  0  0  0  0  0  0  0
   35.2760   29.8460   34.5030 C   0  0  0  0  0  0  0  0  0  0  0  0
   35.8870   30.7990   35.2830 C   0  0  0  0  0  3  0  0  0  0  0  0
   35.0570   31.5020   36.1320 C   0  0  0  0  0  0  0  0  0  0  0  0
   35.5130   32.2730   36.7720 H   0  0  0  0  0  0  0  0  0  0  0  0
   33.7330   31.2770   36.2020 N   0  0  0  0  0  0  0  0  0  0  0  0
   33.1530   30.3280   35.4200 C   0  0  0  0  0  3  0  0  0  0  0  0
   33.9490   29.6530   34.6030 N   0  0  0  0  0  0  0  0  0  0  0  0
  1 12  1  0  0  0  0
  1  6  1  0  0  0  0
  2  1  2  0  0  0  0
  3  2  1  0  0  0  0
  3  4  2  0  0  0  0
  4  5  1  0  0  0  0
  5  6  2  0  0  0  0
  5 24  1  0  0  0  0
  7  2  1  0  0  0  0
  8  3  1  0  0  0  0
  9  4  1  0  0  0  0
 10 17  1  0  0  0  0
 11 10  1  0  0  0  0
 11 20  1  0  0  0  0
 12 11  2  0  0  0  0
 13 14  2  0  0  0  0
 13 12  1  0  0  0  0
 14 15  1  0  0  0  0
 15 10  2  0  0  0  0
 16 18  1  0  0  0  0
 16 14  1  0  0  0  0
 19 16  1  0  0  0  0
 20 22  1  0  0  0  0
 20 21  1  0  0  0  0
 23 20  1  0  0  0  0
 24 30  2  0  0  0  0
 24 25  1  0  0  0  0
 25 26  2  0  0  0  0
 26 28  1  0  0  0  0
 26 27  1  0  0  0  0
 29 28  2  0  0  0  0
 30 29  1  0  0  0  0
M  END
>  <minimizedAffinity>
-5.3899703

$$$$

 OpenBabel03272507593D

 30 32  0  0  0  0  0  0  0  0999 V2000
   35.1280   29.7420   33.0840 C   0  0  0  0  0  0  0  0  0  0  0  0
   35.7720   30.6040   32.2160 C   0  0  0  0  0  0  0  0  0  0  0  0
   36.5560   30.0920   31.1940 C   0  0  0  0  0  0  0  0  0  0  0  0
   36.6920   28.7170   31.0480 C   0  0  0  0  0  0  0  0  0  0  0  0
   36.0360   27.8940   31.9320 C   0  0  0  0  0  0  0  0  0  0  0  0
   35.2770   28.4060   32.9210 N   0  0  0  0  0  0  0  0  0  0  0  0
   35.7680   31.6880   32.1920 H   0  0  0  0  0  0  0  0  0  0  0  0
   37.0960   30.6830   30.4680 H   0  0  0  0  0  0  0  0  0  0  0  0
   37.2920   28.2700   30.2650 H   0  0  0  0  0  0  0  0  0  0  0  0
   32.2630   31.3160   34.9340 C   0  0  0  0  0  0  0  0  0  0  0  0
   32.9820   30.6160   33.9240 C   0  0  0  0  0  0  0  0  0  0  0  0
   34.3530   30.4530   34.0930 C   0  0  0  0  0  0  0  0  0  0  0  0
   34.9420   30.9700   35.2170 N   0  0  0  0  0  0  0  0  0  0  0  0
   34.1990   31.6310   36.1480 C   0  0  0  0  0  0  0  0  0  0  0  0
   32.8900   31.8070   36.0230 N   0  0  0  0  0  0  0  0  0  0  0  0
   35.0240   32.0910   37.2210 N   0  0  0  0  0  0  0  0  0  0  0  0
   31.2000   31.4570   34.8260 H   0  0  0  0  0  0  0  0  0  0  0  0
   35.3870   31.3420   37.8670 H   0  0  0  0  0  0  0  0  0  0  0  0
   35.2040   33.1200   37.2880 H   0  0  0  0  0  0  0  0  0  0  0  0
   32.2430   30.0990   32.7470 C   0  0  0  0  0  0  0  0  0  0  0  0
   32.3460   28.7110   32.6510 F   0  0  0  0  0  0  0  0  0  0  0  0
   30.9320   30.4260   32.8850 F   0  0  0  0  0  0  0  0  0  0  0  0
   32.6930   30.6240   31.5480 F   0  0  0  0  0  0  0  0  0  0  0  0
   36.1470   26.4450   31.8190 C   0  0  0  0  0  0  0  0  0  0  0  0
   35.2820   25.7190   31.0340 C   0  0  0  0  0  3  0  0  0  0  0  0
   35.4920   24.3560   31.0110 C   0  0  0  0  0  0  0  0  0  0  0  0
   34.8180   23.7440   30.3930 H   0  0  0  0  0  0  0  0  0  0  0  0
   36.4780   23.7630   31.7080 N   0  0  0  0  0  0  0  0  0  0  0  0
   37.3190   24.5040   32.4770 C   0  0  0  0  0  3  0  0  0  0  0  0
   37.1190   25.8130   32.5000 N   0  0  0  0  0  0  0  0  0  0  0  0
  1 12  1  0  0  0  0
  2  1  2  0  0  0  0
  3  2  1  0  0  0  0
  4  3  2  0  0  0  0
  4  5  1  0  0  0  0
  5  6  2  0  0  0  0
  6  1  1  0  0  0  0
  7  2  1  0  0  0  0
  8  3  1  0  0  0  0
  9  4  1  0  0  0  0
 10 15  1  0  0  0  0
 11 12  1  0  0  0  0
 11 10  2  0  0  0  0
 12 13  2  0  0  0  0
 13 14  1  0  0  0  0
 14 16  1  0  0  0  0
 15 14  2  0  0  0  0
 16 19  1  0  0  0  0
 16 18  1  0  0  0  0
 17 10  1  0  0  0  0
 20 22  1  0  0  0  0
 20 11  1  0  0  0  0
 21 20  1  0  0  0  0
 23 20  1  0  0  0  0
 24  5  1  0  0  0  0
 24 30  1  0  0  0  0
 25 24  2  0  0  0  0
 26 25  1  0  0  0  0
 26 28  2  0  0  0  0
 27 26  1  0  0  0  0
 28 29  1  0  0  0  0
 29 30  2  0  0  0  0
M  END
>  <minimizedAffinity>
-5.35831022

$$$$
