
 OpenBabel03272500043D

 27 29  0  0  0  0  0  0  0  0999 V2000
   36.0920   29.2320   49.2780 C   0  0  0  0  0  0  0  0  0  0  0  0
   35.9300   30.3800   48.4800 C   0  0  0  0  0  0  0  0  0  0  0  0
   34.8100   30.4510   47.6770 C   0  0  0  0  0  0  0  0  0  0  0  0
   33.9160   29.4330   47.6780 N   0  0  0  0  0  0  0  0  0  0  0  0
   34.0910   28.3460   48.4480 C   0  0  0  0  0  0  0  0  0  0  0  0
   35.1770   28.2350   49.2510 N   0  0  0  0  0  0  0  0  0  0  0  0
   36.9610   29.1470   49.9180 H   0  0  0  0  0  0  0  0  0  0  0  0
   34.6820   31.3250   47.0650 H   0  0  0  0  0  0  0  0  0  0  0  0
   36.9390   31.3930   48.5580 N   0  0  0  0  0  0  0  0  0  0  0  0
   37.1250   32.1220   49.6770 C   0  0  0  0  0  0  0  0  0  0  0  0
   38.1200   33.0950   49.7020 C   0  0  0  0  0  0  0  0  0  0  0  0
   38.8360   33.2190   48.5410 C   0  0  0  0  0  0  0  0  0  0  0  0
   39.7460   34.0990   48.5420 O   0  0  0  0  0  0  0  0  0  0  0  0
   38.6670   32.5060   47.4190 N   0  0  0  0  0  0  0  0  0  0  0  0
   37.6850   31.5690   47.4440 C   0  0  0  0  0  0  0  0  0  0  0  0
   37.5190   30.8920   46.3900 O   0  0  0  0  0  0  0  0  0  0  0  0
   36.5110   31.9550   50.5520 H   0  0  0  0  0  0  0  0  0  0  0  0
   38.3170   33.7060   50.5620 H   0  0  0  0  0  0  0  0  0  0  0  0
   39.2390   32.6460   46.5740 H   0  0  0  0  0  0  0  0  0  0  0  0
   33.2020   27.2780   48.4830 O   0  0  0  0  0  0  0  0  0  0  0  0
   31.8400   27.4400   48.2070 C   0  0  0  0  0  0  0  0  0  0  0  0
   31.0140   27.7200   49.2750 C   0  0  0  0  0  3  0  0  0  0  0  0
   29.6840   27.8700   48.9550 C   0  0  0  0  0  0  0  0  0  0  0  0
   28.9740   28.0920   49.7390 H   0  0  0  0  0  0  0  0  0  0  0  0
   29.1840   27.7590   47.6930 N   0  0  0  0  0  0  0  0  0  0  0  0
   30.0460   27.4820   46.6790 C   0  0  0  0  0  3  0  0  0  0  0  0
   31.3590   27.3250   46.9430 N   0  0  0  0  0  0  0  0  0  0  0  0
  1  7  1  0  0  0  0
  2  9  1  0  0  0  0
  2  1  2  0  0  0  0
  3  4  2  0  0  0  0
  3  2  1  0  0  0  0
  4  5  1  0  0  0  0
  5 20  1  0  0  0  0
  5  6  2  0  0  0  0
  6  1  1  0  0  0  0
  8  3  1  0  0  0  0
  9 10  1  0  0  0  0
 10 11  2  0  0  0  0
 10 17  1  0  0  0  0
 11 18  1  0  0  0  0
 12 13  2  0  0  0  0
 12 11  1  0  0  0  0
 14 15  1  0  0  0  0
 14 12  1  0  0  0  0
 15  9  1  0  0  0  0
 16 15  2  0  0  0  0
 19 14  1  0  0  0  0
 21 20  1  0  0  0  0
 21 22  1  0  0  0  0
 23 22  2  0  0  0  0
 23 24  1  0  0  0  0
 25 23  1  0  0  0  0
 26 27  1  0  0  0  0
 26 25  2  0  0  0  0
 27 21  2  0  0  0  0
M  END
>  <minimizedAffinity>
-5.52857971

>  <minimizedRMSD>
0.74815309

$$$$
