
 OpenBabel03272508303D

 30 32  0  0  1  0  0  0  0  0999 V2000
   38.2250   31.3910   47.4360 N   0  0  0  0  0  0  0  0  0  0  0  0
   38.8160   32.3700   48.3560 C   0  0  0  0  0  0  0  0  0  0  0  0
   38.6520   31.9880   49.7820 C   0  0  0  0  0  0  0  0  0  0  0  0
   38.4310   30.5870   49.9180 N   0  0  0  0  0  0  0  0  0  0  0  0
   37.0950   30.3310   49.3420 C   0  0  0  0  0  0  0  0  0  0  0  0
   37.3280   30.3270   47.8630 C   0  0  1  0  0  0  0  0  0  0  0  0
   38.2250   33.3070   48.1950 H   0  0  0  0  0  0  0  0  0  0  0  0
   39.8620   32.5750   48.0860 H   0  0  0  0  0  0  0  0  0  0  0  0
   39.5400   32.3500   50.3500 H   0  0  0  0  0  0  0  0  0  0  0  0
   37.7740   32.5030   50.2590 H   0  0  0  0  0  0  0  0  0  0  0  0
   38.4110   30.3350   50.9420 H   0  0  0  0  0  0  0  0  0  0  0  0
   36.7840   29.2900   49.6290 H   0  0  0  0  0  0  0  0  0  0  0  0
   36.3630   31.0690   49.6820 H   0  0  0  0  0  0  0  0  0  0  0  0
   37.9150   29.3830   47.6620 H   0  0  0  0  0  0  0  0  0  0  0  0
   39.3230   30.5130   45.4110 C   0  0  0  0  0  0  0  0  0  0  0  0
   38.5320   31.4750   46.0580 C   0  0  0  0  0  0  0  0  0  0  0  0
   38.0490   32.5360   45.2860 C   0  0  0  0  0  0  0  0  0  0  0  0
   38.3880   32.5560   43.9470 N   0  0  0  0  0  0  0  0  0  0  0  0
   39.1450   31.6110   43.3850 C   0  0  0  0  0  0  0  0  0  0  0  0
   39.6300   30.5720   44.1000 N   0  0  0  0  0  0  0  0  0  0  0  0
   39.7130   29.6820   45.9740 H   0  0  0  0  0  0  0  0  0  0  0  0
   37.4370   33.2950   45.7530 H   0  0  0  0  0  0  0  0  0  0  0  0
   39.2500   31.8770   42.3320 H   0  0  0  0  0  0  0  0  0  0  0  0
   36.1060   30.2100   47.0720 C   0  0  0  0  0  0  0  0  0  0  0  0
   34.8790   30.3410   47.6510 C   0  0  0  0  0  0  0  0  0  0  0  0
   33.6930   30.2380   46.9480 C   0  0  0  0  0  0  0  0  0  0  0  0
   32.7790   30.3540   47.4780 H   0  0  0  0  0  0  0  0  0  0  0  0
   33.7760   29.9950   45.6150 N   0  0  0  0  0  0  0  0  0  0  0  0
   34.9860   29.8600   45.0100 C   0  0  0  0  0  0  0  0  0  0  0  0
   36.1230   29.9670   45.7340 N   0  0  0  0  0  0  0  0  0  0  0  0
  1  6  1  0  0  0  0
  1  2  1  0  0  0  0
  2  3  1  0  0  0  0
  3  4  1  0  0  0  0
  3 10  1  0  0  0  0
  3  9  1  0  0  0  0
  4 11  1  0  0  0  0
  5 12  1  0  0  0  0
  5 13  1  0  0  0  0
  5  4  1  0  0  0  0
  6 14  1  6  0  0  0
  6  5  1  0  0  0  0
  7  2  1  0  0  0  0
  8  2  1  0  0  0  0
 15 21  1  0  0  0  0
 15 16  1  0  0  0  0
 16  1  1  0  0  0  0
 17 22  1  0  0  0  0
 17 16  2  0  0  0  0
 18 17  1  0  0  0  0
 19 18  2  0  0  0  0
 19 20  1  0  0  0  0
 20 15  2  0  0  0  0
 23 19  1  0  0  0  0
 24 25  1  0  0  0  0
 24  6  1  0  0  0  0
 26 27  1  0  0  0  0
 26 25  2  0  0  0  0
 28 26  1  0  0  0  0
 29 28  2  0  0  0  0
 29 30  1  0  0  0  0
 30 24  2  0  0  0  0
M  END
>  <minimizedAffinity>
-4.78706741

>  <minimizedRMSD>
5.87056637

$$$$
