
 OpenBabel03272505383D

 29 31  0  0  0  0  0  0  0  0999 V2000
   36.4820   30.5680   46.5860 C   0  0  0  0  0  0  0  0  0  0  0  0
   35.2220   30.0040   46.4880 C   0  0  0  0  0  0  0  0  0  0  0  0
   34.6670   29.7170   45.2540 C   0  0  0  0  0  0  0  0  0  0  0  0
   35.3230   29.9690   44.0750 C   0  0  0  0  0  0  0  0  0  0  0  0
   36.5940   30.5370   44.1500 C   0  0  0  0  0  0  0  0  0  0  0  0
   37.1170   30.8110   45.3960 C   0  0  0  0  0  0  0  0  0  0  0  0
   34.7070   29.8080   47.4220 H   0  0  0  0  0  0  0  0  0  0  0  0
   33.6660   29.2730   45.2370 H   0  0  0  0  0  0  0  0  0  0  0  0
   34.7930   29.7010   43.1560 H   0  0  0  0  0  0  0  0  0  0  0  0
   37.0660   30.7150   43.2030 H   0  0  0  0  0  0  0  0  0  0  0  0
   37.4190   30.3280   50.1050 C   0  0  0  0  0  0  0  0  0  0  0  0
   38.1910   31.4690   50.3030 C   0  0  0  0  0  0  0  0  0  0  0  0
   38.3850   32.3180   49.2120 C   0  0  0  0  0  0  0  0  0  0  0  0
   37.8080   31.9700   48.0390 N   0  0  0  0  0  0  0  0  0  0  0  0
   37.0710   30.8660   47.8760 C   0  0  0  0  0  0  0  0  0  0  0  0
   36.8830   30.0520   48.9170 N   0  0  0  0  0  0  0  0  0  0  0  0
   38.6100   31.6490   51.2990 H   0  0  0  0  0  0  0  0  0  0  0  0
   38.9810   33.2080   49.3510 H   0  0  0  0  0  0  0  0  0  0  0  0
   37.2150   29.4170   51.2920 C   0  0  0  0  0  0  0  0  0  0  0  0
   35.8590   29.1560   51.4500 F   0  0  0  0  0  0  0  0  0  0  0  0
   37.9270   28.2720   51.0630 F   0  0  0  0  0  0  0  0  0  0  0  0
   37.6390   30.0850   52.4190 F   0  0  0  0  0  0  0  0  0  0  0  0
   38.4380   31.4160   45.2970 C   0  0  0  0  0  0  0  0  0  0  0  0
   39.5340   30.5930   45.4710 C   0  0  0  0  0  0  0  0  0  0  0  0
   40.8070   31.1640   45.3780 C   0  0  0  0  0  0  0  0  0  0  0  0
   41.6880   30.5590   45.5060 H   0  0  0  0  0  0  0  0  0  0  0  0
   41.0070   32.4630   45.1320 N   0  0  0  0  0  0  0  0  0  0  0  0
   39.9130   33.2430   44.9690 C   0  0  0  0  0  0  0  0  0  0  0  0
   38.6440   32.7410   45.0470 N   0  0  0  0  0  0  0  0  0  0  0  0
  1 15  1  0  0  0  0
  2  1  1  0  0  0  0
  2  7  1  0  0  0  0
  3  2  2  0  0  0  0
  4  5  2  0  0  0  0
  4  3  1  0  0  0  0
  5  6  1  0  0  0  0
  6  1  2  0  0  0  0
  8  3  1  0  0  0  0
  9  4  1  0  0  0  0
 10  5  1  0  0  0  0
 11 12  1  0  0  0  0
 11 19  1  0  0  0  0
 12 17  1  0  0  0  0
 13 18  1  0  0  0  0
 13 12  2  0  0  0  0
 14 13  1  0  0  0  0
 15 14  2  0  0  0  0
 15 16  1  0  0  0  0
 16 11  2  0  0  0  0
 19 20  1  0  0  0  0
 19 22  1  0  0  0  0
 21 19  1  0  0  0  0
 23  6  1  0  0  0  0
 23 24  1  0  0  0  0
 25 24  2  0  0  0  0
 25 26  1  0  0  0  0
 27 25  1  0  0  0  0
 28 29  1  0  0  0  0
 28 27  2  0  0  0  0
 29 23  2  0  0  0  0
M  END
>  <minimizedAffinity>
-7.01359797

>  <minimizedRMSD>
0.400292337

$$$$
