
 OpenBabel03272508023D

 26 28  0  0  0  0  0  0  0  0999 V2000
   38.4250   30.9930   46.4060 C   0  0  0  0  0  0  0  0  0  0  0  0
   39.4770   31.8210   46.6890 C   0  0  0  0  0  0  0  0  0  0  0  0
   40.3030   31.9390   45.5770 C   0  0  0  0  0  0  0  0  0  0  0  0
   39.7070   31.1610   44.6430 N   0  0  0  0  0  0  0  0  0  0  0  0
   38.6160   30.6140   45.1290 N   0  0  0  0  0  0  0  0  0  0  0  0
   39.6630   32.3220   47.6280 H   0  0  0  0  0  0  0  0  0  0  0  0
   41.2130   32.5010   45.4300 H   0  0  0  0  0  0  0  0  0  0  0  0
   37.3220   30.5890   47.2750 C   0  0  0  0  0  0  0  0  0  0  0  0
   37.6480   30.2810   48.6300 C   0  0  0  0  0  0  0  0  0  0  0  0
   36.6030   29.8930   49.4680 C   0  0  0  0  0  0  0  0  0  0  0  0
   35.3500   29.8320   48.9530 N   0  0  0  0  0  0  0  0  0  0  0  0
   35.0720   30.1300   47.6630 C   0  0  0  0  0  0  0  0  0  0  0  0
   36.0760   30.5050   46.8460 N   0  0  0  0  0  0  0  0  0  0  0  0
   38.6740   30.3590   48.9480 H   0  0  0  0  0  0  0  0  0  0  0  0
   34.0610   30.0730   47.2780 H   0  0  0  0  0  0  0  0  0  0  0  0
   36.9100   29.5650   50.8890 C   0  0  0  0  0  0  0  0  0  0  0  0
   35.7120   29.1770   51.4430 F   0  0  0  0  0  0  0  0  0  0  0  0
   37.8250   28.5370   51.0120 F   0  0  0  0  0  0  0  0  0  0  0  0
   37.3490   30.6810   51.5980 F   0  0  0  0  0  0  0  0  0  0  0  0
   40.0990   30.8930   43.3020 C   0  0  0  0  0  0  0  0  0  0  0  0
   40.9420   29.8140   43.0140 C   0  0  0  0  0  3  0  0  0  0  0  0
   41.3790   29.4690   41.7500 C   0  0  0  0  0  0  0  0  0  0  0  0
   42.0300   28.6100   41.6700 H   0  0  0  0  0  0  0  0  0  0  0  0
   40.9440   30.2510   40.7480 N   0  0  0  0  0  0  0  0  0  0  0  0
   40.1280   31.3040   40.9790 C   0  0  0  0  0  3  0  0  0  0  0  0
   39.7130   31.6190   42.2390 N   0  0  0  0  0  0  0  0  0  0  0  0
  1  2  1  0  0  0  0
  1  8  1  0  0  0  0
  2  6  1  0  0  0  0
  3  2  2  0  0  0  0
  4  5  1  0  0  0  0
  4  3  1  0  0  0  0
  5  1  2  0  0  0  0
  7  3  1  0  0  0  0
  8  9  1  0  0  0  0
  9 14  1  0  0  0  0
  9 10  2  0  0  0  0
 10 16  1  0  0  0  0
 11 10  1  0  0  0  0
 12 11  2  0  0  0  0
 13  8  2  0  0  0  0
 13 12  1  0  0  0  0
 15 12  1  0  0  0  0
 16 18  1  0  0  0  0
 16 17  1  0  0  0  0
 16 19  1  0  0  0  0
 20  4  1  0  0  0  0
 21 20  1  0  0  0  0
 22 21  2  0  0  0  0
 23 22  1  0  0  0  0
 24 25  2  0  0  0  0
 24 22  1  0  0  0  0
 25 26  1  0  0  0  0
 26 20  2  0  0  0  0
M  END
>  <minimizedAffinity>
-6.0470295

>  <minimizedRMSD>
1.69211054

$$$$
