
 OpenBabel03272509463D

 23 24  0  0  0  0  0  0  0  0999 V2000
   34.1110   28.4770   48.5800 C   0  0  0  0  0  0  0  0  0  0  0  0
   34.6510   29.1670   47.9210 H   0  0  0  0  0  0  0  0  0  0  0  0
   33.1300   28.9400   48.8180 H   0  0  0  0  0  0  0  0  0  0  0  0
   33.8500   27.1330   47.9630 C   0  0  0  0  0  0  0  0  0  0  0  0
   33.3340   26.4920   48.6760 H   0  0  0  0  0  0  0  0  0  0  0  0
   34.8260   26.6610   47.6650 H   0  0  0  0  0  0  0  0  0  0  0  0
   33.0740   27.2300   46.6980 C   0  0  0  0  0  0  0  0  0  0  0  0
   33.0470   26.1060   45.8960 C   0  0  0  0  0  3  0  0  0  0  0  0
   32.3600   26.0790   44.7020 C   0  0  0  0  0  0  0  0  0  0  0  0
   32.2980   25.2340   44.0240 H   0  0  0  0  0  0  0  0  0  0  0  0
   31.6990   27.1710   44.3050 N   0  0  0  0  0  0  0  0  0  0  0  0
   31.7290   28.2700   45.0970 C   0  0  0  0  0  3  0  0  0  0  0  0
   32.3920   28.3180   46.2650 N   0  0  0  0  0  0  0  0  0  0  0  0
   34.7560   28.3190   49.8380 O   0  0  0  0  0  0  0  0  0  0  0  0
   37.3790   30.2600   51.4230 C   0  0  0  0  0  0  0  0  0  0  0  0
   38.0800   30.6860   50.2780 C   0  0  0  0  0  0  0  0  0  0  0  0
   37.6100   30.2820   49.0340 C   0  0  0  0  0  0  0  0  0  0  0  0
   36.4910   29.4930   49.0080 N   0  0  0  0  0  0  0  0  0  0  0  0
   35.8460   29.1030   50.1140 C   0  0  0  0  0  0  0  0  0  0  0  0
   36.2950   29.4910   51.3300 N   0  0  0  0  0  0  0  0  0  0  0  0
   37.6900   30.5380   52.4270 H   0  0  0  0  0  0  0  0  0  0  0  0
   38.9580   31.3110   50.3930 H   0  0  0  0  0  0  0  0  0  0  0  0
   38.1210   30.5880   48.1280 H   0  0  0  0  0  0  0  0  0  0  0  0
  1  3  1  0  0  0  0
  1 14  1  0  0  0  0
  2  1  1  0  0  0  0
  4  1  1  0  0  0  0
  4  5  1  0  0  0  0
  6  4  1  0  0  0  0
  7  4  1  0  0  0  0
  8  7  2  0  0  0  0
  9  8  1  0  0  0  0
 10  9  1  0  0  0  0
 11  9  2  0  0  0  0
 11 12  1  0  0  0  0
 12 13  2  0  0  0  0
 13  7  1  0  0  0  0
 14 19  1  0  0  0  0
 15 21  1  0  0  0  0
 16 22  1  0  0  0  0
 16 15  2  0  0  0  0
 17 16  1  0  0  0  0
 18 17  2  0  0  0  0
 18 19  1  0  0  0  0
 19 20  2  0  0  0  0
 20 15  1  0  0  0  0
 23 17  1  0  0  0  0
M  END
>  <minimizedAffinity>
-3.65003371

>  <minimizedRMSD>
0.29015705

$$$$
