
 OpenBabel03272510013D

 19 20  0  0  0  0  0  0  0  0999 V2000
   38.2440   31.4050   50.2050 C   0  0  0  0  0  0  0  0  0  0  0  0
   38.5150   31.4130   48.8250 C   0  0  0  0  0  0  0  0  0  0  0  0
   37.6360   30.7170   48.0080 C   0  0  0  0  0  0  0  0  0  0  0  0
   36.5770   30.0730   48.5550 N   0  0  0  0  0  0  0  0  0  0  0  0
   36.3530   30.0910   49.8890 C   0  0  0  0  0  0  0  0  0  0  0  0
   37.1810   30.7520   50.7060 N   0  0  0  0  0  0  0  0  0  0  0  0
   38.9060   31.9370   50.8780 H   0  0  0  0  0  0  0  0  0  0  0  0
   39.3750   31.9440   48.4420 H   0  0  0  0  0  0  0  0  0  0  0  0
   37.8580   30.6830   46.5670 C   0  0  0  0  0  0  0  0  0  0  0  0
   36.7780   30.6380   45.7080 C   0  0  0  0  0  3  0  0  0  0  0  0
   37.0620   30.6080   44.3560 C   0  0  0  0  0  0  0  0  0  0  0  0
   36.2410   30.5720   43.6690 H   0  0  0  0  0  0  0  0  0  0  0  0
   38.3400   30.6250   43.9490 N   0  0  0  0  0  0  0  0  0  0  0  0
   39.3930   30.6680   44.7680 C   0  0  0  0  0  3  0  0  0  0  0  0
   39.1160   30.6980   46.0980 N   0  0  0  0  0  0  0  0  0  0  0  0
   35.1700   29.3580   50.4030 C   0  0  0  0  0  0  0  0  0  0  0  0
   35.2510   29.1080   51.7670 F   0  0  0  0  0  0  0  0  0  0  0  0
   34.0070   30.0850   50.2030 F   0  0  0  0  0  0  0  0  0  0  0  0
   34.9680   28.1520   49.7750 F   0  0  0  0  0  0  0  0  0  0  0  0
  1  6  1  0  0  0  0
  1  7  1  0  0  0  0
  2  1  2  0  0  0  0
  3  4  2  0  0  0  0
  3  2  1  0  0  0  0
  4  5  1  0  0  0  0
  5 16  1  0  0  0  0
  5  6  2  0  0  0  0
  8  2  1  0  0  0  0
  9  3  1  0  0  0  0
 10  9  2  0  0  0  0
 11 10  1  0  0  0  0
 12 11  1  0  0  0  0
 13 11  2  0  0  0  0
 13 14  1  0  0  0  0
 14 15  2  0  0  0  0
 15  9  1  0  0  0  0
 16 17  1  0  0  0  0
 18 16  1  0  0  0  0
 19 16  1  0  0  0  0
M  END
>  <minimizedAffinity>
-5.19644213

>  <minimizedRMSD>
1.03387666

$$$$
