
 OpenBabel03272500193D

 32 34  0  0  0  0  0  0  0  0999 V2000
   35.9220   31.0960   49.6250 C   0  0  0  0  0  0  0  0  0  0  0  0
   36.9110   31.4820   48.6960 C   0  0  0  0  0  0  0  0  0  0  0  0
   36.8910   30.9290   47.4100 C   0  0  0  0  0  0  0  0  0  0  0  0
   35.8950   30.0340   47.1330 N   0  0  0  0  0  0  0  0  0  0  0  0
   34.9800   29.6870   48.0160 C   0  0  0  0  0  0  0  0  0  0  0  0
   34.9670   30.1980   49.2620 N   0  0  0  0  0  0  0  0  0  0  0  0
   35.9230   31.5130   50.6240 H   0  0  0  0  0  0  0  0  0  0  0  0
   32.7280   30.7930   46.3170 Cl  0  0  0  0  0  0  0  0  0  0  0  0
   32.8500   29.1160   46.8540 C   0  0  0  0  0  0  0  0  0  0  0  0
   33.9400   28.7170   47.6380 C   0  0  0  0  0  0  0  0  0  0  0  0
   34.0810   27.4010   48.0860 C   0  0  0  0  0  0  0  0  0  0  0  0
   33.0740   26.5160   47.7070 C   0  0  0  0  0  0  0  0  0  0  0  0
   31.9970   26.8800   46.9400 C   0  0  0  0  0  0  0  0  0  0  0  0
   30.8130   25.6680   46.5400 Cl  0  0  0  0  0  0  0  0  0  0  0  0
   31.9000   28.1910   46.5200 C   0  0  0  0  0  0  0  0  0  0  0  0
   34.9160   27.0960   48.6870 H   0  0  0  0  0  0  0  0  0  0  0  0
   33.1670   25.4830   48.0480 H   0  0  0  0  0  0  0  0  0  0  0  0
   30.7380   28.6170   45.6840 C   0  0  0  0  0  0  0  0  0  0  0  0
   29.8280   27.5580   45.5580 F   0  0  0  0  0  0  0  0  0  0  0  0
   31.1270   29.0720   44.4550 F   0  0  0  0  0  0  0  0  0  0  0  0
   30.0490   29.6290   46.3160 F   0  0  0  0  0  0  0  0  0  0  0  0
   37.8900   31.3060   46.4420 C   0  0  0  0  0  0  0  0  0  0  0  0
   39.1210   30.6440   46.4920 C   0  0  0  0  0  0  0  0  0  0  0  0
   40.0810   31.0020   45.5640 C   0  0  0  0  0  0  0  0  0  0  0  0
   41.0250   30.4740   45.6270 H   0  0  0  0  0  0  0  0  0  0  0  0
   39.8750   31.9490   44.6340 N   0  0  0  0  0  0  0  0  0  0  0  0
   38.6880   32.5780   44.5950 C   0  0  0  0  0  0  0  0  0  0  0  0
   37.7310   32.2510   45.4840 N   0  0  0  0  0  0  0  0  0  0  0  0
   37.9540   32.4690   49.1100 C   0  0  0  0  0  0  0  0  0  0  0  0
   39.0930   31.8250   49.5910 F   0  0  0  0  0  0  0  0  0  0  0  0
   38.3000   33.2290   48.0130 F   0  0  0  0  0  0  0  0  0  0  0  0
   37.4990   33.3310   50.0890 F   0  0  0  0  0  0  0  0  0  0  0  0
  1  7  1  0  0  0  0
  2 29  1  0  0  0  0
  2  1  2  0  0  0  0
  3  2  1  0  0  0  0
  4  3  2  0  0  0  0
  4  5  1  0  0  0  0
  5  6  2  0  0  0  0
  6  1  1  0  0  0  0
  8  9  1  0  0  0  0
  9 10  1  0  0  0  0
 10  5  1  0  0  0  0
 10 11  2  0  0  0  0
 11 16  1  0  0  0  0
 12 17  1  0  0  0  0
 12 11  1  0  0  0  0
 13 12  2  0  0  0  0
 14 13  1  0  0  0  0
 15  9  2  0  0  0  0
 15 13  1  0  0  0  0
 18 21  1  0  0  0  0
 18 15  1  0  0  0  0
 19 18  1  0  0  0  0
 20 18  1  0  0  0  0
 22 23  1  0  0  0  0
 22  3  1  0  0  0  0
 24 25  1  0  0  0  0
 24 23  2  0  0  0  0
 26 24  1  0  0  0  0
 27 26  2  0  0  0  0
 27 28  1  0  0  0  0
 28 22  2  0  0  0  0
 29 30  1  0  0  0  0
 29 32  1  0  0  0  0
 31 29  1  0  0  0  0
M  END
>  <minimizedAffinity>
-6.36521721

>  <minimizedRMSD>
1.57800066

$$$$
