
 OpenBabel03272507283D

 39 41  0  0  1  0  0  0  0  0999 V2000
   35.1390   29.9860   47.8300 C   0  0  0  0  0  0  0  0  0  0  0  0
   35.8390   30.5430   46.7390 C   0  0  0  0  0  0  0  0  0  0  0  0
   35.5670   30.0110   45.4780 C   0  0  0  0  0  0  0  0  0  0  0  0
   34.6710   29.0160   45.3640 N   0  0  0  0  0  0  0  0  0  0  0  0
   34.0220   28.5090   46.4300 C   0  0  0  0  0  0  0  0  0  0  0  0
   34.2560   28.9910   47.6470 N   0  0  0  0  0  0  0  0  0  0  0  0
   36.2190   30.5030   44.3490 N   0  0  0  0  0  0  0  0  0  0  0  0
   36.6710   31.9070   44.1500 C   0  0  0  0  0  0  0  0  0  0  0  0
   37.0680   32.0580   42.7350 C   0  0  0  0  0  0  0  0  0  0  0  0
   36.4540   30.9110   42.0760 C   0  0  0  0  0  0  0  0  0  0  0  0
   36.5980   29.8740   43.1260 C   0  0  2  0  0  0  0  0  0  0  0  0
   35.4300   30.4770   48.7650 H   0  0  0  0  0  0  0  0  0  0  0  0
   36.5560   31.3310   46.7860 H   0  0  0  0  0  0  0  0  0  0  0  0
   33.2960   27.7170   46.4120 H   0  0  0  0  0  0  0  0  0  0  0  0
   37.2390   32.3440   44.9330 H   0  0  0  0  0  0  0  0  0  0  0  0
   35.6390   32.4310   44.2890 H   0  0  0  0  0  0  0  0  0  0  0  0
   36.3640   32.9360   42.3610 H   0  0  0  0  0  0  0  0  0  0  0  0
   37.9920   32.4860   42.4430 H   0  0  0  0  0  0  0  0  0  0  0  0
   35.3830   31.0460   41.8210 H   0  0  0  0  0  0  0  0  0  0  0  0
   36.9600   30.5540   41.1540 H   0  0  0  0  0  0  0  0  0  0  0  0
   35.7640   28.6440   42.7580 C   0  0  0  0  0  0  0  0  0  0  0  0
   34.4330   28.9600   42.9270 F   0  0  0  0  0  0  0  0  0  0  0  0
   35.9980   27.5320   43.5120 F   0  0  0  0  0  0  0  0  0  0  0  0
   35.9520   28.4290   41.4110 F   0  0  0  0  0  0  0  0  0  0  0  0
   37.9460   29.4100   43.2720 C   0  0  2  0  0  0  0  0  0  0  0  0
   38.0230   28.5610   43.9120 H   0  0  0  0  0  0  0  0  0  0  0  0
   38.9720   30.3030   44.0860 C   0  0  0  0  0  0  0  0  0  0  0  0
   39.1580   30.2170   45.4600 C   0  0  0  0  0  3  0  0  0  0  0  0
   40.0220   31.0900   46.0720 C   0  0  0  0  0  0  0  0  0  0  0  0
   40.0890   30.9330   47.1420 H   0  0  0  0  0  0  0  0  0  0  0  0
   40.6870   32.0170   45.3750 N   0  0  0  0  0  0  0  0  0  0  0  0
   40.5300   32.1250   44.0510 C   0  0  0  0  0  3  0  0  0  0  0  0
   39.6940   31.2740   43.4880 N   0  0  0  0  0  0  0  0  0  0  0  0
   38.4930   29.4280   42.1390 O   0  0  0  0  0  0  0  0  0  0  0  0
   39.2730   28.6580   41.3640 C   0  0  0  0  0  0  0  0  0  0  0  0
   38.8700   28.6150   40.2000 O   0  0  0  0  0  0  0  0  0  0  0  0
   40.4140   27.8220   41.2410 N   0  0  0  0  0  0  0  0  0  0  0  0
   40.4900   26.8080   41.4900 H   0  0  0  0  0  0  0  0  0  0  0  0
   41.3470   28.1680   40.8630 H   0  0  0  0  0  0  0  0  0  0  0  0
  1 12  1  0  0  0  0
  2 13  1  0  0  0  0
  2  1  2  0  0  0  0
  3  2  1  0  0  0  0
  4  3  2  0  0  0  0
  4  5  1  0  0  0  0
  5  6  2  0  0  0  0
  6  1  1  0  0  0  0
  7  3  1  0  0  0  0
  8 16  1  0  0  0  0
  8  7  1  0  0  0  0
  8 15  1  0  0  0  0
  9  8  1  0  0  0  0
 10  9  1  0  0  0  0
 10 11  1  0  0  0  0
 11 21  1  6  0  0  0
 11 25  1  0  0  0  0
 11  7  1  0  0  0  0
 14  5  1  0  0  0  0
 17  9  1  0  0  0  0
 18  9  1  0  0  0  0
 19 10  1  0  0  0  0
 20 10  1  0  0  0  0
 21 22  1  0  0  0  0
 21 23  1  0  0  0  0
 24 21  1  0  0  0  0
 25 26  1  1  0  0  0
 25 27  1  0  0  0  0
 27 28  1  0  0  0  0
 28 29  2  0  0  0  0
 29 30  1  0  0  0  0
 31 29  1  0  0  0  0
 32 31  2  0  0  0  0
 33 32  1  0  0  0  0
 33 27  2  0  0  0  0
 34 25  1  0  0  0  0
 35 34  1  0  0  0  0
 36 35  2  0  0  0  0
 37 35  1  0  0  0  0
 37 38  1  0  0  0  0
 39 37  1  0  0  0  0
M  END
>  <minimizedAffinity>
-3.72011733

>  <minimizedRMSD>
3.00039101

$$$$
