
 OpenBabel03272510083D

 42 46  0  0  0  0  0  0  0  0999 V2000
   35.1130   28.0730   48.1730 C   0  0  0  0  0  0  0  0  0  0  0  0
   35.1970   29.4760   48.0580 C   0  0  0  0  0  0  0  0  0  0  0  0
   33.9860   30.2250   48.0960 C   0  0  0  0  0  0  0  0  0  0  0  0
   32.8030   29.5640   48.2340 N   0  0  0  0  0  0  0  0  0  0  0  0
   32.7950   28.2140   48.3340 C   0  0  0  0  0  0  0  0  0  0  0  0
   33.9150   27.4860   48.3050 N   0  0  0  0  0  0  0  0  0  0  0  0
   31.5020   27.5750   48.4580 N   0  0  0  0  0  0  0  0  0  0  0  0
   30.5910   27.7980   49.5420 C   0  0  0  0  0  0  0  0  0  0  0  0
   29.3320   27.1060   49.1180 C   0  0  0  0  0  0  0  0  0  0  0  0
   29.4910   26.7630   47.6520 C   0  0  0  0  0  0  0  0  0  0  0  0
   30.9560   26.6120   47.4820 C   0  0  0  0  0  0  0  0  0  0  0  0
   36.0710   27.5770   48.1400 H   0  0  0  0  0  0  0  0  0  0  0  0
   33.9400   31.2900   48.0200 H   0  0  0  0  0  0  0  0  0  0  0  0
   31.0010   27.4560   50.5140 H   0  0  0  0  0  0  0  0  0  0  0  0
   30.3800   28.8880   49.5550 H   0  0  0  0  0  0  0  0  0  0  0  0
   28.4300   27.7200   49.3060 H   0  0  0  0  0  0  0  0  0  0  0  0
   29.2220   26.1910   49.7380 H   0  0  0  0  0  0  0  0  0  0  0  0
   28.9860   25.7730   47.5260 H   0  0  0  0  0  0  0  0  0  0  0  0
   29.0200   27.5220   47.0180 H   0  0  0  0  0  0  0  0  0  0  0  0
   31.3190   25.6050   47.6780 H   0  0  0  0  0  0  0  0  0  0  0  0
   31.2750   26.9350   46.4700 H   0  0  0  0  0  0  0  0  0  0  0  0
   36.3520   30.2860   47.8930 C   0  0  0  0  0  0  0  0  0  0  0  0
   37.0010   30.6150   49.0420 N   0  0  0  0  0  0  0  0  0  0  0  0
   38.0930   31.3970   48.9880 C   0  0  0  0  0  0  0  0  0  0  0  0
   38.6220   31.9040   47.8430 N   0  0  0  0  0  0  0  0  0  0  0  0
   38.0030   31.5990   46.6810 C   0  0  0  0  0  0  0  0  0  0  0  0
   38.4450   32.0830   45.4610 C   0  0  0  0  0  0  0  0  0  0  0  0
   37.7650   31.7670   44.2840 C   0  0  0  0  0  0  0  0  0  0  0  0
   36.6290   30.9500   44.3500 C   0  0  0  0  0  0  0  0  0  0  0  0
   36.2230   30.4850   45.5930 C   0  0  0  0  0  0  0  0  0  0  0  0
   36.8930   30.8020   46.7380 C   0  0  0  0  0  0  0  0  0  0  0  0
   38.6380   31.6800   49.8900 H   0  0  0  0  0  0  0  0  0  0  0  0
   39.3230   32.6990   45.5140 H   0  0  0  0  0  0  0  0  0  0  0  0
   38.1890   32.1970   43.3920 H   0  0  0  0  0  0  0  0  0  0  0  0
   36.2530   30.8250   43.3470 H   0  0  0  0  0  0  0  0  0  0  0  0
   35.0350   29.7030   45.2680 C   0  0  0  0  0  0  0  0  0  0  0  0
   34.8990   28.3470   45.0270 C   0  0  0  0  0  3  0  0  0  0  0  0
   33.7920   27.6400   44.6270 C   0  0  0  0  0  0  0  0  0  0  0  0
   33.9000   26.5750   44.4950 H   0  0  0  0  0  0  0  0  0  0  0  0
   32.7220   28.4390   44.4640 N   0  0  0  0  0  0  0  0  0  0  0  0
   32.7720   29.7630   44.6770 C   0  0  0  0  0  3  0  0  0  0  0  0
   33.8740   30.4180   45.0670 N   0  0  0  0  0  0  0  0  0  0  0  0
  1  6  1  0  0  0  0
  2  3  1  0  0  0  0
  2  1  2  0  0  0  0
  3  4  2  0  0  0  0
  4  5  1  0  0  0  0
  5  7  1  0  0  0  0
  6  5  2  0  0  0  0
  7  8  1  0  0  0  0
  8 15  1  0  0  0  0
  8 14  1  0  0  0  0
  9 16  1  0  0  0  0
  9  8  1  0  0  0  0
  9 17  1  0  0  0  0
 10  9  1  0  0  0  0
 11 10  1  0  0  0  0
 11 20  1  0  0  0  0
 11  7  1  0  0  0  0
 12  1  1  0  0  0  0
 13  3  1  0  0  0  0
 18 10  1  0  0  0  0
 19 10  1  0  0  0  0
 21 11  1  0  0  0  0
 22  2  1  0  0  0  0
 22 23  1  0  0  0  0
 24 23  2  0  0  0  0
 24 32  1  0  0  0  0
 25 24  1  0  0  0  0
 26 31  1  0  0  0  0
 26 25  2  0  0  0  0
 27 33  1  0  0  0  0
 27 26  1  0  0  0  0
 28 29  1  0  0  0  0
 28 27  2  0  0  0  0
 29 30  2  0  0  0  0
 30 31  1  0  0  0  0
 31 22  2  0  0  0  0
 34 28  1  0  0  0  0
 35 29  1  0  0  0  0
 36 30  1  0  0  0  0
 37 36  2  0  0  0  0
 38 37  1  0  0  0  0
 39 38  1  0  0  0  0
 40 38  2  0  0  0  0
 40 41  1  0  0  0  0
 41 42  2  0  0  0  0
 42 36  1  0  0  0  0
M  END
>  <minimizedAffinity>
-4.06562424

>  <minimizedRMSD>
1.99160123

$$$$
