
     RDKit          3D

 31 33  0  0  0  0  0  0  0  0999 V2000
   36.8064   32.1873   50.1302 Cl  0  0  0  0  0  0  0  0  0  0  0  0
   37.5379   31.9215   48.5881 C   0  0  0  0  0  0  0  0  0  0  0  0
   36.9636   30.9098   47.8871 C   0  0  0  0  0  0  0  0  0  0  0  0
   37.4911   30.6106   46.6051 C   0  0  0  0  0  0  0  0  0  0  0  0
   38.5389   31.3075   46.0831 C   0  0  0  0  0  0  0  0  0  0  0  0
   39.0974   32.3224   46.8132 C   0  0  0  0  0  0  0  0  0  0  0  0
   40.4339   33.2446   46.1892 Cl  0  0  0  0  0  0  0  0  0  0  0  0
   38.5940   32.6107   48.0413 C   0  0  0  0  0  0  0  0  0  0  0  0
   36.0378   29.0973   49.2637 C   0  0  0  0  0  0  0  0  0  0  0  0
   35.8334   30.0264   48.2410 C   0  0  0  0  0  0  0  0  0  0  0  0
   34.5925   30.0893   47.5969 C   0  0  0  0  0  0  0  0  0  0  0  0
   33.6387   29.2136   48.0236 N   0  0  0  0  0  0  0  0  0  0  0  0
   33.8562   28.3239   49.0131 C   0  0  0  0  0  0  0  0  0  0  0  0
   35.0751   28.2628   49.6452 N   0  0  0  0  0  0  0  0  0  0  0  0
   39.1368   33.6851   48.8932 C   0  0  0  0  0  0  0  0  0  0  0  0
   39.2793   34.8880   48.6733 O   0  0  0  0  0  0  0  0  0  0  0  0
   39.6311   33.5323   50.2136 O   0  0  0  0  0  0  0  0  0  0  0  0
   37.0989   29.8235   45.9758 H   0  0  0  0  0  0  0  0  0  0  0  0
   38.9584   31.0972   45.1071 H   0  0  0  0  0  0  0  0  0  0  0  0
   36.9881   29.0311   49.7750 H   0  0  0  0  0  0  0  0  0  0  0  0
   34.4558   30.8073   46.8166 H   0  0  0  0  0  0  0  0  0  0  0  0
   33.0075   27.6949   49.2429 H   0  0  0  0  0  0  0  0  0  0  0  0
   40.1166   34.6330   50.9080 C   0  0  0  0  0  0  0  0  0  0  0  0
   41.2873   34.6389   51.6389 C   0  0  0  0  0  0  0  0  0  0  0  0
   41.5910   35.8255   52.2507 C   0  0  0  0  0  0  0  0  0  0  0  0
   42.5243   35.8340   52.8348 H   0  0  0  0  0  0  0  0  0  0  0  0
   40.8170   36.9210   52.1591 N   0  0  0  0  0  0  0  0  0  0  0  0
   39.6761   36.8929   51.4389 C   0  0  0  0  0  0  0  0  0  0  0  0
   39.3429   35.7299   50.8171 N   0  0  0  0  0  0  0  0  0  0  0  0
   41.8727   33.7318   51.6801 H   0  0  0  0  0  0  0  0  0  0  0  0
   39.0724   37.7884   51.3822 H   0  0  0  0  0  0  0  0  0  0  0  0
  2  1  1  0
  3 10  1  0
  3  2  2  0
  4  3  1  0
  5  4  2  0
  5  6  1  0
  6  8  2  0
  7  6  1  0
  8  2  1  0
  8 15  1  0
  9 14  2  0
 10  9  1  0
 11 12  1  0
 11 10  2  0
 12 13  2  0
 13 14  1  0
 15 17  1  0
 16 15  2  0
  4 18  1  0
  5 19  1  0
  9 20  1  0
 11 21  1  0
 13 22  1  0
 23 24  2  0
 24 25  1  0
 25 26  1  0
 25 27  2  0
 27 28  1  0
 28 29  2  0
 29 23  1  0
 24 30  1  0
 28 31  1  0
 17 23  1  0
M  ISO  6  18  14  19  14  20  14  21  14  22  14  26  14
M  END
>  <DihAtoms>  (1) 
14,16,22,23

>  <DihDeg>  (1) 
-90.01493894637456

$$$$
