
 OpenBabel03272508353D

 29 31  0  0  0  0  0  0  0  0999 V2000
   37.7320   31.1130   48.1390 C   0  0  0  0  0  0  0  0  0  0  0  0
   37.1120   30.9500   46.9360 C   0  0  0  0  0  0  0  0  0  0  0  0
   37.8210   31.6080   45.9500 C   0  0  0  0  0  0  0  0  0  0  0  0
   38.8830   32.1660   46.6180 N   0  0  0  0  0  0  0  0  0  0  0  0
   38.8120   31.8610   47.9130 N   0  0  0  0  0  0  0  0  0  0  0  0
   36.1950   30.4020   46.6960 H   0  0  0  0  0  0  0  0  0  0  0  0
   37.5780   31.6600   44.8970 H   0  0  0  0  0  0  0  0  0  0  0  0
   37.2730   30.0230   51.7100 C   0  0  0  0  0  0  0  0  0  0  0  0
   37.8550   30.6180   50.5970 C   0  0  0  0  0  0  0  0  0  0  0  0
   37.2040   30.5260   49.3550 C   0  0  0  0  0  0  0  0  0  0  0  0
   36.0280   29.8490   49.3370 N   0  0  0  0  0  0  0  0  0  0  0  0
   35.4880   29.2800   50.4460 C   0  0  0  0  0  0  0  0  0  0  0  0
   36.1120   29.3710   51.6160 N   0  0  0  0  0  0  0  0  0  0  0  0
   37.8590   30.1510   52.6290 H   0  0  0  0  0  0  0  0  0  0  0  0
   38.7920   31.1640   50.5840 H   0  0  0  0  0  0  0  0  0  0  0  0
   34.5470   28.7630   50.3180 H   0  0  0  0  0  0  0  0  0  0  0  0
   39.9350   32.9760   45.9840 C   0  0  0  0  0  0  0  0  0  0  0  0
   40.5470   33.4960   46.7170 H   0  0  0  0  0  0  0  0  0  0  0  0
   39.4060   33.6780   45.3110 H   0  0  0  0  0  0  0  0  0  0  0  0
   40.7590   32.0500   45.0950 C   0  0  0  0  0  0  0  0  0  0  0  0
   40.8780   31.0580   45.5230 H   0  0  0  0  0  0  0  0  0  0  0  0
   41.7800   32.5030   45.0590 H   0  0  0  0  0  0  0  0  0  0  0  0
   40.2240   32.0330   43.7120 C   0  0  0  0  0  0  0  0  0  0  0  0
   40.4020   30.9140   42.9070 C   0  0  0  0  0  0  0  0  0  0  0  0
   39.8680   30.9890   41.6300 C   0  0  0  0  0  0  0  0  0  0  0  0
   40.0190   30.1040   41.0150 H   0  0  0  0  0  0  0  0  0  0  0  0
   39.2210   32.0920   41.2150 N   0  0  0  0  0  0  0  0  0  0  0  0
   39.0540   33.1670   41.9990 C   0  0  0  0  0  0  0  0  0  0  0  0
   39.5660   33.1120   43.2430 N   0  0  0  0  0  0  0  0  0  0  0  0
  1 10  1  0  0  0  0
  2  1  1  0  0  0  0
  3  4  1  0  0  0  0
  3  2  2  0  0  0  0
  4  5  1  0  0  0  0
  5  1  2  0  0  0  0
  6  2  1  0  0  0  0
  7  3  1  0  0  0  0
  8 14  1  0  0  0  0
  9  8  2  0  0  0  0
 10  9  1  0  0  0  0
 11 10  2  0  0  0  0
 11 12  1  0  0  0  0
 12 13  2  0  0  0  0
 13  8  1  0  0  0  0
 15  9  1  0  0  0  0
 16 12  1  0  0  0  0
 17  4  1  0  0  0  0
 17 18  1  0  0  0  0
 19 17  1  0  0  0  0
 20 21  1  0  0  0  0
 20 17  1  0  0  0  0
 22 20  1  0  0  0  0
 23 20  1  0  0  0  0
 24 23  2  0  0  0  0
 25 24  1  0  0  0  0
 26 25  1  0  0  0  0
 27 25  2  0  0  0  0
 27 28  1  0  0  0  0
 28 29  2  0  0  0  0
 29 23  1  0  0  0  0
M  END
>  <minimizedAffinity>
-5.53406191

>  <minimizedRMSD>
2.42539406

$$$$
