
 OpenBabel03262523493D

 19 20  0  0  0  0  0  0  0  0999 V2000
   37.2910   30.8620   46.3390 C   0  0  0  0  0  0  0  0  0  0  0  0
   37.3640   29.7550   46.1300 H   0  0  0  0  0  0  0  0  0  0  0  0
   36.3970   31.2930   45.8690 H   0  0  0  0  0  0  0  0  0  0  0  0
   38.5110   31.4900   45.7830 C   0  0  0  0  0  0  0  0  0  0  0  0
   39.7260   30.8000   45.9410 C   0  0  0  0  0  0  0  0  0  0  0  0
   40.8870   31.3830   45.4190 C   0  0  0  0  0  0  0  0  0  0  0  0
   40.7650   32.5900   44.7890 N   0  0  0  0  0  0  0  0  0  0  0  0
   39.5950   33.2220   44.6540 C   0  0  0  0  0  0  0  0  0  0  0  0
   38.4580   32.6790   45.1500 N   0  0  0  0  0  0  0  0  0  0  0  0
   39.8220   29.8520   46.4350 H   0  0  0  0  0  0  0  0  0  0  0  0
   41.8570   30.9360   45.4870 H   0  0  0  0  0  0  0  0  0  0  0  0
   39.5030   34.1790   44.1540 H   0  0  0  0  0  0  0  0  0  0  0  0
   37.2250   30.9800   47.8180 C   0  0  0  0  0  0  0  0  0  0  0  0
   36.7610   29.8490   48.4790 C   0  0  0  0  0  0  0  0  0  0  0  0
   36.6270   29.7630   49.8630 C   0  0  0  0  0  0  0  0  0  0  0  0
   36.2620   28.8620   50.3340 H   0  0  0  0  0  0  0  0  0  0  0  0
   36.9840   30.8700   50.5600 N   0  0  0  0  0  0  0  0  0  0  0  0
   37.4350   31.9710   49.9130 C   0  0  0  0  0  0  0  0  0  0  0  0
   37.5660   32.0560   48.5560 N   0  0  0  0  0  0  0  0  0  0  0  0
  1 13  1  0  0  0  0
  2  1  1  0  0  0  0
  3  1  1  0  0  0  0
  4  5  1  0  0  0  0
  4  1  1  0  0  0  0
  5 10  1  0  0  0  0
  6 11  1  0  0  0  0
  6  5  2  0  0  0  0
  7  6  1  0  0  0  0
  8  7  2  0  0  0  0
  8  9  1  0  0  0  0
  9  4  2  0  0  0  0
 12  8  1  0  0  0  0
 13 14  2  0  0  0  0
 13 19  1  0  0  0  0
 14 15  1  0  0  0  0
 15 16  1  0  0  0  0
 15 17  2  0  0  0  0
 18 17  1  0  0  0  0
 19 18  2  0  0  0  0
M  END
>  <minimizedAffinity>
-4.36576939

>  <minimizedRMSD>
5.24341965

$$$$
