
 OpenBabel03272510333D

 26 28  0  0  0  0  0  0  0  0999 V2000
   35.8700   30.0850   47.5040 C   0  0  0  0  0  0  0  0  0  0  0  0
   35.1570   30.0200   46.3370 C   0  0  0  0  0  0  0  0  0  0  0  0
   34.0160   29.2520   46.2220 C   0  0  0  0  0  0  0  0  0  0  0  0
   33.6010   28.5420   47.3190 C   0  0  0  0  0  0  0  0  0  0  0  0
   34.2940   28.5810   48.5180 C   0  0  0  0  0  0  0  0  0  0  0  0
   35.4400   29.3620   48.6080 C   0  0  0  0  0  0  0  0  0  0  0  0
   35.4580   30.5730   45.4420 H   0  0  0  0  0  0  0  0  0  0  0  0
   33.4670   29.2160   45.2860 H   0  0  0  0  0  0  0  0  0  0  0  0
   32.7020   27.9520   47.1880 H   0  0  0  0  0  0  0  0  0  0  0  0
   33.9260   28.0030   49.3530 H   0  0  0  0  0  0  0  0  0  0  0  0
   38.1570   32.7210   48.5170 C   0  0  0  0  0  0  0  0  0  0  0  0
   39.2570   32.5790   47.6720 C   0  0  0  0  0  0  0  0  0  0  0  0
   39.1930   31.5380   46.7290 C   0  0  0  0  0  0  0  0  0  0  0  0
   38.0940   30.7480   46.6940 N   0  0  0  0  0  0  0  0  0  0  0  0
   37.0600   30.9210   47.5260 C   0  0  0  0  0  0  0  0  0  0  0  0
   37.0960   31.9190   48.4450 N   0  0  0  0  0  0  0  0  0  0  0  0
   38.2530   33.5490   49.2360 H   0  0  0  0  0  0  0  0  0  0  0  0
   40.1510   33.1700   47.6530 H   0  0  0  0  0  0  0  0  0  0  0  0
   39.9700   31.2850   45.9880 H   0  0  0  0  0  0  0  0  0  0  0  0
   36.1990   29.4300   49.8520 C   0  0  0  0  0  0  0  0  0  0  0  0
   37.4420   28.8300   49.8890 C   0  0  0  0  0  3  0  0  0  0  0  0
   38.1560   28.8890   51.0440 C   0  0  0  0  0  0  0  0  0  0  0  0
   39.1420   28.4740   51.2450 H   0  0  0  0  0  0  0  0  0  0  0  0
   37.6750   29.5110   52.1250 N   0  0  0  0  0  0  0  0  0  0  0  0
   36.4500   30.1120   52.1150 C   0  0  0  0  0  3  0  0  0  0  0  0
   35.7820   30.0310   50.9630 N   0  0  0  0  0  0  0  0  0  0  0  0
  1 15  1  0  0  0  0
  1  6  1  0  0  0  0
  2  1  2  0  0  0  0
  3  2  1  0  0  0  0
  3  4  2  0  0  0  0
  4  5  1  0  0  0  0
  5  6  2  0  0  0  0
  5 10  1  0  0  0  0
  6 20  1  0  0  0  0
  7  2  1  0  0  0  0
  8  3  1  0  0  0  0
  9  4  1  0  0  0  0
 11 17  1  0  0  0  0
 12 11  2  0  0  0  0
 13 12  1  0  0  0  0
 14 13  2  0  0  0  0
 14 15  1  0  0  0  0
 15 16  2  0  0  0  0
 16 11  1  0  0  0  0
 18 12  1  0  0  0  0
 19 13  1  0  0  0  0
 20 21  2  0  0  0  0
 20 26  1  0  0  0  0
 21 22  1  0  0  0  0
 22 23  1  0  0  0  0
 22 24  2  0  0  0  0
 25 24  1  0  0  0  0
 26 25  2  0  0  0  0
M  END
>  <minimizedAffinity>
-3.37408185

>  <minimizedRMSD>
1.27169251

$$$$
