
 OpenBabel03272510333D

 26 28  0  0  0  0  0  0  0  0999 V2000
   35.8450   30.1220   46.6940 C   0  0  0  0  0  0  0  0  0  0  0  0
   35.2650   30.1420   45.4540 C   0  0  0  0  0  0  0  0  0  0  0  0
   34.0640   29.5090   45.2000 C   0  0  0  0  0  0  0  0  0  0  0  0
   33.4510   28.8470   46.2330 C   0  0  0  0  0  0  0  0  0  0  0  0
   34.0050   28.8040   47.5020 C   0  0  0  0  0  0  0  0  0  0  0  0
   35.2150   29.4490   47.7310 C   0  0  0  0  0  0  0  0  0  0  0  0
   35.7250   30.6600   44.6060 H   0  0  0  0  0  0  0  0  0  0  0  0
   33.6230   29.5390   44.2080 H   0  0  0  0  0  0  0  0  0  0  0  0
   32.5120   28.3640   45.9940 H   0  0  0  0  0  0  0  0  0  0  0  0
   33.4840   28.2690   48.2820 H   0  0  0  0  0  0  0  0  0  0  0  0
   38.2760   32.5040   47.9670 C   0  0  0  0  0  0  0  0  0  0  0  0
   39.4500   32.2170   47.2720 C   0  0  0  0  0  0  0  0  0  0  0  0
   39.3860   31.1680   46.3390 C   0  0  0  0  0  0  0  0  0  0  0  0
   38.2150   30.5080   46.1700 N   0  0  0  0  0  0  0  0  0  0  0  0
   37.1120   30.8170   46.8600 C   0  0  0  0  0  0  0  0  0  0  0  0
   37.1460   31.8260   47.7670 N   0  0  0  0  0  0  0  0  0  0  0  0
   38.3740   33.3320   48.6860 H   0  0  0  0  0  0  0  0  0  0  0  0
   40.4020   32.7010   47.3630 H   0  0  0  0  0  0  0  0  0  0  0  0
   40.2150   30.8100   45.7070 H   0  0  0  0  0  0  0  0  0  0  0  0
   35.8320   29.4270   49.0530 C   0  0  0  0  0  0  0  0  0  0  0  0
   35.0100   29.5390   50.1550 C   0  0  0  0  0  3  0  0  0  0  0  0
   35.5760   29.5190   51.3910 C   0  0  0  0  0  0  0  0  0  0  0  0
   35.0810   29.5940   52.3580 H   0  0  0  0  0  0  0  0  0  0  0  0
   36.8970   29.3950   51.5460 N   0  0  0  0  0  0  0  0  0  0  0  0
   37.7330   29.2820   50.4720 C   0  0  0  0  0  3  0  0  0  0  0  0
   37.1380   29.3070   49.2790 N   0  0  0  0  0  0  0  0  0  0  0  0
  1 15  1  0  0  0  0
  1  6  1  0  0  0  0
  2  1  2  0  0  0  0
  3  2  1  0  0  0  0
  3  4  2  0  0  0  0
  4  5  1  0  0  0  0
  5  6  2  0  0  0  0
  5 10  1  0  0  0  0
  6 20  1  0  0  0  0
  7  2  1  0  0  0  0
  8  3  1  0  0  0  0
  9  4  1  0  0  0  0
 11 17  1  0  0  0  0
 12 18  1  0  0  0  0
 12 11  2  0  0  0  0
 13 12  1  0  0  0  0
 14 13  2  0  0  0  0
 14 15  1  0  0  0  0
 15 16  2  0  0  0  0
 16 11  1  0  0  0  0
 19 13  1  0  0  0  0
 20 26  2  0  0  0  0
 20 21  1  0  0  0  0
 21 22  2  0  0  0  0
 22 24  1  0  0  0  0
 22 23  1  0  0  0  0
 25 24  2  0  0  0  0
 26 25  1  0  0  0  0
M  END
>  <minimizedAffinity>
-4.59551716

>  <minimizedRMSD>
2.18384027

$$$$
