REMARK  Name = 
REMARK  5 active torsions:
REMARK  status: ('A' for Active; 'I' for Inactive)
REMARK    1  A    between atoms: C_1  and  C_17
REMARK    2  A    between atoms: C_1  and  C_18
REMARK    3  A    between atoms: C_6  and  C_9
REMARK    4  A    between atoms: C_9  and  C_11
REMARK    5  A    between atoms: C_18  and  C_31
REMARK                            x       y       z     vdW  Elec       q    Type
REMARK                         _______ _______ _______ _____ _____    ______ ____
ROOT
ATOM      1  C   UNL     1      34.538  29.062  48.709  0.00  0.00    +0.000 C 
ATOM      2  C   UNL     1      35.179  28.364  49.875  0.00  0.00    +0.000 C 
ATOM      3  N   UNL     1      36.327  29.139  50.307  0.00  0.00    +0.000 N 
ATOM      4  C   UNL     1      37.277  29.875  51.084  0.00  0.00    +0.000 C 
ATOM      5  O   UNL     1      37.513  30.080  52.299  0.00  0.00    +0.000 OA
ATOM      6  C   UNL     1      37.992  30.393  49.919  0.00  0.00    +0.000 C 
ATOM      7  C   UNL     1      37.175  29.379  49.167  0.00  0.00    +0.000 C 
ATOM      8  S   UNL     1      35.911  30.075  48.052  0.00  0.00    +0.000 S 
ATOM      9  H   UNL     1      34.419  28.396  50.696  0.00  0.00    +0.000 HD
ATOM     10  H   UNL     1      35.395  27.306  49.708  0.00  0.00    +0.000 HD
ATOM     11  H   UNL     1      39.053  30.144  49.760  0.00  0.00    +0.000 HD
ATOM     12  H   UNL     1      37.703  28.504  48.765  0.00  0.00    +0.000 HD
ENDROOT
BRANCH   1  13
ATOM     13  C   UNL     1      33.323  29.872  49.062  0.00  0.00    +0.000 C 
ATOM     14  H   UNL     1      33.444  30.438  49.993  0.00  0.00    +0.000 HD
ATOM     15  H   UNL     1      33.154  30.592  48.246  0.00  0.00    +0.000 HD
ATOM     16  H   UNL     1      32.437  29.207  49.095  0.00  0.00    +0.000 HD
ENDBRANCH   1  13
BRANCH   1  17
ATOM     17  C   UNL     1      34.231  28.046  47.617  0.00  0.00    +0.000 C 
ATOM     18  H   UNL     1      33.632  27.222  48.064  0.00  0.00    +0.000 HD
ATOM     19  H   UNL     1      35.214  27.570  47.353  0.00  0.00    +0.000 HD
BRANCH  17  20
ATOM     20  C   UNL     1      33.602  28.632  46.429  0.00  0.00    +0.000 A 
ATOM     21  C   UNL     1      33.493  28.012  45.202  0.00  0.00    +0.000 A 
ATOM     22  C   UNL     1      32.890  28.606  44.105  0.00  0.00    +0.000 A 
ATOM     23  H   UNL     1      32.824  28.084  43.155  0.00  0.00    +0.000 HD
ATOM     24  N   UNL     1      32.404  29.848  44.304  0.00  0.00    +0.000 NA
ATOM     25  C   UNL     1      32.516  30.445  45.504  0.00  0.00    +0.000 A 
ATOM     26  N   UNL     1      33.099  29.875  46.573  0.00  0.00    +0.000 NA
ENDBRANCH  17  20
ENDBRANCH   1  17
BRANCH   6  27
ATOM     27  C   UNL     1      37.745  31.818  49.600  0.00  0.00    +0.000 C 
ATOM     28  O   UNL     1      36.735  32.311  50.179  0.00  0.00    +0.000 OA
BRANCH  27  29
ATOM     29  C   UNL     1      38.590  32.571  48.708  0.00  0.00    +0.000 A 
ATOM     30  C   UNL     1      39.112  33.764  49.180  0.00  0.00    +0.000 A 
ATOM     31  C   UNL     1      39.943  34.511  48.308  0.00  0.00    +0.000 A 
ATOM     32  N   UNL     1      40.176  34.002  47.052  0.00  0.00    +0.000 NA
ATOM     33  C   UNL     1      39.653  32.855  46.646  0.00  0.00    +0.000 A 
ATOM     34  N   UNL     1      38.862  32.136  47.466  0.00  0.00    +0.000 NA
ATOM     35  H   UNL     1      38.918  34.144  50.163  0.00  0.00    +0.000 HD
ATOM     36  H   UNL     1      40.380  35.450  48.620  0.00  0.00    +0.000 HD
ATOM     37  H   UNL     1      39.818  32.428  45.664  0.00  0.00    +0.000 HD
ENDBRANCH  27  29
ENDBRANCH   6  27
TORSDOF 5
