
     RDKit          3D

 19 20  0  0  0  0  0  0  0  0999 V2000
   36.8919   29.8920   51.3124 C   0  0  0  0  0  0  0  0  0  0  0  0
   37.5901   30.2248   50.1349 C   0  0  0  0  0  0  0  0  0  0  0  0
   37.0066   29.8781   48.9282 C   0  0  0  0  0  0  0  0  0  0  0  0
   35.8050   29.2416   48.9218 N   0  0  0  0  0  0  0  0  0  0  0  0
   35.1677   28.9403   50.0786 C   0  0  0  0  0  0  0  0  0  0  0  0
   35.6932   29.2561   51.2771 N   0  0  0  0  0  0  0  0  0  0  0  0
   38.7845   30.8642   50.3540 O   0  0  0  0  0  0  0  0  0  0  0  0
   37.2717   30.1241   52.3017 H   0  0  0  0  0  0  0  0  0  0  0  0
   37.5722   30.1509   48.0769 H   0  0  0  0  0  0  0  0  0  0  0  0
   34.2163   28.4323   49.9459 H   0  0  0  0  0  0  0  0  0  0  0  0
   38.9369   32.2486   50.4488 C   0  0  0  0  0  0  0  0  0  0  0  0
   37.9236   33.1887   50.3390 C   0  0  0  0  0  0  0  0  0  0  0  0
   38.2321   34.5310   50.4560 C   0  0  0  0  0  0  0  0  0  0  0  0
   37.4338   35.2533   50.3684 H   0  0  0  0  0  0  0  0  0  0  0  0
   39.4997   34.9258   50.6740 N   0  0  0  0  0  0  0  0  0  0  0  0
   40.4374   33.9660   50.7711 C   0  0  0  0  0  0  0  0  0  0  0  0
   40.2050   32.6425   50.6669 N   0  0  0  0  0  0  0  0  0  0  0  0
   36.9261   32.7941   50.1630 H   0  0  0  0  0  0  0  0  0  0  0  0
   41.4581   34.3092   50.9480 H   0  0  0  0  0  0  0  0  0  0  0  0
  2  7  1  0
  2  1  2  0
  3  4  2  0
  3  2  1  0
  4  5  1  0
  5  6  2  0
  6  1  1  0
  1  8  1  0
  3  9  1  0
  5 10  1  0
 11 12  2  0
 12 13  1  0
 13 14  1  0
 13 15  2  0
 15 16  1  0
 16 17  2  0
 17 11  1  0
 12 18  1  0
 16 19  1  0
  7 11  1  0
M  ISO  4   8  14   9  14  10  14  14  14
M  END
>  <DihAtoms>  (1) 
1,6,10,11

>  <DihDeg>  (1) 
-0.0009614417309896208

$$$$
