
 OpenBabel03262520543D

 24 26  0  0  1  0  0  0  0  0999 V2000
   37.8840   21.9440   34.6220 C   0  0  2  0  0  0  0  0  0  0  0  0
   38.8030   21.8430   33.4930 C   0  0  0  0  0  0  0  0  0  0  0  0
   37.7840   22.9790   33.5560 C   0  0  2  0  0  0  0  0  0  0  0  0
   36.9590   21.2990   34.6720 H   0  0  0  0  0  0  0  0  0  0  0  0
   39.8590   22.1010   33.5790 H   0  0  0  0  0  0  0  0  0  0  0  0
   38.5770   21.0810   32.7040 H   0  0  0  0  0  0  0  0  0  0  0  0
   36.9380   22.9260   32.8440 H   0  0  0  0  0  0  0  0  0  0  0  0
   37.7720   23.4350   38.0320 C   0  0  0  0  0  0  0  0  0  0  0  0
   39.1020   23.2940   38.4420 C   0  0  0  0  0  0  0  0  0  0  0  0
   40.0290   22.6880   37.5620 C   0  0  0  0  0  0  0  0  0  0  0  0
   39.5780   22.2630   36.3340 N   0  0  0  0  0  0  0  0  0  0  0  0
   38.3010   22.4160   35.9770 C   0  0  0  0  0  0  0  0  0  0  0  0
   37.4200   22.9880   36.8040 N   0  0  0  0  0  0  0  0  0  0  0  0
   37.0020   23.8860   38.6410 H   0  0  0  0  0  0  0  0  0  0  0  0
   39.3790   23.6490   39.4170 H   0  0  0  0  0  0  0  0  0  0  0  0
   41.0500   22.5740   37.8670 H   0  0  0  0  0  0  0  0  0  0  0  0
   38.4020   24.6330   33.9490 S   0  0  0  0  0  0  0  0  0  0  0  0
   37.4310   25.9510   33.2570 C   0  0  0  0  0  0  0  0  0  0  0  0
   36.7030   25.4020   32.1930 C   0  0  0  0  0  3  0  0  0  0  0  0
   35.8340   26.1720   31.4100 C   0  0  0  0  0  0  0  0  0  0  0  0
   35.2270   25.8570   30.5710 H   0  0  0  0  0  0  0  0  0  0  0  0
   35.6610   27.5040   31.6560 N   0  0  0  0  0  0  0  0  0  0  0  0
   36.3850   27.9920   32.6960 C   0  0  0  0  0  3  0  0  0  0  0  0
   37.2080   27.2620   33.4370 N   0  0  0  0  0  0  0  0  0  0  0  0
  1  4  1  1  0  0  0
  1 12  1  0  0  0  0
  2  3  1  0  0  0  0
  2  5  1  0  0  0  0
  2  1  1  0  0  0  0
  3  7  1  6  0  0  0
  3 17  1  0  0  0  0
  3  1  1  0  0  0  0
  6  2  1  0  0  0  0
  8  9  1  0  0  0  0
  8 14  1  0  0  0  0
  9 15  1  0  0  0  0
 10 16  1  0  0  0  0
 10  9  2  0  0  0  0
 11 10  1  0  0  0  0
 12 11  2  0  0  0  0
 12 13  1  0  0  0  0
 13  8  2  0  0  0  0
 18 24  1  0  0  0  0
 18 17  1  0  0  0  0
 19 18  2  0  0  0  0
 20 22  2  0  0  0  0
 20 19  1  0  0  0  0
 21 20  1  0  0  0  0
 22 23  1  0  0  0  0
 23 24  2  0  0  0  0
M  END
>  <minimizedAffinity>
-4.2956953

$$$$

 OpenBabel03262520543D

 24 26  0  0  1  0  0  0  0  0999 V2000
   37.7820   21.8790   34.3380 C   0  0  2  0  0  0  0  0  0  0  0  0
   38.6010   21.3730   33.2410 C   0  0  0  0  0  0  0  0  0  0  0  0
   37.9950   22.7730   33.1660 C   0  0  2  0  0  0  0  0  0  0  0  0
   36.7020   21.5690   34.4420 H   0  0  0  0  0  0  0  0  0  0  0  0
   39.6860   21.2910   33.3160 H   0  0  0  0  0  0  0  0  0  0  0  0
   38.1310   20.6430   32.5340 H   0  0  0  0  0  0  0  0  0  0  0  0
   37.1630   22.9150   32.4510 H   0  0  0  0  0  0  0  0  0  0  0  0
   40.1550   22.4400   37.1520 C   0  0  0  0  0  0  0  0  0  0  0  0
   39.3610   23.1670   38.0450 C   0  0  0  0  0  0  0  0  0  0  0  0
   38.0270   23.4690   37.6870 C   0  0  0  0  0  0  0  0  0  0  0  0
   37.5660   23.0290   36.4670 N   0  0  0  0  0  0  0  0  0  0  0  0
   38.3530   22.3370   35.6410 C   0  0  0  0  0  0  0  0  0  0  0  0
   39.6150   22.0490   35.9750 N   0  0  0  0  0  0  0  0  0  0  0  0
   41.1810   22.1680   37.3480 H   0  0  0  0  0  0  0  0  0  0  0  0
   39.7910   23.4770   38.9790 H   0  0  0  0  0  0  0  0  0  0  0  0
   37.4100   24.0260   38.3630 H   0  0  0  0  0  0  0  0  0  0  0  0
   39.1110   24.1780   33.3890 S   0  0  0  0  0  0  0  0  0  0  0  0
   38.3170   25.6410   34.0140 C   0  0  0  0  0  0  0  0  0  0  0  0
   39.0810   26.0820   35.1030 C   0  0  0  0  0  3  0  0  0  0  0  0
   38.7310   27.2170   35.8460 C   0  0  0  0  0  0  0  0  0  0  0  0
   39.2410   27.6450   36.6980 H   0  0  0  0  0  0  0  0  0  0  0  0
   37.6200   27.9460   35.5330 N   0  0  0  0  0  0  0  0  0  0  0  0
   36.9110   27.4820   34.4710 C   0  0  0  0  0  3  0  0  0  0  0  0
   37.2430   26.4070   33.7680 N   0  0  0  0  0  0  0  0  0  0  0  0
  1  4  1  1  0  0  0
  1 12  1  0  0  0  0
  2  5  1  0  0  0  0
  2  1  1  0  0  0  0
  3  7  1  6  0  0  0
  3  2  1  0  0  0  0
  3 17  1  0  0  0  0
  3  1  1  0  0  0  0
  6  2  1  0  0  0  0
  8 14  1  0  0  0  0
  8  9  1  0  0  0  0
  9 15  1  0  0  0  0
 10  9  2  0  0  0  0
 10 16  1  0  0  0  0
 11 10  1  0  0  0  0
 12 13  1  0  0  0  0
 12 11  2  0  0  0  0
 13  8  2  0  0  0  0
 17 18  1  0  0  0  0
 18 19  1  0  0  0  0
 19 20  2  0  0  0  0
 20 21  1  0  0  0  0
 22 20  1  0  0  0  0
 23 22  2  0  0  0  0
 24 18  2  0  0  0  0
 24 23  1  0  0  0  0
M  END
>  <minimizedAffinity>
-4.22685814

$$$$

 OpenBabel03262520543D

 24 26  0  0  1  0  0  0  0  0999 V2000
   38.6560   27.1480   32.9400 C   0  0  2  0  0  0  0  0  0  0  0  0
   39.8590   26.6950   33.6320 C   0  0  0  0  0  0  0  0  0  0  0  0
   38.6330   27.1340   34.4300 C   0  0  2  0  0  0  0  0  0  0  0  0
   38.5890   28.1960   32.5270 H   0  0  0  0  0  0  0  0  0  0  0  0
   40.1440   25.6430   33.6740 H   0  0  0  0  0  0  0  0  0  0  0  0
   40.7190   27.4080   33.7020 H   0  0  0  0  0  0  0  0  0  0  0  0
   38.7120   28.0970   34.9690 H   0  0  0  0  0  0  0  0  0  0  0  0
   35.6000   25.7950   31.2980 C   0  0  0  0  0  0  0  0  0  0  0  0
   35.9970   24.4870   31.0040 C   0  0  0  0  0  0  0  0  0  0  0  0
   37.3020   24.0710   31.3590 C   0  0  0  0  0  0  0  0  0  0  0  0
   38.1260   24.9780   31.9830 N   0  0  0  0  0  0  0  0  0  0  0  0
   37.7110   26.2190   32.2480 C   0  0  0  0  0  0  0  0  0  0  0  0
   36.4800   26.6180   31.9150 N   0  0  0  0  0  0  0  0  0  0  0  0
   34.6240   26.1920   31.0620 H   0  0  0  0  0  0  0  0  0  0  0  0
   35.2980   23.8360   30.5140 H   0  0  0  0  0  0  0  0  0  0  0  0
   37.6170   23.0710   31.1380 H   0  0  0  0  0  0  0  0  0  0  0  0
   37.6520   25.8430   35.2300 S   0  0  0  0  0  0  0  0  0  0  0  0
   38.6220   24.6100   36.0640 C   0  0  0  0  0  0  0  0  0  0  0  0
   38.0500   24.4340   37.3310 C   0  0  0  0  0  3  0  0  0  0  0  0
   38.5750   23.5330   38.2670 C   0  0  0  0  0  0  0  0  0  0  0  0
   38.2200   23.3180   39.2650 H   0  0  0  0  0  0  0  0  0  0  0  0
   39.6790   22.7840   37.9760 N   0  0  0  0  0  0  0  0  0  0  0  0
   40.1990   22.9870   36.7380 C   0  0  0  0  0  3  0  0  0  0  0  0
   39.7010   23.8400   35.8530 N   0  0  0  0  0  0  0  0  0  0  0  0
  1  4  1  6  0  0  0
  1  2  1  0  0  0  0
  1  3  1  0  0  0  0
  2  5  1  0  0  0  0
  2  6  1  0  0  0  0
  2  3  1  0  0  0  0
  3  7  1  1  0  0  0
  3 17  1  0  0  0  0
  8 13  1  0  0  0  0
  9  8  2  0  0  0  0
  9 10  1  0  0  0  0
 10 11  2  0  0  0  0
 11 12  1  0  0  0  0
 12  1  1  0  0  0  0
 13 12  2  0  0  0  0
 14  8  1  0  0  0  0
 15  9  1  0  0  0  0
 16 10  1  0  0  0  0
 17 18  1  0  0  0  0
 18 19  1  0  0  0  0
 19 20  2  0  0  0  0
 20 21  1  0  0  0  0
 22 20  1  0  0  0  0
 23 22  2  0  0  0  0
 24 18  2  0  0  0  0
 24 23  1  0  0  0  0
M  END
>  <minimizedAffinity>
-4.20545101

$$$$

 OpenBabel03262520543D

 24 26  0  0  1  0  0  0  0  0999 V2000
   37.3980   27.3640   34.7490 C   0  0  2  0  0  0  0  0  0  0  0  0
   38.5170   27.3060   35.6860 C   0  0  0  0  0  0  0  0  0  0  0  0
   37.6080   26.0930   35.4980 C   0  0  2  0  0  0  0  0  0  0  0  0
   36.4310   27.8680   35.0370 H   0  0  0  0  0  0  0  0  0  0  0  0
   39.5510   27.2240   35.3500 H   0  0  0  0  0  0  0  0  0  0  0  0
   38.3920   27.8110   36.6770 H   0  0  0  0  0  0  0  0  0  0  0  0
   36.9240   25.8530   36.3340 H   0  0  0  0  0  0  0  0  0  0  0  0
   38.9600   27.3960   31.3690 C   0  0  0  0  0  0  0  0  0  0  0  0
   37.8460   27.2090   30.5450 C   0  0  0  0  0  0  0  0  0  0  0  0
   36.5700   27.0670   31.1400 C   0  0  0  0  0  0  0  0  0  0  0  0
   36.4830   27.1210   32.5120 N   0  0  0  0  0  0  0  0  0  0  0  0
   37.5690   27.3020   33.2660 C   0  0  0  0  0  0  0  0  0  0  0  0
   38.7770   27.4360   32.7100 N   0  0  0  0  0  0  0  0  0  0  0  0
   39.9680   27.5130   30.9980 H   0  0  0  0  0  0  0  0  0  0  0  0
   37.9930   27.1770   29.4820 H   0  0  0  0  0  0  0  0  0  0  0  0
   35.7100   26.9230   30.5180 H   0  0  0  0  0  0  0  0  0  0  0  0
   38.2720   24.6880   34.5740 S   0  0  0  0  0  0  0  0  0  0  0  0
   39.3350   23.6310   35.5290 C   0  0  0  0  0  0  0  0  0  0  0  0
   38.8750   23.6840   36.8520 C   0  0  0  0  0  3  0  0  0  0  0  0
   39.4970   22.9710   37.8850 C   0  0  0  0  0  0  0  0  0  0  0  0
   39.2310   22.9380   38.9330 H   0  0  0  0  0  0  0  0  0  0  0  0
   40.5870   22.1870   37.6390 N   0  0  0  0  0  0  0  0  0  0  0  0
   40.9970   22.1650   36.3440 C   0  0  0  0  0  3  0  0  0  0  0  0
   40.4070   22.8410   35.3670 N   0  0  0  0  0  0  0  0  0  0  0  0
  1  4  1  1  0  0  0
  1  3  1  0  0  0  0
  1  2  1  0  0  0  0
  2  6  1  0  0  0  0
  3  2  1  0  0  0  0
  3  7  1  1  0  0  0
  5  2  1  0  0  0  0
  8 13  1  0  0  0  0
  9 10  1  0  0  0  0
  9  8  2  0  0  0  0
 10 11  2  0  0  0  0
 11 12  1  0  0  0  0
 12  1  1  0  0  0  0
 13 12  2  0  0  0  0
 14  8  1  0  0  0  0
 15  9  1  0  0  0  0
 16 10  1  0  0  0  0
 17  3  1  0  0  0  0
 17 18  1  0  0  0  0
 18 19  1  0  0  0  0
 19 20  2  0  0  0  0
 20 21  1  0  0  0  0
 22 20  1  0  0  0  0
 23 22  2  0  0  0  0
 24 18  2  0  0  0  0
 24 23  1  0  0  0  0
M  END
>  <minimizedAffinity>
-4.18202162

$$$$

 OpenBabel03262520543D

 24 26  0  0  1  0  0  0  0  0999 V2000
   39.1080   24.5790   34.6220 C   0  0  2  0  0  0  0  0  0  0  0  0
   37.9540   24.9750   33.8220 C   0  0  0  0  0  0  0  0  0  0  0  0
   38.6240   23.6230   33.5880 C   0  0  2  0  0  0  0  0  0  0  0  0
   40.1380   24.9740   34.3830 H   0  0  0  0  0  0  0  0  0  0  0  0
   36.9410   24.9780   34.2260 H   0  0  0  0  0  0  0  0  0  0  0  0
   38.1210   25.7090   32.9930 H   0  0  0  0  0  0  0  0  0  0  0  0
   39.2070   23.5140   32.6540 H   0  0  0  0  0  0  0  0  0  0  0  0
   37.9020   24.2000   38.1240 C   0  0  0  0  0  0  0  0  0  0  0  0
   38.8540   23.3220   38.6540 C   0  0  0  0  0  0  0  0  0  0  0  0
   39.8980   22.8600   37.8190 C   0  0  0  0  0  0  0  0  0  0  0  0
   39.9310   23.2970   36.5150 N   0  0  0  0  0  0  0  0  0  0  0  0
   39.0040   24.1350   36.0450 C   0  0  0  0  0  0  0  0  0  0  0  0
   38.0150   24.5760   36.8290 N   0  0  0  0  0  0  0  0  0  0  0  0
   37.0750   24.6000   38.6920 H   0  0  0  0  0  0  0  0  0  0  0  0
   38.7630   23.0250   39.6820 H   0  0  0  0  0  0  0  0  0  0  0  0
   40.6320   22.1870   38.2140 H   0  0  0  0  0  0  0  0  0  0  0  0
   37.7530   22.1480   34.1680 S   0  0  0  0  0  0  0  0  0  0  0  0
   37.0910   21.1390   32.8630 C   0  0  0  0  0  0  0  0  0  0  0  0
   35.9300   20.5380   33.3660 C   0  0  0  0  0  3  0  0  0  0  0  0
   35.1540   19.6590   32.5990 C   0  0  0  0  0  0  0  0  0  0  0  0
   34.2480   19.1410   32.8820 H   0  0  0  0  0  0  0  0  0  0  0  0
   35.5050   19.3510   31.3160 N   0  0  0  0  0  0  0  0  0  0  0  0
   36.6370   19.9560   30.8710 C   0  0  0  0  0  3  0  0  0  0  0  0
   37.3700   20.7880   31.5980 N   0  0  0  0  0  0  0  0  0  0  0  0
  1  4  1  6  0  0  0
  1 12  1  0  0  0  0
  2  5  1  0  0  0  0
  2  1  1  0  0  0  0
  3  7  1  6  0  0  0
  3  2  1  0  0  0  0
  3 17  1  0  0  0  0
  3  1  1  0  0  0  0
  6  2  1  0  0  0  0
  8  9  1  0  0  0  0
  8 14  1  0  0  0  0
  9 15  1  0  0  0  0
 10 16  1  0  0  0  0
 10  9  2  0  0  0  0
 11 10  1  0  0  0  0
 12 11  2  0  0  0  0
 12 13  1  0  0  0  0
 13  8  2  0  0  0  0
 18 19  1  0  0  0  0
 18 17  1  0  0  0  0
 20 21  1  0  0  0  0
 20 19  2  0  0  0  0
 22 20  1  0  0  0  0
 23 22  2  0  0  0  0
 23 24  1  0  0  0  0
 24 18  2  0  0  0  0
M  END
>  <minimizedAffinity>
-4.155725

$$$$

 OpenBabel03262520543D

 24 26  0  0  1  0  0  0  0  0999 V2000
   38.7740   23.2260   36.4510 C   0  0  2  0  0  0  0  0  0  0  0  0
   39.5970   22.1030   36.0110 C   0  0  0  0  0  0  0  0  0  0  0  0
   38.1790   22.2730   35.4730 C   0  0  2  0  0  0  0  0  0  0  0  0
   38.2440   23.1950   37.4460 H   0  0  0  0  0  0  0  0  0  0  0  0
   40.4260   22.2290   35.3120 H   0  0  0  0  0  0  0  0  0  0  0  0
   39.7120   21.2360   36.7090 H   0  0  0  0  0  0  0  0  0  0  0  0
   37.4230   21.5500   35.8320 H   0  0  0  0  0  0  0  0  0  0  0  0
   40.3000   26.2270   34.8610 C   0  0  0  0  0  0  0  0  0  0  0  0
   39.3460   27.2090   35.1460 C   0  0  0  0  0  0  0  0  0  0  0  0
   38.1870   26.8480   35.8730 C   0  0  0  0  0  0  0  0  0  0  0  0
   38.0500   25.5380   36.2690 N   0  0  0  0  0  0  0  0  0  0  0  0
   38.9820   24.6280   35.9770 C   0  0  0  0  0  0  0  0  0  0  0  0
   40.0800   24.9630   35.2920 N   0  0  0  0  0  0  0  0  0  0  0  0
   41.2110   26.4180   34.3130 H   0  0  0  0  0  0  0  0  0  0  0  0
   39.5220   28.2120   34.8040 H   0  0  0  0  0  0  0  0  0  0  0  0
   37.4500   27.5920   36.0960 H   0  0  0  0  0  0  0  0  0  0  0  0
   37.9960   22.8450   33.7670 S   0  0  0  0  0  0  0  0  0  0  0  0
   36.8090   21.9240   32.8180 C   0  0  0  0  0  0  0  0  0  0  0  0
   36.2730   20.9520   33.6740 C   0  0  0  0  0  3  0  0  0  0  0  0
   35.3070   20.0330   33.2450 C   0  0  0  0  0  0  0  0  0  0  0  0
   34.8280   19.2470   33.8130 H   0  0  0  0  0  0  0  0  0  0  0  0
   34.8430   20.0510   31.9600 N   0  0  0  0  0  0  0  0  0  0  0  0
   35.3890   21.0090   31.1680 C   0  0  0  0  0  3  0  0  0  0  0  0
   36.3050   21.8780   31.5750 N   0  0  0  0  0  0  0  0  0  0  0  0
  1  4  1  1  0  0  0
  2  1  1  0  0  0  0
  2  6  1  0  0  0  0
  3  7  1  1  0  0  0
  3  2  1  0  0  0  0
  3  1  1  0  0  0  0
  5  2  1  0  0  0  0
  8  9  2  0  0  0  0
  8 13  1  0  0  0  0
  9 10  1  0  0  0  0
 10 16  1  0  0  0  0
 10 11  2  0  0  0  0
 12 11  1  0  0  0  0
 12  1  1  0  0  0  0
 13 12  2  0  0  0  0
 14  8  1  0  0  0  0
 15  9  1  0  0  0  0
 17  3  1  0  0  0  0
 18 19  1  0  0  0  0
 18 17  1  0  0  0  0
 20 19  2  0  0  0  0
 20 21  1  0  0  0  0
 22 20  1  0  0  0  0
 23 24  1  0  0  0  0
 23 22  2  0  0  0  0
 24 18  2  0  0  0  0
M  END
>  <minimizedAffinity>
-4.14775848

$$$$

 OpenBabel03262520543D

 24 26  0  0  1  0  0  0  0  0999 V2000
   35.9410   23.3210   31.4620 C   0  0  2  0  0  0  0  0  0  0  0  0
   37.0060   23.9640   30.6980 C   0  0  0  0  0  0  0  0  0  0  0  0
   36.9760   24.0780   32.2210 C   0  0  2  0  0  0  0  0  0  0  0  0
   34.9230   23.8000   31.5450 H   0  0  0  0  0  0  0  0  0  0  0  0
   37.8210   23.3960   30.2460 H   0  0  0  0  0  0  0  0  0  0  0  0
   36.7650   24.9210   30.1710 H   0  0  0  0  0  0  0  0  0  0  0  0
   36.7090   25.0670   32.6380 H   0  0  0  0  0  0  0  0  0  0  0  0
   35.2290   20.0260   33.0420 C   0  0  0  0  0  0  0  0  0  0  0  0
   35.8070   19.1450   32.1220 C   0  0  0  0  0  0  0  0  0  0  0  0
   36.4310   19.6720   30.9680 C   0  0  0  0  0  0  0  0  0  0  0  0
   36.4420   21.0380   30.8010 N   0  0  0  0  0  0  0  0  0  0  0  0
   35.8800   21.8470   31.7010 C   0  0  0  0  0  0  0  0  0  0  0  0
   35.2890   21.3550   32.7940 N   0  0  0  0  0  0  0  0  0  0  0  0
   34.7340   19.7070   33.9480 H   0  0  0  0  0  0  0  0  0  0  0  0
   35.7580   18.0900   32.3210 H   0  0  0  0  0  0  0  0  0  0  0  0
   36.8770   19.0060   30.2570 H   0  0  0  0  0  0  0  0  0  0  0  0
   38.1880   23.1130   33.1540 S   0  0  0  0  0  0  0  0  0  0  0  0
   38.1170   23.3690   34.9120 C   0  0  0  0  0  0  0  0  0  0  0  0
   38.1570   24.7540   35.1210 C   0  0  0  0  0  3  0  0  0  0  0  0
   38.1310   25.3140   36.4050 C   0  0  0  0  0  0  0  0  0  0  0  0
   38.1580   26.3580   36.6820 H   0  0  0  0  0  0  0  0  0  0  0  0
   38.0640   24.5210   37.5150 N   0  0  0  0  0  0  0  0  0  0  0  0
   38.0270   23.1870   37.2640 C   0  0  0  0  0  3  0  0  0  0  0  0
   38.0520   22.6580   36.0480 N   0  0  0  0  0  0  0  0  0  0  0  0
  1  4  1  6  0  0  0
  1 12  1  0  0  0  0
  1  3  1  0  0  0  0
  2  1  1  0  0  0  0
  2  3  1  0  0  0  0
  3  7  1  1  0  0  0
  3 17  1  0  0  0  0
  5  2  1  0  0  0  0
  6  2  1  0  0  0  0
  8 14  1  0  0  0  0
  9 15  1  0  0  0  0
  9  8  2  0  0  0  0
 10  9  1  0  0  0  0
 11 10  2  0  0  0  0
 11 12  1  0  0  0  0
 12 13  2  0  0  0  0
 13  8  1  0  0  0  0
 16 10  1  0  0  0  0
 17 18  1  0  0  0  0
 18 19  2  0  0  0  0
 18 24  1  0  0  0  0
 19 20  1  0  0  0  0
 20 21  1  0  0  0  0
 20 22  2  0  0  0  0
 23 22  1  0  0  0  0
 24 23  2  0  0  0  0
M  END
>  <minimizedAffinity>
-4.10035181

$$$$

 OpenBabel03262520543D

 24 26  0  0  1  0  0  0  0  0999 V2000
   39.7270   24.9190   32.7550 C   0  0  2  0  0  0  0  0  0  0  0  0
   39.0510   24.1670   31.7030 C   0  0  0  0  0  0  0  0  0  0  0  0
   39.4920   23.4670   32.9860 C   0  0  2  0  0  0  0  0  0  0  0  0
   40.8260   25.1620   32.6750 H   0  0  0  0  0  0  0  0  0  0  0  0
   37.9800   24.2620   31.5170 H   0  0  0  0  0  0  0  0  0  0  0  0
   39.6500   23.8760   30.8030 H   0  0  0  0  0  0  0  0  0  0  0  0
   40.3500   22.7720   32.9020 H   0  0  0  0  0  0  0  0  0  0  0  0
   38.9750   27.1430   35.6460 C   0  0  0  0  0  0  0  0  0  0  0  0
   37.6830   27.5780   35.3350 C   0  0  0  0  0  0  0  0  0  0  0  0
   37.0740   27.1190   34.1430 C   0  0  0  0  0  0  0  0  0  0  0  0
   37.7860   26.2590   33.3390 N   0  0  0  0  0  0  0  0  0  0  0  0
   39.0170   25.8650   33.6690 C   0  0  0  0  0  0  0  0  0  0  0  0
   39.5980   26.2950   34.7940 N   0  0  0  0  0  0  0  0  0  0  0  0
   39.5120   27.4440   36.5340 H   0  0  0  0  0  0  0  0  0  0  0  0
   37.1910   28.2500   36.0120 H   0  0  0  0  0  0  0  0  0  0  0  0
   36.0850   27.4470   33.8950 H   0  0  0  0  0  0  0  0  0  0  0  0
   38.2070   23.0150   34.1750 S   0  0  0  0  0  0  0  0  0  0  0  0
   38.7560   23.0040   35.8660 C   0  0  0  0  0  0  0  0  0  0  0  0
   37.7890   23.6930   36.6100 C   0  0  0  0  0  3  0  0  0  0  0  0
   37.9110   23.8850   37.9920 C   0  0  0  0  0  0  0  0  0  0  0  0
   37.2320   24.3960   38.6610 H   0  0  0  0  0  0  0  0  0  0  0  0
   38.9900   23.4030   38.6750 N   0  0  0  0  0  0  0  0  0  0  0  0
   39.9010   22.7430   37.9140 C   0  0  0  0  0  3  0  0  0  0  0  0
   39.7850   22.5610   36.6050 N   0  0  0  0  0  0  0  0  0  0  0  0
  1  4  1  6  0  0  0
  1  3  1  0  0  0  0
  1 12  1  0  0  0  0
  2  1  1  0  0  0  0
  2  3  1  0  0  0  0
  3  7  1  6  0  0  0
  3 17  1  0  0  0  0
  5  2  1  0  0  0  0
  6  2  1  0  0  0  0
  8 14  1  0  0  0  0
  9  8  1  0  0  0  0
  9 15  1  0  0  0  0
 10  9  2  0  0  0  0
 11 12  2  0  0  0  0
 11 10  1  0  0  0  0
 12 13  1  0  0  0  0
 13  8  2  0  0  0  0
 16 10  1  0  0  0  0
 17 18  1  0  0  0  0
 18 24  2  0  0  0  0
 18 19  1  0  0  0  0
 19 20  2  0  0  0  0
 20 21  1  0  0  0  0
 20 22  1  0  0  0  0
 23 22  2  0  0  0  0
 24 23  1  0  0  0  0
M  END
>  <minimizedAffinity>
-4.00117779

$$$$

 OpenBabel03262520543D

 24 26  0  0  1  0  0  0  0  0999 V2000
   36.8620   26.2670   32.9590 C   0  0  2  0  0  0  0  0  0  0  0  0
   37.5260   27.4340   33.5340 C   0  0  0  0  0  0  0  0  0  0  0  0
   37.4530   26.1270   34.3200 C   0  0  2  0  0  0  0  0  0  0  0  0
   35.7380   26.1770   32.9760 H   0  0  0  0  0  0  0  0  0  0  0  0
   38.5060   27.7710   33.1940 H   0  0  0  0  0  0  0  0  0  0  0  0
   36.8790   28.2470   33.9530 H   0  0  0  0  0  0  0  0  0  0  0  0
   36.7730   26.1110   35.1930 H   0  0  0  0  0  0  0  0  0  0  0  0
   37.6120   23.3860   30.7230 C   0  0  0  0  0  0  0  0  0  0  0  0
   38.6130   23.9210   29.9050 C   0  0  0  0  0  0  0  0  0  0  0  0
   39.0250   25.2580   30.1130 C   0  0  0  0  0  0  0  0  0  0  0  0
   38.4200   25.9770   31.1170 N   0  0  0  0  0  0  0  0  0  0  0  0
   37.4680   25.4320   31.8780 C   0  0  0  0  0  0  0  0  0  0  0  0
   37.0740   24.1690   31.6860 N   0  0  0  0  0  0  0  0  0  0  0  0
   37.2390   22.3770   30.6320 H   0  0  0  0  0  0  0  0  0  0  0  0
   39.0380   23.2980   29.1410 H   0  0  0  0  0  0  0  0  0  0  0  0
   39.7910   25.6770   29.4920 H   0  0  0  0  0  0  0  0  0  0  0  0
   38.9710   25.1560   34.4660 S   0  0  0  0  0  0  0  0  0  0  0  0
   39.1100   24.2570   35.9930 C   0  0  0  0  0  0  0  0  0  0  0  0
   38.1000   24.7350   36.8380 C   0  0  0  0  0  3  0  0  0  0  0  0
   37.9250   24.2480   38.1400 C   0  0  0  0  0  0  0  0  0  0  0  0
   37.1870   24.5410   38.8730 H   0  0  0  0  0  0  0  0  0  0  0  0
   38.7440   23.2770   38.6410 N   0  0  0  0  0  0  0  0  0  0  0  0
   39.7080   22.8440   37.7880 C   0  0  0  0  0  3  0  0  0  0  0  0
   39.8720   23.3050   36.5560 N   0  0  0  0  0  0  0  0  0  0  0  0
  1  4  1  6  0  0  0
  1  2  1  0  0  0  0
  1  3  1  0  0  0  0
  2  6  1  0  0  0  0
  2  3  1  0  0  0  0
  3 17  1  0  0  0  0
  3  7  1  1  0  0  0
  5  2  1  0  0  0  0
  8 13  1  0  0  0  0
  9 10  1  0  0  0  0
  9  8  2  0  0  0  0
 10 11  2  0  0  0  0
 11 12  1  0  0  0  0
 12  1  1  0  0  0  0
 13 12  2  0  0  0  0
 14  8  1  0  0  0  0
 15  9  1  0  0  0  0
 16 10  1  0  0  0  0
 17 18  1  0  0  0  0
 18 24  2  0  0  0  0
 18 19  1  0  0  0  0
 19 20  2  0  0  0  0
 20 22  1  0  0  0  0
 20 21  1  0  0  0  0
 23 22  2  0  0  0  0
 24 23  1  0  0  0  0
M  END
>  <minimizedAffinity>
-3.99486732

$$$$
