
 OpenBabel03272504123D

 19 20  0  0  0  0  0  0  0  0999 V2000
   36.8030   29.9000   49.4880 C   0  0  0  0  0  0  0  0  0  0  0  0
   37.8750   30.4540   48.7860 C   0  0  0  0  0  0  0  0  0  0  0  0
   37.6740   30.8010   47.4530 C   0  0  0  0  0  0  0  0  0  0  0  0
   36.4530   30.5880   46.8960 N   0  0  0  0  0  0  0  0  0  0  0  0
   35.4310   30.0470   47.6100 C   0  0  0  0  0  0  0  0  0  0  0  0
   35.6050   29.7040   48.9040 N   0  0  0  0  0  0  0  0  0  0  0  0
   38.8200   30.5940   49.2940 H   0  0  0  0  0  0  0  0  0  0  0  0
   34.4660   29.8930   47.1260 H   0  0  0  0  0  0  0  0  0  0  0  0
   38.7720   31.3780   46.6990 C   0  0  0  0  0  0  0  0  0  0  0  0
   39.4420   30.6160   45.7640 C   0  0  0  0  0  0  0  0  0  0  0  0
   40.4830   31.1850   45.0590 C   0  0  0  0  0  0  0  0  0  0  0  0
   41.0490   30.6280   44.3060 H   0  0  0  0  0  0  0  0  0  0  0  0
   40.7920   32.4860   45.3300 N   0  0  0  0  0  0  0  0  0  0  0  0
   40.1130   33.2030   46.2550 C   0  0  0  0  0  0  0  0  0  0  0  0
   39.0970   32.6550   46.9470 N   0  0  0  0  0  0  0  0  0  0  0  0
   36.9980   29.5210   50.9210 C   0  0  0  0  0  0  0  0  0  0  0  0
   35.7870   29.2750   51.5270 F   0  0  0  0  0  0  0  0  0  0  0  0
   37.8570   28.4430   50.9480 F   0  0  0  0  0  0  0  0  0  0  0  0
   37.5850   30.6080   51.5570 F   0  0  0  0  0  0  0  0  0  0  0  0
  1 16  1  0  0  0  0
  2  7  1  0  0  0  0
  2  1  2  0  0  0  0
  3  2  1  0  0  0  0
  4  3  2  0  0  0  0
  4  5  1  0  0  0  0
  5  6  2  0  0  0  0
  6  1  1  0  0  0  0
  8  5  1  0  0  0  0
  9 15  1  0  0  0  0
  9  3  1  0  0  0  0
 10  9  2  0  0  0  0
 11 13  2  0  0  0  0
 11 10  1  0  0  0  0
 12 11  1  0  0  0  0
 13 14  1  0  0  0  0
 14 15  2  0  0  0  0
 16 18  1  0  0  0  0
 16 17  1  0  0  0  0
 16 19  1  0  0  0  0
M  END
>  <minimizedAffinity>
-5.77916861

>  <minimizedRMSD>
2.56485391

$$$$
