
 OpenBabel03272510343D

 26 28  0  0  0  0  0  0  0  0999 V2000
   35.8450   30.1200   46.6950 C   0  0  0  0  0  0  0  0  0  0  0  0
   35.2650   30.1380   45.4550 C   0  0  0  0  0  0  0  0  0  0  0  0
   34.0650   29.5050   45.2010 C   0  0  0  0  0  0  0  0  0  0  0  0
   33.4530   28.8430   46.2340 C   0  0  0  0  0  0  0  0  0  0  0  0
   34.0060   28.8000   47.5040 C   0  0  0  0  0  0  0  0  0  0  0  0
   35.2150   29.4460   47.7320 C   0  0  0  0  0  0  0  0  0  0  0  0
   35.7250   30.6560   44.6070 H   0  0  0  0  0  0  0  0  0  0  0  0
   33.6240   29.5330   44.2090 H   0  0  0  0  0  0  0  0  0  0  0  0
   32.5140   28.3590   45.9940 H   0  0  0  0  0  0  0  0  0  0  0  0
   33.4850   28.2650   48.2830 H   0  0  0  0  0  0  0  0  0  0  0  0
   38.2730   32.5040   47.9690 C   0  0  0  0  0  0  0  0  0  0  0  0
   39.4480   32.2180   47.2750 C   0  0  0  0  0  0  0  0  0  0  0  0
   39.3850   31.1690   46.3420 C   0  0  0  0  0  0  0  0  0  0  0  0
   38.2150   30.5070   46.1720 N   0  0  0  0  0  0  0  0  0  0  0  0
   37.1110   30.8160   46.8620 C   0  0  0  0  0  0  0  0  0  0  0  0
   37.1440   31.8250   47.7690 N   0  0  0  0  0  0  0  0  0  0  0  0
   38.3710   33.3320   48.6870 H   0  0  0  0  0  0  0  0  0  0  0  0
   40.3990   32.7030   47.3650 H   0  0  0  0  0  0  0  0  0  0  0  0
   40.2150   30.8110   45.7090 H   0  0  0  0  0  0  0  0  0  0  0  0
   35.8320   29.4250   49.0550 C   0  0  0  0  0  0  0  0  0  0  0  0
   35.0090   29.5350   50.1570 C   0  0  0  0  0  3  0  0  0  0  0  0
   35.5750   29.5160   51.3930 C   0  0  0  0  0  0  0  0  0  0  0  0
   35.0780   29.5920   52.3590 H   0  0  0  0  0  0  0  0  0  0  0  0
   36.8950   29.3950   51.5480 N   0  0  0  0  0  0  0  0  0  0  0  0
   37.7330   29.2850   50.4750 C   0  0  0  0  0  3  0  0  0  0  0  0
   37.1370   29.3070   49.2810 N   0  0  0  0  0  0  0  0  0  0  0  0
  1 15  1  0  0  0  0
  1  6  1  0  0  0  0
  2  1  2  0  0  0  0
  3  2  1  0  0  0  0
  3  4  2  0  0  0  0
  4  5  1  0  0  0  0
  5  6  2  0  0  0  0
  5 10  1  0  0  0  0
  6 20  1  0  0  0  0
  7  2  1  0  0  0  0
  8  3  1  0  0  0  0
  9  4  1  0  0  0  0
 11 17  1  0  0  0  0
 12 18  1  0  0  0  0
 12 11  2  0  0  0  0
 13 12  1  0  0  0  0
 14 13  2  0  0  0  0
 14 15  1  0  0  0  0
 15 16  2  0  0  0  0
 16 11  1  0  0  0  0
 19 13  1  0  0  0  0
 20 26  2  0  0  0  0
 20 21  1  0  0  0  0
 21 22  2  0  0  0  0
 22 24  1  0  0  0  0
 22 23  1  0  0  0  0
 25 24  2  0  0  0  0
 26 25  1  0  0  0  0
M  END
>  <minimizedAffinity>
-4.59789181

>  <minimizedRMSD>
2.08116102

$$$$
