
 OpenBabel03272500133D

 19 20  0  0  0  0  0  0  0  0999 V2000
   37.1200   21.7230   32.7120 C   0  0  0  0  0  0  0  0  0  0  0  0
   35.9770   20.9060   32.8660 C   0  0  0  0  0  0  0  0  0  0  0  0
   35.5480   20.5910   34.1530 C   0  0  0  0  0  0  0  0  0  0  0  0
   36.2660   21.0970   35.1960 N   0  0  0  0  0  0  0  0  0  0  0  0
   37.3440   21.8690   35.0270 C   0  0  0  0  0  0  0  0  0  0  0  0
   37.7780   22.1870   33.8090 N   0  0  0  0  0  0  0  0  0  0  0  0
   37.4910   21.9940   31.7180 H   0  0  0  0  0  0  0  0  0  0  0  0
   34.6830   19.9730   34.2570 H   0  0  0  0  0  0  0  0  0  0  0  0
   38.0570   22.3720   36.1930 C   0  0  0  0  0  0  0  0  0  0  0  0
   39.4310   22.2340   36.3000 C   0  0  0  0  0  3  0  0  0  0  0  0
   40.0240   22.7400   37.4400 C   0  0  0  0  0  0  0  0  0  0  0  0
   41.1140   22.6490   37.5600 H   0  0  0  0  0  0  0  0  0  0  0  0
   39.3810   23.3610   38.4620 N   0  0  0  0  0  0  0  0  0  0  0  0
   38.0340   23.4650   38.2930 C   0  0  0  0  0  3  0  0  0  0  0  0
   37.4340   22.9890   37.2120 N   0  0  0  0  0  0  0  0  0  0  0  0
   35.2920   20.4240   31.6200 C   0  0  0  0  0  0  0  0  0  0  0  0
   34.0050   19.9580   31.9170 F   0  0  0  0  0  0  0  0  0  0  0  0
   35.1480   21.5190   30.7780 F   0  0  0  0  0  0  0  0  0  0  0  0
   35.9790   19.4380   30.9680 F   0  0  0  0  0  0  0  0  0  0  0  0
  1  2  2  0  0  0  0
  1  6  1  0  0  0  0
  2  3  1  0  0  0  0
  3  8  1  0  0  0  0
  3  4  2  0  0  0  0
  5  4  1  0  0  0  0
  5  9  1  0  0  0  0
  6  5  2  0  0  0  0
  7  1  1  0  0  0  0
  9 10  2  0  0  0  0
  9 15  1  0  0  0  0
 10 11  1  0  0  0  0
 11 12  1  0  0  0  0
 11 13  2  0  0  0  0
 14 13  1  0  0  0  0
 15 14  2  0  0  0  0
 16 17  1  0  0  0  0
 16  2  1  0  0  0  0
 18 16  1  0  0  0  0
 19 16  1  0  0  0  0
M  END
>  <minimizedAffinity>
-4.83964205

$$$$

 OpenBabel03272500133D

 19 20  0  0  0  0  0  0  0  0999 V2000
   38.1870   22.7380   36.2330 C   0  0  0  0  0  0  0  0  0  0  0  0
   38.1820   23.9150   37.0140 C   0  0  0  0  0  0  0  0  0  0  0  0
   38.1890   25.1480   36.3670 C   0  0  0  0  0  0  0  0  0  0  0  0
   38.2010   25.1420   35.0030 N   0  0  0  0  0  0  0  0  0  0  0  0
   38.2060   24.0160   34.2840 C   0  0  0  0  0  0  0  0  0  0  0  0
   38.1990   22.8230   34.8740 N   0  0  0  0  0  0  0  0  0  0  0  0
   38.1820   21.7480   36.7010 H   0  0  0  0  0  0  0  0  0  0  0  0
   38.1850   26.0320   36.9680 H   0  0  0  0  0  0  0  0  0  0  0  0
   38.2180   24.0930   32.8290 C   0  0  0  0  0  0  0  0  0  0  0  0
   37.1040   23.7330   32.0900 C   0  0  0  0  0  3  0  0  0  0  0  0
   37.2050   23.8370   30.7170 C   0  0  0  0  0  0  0  0  0  0  0  0
   36.3390   23.5600   30.0950 H   0  0  0  0  0  0  0  0  0  0  0  0
   38.2960   24.2610   30.0280 N   0  0  0  0  0  0  0  0  0  0  0  0
   39.3550   24.6000   30.8160 C   0  0  0  0  0  3  0  0  0  0  0  0
   39.2910   24.5110   32.1360 N   0  0  0  0  0  0  0  0  0  0  0  0
   38.1690   23.7600   38.5070 C   0  0  0  0  0  0  0  0  0  0  0  0
   39.4510   23.4540   38.9800 F   0  0  0  0  0  0  0  0  0  0  0  0
   37.8160   24.9900   39.0470 F   0  0  0  0  0  0  0  0  0  0  0  0
   37.2960   22.8050   38.9490 F   0  0  0  0  0  0  0  0  0  0  0  0
  1  7  1  0  0  0  0
  1  2  1  0  0  0  0
  2 16  1  0  0  0  0
  3  8  1  0  0  0  0
  3  2  2  0  0  0  0
  4  3  1  0  0  0  0
  5  6  1  0  0  0  0
  5  4  2  0  0  0  0
  6  1  2  0  0  0  0
  9  5  1  0  0  0  0
 10  9  2  0  0  0  0
 11 10  1  0  0  0  0
 12 11  1  0  0  0  0
 13 11  2  0  0  0  0
 13 14  1  0  0  0  0
 14 15  2  0  0  0  0
 15  9  1  0  0  0  0
 16 19  1  0  0  0  0
 16 17  1  0  0  0  0
 16 18  1  0  0  0  0
M  END
>  <minimizedAffinity>
-4.66860247

$$$$

 OpenBabel03272500133D

 19 20  0  0  0  0  0  0  0  0999 V2000
   38.1260   25.5930   36.8650 C   0  0  0  0  0  0  0  0  0  0  0  0
   38.2320   24.1920   37.0100 C   0  0  0  0  0  0  0  0  0  0  0  0
   38.1600   23.3930   35.8700 C   0  0  0  0  0  0  0  0  0  0  0  0
   37.9870   24.0220   34.6720 N   0  0  0  0  0  0  0  0  0  0  0  0
   37.8890   25.3500   34.5590 C   0  0  0  0  0  0  0  0  0  0  0  0
   37.9560   26.1390   35.6290 N   0  0  0  0  0  0  0  0  0  0  0  0
   38.1780   26.2570   37.7330 H   0  0  0  0  0  0  0  0  0  0  0  0
   38.2410   22.3350   35.9920 H   0  0  0  0  0  0  0  0  0  0  0  0
   37.7070   25.9470   33.2420 C   0  0  0  0  0  0  0  0  0  0  0  0
   38.4340   27.0630   32.8610 C   0  0  0  0  0  3  0  0  0  0  0  0
   38.1960   27.5610   31.5960 C   0  0  0  0  0  0  0  0  0  0  0  0
   38.7550   28.4480   31.2580 H   0  0  0  0  0  0  0  0  0  0  0  0
   37.3170   27.0550   30.6930 N   0  0  0  0  0  0  0  0  0  0  0  0
   36.6380   25.9580   31.1310 C   0  0  0  0  0  3  0  0  0  0  0  0
   36.8410   25.4550   32.3390 N   0  0  0  0  0  0  0  0  0  0  0  0
   38.4190   23.6470   38.3950 C   0  0  0  0  0  0  0  0  0  0  0  0
   37.3960   22.7440   38.7100 F   0  0  0  0  0  0  0  0  0  0  0  0
   39.6110   22.9350   38.4020 F   0  0  0  0  0  0  0  0  0  0  0  0
   38.4650   24.6150   39.3600 F   0  0  0  0  0  0  0  0  0  0  0  0
  1  2  1  0  0  0  0
  1  7  1  0  0  0  0
  2 16  1  0  0  0  0
  3  8  1  0  0  0  0
  3  2  2  0  0  0  0
  4  3  1  0  0  0  0
  5  4  2  0  0  0  0
  5  6  1  0  0  0  0
  6  1  2  0  0  0  0
  9  5  1  0  0  0  0
 10  9  1  0  0  0  0
 11 10  2  0  0  0  0
 12 11  1  0  0  0  0
 13 14  2  0  0  0  0
 13 11  1  0  0  0  0
 14 15  1  0  0  0  0
 15  9  2  0  0  0  0
 16 18  1  0  0  0  0
 16 17  1  0  0  0  0
 16 19  1  0  0  0  0
M  END
>  <minimizedAffinity>
-4.58199883

$$$$

 OpenBabel03272500133D

 19 20  0  0  0  0  0  0  0  0999 V2000
   38.2090   25.7520   36.6770 C   0  0  0  0  0  0  0  0  0  0  0  0
   38.1950   24.3530   36.8780 C   0  0  0  0  0  0  0  0  0  0  0  0
   38.1690   23.5170   35.7640 C   0  0  0  0  0  0  0  0  0  0  0  0
   38.1590   24.1070   34.5350 N   0  0  0  0  0  0  0  0  0  0  0  0
   38.1730   25.4330   34.3680 C   0  0  0  0  0  0  0  0  0  0  0  0
   38.1990   26.2580   35.4130 N   0  0  0  0  0  0  0  0  0  0  0  0
   38.2290   26.4440   37.5240 H   0  0  0  0  0  0  0  0  0  0  0  0
   38.1590   22.4610   35.9280 H   0  0  0  0  0  0  0  0  0  0  0  0
   38.1620   25.9880   33.0210 C   0  0  0  0  0  0  0  0  0  0  0  0
   37.8670   27.3240   32.8050 C   0  0  0  0  0  3  0  0  0  0  0  0
   37.8790   27.7630   31.4960 C   0  0  0  0  0  0  0  0  0  0  0  0
   37.6490   28.8190   31.2850 H   0  0  0  0  0  0  0  0  0  0  0  0
   38.1570   27.0050   30.4050 N   0  0  0  0  0  0  0  0  0  0  0  0
   38.4400   25.7030   30.6880 C   0  0  0  0  0  3  0  0  0  0  0  0
   38.4360   25.2490   31.9320 N   0  0  0  0  0  0  0  0  0  0  0  0
   38.2080   23.8520   38.2920 C   0  0  0  0  0  0  0  0  0  0  0  0
   39.4650   23.3270   38.6150 F   0  0  0  0  0  0  0  0  0  0  0  0
   37.9960   24.9470   39.1200 F   0  0  0  0  0  0  0  0  0  0  0  0
   37.2550   22.9040   38.5430 F   0  0  0  0  0  0  0  0  0  0  0  0
  1  2  1  0  0  0  0
  1  7  1  0  0  0  0
  2 16  1  0  0  0  0
  3  8  1  0  0  0  0
  3  2  2  0  0  0  0
  4  3  1  0  0  0  0
  5  4  2  0  0  0  0
  5  6  1  0  0  0  0
  6  1  2  0  0  0  0
  9  5  1  0  0  0  0
 10  9  1  0  0  0  0
 11 10  2  0  0  0  0
 12 11  1  0  0  0  0
 13 14  2  0  0  0  0
 13 11  1  0  0  0  0
 14 15  1  0  0  0  0
 15  9  2  0  0  0  0
 16 19  1  0  0  0  0
 16 17  1  0  0  0  0
 16 18  1  0  0  0  0
M  END
>  <minimizedAffinity>
-4.57350254

$$$$

 OpenBabel03272500133D

 19 20  0  0  0  0  0  0  0  0999 V2000
   37.2500   27.6520   34.8470 C   0  0  0  0  0  0  0  0  0  0  0  0
   36.8890   27.2730   33.5350 C   0  0  0  0  0  0  0  0  0  0  0  0
   37.1360   25.9640   33.1250 C   0  0  0  0  0  0  0  0  0  0  0  0
   37.7180   25.1220   34.0260 N   0  0  0  0  0  0  0  0  0  0  0  0
   38.0510   25.5040   35.2630 C   0  0  0  0  0  0  0  0  0  0  0  0
   37.8270   26.7460   35.6840 N   0  0  0  0  0  0  0  0  0  0  0  0
   37.0740   28.6700   35.2100 H   0  0  0  0  0  0  0  0  0  0  0  0
   36.8590   25.6890   32.1300 H   0  0  0  0  0  0  0  0  0  0  0  0
   38.6690   24.5440   36.1680 C   0  0  0  0  0  0  0  0  0  0  0  0
   38.1150   24.2790   37.4090 C   0  0  0  0  0  3  0  0  0  0  0  0
   38.7680   23.3560   38.2010 C   0  0  0  0  0  0  0  0  0  0  0  0
   38.3570   23.1190   39.1950 H   0  0  0  0  0  0  0  0  0  0  0  0
   39.9010   22.6850   37.8730 N   0  0  0  0  0  0  0  0  0  0  0  0
   40.3930   22.9910   36.6390 C   0  0  0  0  0  3  0  0  0  0  0  0
   39.7920   23.8730   35.8550 N   0  0  0  0  0  0  0  0  0  0  0  0
   36.2560   28.3130   32.6570 C   0  0  0  0  0  0  0  0  0  0  0  0
   35.7840   29.3830   33.4270 F   0  0  0  0  0  0  0  0  0  0  0  0
   37.2510   28.8120   31.8270 F   0  0  0  0  0  0  0  0  0  0  0  0
   35.2290   27.8300   31.8940 F   0  0  0  0  0  0  0  0  0  0  0  0
  1  7  1  0  0  0  0
  1  6  1  0  0  0  0
  2  1  2  0  0  0  0
  3  2  1  0  0  0  0
  3  4  2  0  0  0  0
  4  5  1  0  0  0  0
  5  6  2  0  0  0  0
  5  9  1  0  0  0  0
  8  3  1  0  0  0  0
  9 10  1  0  0  0  0
 10 11  2  0  0  0  0
 11 12  1  0  0  0  0
 13 11  1  0  0  0  0
 14 13  2  0  0  0  0
 15  9  2  0  0  0  0
 15 14  1  0  0  0  0
 16 17  1  0  0  0  0
 16  2  1  0  0  0  0
 18 16  1  0  0  0  0
 19 16  1  0  0  0  0
M  END
>  <minimizedAffinity>
-4.53642368

$$$$

 OpenBabel03272500133D

 19 20  0  0  0  0  0  0  0  0999 V2000
   37.2100   26.1410   33.1940 C   0  0  0  0  0  0  0  0  0  0  0  0
   36.9700   27.4600   33.6410 C   0  0  0  0  0  0  0  0  0  0  0  0
   37.3080   27.7950   34.9500 C   0  0  0  0  0  0  0  0  0  0  0  0
   37.8540   26.8170   35.7290 N   0  0  0  0  0  0  0  0  0  0  0  0
   38.0710   25.5750   35.2850 C   0  0  0  0  0  0  0  0  0  0  0  0
   37.7600   25.2250   34.0390 N   0  0  0  0  0  0  0  0  0  0  0  0
   36.9600   25.8350   32.1730 H   0  0  0  0  0  0  0  0  0  0  0  0
   37.1220   28.7950   35.2770 H   0  0  0  0  0  0  0  0  0  0  0  0
   38.6600   24.5860   36.1780 C   0  0  0  0  0  0  0  0  0  0  0  0
   38.0980   24.3230   37.4160 C   0  0  0  0  0  3  0  0  0  0  0  0
   38.7230   23.3710   38.1960 C   0  0  0  0  0  0  0  0  0  0  0  0
   38.3050   23.1340   39.1870 H   0  0  0  0  0  0  0  0  0  0  0  0
   39.8350   22.6690   37.8580 N   0  0  0  0  0  0  0  0  0  0  0  0
   40.3350   22.9760   36.6280 C   0  0  0  0  0  3  0  0  0  0  0  0
   39.7610   23.8840   35.8550 N   0  0  0  0  0  0  0  0  0  0  0  0
   36.3620   28.4260   32.6670 C   0  0  0  0  0  0  0  0  0  0  0  0
   35.2210   27.8710   32.0740 F   0  0  0  0  0  0  0  0  0  0  0  0
   35.9500   29.5370   33.3900 F   0  0  0  0  0  0  0  0  0  0  0  0
   37.2240   28.8210   31.6810 F   0  0  0  0  0  0  0  0  0  0  0  0
  1  2  2  0  0  0  0
  1  6  1  0  0  0  0
  2  3  1  0  0  0  0
  3  8  1  0  0  0  0
  3  4  2  0  0  0  0
  5  4  1  0  0  0  0
  5  9  1  0  0  0  0
  6  5  2  0  0  0  0
  7  1  1  0  0  0  0
  9 10  1  0  0  0  0
 10 11  2  0  0  0  0
 11 12  1  0  0  0  0
 13 11  1  0  0  0  0
 14 13  2  0  0  0  0
 15  9  2  0  0  0  0
 15 14  1  0  0  0  0
 16 18  1  0  0  0  0
 16  2  1  0  0  0  0
 17 16  1  0  0  0  0
 19 16  1  0  0  0  0
M  END
>  <minimizedAffinity>
-4.5328126

$$$$

 OpenBabel03272500133D

 19 20  0  0  0  0  0  0  0  0999 V2000
   38.1980   23.7280   35.6060 C   0  0  0  0  0  0  0  0  0  0  0  0
   38.2170   24.5780   36.7350 C   0  0  0  0  0  0  0  0  0  0  0  0
   38.2540   25.9560   36.5340 C   0  0  0  0  0  0  0  0  0  0  0  0
   38.2690   26.4040   35.2460 N   0  0  0  0  0  0  0  0  0  0  0  0
   38.2500   25.5810   34.1930 C   0  0  0  0  0  0  0  0  0  0  0  0
   38.2140   24.2600   34.3530 N   0  0  0  0  0  0  0  0  0  0  0  0
   38.1690   22.6390   35.7180 H   0  0  0  0  0  0  0  0  0  0  0  0
   38.2680   26.5890   37.3950 H   0  0  0  0  0  0  0  0  0  0  0  0
   38.2670   26.1370   32.8470 C   0  0  0  0  0  0  0  0  0  0  0  0
   37.8050   27.4190   32.6010 C   0  0  0  0  0  3  0  0  0  0  0  0
   37.8580   27.8630   31.2950 C   0  0  0  0  0  0  0  0  0  0  0  0
   37.4990   28.8780   31.0610 H   0  0  0  0  0  0  0  0  0  0  0  0
   38.3250   27.1580   30.2330 N   0  0  0  0  0  0  0  0  0  0  0  0
   38.7650   25.9070   30.5440 C   0  0  0  0  0  3  0  0  0  0  0  0
   38.7270   25.4500   31.7860 N   0  0  0  0  0  0  0  0  0  0  0  0
   38.1970   23.9360   38.0910 C   0  0  0  0  0  0  0  0  0  0  0  0
   37.8380   24.8690   39.0700 F   0  0  0  0  0  0  0  0  0  0  0  0
   37.2090   22.9600   38.0710 F   0  0  0  0  0  0  0  0  0  0  0  0
   39.3900   23.3650   38.4410 F   0  0  0  0  0  0  0  0  0  0  0  0
  1  7  1  0  0  0  0
  1  2  1  0  0  0  0
  2 16  1  0  0  0  0
  3  2  2  0  0  0  0
  3  8  1  0  0  0  0
  4  3  1  0  0  0  0
  5  6  1  0  0  0  0
  5  4  2  0  0  0  0
  6  1  2  0  0  0  0
  9  5  1  0  0  0  0
 10  9  1  0  0  0  0
 11 10  2  0  0  0  0
 12 11  1  0  0  0  0
 13 14  2  0  0  0  0
 13 11  1  0  0  0  0
 14 15  1  0  0  0  0
 15  9  2  0  0  0  0
 16 19  1  0  0  0  0
 16 17  1  0  0  0  0
 18 16  1  0  0  0  0
M  END
>  <minimizedAffinity>
-4.44255972

$$$$

 OpenBabel03272500133D

 19 20  0  0  0  0  0  0  0  0999 V2000
   38.5120   24.3610   36.6210 C   0  0  0  0  0  0  0  0  0  0  0  0
   39.6300   23.6350   36.1530 C   0  0  0  0  0  0  0  0  0  0  0  0
   39.9610   23.7140   34.8020 C   0  0  0  0  0  0  0  0  0  0  0  0
   39.1750   24.4950   34.0070 N   0  0  0  0  0  0  0  0  0  0  0  0
   38.1210   25.1730   34.4720 C   0  0  0  0  0  0  0  0  0  0  0  0
   37.7810   25.1190   35.7580 N   0  0  0  0  0  0  0  0  0  0  0  0
   38.2170   24.3270   37.6750 H   0  0  0  0  0  0  0  0  0  0  0  0
   40.8080   23.1610   34.4590 H   0  0  0  0  0  0  0  0  0  0  0  0
   37.3310   25.9880   33.5580 C   0  0  0  0  0  0  0  0  0  0  0  0
   37.1260   27.3360   33.8050 C   0  0  0  0  0  3  0  0  0  0  0  0
   36.3640   28.0290   32.8860 C   0  0  0  0  0  0  0  0  0  0  0  0
   36.1780   29.1030   33.0480 H   0  0  0  0  0  0  0  0  0  0  0  0
   35.8010   27.5110   31.7640 N   0  0  0  0  0  0  0  0  0  0  0  0
   36.0430   26.1830   31.5820 C   0  0  0  0  0  3  0  0  0  0  0  0
   36.7690   25.4870   32.4440 N   0  0  0  0  0  0  0  0  0  0  0  0
   40.3970   22.8180   37.1500 C   0  0  0  0  0  0  0  0  0  0  0  0
   39.8860   23.0080   38.4390 F   0  0  0  0  0  0  0  0  0  0  0  0
   40.2030   21.4820   36.8250 F   0  0  0  0  0  0  0  0  0  0  0  0
   41.7380   23.0900   37.1610 F   0  0  0  0  0  0  0  0  0  0  0  0
  1  7  1  0  0  0  0
  2  1  1  0  0  0  0
  2 16  1  0  0  0  0
  3  2  2  0  0  0  0
  4  5  2  0  0  0  0
  4  3  1  0  0  0  0
  5  6  1  0  0  0  0
  6  1  2  0  0  0  0
  8  3  1  0  0  0  0
  9 10  1  0  0  0  0
  9  5  1  0  0  0  0
 11 12  1  0  0  0  0
 11 10  2  0  0  0  0
 13 11  1  0  0  0  0
 14 13  2  0  0  0  0
 14 15  1  0  0  0  0
 15  9  2  0  0  0  0
 16 19  1  0  0  0  0
 16 17  1  0  0  0  0
 18 16  1  0  0  0  0
M  END
>  <minimizedAffinity>
-4.40021849

$$$$

 OpenBabel03272500133D

 19 20  0  0  0  0  0  0  0  0999 V2000
   36.9220   21.9900   36.5650 C   0  0  0  0  0  0  0  0  0  0  0  0
   37.9770   22.9280   36.6370 C   0  0  0  0  0  0  0  0  0  0  0  0
   38.6650   23.2530   35.4710 C   0  0  0  0  0  0  0  0  0  0  0  0
   38.2730   22.6390   34.3180 N   0  0  0  0  0  0  0  0  0  0  0  0
   37.2720   21.7540   34.2730 C   0  0  0  0  0  0  0  0  0  0  0  0
   36.5950   21.4240   35.3710 N   0  0  0  0  0  0  0  0  0  0  0  0
   36.3560   21.7060   37.4580 H   0  0  0  0  0  0  0  0  0  0  0  0
   39.4600   23.9630   35.5380 H   0  0  0  0  0  0  0  0  0  0  0  0
   36.9110   21.1410   33.0010 C   0  0  0  0  0  0  0  0  0  0  0  0
   35.7640   20.3750   32.8810 C   0  0  0  0  0  3  0  0  0  0  0  0
   35.5010   19.8320   31.6390 C   0  0  0  0  0  0  0  0  0  0  0  0
   34.5980   19.2170   31.5060 H   0  0  0  0  0  0  0  0  0  0  0  0
   36.2650   19.9840   30.5270 N   0  0  0  0  0  0  0  0  0  0  0  0
   37.3770   20.7490   30.7140 C   0  0  0  0  0  3  0  0  0  0  0  0
   37.6580   21.2840   31.8920 N   0  0  0  0  0  0  0  0  0  0  0  0
   38.2920   23.5190   37.9800 C   0  0  0  0  0  0  0  0  0  0  0  0
   37.5090   22.9230   38.9760 F   0  0  0  0  0  0  0  0  0  0  0  0
   39.6170   23.2150   38.2640 F   0  0  0  0  0  0  0  0  0  0  0  0
   38.1180   24.8750   38.0330 F   0  0  0  0  0  0  0  0  0  0  0  0
  1  2  1  0  0  0  0
  1  7  1  0  0  0  0
  2 16  1  0  0  0  0
  3  8  1  0  0  0  0
  3  2  2  0  0  0  0
  4  3  1  0  0  0  0
  5  4  2  0  0  0  0
  5  6  1  0  0  0  0
  6  1  2  0  0  0  0
  9  5  1  0  0  0  0
 10  9  1  0  0  0  0
 11 10  2  0  0  0  0
 12 11  1  0  0  0  0
 13 14  2  0  0  0  0
 13 11  1  0  0  0  0
 14 15  1  0  0  0  0
 15  9  2  0  0  0  0
 16 19  1  0  0  0  0
 16 18  1  0  0  0  0
 16 17  1  0  0  0  0
M  END
>  <minimizedAffinity>
-4.28203011

$$$$
