
 OpenBabel03262522483D

 23 25  0  0  0  0  0  0  0  0999 V2000
   36.2970   30.3000   48.8340 C   0  0  0  0  0  0  0  0  0  0  0  0
   36.1420   29.4620   49.8660 C   0  0  0  0  0  0  0  0  0  0  0  0
   35.1630   28.4930   49.8190 C   0  0  0  0  0  0  0  0  0  0  0  0
   34.4000   28.4630   48.6820 C   0  0  0  0  0  0  0  0  0  0  0  0
   35.1030   29.8270   47.7020 S   0  0  0  0  0  0  0  0  0  0  0  0
   36.8020   29.5560   50.7470 H   0  0  0  0  0  0  0  0  0  0  0  0
   34.9600   27.7720   50.6000 H   0  0  0  0  0  0  0  0  0  0  0  0
   38.1650   33.3600   49.4610 C   0  0  0  0  0  0  0  0  0  0  0  0
   39.0560   33.4260   48.3830 C   0  0  0  0  0  0  0  0  0  0  0  0
   39.0090   32.3960   47.4230 C   0  0  0  0  0  0  0  0  0  0  0  0
   38.0990   31.3910   47.5930 N   0  0  0  0  0  0  0  0  0  0  0  0
   37.2620   31.3870   48.6640 C   0  0  0  0  0  0  0  0  0  0  0  0
   37.2740   32.3430   49.5950 N   0  0  0  0  0  0  0  0  0  0  0  0
   38.1800   34.1360   50.2110 H   0  0  0  0  0  0  0  0  0  0  0  0
   39.7580   34.2450   48.2960 H   0  0  0  0  0  0  0  0  0  0  0  0
   39.6770   32.4120   46.5820 H   0  0  0  0  0  0  0  0  0  0  0  0
   33.3030   27.5730   48.3330 C   0  0  0  0  0  0  0  0  0  0  0  0
   33.5280   26.4960   47.5400 C   0  0  0  0  0  0  0  0  0  0  0  0
   32.4460   25.6940   47.2470 C   0  0  0  0  0  0  0  0  0  0  0  0
   32.6570   24.8270   46.6010 H   0  0  0  0  0  0  0  0  0  0  0  0
   31.2020   25.9530   47.7220 N   0  0  0  0  0  0  0  0  0  0  0  0
   31.0800   27.0570   48.5100 C   0  0  0  0  0  0  0  0  0  0  0  0
   32.0890   27.8820   48.8360 N   0  0  0  0  0  0  0  0  0  0  0  0
  1  2  2  0  0  0  0
  2  6  1  0  0  0  0
  3  2  1  0  0  0  0
  3  7  1  0  0  0  0
  4  3  2  0  0  0  0
  5  4  1  0  0  0  0
  5  1  1  0  0  0  0
  8 13  1  0  0  0  0
  8 14  1  0  0  0  0
  9  8  2  0  0  0  0
 10 11  2  0  0  0  0
 10  9  1  0  0  0  0
 11 12  1  0  0  0  0
 12  1  1  0  0  0  0
 12 13  2  0  0  0  0
 15  9  1  0  0  0  0
 16 10  1  0  0  0  0
 17  4  1  0  0  0  0
 17 23  1  0  0  0  0
 18 17  2  0  0  0  0
 19 18  1  0  0  0  0
 19 21  2  0  0  0  0
 20 19  1  0  0  0  0
 21 22  1  0  0  0  0
 22 23  2  0  0  0  0
M  END
>  <minimizedAffinity>
-5.2911253

>  <minimizedRMSD>
0.671821356

$$$$
