REMARK  Name = 
REMARK  3 active torsions:
REMARK  status: ('A' for Active; 'I' for Inactive)
REMARK    1  A    between atoms: C_1  and  C_9
REMARK    2  A    between atoms: C_5  and  C_13
REMARK    3  A    between atoms: C_11  and  C_21
REMARK                            x       y       z     vdW  Elec       q    Type
REMARK                         _______ _______ _______ _____ _____    ______ ____
ROOT
ATOM      1  C   UNL     1      37.714  30.366  51.124  0.00  0.00    +0.000 A 
ATOM      2  C   UNL     1      38.113  30.944  49.907  0.00  0.00    +0.000 A 
ATOM      3  C   UNL     1      37.465  30.537  48.754  0.00  0.00    +0.000 A 
ATOM      4  N   UNL     1      36.491  29.611  48.870  0.00  0.00    +0.000 NA
ATOM      5  C   UNL     1      36.125  29.071  50.042  0.00  0.00    +0.000 A 
ATOM      6  N   UNL     1      36.740  29.450  51.178  0.00  0.00    +0.000 NA
ATOM      7  H   UNL     1      38.226  30.692  52.013  0.00  0.00    +0.000 HD
ATOM      8  H   UNL     1      38.894  31.686  49.819  0.00  0.00    +0.000 HD
ENDROOT
BRANCH   3   9
ATOM      9  C   UNL     1      37.781  31.055  47.428  0.00  0.00    +0.000 A 
ATOM     10  C   UNL     1      37.028  30.724  46.316  0.00  0.00    +0.000 A 
ATOM     11  C   UNL     1      37.314  31.208  45.049  0.00  0.00    +0.000 A 
ATOM     12  N   UNL     1      38.361  32.033  44.876  0.00  0.00    +0.000 NA
ATOM     13  C   UNL     1      39.082  32.346  45.965  0.00  0.00    +0.000 A 
ATOM     14  N   UNL     1      38.819  31.887  47.194  0.00  0.00    +0.000 NA
ATOM     15  H   UNL     1      36.176  30.056  46.438  0.00  0.00    +0.000 HD
ATOM     16  H   UNL     1      36.667  30.893  44.236  0.00  0.00    +0.000 HD
BRANCH  13  17
ATOM     17  C   UNL     1      40.250  33.258  45.812  0.00  0.00    +0.000 C 
ATOM     18  F   UNL     1      40.382  33.996  46.985  0.00  0.00    +0.000 F 
ATOM     19  F   UNL     1      41.412  32.551  45.552  0.00  0.00    +0.000 F 
ATOM     20  F   UNL     1      40.070  34.152  44.794  0.00  0.00    +0.000 F 
ENDBRANCH  13  17
ENDBRANCH   3   9
BRANCH   5  21
ATOM     21  C   UNL     1      35.062  28.073  50.091  0.00  0.00    +0.000 A 
ATOM     22  C   UNL     1      34.428  27.679  48.931  0.00  0.00    +0.000 A 
ATOM     23  C   UNL     1      33.432  26.733  49.051  0.00  0.00    +0.000 A 
ATOM     24  H   UNL     1      32.967  26.461  48.098  0.00  0.00    +0.000 HD
ATOM     25  N   UNL     1      33.062  26.186  50.243  0.00  0.00    +0.000 NA
ATOM     26  C   UNL     1      33.714  26.603  51.356  0.00  0.00    +0.000 A 
ATOM     27  N   UNL     1      34.705  27.539  51.277  0.00  0.00    +0.000 NA
ENDBRANCH   5  21
TORSDOF 3
