REMARK  Name = 
REMARK  4 active torsions:
REMARK  status: ('A' for Active; 'I' for Inactive)
REMARK    1  A    between atoms: C_1  and  C_7
REMARK    2  A    between atoms: C_2  and  C_10
REMARK    3  A    between atoms: C_10  and  C_11
REMARK    4  A    between atoms: C_11  and  C_23
REMARK                            x       y       z     vdW  Elec       q    Type
REMARK                         _______ _______ _______ _____ _____    ______ ____
ROOT
ATOM      1  C   UNL     1      37.160  31.223  48.597  0.00  0.00    +0.000 A 
ATOM      2  C   UNL     1      38.089  32.256  48.396  0.00  0.00    +0.000 A 
ATOM      3  C   UNL     1      38.433  32.429  47.076  0.00  0.00    +0.000 A 
ATOM      4  N   UNL     1      37.924  31.675  46.083  0.00  0.00    +0.000 NA
ATOM      5  C   UNL     1      37.034  30.688  46.308  0.00  0.00    +0.000 A 
ATOM      6  N   UNL     1      36.652  30.462  47.568  0.00  0.00    +0.000 NA
ATOM      7  H   UNL     1      39.157  33.221  46.832  0.00  0.00    +0.000 HD
ATOM      8  H   UNL     1      36.678  30.135  45.466  0.00  0.00    +0.000 HD
ENDROOT
BRANCH   1   9
ATOM      9  C   UNL     1      36.634  31.041  50.016  0.00  0.00    +0.000 C 
ATOM     10  C   UNL     1      35.883  29.908  50.408  0.00  0.00    +0.000 C 
ATOM     11  C   UNL     1      37.379  29.824  50.660  0.00  0.00    +0.000 C 
ATOM     12  H   UNL     1      36.767  31.939  50.689  0.00  0.00    +0.000 HD
ATOM     13  H   UNL     1      35.224  29.965  51.295  0.00  0.00    +0.000 HD
ATOM     14  H   UNL     1      35.516  29.190  49.636  0.00  0.00    +0.000 HD
ATOM     15  H   UNL     1      37.967  29.171  50.028  0.00  0.00    +0.000 HD
ATOM     16  H   UNL     1      37.677  29.990  51.700  0.00  0.00    +0.000 HD
ENDBRANCH   1   9
BRANCH   2  17
ATOM     17  C   UNL     1      38.655  33.008  49.509  0.00  0.00    +0.000 C 
ATOM     18  H   UNL     1      37.903  33.405  50.231  0.00  0.00    +0.000 HD
ATOM     19  H   UNL     1      39.259  32.294  50.115  0.00  0.00    +0.000 HD
BRANCH  17  20
ATOM     20  C   UNL     1      39.511  34.157  49.137  0.00  0.00    +0.000 C 
ATOM     21  H   UNL     1      40.312  33.822  48.441  0.00  0.00    +0.000 HD
ATOM     22  H   UNL     1      39.963  34.681  49.984  0.00  0.00    +0.000 HD
BRANCH  20  23
ATOM     23  C   UNL     1      38.713  35.159  48.389  0.00  0.00    +0.000 A 
ATOM     24  C   UNL     1      37.390  35.540  48.453  0.00  0.00    +0.000 A 
ATOM     25  C   UNL     1      36.912  36.528  47.635  0.00  0.00    +0.000 A 
ATOM     26  H   UNL     1      35.849  36.715  47.801  0.00  0.00    +0.000 HD
ATOM     27  N   UNL     1      37.742  37.132  46.762  0.00  0.00    +0.000 NA
ATOM     28  C   UNL     1      39.023  36.774  46.691  0.00  0.00    +0.000 A 
ATOM     29  N   UNL     1      39.494  35.803  47.495  0.00  0.00    +0.000 NA
ENDBRANCH  20  23
ENDBRANCH  17  20
ENDBRANCH   2  17
TORSDOF 4
