
 OpenBabel03272510273D

 43 47  0  0  1  0  0  0  0  0999 V2000
   36.1400   30.2180   46.8480 C   0  0  0  0  0  0  0  0  0  0  0  0
   37.0440   30.7680   47.7570 C   0  0  0  0  0  0  0  0  0  0  0  0
   38.0490   31.6330   47.3400 C   0  0  0  0  0  0  0  0  0  0  0  0
   38.0970   31.9140   45.9790 C   0  0  0  0  0  0  0  0  0  0  0  0
   38.9860   32.7220   45.3320 N   0  0  0  0  0  0  0  0  0  0  0  0
   38.6550   32.6910   44.0330 C   0  0  0  0  0  0  0  0  0  0  0  0
   37.6150   31.9070   43.8530 N   0  0  0  0  0  0  0  0  0  0  0  0
   37.2290   31.3960   45.0480 C   0  0  0  0  0  0  0  0  0  0  0  0
   36.2260   30.5270   45.4940 C   0  0  0  0  0  0  0  0  0  0  0  0
   35.3530   29.5470   47.1420 H   0  0  0  0  0  0  0  0  0  0  0  0
   38.7410   32.0510   48.0540 H   0  0  0  0  0  0  0  0  0  0  0  0
   39.7740   33.2590   45.7920 H   0  0  0  0  0  0  0  0  0  0  0  0
   35.5540   30.1330   44.7430 H   0  0  0  0  0  0  0  0  0  0  0  0
   37.5650   30.2220   51.4330 C   0  0  0  0  0  0  0  0  0  0  0  0
   37.8130   30.6420   50.1400 C   0  0  0  0  0  0  0  0  0  0  0  0
   36.8800   30.3770   49.1440 C   0  0  0  0  0  0  0  0  0  0  0  0
   35.7440   29.7030   49.4960 N   0  0  0  0  0  0  0  0  0  0  0  0
   35.5160   29.2960   50.7700 C   0  0  0  0  0  0  0  0  0  0  0  0
   36.4040   29.5500   51.7070 N   0  0  0  0  0  0  0  0  0  0  0  0
   38.2710   30.4180   52.2040 H   0  0  0  0  0  0  0  0  0  0  0  0
   38.7140   31.1770   49.8640 H   0  0  0  0  0  0  0  0  0  0  0  0
   34.5780   28.7570   50.9750 H   0  0  0  0  0  0  0  0  0  0  0  0
   39.3710   33.4200   43.0690 O   0  0  0  0  0  0  0  0  0  0  0  0
   38.9720   31.5610   41.8050 N   0  0  0  0  0  0  0  0  0  0  0  0
   39.1730   33.0200   41.7200 C   0  0  1  0  0  0  0  0  0  0  0  0
   37.9860   33.6260   41.1310 C   0  0  0  0  0  0  0  0  0  0  0  0
   37.8600   33.1740   39.8050 O   0  0  0  0  0  0  0  0  0  0  0  0
   37.8320   31.8150   39.6570 C   0  0  0  0  0  0  0  0  0  0  0  0
   38.8970   31.1040   40.4320 C   0  0  1  0  0  0  0  0  0  0  0  0
   39.8530   31.1910   42.2270 H   0  0  0  0  0  0  0  0  0  0  0  0
   40.0500   33.2620   41.1090 H   0  0  0  0  0  0  0  0  0  0  0  0
   37.0040   33.5510   41.5140 H   0  0  0  0  0  0  0  0  0  0  0  0
   38.1980   34.7310   41.0020 H   0  0  0  0  0  0  0  0  0  0  0  0
   36.8450   31.4670   40.0540 H   0  0  0  0  0  0  0  0  0  0  0  0
   37.9460   31.5940   38.5850 H   0  0  0  0  0  0  0  0  0  0  0  0
   38.5410   30.0350   40.5150 H   0  0  0  0  0  0  0  0  0  0  0  0
   40.2080   31.0330   39.7850 C   0  0  0  0  0  0  0  0  0  0  0  0
   41.3880   30.4780   40.1860 C   0  0  0  0  0  3  0  0  0  0  0  0
   42.5200   30.5310   39.3980 C   0  0  0  0  0  0  0  0  0  0  0  0
   43.3970   30.0520   39.8300 H   0  0  0  0  0  0  0  0  0  0  0  0
   42.5080   31.1440   38.1810 N   0  0  0  0  0  0  0  0  0  0  0  0
   41.3310   31.6820   37.8100 C   0  0  0  0  0  3  0  0  0  0  0  0
   40.1920   31.6480   38.5640 N   0  0  0  0  0  0  0  0  0  0  0  0
  1 10  1  0  0  0  0
  1  2  1  0  0  0  0
  2 16  1  0  0  0  0
  3  2  2  0  0  0  0
  3 11  1  0  0  0  0
  4  3  1  0  0  0  0
  5 12  1  0  0  0  0
  5  4  1  0  0  0  0
  6  5  1  0  0  0  0
  7  6  2  0  0  0  0
  7  8  1  0  0  0  0
  8  9  1  0  0  0  0
  8  4  2  0  0  0  0
  9  1  2  0  0  0  0
 13  9  1  0  0  0  0
 14 19  1  0  0  0  0
 14 20  1  0  0  0  0
 15 14  2  0  0  0  0
 16 17  2  0  0  0  0
 16 15  1  0  0  0  0
 17 18  1  0  0  0  0
 18 22  1  0  0  0  0
 18 19  2  0  0  0  0
 21 15  1  0  0  0  0
 23  6  1  0  0  0  0
 24 30  1  0  0  0  0
 25 31  1  6  0  0  0
 25 24  1  0  0  0  0
 25 23  1  0  0  0  0
 26 32  1  0  0  0  0
 26 25  1  0  0  0  0
 27 26  1  0  0  0  0
 28 27  1  0  0  0  0
 28 34  1  0  0  0  0
 28 29  1  0  0  0  0
 29 36  1  1  0  0  0
 29 24  1  0  0  0  0
 33 26  1  0  0  0  0
 35 28  1  0  0  0  0
 37 38  1  0  0  0  0
 37 29  1  0  0  0  0
 39 40  1  0  0  0  0
 39 38  2  0  0  0  0
 41 39  1  0  0  0  0
 42 41  2  0  0  0  0
 42 43  1  0  0  0  0
 43 37  2  0  0  0  0
M  END
>  <minimizedAffinity>
-5.92588615

>  <minimizedRMSD>
0.878495216

$$$$
