
 OpenBabel03272500043D

 27 29  0  0  0  0  0  0  0  0999 V2000
   35.8890   29.1020   49.2740 C   0  0  0  0  0  0  0  0  0  0  0  0
   35.7300   30.2770   48.5140 C   0  0  0  0  0  0  0  0  0  0  0  0
   34.6240   30.3660   47.6940 C   0  0  0  0  0  0  0  0  0  0  0  0
   33.7400   29.3410   47.6430 N   0  0  0  0  0  0  0  0  0  0  0  0
   33.9110   28.2280   48.3770 C   0  0  0  0  0  0  0  0  0  0  0  0
   34.9840   28.0980   49.1960 N   0  0  0  0  0  0  0  0  0  0  0  0
   36.7470   29.0030   49.9270 H   0  0  0  0  0  0  0  0  0  0  0  0
   34.4980   31.2600   47.1120 H   0  0  0  0  0  0  0  0  0  0  0  0
   36.7270   31.2950   48.6470 N   0  0  0  0  0  0  0  0  0  0  0  0
   36.8970   31.9750   49.7980 C   0  0  0  0  0  0  0  0  0  0  0  0
   37.8810   32.9560   49.8750 C   0  0  0  0  0  0  0  0  0  0  0  0
   38.6060   33.1390   48.7270 C   0  0  0  0  0  0  0  0  0  0  0  0
   39.5060   34.0270   48.7750 O   0  0  0  0  0  0  0  0  0  0  0  0
   38.4540   32.4740   47.5730 N   0  0  0  0  0  0  0  0  0  0  0  0
   37.4810   31.5270   47.5480 C   0  0  0  0  0  0  0  0  0  0  0  0
   37.3320   30.8960   46.4640 O   0  0  0  0  0  0  0  0  0  0  0  0
   36.2760   31.7650   50.6590 H   0  0  0  0  0  0  0  0  0  0  0  0
   38.0630   33.5310   50.7630 H   0  0  0  0  0  0  0  0  0  0  0  0
   39.0330   32.6570   46.7410 H   0  0  0  0  0  0  0  0  0  0  0  0
   33.0320   27.1520   48.3590 O   0  0  0  0  0  0  0  0  0  0  0  0
   31.6590   27.3220   48.1490 C   0  0  0  0  0  0  0  0  0  0  0  0
   30.8980   27.6780   49.2440 C   0  0  0  0  0  3  0  0  0  0  0  0
   29.5550   27.8340   48.9890 C   0  0  0  0  0  0  0  0  0  0  0  0
   28.8930   28.1130   49.7960 H   0  0  0  0  0  0  0  0  0  0  0  0
   28.9830   27.6580   47.7640 N   0  0  0  0  0  0  0  0  0  0  0  0
   29.7830   27.3070   46.7220 C   0  0  0  0  0  3  0  0  0  0  0  0
   31.1070   27.1420   46.9230 N   0  0  0  0  0  0  0  0  0  0  0  0
  1  7  1  0  0  0  0
  2  9  1  0  0  0  0
  2  1  2  0  0  0  0
  3  2  1  0  0  0  0
  4  3  2  0  0  0  0
  4  5  1  0  0  0  0
  5  6  2  0  0  0  0
  6  1  1  0  0  0  0
  8  3  1  0  0  0  0
  9 10  1  0  0  0  0
 10 11  2  0  0  0  0
 10 17  1  0  0  0  0
 11 18  1  0  0  0  0
 12 13  2  0  0  0  0
 12 11  1  0  0  0  0
 14 12  1  0  0  0  0
 15 14  1  0  0  0  0
 15  9  1  0  0  0  0
 16 15  2  0  0  0  0
 19 14  1  0  0  0  0
 20  5  1  0  0  0  0
 21 20  1  0  0  0  0
 21 22  1  0  0  0  0
 23 22  2  0  0  0  0
 23 24  1  0  0  0  0
 25 23  1  0  0  0  0
 26 27  1  0  0  0  0
 26 25  2  0  0  0  0
 27 21  2  0  0  0  0
M  END
>  <minimizedAffinity>
-5.54653311

>  <minimizedRMSD>
0.937471926

$$$$
