
 OpenBabel03272501543D

 22 23  0  0  0  0  0  0  0  0999 V2000
   34.7650   28.3070   49.4860 C   0  0  0  0  0  0  0  0  0  0  0  0
   34.9910   27.2570   49.7040 H   0  0  0  0  0  0  0  0  0  0  0  0
   33.9150   28.6320   50.1310 H   0  0  0  0  0  0  0  0  0  0  0  0
   37.2820   30.1760   51.4380 C   0  0  0  0  0  0  0  0  0  0  0  0
   38.0850   30.7180   50.4200 C   0  0  0  0  0  0  0  0  0  0  0  0
   37.7670   30.4470   49.0760 C   0  0  0  0  0  0  0  0  0  0  0  0
   36.6870   29.6640   48.8280 N   0  0  0  0  0  0  0  0  0  0  0  0
   35.9360   29.1590   49.8540 C   0  0  0  0  0  0  0  0  0  0  0  0
   36.2330   29.4140   51.1360 N   0  0  0  0  0  0  0  0  0  0  0  0
   37.5700   30.4150   52.4470 H   0  0  0  0  0  0  0  0  0  0  0  0
   38.9480   31.3440   50.6070 H   0  0  0  0  0  0  0  0  0  0  0  0
   38.3590   30.8450   48.2610 H   0  0  0  0  0  0  0  0  0  0  0  0
   34.4400   28.4790   48.0250 C   0  0  0  0  0  0  0  0  0  0  0  0
   34.9800   27.6920   47.4660 H   0  0  0  0  0  0  0  0  0  0  0  0
   34.8490   29.4820   47.7420 H   0  0  0  0  0  0  0  0  0  0  0  0
   32.9840   28.3830   47.7740 C   0  0  0  0  0  0  0  0  0  0  0  0
   32.2360   27.7500   48.7630 C   0  0  0  0  0  0  0  0  0  0  0  0
   30.8680   27.5750   48.6920 C   0  0  0  0  0  0  0  0  0  0  0  0
   30.3080   27.0790   49.4770 H   0  0  0  0  0  0  0  0  0  0  0  0
   30.2440   28.0530   47.5880 N   0  0  0  0  0  0  0  0  0  0  0  0
   30.9910   28.6660   46.6370 C   0  0  0  0  0  0  0  0  0  0  0  0
   32.3410   28.8490   46.6870 N   0  0  0  0  0  0  0  0  0  0  0  0
  1  2  1  0  0  0  0
  1  8  1  0  0  0  0
  1  3  1  0  0  0  0
  4 10  1  0  0  0  0
  5 11  1  0  0  0  0
  5  4  2  0  0  0  0
  6  5  1  0  0  0  0
  7  6  2  0  0  0  0
  7  8  1  0  0  0  0
  8  9  2  0  0  0  0
  9  4  1  0  0  0  0
 12  6  1  0  0  0  0
 13  1  1  0  0  0  0
 14 13  1  0  0  0  0
 15 13  1  0  0  0  0
 16 13  1  0  0  0  0
 16 17  1  0  0  0  0
 18 17  2  0  0  0  0
 18 19  1  0  0  0  0
 20 18  1  0  0  0  0
 21 22  1  0  0  0  0
 21 20  2  0  0  0  0
 22 16  2  0  0  0  0
M  END
>  <minimizedAffinity>
-4.43331671

>  <minimizedRMSD>
1.20817006

$$$$
