
     RDKit          3D

 41 43  0  0  0  0  0  0  0  0999 V2000
   36.6934   29.9499   49.0133 C   0  0  0  0  0  0  0  0  0  0  0  0
   37.7248   30.6180   48.3198 C   0  0  0  0  0  0  0  0  0  0  0  0
   37.4954   30.9071   46.9740 C   0  0  0  0  0  0  0  0  0  0  0  0
   36.3288   30.5444   46.4138 N   0  0  0  0  0  0  0  0  0  0  0  0
   35.3668   29.9073   47.1079 C   0  0  0  0  0  0  0  0  0  0  0  0
   35.5500   29.6151   48.3916 N   0  0  0  0  0  0  0  0  0  0  0  0
   38.4646   31.5609   46.2179 N   0  0  0  0  0  0  0  0  0  0  0  0
   39.4308   32.5707   46.7299 C   0  0  0  0  0  0  0  0  0  0  0  0
   40.0911   33.1966   45.5661 C   0  0  0  0  0  0  0  0  0  0  0  0
   39.2186   32.8591   44.4474 C   0  0  0  0  0  0  0  0  0  0  0  0
   38.7886   31.4931   44.8302 C   0  0  2  0  0  0  0  0  0  0  0  0
   37.6349   31.0408   43.9300 C   0  0  0  0  0  0  0  0  0  0  0  0
   36.5090   31.7517   44.2841 F   0  0  0  0  0  0  0  0  0  0  0  0
   37.3056   29.7205   44.0198 F   0  0  0  0  0  0  0  0  0  0  0  0
   37.9609   31.4269   42.6489 F   0  0  0  0  0  0  0  0  0  0  0  0
   39.8244   30.5145   44.6685 C   0  0  1  0  0  0  0  0  0  0  0  0
   40.3498   30.6806   43.5386 O   0  0  0  0  0  0  0  0  0  0  0  0
   40.9906   29.9784   42.5918 C   0  0  0  0  0  0  0  0  0  0  0  0
   40.7586   30.4062   41.4599 O   0  0  0  0  0  0  0  0  0  0  0  0
   41.8683   28.9122   42.2567 N   0  0  0  0  0  0  0  0  0  0  0  0
   36.9798   29.7752   50.0555 H   0  0  0  0  0  0  0  0  0  0  0  0
   38.6620   30.9225   48.7261 H   0  0  0  0  0  0  0  0  0  0  0  0
   34.4138   29.5888   46.7256 H   0  0  0  0  0  0  0  0  0  0  0  0
   39.9769   32.3137   47.6034 H   0  0  0  0  0  0  0  0  0  0  0  0
   38.6585   33.3341   47.1548 H   0  0  0  0  0  0  0  0  0  0  0  0
   39.8359   34.3459   45.7110 H   0  0  0  0  0  0  0  0  0  0  0  0
   41.1427   33.2957   45.4905 H   0  0  0  0  0  0  0  0  0  0  0  0
   38.3337   33.5193   44.3382 H   0  0  0  0  0  0  0  0  0  0  0  0
   39.7069   32.8096   43.4502 H   0  0  0  0  0  0  0  0  0  0  0  0
   39.5326   29.5470   45.0096 H   0  0  0  0  0  0  0  0  0  0  0  0
   41.6285   27.8961   42.1671 H   0  0  0  0  0  0  0  0  0  0  0  0
   42.9029   29.0546   42.0556 H   0  0  0  0  0  0  0  0  0  0  0  0
   41.1115   30.6146   45.5877 C   0  0  0  0  0  0  0  0  0  0  0  0
   41.2511   29.9607   46.8051 C   0  0  0  0  0  0  0  0  0  0  0  0
   42.3819   30.1761   47.5530 C   0  0  0  0  0  0  0  0  0  0  0  0
   42.3843   29.6165   48.4804 H   0  0  0  0  0  0  0  0  0  0  0  0
   43.3475   30.9999   47.1338 N   0  0  0  0  0  0  0  0  0  0  0  0
   43.2435   31.6447   45.9662 C   0  0  0  0  0  0  0  0  0  0  0  0
   42.1473   31.4196   45.2681 N   0  0  0  0  0  0  0  0  0  0  0  0
   40.4046   29.3041   47.0642 H   0  0  0  0  0  0  0  0  0  0  0  0
   43.9958   32.3232   45.5789 H   0  0  0  0  0  0  0  0  0  0  0  0
  2  1  2  0
  3  2  1  0
  4  3  2  0
  4  5  1  0
  5  6  2  0
  6  1  1  0
  7  8  1  0
  7  3  1  0
  9  8  1  0
 10 11  1  0
 10  9  1  0
 11 12  1  6
 11  7  1  0
 12 14  1  0
 12 13  1  0
 15 12  1  0
 16 11  1  0
 17 16  1  0
 18 17  1  0
 19 18  2  0
 20 18  1  0
  1 21  1  0
  2 22  1  0
  5 23  1  0
  8 24  1  0
  8 25  1  0
  9 26  1  0
  9 27  1  0
 10 28  1  0
 10 29  1  0
 16 30  1  6
 20 31  1  0
 20 32  1  0
 33 34  2  0
 34 35  1  0
 35 36  1  0
 35 37  2  0
 37 38  1  0
 38 39  2  0
 39 33  1  0
 34 40  1  0
 38 41  1  0
 16 33  1  0
M  ISO  8  21  14  22  14  23  14  24  13  25  13  26  13  27  13  28  13
M  ISO  3  29  13  30   8  36  14
M  END
>  <DihAtoms>  (1) 
10,15,32,33

>  <DihDeg>  (1) 
-102.85853362209161

$$$$
