
     RDKit          3D

 45 49  0  0  0  0  0  0  0  0999 V2000
   36.2499   30.1712   46.8634 C   0  0  0  0  0  0  0  0  0  0  0  0
   37.0818   30.7646   47.8115 C   0  0  0  0  0  0  0  0  0  0  0  0
   38.0547   31.6857   47.4404 C   0  0  0  0  0  0  0  0  0  0  0  0
   38.1468   31.9750   46.0826 C   0  0  0  0  0  0  0  0  0  0  0  0
   39.0170   32.8344   45.4775 N   0  0  0  0  0  0  0  0  0  0  0  0
   38.7455   32.7896   44.1648 C   0  0  0  0  0  0  0  0  0  0  0  0
   37.7585   31.9506   43.9376 N   0  0  0  0  0  0  0  0  0  0  0  0
   37.3492   31.4145   45.1143 C   0  0  0  0  0  0  0  0  0  0  0  0
   36.3772   30.4904   45.5147 C   0  0  0  0  0  0  0  0  0  0  0  0
   37.5175   30.1503   51.4881 C   0  0  0  0  0  0  0  0  0  0  0  0
   37.8022   30.5815   50.2057 C   0  0  0  0  0  0  0  0  0  0  0  0
   36.8803   30.3602   49.1889 C   0  0  0  0  0  0  0  0  0  0  0  0
   35.7168   29.7166   49.5101 N   0  0  0  0  0  0  0  0  0  0  0  0
   35.4524   29.2996   50.7736 C   0  0  0  0  0  0  0  0  0  0  0  0
   36.3298   29.5125   51.7308 N   0  0  0  0  0  0  0  0  0  0  0  0
   39.4613   33.5615   43.2353 O   0  0  0  0  0  0  0  0  0  0  0  0
   39.5610   31.8539   41.7233 N   0  0  0  0  0  0  0  0  0  0  0  0
   39.2014   33.2770   41.8673 C   0  0  1  0  0  0  0  0  0  0  0  0
   37.7953   33.4446   41.5226 C   0  0  0  0  0  0  0  0  0  0  0  0
   37.6253   33.1369   40.1609 O   0  0  0  0  0  0  0  0  0  0  0  0
   38.0690   31.8992   39.7874 C   0  0  0  0  0  0  0  0  0  0  0  0
   39.4322   31.5673   40.3091 C   0  0  1  0  0  0  0  0  0  0  0  0
   35.4889   29.4562   47.1215 H   0  0  0  0  0  0  0  0  0  0  0  0
   38.6912   32.1375   48.1851 H   0  0  0  0  0  0  0  0  0  0  0  0
   39.7528   33.4115   45.9721 H   0  0  0  0  0  0  0  0  0  0  0  0
   35.7611   30.0629   44.7343 H   0  0  0  0  0  0  0  0  0  0  0  0
   38.2137   30.3134   52.2736 H   0  0  0  0  0  0  0  0  0  0  0  0
   38.7236   31.0907   49.9548 H   0  0  0  0  0  0  0  0  0  0  0  0
   34.4937   28.7885   50.9534 H   0  0  0  0  0  0  0  0  0  0  0  0
   40.5739   31.8041   41.9769 H   0  0  0  0  0  0  0  0  0  0  0  0
   39.8161   33.9072   41.2144 H   0  0  0  0  0  0  0  0  0  0  0  0
   36.9862   32.9544   41.9921 H   0  0  0  0  0  0  0  0  0  0  0  0
   37.5669   34.5535   41.5624 H   0  0  0  0  0  0  0  0  0  0  0  0
   37.3557   31.1547   40.2236 H   0  0  0  0  0  0  0  0  0  0  0  0
   38.0756   31.8661   38.6865 H   0  0  0  0  0  0  0  0  0  0  0  0
   39.5083   30.4410   40.2460 H   0  0  0  0  0  0  0  0  0  0  0  0
   40.5531   32.0814   39.5201 C   0  0  0  0  0  0  0  0  0  0  0  0
   41.5345   32.9805   39.8190 C   0  0  0  0  0  0  0  0  0  0  0  0
   42.5076   33.3227   38.9026 C   0  0  0  0  0  0  0  0  0  0  0  0
   43.2331   34.0505   39.2623 H   0  0  0  0  0  0  0  0  0  0  0  0
   42.5309   32.7756   37.6545 N   0  0  0  0  0  0  0  0  0  0  0  0
   41.5506   31.8917   37.3878 C   0  0  0  0  0  0  0  0  0  0  0  0
   40.5723   31.5298   38.2696 N   0  0  0  0  0  0  0  0  0  0  0  0
   41.4561   33.3720   40.8191 H   0  0  0  0  0  0  0  0  0  0  0  0
   41.5932   31.4691   36.3817 H   0  0  0  0  0  0  0  0  0  0  0  0
  1  2  2  0
  2 12  1  0
  3  2  1  0
  4  3  2  0
  5  4  1  0
  6  5  1  0
  7  6  2  0
  7  8  1  0
  8  9  2  0
  8  4  1  0
  9  1  1  0
 10 15  2  0
 11 10  1  0
 12 13  1  0
 12 11  2  0
 13 14  2  0
 14 15  1  0
 16  6  1  0
 17 18  1  0
 18 16  1  0
 19 18  1  0
 20 19  1  0
 21 20  1  0
 21 22  1  0
 22 17  1  0
  1 23  1  0
  3 24  1  0
  5 25  1  0
  9 26  1  0
 10 27  1  0
 11 28  1  0
 14 29  1  0
 17 30  1  0
 18 31  1  6
 19 32  1  0
 19 33  1  0
 21 34  1  0
 21 35  1  0
 22 36  1  1
 37 38  2  0
 38 39  1  0
 39 40  1  0
 39 41  2  0
 41 42  1  0
 42 43  2  0
 43 37  1  0
 38 44  1  0
 42 45  1  0
 22 37  1  0
M  ISO  8  23  14  24  14  25   9  26  14  27  14  28  14  29  14  30   5
M  ISO  7  31  13  32  13  33  13  34  13  35  13  36  13  40  14
M  END
>  <DihAtoms>  (1) 
20,21,36,37

>  <DihDeg>  (1) 
-3.7048688449590133

$$$$
