
 OpenBabel03272508023D

 26 28  0  0  0  0  0  0  0  0999 V2000
   38.8970   31.1100   45.7110 C   0  0  0  0  0  0  0  0  0  0  0  0
   39.9650   31.9510   45.8750 C   0  0  0  0  0  0  0  0  0  0  0  0
   40.8010   31.8790   44.7660 C   0  0  0  0  0  0  0  0  0  0  0  0
   40.1940   30.9780   43.9570 N   0  0  0  0  0  0  0  0  0  0  0  0
   39.0890   30.5350   44.5100 N   0  0  0  0  0  0  0  0  0  0  0  0
   40.1550   32.5860   46.7270 H   0  0  0  0  0  0  0  0  0  0  0  0
   41.7240   32.3920   44.5440 H   0  0  0  0  0  0  0  0  0  0  0  0
   37.7790   30.8670   46.6210 C   0  0  0  0  0  0  0  0  0  0  0  0
   38.0140   31.1000   48.0100 C   0  0  0  0  0  0  0  0  0  0  0  0
   36.9550   30.8710   48.8860 C   0  0  0  0  0  0  0  0  0  0  0  0
   35.7740   30.4450   48.3760 N   0  0  0  0  0  0  0  0  0  0  0  0
   35.5800   30.2340   47.0530 C   0  0  0  0  0  0  0  0  0  0  0  0
   36.5990   30.4520   46.1990 N   0  0  0  0  0  0  0  0  0  0  0  0
   38.9880   31.4390   48.3210 H   0  0  0  0  0  0  0  0  0  0  0  0
   34.6250   29.8930   46.6720 H   0  0  0  0  0  0  0  0  0  0  0  0
   37.1690   31.1050   50.3420 C   0  0  0  0  0  0  0  0  0  0  0  0
   36.6720   32.3650   50.5890 F   0  0  0  0  0  0  0  0  0  0  0  0
   36.5030   30.1890   51.1330 F   0  0  0  0  0  0  0  0  0  0  0  0
   38.5220   31.1260   50.6730 F   0  0  0  0  0  0  0  0  0  0  0  0
   40.5900   30.4990   42.6770 C   0  0  0  0  0  0  0  0  0  0  0  0
   40.2110   31.1820   41.5160 C   0  0  0  0  0  3  0  0  0  0  0  0
   40.5420   30.8000   40.2320 C   0  0  0  0  0  0  0  0  0  0  0  0
   40.1830   31.4220   39.4230 H   0  0  0  0  0  0  0  0  0  0  0  0
   41.2840   29.6840   40.1270 N   0  0  0  0  0  0  0  0  0  0  0  0
   41.6720   28.9920   41.2210 C   0  0  0  0  0  3  0  0  0  0  0  0
   41.3290   29.3950   42.4770 N   0  0  0  0  0  0  0  0  0  0  0  0
  1  2  1  0  0  0  0
  1  8  1  0  0  0  0
  2  6  1  0  0  0  0
  3  2  2  0  0  0  0
  4  5  1  0  0  0  0
  4  3  1  0  0  0  0
  5  1  2  0  0  0  0
  7  3  1  0  0  0  0
  8  9  1  0  0  0  0
  9 14  1  0  0  0  0
  9 10  2  0  0  0  0
 10 16  1  0  0  0  0
 11 10  1  0  0  0  0
 12 11  2  0  0  0  0
 13  8  2  0  0  0  0
 13 12  1  0  0  0  0
 15 12  1  0  0  0  0
 16 17  1  0  0  0  0
 16 19  1  0  0  0  0
 16 18  1  0  0  0  0
 20  4  1  0  0  0  0
 21 20  2  0  0  0  0
 22 21  1  0  0  0  0
 23 22  1  0  0  0  0
 24 22  2  0  0  0  0
 24 25  1  0  0  0  0
 25 26  2  0  0  0  0
 26 20  1  0  0  0  0
M  END
>  <minimizedAffinity>
-6.12423134

>  <minimizedRMSD>
0.954695404

$$$$
