REMARK  Name = 
REMARK  3 active torsions:
REMARK  status: ('A' for Active; 'I' for Inactive)
REMARK    1  A    between atoms: C_3  and  C_12
REMARK    2  A    between atoms: C_5  and  C_14
REMARK    3  A    between atoms: C_18  and  C_28
REMARK                            x       y       z     vdW  Elec       q    Type
REMARK                         _______ _______ _______ _____ _____    ______ ____
ROOT
ATOM      1 BR   UNL     1      37.313  29.336  51.024  0.00  0.00    +0.000 Br
ATOM      2  C   UNL     1      35.960  29.325  49.679  0.00  0.00    +0.000 A 
ATOM      3  C   UNL     1      35.998  30.254  48.644  0.00  0.00    +0.000 A 
ATOM      4  C   UNL     1      34.985  30.190  47.701  0.00  0.00    +0.000 A 
ATOM      5  C   UNL     1      33.961  29.264  47.743  0.00  0.00    +0.000 A 
ATOM      6  C   UNL     1      33.965  28.369  48.782  0.00  0.00    +0.000 A 
ATOM      7  C   UNL     1      34.959  28.411  49.731  0.00  0.00    +0.000 A 
ATOM      8  H   UNL     1      34.955  30.883  46.870  0.00  0.00    +0.000 HD
ATOM      9  H   UNL     1      33.186  27.616  48.870  0.00  0.00    +0.000 HD
ATOM     10  H   UNL     1      34.952  27.697  50.548  0.00  0.00    +0.000 HD
ENDROOT
BRANCH   3  15
ATOM     11  C   UNL     1      37.983  33.197  49.470  0.00  0.00    +0.000 A 
ATOM     12  C   UNL     1      39.016  33.181  48.477  0.00  0.00    +0.000 A 
ATOM     13  C   UNL     1      39.001  32.147  47.543  0.00  0.00    +0.000 A 
ATOM     14  N   UNL     1      38.012  31.205  47.612  0.00  0.00    +0.000 NA
ATOM     15  C   UNL     1      37.056  31.248  48.556  0.00  0.00    +0.000 A 
ATOM     16  N   UNL     1      37.055  32.243  49.471  0.00  0.00    +0.000 NA
ATOM     17  H   UNL     1      38.002  34.002  50.191  0.00  0.00    +0.000 HD
ATOM     18  H   UNL     1      39.791  33.931  48.434  0.00  0.00    +0.000 HD
ATOM     19  H   UNL     1      39.745  32.063  46.762  0.00  0.00    +0.000 HD
ENDBRANCH   3  15
BRANCH   5  20
ATOM     20  C   UNL     1      32.906  29.199  46.759  0.00  0.00    +0.000 A 
ATOM     21  C   UNL     1      32.258  28.054  46.371  0.00  0.00    +0.000 A 
ATOM     22  C   UNL     1      31.251  28.026  45.426  0.00  0.00    +0.000 A 
ATOM     23  N   UNL     1      30.874  29.181  44.844  0.00  0.00    +0.000 NA
ATOM     24  C   UNL     1      31.499  30.316  45.214  0.00  0.00    +0.000 A 
ATOM     25  N   UNL     1      32.463  30.301  46.128  0.00  0.00    +0.000 NA
ATOM     26  H   UNL     1      32.559  27.104  46.839  0.00  0.00    +0.000 HD
ATOM     27  H   UNL     1      30.778  27.071  45.165  0.00  0.00    +0.000 HD
BRANCH  24  28
ATOM     28  C   UNL     1      31.105  31.577  44.597  0.00  0.00    +0.000 A 
ATOM     29  C   UNL     1      31.488  32.781  45.151  0.00  0.00    +0.000 A 
ATOM     30  C   UNL     1      31.117  33.977  44.571  0.00  0.00    +0.000 A 
ATOM     31  H   UNL     1      31.488  34.834  45.112  0.00  0.00    +0.000 HD
ATOM     32  N   UNL     1      30.370  33.976  43.446  0.00  0.00    +0.000 NA
ATOM     33  C   UNL     1      29.987  32.795  42.890  0.00  0.00    +0.000 A 
ATOM     34  N   UNL     1      30.362  31.627  43.477  0.00  0.00    +0.000 NA
ENDBRANCH  24  28
ENDBRANCH   5  20
TORSDOF 3
