
 OpenBabel03272510273D

 43 47  0  0  1  0  0  0  0  0999 V2000
   36.1420   30.2010   46.7900 C   0  0  0  0  0  0  0  0  0  0  0  0
   37.0380   30.7720   47.6940 C   0  0  0  0  0  0  0  0  0  0  0  0
   38.0280   31.6500   47.2680 C   0  0  0  0  0  0  0  0  0  0  0  0
   38.0700   31.9220   45.9050 C   0  0  0  0  0  0  0  0  0  0  0  0
   38.9450   32.7400   45.2510 N   0  0  0  0  0  0  0  0  0  0  0  0
   38.6120   32.6930   43.9530 C   0  0  0  0  0  0  0  0  0  0  0  0
   37.5850   31.8910   43.7800 N   0  0  0  0  0  0  0  0  0  0  0  0
   37.2090   31.3840   44.9790 C   0  0  0  0  0  0  0  0  0  0  0  0
   36.2210   30.5010   45.4340 C   0  0  0  0  0  0  0  0  0  0  0  0
   35.3670   29.5190   47.0900 H   0  0  0  0  0  0  0  0  0  0  0  0
   38.7140   32.0840   47.9790 H   0  0  0  0  0  0  0  0  0  0  0  0
   39.7240   33.2930   45.7060 H   0  0  0  0  0  0  0  0  0  0  0  0
   35.5540   30.0910   44.6860 H   0  0  0  0  0  0  0  0  0  0  0  0
   37.5780   30.2540   51.3710 C   0  0  0  0  0  0  0  0  0  0  0  0
   37.8170   30.6690   50.0740 C   0  0  0  0  0  0  0  0  0  0  0  0
   36.8830   30.3890   49.0830 C   0  0  0  0  0  0  0  0  0  0  0  0
   35.7550   29.7060   49.4440 N   0  0  0  0  0  0  0  0  0  0  0  0
   35.5340   29.3060   50.7220 C   0  0  0  0  0  0  0  0  0  0  0  0
   36.4240   29.5740   51.6540 N   0  0  0  0  0  0  0  0  0  0  0  0
   38.2850   30.4620   52.1380 H   0  0  0  0  0  0  0  0  0  0  0  0
   38.7120   31.2100   49.7920 H   0  0  0  0  0  0  0  0  0  0  0  0
   34.6020   28.7600   50.9330 H   0  0  0  0  0  0  0  0  0  0  0  0
   39.3150   33.4280   42.9830 O   0  0  0  0  0  0  0  0  0  0  0  0
   38.8990   31.6430   41.6210 N   0  0  0  0  0  0  0  0  0  0  0  0
   39.0090   33.1140   41.6310 C   0  0  1  0  0  0  0  0  0  0  0  0
   37.7380   33.6840   41.2030 C   0  0  0  0  0  0  0  0  0  0  0  0
   37.5100   33.3210   39.8640 O   0  0  0  0  0  0  0  0  0  0  0  0
   37.5440   31.9770   39.6140 C   0  0  0  0  0  0  0  0  0  0  0  0
   38.7180   31.2820   40.2300 C   0  0  1  0  0  0  0  0  0  0  0  0
   39.8370   31.2990   41.9290 H   0  0  0  0  0  0  0  0  0  0  0  0
   39.8070   33.4540   40.9610 H   0  0  0  0  0  0  0  0  0  0  0  0
   36.8040   33.5200   41.6680 H   0  0  0  0  0  0  0  0  0  0  0  0
   37.8750   34.8060   41.1410 H   0  0  0  0  0  0  0  0  0  0  0  0
   36.6210   31.5400   40.0720 H   0  0  0  0  0  0  0  0  0  0  0  0
   37.5650   31.8420   38.5220 H   0  0  0  0  0  0  0  0  0  0  0  0
   38.4320   30.1890   40.2620 H   0  0  0  0  0  0  0  0  0  0  0  0
   39.9620   31.3400   39.4600 C   0  0  0  0  0  0  0  0  0  0  0  0
   40.2740   31.9670   38.2890 C   0  0  0  0  0  3  0  0  0  0  0  0
   41.5360   31.8820   37.7360 C   0  0  0  0  0  0  0  0  0  0  0  0
   41.6580   32.4270   36.8010 H   0  0  0  0  0  0  0  0  0  0  0  0
   42.5270   31.1680   38.3380 N   0  0  0  0  0  0  0  0  0  0  0  0
   42.1910   30.5600   39.4920 C   0  0  0  0  0  3  0  0  0  0  0  0
   40.9540   30.6220   40.0670 N   0  0  0  0  0  0  0  0  0  0  0  0
  1 10  1  0  0  0  0
  1  2  1  0  0  0  0
  2 16  1  0  0  0  0
  3  2  2  0  0  0  0
  3 11  1  0  0  0  0
  4  3  1  0  0  0  0
  5 12  1  0  0  0  0
  5  4  1  0  0  0  0
  6  5  1  0  0  0  0
  7  6  2  0  0  0  0
  7  8  1  0  0  0  0
  8  9  1  0  0  0  0
  8  4  2  0  0  0  0
  9  1  2  0  0  0  0
 13  9  1  0  0  0  0
 14 19  1  0  0  0  0
 14 20  1  0  0  0  0
 15 14  2  0  0  0  0
 16 17  2  0  0  0  0
 16 15  1  0  0  0  0
 17 18  1  0  0  0  0
 18 22  1  0  0  0  0
 18 19  2  0  0  0  0
 21 15  1  0  0  0  0
 23  6  1  0  0  0  0
 24 25  1  0  0  0  0
 24 30  1  0  0  0  0
 25 31  1  6  0  0  0
 25 23  1  0  0  0  0
 26 25  1  0  0  0  0
 26 32  1  0  0  0  0
 27 26  1  0  0  0  0
 28 27  1  0  0  0  0
 28 34  1  0  0  0  0
 28 29  1  0  0  0  0
 29 36  1  1  0  0  0
 29 24  1  0  0  0  0
 33 26  1  0  0  0  0
 35 28  1  0  0  0  0
 37 43  1  0  0  0  0
 37 29  1  0  0  0  0
 38 37  2  0  0  0  0
 39 38  1  0  0  0  0
 39 41  2  0  0  0  0
 40 39  1  0  0  0  0
 41 42  1  0  0  0  0
 42 43  2  0  0  0  0
M  END
>  <minimizedAffinity>
-5.86901665

>  <minimizedRMSD>
0.740442693

$$$$
