REMARK  Name = 
REMARK  2 active torsions:
REMARK  status: ('A' for Active; 'I' for Inactive)
REMARK    1  A    between atoms: C_2  and  O_7
REMARK    2  A    between atoms: O_7  and  C_11
REMARK                            x       y       z     vdW  Elec       q    Type
REMARK                         _______ _______ _______ _____ _____    ______ ____
ROOT
ATOM      1  C   UNL     1      36.892  29.892  51.312  0.00  0.00    +0.000 A 
ATOM      2  C   UNL     1      37.590  30.225  50.135  0.00  0.00    +0.000 A 
ATOM      3  C   UNL     1      37.007  29.878  48.928  0.00  0.00    +0.000 A 
ATOM      4  N   UNL     1      35.805  29.242  48.922  0.00  0.00    +0.000 NA
ATOM      5  C   UNL     1      35.168  28.940  50.079  0.00  0.00    +0.000 A 
ATOM      6  N   UNL     1      35.693  29.256  51.277  0.00  0.00    +0.000 NA
ATOM      7  H   UNL     1      37.272  30.124  52.302  0.00  0.00    +0.000 HD
ATOM      8  H   UNL     1      37.572  30.151  48.077  0.00  0.00    +0.000 HD
ATOM      9  H   UNL     1      34.216  28.432  49.946  0.00  0.00    +0.000 HD
ENDROOT
BRANCH   2  10
ATOM     10  O   UNL     1      38.785  30.864  50.354  0.00  0.00    +0.000 OA
BRANCH  10  11
ATOM     11  C   UNL     1      38.937  32.249  50.449  0.00  0.00    +0.000 A 
ATOM     12  C   UNL     1      38.006  33.199  50.058  0.00  0.00    +0.000 A 
ATOM     13  C   UNL     1      38.303  34.540  50.215  0.00  0.00    +0.000 A 
ATOM     14  H   UNL     1      37.569  35.270  49.907  0.00  0.00    +0.000 HD
ATOM     15  N   UNL     1      39.480  34.923  50.742  0.00  0.00    +0.000 NA
ATOM     16  C   UNL     1      40.341  33.954  51.101  0.00  0.00    +0.000 A 
ATOM     17  N   UNL     1      40.115  32.631  50.975  0.00  0.00    +0.000 NA
ENDBRANCH  10  11
ENDBRANCH   2  10
TORSDOF 2
