
 OpenBabel03272510043D

 35 37  0  0  0  0  0  0  0  0999 V2000
   37.4410   30.4870   44.9980 C   0  0  0  0  0  0  0  0  0  0  0  0
   36.3180   29.9070   44.4940 C   0  0  0  0  0  0  0  0  0  0  0  0
   36.2610   29.5740   43.1450 C   0  0  0  0  0  0  0  0  0  0  0  0
   37.3100   29.8100   42.2780 C   0  0  0  0  0  0  0  0  0  0  0  0
   38.4540   30.3960   42.7500 C   0  0  0  0  0  0  0  0  0  0  0  0
   38.4780   30.7110   44.0860 C   0  0  0  0  0  0  0  0  0  0  0  0
   35.3420   29.1040   42.7660 H   0  0  0  0  0  0  0  0  0  0  0  0
   37.1570   29.5090   41.2560 H   0  0  0  0  0  0  0  0  0  0  0  0
   39.2240   30.5530   42.0400 H   0  0  0  0  0  0  0  0  0  0  0  0
   39.4410   31.1740   44.3400 H   0  0  0  0  0  0  0  0  0  0  0  0
   33.2160   30.5070   46.3700 C   0  0  0  0  0  0  0  0  0  0  0  0
   34.3360   30.7000   45.5750 C   0  0  0  0  0  0  0  0  0  0  0  0
   35.1750   29.6630   45.3040 C   0  0  0  0  0  0  0  0  0  0  0  0
   34.8590   28.4520   45.8410 N   0  0  0  0  0  0  0  0  0  0  0  0
   33.7760   28.2610   46.6060 C   0  0  0  0  0  0  0  0  0  0  0  0
   32.9650   29.2900   46.8660 N   0  0  0  0  0  0  0  0  0  0  0  0
   32.4600   31.2120   46.6810 H   0  0  0  0  0  0  0  0  0  0  0  0
   34.2780   31.7230   45.2900 H   0  0  0  0  0  0  0  0  0  0  0  0
   33.5170   26.8710   47.0670 C   0  0  0  0  0  0  0  0  0  0  0  0
   32.1680   26.5770   47.0920 F   0  0  0  0  0  0  0  0  0  0  0  0
   34.0170   25.9550   46.0640 F   0  0  0  0  0  0  0  0  0  0  0  0
   34.1160   26.4790   48.1680 F   0  0  0  0  0  0  0  0  0  0  0  0
   37.6440   30.9130   46.6380 S   0  0  0  0  0  0  0  0  0  0  0  0
   37.4230   32.3590   46.8700 O   0  0  0  0  0  0  0  0  0  0  0  0
   39.1580   30.9610   46.6860 O   0  0  0  0  0  0  0  0  0  0  0  0
   37.7430   29.9040   48.0000 C   0  0  0  0  0  0  0  0  0  0  0  0
   37.8430   28.8400   47.5480 H   0  0  0  0  0  0  0  0  0  0  0  0
   38.7020   29.9390   48.5470 H   0  0  0  0  0  0  0  0  0  0  0  0
   36.5380   29.7530   48.7990 C   0  0  0  0  0  0  0  0  0  0  0  0
   35.7910   30.9060   48.9440 C   0  0  0  0  0  3  0  0  0  0  0  0
   34.6040   30.9570   49.6770 C   0  0  0  0  0  0  0  0  0  0  0  0
   34.0230   31.8620   49.7880 H   0  0  0  0  0  0  0  0  0  0  0  0
   34.1510   29.8200   50.2820 N   0  0  0  0  0  0  0  0  0  0  0  0
   34.9110   28.7220   50.1150 C   0  0  0  0  0  3  0  0  0  0  0  0
   36.0730   28.6470   49.4030 N   0  0  0  0  0  0  0  0  0  0  0  0
  1 23  1  0  0  0  0
  2  1  1  0  0  0  0
  2 13  1  0  0  0  0
  3  2  2  0  0  0  0
  4  5  2  0  0  0  0
  4  3  1  0  0  0  0
  5  6  1  0  0  0  0
  6 10  1  0  0  0  0
  6  1  2  0  0  0  0
  7  3  1  0  0  0  0
  8  4  1  0  0  0  0
  9  5  1  0  0  0  0
 11 17  1  0  0  0  0
 11 16  1  0  0  0  0
 12 11  2  0  0  0  0
 13 12  1  0  0  0  0
 13 14  2  0  0  0  0
 14 15  1  0  0  0  0
 15 16  2  0  0  0  0
 15 19  1  0  0  0  0
 18 12  1  0  0  0  0
 19 20  1  0  0  0  0
 19 22  1  0  0  0  0
 21 19  1  0  0  0  0
 23 25  2  0  0  0  0
 23 24  2  0  0  0  0
 23 26  1  0  0  0  0
 26 28  1  0  0  0  0
 26 29  1  0  0  0  0
 27 26  1  0  0  0  0
 29 30  2  0  0  0  0
 29 35  1  0  0  0  0
 30 31  1  0  0  0  0
 31 32  1  0  0  0  0
 31 33  2  0  0  0  0
 34 33  1  0  0  0  0
 35 34  2  0  0  0  0
M  END
>  <minimizedAffinity>
-3.10552788

>  <minimizedRMSD>
6.12888145

$$$$
