
 OpenBabel03272509333D

 39 43  0  0  1  0  0  0  0  0999 V2000
   36.9060   30.7110   44.2100 C   0  0  1  0  0  0  0  0  0  0  0  0
   38.0420   31.6330   44.3870 C   0  0  0  0  0  0  0  0  0  0  0  0
   38.3640   30.1840   44.3420 C   0  0  2  0  0  0  0  0  0  0  0  0
   36.5220   30.4890   43.2280 H   0  0  0  0  0  0  0  0  0  0  0  0
   38.0840   32.3750   43.6060 H   0  0  0  0  0  0  0  0  0  0  0  0
   38.0550   32.1280   45.4090 H   0  0  0  0  0  0  0  0  0  0  0  0
   38.3820   29.4070   45.0880 H   0  0  0  0  0  0  0  0  0  0  0  0
   39.1130   29.8600   43.0990 C   0  0  0  0  0  0  0  0  0  0  0  0
   39.7860   30.9880   42.6190 C   0  0  0  0  0  0  0  0  0  0  0  0
   40.6120   30.9020   41.5180 C   0  0  0  0  0  0  0  0  0  0  0  0
   40.8050   29.6980   40.8510 C   0  0  0  0  0  0  0  0  0  0  0  0
   40.1350   28.5990   41.3380 C   0  0  0  0  0  0  0  0  0  0  0  0
   40.1970   27.3370   40.7940 C   0  0  0  0  0  0  0  0  0  0  0  0
   39.5220   26.2310   41.2640 C   0  0  0  0  0  0  0  0  0  0  0  0
   38.7110   26.3850   42.3740 C   0  0  0  0  0  0  0  0  0  0  0  0
   38.6310   27.6290   42.9340 C   0  0  0  0  0  0  0  0  0  0  0  0
   39.3240   28.7020   42.4280 C   0  0  0  0  0  0  0  0  0  0  0  0
   39.8800   32.0180   42.8880 H   0  0  0  0  0  0  0  0  0  0  0  0
   41.1960   31.6670   41.0260 H   0  0  0  0  0  0  0  0  0  0  0  0
   41.4090   29.4610   39.9830 H   0  0  0  0  0  0  0  0  0  0  0  0
   40.8360   27.1850   39.9100 H   0  0  0  0  0  0  0  0  0  0  0  0
   39.6130   25.2630   40.7900 H   0  0  0  0  0  0  0  0  0  0  0  0
   38.1490   25.5680   42.8050 H   0  0  0  0  0  0  0  0  0  0  0  0
   37.9770   27.7300   43.8200 H   0  0  0  0  0  0  0  0  0  0  0  0
   33.9380   29.7820   46.3420 C   0  0  0  0  0  0  0  0  0  0  0  0
   34.7320   30.0760   45.1950 C   0  0  0  0  0  0  0  0  0  0  0  0
   36.0600   30.3890   45.3770 C   0  0  0  0  0  0  0  0  0  0  0  0
   36.5130   30.3900   46.6580 N   0  0  0  0  0  0  0  0  0  0  0  0
   35.7650   30.1120   47.7370 C   0  0  0  0  0  0  0  0  0  0  0  0
   34.4530   29.8020   47.5750 N   0  0  0  0  0  0  0  0  0  0  0  0
   32.8960   29.5380   46.1880 H   0  0  0  0  0  0  0  0  0  0  0  0
   34.3400   30.0660   44.1920 H   0  0  0  0  0  0  0  0  0  0  0  0
   36.3350   30.1360   49.0780 C   0  0  0  0  0  0  0  0  0  0  0  0
   35.7220   29.4540   50.0960 C   0  0  0  0  0  3  0  0  0  0  0  0
   36.2990   29.5000   51.3700 C   0  0  0  0  0  0  0  0  0  0  0  0
   35.9160   29.0080   52.2530 H   0  0  0  0  0  0  0  0  0  0  0  0
   37.4440   30.2090   51.5790 N   0  0  0  0  0  0  0  0  0  0  0  0
   38.0150   30.8680   50.5460 C   0  0  0  0  0  3  0  0  0  0  0  0
   37.4740   30.8330   49.3190 N   0  0  0  0  0  0  0  0  0  0  0  0
  1  4  1  6  0  0  0
  1  3  1  0  0  0  0
  1  2  1  0  0  0  0
  1 27  1  0  0  0  0
  2  6  1  0  0  0  0
  3  2  1  0  0  0  0
  3  7  1  1  0  0  0
  5  2  1  0  0  0  0
  8  3  1  0  0  0  0
  9 18  1  0  0  0  0
  9  8  1  0  0  0  0
 10  9  2  0  0  0  0
 11 12  2  0  0  0  0
 11 10  1  0  0  0  0
 12 17  1  0  0  0  0
 13 14  2  0  0  0  0
 13 12  1  0  0  0  0
 14 15  1  0  0  0  0
 15 23  1  0  0  0  0
 15 16  2  0  0  0  0
 16 24  1  0  0  0  0
 17 16  1  0  0  0  0
 17  8  2  0  0  0  0
 19 10  1  0  0  0  0
 20 11  1  0  0  0  0
 21 13  1  0  0  0  0
 22 14  1  0  0  0  0
 25 30  1  0  0  0  0
 26 27  1  0  0  0  0
 26 25  2  0  0  0  0
 27 28  2  0  0  0  0
 28 29  1  0  0  0  0
 29 33  1  0  0  0  0
 30 29  2  0  0  0  0
 31 25  1  0  0  0  0
 32 26  1  0  0  0  0
 33 39  2  0  0  0  0
 33 34  1  0  0  0  0
 34 35  2  0  0  0  0
 35 37  1  0  0  0  0
 35 36  1  0  0  0  0
 38 37  2  0  0  0  0
 39 38  1  0  0  0  0
M  END
>  <minimizedAffinity>
-5.65583754

>  <minimizedRMSD>
4.30713177

$$$$
