REMARK  Name = 
REMARK  1 active torsions:
REMARK  status: ('A' for Active; 'I' for Inactive)
REMARK    1  A    between atoms: C_2  and  C_22
REMARK                            x       y       z     vdW  Elec       q    Type
REMARK                         _______ _______ _______ _____ _____    ______ ____
ROOT
ATOM      1  C   UNL     1      38.095  33.145  49.478  0.00  0.00    +0.000 A 
ATOM      2  C   UNL     1      38.937  33.067  48.365  0.00  0.00    +0.000 A 
ATOM      3  C   UNL     1      38.709  32.050  47.440  0.00  0.00    +0.000 A 
ATOM      4  N   UNL     1      37.684  31.195  47.674  0.00  0.00    +0.000 NA
ATOM      5  C   UNL     1      36.885  31.285  48.749  0.00  0.00    +0.000 A 
ATOM      6  N   UNL     1      37.074  32.258  49.669  0.00  0.00    +0.000 NA
ATOM      7  N   UNL     1      35.822  30.333  48.913  0.00  0.00    +0.000 N 
ATOM      8  C   UNL     1      34.746  30.195  47.930  0.00  0.00    +0.000 C 
ATOM      9  C   UNL     1      34.017  28.970  48.362  0.00  0.00    +0.000 C 
ATOM     10  C   UNL     1      34.858  28.321  49.438  0.00  0.00    +0.000 C 
ATOM     11  C   UNL     1      35.675  29.421  50.022  0.00  0.00    +0.000 C 
ATOM     12  H   UNL     1      38.171  33.880  50.254  0.00  0.00    +0.000 HD
ATOM     13  H   UNL     1      39.349  31.983  46.586  0.00  0.00    +0.000 HD
ATOM     14  H   UNL     1      34.078  31.069  48.046  0.00  0.00    +0.000 HD
ATOM     15  H   UNL     1      35.189  30.099  46.916  0.00  0.00    +0.000 HD
ATOM     16  H   UNL     1      34.002  28.244  47.506  0.00  0.00    +0.000 HD
ATOM     17  H   UNL     1      32.989  29.206  48.709  0.00  0.00    +0.000 HD
ATOM     18  H   UNL     1      35.427  27.441  49.090  0.00  0.00    +0.000 HD
ATOM     19  H   UNL     1      34.134  27.940  50.210  0.00  0.00    +0.000 HD
ATOM     20  H   UNL     1      36.703  29.031  50.233  0.00  0.00    +0.000 HD
ATOM     21  H   UNL     1      35.302  29.873  50.941  0.00  0.00    +0.000 HD
ENDROOT
BRANCH   2  22
ATOM     22  C   UNL     1      39.999  34.057  48.247  0.00  0.00    +0.000 A 
ATOM     23  C   UNL     1      39.754  35.410  48.172  0.00  0.00    +0.000 A 
ATOM     24  C   UNL     1      40.798  36.319  48.060  0.00  0.00    +0.000 A 
ATOM     25  H   UNL     1      40.666  37.390  47.998  0.00  0.00    +0.000 HD
ATOM     26  N   UNL     1      42.037  35.849  48.027  0.00  0.00    +0.000 NA
ATOM     27  C   UNL     1      42.254  34.526  48.101  0.00  0.00    +0.000 A 
ATOM     28  N   UNL     1      41.261  33.595  48.212  0.00  0.00    +0.000 NA
ENDBRANCH   2  22
TORSDOF 1
