
     RDKit          3D

 24 25  0  0  0  0  0  0  0  0999 V2000
   37.4362   30.3132   51.3874 C   0  0  0  0  0  0  0  0  0  0  0  0
   38.1250   30.8808   50.2672 C   0  0  0  0  0  0  0  0  0  0  0  0
   37.7238   30.4893   48.9842 C   0  0  0  0  0  0  0  0  0  0  0  0
   36.7084   29.5972   48.8714 N   0  0  0  0  0  0  0  0  0  0  0  0
   36.0776   29.0789   49.9451 C   0  0  0  0  0  0  0  0  0  0  0  0
   36.4408   29.4361   51.1954 N   0  0  0  0  0  0  0  0  0  0  0  0
   35.0701   28.1863   49.5956 O   0  0  0  0  0  0  0  0  0  0  0  0
   32.5184   28.0758   49.0440 O   0  0  0  0  0  0  0  0  0  0  0  0
   33.8481   28.5039   48.4600 P   0  0  2  0  0  0  0  0  0  0  0  0
   34.0640   27.5832   47.0495 O   0  0  0  0  0  0  0  0  0  0  0  0
   33.7328   30.1163   48.0422 O   0  0  0  0  0  0  0  0  0  0  0  0
   37.7246   30.5972   52.3916 H   0  0  0  0  0  0  0  0  0  0  0  0
   38.9308   31.5913   50.4397 H   0  0  0  0  0  0  0  0  0  0  0  0
   38.2333   30.9079   48.1179 H   0  0  0  0  0  0  0  0  0  0  0  0
   34.1502   26.6151   47.2969 H   0  0  0  0  0  0  0  0  0  0  0  0
   33.1669   30.6396   46.8964 C   0  0  0  0  0  0  0  0  0  0  0  0
   33.7096   30.9256   45.6608 C   0  0  0  0  0  0  0  0  0  0  0  0
   32.9080   31.4526   44.6730 C   0  0  0  0  0  0  0  0  0  0  0  0
   33.4253   31.6448   43.7336 H   0  0  0  0  0  0  0  0  0  0  0  0
   31.6258   31.6768   44.9251 N   0  0  0  0  0  0  0  0  0  0  0  0
   31.0684   31.4116   46.1095 C   0  0  0  0  0  0  0  0  0  0  0  0
   31.8393   30.8949   47.0892 N   0  0  0  0  0  0  0  0  0  0  0  0
   34.7585   30.6858   45.6210 H   0  0  0  0  0  0  0  0  0  0  0  0
   30.0160   31.6203   46.2437 H   0  0  0  0  0  0  0  0  0  0  0  0
  2  1  2  0
  3  2  1  0
  4  3  2  0
  4  5  1  0
  5  6  2  0
  6  1  1  0
  7  5  1  0
  9  8  2  0
  9  7  1  1
 10  9  1  0
 11  9  1  0
  1 12  1  0
  2 13  1  0
  3 14  1  0
 10 15  1  0
 16 17  2  0
 17 18  1  0
 18 19  1  0
 18 20  2  0
 20 21  1  0
 21 22  2  0
 22 16  1  0
 17 23  1  0
 21 24  1  0
 11 16  1  0
M  ISO  5  12  14  13  14  14  14  15   3  19  14
M  END
>  <DihAtoms>  (1) 
8,10,15,16

>  <DihDeg>  (1) 
0.03619271708580737

$$$$
