
 OpenBabel03272508133D

 32 34  0  0  0  0  0  0  0  0999 V2000
   38.0720   23.0650   33.2550 Cl  0  0  0  0  0  0  0  0  0  0  0  0
   37.0200   24.1990   32.4060 C   0  0  0  0  0  0  0  0  0  0  0  0
   37.1400   25.5860   32.4960 C   0  0  0  0  0  0  0  0  0  0  0  0
   36.2430   26.3760   31.7770 C   0  0  0  0  0  0  0  0  0  0  0  0
   35.2740   25.7810   31.0080 C   0  0  0  0  0  0  0  0  0  0  0  0
   35.1430   24.4370   30.9080 C   0  0  0  0  0  0  0  0  0  0  0  0
   36.0080   23.6490   31.6010 C   0  0  0  0  0  0  0  0  0  0  0  0
   36.4140   27.4400   31.9100 H   0  0  0  0  0  0  0  0  0  0  0  0
   34.6430   26.5050   30.5020 H   0  0  0  0  0  0  0  0  0  0  0  0
   34.3480   24.0810   30.2750 H   0  0  0  0  0  0  0  0  0  0  0  0
   35.9090   22.1900   31.5270 C   0  0  0  0  0  0  0  0  0  0  0  0
   35.0250   21.4440   32.2650 C   0  0  0  0  0  3  0  0  0  0  0  0
   34.9000   20.0860   32.2280 C   0  0  0  0  0  0  0  0  0  0  0  0
   34.1930   19.5210   32.8220 H   0  0  0  0  0  0  0  0  0  0  0  0
   35.7220   19.4010   31.3820 N   0  0  0  0  0  0  0  0  0  0  0  0
   36.6050   20.1030   30.6400 C   0  0  0  0  0  3  0  0  0  0  0  0
   36.6880   21.4500   30.7170 N   0  0  0  0  0  0  0  0  0  0  0  0
   38.1670   25.9670   33.3140 O   0  0  0  0  0  0  0  0  0  0  0  0
   39.4620   27.1280   35.2160 O   0  0  0  0  0  0  0  0  0  0  0  0
   38.1200   26.5970   34.8610 P   0  0  1  0  0  0  0  0  0  0  0  0
   36.9970   27.8820   34.7740 O   0  0  0  0  0  0  0  0  0  0  0  0
   37.5020   28.7440   34.7910 H   0  0  0  0  0  0  0  0  0  0  0  0
   37.5560   25.4180   35.9270 O   0  0  0  0  0  0  0  0  0  0  0  0
   38.8390   23.3310   38.6770 C   0  0  0  0  0  0  0  0  0  0  0  0
   37.9850   24.2540   38.0470 C   0  0  0  0  0  0  0  0  0  0  0  0
   38.2330   24.5730   36.7150 C   0  0  0  0  0  0  0  0  0  0  0  0
   39.2980   23.9700   36.0920 N   0  0  0  0  0  0  0  0  0  0  0  0
   40.0810   23.0980   36.7350 C   0  0  0  0  0  0  0  0  0  0  0  0
   39.8650   22.7700   38.0190 N   0  0  0  0  0  0  0  0  0  0  0  0
   38.5800   23.1320   39.7190 H   0  0  0  0  0  0  0  0  0  0  0  0
   37.1590   24.7410   38.4820 H   0  0  0  0  0  0  0  0  0  0  0  0
   40.9290   22.6140   36.2470 H   0  0  0  0  0  0  0  0  0  0  0  0
  2  3  1  0  0  0  0
  2  1  1  0  0  0  0
  3 18  1  0  0  0  0
  4  8  1  0  0  0  0
  4  3  2  0  0  0  0
  5  4  1  0  0  0  0
  6  5  2  0  0  0  0
  6  7  1  0  0  0  0
  7  2  2  0  0  0  0
  9  5  1  0  0  0  0
 10  6  1  0  0  0  0
 11  7  1  0  0  0  0
 11 12  1  0  0  0  0
 13 12  2  0  0  0  0
 13 14  1  0  0  0  0
 15 13  1  0  0  0  0
 16 17  1  0  0  0  0
 16 15  2  0  0  0  0
 17 11  2  0  0  0  0
 18 20  1  0  0  0  0
 20 19  2  1  0  0  0
 20 23  1  0  0  0  0
 21 22  1  0  0  0  0
 21 20  1  0  0  0  0
 23 26  1  0  0  0  0
 24 30  1  0  0  0  0
 25 31  1  0  0  0  0
 25 24  1  0  0  0  0
 26 25  2  0  0  0  0
 27 26  1  0  0  0  0
 27 28  2  0  0  0  0
 28 29  1  0  0  0  0
 29 24  2  0  0  0  0
 32 28  1  0  0  0  0
M  END
>  <minimizedAffinity>
-6.03608704

$$$$

 OpenBabel03272508133D

 32 34  0  0  0  0  0  0  0  0999 V2000
   38.2450   22.4940   33.2790 Cl  0  0  0  0  0  0  0  0  0  0  0  0
   37.2620   23.7410   32.5090 C   0  0  0  0  0  0  0  0  0  0  0  0
   37.4910   25.1090   32.6520 C   0  0  0  0  0  0  0  0  0  0  0  0
   36.6400   25.9960   31.9930 C   0  0  0  0  0  0  0  0  0  0  0  0
   35.6080   25.5110   31.2280 C   0  0  0  0  0  0  0  0  0  0  0  0
   35.3710   24.1860   31.0770 C   0  0  0  0  0  0  0  0  0  0  0  0
   36.1900   23.3050   31.7110 C   0  0  0  0  0  0  0  0  0  0  0  0
   36.8970   27.0360   32.1640 H   0  0  0  0  0  0  0  0  0  0  0  0
   35.0230   26.3020   30.7720 H   0  0  0  0  0  0  0  0  0  0  0  0
   34.5350   23.9190   30.4530 H   0  0  0  0  0  0  0  0  0  0  0  0
   35.9770   21.8620   31.5800 C   0  0  0  0  0  0  0  0  0  0  0  0
   35.0480   21.1570   32.3020 C   0  0  0  0  0  3  0  0  0  0  0  0
   34.8170   19.8150   32.2120 C   0  0  0  0  0  0  0  0  0  0  0  0
   34.0770   19.2820   32.7950 H   0  0  0  0  0  0  0  0  0  0  0  0
   35.5720   19.1050   31.3250 N   0  0  0  0  0  0  0  0  0  0  0  0
   36.4970   19.7660   30.5970 C   0  0  0  0  0  3  0  0  0  0  0  0
   36.6850   21.0990   30.7270 N   0  0  0  0  0  0  0  0  0  0  0  0
   38.5660   25.3750   33.4550 O   0  0  0  0  0  0  0  0  0  0  0  0
   39.6420   26.9130   35.2210 O   0  0  0  0  0  0  0  0  0  0  0  0
   38.6080   25.8590   35.0540 P   0  0  1  0  0  0  0  0  0  0  0  0
   37.0590   26.5190   35.3500 O   0  0  0  0  0  0  0  0  0  0  0  0
   37.1440   27.5140   35.3880 H   0  0  0  0  0  0  0  0  0  0  0  0
   38.8500   24.5110   36.0390 O   0  0  0  0  0  0  0  0  0  0  0  0
   42.0600   22.7410   35.6780 C   0  0  0  0  0  0  0  0  0  0  0  0
   41.0570   23.6730   35.3590 C   0  0  0  0  0  0  0  0  0  0  0  0
   39.9190   23.7120   36.1590 C   0  0  0  0  0  0  0  0  0  0  0  0
   39.8380   22.8360   37.2130 N   0  0  0  0  0  0  0  0  0  0  0  0
   40.8190   21.9670   37.4760 C   0  0  0  0  0  0  0  0  0  0  0  0
   41.9290   21.9080   36.7230 N   0  0  0  0  0  0  0  0  0  0  0  0
   42.9200   22.7720   35.0070 H   0  0  0  0  0  0  0  0  0  0  0  0
   41.0740   24.3630   34.5630 H   0  0  0  0  0  0  0  0  0  0  0  0
   40.7630   21.2680   38.3130 H   0  0  0  0  0  0  0  0  0  0  0  0
  2  3  1  0  0  0  0
  2  1  1  0  0  0  0
  3 18  1  0  0  0  0
  4  8  1  0  0  0  0
  4  3  2  0  0  0  0
  5  4  1  0  0  0  0
  6  5  2  0  0  0  0
  6  7  1  0  0  0  0
  7  2  2  0  0  0  0
  9  5  1  0  0  0  0
 10  6  1  0  0  0  0
 11  7  1  0  0  0  0
 11 12  1  0  0  0  0
 13 12  2  0  0  0  0
 13 14  1  0  0  0  0
 15 13  1  0  0  0  0
 16 17  1  0  0  0  0
 16 15  2  0  0  0  0
 17 11  2  0  0  0  0
 18 20  1  0  0  0  0
 20 19  2  1  0  0  0
 20 21  1  0  0  0  0
 20 23  1  0  0  0  0
 21 22  1  0  0  0  0
 23 26  1  0  0  0  0
 24 29  1  0  0  0  0
 25 24  2  0  0  0  0
 25 26  1  0  0  0  0
 26 27  2  0  0  0  0
 27 28  1  0  0  0  0
 28 32  1  0  0  0  0
 29 28  2  0  0  0  0
 30 24  1  0  0  0  0
 31 25  1  0  0  0  0
M  END
>  <minimizedAffinity>
-5.42129183

$$$$

 OpenBabel03272508133D

 32 34  0  0  0  0  0  0  0  0999 V2000
   38.5440   26.5780   32.6090 Cl  0  0  0  0  0  0  0  0  0  0  0  0
   37.2700   25.4860   32.0630 C   0  0  0  0  0  0  0  0  0  0  0  0
   37.3380   24.0970   32.1720 C   0  0  0  0  0  0  0  0  0  0  0  0
   36.2650   23.3420   31.7000 C   0  0  0  0  0  0  0  0  0  0  0  0
   35.1780   23.9730   31.1460 C   0  0  0  0  0  0  0  0  0  0  0  0
   35.0940   25.3200   31.0330 C   0  0  0  0  0  0  0  0  0  0  0  0
   36.1300   26.0740   31.4880 C   0  0  0  0  0  0  0  0  0  0  0  0
   36.4090   22.2740   31.8270 H   0  0  0  0  0  0  0  0  0  0  0  0
   34.4150   23.2740   30.8190 H   0  0  0  0  0  0  0  0  0  0  0  0
   34.1950   25.7060   30.5840 H   0  0  0  0  0  0  0  0  0  0  0  0
   36.0880   27.5340   31.3900 C   0  0  0  0  0  0  0  0  0  0  0  0
   35.5310   28.3500   32.3420 C   0  0  0  0  0  3  0  0  0  0  0  0
   35.4700   29.7120   32.2910 C   0  0  0  0  0  0  0  0  0  0  0  0
   35.0240   30.3320   33.0570 H   0  0  0  0  0  0  0  0  0  0  0  0
   36.0110   30.3250   31.1990 N   0  0  0  0  0  0  0  0  0  0  0  0
   36.5670   29.5540   30.2410 C   0  0  0  0  0  3  0  0  0  0  0  0
   36.6000   28.2060   30.3420 N   0  0  0  0  0  0  0  0  0  0  0  0
   38.5040   23.6780   32.7510 O   0  0  0  0  0  0  0  0  0  0  0  0
   38.6280   21.1190   32.4720 O   0  0  0  0  0  0  0  0  0  0  0  0
   38.8760   22.2070   33.4530 P   0  0  1  0  0  0  0  0  0  0  0  0
   40.5470   22.3010   33.7990 O   0  0  0  0  0  0  0  0  0  0  0  0
   41.0380   21.7370   33.1360 H   0  0  0  0  0  0  0  0  0  0  0  0
   38.0060   22.0370   34.8870 O   0  0  0  0  0  0  0  0  0  0  0  0
   37.8960   23.5480   38.2450 C   0  0  0  0  0  0  0  0  0  0  0  0
   37.3950   23.1370   36.9970 C   0  0  0  0  0  0  0  0  0  0  0  0
   38.2660   22.5060   36.1150 C   0  0  0  0  0  0  0  0  0  0  0  0
   39.5680   22.3200   36.5120 N   0  0  0  0  0  0  0  0  0  0  0  0
   39.9970   22.7290   37.7100 C   0  0  0  0  0  0  0  0  0  0  0  0
   39.1790   23.3400   38.5820 N   0  0  0  0  0  0  0  0  0  0  0  0
   37.1530   24.0350   38.8800 H   0  0  0  0  0  0  0  0  0  0  0  0
   36.4070   23.2570   36.6480 H   0  0  0  0  0  0  0  0  0  0  0  0
   41.0300   22.5850   38.0340 H   0  0  0  0  0  0  0  0  0  0  0  0
  2  3  1  0  0  0  0
  2  1  1  0  0  0  0
  3 18  1  0  0  0  0
  4  8  1  0  0  0  0
  4  3  2  0  0  0  0
  5  4  1  0  0  0  0
  6  5  2  0  0  0  0
  6  7  1  0  0  0  0
  7  2  2  0  0  0  0
  9  5  1  0  0  0  0
 10  6  1  0  0  0  0
 11  7  1  0  0  0  0
 11 12  1  0  0  0  0
 13 12  2  0  0  0  0
 13 14  1  0  0  0  0
 15 13  1  0  0  0  0
 16 17  1  0  0  0  0
 16 15  2  0  0  0  0
 17 11  2  0  0  0  0
 18 20  1  0  0  0  0
 20 19  2  6  0  0  0
 20 21  1  0  0  0  0
 20 23  1  0  0  0  0
 22 21  1  0  0  0  0
 23 26  1  0  0  0  0
 24 29  1  0  0  0  0
 24 30  1  0  0  0  0
 25 24  2  0  0  0  0
 26 27  2  0  0  0  0
 26 25  1  0  0  0  0
 27 28  1  0  0  0  0
 28 32  1  0  0  0  0
 28 29  2  0  0  0  0
 31 25  1  0  0  0  0
M  END
>  <minimizedAffinity>
-5.41261911

$$$$

 OpenBabel03272508133D

 32 34  0  0  0  0  0  0  0  0999 V2000
   36.9370   25.0080   32.6010 Cl  0  0  0  0  0  0  0  0  0  0  0  0
   37.5220   25.7670   34.0830 C   0  0  0  0  0  0  0  0  0  0  0  0
   37.9430   25.0550   35.2060 C   0  0  0  0  0  0  0  0  0  0  0  0
   38.3830   25.7730   36.3180 C   0  0  0  0  0  0  0  0  0  0  0  0
   38.3910   27.1450   36.2860 C   0  0  0  0  0  0  0  0  0  0  0  0
   37.9860   27.8530   35.2040 C   0  0  0  0  0  0  0  0  0  0  0  0
   37.5550   27.1720   34.1090 C   0  0  0  0  0  0  0  0  0  0  0  0
   38.6890   25.1340   37.1400 H   0  0  0  0  0  0  0  0  0  0  0  0
   38.7530   27.5800   37.2120 H   0  0  0  0  0  0  0  0  0  0  0  0
   38.0360   28.9250   35.2890 H   0  0  0  0  0  0  0  0  0  0  0  0
   37.1070   27.8900   32.9140 C   0  0  0  0  0  0  0  0  0  0  0  0
   35.8820   28.4990   32.8010 C   0  0  0  0  0  3  0  0  0  0  0  0
   35.4260   29.1760   31.7080 C   0  0  0  0  0  0  0  0  0  0  0  0
   34.4540   29.6480   31.6450 H   0  0  0  0  0  0  0  0  0  0  0  0
   36.2550   29.2620   30.6280 N   0  0  0  0  0  0  0  0  0  0  0  0
   37.4680   28.6740   30.7040 C   0  0  0  0  0  3  0  0  0  0  0  0
   37.8700   28.0130   31.8130 N   0  0  0  0  0  0  0  0  0  0  0  0
   37.8540   23.7020   35.0280 O   0  0  0  0  0  0  0  0  0  0  0  0
   40.3510   23.2580   34.5710 O   0  0  0  0  0  0  0  0  0  0  0  0
   39.0690   22.5660   34.8650 P   0  0  1  0  0  0  0  0  0  0  0  0
   39.1610   21.8060   36.3920 O   0  0  0  0  0  0  0  0  0  0  0  0
   39.9810   22.1350   36.8580 H   0  0  0  0  0  0  0  0  0  0  0  0
   38.6250   21.4390   33.6920 O   0  0  0  0  0  0  0  0  0  0  0  0
   35.1330   20.7820   32.7200 C   0  0  0  0  0  0  0  0  0  0  0  0
   36.2310   20.8930   33.5900 C   0  0  0  0  0  0  0  0  0  0  0  0
   37.4580   21.2720   33.0540 C   0  0  0  0  0  0  0  0  0  0  0  0
   37.5280   21.5140   31.7040 N   0  0  0  0  0  0  0  0  0  0  0  0
   36.4540   21.3940   30.9170 C   0  0  0  0  0  0  0  0  0  0  0  0
   35.2570   21.0310   31.4070 N   0  0  0  0  0  0  0  0  0  0  0  0
   34.2070   20.4810   33.2140 H   0  0  0  0  0  0  0  0  0  0  0  0
   36.2270   20.7180   34.6300 H   0  0  0  0  0  0  0  0  0  0  0  0
   36.5000   21.5850   29.8430 H   0  0  0  0  0  0  0  0  0  0  0  0
  1  2  1  0  0  0  0
  2  7  2  0  0  0  0
  2  3  1  0  0  0  0
  3  4  2  0  0  0  0
  4  8  1  0  0  0  0
  5  4  1  0  0  0  0
  5  9  1  0  0  0  0
  6 10  1  0  0  0  0
  6  5  2  0  0  0  0
  7  6  1  0  0  0  0
 11  7  1  0  0  0  0
 12 11  1  0  0  0  0
 13 12  2  0  0  0  0
 14 13  1  0  0  0  0
 15 16  2  0  0  0  0
 15 13  1  0  0  0  0
 16 17  1  0  0  0  0
 17 11  2  0  0  0  0
 18  3  1  0  0  0  0
 20 19  2  6  0  0  0
 20 18  1  0  0  0  0
 20 21  1  0  0  0  0
 21 22  1  0  0  0  0
 23 20  1  0  0  0  0
 24 30  1  0  0  0  0
 24 25  1  0  0  0  0
 25 31  1  0  0  0  0
 26 25  2  0  0  0  0
 26 23  1  0  0  0  0
 27 26  1  0  0  0  0
 28 29  1  0  0  0  0
 28 27  2  0  0  0  0
 29 24  2  0  0  0  0
 32 28  1  0  0  0  0
M  END
>  <minimizedAffinity>
-5.32967758

$$$$

 OpenBabel03272508133D

 32 34  0  0  0  0  0  0  0  0999 V2000
   36.5430   28.0690   34.9190 Cl  0  0  0  0  0  0  0  0  0  0  0  0
   36.3360   28.7190   33.2920 C   0  0  0  0  0  0  0  0  0  0  0  0
   36.8680   28.1280   32.1460 C   0  0  0  0  0  0  0  0  0  0  0  0
   36.6360   28.7410   30.9150 C   0  0  0  0  0  0  0  0  0  0  0  0
   35.8990   29.8980   30.8580 C   0  0  0  0  0  0  0  0  0  0  0  0
   35.3740   30.4860   31.9590 C   0  0  0  0  0  0  0  0  0  0  0  0
   35.5890   29.9030   33.1690 C   0  0  0  0  0  0  0  0  0  0  0  0
   37.0880   28.2100   30.0840 H   0  0  0  0  0  0  0  0  0  0  0  0
   35.7930   30.2720   29.8450 H   0  0  0  0  0  0  0  0  0  0  0  0
   34.8120   31.3900   31.7960 H   0  0  0  0  0  0  0  0  0  0  0  0
   35.0430   30.4980   34.3900 C   0  0  0  0  0  0  0  0  0  0  0  0
   35.7420   31.3540   35.2040 C   0  0  0  0  0  3  0  0  0  0  0  0
   35.2730   31.9290   36.3490 C   0  0  0  0  0  0  0  0  0  0  0  0
   35.8470   32.6010   36.9730 H   0  0  0  0  0  0  0  0  0  0  0  0
   33.9950   31.6340   36.7230 N   0  0  0  0  0  0  0  0  0  0  0  0
   33.2770   30.7960   35.9460 C   0  0  0  0  0  3  0  0  0  0  0  0
   33.7920   30.2520   34.8210 N   0  0  0  0  0  0  0  0  0  0  0  0
   37.5670   26.9860   32.4260 O   0  0  0  0  0  0  0  0  0  0  0  0
   35.8550   25.1280   31.9200 O   0  0  0  0  0  0  0  0  0  0  0  0
   37.3110   25.4230   31.8950 P   0  0  1  0  0  0  0  0  0  0  0  0
   37.8730   25.4140   30.2810 O   0  0  0  0  0  0  0  0  0  0  0  0
   37.0810   25.4020   29.6720 H   0  0  0  0  0  0  0  0  0  0  0  0
   38.2320   24.3590   32.8250 O   0  0  0  0  0  0  0  0  0  0  0  0
   38.1470   24.3730   36.5070 C   0  0  0  0  0  0  0  0  0  0  0  0
   38.2710   24.9180   35.2170 C   0  0  0  0  0  0  0  0  0  0  0  0
   38.1490   24.0590   34.1280 C   0  0  0  0  0  0  0  0  0  0  0  0
   37.9150   22.7290   34.3750 N   0  0  0  0  0  0  0  0  0  0  0  0
   37.8050   22.2600   35.6220 C   0  0  0  0  0  0  0  0  0  0  0  0
   37.9170   23.0640   36.6910 N   0  0  0  0  0  0  0  0  0  0  0  0
   38.2540   25.1080   37.3080 H   0  0  0  0  0  0  0  0  0  0  0  0
   38.4500   25.9280   34.9780 H   0  0  0  0  0  0  0  0  0  0  0  0
   37.6180   21.2030   35.8270 H   0  0  0  0  0  0  0  0  0  0  0  0
  2  1  1  0  0  0  0
  3 18  1  0  0  0  0
  3  2  2  0  0  0  0
  4  3  1  0  0  0  0
  5  4  2  0  0  0  0
  5  6  1  0  0  0  0
  6  7  2  0  0  0  0
  7  2  1  0  0  0  0
  7 11  1  0  0  0  0
  8  4  1  0  0  0  0
  9  5  1  0  0  0  0
 10  6  1  0  0  0  0
 11 17  2  0  0  0  0
 11 12  1  0  0  0  0
 12 13  2  0  0  0  0
 13 15  1  0  0  0  0
 13 14  1  0  0  0  0
 16 15  2  0  0  0  0
 17 16  1  0  0  0  0
 20 19  2  1  0  0  0
 20 18  1  0  0  0  0
 20 23  1  0  0  0  0
 21 20  1  0  0  0  0
 22 21  1  0  0  0  0
 23 26  1  0  0  0  0
 24 29  1  0  0  0  0
 24 30  1  0  0  0  0
 25 24  2  0  0  0  0
 26 27  2  0  0  0  0
 26 25  1  0  0  0  0
 27 28  1  0  0  0  0
 28 32  1  0  0  0  0
 28 29  2  0  0  0  0
 31 25  1  0  0  0  0
M  END
>  <minimizedAffinity>
-5.30331993

$$$$

 OpenBabel03272508133D

 32 34  0  0  0  0  0  0  0  0999 V2000
   35.9860   28.7350   34.5050 Cl  0  0  0  0  0  0  0  0  0  0  0  0
   36.6110   28.4960   32.8720 C   0  0  0  0  0  0  0  0  0  0  0  0
   37.5250   27.5000   32.5290 C   0  0  0  0  0  0  0  0  0  0  0  0
   37.9460   27.4170   31.2020 C   0  0  0  0  0  0  0  0  0  0  0  0
   37.4580   28.3040   30.2740 C   0  0  0  0  0  0  0  0  0  0  0  0
   36.5700   29.2770   30.5890 C   0  0  0  0  0  0  0  0  0  0  0  0
   36.1470   29.3750   31.8780 C   0  0  0  0  0  0  0  0  0  0  0  0
   38.6550   26.6130   31.0310 H   0  0  0  0  0  0  0  0  0  0  0  0
   37.8640   28.1320   29.2820 H   0  0  0  0  0  0  0  0  0  0  0  0
   36.2550   29.9150   29.7810 H   0  0  0  0  0  0  0  0  0  0  0  0
   35.1870   30.4080   32.2710 C   0  0  0  0  0  0  0  0  0  0  0  0
   35.5440   31.6710   32.6730 C   0  0  0  0  0  3  0  0  0  0  0  0
   34.6840   32.6620   33.0470 C   0  0  0  0  0  0  0  0  0  0  0  0
   34.9920   33.6510   33.3610 H   0  0  0  0  0  0  0  0  0  0  0  0
   33.3490   32.3810   33.0190 N   0  0  0  0  0  0  0  0  0  0  0  0
   32.9620   31.1480   32.6290 C   0  0  0  0  0  3  0  0  0  0  0  0
   33.8580   30.2020   32.2690 N   0  0  0  0  0  0  0  0  0  0  0  0
   37.8800   26.7280   33.6000 O   0  0  0  0  0  0  0  0  0  0  0  0
   40.3700   27.3860   33.6810 O   0  0  0  0  0  0  0  0  0  0  0  0
   39.3120   26.6940   34.4620 P   0  0  1  0  0  0  0  0  0  0  0  0
   38.9810   27.5730   35.8890 O   0  0  0  0  0  0  0  0  0  0  0  0
   39.4260   28.4650   35.8200 H   0  0  0  0  0  0  0  0  0  0  0  0
   39.6920   25.0980   34.8500 O   0  0  0  0  0  0  0  0  0  0  0  0
   39.7220   22.7520   37.6900 C   0  0  0  0  0  0  0  0  0  0  0  0
   40.1720   23.3340   36.4920 C   0  0  0  0  0  0  0  0  0  0  0  0
   39.4470   24.4000   35.9680 C   0  0  0  0  0  0  0  0  0  0  0  0
   38.3320   24.8230   36.6490 N   0  0  0  0  0  0  0  0  0  0  0  0
   37.9440   24.2350   37.7850 C   0  0  0  0  0  0  0  0  0  0  0  0
   38.6240   23.2050   38.3150 N   0  0  0  0  0  0  0  0  0  0  0  0
   40.3420   21.9230   38.0370 H   0  0  0  0  0  0  0  0  0  0  0  0
   41.0190   23.0460   35.9350 H   0  0  0  0  0  0  0  0  0  0  0  0
   37.0590   24.5650   38.3330 H   0  0  0  0  0  0  0  0  0  0  0  0
  2  1  1  0  0  0  0
  3  2  1  0  0  0  0
  3 18  1  0  0  0  0
  4  3  2  0  0  0  0
  5  6  2  0  0  0  0
  5  4  1  0  0  0  0
  6  7  1  0  0  0  0
  7 11  1  0  0  0  0
  7  2  2  0  0  0  0
  8  4  1  0  0  0  0
  9  5  1  0  0  0  0
 10  6  1  0  0  0  0
 11 12  1  0  0  0  0
 12 13  2  0  0  0  0
 13 14  1  0  0  0  0
 15 13  1  0  0  0  0
 16 15  2  0  0  0  0
 17 11  2  0  0  0  0
 17 16  1  0  0  0  0
 18 20  1  0  0  0  0
 20 19  2  6  0  0  0
 20 23  1  0  0  0  0
 20 21  1  0  0  0  0
 22 21  1  0  0  0  0
 23 26  1  0  0  0  0
 24 30  1  0  0  0  0
 24 29  1  0  0  0  0
 25 24  2  0  0  0  0
 26 25  1  0  0  0  0
 26 27  2  0  0  0  0
 27 28  1  0  0  0  0
 28 29  2  0  0  0  0
 28 32  1  0  0  0  0
 31 25  1  0  0  0  0
M  END
>  <minimizedAffinity>
-5.2827301

$$$$

 OpenBabel03272508133D

 32 34  0  0  0  0  0  0  0  0999 V2000
   40.3500   26.4300   31.9130 Cl  0  0  0  0  0  0  0  0  0  0  0  0
   39.3800   26.8450   33.3270 C   0  0  0  0  0  0  0  0  0  0  0  0
   38.1130   27.4240   33.2570 C   0  0  0  0  0  0  0  0  0  0  0  0
   37.4480   27.7070   34.4500 C   0  0  0  0  0  0  0  0  0  0  0  0
   38.0450   27.4150   35.6510 C   0  0  0  0  0  0  0  0  0  0  0  0
   39.2740   26.8520   35.7380 C   0  0  0  0  0  0  0  0  0  0  0  0
   39.9390   26.5680   34.5870 C   0  0  0  0  0  0  0  0  0  0  0  0
   36.4720   28.1550   34.2940 H   0  0  0  0  0  0  0  0  0  0  0  0
   37.4250   27.6850   36.4990 H   0  0  0  0  0  0  0  0  0  0  0  0
   39.6440   26.6660   36.7320 H   0  0  0  0  0  0  0  0  0  0  0  0
   41.2700   25.9590   34.6260 C   0  0  0  0  0  0  0  0  0  0  0  0
   41.4990   24.6380   34.9200 C   0  0  0  0  0  3  0  0  0  0  0  0
   42.7210   24.0320   34.9680 C   0  0  0  0  0  0  0  0  0  0  0  0
   42.8730   22.9860   35.2030 H   0  0  0  0  0  0  0  0  0  0  0  0
   43.8160   24.7990   34.7000 N   0  0  0  0  0  0  0  0  0  0  0  0
   43.6280   26.1030   34.4070 C   0  0  0  0  0  3  0  0  0  0  0  0
   42.3940   26.6550   34.3740 N   0  0  0  0  0  0  0  0  0  0  0  0
   37.7060   27.6320   31.9680 O   0  0  0  0  0  0  0  0  0  0  0  0
   35.2700   28.4390   31.7450 O   0  0  0  0  0  0  0  0  0  0  0  0
   36.2070   27.3880   31.2710 P   0  0  1  0  0  0  0  0  0  0  0  0
   36.4730   27.5670   29.5930 O   0  0  0  0  0  0  0  0  0  0  0  0
   36.0980   28.4480   29.3070 H   0  0  0  0  0  0  0  0  0  0  0  0
   35.6860   25.8180   31.6020 O   0  0  0  0  0  0  0  0  0  0  0  0
   36.6080   22.2670   31.2740 C   0  0  0  0  0  0  0  0  0  0  0  0
   35.8160   23.3650   31.6530 C   0  0  0  0  0  0  0  0  0  0  0  0
   36.2720   24.6420   31.3390 C   0  0  0  0  0  0  0  0  0  0  0  0
   37.4700   24.7580   30.6770 N   0  0  0  0  0  0  0  0  0  0  0  0
   38.1860   23.6810   30.3380 C   0  0  0  0  0  0  0  0  0  0  0  0
   37.7710   22.4370   30.6270 N   0  0  0  0  0  0  0  0  0  0  0  0
   36.1840   21.3010   31.5550 H   0  0  0  0  0  0  0  0  0  0  0  0
   34.8930   23.3270   32.1610 H   0  0  0  0  0  0  0  0  0  0  0  0
   39.1400   23.7640   29.8110 H   0  0  0  0  0  0  0  0  0  0  0  0
  1  2  1  0  0  0  0
  2  7  1  0  0  0  0
  3  2  2  0  0  0  0
  3  4  1  0  0  0  0
  4  5  2  0  0  0  0
  5  6  1  0  0  0  0
  5  9  1  0  0  0  0
  6 10  1  0  0  0  0
  7 11  1  0  0  0  0
  7  6  2  0  0  0  0
  8  4  1  0  0  0  0
 11 12  1  0  0  0  0
 12 13  2  0  0  0  0
 13 14  1  0  0  0  0
 15 13  1  0  0  0  0
 16 15  2  0  0  0  0
 17 16  1  0  0  0  0
 17 11  2  0  0  0  0
 18  3  1  0  0  0  0
 20 23  1  0  0  0  0
 20 19  2  1  0  0  0
 20 18  1  0  0  0  0
 21 20  1  0  0  0  0
 22 21  1  0  0  0  0
 24 30  1  0  0  0  0
 24 25  1  0  0  0  0
 25 31  1  0  0  0  0
 26 23  1  0  0  0  0
 26 25  2  0  0  0  0
 27 26  1  0  0  0  0
 28 29  1  0  0  0  0
 28 27  2  0  0  0  0
 29 24  2  0  0  0  0
 32 28  1  0  0  0  0
M  END
>  <minimizedAffinity>
-5.27473164

$$$$

 OpenBabel03272508133D

 32 34  0  0  0  0  0  0  0  0999 V2000
   38.0500   27.0470   35.7510 Cl  0  0  0  0  0  0  0  0  0  0  0  0
   37.5420   26.3030   34.2350 C   0  0  0  0  0  0  0  0  0  0  0  0
   36.8530   26.9810   33.2290 C   0  0  0  0  0  0  0  0  0  0  0  0
   36.5050   26.2790   32.0750 C   0  0  0  0  0  0  0  0  0  0  0  0
   36.8420   24.9530   31.9550 C   0  0  0  0  0  0  0  0  0  0  0  0
   37.5120   24.2790   32.9200 C   0  0  0  0  0  0  0  0  0  0  0  0
   37.8610   24.9460   34.0530 C   0  0  0  0  0  0  0  0  0  0  0  0
   35.9720   26.8880   31.3530 H   0  0  0  0  0  0  0  0  0  0  0  0
   36.5140   24.5250   31.0140 H   0  0  0  0  0  0  0  0  0  0  0  0
   37.7250   23.2430   32.7180 H   0  0  0  0  0  0  0  0  0  0  0  0
   38.5860   24.2630   35.1260 C   0  0  0  0  0  0  0  0  0  0  0  0
   39.9320   24.0000   35.0930 C   0  0  0  0  0  3  0  0  0  0  0  0
   40.6460   23.3670   36.0690 C   0  0  0  0  0  0  0  0  0  0  0  0
   41.7090   23.1720   36.0180 H   0  0  0  0  0  0  0  0  0  0  0  0
   39.9680   22.9580   37.1800 N   0  0  0  0  0  0  0  0  0  0  0  0
   38.6410   23.2000   37.2460 C   0  0  0  0  0  3  0  0  0  0  0  0
   37.9830   23.8310   36.2480 N   0  0  0  0  0  0  0  0  0  0  0  0
   36.6170   28.2890   33.5510 O   0  0  0  0  0  0  0  0  0  0  0  0
   36.3110   29.6030   31.3560 O   0  0  0  0  0  0  0  0  0  0  0  0
   35.7470   29.4500   32.7220 P   0  0  1  0  0  0  0  0  0  0  0  0
   34.1620   28.8200   32.6260 O   0  0  0  0  0  0  0  0  0  0  0  0
   34.0050   28.5060   31.6900 H   0  0  0  0  0  0  0  0  0  0  0  0
   35.7380   30.8820   33.6130 O   0  0  0  0  0  0  0  0  0  0  0  0
   34.8400   32.0610   36.9860 C   0  0  0  0  0  0  0  0  0  0  0  0
   35.6570   31.8820   35.8560 C   0  0  0  0  0  0  0  0  0  0  0  0
   35.1410   31.1700   34.7780 C   0  0  0  0  0  0  0  0  0  0  0  0
   33.8620   30.6800   34.8780 N   0  0  0  0  0  0  0  0  0  0  0  0
   33.1240   30.8760   35.9750 C   0  0  0  0  0  0  0  0  0  0  0  0
   33.5950   31.5600   37.0300 N   0  0  0  0  0  0  0  0  0  0  0  0
   35.3140   32.6290   37.7880 H   0  0  0  0  0  0  0  0  0  0  0  0
   36.6420   32.2380   35.7330 H   0  0  0  0  0  0  0  0  0  0  0  0
   32.1050   30.4910   36.0630 H   0  0  0  0  0  0  0  0  0  0  0  0
  2  1  1  0  0  0  0
  3 18  1  0  0  0  0
  3  2  2  0  0  0  0
  4  3  1  0  0  0  0
  5  4  2  0  0  0  0
  5  6  1  0  0  0  0
  6  7  2  0  0  0  0
  7  2  1  0  0  0  0
  7 11  1  0  0  0  0
  8  4  1  0  0  0  0
  9  5  1  0  0  0  0
 10  6  1  0  0  0  0
 11 17  1  0  0  0  0
 12 11  2  0  0  0  0
 12 13  1  0  0  0  0
 13 15  2  0  0  0  0
 14 13  1  0  0  0  0
 15 16  1  0  0  0  0
 17 16  2  0  0  0  0
 20 19  2  6  0  0  0
 20 18  1  0  0  0  0
 20 23  1  0  0  0  0
 21 20  1  0  0  0  0
 22 21  1  0  0  0  0
 23 26  1  0  0  0  0
 24 29  1  0  0  0  0
 24 30  1  0  0  0  0
 25 24  2  0  0  0  0
 26 27  2  0  0  0  0
 26 25  1  0  0  0  0
 27 28  1  0  0  0  0
 28 32  1  0  0  0  0
 28 29  2  0  0  0  0
 31 25  1  0  0  0  0
M  END
>  <minimizedAffinity>
-5.22332001

$$$$

 OpenBabel03272508133D

 32 34  0  0  0  0  0  0  0  0999 V2000
   37.8150   22.9820   34.3430 Cl  0  0  0  0  0  0  0  0  0  0  0  0
   38.5350   24.5840   34.1770 C   0  0  0  0  0  0  0  0  0  0  0  0
   37.9510   25.6270   33.4580 C   0  0  0  0  0  0  0  0  0  0  0  0
   38.6210   26.8490   33.4000 C   0  0  0  0  0  0  0  0  0  0  0  0
   39.8260   26.9970   34.0430 C   0  0  0  0  0  0  0  0  0  0  0  0
   40.4070   25.9960   34.7460 C   0  0  0  0  0  0  0  0  0  0  0  0
   39.7690   24.7980   34.8150 C   0  0  0  0  0  0  0  0  0  0  0  0
   38.0910   27.5970   32.8200 H   0  0  0  0  0  0  0  0  0  0  0  0
   40.2420   27.9920   33.9190 H   0  0  0  0  0  0  0  0  0  0  0  0
   41.3510   26.2250   35.2100 H   0  0  0  0  0  0  0  0  0  0  0  0
   40.3550   23.6830   35.5620 C   0  0  0  0  0  0  0  0  0  0  0  0
   41.3630   22.8860   35.0830 C   0  0  0  0  0  3  0  0  0  0  0  0
   41.9360   21.8390   35.7440 C   0  0  0  0  0  0  0  0  0  0  0  0
   42.7320   21.2250   35.3420 H   0  0  0  0  0  0  0  0  0  0  0  0
   41.4730   21.5550   36.9950 N   0  0  0  0  0  0  0  0  0  0  0  0
   40.4810   22.3200   37.4990 C   0  0  0  0  0  3  0  0  0  0  0  0
   39.9470   23.3460   36.7990 N   0  0  0  0  0  0  0  0  0  0  0  0
   36.7560   25.2680   32.8980 O   0  0  0  0  0  0  0  0  0  0  0  0
   35.5880   26.2630   30.8280 O   0  0  0  0  0  0  0  0  0  0  0  0
   36.3490   25.0730   31.2890 P   0  0  1  0  0  0  0  0  0  0  0  0
   37.8460   24.9930   30.4680 O   0  0  0  0  0  0  0  0  0  0  0  0
   37.9880   25.8580   29.9880 H   0  0  0  0  0  0  0  0  0  0  0  0
   35.5150   23.6200   31.0950 O   0  0  0  0  0  0  0  0  0  0  0  0
   35.6520   20.2480   32.5720 C   0  0  0  0  0  0  0  0  0  0  0  0
   35.1060   21.5130   32.2910 C   0  0  0  0  0  0  0  0  0  0  0  0
   35.8400   22.3810   31.4870 C   0  0  0  0  0  0  0  0  0  0  0  0
   37.0560   21.9530   31.0140 N   0  0  0  0  0  0  0  0  0  0  0  0
   37.5330   20.7400   31.3100 C   0  0  0  0  0  0  0  0  0  0  0  0
   36.8470   19.8820   32.0820 N   0  0  0  0  0  0  0  0  0  0  0  0
   35.0190   19.6270   33.2070 H   0  0  0  0  0  0  0  0  0  0  0  0
   34.1800   21.8850   32.6290 H   0  0  0  0  0  0  0  0  0  0  0  0
   38.4990   20.3920   30.9390 H   0  0  0  0  0  0  0  0  0  0  0  0
  2  1  1  0  0  0  0
  2  7  1  0  0  0  0
  3  2  2  0  0  0  0
  4  3  1  0  0  0  0
  4  5  2  0  0  0  0
  5  6  1  0  0  0  0
  6  7  2  0  0  0  0
  6 10  1  0  0  0  0
  7 11  1  0  0  0  0
  8  4  1  0  0  0  0
  9  5  1  0  0  0  0
 11 17  1  0  0  0  0
 12 11  2  0  0  0  0
 12 13  1  0  0  0  0
 13 15  2  0  0  0  0
 14 13  1  0  0  0  0
 15 16  1  0  0  0  0
 17 16  2  0  0  0  0
 18  3  1  0  0  0  0
 20 19  2  6  0  0  0
 20 18  1  0  0  0  0
 21 20  1  0  0  0  0
 22 21  1  0  0  0  0
 23 20  1  0  0  0  0
 23 26  1  0  0  0  0
 24 30  1  0  0  0  0
 25 24  1  0  0  0  0
 25 31  1  0  0  0  0
 26 25  2  0  0  0  0
 27 28  2  0  0  0  0
 27 26  1  0  0  0  0
 28 29  1  0  0  0  0
 29 24  2  0  0  0  0
 32 28  1  0  0  0  0
M  END
>  <minimizedAffinity>
-5.19630241

$$$$
