
     RDKit          3D

 44 48  0  0  0  0  0  0  0  0999 V2000
   35.8394   28.9147   49.3825 C   0  0  0  0  0  0  0  0  0  0  0  0
   35.8629   30.0834   48.5919 C   0  0  0  0  0  0  0  0  0  0  0  0
   34.7825   30.3040   47.6919 C   0  0  0  0  0  0  0  0  0  0  0  0
   33.7775   29.3859   47.6239 N   0  0  0  0  0  0  0  0  0  0  0  0
   33.8207   28.2838   48.4094 C   0  0  0  0  0  0  0  0  0  0  0  0
   34.8200   28.0521   49.2654 N   0  0  0  0  0  0  0  0  0  0  0  0
   32.7333   27.3395   48.2713 N   0  0  0  0  0  0  0  0  0  0  0  0
   31.3585   27.6463   48.5397 C   0  0  0  0  0  0  0  0  0  0  0  0
   30.6069   26.4480   48.0480 C   0  0  0  0  0  0  0  0  0  0  0  0
   31.5812   25.6207   47.2354 C   0  0  0  0  0  0  0  0  0  0  0  0
   32.8986   25.9412   47.8340 C   0  0  0  0  0  0  0  0  0  0  0  0
   36.8473   31.1064   48.5503 C   0  0  0  0  0  0  0  0  0  0  0  0
   36.7876   32.0130   49.5624 N   0  0  0  0  0  0  0  0  0  0  0  0
   37.6654   33.0312   49.5936 C   0  0  0  0  0  0  0  0  0  0  0  0
   38.6396   33.2383   48.6691 N   0  0  0  0  0  0  0  0  0  0  0  0
   38.7292   32.3567   47.6479 C   0  0  0  0  0  0  0  0  0  0  0  0
   39.6694   32.4904   46.6397 C   0  0  0  0  0  0  0  0  0  0  0  0
   39.7143   31.5738   45.5871 C   0  0  0  0  0  0  0  0  0  0  0  0
   38.7972   30.5154   45.5632 C   0  0  0  0  0  0  0  0  0  0  0  0
   37.8737   30.4201   46.5952 C   0  0  0  0  0  0  0  0  0  0  0  0
   37.8358   31.3209   47.6181 C   0  0  0  0  0  0  0  0  0  0  0  0
   36.6883   28.8199   50.0416 H   0  0  0  0  0  0  0  0  0  0  0  0
   34.7028   31.1574   47.0523 H   0  0  0  0  0  0  0  0  0  0  0  0
   31.1829   27.8947   49.6056 H   0  0  0  0  0  0  0  0  0  0  0  0
   31.0906   28.4982   47.8793 H   0  0  0  0  0  0  0  0  0  0  0  0
   29.7081   26.7250   47.4629 H   0  0  0  0  0  0  0  0  0  0  0  0
   30.2417   25.8868   48.9338 H   0  0  0  0  0  0  0  0  0  0  0  0
   31.3102   24.5573   47.4470 H   0  0  0  0  0  0  0  0  0  0  0  0
   31.4853   25.8399   46.1655 H   0  0  0  0  0  0  0  0  0  0  0  0
   33.1690   25.2967   48.6692 H   0  0  0  0  0  0  0  0  0  0  0  0
   33.7007   25.9157   47.0679 H   0  0  0  0  0  0  0  0  0  0  0  0
   37.6457   33.7764   50.3911 H   0  0  0  0  0  0  0  0  0  0  0  0
   40.3269   33.3312   46.7479 H   0  0  0  0  0  0  0  0  0  0  0  0
   40.4800   31.7698   44.8563 H   0  0  0  0  0  0  0  0  0  0  0  0
   38.9936   29.9272   44.6814 H   0  0  0  0  0  0  0  0  0  0  0  0
   37.1045   29.2358   46.2256 C   0  0  0  0  0  0  0  0  0  0  0  0
   37.3937   28.2326   45.3169 C   0  0  0  0  0  0  0  0  0  0  0  0
   36.6184   27.1775   44.9094 C   0  0  0  0  0  0  0  0  0  0  0  0
   37.0381   26.4986   44.1818 H   0  0  0  0  0  0  0  0  0  0  0  0
   35.4184   27.1756   45.5157 N   0  0  0  0  0  0  0  0  0  0  0  0
   35.0607   28.1134   46.4078 C   0  0  0  0  0  0  0  0  0  0  0  0
   35.8484   29.1309   46.7807 N   0  0  0  0  0  0  0  0  0  0  0  0
   38.3956   28.3552   44.8696 H   0  0  0  0  0  0  0  0  0  0  0  0
   34.0725   28.0470   46.8575 H   0  0  0  0  0  0  0  0  0  0  0  0
  2  1  2  0
  3  2  1  0
  4  3  2  0
  4  5  1  0
  5  6  2  0
  6  1  1  0
  7  5  1  0
  7  8  1  0
  9  8  1  0
 10 11  1  0
 10  9  1  0
 11  7  1  0
 12  2  1  0
 12 13  2  0
 13 14  1  0
 15 14  2  0
 16 15  1  0
 17 16  2  0
 18 17  1  0
 19 18  2  0
 19 20  1  0
 20 21  2  0
 21 16  1  0
 21 12  1  0
  1 22  1  0
  3 23  1  0
  8 24  1  0
  8 25  1  0
  9 26  1  0
  9 27  1  0
 10 28  1  0
 10 29  1  0
 11 30  1  0
 11 31  1  0
 14 32  1  0
 17 33  1  0
 18 34  1  0
 19 35  1  0
 36 37  2  0
 37 38  1  0
 38 39  1  0
 38 40  2  0
 40 41  1  0
 41 42  2  0
 42 36  1  0
 37 43  1  0
 41 44  1  0
 20 36  1  0
M  ISO  8  22  14  23  14  24  13  25  13  26  13  27  13  28  13  29  13
M  ISO  7  30  13  31  13  32  14  33  14  34  14  35  14  39  14
M  END
>  <DihAtoms>  (1) 
18,19,35,36

>  <DihDeg>  (1) 
105.9481137175603

$$$$
