
 OpenBabel03272509503D

 31 33  0  0  0  0  0  0  0  0999 V2000
   34.6800   28.1590   49.7000 O   0  0  0  0  0  0  0  0  0  0  0  0
   37.1690   30.1230   51.4400 C   0  0  0  0  0  0  0  0  0  0  0  0
   37.7670   30.7920   50.3420 C   0  0  0  0  0  0  0  0  0  0  0  0
   37.2740   30.5230   49.0780 C   0  0  0  0  0  0  0  0  0  0  0  0
   36.2490   29.6370   48.9570 N   0  0  0  0  0  0  0  0  0  0  0  0
   35.7050   29.0190   50.0250 C   0  0  0  0  0  0  0  0  0  0  0  0
   36.1740   29.2680   51.2800 N   0  0  0  0  0  0  0  0  0  0  0  0
   37.5760   30.3540   52.4140 H   0  0  0  0  0  0  0  0  0  0  0  0
   38.5810   31.4930   50.4570 H   0  0  0  0  0  0  0  0  0  0  0  0
   37.7860   31.1330   47.8560 C   0  0  0  0  0  0  0  0  0  0  0  0
   37.2140   30.9230   46.6310 C   0  0  0  0  0  3  0  0  0  0  0  0
   37.7140   31.5090   45.4910 C   0  0  0  0  0  0  0  0  0  0  0  0
   37.2720   31.3520   44.5150 H   0  0  0  0  0  0  0  0  0  0  0  0
   38.7810   32.3040   45.5630 N   0  0  0  0  0  0  0  0  0  0  0  0
   39.3530   32.5180   46.7600 C   0  0  0  0  0  3  0  0  0  0  0  0
   38.8580   31.9430   47.8570 N   0  0  0  0  0  0  0  0  0  0  0  0
   33.7320   28.6090   48.7310 C   0  0  0  0  0  0  0  0  0  0  0  0
   33.1880   29.4750   49.1270 H   0  0  0  0  0  0  0  0  0  0  0  0
   34.3180   28.9640   47.8570 H   0  0  0  0  0  0  0  0  0  0  0  0
   32.8290   27.4660   48.3320 C   0  0  0  0  0  0  0  0  0  0  0  0
   32.9540   26.5890   48.9750 H   0  0  0  0  0  0  0  0  0  0  0  0
   33.0790   27.1620   47.2810 H   0  0  0  0  0  0  0  0  0  0  0  0
   31.3960   27.8670   48.3330 C   0  0  0  0  0  0  0  0  0  0  0  0
   30.7100   27.7310   49.5190 C   0  0  0  0  0  0  0  0  0  0  0  0
   29.3730   28.0700   49.6470 C   0  0  0  0  0  0  0  0  0  0  0  0
   28.7270   28.5420   48.5890 N   0  0  0  0  0  0  0  0  0  0  0  0
   29.3960   28.6780   47.4180 C   0  0  0  0  0  0  0  0  0  0  0  0
   30.7000   28.3530   47.2740 N   0  0  0  0  0  0  0  0  0  0  0  0
   31.2070   27.3480   50.4060 H   0  0  0  0  0  0  0  0  0  0  0  0
   28.8250   27.9720   50.5590 H   0  0  0  0  0  0  0  0  0  0  0  0
   28.9470   29.0600   46.4900 H   0  0  0  0  0  0  0  0  0  0  0  0
  1  6  1  0  0  0  0
  2  8  1  0  0  0  0
  3  9  1  0  0  0  0
  3  2  2  0  0  0  0
  4  3  1  0  0  0  0
  5  4  2  0  0  0  0
  5  6  1  0  0  0  0
  6  7  2  0  0  0  0
  7  2  1  0  0  0  0
 10 16  1  0  0  0  0
 10  4  1  0  0  0  0
 11 10  2  0  0  0  0
 12 14  2  0  0  0  0
 12 11  1  0  0  0  0
 13 12  1  0  0  0  0
 14 15  1  0  0  0  0
 15 16  2  0  0  0  0
 17 18  1  0  0  0  0
 17  1  1  0  0  0  0
 19 17  1  0  0  0  0
 20 23  1  0  0  0  0
 20 17  1  0  0  0  0
 20 21  1  0  0  0  0
 22 20  1  0  0  0  0
 23 24  1  0  0  0  0
 24 25  2  0  0  0  0
 24 29  1  0  0  0  0
 25 30  1  0  0  0  0
 26 25  1  0  0  0  0
 27 26  2  0  0  0  0
 28 27  1  0  0  0  0
 28 23  2  0  0  0  0
 31 27  1  0  0  0  0
M  END
>  <minimizedAffinity>
-5.67557096

>  <minimizedRMSD>
0.539275408

$$$$
