
     RDKit          3D

 39 42  0  0  0  0  0  0  0  0999 V2000
   34.5383   29.0624   48.7095 C   0  0  2  0  0  0  0  0  0  0  0  0
   35.1787   28.3643   49.8752 C   0  0  0  0  0  0  0  0  0  0  0  0
   36.3274   29.1388   50.3075 N   0  0  0  0  0  0  0  0  0  0  0  0
   37.2766   29.8748   51.0843 C   0  0  0  0  0  0  0  0  0  0  0  0
   37.5129   30.0798   52.2988 O   0  0  0  0  0  0  0  0  0  0  0  0
   37.9918   30.3935   49.9192 C   0  0  1  0  0  0  0  0  0  0  0  0
   37.1745   29.3793   49.1669 C   0  0  2  0  0  0  0  0  0  0  0  0
   35.9115   30.0753   48.0518 S   0  0  0  0  0  0  0  0  0  0  0  0
   37.7446   31.8180   49.5997 C   0  0  0  0  0  0  0  0  0  0  0  0
   36.7348   32.3107   50.1792 O   0  0  0  0  0  0  0  0  0  0  0  0
   38.5899   32.5708   48.7075 C   0  0  0  0  0  0  0  0  0  0  0  0
   39.1121   33.7645   49.1803 C   0  0  0  0  0  0  0  0  0  0  0  0
   39.9433   34.5110   48.3079 C   0  0  0  0  0  0  0  0  0  0  0  0
   40.1764   34.0023   47.0516 N   0  0  0  0  0  0  0  0  0  0  0  0
   39.6530   32.8546   46.6464 C   0  0  0  0  0  0  0  0  0  0  0  0
   38.8616   32.1362   47.4664 N   0  0  0  0  0  0  0  0  0  0  0  0
   33.3234   29.8717   49.0620 C   0  0  0  0  0  0  0  0  0  0  0  0
   34.2312   28.0460   47.6167 C   0  0  0  0  0  0  0  0  0  0  0  0
   34.4195   28.3961   50.6957 H   0  0  0  0  0  0  0  0  0  0  0  0
   35.3952   27.3056   49.7076 H   0  0  0  0  0  0  0  0  0  0  0  0
   39.0535   30.1439   49.7595 H   0  0  0  0  0  0  0  0  0  0  0  0
   37.7025   28.5038   48.7654 H   0  0  0  0  0  0  0  0  0  0  0  0
   38.9182   34.1436   50.1634 H   0  0  0  0  0  0  0  0  0  0  0  0
   40.3796   35.4497   48.6203 H   0  0  0  0  0  0  0  0  0  0  0  0
   39.8175   32.4276   45.6640 H   0  0  0  0  0  0  0  0  0  0  0  0
   33.4435   30.4380   49.9934 H   0  0  0  0  0  0  0  0  0  0  0  0
   33.1540   30.5919   48.2464 H   0  0  0  0  0  0  0  0  0  0  0  0
   32.4368   29.2070   49.0948 H   0  0  0  0  0  0  0  0  0  0  0  0
   33.6318   27.2216   48.0642 H   0  0  0  0  0  0  0  0  0  0  0  0
   35.2142   27.5701   47.3529 H   0  0  0  0  0  0  0  0  0  0  0  0
   33.6020   28.6320   46.4294 C   0  0  0  0  0  0  0  0  0  0  0  0
   33.4930   28.0119   45.2019 C   0  0  0  0  0  0  0  0  0  0  0  0
   32.8899   28.6059   44.1052 C   0  0  0  0  0  0  0  0  0  0  0  0
   32.8237   28.0844   43.1550 H   0  0  0  0  0  0  0  0  0  0  0  0
   32.4045   29.8483   44.3038 N   0  0  0  0  0  0  0  0  0  0  0  0
   32.5156   30.4445   45.5040 C   0  0  0  0  0  0  0  0  0  0  0  0
   33.0993   29.8748   46.5729 N   0  0  0  0  0  0  0  0  0  0  0  0
   33.8903   27.0287   45.0846 H   0  0  0  0  0  0  0  0  0  0  0  0
   32.1102   31.4440   45.6156 H   0  0  0  0  0  0  0  0  0  0  0  0
  1 17  1  1
  1  2  1  0
  2  3  1  0
  3  4  1  0
  4  5  2  0
  6  9  1  0
  6  4  1  0
  7  8  1  0
  7  6  1  0
  7  3  1  0
  8  1  1  0
  9 10  2  0
 11 12  2  0
 11  9  1  0
 13 12  1  0
 14 13  2  0
 15 14  1  0
 15 16  2  0
 16 11  1  0
 18  1  1  0
  2 19  1  0
  2 20  1  0
  6 21  1  1
  7 22  1  6
 12 23  1  0
 13 24  1  0
 15 25  1  0
 17 26  1  0
 17 27  1  0
 17 28  1  0
 18 29  1  0
 18 30  1  0
 31 32  2  0
 32 33  1  0
 33 34  1  0
 33 35  2  0
 35 36  1  0
 36 37  2  0
 37 31  1  0
 32 38  1  0
 36 39  1  0
 18 31  1  0
M  ISO  8  19  13  20  13  21  13  22  13  23  14  24  14  25  14  26   8
M  ISO  5  27   8  28   8  29   8  30   8  34  14
M  END
>  <DihAtoms>  (1) 
0,17,30,31

>  <DihDeg>  (1) 
-90.16295639638291

$$$$
