
 OpenBabel03272510273D

 43 47  0  0  1  0  0  0  0  0999 V2000
   36.1440   30.2000   46.7900 C   0  0  0  0  0  0  0  0  0  0  0  0
   37.0400   30.7710   47.6940 C   0  0  0  0  0  0  0  0  0  0  0  0
   38.0290   31.6500   47.2680 C   0  0  0  0  0  0  0  0  0  0  0  0
   38.0710   31.9220   45.9050 C   0  0  0  0  0  0  0  0  0  0  0  0
   38.9450   32.7400   45.2510 N   0  0  0  0  0  0  0  0  0  0  0  0
   38.6140   32.6930   43.9530 C   0  0  0  0  0  0  0  0  0  0  0  0
   37.5860   31.8900   43.7800 N   0  0  0  0  0  0  0  0  0  0  0  0
   37.2100   31.3830   44.9790 C   0  0  0  0  0  0  0  0  0  0  0  0
   36.2230   30.5000   45.4340 C   0  0  0  0  0  0  0  0  0  0  0  0
   35.3690   29.5170   47.0900 H   0  0  0  0  0  0  0  0  0  0  0  0
   38.7140   32.0850   47.9790 H   0  0  0  0  0  0  0  0  0  0  0  0
   39.7240   33.2940   45.7060 H   0  0  0  0  0  0  0  0  0  0  0  0
   35.5570   30.0890   44.6860 H   0  0  0  0  0  0  0  0  0  0  0  0
   37.5780   30.2550   51.3710 C   0  0  0  0  0  0  0  0  0  0  0  0
   37.8180   30.6690   50.0740 C   0  0  0  0  0  0  0  0  0  0  0  0
   36.8840   30.3890   49.0830 C   0  0  0  0  0  0  0  0  0  0  0  0
   35.7560   29.7060   49.4430 N   0  0  0  0  0  0  0  0  0  0  0  0
   35.5350   29.3060   50.7210 C   0  0  0  0  0  0  0  0  0  0  0  0
   36.4240   29.5750   51.6540 N   0  0  0  0  0  0  0  0  0  0  0  0
   38.2850   30.4630   52.1380 H   0  0  0  0  0  0  0  0  0  0  0  0
   38.7120   31.2110   49.7920 H   0  0  0  0  0  0  0  0  0  0  0  0
   34.6030   28.7600   50.9320 H   0  0  0  0  0  0  0  0  0  0  0  0
   39.3160   33.4280   42.9830 O   0  0  0  0  0  0  0  0  0  0  0  0
   38.9000   31.6430   41.6200 N   0  0  0  0  0  0  0  0  0  0  0  0
   39.0100   33.1140   41.6310 C   0  0  1  0  0  0  0  0  0  0  0  0
   37.7390   33.6850   41.2030 C   0  0  0  0  0  0  0  0  0  0  0  0
   37.5110   33.3220   39.8630 O   0  0  0  0  0  0  0  0  0  0  0  0
   37.5450   31.9780   39.6130 C   0  0  0  0  0  0  0  0  0  0  0  0
   38.7180   31.2820   40.2290 C   0  0  1  0  0  0  0  0  0  0  0  0
   39.8380   31.3000   41.9290 H   0  0  0  0  0  0  0  0  0  0  0  0
   39.8080   33.4540   40.9610 H   0  0  0  0  0  0  0  0  0  0  0  0
   36.8050   33.5200   41.6680 H   0  0  0  0  0  0  0  0  0  0  0  0
   37.8760   34.8070   41.1410 H   0  0  0  0  0  0  0  0  0  0  0  0
   36.6220   31.5410   40.0720 H   0  0  0  0  0  0  0  0  0  0  0  0
   37.5660   31.8430   38.5210 H   0  0  0  0  0  0  0  0  0  0  0  0
   38.4330   30.1890   40.2610 H   0  0  0  0  0  0  0  0  0  0  0  0
   39.9620   31.3410   39.4590 C   0  0  0  0  0  0  0  0  0  0  0  0
   40.2750   31.9680   38.2890 C   0  0  0  0  0  3  0  0  0  0  0  0
   41.5360   31.8830   37.7360 C   0  0  0  0  0  0  0  0  0  0  0  0
   41.6580   32.4280   36.8000 H   0  0  0  0  0  0  0  0  0  0  0  0
   42.5290   31.1680   38.3370 N   0  0  0  0  0  0  0  0  0  0  0  0
   42.1920   30.5620   39.4910 C   0  0  0  0  0  3  0  0  0  0  0  0
   40.9550   30.6220   40.0660 N   0  0  0  0  0  0  0  0  0  0  0  0
  1 10  1  0  0  0  0
  1  2  1  0  0  0  0
  2 16  1  0  0  0  0
  3  2  2  0  0  0  0
  3 11  1  0  0  0  0
  4  3  1  0  0  0  0
  5 12  1  0  0  0  0
  5  4  1  0  0  0  0
  6  5  1  0  0  0  0
  7  6  2  0  0  0  0
  7  8  1  0  0  0  0
  8  9  1  0  0  0  0
  8  4  2  0  0  0  0
  9  1  2  0  0  0  0
 13  9  1  0  0  0  0
 14 19  1  0  0  0  0
 14 20  1  0  0  0  0
 15 14  2  0  0  0  0
 16 17  2  0  0  0  0
 16 15  1  0  0  0  0
 17 18  1  0  0  0  0
 18 22  1  0  0  0  0
 18 19  2  0  0  0  0
 21 15  1  0  0  0  0
 23  6  1  0  0  0  0
 24 25  1  0  0  0  0
 24 30  1  0  0  0  0
 25 31  1  6  0  0  0
 25 23  1  0  0  0  0
 26 25  1  0  0  0  0
 26 32  1  0  0  0  0
 27 26  1  0  0  0  0
 28 27  1  0  0  0  0
 28 34  1  0  0  0  0
 28 29  1  0  0  0  0
 29 36  1  1  0  0  0
 29 24  1  0  0  0  0
 33 26  1  0  0  0  0
 35 28  1  0  0  0  0
 37 43  1  0  0  0  0
 37 29  1  0  0  0  0
 38 37  2  0  0  0  0
 39 38  1  0  0  0  0
 39 41  2  0  0  0  0
 40 39  1  0  0  0  0
 41 42  1  0  0  0  0
 42 43  2  0  0  0  0
M  END
>  <minimizedAffinity>
-5.86938286

>  <minimizedRMSD>
0.683167279

$$$$
