
 OpenBabel03272504503D

 40 43  0  0  1  0  0  0  0  0999 V2000
   36.8830   30.8480   48.6910 N   0  0  0  0  0  0  0  0  0  0  0  0
   37.5650   30.5300   49.9430 C   0  0  0  0  0  0  0  0  0  0  0  0
   38.7310   31.4270   50.2150 C   0  0  0  0  0  0  0  0  0  0  0  0
   38.4340   32.8410   49.7420 C   0  0  0  0  0  0  0  0  0  0  0  0
   38.3640   32.7520   48.2450 C   0  0  0  0  0  0  0  0  0  0  0  0
   37.2570   31.8670   47.7530 C   0  0  1  0  0  0  0  0  0  0  0  0
   36.8780   30.5600   50.8080 H   0  0  0  0  0  0  0  0  0  0  0  0
   37.9590   29.4990   49.8070 H   0  0  0  0  0  0  0  0  0  0  0  0
   38.8860   31.5210   51.3180 H   0  0  0  0  0  0  0  0  0  0  0  0
   39.6600   31.0500   49.7780 H   0  0  0  0  0  0  0  0  0  0  0  0
   37.4550   33.1580   50.1600 H   0  0  0  0  0  0  0  0  0  0  0  0
   39.2700   33.4950   50.0170 H   0  0  0  0  0  0  0  0  0  0  0  0
   39.3290   32.3140   47.9170 H   0  0  0  0  0  0  0  0  0  0  0  0
   38.3140   33.7500   47.7700 H   0  0  0  0  0  0  0  0  0  0  0  0
   36.4180   32.5260   47.4650 H   0  0  0  0  0  0  0  0  0  0  0  0
   35.6200   28.7630   48.8980 C   0  0  0  0  0  0  0  0  0  0  0  0
   35.7390   30.0520   48.3920 C   0  0  0  0  0  0  0  0  0  0  0  0
   34.7070   30.5140   47.5950 C   0  0  0  0  0  0  0  0  0  0  0  0
   33.6410   29.6950   47.3450 N   0  0  0  0  0  0  0  0  0  0  0  0
   33.5510   28.4650   47.8410 C   0  0  0  0  0  0  0  0  0  0  0  0
   34.5480   28.0150   48.6150 N   0  0  0  0  0  0  0  0  0  0  0  0
   36.4120   28.3640   49.5310 H   0  0  0  0  0  0  0  0  0  0  0  0
   34.7270   31.5050   47.1660 H   0  0  0  0  0  0  0  0  0  0  0  0
   32.4090   27.6290   47.5560 C   0  0  0  0  0  0  0  0  0  0  0  0
   32.5310   26.2620   47.5480 C   0  0  0  0  0  0  0  0  0  0  0  0
   31.4980   25.3980   47.2890 C   0  0  0  0  0  0  0  0  0  0  0  0
   30.3040   26.0130   47.0300 C   0  0  0  0  0  0  0  0  0  0  0  0
   30.1140   27.4100   47.0220 C   0  0  0  0  0  0  0  0  0  0  0  0
   31.2150   28.1840   47.2960 N   0  0  0  0  0  0  0  0  0  0  0  0
   33.5230   25.8590   47.7660 H   0  0  0  0  0  0  0  0  0  0  0  0
   31.5850   24.3220   47.2800 H   0  0  0  0  0  0  0  0  0  0  0  0
   29.4190   25.4080   46.8110 H   0  0  0  0  0  0  0  0  0  0  0  0
   29.1450   27.8370   46.8110 H   0  0  0  0  0  0  0  0  0  0  0  0
   37.7510   31.1540   46.5200 C   0  0  0  0  0  0  0  0  0  0  0  0
   37.0320   30.7190   45.4470 C   0  0  0  0  0  0  0  0  0  0  0  0
   37.6270   30.0860   44.3990 C   0  0  0  0  0  0  0  0  0  0  0  0
   37.0140   29.7590   43.5720 H   0  0  0  0  0  0  0  0  0  0  0  0
   38.9670   29.8930   44.4400 N   0  0  0  0  0  0  0  0  0  0  0  0
   39.6860   30.3220   45.4990 C   0  0  0  0  0  0  0  0  0  0  0  0
   39.0920   30.9450   46.5280 N   0  0  0  0  0  0  0  0  0  0  0  0
  1  2  1  0  0  0  0
  2  3  1  0  0  0  0
  2  7  1  0  0  0  0
  3  9  1  0  0  0  0
  4 12  1  0  0  0  0
  4 11  1  0  0  0  0
  4  3  1  0  0  0  0
  5  4  1  0  0  0  0
  6 15  1  6  0  0  0
  6  5  1  0  0  0  0
  6  1  1  0  0  0  0
  8  2  1  0  0  0  0
 10  3  1  0  0  0  0
 13  5  1  0  0  0  0
 14  5  1  0  0  0  0
 16 22  1  0  0  0  0
 17  1  1  0  0  0  0
 17 16  2  0  0  0  0
 18 17  1  0  0  0  0
 19 18  2  0  0  0  0
 19 20  1  0  0  0  0
 20 21  2  0  0  0  0
 21 16  1  0  0  0  0
 23 18  1  0  0  0  0
 24 20  1  0  0  0  0
 25 24  1  0  0  0  0
 25 30  1  0  0  0  0
 26 25  2  0  0  0  0
 27 26  1  0  0  0  0
 28 27  2  0  0  0  0
 28 29  1  0  0  0  0
 29 24  2  0  0  0  0
 31 26  1  0  0  0  0
 32 27  1  0  0  0  0
 33 28  1  0  0  0  0
 34 40  1  0  0  0  0
 34  6  1  0  0  0  0
 35 34  2  0  0  0  0
 36 38  2  0  0  0  0
 36 35  1  0  0  0  0
 37 36  1  0  0  0  0
 38 39  1  0  0  0  0
 39 40  2  0  0  0  0
M  END
>  <minimizedAffinity>
-5.22686338

>  <minimizedRMSD>
1.18710101

$$$$
