
 OpenBabel03262520203D

 19 20  0  0  0  0  0  0  0  0999 V2000
   36.9810   29.5090   51.1630 C   0  0  0  0  0  0  0  0  0  0  0  0
   37.6550   30.7050   50.8250 C   0  0  0  0  0  0  0  0  0  0  0  0
   37.1970   31.4180   49.7150 C   0  0  0  0  0  0  0  0  0  0  0  0
   36.1270   30.9230   49.0190 N   0  0  0  0  0  0  0  0  0  0  0  0
   35.5160   29.7740   49.3820 C   0  0  0  0  0  0  0  0  0  0  0  0
   35.9430   29.0850   50.4390 N   0  0  0  0  0  0  0  0  0  0  0  0
   37.2920   28.9160   52.0110 H   0  0  0  0  0  0  0  0  0  0  0  0
   38.4780   31.0270   51.4120 H   0  0  0  0  0  0  0  0  0  0  0  0
   34.3790   29.2950   48.6010 C   0  0  0  0  0  0  0  0  0  0  0  0
   33.6040   28.2580   49.0770 C   0  0  0  0  0  0  0  0  0  0  0  0
   32.5120   27.7910   48.3360 C   0  0  0  0  0  0  0  0  0  0  0  0
   31.9240   26.9750   48.7360 H   0  0  0  0  0  0  0  0  0  0  0  0
   32.2550   28.3990   47.1430 N   0  0  0  0  0  0  0  0  0  0  0  0
   33.0120   29.4090   46.6820 C   0  0  0  0  0  0  0  0  0  0  0  0
   34.0720   29.8530   47.4150 N   0  0  0  0  0  0  0  0  0  0  0  0
   37.8870   32.6790   49.3360 C   0  0  0  0  0  0  0  0  0  0  0  0
   39.1010   32.6510   49.9720 F   0  0  0  0  0  0  0  0  0  0  0  0
   38.1050   32.7690   47.9690 F   0  0  0  0  0  0  0  0  0  0  0  0
   37.1930   33.8010   49.7460 F   0  0  0  0  0  0  0  0  0  0  0  0
  1  7  1  0  0  0  0
  2  1  1  0  0  0  0
  2  8  1  0  0  0  0
  3  2  2  0  0  0  0
  4  5  2  0  0  0  0
  4  3  1  0  0  0  0
  5  6  1  0  0  0  0
  6  1  2  0  0  0  0
  9 10  1  0  0  0  0
  9  5  1  0  0  0  0
 11 12  1  0  0  0  0
 11 10  2  0  0  0  0
 13 11  1  0  0  0  0
 14 13  2  0  0  0  0
 14 15  1  0  0  0  0
 15  9  2  0  0  0  0
 16  3  1  0  0  0  0
 16 19  1  0  0  0  0
 16 17  1  0  0  0  0
 18 16  1  0  0  0  0
M  END
>  <minimizedAffinity>
-5.38213301

>  <minimizedRMSD>
0.893691123

$$$$
