
 OpenBabel03262522493D

 23 25  0  0  0  0  0  0  0  0999 V2000
   37.9560   25.2390   34.8640 C   0  0  0  0  0  0  0  0  0  0  0  0
   37.9450   24.8900   33.5720 C   0  0  0  0  0  0  0  0  0  0  0  0
   37.4560   25.7680   32.6300 C   0  0  0  0  0  0  0  0  0  0  0  0
   37.0030   26.9700   33.1050 C   0  0  0  0  0  0  0  0  0  0  0  0
   37.2900   26.8160   34.8970 S   0  0  0  0  0  0  0  0  0  0  0  0
   38.3300   23.8980   33.2740 H   0  0  0  0  0  0  0  0  0  0  0  0
   37.4040   25.5780   31.5660 H   0  0  0  0  0  0  0  0  0  0  0  0
   38.1780   23.9370   38.2560 C   0  0  0  0  0  0  0  0  0  0  0  0
   39.2780   23.0720   38.2020 C   0  0  0  0  0  0  0  0  0  0  0  0
   39.9560   22.9390   36.9740 C   0  0  0  0  0  0  0  0  0  0  0  0
   39.5050   23.6570   35.9030 N   0  0  0  0  0  0  0  0  0  0  0  0
   38.4290   24.4800   36.0220 C   0  0  0  0  0  0  0  0  0  0  0  0
   37.7610   24.6350   37.1680 N   0  0  0  0  0  0  0  0  0  0  0  0
   37.6430   24.0570   39.1840 H   0  0  0  0  0  0  0  0  0  0  0  0
   39.5940   22.5250   39.0810 H   0  0  0  0  0  0  0  0  0  0  0  0
   40.8040   22.2850   36.8930 H   0  0  0  0  0  0  0  0  0  0  0  0
   36.4360   28.0940   32.3760 C   0  0  0  0  0  0  0  0  0  0  0  0
   36.9410   28.4450   31.1670 C   0  0  0  0  0  3  0  0  0  0  0  0
   36.3570   29.5180   30.5300 C   0  0  0  0  0  0  0  0  0  0  0  0
   36.7890   29.7810   29.5510 H   0  0  0  0  0  0  0  0  0  0  0  0
   35.3220   30.2070   31.0710 N   0  0  0  0  0  0  0  0  0  0  0  0
   34.8870   29.7760   32.2860 C   0  0  0  0  0  3  0  0  0  0  0  0
   35.4060   28.7400   32.9640 N   0  0  0  0  0  0  0  0  0  0  0  0
  1  5  1  0  0  0  0
  1 12  1  0  0  0  0
  2  1  2  0  0  0  0
  3  4  2  0  0  0  0
  3  2  1  0  0  0  0
  4  5  1  0  0  0  0
  6  2  1  0  0  0  0
  7  3  1  0  0  0  0
  8 14  1  0  0  0  0
  9  8  1  0  0  0  0
  9 15  1  0  0  0  0
 10  9  2  0  0  0  0
 11 12  2  0  0  0  0
 11 10  1  0  0  0  0
 12 13  1  0  0  0  0
 13  8  2  0  0  0  0
 16 10  1  0  0  0  0
 17 23  1  0  0  0  0
 17  4  1  0  0  0  0
 18 17  2  0  0  0  0
 19 21  2  0  0  0  0
 19 18  1  0  0  0  0
 20 19  1  0  0  0  0
 21 22  1  0  0  0  0
 22 23  2  0  0  0  0
M  END
>  <minimizedAffinity>
-4.57819319

$$$$

 OpenBabel03262522493D

 23 25  0  0  0  0  0  0  0  0999 V2000
   38.4110   25.7000   35.5240 C   0  0  0  0  0  0  0  0  0  0  0  0
   38.2010   26.9090   36.0580 C   0  0  0  0  0  0  0  0  0  0  0  0
   37.5930   27.8920   35.3080 C   0  0  0  0  0  0  0  0  0  0  0  0
   37.2400   27.5440   34.0320 C   0  0  0  0  0  0  0  0  0  0  0  0
   37.7870   25.8100   33.9330 S   0  0  0  0  0  0  0  0  0  0  0  0
   38.5180   27.1060   37.0980 H   0  0  0  0  0  0  0  0  0  0  0  0
   37.3820   28.8970   35.6500 H   0  0  0  0  0  0  0  0  0  0  0  0
   40.5660   22.8010   35.9700 C   0  0  0  0  0  0  0  0  0  0  0  0
   40.1970   22.3110   37.2290 C   0  0  0  0  0  0  0  0  0  0  0  0
   39.1840   22.9920   37.9330 C   0  0  0  0  0  0  0  0  0  0  0  0
   38.6180   24.0920   37.3540 N   0  0  0  0  0  0  0  0  0  0  0  0
   39.0240   24.5170   36.1280 C   0  0  0  0  0  0  0  0  0  0  0  0
   39.9780   23.8990   35.4280 N   0  0  0  0  0  0  0  0  0  0  0  0
   41.3380   22.2980   35.4100 H   0  0  0  0  0  0  0  0  0  0  0  0
   40.6780   21.4340   37.6430 H   0  0  0  0  0  0  0  0  0  0  0  0
   38.8740   22.6460   38.9020 H   0  0  0  0  0  0  0  0  0  0  0  0
   36.5910   28.3460   33.0050 C   0  0  0  0  0  0  0  0  0  0  0  0
   35.5480   29.1500   33.3280 C   0  0  0  0  0  3  0  0  0  0  0  0
   34.9800   29.8820   32.3080 C   0  0  0  0  0  0  0  0  0  0  0  0
   34.1340   30.5260   32.5990 H   0  0  0  0  0  0  0  0  0  0  0  0
   35.4300   29.8150   31.0300 N   0  0  0  0  0  0  0  0  0  0  0  0
   36.4810   28.9800   30.8090 C   0  0  0  0  0  3  0  0  0  0  0  0
   37.0830   28.2380   31.7520 N   0  0  0  0  0  0  0  0  0  0  0  0
  1  2  2  0  0  0  0
  1 12  1  0  0  0  0
  2  6  1  0  0  0  0
  3  7  1  0  0  0  0
  3  2  1  0  0  0  0
  4  3  2  0  0  0  0
  5  4  1  0  0  0  0
  5  1  1  0  0  0  0
  8  9  1  0  0  0  0
  9 15  1  0  0  0  0
  9 10  2  0  0  0  0
 10 16  1  0  0  0  0
 11 10  1  0  0  0  0
 12 11  2  0  0  0  0
 13  8  2  0  0  0  0
 13 12  1  0  0  0  0
 14  8  1  0  0  0  0
 17 18  1  0  0  0  0
 17  4  1  0  0  0  0
 19 20  1  0  0  0  0
 19 18  2  0  0  0  0
 21 19  1  0  0  0  0
 22 21  2  0  0  0  0
 22 23  1  0  0  0  0
 23 17  2  0  0  0  0
M  END
>  <minimizedAffinity>
-4.56819963

$$$$

 OpenBabel03262522493D

 23 25  0  0  0  0  0  0  0  0999 V2000
   37.0420   26.9220   33.2330 C   0  0  0  0  0  0  0  0  0  0  0  0
   37.3760   25.7170   32.7560 C   0  0  0  0  0  0  0  0  0  0  0  0
   37.8910   24.7630   33.6060 C   0  0  0  0  0  0  0  0  0  0  0  0
   38.0270   25.1340   34.9170 C   0  0  0  0  0  0  0  0  0  0  0  0
   37.4110   26.8480   34.9040 S   0  0  0  0  0  0  0  0  0  0  0  0
   37.2340   25.4990   31.6820 H   0  0  0  0  0  0  0  0  0  0  0  0
   38.1900   23.7640   33.3160 H   0  0  0  0  0  0  0  0  0  0  0  0
   36.5250   29.4650   30.6820 C   0  0  0  0  0  0  0  0  0  0  0  0
   35.4450   30.2070   31.1750 C   0  0  0  0  0  0  0  0  0  0  0  0
   34.8880   29.8240   32.4110 C   0  0  0  0  0  0  0  0  0  0  0  0
   35.4290   28.7510   33.0610 N   0  0  0  0  0  0  0  0  0  0  0  0
   36.4780   28.0720   32.5260 C   0  0  0  0  0  0  0  0  0  0  0  0
   37.0350   28.4030   31.3590 N   0  0  0  0  0  0  0  0  0  0  0  0
   36.9700   29.7380   29.7370 H   0  0  0  0  0  0  0  0  0  0  0  0
   35.0530   31.0490   30.6190 H   0  0  0  0  0  0  0  0  0  0  0  0
   34.0590   30.3690   32.8210 H   0  0  0  0  0  0  0  0  0  0  0  0
   38.5330   24.3660   36.0440 C   0  0  0  0  0  0  0  0  0  0  0  0
   37.8760   24.3870   37.2310 C   0  0  0  0  0  3  0  0  0  0  0  0
   38.4080   23.6370   38.2570 C   0  0  0  0  0  0  0  0  0  0  0  0
   37.8550   23.6730   39.2090 H   0  0  0  0  0  0  0  0  0  0  0  0
   39.5400   22.9030   38.1070 N   0  0  0  0  0  0  0  0  0  0  0  0
   40.1240   22.9480   36.8790 C   0  0  0  0  0  3  0  0  0  0  0  0
   39.6610   23.6550   35.8350 N   0  0  0  0  0  0  0  0  0  0  0  0
  1  5  1  0  0  0  0
  2  1  2  0  0  0  0
  2  3  1  0  0  0  0
  3  4  2  0  0  0  0
  4 17  1  0  0  0  0
  5  4  1  0  0  0  0
  6  2  1  0  0  0  0
  7  3  1  0  0  0  0
  8  9  2  0  0  0  0
  8 13  1  0  0  0  0
  9 10  1  0  0  0  0
 10 16  1  0  0  0  0
 10 11  2  0  0  0  0
 12 11  1  0  0  0  0
 12  1  1  0  0  0  0
 13 12  2  0  0  0  0
 14  8  1  0  0  0  0
 15  9  1  0  0  0  0
 17 18  1  0  0  0  0
 18 19  2  0  0  0  0
 19 20  1  0  0  0  0
 21 19  1  0  0  0  0
 22 21  2  0  0  0  0
 23 17  2  0  0  0  0
 23 22  1  0  0  0  0
M  END
>  <minimizedAffinity>
-4.54152203

$$$$

 OpenBabel03262522493D

 23 25  0  0  0  0  0  0  0  0999 V2000
   38.3060   25.6010   35.0760 C   0  0  0  0  0  0  0  0  0  0  0  0
   37.4030   26.5620   35.3030 C   0  0  0  0  0  0  0  0  0  0  0  0
   37.0300   27.4060   34.2790 C   0  0  0  0  0  0  0  0  0  0  0  0
   37.6330   27.1880   33.0690 C   0  0  0  0  0  0  0  0  0  0  0  0
   38.7240   25.7750   33.4240 S   0  0  0  0  0  0  0  0  0  0  0  0
   36.9650   26.6690   36.3110 H   0  0  0  0  0  0  0  0  0  0  0  0
   36.3110   28.2110   34.3640 H   0  0  0  0  0  0  0  0  0  0  0  0
   38.6410   23.4640   38.0020 C   0  0  0  0  0  0  0  0  0  0  0  0
   39.8030   22.7280   37.7380 C   0  0  0  0  0  0  0  0  0  0  0  0
   40.4830   22.9780   36.5300 C   0  0  0  0  0  0  0  0  0  0  0  0
   39.9750   23.9200   35.6820 N   0  0  0  0  0  0  0  0  0  0  0  0
   38.8410   24.5990   35.9980 C   0  0  0  0  0  0  0  0  0  0  0  0
   38.1670   24.3930   37.1320 N   0  0  0  0  0  0  0  0  0  0  0  0
   38.1010   23.2920   38.9200 H   0  0  0  0  0  0  0  0  0  0  0  0
   40.1630   21.9920   38.4450 H   0  0  0  0  0  0  0  0  0  0  0  0
   41.3790   22.4340   36.2930 H   0  0  0  0  0  0  0  0  0  0  0  0
   37.4550   27.8980   31.8110 C   0  0  0  0  0  0  0  0  0  0  0  0
   36.5060   28.8590   31.7010 C   0  0  0  0  0  3  0  0  0  0  0  0
   36.3910   29.4920   30.4820 C   0  0  0  0  0  0  0  0  0  0  0  0
   35.6100   30.2680   30.4210 H   0  0  0  0  0  0  0  0  0  0  0  0
   37.1830   29.1810   29.4260 N   0  0  0  0  0  0  0  0  0  0  0  0
   38.1060   28.2030   29.6380 C   0  0  0  0  0  3  0  0  0  0  0  0
   38.2740   27.5450   30.7970 N   0  0  0  0  0  0  0  0  0  0  0  0
  1  2  2  0  0  0  0
  1 12  1  0  0  0  0
  2  6  1  0  0  0  0
  3  7  1  0  0  0  0
  3  2  1  0  0  0  0
  4  5  1  0  0  0  0
  4  3  2  0  0  0  0
  5  1  1  0  0  0  0
  8 14  1  0  0  0  0
  9  8  1  0  0  0  0
  9 15  1  0  0  0  0
 10  9  2  0  0  0  0
 11 12  2  0  0  0  0
 11 10  1  0  0  0  0
 12 13  1  0  0  0  0
 13  8  2  0  0  0  0
 16 10  1  0  0  0  0
 17  4  1  0  0  0  0
 18 17  1  0  0  0  0
 19 18  2  0  0  0  0
 20 19  1  0  0  0  0
 21 22  2  0  0  0  0
 21 19  1  0  0  0  0
 22 23  1  0  0  0  0
 23 17  2  0  0  0  0
M  END
>  <minimizedAffinity>
-4.52046156

$$$$

 OpenBabel03262522493D

 23 25  0  0  0  0  0  0  0  0999 V2000
   37.0770   26.9560   33.1960 C   0  0  0  0  0  0  0  0  0  0  0  0
   37.4550   25.7540   32.7450 C   0  0  0  0  0  0  0  0  0  0  0  0
   37.9360   24.8120   33.6280 C   0  0  0  0  0  0  0  0  0  0  0  0
   37.9900   25.1910   34.9430 C   0  0  0  0  0  0  0  0  0  0  0  0
   37.3500   26.8950   34.8850 S   0  0  0  0  0  0  0  0  0  0  0  0
   37.3780   25.5300   31.6660 H   0  0  0  0  0  0  0  0  0  0  0  0
   38.2660   23.8160   33.3600 H   0  0  0  0  0  0  0  0  0  0  0  0
   35.0930   29.8990   32.3910 C   0  0  0  0  0  0  0  0  0  0  0  0
   35.5130   30.2320   31.0980 C   0  0  0  0  0  0  0  0  0  0  0  0
   36.4970   29.4240   30.4930 C   0  0  0  0  0  0  0  0  0  0  0  0
   36.9870   28.3620   31.1980 N   0  0  0  0  0  0  0  0  0  0  0  0
   36.5360   28.0940   32.4520 C   0  0  0  0  0  0  0  0  0  0  0  0
   35.6060   28.8340   33.0600 N   0  0  0  0  0  0  0  0  0  0  0  0
   34.3410   30.5020   32.8770 H   0  0  0  0  0  0  0  0  0  0  0  0
   35.0920   31.0860   30.5830 H   0  0  0  0  0  0  0  0  0  0  0  0
   36.8440   29.6480   29.5020 H   0  0  0  0  0  0  0  0  0  0  0  0
   38.4430   24.4350   36.1010 C   0  0  0  0  0  0  0  0  0  0  0  0
   39.4990   23.5920   35.9920 C   0  0  0  0  0  3  0  0  0  0  0  0
   39.8760   22.9070   37.1270 C   0  0  0  0  0  0  0  0  0  0  0  0
   40.7350   22.2280   37.0090 H   0  0  0  0  0  0  0  0  0  0  0  0
   39.2300   23.0560   38.3110 N   0  0  0  0  0  0  0  0  0  0  0  0
   38.1840   23.9260   38.3170 C   0  0  0  0  0  3  0  0  0  0  0  0
   37.7620   24.6260   37.2510 N   0  0  0  0  0  0  0  0  0  0  0  0
  1  5  1  0  0  0  0
  2  1  2  0  0  0  0
  2  3  1  0  0  0  0
  3  4  2  0  0  0  0
  4 17  1  0  0  0  0
  5  4  1  0  0  0  0
  6  2  1  0  0  0  0
  7  3  1  0  0  0  0
  8 14  1  0  0  0  0
  8 13  1  0  0  0  0
  9  8  2  0  0  0  0
 10  9  1  0  0  0  0
 10 11  2  0  0  0  0
 11 12  1  0  0  0  0
 12 13  2  0  0  0  0
 12  1  1  0  0  0  0
 15  9  1  0  0  0  0
 16 10  1  0  0  0  0
 17 23  1  0  0  0  0
 18 17  2  0  0  0  0
 18 19  1  0  0  0  0
 19 21  2  0  0  0  0
 20 19  1  0  0  0  0
 21 22  1  0  0  0  0
 23 22  2  0  0  0  0
M  END
>  <minimizedAffinity>
-4.51725388

$$$$

 OpenBabel03262522493D

 23 25  0  0  0  0  0  0  0  0999 V2000
   38.6860   25.4800   35.4530 C   0  0  0  0  0  0  0  0  0  0  0  0
   38.3200   26.6280   36.0360 C   0  0  0  0  0  0  0  0  0  0  0  0
   37.6850   27.6000   35.2950 C   0  0  0  0  0  0  0  0  0  0  0  0
   37.4710   27.3070   33.9740 C   0  0  0  0  0  0  0  0  0  0  0  0
   38.1860   25.6390   33.8230 S   0  0  0  0  0  0  0  0  0  0  0  0
   38.5310   26.7840   37.1090 H   0  0  0  0  0  0  0  0  0  0  0  0
   37.3520   28.5580   35.6740 H   0  0  0  0  0  0  0  0  0  0  0  0
   39.4720   22.7680   37.7490 C   0  0  0  0  0  0  0  0  0  0  0  0
   40.5780   22.1480   37.1550 C   0  0  0  0  0  0  0  0  0  0  0  0
   41.0620   22.6770   35.9420 C   0  0  0  0  0  0  0  0  0  0  0  0
   40.4280   23.7650   35.4100 N   0  0  0  0  0  0  0  0  0  0  0  0
   39.3570   24.3190   36.0380 C   0  0  0  0  0  0  0  0  0  0  0  0
   38.8690   23.8480   37.1880 N   0  0  0  0  0  0  0  0  0  0  0  0
   39.0830   22.3820   38.6780 H   0  0  0  0  0  0  0  0  0  0  0  0
   41.0440   21.2870   37.6180 H   0  0  0  0  0  0  0  0  0  0  0  0
   41.9080   22.2290   35.4560 H   0  0  0  0  0  0  0  0  0  0  0  0
   36.8360   28.1130   32.9430 C   0  0  0  0  0  0  0  0  0  0  0  0
   35.8540   28.9880   33.2730 C   0  0  0  0  0  3  0  0  0  0  0  0
   35.2940   29.7200   32.2480 C   0  0  0  0  0  0  0  0  0  0  0  0
   34.4990   30.4220   32.5450 H   0  0  0  0  0  0  0  0  0  0  0  0
   35.6940   29.5860   30.9590 N   0  0  0  0  0  0  0  0  0  0  0  0
   36.6860   28.6820   30.7310 C   0  0  0  0  0  3  0  0  0  0  0  0
   37.2760   27.9360   31.6790 N   0  0  0  0  0  0  0  0  0  0  0  0
  1  2  2  0  0  0  0
  1 12  1  0  0  0  0
  2  6  1  0  0  0  0
  3  7  1  0  0  0  0
  3  2  1  0  0  0  0
  4  3  2  0  0  0  0
  5  4  1  0  0  0  0
  5  1  1  0  0  0  0
  8 14  1  0  0  0  0
  9 15  1  0  0  0  0
  9  8  2  0  0  0  0
 10  9  1  0  0  0  0
 11 10  2  0  0  0  0
 11 12  1  0  0  0  0
 12 13  2  0  0  0  0
 13  8  1  0  0  0  0
 16 10  1  0  0  0  0
 17 18  1  0  0  0  0
 17  4  1  0  0  0  0
 19 20  1  0  0  0  0
 19 18  2  0  0  0  0
 21 19  1  0  0  0  0
 22 21  2  0  0  0  0
 22 23  1  0  0  0  0
 23 17  2  0  0  0  0
M  END
>  <minimizedAffinity>
-4.50039244

$$$$

 OpenBabel03262522493D

 23 25  0  0  0  0  0  0  0  0999 V2000
   36.4880   25.9870   31.8430 C   0  0  0  0  0  0  0  0  0  0  0  0
   37.3720   25.3200   32.5960 C   0  0  0  0  0  0  0  0  0  0  0  0
   37.3430   23.9420   32.6260 C   0  0  0  0  0  0  0  0  0  0  0  0
   36.3810   23.3430   31.8570 C   0  0  0  0  0  0  0  0  0  0  0  0
   35.5350   24.7700   31.1060 S   0  0  0  0  0  0  0  0  0  0  0  0
   38.1170   25.8820   33.1870 H   0  0  0  0  0  0  0  0  0  0  0  0
   38.0130   23.3160   33.2010 H   0  0  0  0  0  0  0  0  0  0  0  0
   35.7400   29.4790   32.5440 C   0  0  0  0  0  0  0  0  0  0  0  0
   36.0560   30.1270   31.3430 C   0  0  0  0  0  0  0  0  0  0  0  0
   36.5330   29.3440   30.2740 C   0  0  0  0  0  0  0  0  0  0  0  0
   36.6630   27.9970   30.4630 N   0  0  0  0  0  0  0  0  0  0  0  0
   36.3390   27.4300   31.6550 C   0  0  0  0  0  0  0  0  0  0  0  0
   35.8830   28.1360   32.6930 N   0  0  0  0  0  0  0  0  0  0  0  0
   35.3720   30.0560   33.3780 H   0  0  0  0  0  0  0  0  0  0  0  0
   35.9350   31.1980   31.2460 H   0  0  0  0  0  0  0  0  0  0  0  0
   36.7860   29.8060   29.3380 H   0  0  0  0  0  0  0  0  0  0  0  0
   36.0960   21.9280   31.6770 C   0  0  0  0  0  0  0  0  0  0  0  0
   35.0410   21.3610   32.3130 C   0  0  0  0  0  3  0  0  0  0  0  0
   34.8270   20.0160   32.0990 C   0  0  0  0  0  0  0  0  0  0  0  0
   33.9640   19.5820   32.6290 H   0  0  0  0  0  0  0  0  0  0  0  0
   35.6250   19.2750   31.2910 N   0  0  0  0  0  0  0  0  0  0  0  0
   36.6560   19.9360   30.6980 C   0  0  0  0  0  3  0  0  0  0  0  0
   36.9240   21.2420   30.8600 N   0  0  0  0  0  0  0  0  0  0  0  0
  1  2  2  0  0  0  0
  2  3  1  0  0  0  0
  2  6  1  0  0  0  0
  3  7  1  0  0  0  0
  4  3  2  0  0  0  0
  5  1  1  0  0  0  0
  5  4  1  0  0  0  0
  8 13  1  0  0  0  0
  8 14  1  0  0  0  0
  9  8  2  0  0  0  0
 10 11  2  0  0  0  0
 10  9  1  0  0  0  0
 11 12  1  0  0  0  0
 12  1  1  0  0  0  0
 12 13  2  0  0  0  0
 15  9  1  0  0  0  0
 16 10  1  0  0  0  0
 17  4  1  0  0  0  0
 17 18  1  0  0  0  0
 19 18  2  0  0  0  0
 19 20  1  0  0  0  0
 21 19  1  0  0  0  0
 22 23  1  0  0  0  0
 22 21  2  0  0  0  0
 23 17  2  0  0  0  0
M  END
>  <minimizedAffinity>
-4.41359425

$$$$

 OpenBabel03262522493D

 23 25  0  0  0  0  0  0  0  0999 V2000
   37.9020   25.7480   34.8260 C   0  0  0  0  0  0  0  0  0  0  0  0
   37.7560   26.8840   35.5180 C   0  0  0  0  0  0  0  0  0  0  0  0
   37.1620   27.9760   34.9240 C   0  0  0  0  0  0  0  0  0  0  0  0
   36.7540   27.8080   33.6270 C   0  0  0  0  0  0  0  0  0  0  0  0
   37.2310   26.0840   33.2870 S   0  0  0  0  0  0  0  0  0  0  0  0
   38.1140   26.9350   36.5630 H   0  0  0  0  0  0  0  0  0  0  0  0
   37.0000   28.9350   35.3990 H   0  0  0  0  0  0  0  0  0  0  0  0
   39.2000   23.1170   36.9810 C   0  0  0  0  0  0  0  0  0  0  0  0
   39.5720   22.1120   36.0800 C   0  0  0  0  0  0  0  0  0  0  0  0
   39.3730   22.3480   34.7050 C   0  0  0  0  0  0  0  0  0  0  0  0
   38.8290   23.5420   34.3240 N   0  0  0  0  0  0  0  0  0  0  0  0
   38.4890   24.4760   35.2510 C   0  0  0  0  0  0  0  0  0  0  0  0
   38.6610   24.2920   36.5620 N   0  0  0  0  0  0  0  0  0  0  0  0
   39.3420   22.9610   38.0390 H   0  0  0  0  0  0  0  0  0  0  0  0
   39.9990   21.1830   36.4350 H   0  0  0  0  0  0  0  0  0  0  0  0
   39.6460   21.6000   33.9840 H   0  0  0  0  0  0  0  0  0  0  0  0
   36.1030   28.7560   32.7360 C   0  0  0  0  0  0  0  0  0  0  0  0
   36.7070   29.1260   31.5790 C   0  0  0  0  0  3  0  0  0  0  0  0
   36.0360   30.0270   30.7810 C   0  0  0  0  0  0  0  0  0  0  0  0
   36.5500   30.3100   29.8480 H   0  0  0  0  0  0  0  0  0  0  0  0
   34.8260   30.5360   31.1210 N   0  0  0  0  0  0  0  0  0  0  0  0
   34.3040   30.1020   32.3010 C   0  0  0  0  0  3  0  0  0  0  0  0
   34.9000   29.2270   33.1270 N   0  0  0  0  0  0  0  0  0  0  0  0
  1 12  1  0  0  0  0
  1  2  2  0  0  0  0
  2  6  1  0  0  0  0
  3  7  1  0  0  0  0
  3  2  1  0  0  0  0
  4  3  2  0  0  0  0
  5  4  1  0  0  0  0
  5  1  1  0  0  0  0
  8 14  1  0  0  0  0
  9 15  1  0  0  0  0
  9  8  2  0  0  0  0
 10  9  1  0  0  0  0
 11 10  2  0  0  0  0
 11 12  1  0  0  0  0
 12 13  2  0  0  0  0
 13  8  1  0  0  0  0
 16 10  1  0  0  0  0
 17 23  1  0  0  0  0
 17  4  1  0  0  0  0
 18 17  2  0  0  0  0
 19 21  2  0  0  0  0
 19 18  1  0  0  0  0
 20 19  1  0  0  0  0
 21 22  1  0  0  0  0
 22 23  2  0  0  0  0
M  END
>  <minimizedAffinity>
-4.27599144

$$$$

 OpenBabel03262522493D

 23 25  0  0  0  0  0  0  0  0999 V2000
   37.8230   25.7090   34.6540 C   0  0  0  0  0  0  0  0  0  0  0  0
   37.6960   25.4410   35.9600 C   0  0  0  0  0  0  0  0  0  0  0  0
   38.5180   24.5060   36.5490 C   0  0  0  0  0  0  0  0  0  0  0  0
   39.4320   23.9030   35.7260 C   0  0  0  0  0  0  0  0  0  0  0  0
   39.0920   24.6910   34.1200 S   0  0  0  0  0  0  0  0  0  0  0  0
   36.9310   25.9740   36.5520 H   0  0  0  0  0  0  0  0  0  0  0  0
   38.4930   24.2210   37.5930 H   0  0  0  0  0  0  0  0  0  0  0  0
   36.1240   27.1610   31.7820 C   0  0  0  0  0  0  0  0  0  0  0  0
   35.6680   28.3950   32.2610 C   0  0  0  0  0  0  0  0  0  0  0  0
   35.9540   28.7310   33.5990 C   0  0  0  0  0  0  0  0  0  0  0  0
   36.6600   27.8390   34.3560 N   0  0  0  0  0  0  0  0  0  0  0  0
   37.0730   26.6560   33.8280 C   0  0  0  0  0  0  0  0  0  0  0  0
   36.8230   26.3000   32.5660 N   0  0  0  0  0  0  0  0  0  0  0  0
   35.9180   26.8790   30.7610 H   0  0  0  0  0  0  0  0  0  0  0  0
   35.1120   29.0650   31.6190 H   0  0  0  0  0  0  0  0  0  0  0  0
   35.6210   29.6690   34.0030 H   0  0  0  0  0  0  0  0  0  0  0  0
   40.4270   22.8890   36.0400 C   0  0  0  0  0  0  0  0  0  0  0  0
   40.5650   22.4440   37.3140 C   0  0  0  0  0  3  0  0  0  0  0  0
   41.5260   21.4830   37.5440 C   0  0  0  0  0  0  0  0  0  0  0  0
   41.6160   21.1420   38.5870 H   0  0  0  0  0  0  0  0  0  0  0  0
   42.3100   20.9920   36.5520 N   0  0  0  0  0  0  0  0  0  0  0  0
   42.0940   21.5020   35.3090 C   0  0  0  0  0  3  0  0  0  0  0  0
   41.1770   22.4370   35.0130 N   0  0  0  0  0  0  0  0  0  0  0  0
  1  2  2  0  0  0  0
  2  3  1  0  0  0  0
  2  6  1  0  0  0  0
  3  7  1  0  0  0  0
  4 17  1  0  0  0  0
  4  3  2  0  0  0  0
  5  1  1  0  0  0  0
  5  4  1  0  0  0  0
  8  9  2  0  0  0  0
  8 13  1  0  0  0  0
  9 10  1  0  0  0  0
 10 16  1  0  0  0  0
 10 11  2  0  0  0  0
 12 11  1  0  0  0  0
 12  1  1  0  0  0  0
 13 12  2  0  0  0  0
 14  8  1  0  0  0  0
 15  9  1  0  0  0  0
 17 18  1  0  0  0  0
 18 19  2  0  0  0  0
 19 20  1  0  0  0  0
 21 19  1  0  0  0  0
 22 21  2  0  0  0  0
 23 22  1  0  0  0  0
 23 17  2  0  0  0  0
M  END
>  <minimizedAffinity>
-4.26675224

$$$$
