
 OpenBabel03272502233D

 27 29  0  0  0  0  0  0  0  0999 V2000
   36.6630   29.7180   50.2490 C   0  0  0  0  0  0  0  0  0  0  0  0
   37.2880   30.4100   49.1970 C   0  0  0  0  0  0  0  0  0  0  0  0
   36.7400   30.2950   47.9320 C   0  0  0  0  0  0  0  0  0  0  0  0
   35.6420   29.5260   47.7860 N   0  0  0  0  0  0  0  0  0  0  0  0
   35.0610   28.8730   48.8030 C   0  0  0  0  0  0  0  0  0  0  0  0
   35.5740   28.9680   50.0440 N   0  0  0  0  0  0  0  0  0  0  0  0
   37.0990   29.8160   51.2280 H   0  0  0  0  0  0  0  0  0  0  0  0
   38.1680   31.0250   49.3190 H   0  0  0  0  0  0  0  0  0  0  0  0
   37.2880   30.9590   46.7550 C   0  0  0  0  0  0  0  0  0  0  0  0
   36.7150   30.8190   45.5040 C   0  0  0  0  0  0  0  0  0  0  0  0
   37.2220   31.4440   44.3750 C   0  0  0  0  0  0  0  0  0  0  0  0
   38.3150   32.2190   44.4820 N   0  0  0  0  0  0  0  0  0  0  0  0
   38.8600   32.3460   45.7030 C   0  0  0  0  0  0  0  0  0  0  0  0
   38.3820   31.7500   46.8020 N   0  0  0  0  0  0  0  0  0  0  0  0
   35.8290   30.1940   45.3990 H   0  0  0  0  0  0  0  0  0  0  0  0
   36.7050   31.2750   43.4360 H   0  0  0  0  0  0  0  0  0  0  0  0
   40.0720   33.1970   45.8610 C   0  0  0  0  0  0  0  0  0  0  0  0
   40.0750   33.7160   47.1530 F   0  0  0  0  0  0  0  0  0  0  0  0
   41.2310   32.4750   45.6280 F   0  0  0  0  0  0  0  0  0  0  0  0
   40.0650   34.2610   45.0020 F   0  0  0  0  0  0  0  0  0  0  0  0
   33.8730   28.0580   48.5700 C   0  0  0  0  0  0  0  0  0  0  0  0
   33.9340   26.9720   47.7220 C   0  0  0  0  0  3  0  0  0  0  0  0
   32.7740   26.2460   47.5490 C   0  0  0  0  0  0  0  0  0  0  0  0
   32.8840   25.3980   46.8660 H   0  0  0  0  0  0  0  0  0  0  0  0
   31.6010   26.5550   48.1680 N   0  0  0  0  0  0  0  0  0  0  0  0
   31.5890   27.6320   48.9930 C   0  0  0  0  0  3  0  0  0  0  0  0
   32.7170   28.3750   49.1900 N   0  0  0  0  0  0  0  0  0  0  0  0
  1  7  1  0  0  0  0
  2  8  1  0  0  0  0
  2  1  2  0  0  0  0
  3  2  1  0  0  0  0
  4  3  2  0  0  0  0
  4  5  1  0  0  0  0
  5  6  2  0  0  0  0
  6  1  1  0  0  0  0
  9 14  1  0  0  0  0
  9  3  1  0  0  0  0
 10  9  2  0  0  0  0
 11 12  2  0  0  0  0
 11 10  1  0  0  0  0
 12 13  1  0  0  0  0
 13 17  1  0  0  0  0
 13 14  2  0  0  0  0
 15 10  1  0  0  0  0
 16 11  1  0  0  0  0
 17 18  1  0  0  0  0
 19 17  1  0  0  0  0
 20 17  1  0  0  0  0
 21  5  1  0  0  0  0
 21 27  1  0  0  0  0
 22 21  2  0  0  0  0
 23 22  1  0  0  0  0
 23 25  2  0  0  0  0
 24 23  1  0  0  0  0
 25 26  1  0  0  0  0
 26 27  2  0  0  0  0
M  END
>  <minimizedAffinity>
-6.02025414

>  <minimizedRMSD>
1.43549907

$$$$
