
 OpenBabel03272500303D

 26 28  0  0  0  0  0  0  0  0999 V2000
   36.6540   30.4210   45.9700 Cl  0  0  0  0  0  0  0  0  0  0  0  0
   36.9160   30.6470   47.6840 C   0  0  0  0  0  0  0  0  0  0  0  0
   38.0920   31.2560   48.0350 C   0  0  0  0  0  0  0  0  0  0  0  0
   38.3300   31.4500   49.4090 C   0  0  0  0  0  0  0  0  0  0  0  0
   37.3850   31.0270   50.3150 C   0  0  0  0  0  0  0  0  0  0  0  0
   36.2400   30.4310   49.8870 C   0  0  0  0  0  0  0  0  0  0  0  0
   35.9500   30.2130   48.5730 C   0  0  0  0  0  0  0  0  0  0  0  0
   39.2530   31.9270   49.7050 H   0  0  0  0  0  0  0  0  0  0  0  0
   37.5570   31.1720   51.3810 H   0  0  0  0  0  0  0  0  0  0  0  0
   35.5060   30.1050   50.6280 H   0  0  0  0  0  0  0  0  0  0  0  0
   40.2070   33.4640   46.0470 C   0  0  0  0  0  0  0  0  0  0  0  0
   40.8970   32.5840   45.1840 C   0  0  0  0  0  0  0  0  0  0  0  0
   40.6150   31.2230   45.3060 C   0  0  0  0  0  0  0  0  0  0  0  0
   39.7020   30.8240   46.2390 N   0  0  0  0  0  0  0  0  0  0  0  0
   39.0720   31.6900   47.0340 C   0  0  0  0  0  0  0  0  0  0  0  0
   39.3270   33.0050   46.9350 N   0  0  0  0  0  0  0  0  0  0  0  0
   40.3640   34.5440   46.0210 H   0  0  0  0  0  0  0  0  0  0  0  0
   41.5970   33.0280   44.4880 H   0  0  0  0  0  0  0  0  0  0  0  0
   41.1340   30.5640   44.6590 H   0  0  0  0  0  0  0  0  0  0  0  0
   34.7570   29.5880   48.0550 C   0  0  0  0  0  0  0  0  0  0  0  0
   34.4060   28.2920   48.3650 C   0  0  0  0  0  0  0  0  0  0  0  0
   33.2420   27.7190   47.8440 C   0  0  0  0  0  0  0  0  0  0  0  0
   32.9880   26.6860   48.1080 H   0  0  0  0  0  0  0  0  0  0  0  0
   32.4210   28.4130   47.0220 N   0  0  0  0  0  0  0  0  0  0  0  0
   32.7990   29.6860   46.7390 C   0  0  0  0  0  0  0  0  0  0  0  0
   33.9170   30.2270   47.2430 N   0  0  0  0  0  0  0  0  0  0  0  0
  1  2  1  0  0  0  0
  2  3  2  0  0  0  0
  2  7  1  0  0  0  0
  3  4  1  0  0  0  0
  4  8  1  0  0  0  0
  4  5  2  0  0  0  0
  5  9  1  0  0  0  0
  6  5  1  0  0  0  0
  6 10  1  0  0  0  0
  7  6  2  0  0  0  0
 11 16  1  0  0  0  0
 12 13  1  0  0  0  0
 12 11  2  0  0  0  0
 13 14  2  0  0  0  0
 14 15  1  0  0  0  0
 15  3  1  0  0  0  0
 16 15  2  0  0  0  0
 17 11  1  0  0  0  0
 18 12  1  0  0  0  0
 19 13  1  0  0  0  0
 20 21  1  0  0  0  0
 20  7  1  0  0  0  0
 22 23  1  0  0  0  0
 22 21  2  0  0  0  0
 24 22  1  0  0  0  0
 25 24  2  0  0  0  0
 25 26  1  0  0  0  0
 26 20  2  0  0  0  0
M  END
>  <minimizedAffinity>
-6.23706198

>  <minimizedRMSD>
0.542492032

$$$$
