
 OpenBabel03272509463D

 23 24  0  0  0  0  0  0  0  0999 V2000
   34.1610   28.4090   48.4860 C   0  0  0  0  0  0  0  0  0  0  0  0
   34.7670   29.0260   47.8110 H   0  0  0  0  0  0  0  0  0  0  0  0
   33.1950   28.9350   48.6430 H   0  0  0  0  0  0  0  0  0  0  0  0
   33.8600   27.0410   47.9440 C   0  0  0  0  0  0  0  0  0  0  0  0
   33.2230   26.4990   48.6420 H   0  0  0  0  0  0  0  0  0  0  0  0
   34.8210   26.4780   47.7900 H   0  0  0  0  0  0  0  0  0  0  0  0
   33.2290   27.0890   46.5980 C   0  0  0  0  0  0  0  0  0  0  0  0
   32.6740   28.2940   46.2130 C   0  0  0  0  0  3  0  0  0  0  0  0
   32.0620   28.4550   44.9880 C   0  0  0  0  0  0  0  0  0  0  0  0
   31.6070   29.3700   44.6230 H   0  0  0  0  0  0  0  0  0  0  0  0
   32.0030   27.4190   44.1480 N   0  0  0  0  0  0  0  0  0  0  0  0
   32.5500   26.2400   44.5310 C   0  0  0  0  0  3  0  0  0  0  0  0
   33.1510   26.0610   45.7200 N   0  0  0  0  0  0  0  0  0  0  0  0
   34.7360   28.3050   49.7820 O   0  0  0  0  0  0  0  0  0  0  0  0
   37.3430   30.2300   51.4130 C   0  0  0  0  0  0  0  0  0  0  0  0
   38.0570   30.6660   50.2790 C   0  0  0  0  0  0  0  0  0  0  0  0
   37.6000   30.2740   49.0270 C   0  0  0  0  0  0  0  0  0  0  0  0
   36.4810   29.4850   48.9820 N   0  0  0  0  0  0  0  0  0  0  0  0
   35.8240   29.0860   50.0770 C   0  0  0  0  0  0  0  0  0  0  0  0
   36.2600   29.4630   51.3010 N   0  0  0  0  0  0  0  0  0  0  0  0
   37.6430   30.4990   52.4220 H   0  0  0  0  0  0  0  0  0  0  0  0
   38.9330   31.2900   50.4090 H   0  0  0  0  0  0  0  0  0  0  0  0
   38.1210   30.5880   48.1290 H   0  0  0  0  0  0  0  0  0  0  0  0
  1  3  1  0  0  0  0
  1 14  1  0  0  0  0
  2  1  1  0  0  0  0
  4  1  1  0  0  0  0
  4  5  1  0  0  0  0
  6  4  1  0  0  0  0
  7  4  1  0  0  0  0
  8  7  1  0  0  0  0
  9  8  2  0  0  0  0
 10  9  1  0  0  0  0
 11 12  2  0  0  0  0
 11  9  1  0  0  0  0
 12 13  1  0  0  0  0
 13  7  2  0  0  0  0
 14 19  1  0  0  0  0
 15 21  1  0  0  0  0
 16 22  1  0  0  0  0
 16 15  2  0  0  0  0
 17 16  1  0  0  0  0
 18 17  2  0  0  0  0
 18 19  1  0  0  0  0
 19 20  2  0  0  0  0
 20 15  1  0  0  0  0
 23 17  1  0  0  0  0
M  END
>  <minimizedAffinity>
-3.60774207

>  <minimizedRMSD>
0.113929912

$$$$
