REMARK  Name = 
REMARK  2 active torsions:
REMARK  status: ('A' for Active; 'I' for Inactive)
REMARK    1  A    between atoms: C_2  and  C_12
REMARK    2  A    between atoms: C_6  and  C_23
REMARK                            x       y       z     vdW  Elec       q    Type
REMARK                         _______ _______ _______ _____ _____    ______ ____
ROOT
ATOM      1  C   UNL     1      37.063  30.707  46.771  0.00  0.00    +0.000 A 
ATOM      2  C   UNL     1      37.706  31.144  47.923  0.00  0.00    +0.000 A 
ATOM      3  C   UNL     1      38.719  32.073  47.846  0.00  0.00    +0.000 A 
ATOM      4  C   UNL     1      39.060  32.543  46.578  0.00  0.00    +0.000 A 
ATOM      5  N   UNL     1      40.018  33.453  46.255  0.00  0.00    +0.000 N 
ATOM      6  C   UNL     1      39.980  33.587  44.925  0.00  0.00    +0.000 A 
ATOM      7  N   UNL     1      39.041  32.803  44.389  0.00  0.00    +0.000 NA
ATOM      8  C   UNL     1      38.438  32.129  45.396  0.00  0.00    +0.000 A 
ATOM      9  C   UNL     1      37.425  31.194  45.514  0.00  0.00    +0.000 A 
ATOM     10  H   UNL     1      36.260  29.977  46.775  0.00  0.00    +0.000 HD
ATOM     11  H   UNL     1      39.215  32.412  48.722  0.00  0.00    +0.000 HD
ATOM     12  H   UNL     1      40.638  33.931  46.919  0.00  0.00    +0.000 HD
ATOM     13  H   UNL     1      36.933  30.862  44.609  0.00  0.00    +0.000 HD
ENDROOT
BRANCH   2  16
ATOM     14  C   UNL     1      37.399  30.154  51.535  0.00  0.00    +0.000 A 
ATOM     15  C   UNL     1      37.921  30.749  50.381  0.00  0.00    +0.000 A 
ATOM     16  C   UNL     1      37.253  30.572  49.183  0.00  0.00    +0.000 A 
ATOM     17  N   UNL     1      36.114  29.827  49.174  0.00  0.00    +0.000 NA
ATOM     18  C   UNL     1      35.622  29.258  50.300  0.00  0.00    +0.000 A 
ATOM     19  N   UNL     1      36.253  29.418  51.467  0.00  0.00    +0.000 NA
ATOM     20  H   UNL     1      37.890  30.271  52.476  0.00  0.00    +0.000 HD
ATOM     21  H   UNL     1      38.821  31.333  50.407  0.00  0.00    +0.000 HD
ATOM     22  H   UNL     1      34.708  28.677  50.216  0.00  0.00    +0.000 HD
ENDBRANCH   2  16
BRANCH   6  23
ATOM     23  C   UNL     1      40.849  34.473  44.157  0.00  0.00    +0.000 A 
ATOM     24  C   UNL     1      41.803  35.262  44.767  0.00  0.00    +0.000 A 
ATOM     25  C   UNL     1      42.629  36.101  44.051  0.00  0.00    +0.000 A 
ATOM     26  H   UNL     1      43.369  36.713  44.527  0.00  0.00    +0.000 HD
ATOM     27  N   UNL     1      42.536  36.188  42.706  0.00  0.00    +0.000 NA
ATOM     28  C   UNL     1      41.597  35.410  42.122  0.00  0.00    +0.000 A 
ATOM     29  N   UNL     1      40.773  34.574  42.818  0.00  0.00    +0.000 NA
ENDBRANCH   6  23
TORSDOF 2
