
     RDKit          3D

 36 39  0  0  0  0  0  0  0  0999 V2000
   37.3133   29.3362   51.0244 Br  0  0  0  0  0  0  0  0  0  0  0  0
   35.9601   29.3247   49.6795 C   0  0  0  0  0  0  0  0  0  0  0  0
   35.9981   30.2542   48.6436 C   0  0  0  0  0  0  0  0  0  0  0  0
   34.9851   30.1899   47.7012 C   0  0  0  0  0  0  0  0  0  0  0  0
   33.9607   29.2640   47.7428 C   0  0  0  0  0  0  0  0  0  0  0  0
   33.9653   28.3690   48.7817 C   0  0  0  0  0  0  0  0  0  0  0  0
   34.9590   28.4107   49.7308 C   0  0  0  0  0  0  0  0  0  0  0  0
   37.9825   33.1970   49.4701 C   0  0  0  0  0  0  0  0  0  0  0  0
   39.0160   33.1806   48.4775 C   0  0  0  0  0  0  0  0  0  0  0  0
   39.0008   32.1474   47.5428 C   0  0  0  0  0  0  0  0  0  0  0  0
   38.0122   31.2053   47.6124 N   0  0  0  0  0  0  0  0  0  0  0  0
   37.0559   31.2484   48.5564 C   0  0  0  0  0  0  0  0  0  0  0  0
   37.0554   32.2432   49.4707 N   0  0  0  0  0  0  0  0  0  0  0  0
   32.9055   29.1986   46.7594 C   0  0  0  0  0  0  0  0  0  0  0  0
   32.2582   28.0544   46.3706 C   0  0  0  0  0  0  0  0  0  0  0  0
   31.2514   28.0257   45.4258 C   0  0  0  0  0  0  0  0  0  0  0  0
   30.8736   29.1813   44.8445 N   0  0  0  0  0  0  0  0  0  0  0  0
   31.4986   30.3161   45.2139 C   0  0  0  0  0  0  0  0  0  0  0  0
   32.4634   30.3013   46.1277 N   0  0  0  0  0  0  0  0  0  0  0  0
   34.9547   30.8825   46.8703 H   0  0  0  0  0  0  0  0  0  0  0  0
   33.1859   27.6158   48.8697 H   0  0  0  0  0  0  0  0  0  0  0  0
   34.9520   27.6971   50.5483 H   0  0  0  0  0  0  0  0  0  0  0  0
   38.0017   34.0018   50.1912 H   0  0  0  0  0  0  0  0  0  0  0  0
   39.7909   33.9311   48.4340 H   0  0  0  0  0  0  0  0  0  0  0  0
   39.7453   32.0635   46.7616 H   0  0  0  0  0  0  0  0  0  0  0  0
   32.5588   27.1039   46.8392 H   0  0  0  0  0  0  0  0  0  0  0  0
   30.7784   27.0708   45.1649 H   0  0  0  0  0  0  0  0  0  0  0  0
   31.1049   31.5770   44.5971 C   0  0  0  0  0  0  0  0  0  0  0  0
   31.4879   32.7805   45.1513 C   0  0  0  0  0  0  0  0  0  0  0  0
   31.1175   33.9774   44.5707 C   0  0  0  0  0  0  0  0  0  0  0  0
   31.4879   34.8345   45.1123 H   0  0  0  0  0  0  0  0  0  0  0  0
   30.3705   33.9757   43.4456 N   0  0  0  0  0  0  0  0  0  0  0  0
   29.9866   32.7951   42.8899 C   0  0  0  0  0  0  0  0  0  0  0  0
   30.3622   31.6272   43.4775 N   0  0  0  0  0  0  0  0  0  0  0  0
   32.0908   32.7121   46.0606 H   0  0  0  0  0  0  0  0  0  0  0  0
   29.3892   32.8406   41.9892 H   0  0  0  0  0  0  0  0  0  0  0  0
  2  7  2  0
  2  1  1  0
  3  2  1  0
  4  5  1  0
  4  3  2  0
  5  6  2  0
  6  7  1  0
  8 13  2  0
  9  8  1  0
 10 11  1  0
 10  9  2  0
 11 12  2  0
 12  3  1  0
 12 13  1  0
 14  5  1  0
 15 14  2  0
 16 15  1  0
 17 18  1  0
 17 16  2  0
 18 19  2  0
 19 14  1  0
  4 20  1  0
  6 21  1  0
  7 22  1  0
  8 23  1  0
  9 24  1  0
 10 25  1  0
 15 26  1  0
 16 27  1  0
 28 29  2  0
 29 30  1  0
 30 31  1  0
 30 32  2  0
 32 33  1  0
 33 34  2  0
 34 28  1  0
 29 35  1  0
 33 36  1  0
 18 28  1  0
M  ISO  8  20  14  21  14  22  14  23  14  24  14  25  14  26  14  27  14
M  ISO  1  31  14
M  END
>  <DihAtoms>  (1) 
16,17,27,28

>  <DihDeg>  (1) 
179.99934750195672

$$$$
