
 OpenBabel03272505033D

 27 29  0  0  0  0  0  0  0  0999 V2000
   38.6140   27.0950   33.7390 Cl  0  0  0  0  0  0  0  0  0  0  0  0
   37.7250   25.7670   32.9940 C   0  0  0  0  0  0  0  0  0  0  0  0
   36.7890   26.0720   32.0410 C   0  0  0  0  0  0  0  0  0  0  0  0
   36.1460   24.9730   31.4890 C   0  0  0  0  0  0  0  0  0  0  0  0
   36.4610   23.6840   31.9010 C   0  0  0  0  0  0  0  0  0  0  0  0
   37.3980   23.4460   32.8500 C   0  0  0  0  0  0  0  0  0  0  0  0
   38.0610   24.5210   33.4250 C   0  0  0  0  0  0  0  0  0  0  0  0
   35.3920   25.1480   30.7280 H   0  0  0  0  0  0  0  0  0  0  0  0
   35.9120   22.8770   31.4190 H   0  0  0  0  0  0  0  0  0  0  0  0
   37.5970   22.4190   33.1260 H   0  0  0  0  0  0  0  0  0  0  0  0
   35.5390   28.2030   32.3350 C   0  0  0  0  0  0  0  0  0  0  0  0
   36.4550   27.4300   31.6040 C   0  0  0  0  0  0  0  0  0  0  0  0
   37.0340   27.9660   30.4710 C   0  0  0  0  0  0  0  0  0  0  0  0
   36.6790   29.2310   30.1220 N   0  0  0  0  0  0  0  0  0  0  0  0
   35.8110   29.9620   30.8140 C   0  0  0  0  0  0  0  0  0  0  0  0
   35.2440   29.4540   31.9130 N   0  0  0  0  0  0  0  0  0  0  0  0
   35.0650   27.8240   33.2240 H   0  0  0  0  0  0  0  0  0  0  0  0
   37.7260   27.3330   29.9520 H   0  0  0  0  0  0  0  0  0  0  0  0
   35.6780   30.9310   30.3610 H   0  0  0  0  0  0  0  0  0  0  0  0
   39.0060   24.2470   34.3830 O   0  0  0  0  0  0  0  0  0  0  0  0
   38.7920   24.0460   35.7240 C   0  0  0  0  0  0  0  0  0  0  0  0
   37.8480   24.5060   36.6170 C   0  0  0  0  0  3  0  0  0  0  0  0
   37.8860   24.1250   37.9290 C   0  0  0  0  0  0  0  0  0  0  0  0
   37.1120   24.5260   38.5700 H   0  0  0  0  0  0  0  0  0  0  0  0
   38.8280   23.3000   38.4020 N   0  0  0  0  0  0  0  0  0  0  0  0
   39.7560   22.8480   37.5250 C   0  0  0  0  0  3  0  0  0  0  0  0
   39.7520   23.2030   36.2110 N   0  0  0  0  0  0  0  0  0  0  0  0
  2  7  1  0  0  0  0
  2  1  1  0  0  0  0
  3  2  2  0  0  0  0
  4  5  2  0  0  0  0
  4  3  1  0  0  0  0
  5  6  1  0  0  0  0
  6 10  1  0  0  0  0
  6  7  2  0  0  0  0
  7 20  1  0  0  0  0
  8  4  1  0  0  0  0
  9  5  1  0  0  0  0
 11 17  1  0  0  0  0
 12  3  1  0  0  0  0
 12 11  2  0  0  0  0
 13 12  1  0  0  0  0
 14 13  2  0  0  0  0
 14 15  1  0  0  0  0
 15 16  2  0  0  0  0
 16 11  1  0  0  0  0
 18 13  1  0  0  0  0
 19 15  1  0  0  0  0
 20 21  1  0  0  0  0
 21 27  2  0  0  0  0
 21 22  1  0  0  0  0
 22 23  2  0  0  0  0
 23 25  1  0  0  0  0
 23 24  1  0  0  0  0
 26 25  2  0  0  0  0
 27 26  1  0  0  0  0
M  END
>  <minimizedAffinity>
-5.02139807

$$$$

 OpenBabel03272505033D

 27 29  0  0  0  0  0  0  0  0999 V2000
   36.4780   27.9950   34.7350 Cl  0  0  0  0  0  0  0  0  0  0  0  0
   36.1860   28.9130   33.2580 C   0  0  0  0  0  0  0  0  0  0  0  0
   35.5190   30.1050   33.3620 C   0  0  0  0  0  0  0  0  0  0  0  0
   35.3440   30.7770   32.1600 C   0  0  0  0  0  0  0  0  0  0  0  0
   35.8260   30.2430   30.9710 C   0  0  0  0  0  0  0  0  0  0  0  0
   36.4800   29.0580   30.9330 C   0  0  0  0  0  0  0  0  0  0  0  0
   36.6720   28.3580   32.1160 C   0  0  0  0  0  0  0  0  0  0  0  0
   34.8210   31.7290   32.1740 H   0  0  0  0  0  0  0  0  0  0  0  0
   35.6490   30.8320   30.0720 H   0  0  0  0  0  0  0  0  0  0  0  0
   36.8310   28.6970   29.9750 H   0  0  0  0  0  0  0  0  0  0  0  0
   35.8480   31.4440   35.4340 C   0  0  0  0  0  0  0  0  0  0  0  0
   35.0090   30.6710   34.6140 C   0  0  0  0  0  0  0  0  0  0  0  0
   33.7040   30.4520   35.0040 C   0  0  0  0  0  0  0  0  0  0  0  0
   33.2960   31.0060   36.1770 N   0  0  0  0  0  0  0  0  0  0  0  0
   34.0900   31.7360   36.9520 C   0  0  0  0  0  0  0  0  0  0  0  0
   35.3570   31.9550   36.5860 N   0  0  0  0  0  0  0  0  0  0  0  0
   36.8720   31.6380   35.1670 H   0  0  0  0  0  0  0  0  0  0  0  0
   33.1080   29.8560   34.3410 H   0  0  0  0  0  0  0  0  0  0  0  0
   33.5630   32.0750   37.8310 H   0  0  0  0  0  0  0  0  0  0  0  0
   37.3380   27.1590   32.0440 O   0  0  0  0  0  0  0  0  0  0  0  0
   36.7880   25.9140   31.8650 C   0  0  0  0  0  0  0  0  0  0  0  0
   35.6470   25.4590   31.2390 C   0  0  0  0  0  3  0  0  0  0  0  0
   35.3500   24.1250   31.2190 C   0  0  0  0  0  0  0  0  0  0  0  0
   34.4380   23.8420   30.7100 H   0  0  0  0  0  0  0  0  0  0  0  0
   36.1390   23.2110   31.7970 N   0  0  0  0  0  0  0  0  0  0  0  0
   37.2610   23.6590   32.4110 C   0  0  0  0  0  3  0  0  0  0  0  0
   37.5930   24.9780   32.4530 N   0  0  0  0  0  0  0  0  0  0  0  0
  2  3  1  0  0  0  0
  2  1  1  0  0  0  0
  3 12  1  0  0  0  0
  4  8  1  0  0  0  0
  4  3  2  0  0  0  0
  5  4  1  0  0  0  0
  6  5  2  0  0  0  0
  6  7  1  0  0  0  0
  7  2  2  0  0  0  0
  9  5  1  0  0  0  0
 10  6  1  0  0  0  0
 11 16  1  0  0  0  0
 12 13  1  0  0  0  0
 12 11  2  0  0  0  0
 13 14  2  0  0  0  0
 14 15  1  0  0  0  0
 15 19  1  0  0  0  0
 16 15  2  0  0  0  0
 17 11  1  0  0  0  0
 18 13  1  0  0  0  0
 20  7  1  0  0  0  0
 21 20  1  0  0  0  0
 21 27  1  0  0  0  0
 22 21  2  0  0  0  0
 23 22  1  0  0  0  0
 23 25  2  0  0  0  0
 24 23  1  0  0  0  0
 25 26  1  0  0  0  0
 26 27  2  0  0  0  0
M  END
>  <minimizedAffinity>
-4.96475792

$$$$

 OpenBabel03272505033D

 27 29  0  0  0  0  0  0  0  0999 V2000
   34.5280   25.2720   30.5980 Cl  0  0  0  0  0  0  0  0  0  0  0  0
   36.0070   24.9300   31.4940 C   0  0  0  0  0  0  0  0  0  0  0  0
   36.7820   25.9900   31.8850 C   0  0  0  0  0  0  0  0  0  0  0  0
   37.9190   25.6410   32.6020 C   0  0  0  0  0  0  0  0  0  0  0  0
   38.2050   24.3090   32.8770 C   0  0  0  0  0  0  0  0  0  0  0  0
   37.3970   23.3040   32.4630 C   0  0  0  0  0  0  0  0  0  0  0  0
   36.2520   23.6150   31.7430 C   0  0  0  0  0  0  0  0  0  0  0  0
   38.5770   26.4360   32.9410 H   0  0  0  0  0  0  0  0  0  0  0  0
   39.1150   24.1200   33.4440 H   0  0  0  0  0  0  0  0  0  0  0  0
   37.6770   22.2890   32.7100 H   0  0  0  0  0  0  0  0  0  0  0  0
   35.8340   28.1910   32.5550 C   0  0  0  0  0  0  0  0  0  0  0  0
   36.4830   27.3950   31.5970 C   0  0  0  0  0  0  0  0  0  0  0  0
   36.8330   27.9530   30.3850 C   0  0  0  0  0  0  0  0  0  0  0  0
   36.5260   29.2620   30.1830 N   0  0  0  0  0  0  0  0  0  0  0  0
   35.9110   30.0140   31.0890 C   0  0  0  0  0  0  0  0  0  0  0  0
   35.5670   29.4850   32.2670 N   0  0  0  0  0  0  0  0  0  0  0  0
   35.5440   27.7950   33.5120 H   0  0  0  0  0  0  0  0  0  0  0  0
   37.3260   27.3010   29.6910 H   0  0  0  0  0  0  0  0  0  0  0  0
   35.7670   31.0180   30.7210 H   0  0  0  0  0  0  0  0  0  0  0  0
   35.4540   22.5750   31.3370 O   0  0  0  0  0  0  0  0  0  0  0  0
   35.5700   21.2530   31.6920 C   0  0  0  0  0  0  0  0  0  0  0  0
   35.2250   20.5360   32.8180 C   0  0  0  0  0  3  0  0  0  0  0  0
   35.4670   19.1930   32.8890 C   0  0  0  0  0  0  0  0  0  0  0  0
   35.1690   18.6970   33.8040 H   0  0  0  0  0  0  0  0  0  0  0  0
   36.0430   18.5200   31.8860 N   0  0  0  0  0  0  0  0  0  0  0  0
   36.3830   19.2250   30.7790 C   0  0  0  0  0  3  0  0  0  0  0  0
   36.1580   20.5620   30.6680 N   0  0  0  0  0  0  0  0  0  0  0  0
  1  2  1  0  0  0  0
  2  7  2  0  0  0  0
  2  3  1  0  0  0  0
  3  4  2  0  0  0  0
  4  5  1  0  0  0  0
  4  8  1  0  0  0  0
  5  9  1  0  0  0  0
  6 10  1  0  0  0  0
  6  5  2  0  0  0  0
  7  6  1  0  0  0  0
 11 17  1  0  0  0  0
 12  3  1  0  0  0  0
 12 11  2  0  0  0  0
 13 12  1  0  0  0  0
 14 13  2  0  0  0  0
 14 15  1  0  0  0  0
 15 16  2  0  0  0  0
 16 11  1  0  0  0  0
 18 13  1  0  0  0  0
 19 15  1  0  0  0  0
 20 21  1  0  0  0  0
 20  7  1  0  0  0  0
 21 22  1  0  0  0  0
 22 23  2  0  0  0  0
 23 24  1  0  0  0  0
 25 23  1  0  0  0  0
 26 25  2  0  0  0  0
 27 26  1  0  0  0  0
 27 21  2  0  0  0  0
M  END
>  <minimizedAffinity>
-4.87027216

$$$$

 OpenBabel03272505033D

 27 29  0  0  0  0  0  0  0  0999 V2000
   37.8310   24.1960   32.7900 Cl  0  0  0  0  0  0  0  0  0  0  0  0
   38.0150   25.3480   34.1120 C   0  0  0  0  0  0  0  0  0  0  0  0
   37.8820   26.6820   33.8280 C   0  0  0  0  0  0  0  0  0  0  0  0
   38.0220   27.5230   34.9230 C   0  0  0  0  0  0  0  0  0  0  0  0
   38.2740   27.0070   36.1880 C   0  0  0  0  0  0  0  0  0  0  0  0
   38.3950   25.6760   36.4060 C   0  0  0  0  0  0  0  0  0  0  0  0
   38.2620   24.8040   35.3340 C   0  0  0  0  0  0  0  0  0  0  0  0
   37.9280   28.5940   34.7640 H   0  0  0  0  0  0  0  0  0  0  0  0
   38.3700   27.7340   36.9940 H   0  0  0  0  0  0  0  0  0  0  0  0
   38.5910   25.3390   37.4160 H   0  0  0  0  0  0  0  0  0  0  0  0
   38.6780   27.5080   31.6200 C   0  0  0  0  0  0  0  0  0  0  0  0
   37.6150   27.2290   32.4950 C   0  0  0  0  0  0  0  0  0  0  0  0
   36.3220   27.4770   32.0830 C   0  0  0  0  0  0  0  0  0  0  0  0
   36.1460   27.9850   30.8340 N   0  0  0  0  0  0  0  0  0  0  0  0
   37.1520   28.2500   30.0070 C   0  0  0  0  0  0  0  0  0  0  0  0
   38.4090   28.0140   30.3940 N   0  0  0  0  0  0  0  0  0  0  0  0
   39.7010   27.3300   31.9010 H   0  0  0  0  0  0  0  0  0  0  0  0
   35.5500   27.2450   32.7900 H   0  0  0  0  0  0  0  0  0  0  0  0
   36.7860   28.6450   29.0720 H   0  0  0  0  0  0  0  0  0  0  0  0
   38.3890   23.4610   35.5880 O   0  0  0  0  0  0  0  0  0  0  0  0
   39.5170   22.7990   36.0070 C   0  0  0  0  0  0  0  0  0  0  0  0
   40.0000   22.4320   37.2440 C   0  0  0  0  0  3  0  0  0  0  0  0
   41.1850   21.7600   37.3570 C   0  0  0  0  0  0  0  0  0  0  0  0
   41.5010   21.5050   38.3610 H   0  0  0  0  0  0  0  0  0  0  0  0
   41.9220   21.4320   36.2890 N   0  0  0  0  0  0  0  0  0  0  0  0
   41.4460   21.7930   35.0720 C   0  0  0  0  0  3  0  0  0  0  0  0
   40.2710   22.4610   34.9170 N   0  0  0  0  0  0  0  0  0  0  0  0
  1  2  1  0  0  0  0
  2  7  1  0  0  0  0
  3  2  2  0  0  0  0
  3  4  1  0  0  0  0
  4  5  2  0  0  0  0
  5  6  1  0  0  0  0
  5  9  1  0  0  0  0
  6 10  1  0  0  0  0
  7 20  1  0  0  0  0
  7  6  2  0  0  0  0
  8  4  1  0  0  0  0
 11 17  1  0  0  0  0
 11 12  1  0  0  0  0
 12  3  1  0  0  0  0
 13 12  2  0  0  0  0
 13 18  1  0  0  0  0
 14 13  1  0  0  0  0
 15 16  1  0  0  0  0
 15 14  2  0  0  0  0
 16 11  2  0  0  0  0
 19 15  1  0  0  0  0
 20 21  1  0  0  0  0
 21 22  1  0  0  0  0
 22 23  2  0  0  0  0
 23 24  1  0  0  0  0
 25 23  1  0  0  0  0
 26 25  2  0  0  0  0
 27 26  1  0  0  0  0
 27 21  2  0  0  0  0
M  END
>  <minimizedAffinity>
-4.85032606

$$$$

 OpenBabel03272505033D

 27 29  0  0  0  0  0  0  0  0999 V2000
   38.8240   26.8980   35.2550 Cl  0  0  0  0  0  0  0  0  0  0  0  0
   38.4250   25.5990   34.1310 C   0  0  0  0  0  0  0  0  0  0  0  0
   38.3230   24.3260   34.6280 C   0  0  0  0  0  0  0  0  0  0  0  0
   37.9880   23.3630   33.6860 C   0  0  0  0  0  0  0  0  0  0  0  0
   37.7800   23.7110   32.3560 C   0  0  0  0  0  0  0  0  0  0  0  0
   37.8950   24.9900   31.9260 C   0  0  0  0  0  0  0  0  0  0  0  0
   38.2300   25.9790   32.8400 C   0  0  0  0  0  0  0  0  0  0  0  0
   37.8930   22.3330   34.0150 H   0  0  0  0  0  0  0  0  0  0  0  0
   37.5200   22.8970   31.6810 H   0  0  0  0  0  0  0  0  0  0  0  0
   37.7200   25.1940   30.8780 H   0  0  0  0  0  0  0  0  0  0  0  0
   37.5650   24.2450   36.9960 C   0  0  0  0  0  0  0  0  0  0  0  0
   38.5410   23.9560   36.0280 C   0  0  0  0  0  0  0  0  0  0  0  0
   39.7040   23.3220   36.4150 C   0  0  0  0  0  0  0  0  0  0  0  0
   39.8420   23.0080   37.7300 N   0  0  0  0  0  0  0  0  0  0  0  0
   38.9190   23.2820   38.6450 C   0  0  0  0  0  0  0  0  0  0  0  0
   37.7880   23.8960   38.2840 N   0  0  0  0  0  0  0  0  0  0  0  0
   36.6440   24.7380   36.7370 H   0  0  0  0  0  0  0  0  0  0  0  0
   40.4150   23.1260   35.6360 H   0  0  0  0  0  0  0  0  0  0  0  0
   39.2330   22.9450   39.6210 H   0  0  0  0  0  0  0  0  0  0  0  0
   38.3390   27.2660   32.3720 O   0  0  0  0  0  0  0  0  0  0  0  0
   37.3140   28.1320   32.0820 C   0  0  0  0  0  0  0  0  0  0  0  0
   36.1590   28.4940   32.7410 C   0  0  0  0  0  3  0  0  0  0  0  0
   35.3040   29.4100   32.1950 C   0  0  0  0  0  0  0  0  0  0  0  0
   34.4170   29.6440   32.7700 H   0  0  0  0  0  0  0  0  0  0  0  0
   35.5420   29.9880   31.0120 N   0  0  0  0  0  0  0  0  0  0  0  0
   36.6780   29.6330   30.3640 C   0  0  0  0  0  3  0  0  0  0  0  0
   37.5560   28.7260   30.8740 N   0  0  0  0  0  0  0  0  0  0  0  0
  2  3  1  0  0  0  0
  2  1  1  0  0  0  0
  3 12  1  0  0  0  0
  4  8  1  0  0  0  0
  4  3  2  0  0  0  0
  5  4  1  0  0  0  0
  6  5  2  0  0  0  0
  6  7  1  0  0  0  0
  7  2  2  0  0  0  0
  9  5  1  0  0  0  0
 10  6  1  0  0  0  0
 11 16  1  0  0  0  0
 12 13  1  0  0  0  0
 12 11  2  0  0  0  0
 13 14  2  0  0  0  0
 14 15  1  0  0  0  0
 15 19  1  0  0  0  0
 16 15  2  0  0  0  0
 17 11  1  0  0  0  0
 18 13  1  0  0  0  0
 20  7  1  0  0  0  0
 21 20  1  0  0  0  0
 21 22  1  0  0  0  0
 23 22  2  0  0  0  0
 23 24  1  0  0  0  0
 25 23  1  0  0  0  0
 26 27  1  0  0  0  0
 26 25  2  0  0  0  0
 27 21  2  0  0  0  0
M  END
>  <minimizedAffinity>
-4.82272339

$$$$

 OpenBabel03272505033D

 27 29  0  0  0  0  0  0  0  0999 V2000
   38.5270   27.1630   32.9100 Cl  0  0  0  0  0  0  0  0  0  0  0  0
   37.3270   26.0510   32.2520 C   0  0  0  0  0  0  0  0  0  0  0  0
   36.2480   26.5830   31.5950 C   0  0  0  0  0  0  0  0  0  0  0  0
   35.3590   25.6440   31.0910 C   0  0  0  0  0  0  0  0  0  0  0  0
   35.5870   24.2840   31.2620 C   0  0  0  0  0  0  0  0  0  0  0  0
   36.6750   23.8200   31.9220 C   0  0  0  0  0  0  0  0  0  0  0  0
   37.5860   24.7290   32.4410 C   0  0  0  0  0  0  0  0  0  0  0  0
   34.4810   26.0010   30.5600 H   0  0  0  0  0  0  0  0  0  0  0  0
   34.8430   23.6130   30.8360 H   0  0  0  0  0  0  0  0  0  0  0  0
   36.7950   22.7480   32.0210 H   0  0  0  0  0  0  0  0  0  0  0  0
   35.1750   28.7120   32.3080 C   0  0  0  0  0  0  0  0  0  0  0  0
   36.0050   28.0160   31.4130 C   0  0  0  0  0  0  0  0  0  0  0  0
   36.5840   28.6990   30.3630 C   0  0  0  0  0  0  0  0  0  0  0  0
   36.3160   30.0270   30.2520 N   0  0  0  0  0  0  0  0  0  0  0  0
   35.5300   30.6840   31.0980 C   0  0  0  0  0  0  0  0  0  0  0  0
   34.9630   30.0340   32.1190 N   0  0  0  0  0  0  0  0  0  0  0  0
   34.7040   28.2170   33.1390 H   0  0  0  0  0  0  0  0  0  0  0  0
   37.2080   28.1190   29.7110 H   0  0  0  0  0  0  0  0  0  0  0  0
   35.4560   31.7250   30.8240 H   0  0  0  0  0  0  0  0  0  0  0  0
   38.6780   24.2270   33.1040 O   0  0  0  0  0  0  0  0  0  0  0  0
   38.7050   23.6820   34.3650 C   0  0  0  0  0  0  0  0  0  0  0  0
   39.2070   22.5080   34.8830 C   0  0  0  0  0  3  0  0  0  0  0  0
   39.0850   22.2270   36.2150 C   0  0  0  0  0  0  0  0  0  0  0  0
   39.5030   21.2860   36.5490 H   0  0  0  0  0  0  0  0  0  0  0  0
   38.4830   23.0650   37.0660 N   0  0  0  0  0  0  0  0  0  0  0  0
   37.9900   24.2200   36.5570 C   0  0  0  0  0  3  0  0  0  0  0  0
   38.0910   24.5370   35.2380 N   0  0  0  0  0  0  0  0  0  0  0  0
  2  7  1  0  0  0  0
  2  1  1  0  0  0  0
  3  2  2  0  0  0  0
  4  5  2  0  0  0  0
  4  3  1  0  0  0  0
  5  6  1  0  0  0  0
  6 10  1  0  0  0  0
  6  7  2  0  0  0  0
  7 20  1  0  0  0  0
  8  4  1  0  0  0  0
  9  5  1  0  0  0  0
 11 17  1  0  0  0  0
 12  3  1  0  0  0  0
 12 11  2  0  0  0  0
 13 12  1  0  0  0  0
 14 13  2  0  0  0  0
 14 15  1  0  0  0  0
 15 16  2  0  0  0  0
 16 11  1  0  0  0  0
 18 13  1  0  0  0  0
 19 15  1  0  0  0  0
 20 21  1  0  0  0  0
 21 22  2  0  0  0  0
 21 27  1  0  0  0  0
 22 23  1  0  0  0  0
 23 24  1  0  0  0  0
 23 25  2  0  0  0  0
 26 25  1  0  0  0  0
 27 26  2  0  0  0  0
M  END
>  <minimizedAffinity>
-4.79279852

$$$$

 OpenBabel03272505033D

 27 29  0  0  0  0  0  0  0  0999 V2000
   38.6250   26.9910   35.4880 Cl  0  0  0  0  0  0  0  0  0  0  0  0
   38.0460   25.9040   34.2260 C   0  0  0  0  0  0  0  0  0  0  0  0
   38.2030   24.5560   34.4150 C   0  0  0  0  0  0  0  0  0  0  0  0
   37.7050   23.7660   33.3870 C   0  0  0  0  0  0  0  0  0  0  0  0
   37.1020   24.3430   32.2760 C   0  0  0  0  0  0  0  0  0  0  0  0
   36.9760   25.6850   32.1470 C   0  0  0  0  0  0  0  0  0  0  0  0
   37.4630   26.5060   33.1540 C   0  0  0  0  0  0  0  0  0  0  0  0
   37.7990   22.6880   33.4760 H   0  0  0  0  0  0  0  0  0  0  0  0
   36.7380   23.6540   31.5150 H   0  0  0  0  0  0  0  0  0  0  0  0
   36.4970   26.0710   31.2570 H   0  0  0  0  0  0  0  0  0  0  0  0
   40.1850   23.5510   35.5350 C   0  0  0  0  0  0  0  0  0  0  0  0
   38.8370   23.9450   35.5860 C   0  0  0  0  0  0  0  0  0  0  0  0
   38.1220   23.7490   36.7500 C   0  0  0  0  0  0  0  0  0  0  0  0
   38.7720   23.1770   37.7980 N   0  0  0  0  0  0  0  0  0  0  0  0
   40.0470   22.8030   37.7490 C   0  0  0  0  0  0  0  0  0  0  0  0
   40.7500   22.9880   36.6270 N   0  0  0  0  0  0  0  0  0  0  0  0
   40.7770   23.6860   34.6480 H   0  0  0  0  0  0  0  0  0  0  0  0
   37.0990   24.0680   36.7330 H   0  0  0  0  0  0  0  0  0  0  0  0
   40.3570   22.3740   38.6890 H   0  0  0  0  0  0  0  0  0  0  0  0
   37.3200   27.8620   32.9940 O   0  0  0  0  0  0  0  0  0  0  0  0
   36.2230   28.6240   33.3140 C   0  0  0  0  0  0  0  0  0  0  0  0
   35.7230   29.1220   34.4980 C   0  0  0  0  0  3  0  0  0  0  0  0
   34.5800   29.8710   34.5110 C   0  0  0  0  0  0  0  0  0  0  0  0
   34.2480   30.2280   35.4770 H   0  0  0  0  0  0  0  0  0  0  0  0
   33.9020   30.1530   33.3920 N   0  0  0  0  0  0  0  0  0  0  0  0
   34.3940   29.6640   32.2280 C   0  0  0  0  0  3  0  0  0  0  0  0
   35.5290   28.9140   32.1730 N   0  0  0  0  0  0  0  0  0  0  0  0
  2  3  1  0  0  0  0
  2  1  1  0  0  0  0
  3 12  1  0  0  0  0
  4  8  1  0  0  0  0
  4  3  2  0  0  0  0
  5  4  1  0  0  0  0
  6  5  2  0  0  0  0
  6  7  1  0  0  0  0
  7  2  2  0  0  0  0
  9  5  1  0  0  0  0
 10  6  1  0  0  0  0
 11 12  2  0  0  0  0
 11 16  1  0  0  0  0
 12 13  1  0  0  0  0
 13 14  2  0  0  0  0
 15 14  1  0  0  0  0
 15 19  1  0  0  0  0
 16 15  2  0  0  0  0
 17 11  1  0  0  0  0
 18 13  1  0  0  0  0
 20  7  1  0  0  0  0
 20 21  1  0  0  0  0
 21 22  1  0  0  0  0
 22 23  2  0  0  0  0
 23 24  1  0  0  0  0
 25 23  1  0  0  0  0
 26 25  2  0  0  0  0
 27 26  1  0  0  0  0
 27 21  2  0  0  0  0
M  END
>  <minimizedAffinity>
-4.72442389

$$$$

 OpenBabel03272505033D

 27 29  0  0  0  0  0  0  0  0999 V2000
   37.6260   24.6900   32.0940 Cl  0  0  0  0  0  0  0  0  0  0  0  0
   37.9130   25.4620   33.6530 C   0  0  0  0  0  0  0  0  0  0  0  0
   37.7220   26.8160   33.7470 C   0  0  0  0  0  0  0  0  0  0  0  0
   37.9490   27.3460   35.0100 C   0  0  0  0  0  0  0  0  0  0  0  0
   38.3370   26.5290   36.0650 C   0  0  0  0  0  0  0  0  0  0  0  0
   38.5090   25.1940   35.9090 C   0  0  0  0  0  0  0  0  0  0  0  0
   38.2920   24.6290   34.6600 C   0  0  0  0  0  0  0  0  0  0  0  0
   37.8150   28.4150   35.1500 H   0  0  0  0  0  0  0  0  0  0  0  0
   38.4940   27.0220   37.0220 H   0  0  0  0  0  0  0  0  0  0  0  0
   38.8120   24.6140   36.7710 H   0  0  0  0  0  0  0  0  0  0  0  0
   36.0250   28.2410   32.6140 C   0  0  0  0  0  0  0  0  0  0  0  0
   37.3130   27.6800   32.6360 C   0  0  0  0  0  0  0  0  0  0  0  0
   38.1830   27.9520   31.6010 C   0  0  0  0  0  0  0  0  0  0  0  0
   37.7390   28.7610   30.6030 N   0  0  0  0  0  0  0  0  0  0  0  0
   36.5210   29.2910   30.5820 C   0  0  0  0  0  0  0  0  0  0  0  0
   35.6680   29.0350   31.5790 N   0  0  0  0  0  0  0  0  0  0  0  0
   35.3160   28.0530   33.4010 H   0  0  0  0  0  0  0  0  0  0  0  0
   39.1520   27.4990   31.6690 H   0  0  0  0  0  0  0  0  0  0  0  0
   36.3810   29.8990   29.7010 H   0  0  0  0  0  0  0  0  0  0  0  0
   38.4750   23.2740   34.5350 O   0  0  0  0  0  0  0  0  0  0  0  0
   37.5010   22.3080   34.4810 C   0  0  0  0  0  0  0  0  0  0  0  0
   36.9030   21.6170   33.4480 C   0  0  0  0  0  3  0  0  0  0  0  0
   35.9370   20.6850   33.7030 C   0  0  0  0  0  0  0  0  0  0  0  0
   35.5120   20.1830   32.8420 H   0  0  0  0  0  0  0  0  0  0  0  0
   35.5310   20.4020   34.9460 N   0  0  0  0  0  0  0  0  0  0  0  0
   36.1200   21.0800   35.9610 C   0  0  0  0  0  3  0  0  0  0  0  0
   37.0860   22.0150   35.7500 N   0  0  0  0  0  0  0  0  0  0  0  0
  1  2  1  0  0  0  0
  2  3  2  0  0  0  0
  2  7  1  0  0  0  0
  3  4  1  0  0  0  0
  4  8  1  0  0  0  0
  4  5  2  0  0  0  0
  5  9  1  0  0  0  0
  6  5  1  0  0  0  0
  6 10  1  0  0  0  0
  7  6  2  0  0  0  0
 11 12  1  0  0  0  0
 11 17  1  0  0  0  0
 12  3  1  0  0  0  0
 13 18  1  0  0  0  0
 13 12  2  0  0  0  0
 14 13  1  0  0  0  0
 15 14  2  0  0  0  0
 15 16  1  0  0  0  0
 16 11  2  0  0  0  0
 19 15  1  0  0  0  0
 20  7  1  0  0  0  0
 21 20  1  0  0  0  0
 21 27  1  0  0  0  0
 22 23  1  0  0  0  0
 22 21  2  0  0  0  0
 23 25  2  0  0  0  0
 24 23  1  0  0  0  0
 25 26  1  0  0  0  0
 27 26  2  0  0  0  0
M  END
>  <minimizedAffinity>
-4.70965958

$$$$

 OpenBabel03272505033D

 27 29  0  0  0  0  0  0  0  0999 V2000
   38.1380   24.1080   32.9250 Cl  0  0  0  0  0  0  0  0  0  0  0  0
   37.9990   25.5120   33.9830 C   0  0  0  0  0  0  0  0  0  0  0  0
   38.6030   25.4560   35.2110 C   0  0  0  0  0  0  0  0  0  0  0  0
   38.4650   26.6050   35.9770 C   0  0  0  0  0  0  0  0  0  0  0  0
   37.7610   27.7020   35.4930 C   0  0  0  0  0  0  0  0  0  0  0  0
   37.1850   27.6960   34.2670 C   0  0  0  0  0  0  0  0  0  0  0  0
   37.3020   26.5640   33.4740 C   0  0  0  0  0  0  0  0  0  0  0  0
   38.9210   26.6240   36.9620 H   0  0  0  0  0  0  0  0  0  0  0  0
   37.6990   28.5640   36.1550 H   0  0  0  0  0  0  0  0  0  0  0  0
   36.6510   28.5830   33.9490 H   0  0  0  0  0  0  0  0  0  0  0  0
   40.7000   24.1280   35.3930 C   0  0  0  0  0  0  0  0  0  0  0  0
   39.3460   24.3020   35.7240 C   0  0  0  0  0  0  0  0  0  0  0  0
   38.7280   23.3720   36.5350 C   0  0  0  0  0  0  0  0  0  0  0  0
   39.4750   22.3260   36.9760 N   0  0  0  0  0  0  0  0  0  0  0  0
   40.7560   22.1620   36.6620 C   0  0  0  0  0  0  0  0  0  0  0  0
   41.3660   23.0550   35.8760 N   0  0  0  0  0  0  0  0  0  0  0  0
   41.2200   24.8290   34.7630 H   0  0  0  0  0  0  0  0  0  0  0  0
   37.6940   23.5540   36.7560 H   0  0  0  0  0  0  0  0  0  0  0  0
   41.1520   21.2680   37.1180 H   0  0  0  0  0  0  0  0  0  0  0  0
   36.7070   26.5900   32.2370 O   0  0  0  0  0  0  0  0  0  0  0  0
   37.0730   27.3540   31.1560 C   0  0  0  0  0  0  0  0  0  0  0  0
   36.5150   28.4500   30.5330 C   0  0  0  0  0  3  0  0  0  0  0  0
   37.1220   29.0180   29.4480 C   0  0  0  0  0  0  0  0  0  0  0  0
   36.6260   29.8750   29.0110 H   0  0  0  0  0  0  0  0  0  0  0  0
   38.2680   28.5440   28.9450 N   0  0  0  0  0  0  0  0  0  0  0  0
   38.8170   27.4660   29.5580 C   0  0  0  0  0  3  0  0  0  0  0  0
   38.2450   26.8730   30.6410 N   0  0  0  0  0  0  0  0  0  0  0  0
  1  2  1  0  0  0  0
  2  3  1  0  0  0  0
  3 12  1  0  0  0  0
  3  4  2  0  0  0  0
  4  8  1  0  0  0  0
  5  4  1  0  0  0  0
  5  9  1  0  0  0  0
  6  5  2  0  0  0  0
  7  2  2  0  0  0  0
  7  6  1  0  0  0  0
 10  6  1  0  0  0  0
 11 12  2  0  0  0  0
 11 16  1  0  0  0  0
 12 13  1  0  0  0  0
 13 18  1  0  0  0  0
 13 14  2  0  0  0  0
 15 14  1  0  0  0  0
 15 19  1  0  0  0  0
 16 15  2  0  0  0  0
 17 11  1  0  0  0  0
 20  7  1  0  0  0  0
 21 20  1  0  0  0  0
 22 21  2  0  0  0  0
 23 22  1  0  0  0  0
 24 23  1  0  0  0  0
 25 23  2  0  0  0  0
 25 26  1  0  0  0  0
 26 27  2  0  0  0  0
 27 21  1  0  0  0  0
M  END
>  <minimizedAffinity>
-4.70443869

$$$$
