
 OpenBabel03272510013D

 19 20  0  0  0  0  0  0  0  0999 V2000
   38.3190   31.2570   50.2810 C   0  0  0  0  0  0  0  0  0  0  0  0
   38.4570   31.5380   48.9100 C   0  0  0  0  0  0  0  0  0  0  0  0
   37.4590   31.0710   48.0690 C   0  0  0  0  0  0  0  0  0  0  0  0
   36.4140   30.3790   48.5840 N   0  0  0  0  0  0  0  0  0  0  0  0
   36.3200   30.1310   49.9110 C   0  0  0  0  0  0  0  0  0  0  0  0
   37.2650   30.5670   50.7500 N   0  0  0  0  0  0  0  0  0  0  0  0
   39.0760   31.6050   50.9730 H   0  0  0  0  0  0  0  0  0  0  0  0
   39.3130   32.0960   48.5520 H   0  0  0  0  0  0  0  0  0  0  0  0
   37.5410   31.3260   46.6340 C   0  0  0  0  0  0  0  0  0  0  0  0
   38.4090   32.2870   46.1580 C   0  0  0  0  0  3  0  0  0  0  0  0
   38.4330   32.4770   44.7900 C   0  0  0  0  0  0  0  0  0  0  0  0
   39.1000   33.2170   44.3940 H   0  0  0  0  0  0  0  0  0  0  0  0
   37.6330   31.7390   44.0060 N   0  0  0  0  0  0  0  0  0  0  0  0
   36.7890   30.8060   44.4540 C   0  0  0  0  0  3  0  0  0  0  0  0
   36.7620   30.6190   45.7990 N   0  0  0  0  0  0  0  0  0  0  0  0
   35.1420   29.3650   50.3900 C   0  0  0  0  0  0  0  0  0  0  0  0
   35.2040   29.0940   51.7510 F   0  0  0  0  0  0  0  0  0  0  0  0
   33.9690   30.0710   50.1790 F   0  0  0  0  0  0  0  0  0  0  0  0
   34.9780   28.1650   49.7380 F   0  0  0  0  0  0  0  0  0  0  0  0
  1  6  1  0  0  0  0
  1  7  1  0  0  0  0
  2  1  2  0  0  0  0
  3  4  2  0  0  0  0
  3  2  1  0  0  0  0
  4  5  1  0  0  0  0
  5 16  1  0  0  0  0
  5  6  2  0  0  0  0
  8  2  1  0  0  0  0
  9  3  1  0  0  0  0
 10  9  1  0  0  0  0
 11 10  2  0  0  0  0
 12 11  1  0  0  0  0
 13 14  2  0  0  0  0
 13 11  1  0  0  0  0
 14 15  1  0  0  0  0
 15  9  2  0  0  0  0
 16 17  1  0  0  0  0
 18 16  1  0  0  0  0
 19 16  1  0  0  0  0
M  END
>  <minimizedAffinity>
-5.36232948

>  <minimizedRMSD>
0.423543304

$$$$
