
     RDKit          3D

 24 25  0  0  0  0  0  0  0  0999 V2000
   37.3373   30.1579   51.3425 C   0  0  0  0  0  0  0  0  0  0  0  0
   37.9968   30.5100   50.1728 C   0  0  0  0  0  0  0  0  0  0  0  0
   37.4235   30.1477   48.9640 C   0  0  0  0  0  0  0  0  0  0  0  0
   36.2439   29.4655   48.9898 N   0  0  0  0  0  0  0  0  0  0  0  0
   35.6338   29.1416   50.1582 C   0  0  0  0  0  0  0  0  0  0  0  0
   36.1836   29.4895   51.3267 N   0  0  0  0  0  0  0  0  0  0  0  0
   37.8652   30.3713   47.6934 O   0  0  0  0  0  0  0  0  0  0  0  0
   39.0570   32.7349   48.1491 O   0  0  0  0  0  0  0  0  0  0  0  0
   38.7014   31.7103   47.1072 P   0  0  2  0  0  0  0  0  0  0  0  0
   37.8280   32.4625   45.8516 O   0  0  0  0  0  0  0  0  0  0  0  0
   40.1496   31.1809   46.3976 O   0  0  0  0  0  0  0  0  0  0  0  0
   37.8598   30.4830   52.2297 H   0  0  0  0  0  0  0  0  0  0  0  0
   38.9211   31.0422   50.0668 H   0  0  0  0  0  0  0  0  0  0  0  0
   34.6900   28.5954   50.1730 H   0  0  0  0  0  0  0  0  0  0  0  0
   37.7964   33.4399   45.9998 H   0  0  0  0  0  0  0  0  0  0  0  0
   40.3181   30.0334   45.6628 C   0  0  0  0  0  0  0  0  0  0  0  0
   40.1188   28.7264   46.0349 C   0  0  0  0  0  0  0  0  0  0  0  0
   40.3429   27.6875   45.1484 C   0  0  0  0  0  0  0  0  0  0  0  0
   40.1693   26.6669   45.4941 H   0  0  0  0  0  0  0  0  0  0  0  0
   40.7673   27.9590   43.8877 N   0  0  0  0  0  0  0  0  0  0  0  0
   40.9546   29.2400   43.5481 C   0  0  0  0  0  0  0  0  0  0  0  0
   40.7420   30.2774   44.3988 N   0  0  0  0  0  0  0  0  0  0  0  0
   39.7825   28.6003   47.0501 H   0  0  0  0  0  0  0  0  0  0  0  0
   41.2945   29.4279   42.5330 H   0  0  0  0  0  0  0  0  0  0  0  0
  2  1  2  0
  3  4  2  0
  3  2  1  0
  4  5  1  0
  5  6  2  0
  6  1  1  0
  7  3  1  0
  9  7  1  1
  9  8  2  0
 10  9  1  0
 11  9  1  0
  1 12  1  0
  2 13  1  0
  5 14  1  0
 10 15  1  0
 16 17  2  0
 17 18  1  0
 18 19  1  0
 18 20  2  0
 20 21  1  0
 21 22  2  0
 22 16  1  0
 17 23  1  0
 21 24  1  0
 11 16  1  0
M  ISO  5  12  14  13  14  14  14  15   3  19  14
M  END
>  <DihAtoms>  (1) 
8,10,15,16

>  <DihDeg>  (1) 
-0.001326703271482288

$$$$
