
 OpenBabel03272504183D

 24 25  0  0  0  0  0  0  0  0999 V2000
   38.2550   26.1090   33.3880 O   0  0  0  0  0  0  0  0  0  0  0  0
   37.2720   25.5480   32.5860 C   0  0  0  0  0  0  0  0  0  0  0  0
   37.0520   24.1920   32.3760 C   0  0  0  0  0  0  0  0  0  0  0  0
   36.0200   23.8010   31.5380 C   0  0  0  0  0  0  0  0  0  0  0  0
   35.2470   24.7570   30.9430 N   0  0  0  0  0  0  0  0  0  0  0  0
   35.4960   26.0790   31.1750 C   0  0  0  0  0  0  0  0  0  0  0  0
   36.5020   26.4700   31.9910 N   0  0  0  0  0  0  0  0  0  0  0  0
   35.8860   22.7430   31.4050 H   0  0  0  0  0  0  0  0  0  0  0  0
   34.8650   26.8260   30.6880 H   0  0  0  0  0  0  0  0  0  0  0  0
   37.9400   23.3330   33.0670 N   0  0  0  0  0  0  0  0  0  0  0  0
   37.3120   22.6810   33.6040 H   0  0  0  0  0  0  0  0  0  0  0  0
   38.9810   23.3260   33.0620 H   0  0  0  0  0  0  0  0  0  0  0  0
   39.1470   27.2860   35.6340 O   0  0  0  0  0  0  0  0  0  0  0  0
   37.9060   26.7250   34.9650 P   0  0  1  0  0  0  0  0  0  0  0  0
   36.7280   27.9110   34.7610 O   0  0  0  0  0  0  0  0  0  0  0  0
   35.8320   27.5530   34.9110 H   0  0  0  0  0  0  0  0  0  0  0  0
   37.3610   25.4650   35.9460 O   0  0  0  0  0  0  0  0  0  0  0  0
   38.1770   24.5560   36.5830 C   0  0  0  0  0  0  0  0  0  0  0  0
   37.9810   24.3210   37.9320 C   0  0  0  0  0  3  0  0  0  0  0  0
   38.8200   23.3980   38.5490 C   0  0  0  0  0  0  0  0  0  0  0  0
   38.7290   23.1550   39.6170 H   0  0  0  0  0  0  0  0  0  0  0  0
   39.7770   22.7810   37.8180 N   0  0  0  0  0  0  0  0  0  0  0  0
   39.9530   23.0220   36.5110 C   0  0  0  0  0  3  0  0  0  0  0  0
   39.1510   23.9160   35.8800 N   0  0  0  0  0  0  0  0  0  0  0  0
  1 14  1  0  0  0  0
  2  1  1  0  0  0  0
  3  2  1  0  0  0  0
  3 10  1  0  0  0  0
  4  3  2  0  0  0  0
  5  6  2  0  0  0  0
  5  4  1  0  0  0  0
  6  7  1  0  0  0  0
  7  2  2  0  0  0  0
  8  4  1  0  0  0  0
  9  6  1  0  0  0  0
 10 11  1  0  0  0  0
 12 10  1  0  0  0  0
 14 13  2  1  0  0  0
 14 17  1  0  0  0  0
 15 16  1  0  0  0  0
 15 14  1  0  0  0  0
 17 18  1  0  0  0  0
 18 19  1  0  0  0  0
 19 20  2  0  0  0  0
 20 21  1  0  0  0  0
 22 20  1  0  0  0  0
 23 22  2  0  0  0  0
 24 23  1  0  0  0  0
 24 18  2  0  0  0  0
M  END
>  <minimizedAffinity>
-4.73880816

$$$$

 OpenBabel03272504183D

 24 25  0  0  0  0  0  0  0  0999 V2000
   37.9500   24.6540   35.9110 O   0  0  0  0  0  0  0  0  0  0  0  0
   39.0840   23.9510   36.2900 C   0  0  0  0  0  0  0  0  0  0  0  0
   39.2040   23.1080   37.3880 C   0  0  0  0  0  0  0  0  0  0  0  0
   40.4170   22.4810   37.6230 C   0  0  0  0  0  0  0  0  0  0  0  0
   41.4600   22.7080   36.7710 N   0  0  0  0  0  0  0  0  0  0  0  0
   41.3010   23.5440   35.7040 C   0  0  0  0  0  0  0  0  0  0  0  0
   40.1210   24.1610   35.4670 N   0  0  0  0  0  0  0  0  0  0  0  0
   40.4650   21.8370   38.4820 H   0  0  0  0  0  0  0  0  0  0  0  0
   42.1500   23.7100   35.0360 H   0  0  0  0  0  0  0  0  0  0  0  0
   38.0310   22.9800   38.1700 N   0  0  0  0  0  0  0  0  0  0  0  0
   37.8580   21.9430   38.2200 H   0  0  0  0  0  0  0  0  0  0  0  0
   37.4510   23.7260   38.6080 H   0  0  0  0  0  0  0  0  0  0  0  0
   36.7710   26.9140   35.0550 O   0  0  0  0  0  0  0  0  0  0  0  0
   38.0420   26.0910   34.9540 P   0  0  1  0  0  0  0  0  0  0  0  0
   39.3780   26.9490   35.5140 O   0  0  0  0  0  0  0  0  0  0  0  0
   40.1710   26.7670   34.9750 H   0  0  0  0  0  0  0  0  0  0  0  0
   38.2090   25.6660   33.3290 O   0  0  0  0  0  0  0  0  0  0  0  0
   37.3240   24.8770   32.6290 C   0  0  0  0  0  0  0  0  0  0  0  0
   37.5100   23.5070   32.6330 C   0  0  0  0  0  3  0  0  0  0  0  0
   36.6000   22.7350   31.9160 C   0  0  0  0  0  0  0  0  0  0  0  0
   36.6780   21.6400   31.8710 H   0  0  0  0  0  0  0  0  0  0  0  0
   35.5900   23.3470   31.2550 N   0  0  0  0  0  0  0  0  0  0  0  0
   35.4250   24.6770   31.2610 C   0  0  0  0  0  3  0  0  0  0  0  0
   36.2950   25.4560   31.9510 N   0  0  0  0  0  0  0  0  0  0  0  0
  1  2  1  0  0  0  0
  2  3  1  0  0  0  0
  3  4  2  0  0  0  0
  3 10  1  0  0  0  0
  4  8  1  0  0  0  0
  5  4  1  0  0  0  0
  6  5  2  0  0  0  0
  7  6  1  0  0  0  0
  7  2  2  0  0  0  0
  9  6  1  0  0  0  0
 10 11  1  0  0  0  0
 10 12  1  0  0  0  0
 14 13  2  1  0  0  0
 14 15  1  0  0  0  0
 14  1  1  0  0  0  0
 16 15  1  0  0  0  0
 17 14  1  0  0  0  0
 18 19  1  0  0  0  0
 18 17  1  0  0  0  0
 20 19  2  0  0  0  0
 21 20  1  0  0  0  0
 22 23  2  0  0  0  0
 22 20  1  0  0  0  0
 23 24  1  0  0  0  0
 24 18  2  0  0  0  0
M  END
>  <minimizedAffinity>
-4.60488129

$$$$

 OpenBabel03272504183D

 24 25  0  0  0  0  0  0  0  0999 V2000
   38.1440   24.7730   36.0140 O   0  0  0  0  0  0  0  0  0  0  0  0
   39.2180   23.9600   36.3490 C   0  0  0  0  0  0  0  0  0  0  0  0
   39.2740   23.0630   37.4090 C   0  0  0  0  0  0  0  0  0  0  0  0
   40.4310   22.3260   37.6030 C   0  0  0  0  0  0  0  0  0  0  0  0
   41.4820   22.4990   36.7490 N   0  0  0  0  0  0  0  0  0  0  0  0
   41.3870   23.3910   35.7200 C   0  0  0  0  0  0  0  0  0  0  0  0
   40.2610   24.1160   35.5230 N   0  0  0  0  0  0  0  0  0  0  0  0
   40.4310   21.6450   38.4340 H   0  0  0  0  0  0  0  0  0  0  0  0
   42.2410   23.5130   35.0490 H   0  0  0  0  0  0  0  0  0  0  0  0
   38.1010   23.0030   38.1990 N   0  0  0  0  0  0  0  0  0  0  0  0
   37.8400   21.9830   38.2080 H   0  0  0  0  0  0  0  0  0  0  0  0
   37.5910   23.7760   38.6750 H   0  0  0  0  0  0  0  0  0  0  0  0
   39.2380   27.2120   35.7280 O   0  0  0  0  0  0  0  0  0  0  0  0
   38.3410   26.1940   35.0490 P   0  0  1  0  0  0  0  0  0  0  0  0
   38.9870   25.6850   33.5800 O   0  0  0  0  0  0  0  0  0  0  0  0
   38.2900   25.5570   32.9090 H   0  0  0  0  0  0  0  0  0  0  0  0
   36.8400   26.9400   34.8470 O   0  0  0  0  0  0  0  0  0  0  0  0
   36.5720   27.9280   33.9260 C   0  0  0  0  0  0  0  0  0  0  0  0
   35.7800   28.9950   34.3100 C   0  0  0  0  0  3  0  0  0  0  0  0
   35.5250   29.9780   33.3580 C   0  0  0  0  0  0  0  0  0  0  0  0
   34.9070   30.8570   33.5850 H   0  0  0  0  0  0  0  0  0  0  0  0
   36.0530   29.8510   32.1180 N   0  0  0  0  0  0  0  0  0  0  0  0
   36.8180   28.8090   31.7630 C   0  0  0  0  0  3  0  0  0  0  0  0
   37.0850   27.8350   32.6690 N   0  0  0  0  0  0  0  0  0  0  0  0
  1  2  1  0  0  0  0
  2  3  1  0  0  0  0
  3  4  2  0  0  0  0
  3 10  1  0  0  0  0
  4  8  1  0  0  0  0
  5  4  1  0  0  0  0
  6  5  2  0  0  0  0
  7  6  1  0  0  0  0
  7  2  2  0  0  0  0
  9  6  1  0  0  0  0
 10 11  1  0  0  0  0
 10 12  1  0  0  0  0
 14 13  2  1  0  0  0
 14  1  1  0  0  0  0
 15 14  1  0  0  0  0
 16 15  1  0  0  0  0
 17 14  1  0  0  0  0
 18 19  1  0  0  0  0
 18 17  1  0  0  0  0
 20 21  1  0  0  0  0
 20 19  2  0  0  0  0
 22 20  1  0  0  0  0
 23 22  2  0  0  0  0
 23 24  1  0  0  0  0
 24 18  2  0  0  0  0
M  END
>  <minimizedAffinity>
-4.50405025

$$$$

 OpenBabel03272504183D

 24 25  0  0  0  0  0  0  0  0999 V2000
   38.9760   25.0090   34.8500 O   0  0  0  0  0  0  0  0  0  0  0  0
   39.0310   24.3040   36.0430 C   0  0  0  0  0  0  0  0  0  0  0  0
   40.0460   23.4450   36.4490 C   0  0  0  0  0  0  0  0  0  0  0  0
   39.9420   22.8180   37.6800 C   0  0  0  0  0  0  0  0  0  0  0  0
   38.8470   23.0600   38.4600 N   0  0  0  0  0  0  0  0  0  0  0  0
   37.8720   23.9090   38.0250 C   0  0  0  0  0  0  0  0  0  0  0  0
   37.9650   24.5260   36.8240 N   0  0  0  0  0  0  0  0  0  0  0  0
   40.7490   22.1630   37.9530 H   0  0  0  0  0  0  0  0  0  0  0  0
   37.0050   24.0870   38.6660 H   0  0  0  0  0  0  0  0  0  0  0  0
   41.1090   23.3050   35.5250 N   0  0  0  0  0  0  0  0  0  0  0  0
   41.9740   23.5310   36.0810 H   0  0  0  0  0  0  0  0  0  0  0  0
   41.0720   23.0400   34.5200 H   0  0  0  0  0  0  0  0  0  0  0  0
   38.8610   27.5550   35.7050 O   0  0  0  0  0  0  0  0  0  0  0  0
   39.5550   26.6320   34.7200 P   0  0  1  0  0  0  0  0  0  0  0  0
   41.2140   26.5690   35.0000 O   0  0  0  0  0  0  0  0  0  0  0  0
   41.7150   26.5250   34.1630 H   0  0  0  0  0  0  0  0  0  0  0  0
   39.2030   27.2260   33.1800 O   0  0  0  0  0  0  0  0  0  0  0  0
   37.9950   27.0750   32.5370 C   0  0  0  0  0  0  0  0  0  0  0  0
   37.8040   25.9620   31.7380 C   0  0  0  0  0  3  0  0  0  0  0  0
   36.5730   25.8360   31.1000 C   0  0  0  0  0  0  0  0  0  0  0  0
   36.3430   24.9810   30.4500 H   0  0  0  0  0  0  0  0  0  0  0  0
   35.6320   26.7910   31.2830 N   0  0  0  0  0  0  0  0  0  0  0  0
   35.8350   27.8640   32.0610 C   0  0  0  0  0  3  0  0  0  0  0  0
   37.0230   28.0150   32.6960 N   0  0  0  0  0  0  0  0  0  0  0  0
  1  2  1  0  0  0  0
  2  3  2  0  0  0  0
  2  7  1  0  0  0  0
  3  4  1  0  0  0  0
  4  8  1  0  0  0  0
  4  5  2  0  0  0  0
  6  5  1  0  0  0  0
  6  9  1  0  0  0  0
  7  6  2  0  0  0  0
 10 11  1  0  0  0  0
 10  3  1  0  0  0  0
 12 10  1  0  0  0  0
 14  1  1  0  0  0  0
 14 15  1  0  0  0  0
 14 13  2  1  0  0  0
 16 15  1  0  0  0  0
 17 14  1  0  0  0  0
 18 24  1  0  0  0  0
 18 17  1  0  0  0  0
 19 18  2  0  0  0  0
 20 22  2  0  0  0  0
 20 19  1  0  0  0  0
 21 20  1  0  0  0  0
 22 23  1  0  0  0  0
 23 24  2  0  0  0  0
M  END
>  <minimizedAffinity>
-4.47915936

$$$$

 OpenBabel03272504183D

 24 25  0  0  0  0  0  0  0  0999 V2000
   37.6690   25.3860   35.1490 O   0  0  0  0  0  0  0  0  0  0  0  0
   38.2020   24.5830   36.1460 C   0  0  0  0  0  0  0  0  0  0  0  0
   39.1520   23.5820   35.9810 C   0  0  0  0  0  0  0  0  0  0  0  0
   39.5780   22.8710   37.0910 C   0  0  0  0  0  0  0  0  0  0  0  0
   39.0550   23.1740   38.3160 N   0  0  0  0  0  0  0  0  0  0  0  0
   38.1240   24.1640   38.4360 C   0  0  0  0  0  0  0  0  0  0  0  0
   37.7010   24.8630   37.3570 N   0  0  0  0  0  0  0  0  0  0  0  0
   40.3130   22.1070   36.9170 H   0  0  0  0  0  0  0  0  0  0  0  0
   37.7200   24.3880   39.4260 H   0  0  0  0  0  0  0  0  0  0  0  0
   39.5920   23.3950   34.6480 N   0  0  0  0  0  0  0  0  0  0  0  0
   40.6400   23.4730   34.7030 H   0  0  0  0  0  0  0  0  0  0  0  0
   39.0280   23.2200   33.7910 H   0  0  0  0  0  0  0  0  0  0  0  0
   36.9680   27.9190   34.5860 O   0  0  0  0  0  0  0  0  0  0  0  0
   38.1460   27.0350   34.9500 P   0  0  1  0  0  0  0  0  0  0  0  0
   38.8430   27.5070   36.4070 O   0  0  0  0  0  0  0  0  0  0  0  0
   39.8150   27.4220   36.3820 H   0  0  0  0  0  0  0  0  0  0  0  0
   39.2400   27.1460   33.6690 O   0  0  0  0  0  0  0  0  0  0  0  0
   40.5960   26.9330   33.7730 C   0  0  0  0  0  0  0  0  0  0  0  0
   41.4370   27.5570   32.8690 C   0  0  0  0  0  3  0  0  0  0  0  0
   42.8020   27.3220   32.9980 C   0  0  0  0  0  0  0  0  0  0  0  0
   43.5360   27.7810   32.3210 H   0  0  0  0  0  0  0  0  0  0  0  0
   43.2440   26.5070   33.9850 N   0  0  0  0  0  0  0  0  0  0  0  0
   42.4140   25.9100   34.8530 C   0  0  0  0  0  3  0  0  0  0  0  0
   41.0780   26.1190   34.7530 N   0  0  0  0  0  0  0  0  0  0  0  0
  1  2  1  0  0  0  0
  2  7  1  0  0  0  0
  3  2  2  0  0  0  0
  3  4  1  0  0  0  0
  4  5  2  0  0  0  0
  5  6  1  0  0  0  0
  6  9  1  0  0  0  0
  7  6  2  0  0  0  0
  8  4  1  0  0  0  0
 10 11  1  0  0  0  0
 10  3  1  0  0  0  0
 12 10  1  0  0  0  0
 14 13  2  6  0  0  0
 14  1  1  0  0  0  0
 14 15  1  0  0  0  0
 16 15  1  0  0  0  0
 17 18  1  0  0  0  0
 17 14  1  0  0  0  0
 18 24  1  0  0  0  0
 19 20  1  0  0  0  0
 19 18  2  0  0  0  0
 20 22  2  0  0  0  0
 21 20  1  0  0  0  0
 22 23  1  0  0  0  0
 24 23  2  0  0  0  0
M  END
>  <minimizedAffinity>
-4.45161104

$$$$

 OpenBabel03272504183D

 24 25  0  0  0  0  0  0  0  0999 V2000
   38.6120   27.3140   33.4360 O   0  0  0  0  0  0  0  0  0  0  0  0
   38.7830   26.7150   32.1970 C   0  0  0  0  0  0  0  0  0  0  0  0
   38.0720   25.6280   31.7010 C   0  0  0  0  0  0  0  0  0  0  0  0
   38.3720   25.1510   30.4350 C   0  0  0  0  0  0  0  0  0  0  0  0
   39.3560   25.7610   29.7100 N   0  0  0  0  0  0  0  0  0  0  0  0
   40.0310   26.8250   30.2330 C   0  0  0  0  0  0  0  0  0  0  0  0
   39.7450   27.2970   31.4690 N   0  0  0  0  0  0  0  0  0  0  0  0
   37.7970   24.3100   30.0920 H   0  0  0  0  0  0  0  0  0  0  0  0
   40.8140   27.2960   29.6350 H   0  0  0  0  0  0  0  0  0  0  0  0
   37.0860   25.1130   32.5780 N   0  0  0  0  0  0  0  0  0  0  0  0
   36.2000   25.1160   32.0090 H   0  0  0  0  0  0  0  0  0  0  0  0
   37.1870   24.7980   33.5640 H   0  0  0  0  0  0  0  0  0  0  0  0
   40.9180   26.8300   34.7310 O   0  0  0  0  0  0  0  0  0  0  0  0
   39.4090   26.7260   34.8530 P   0  0  1  0  0  0  0  0  0  0  0  0
   38.8310   27.6450   36.1390 O   0  0  0  0  0  0  0  0  0  0  0  0
   38.0960   27.1950   36.5980 H   0  0  0  0  0  0  0  0  0  0  0  0
   39.0570   25.0870   35.0480 O   0  0  0  0  0  0  0  0  0  0  0  0
   38.9720   24.4410   36.2610 C   0  0  0  0  0  0  0  0  0  0  0  0
   39.8390   23.3950   36.5180 C   0  0  0  0  0  3  0  0  0  0  0  0
   39.7300   22.7600   37.7510 C   0  0  0  0  0  0  0  0  0  0  0  0
   40.3820   21.9210   38.0320 H   0  0  0  0  0  0  0  0  0  0  0  0
   38.7950   23.1850   38.6330 N   0  0  0  0  0  0  0  0  0  0  0  0
   37.9610   24.2010   38.3680 C   0  0  0  0  0  3  0  0  0  0  0  0
   38.0440   24.8390   37.1740 N   0  0  0  0  0  0  0  0  0  0  0  0
  1 14  1  0  0  0  0
  2  1  1  0  0  0  0
  3  2  1  0  0  0  0
  3 10  1  0  0  0  0
  4  3  2  0  0  0  0
  5  6  2  0  0  0  0
  5  4  1  0  0  0  0
  6  7  1  0  0  0  0
  7  2  2  0  0  0  0
  8  4  1  0  0  0  0
  9  6  1  0  0  0  0
 10 12  1  0  0  0  0
 11 10  1  0  0  0  0
 14 13  2  6  0  0  0
 14 17  1  0  0  0  0
 14 15  1  0  0  0  0
 15 16  1  0  0  0  0
 17 18  1  0  0  0  0
 18 19  2  0  0  0  0
 18 24  1  0  0  0  0
 19 20  1  0  0  0  0
 20 21  1  0  0  0  0
 20 22  2  0  0  0  0
 23 22  1  0  0  0  0
 24 23  2  0  0  0  0
M  END
>  <minimizedAffinity>
-4.45008707

$$$$

 OpenBabel03272504183D

 24 25  0  0  0  0  0  0  0  0999 V2000
   40.3260   26.8530   34.1970 O   0  0  0  0  0  0  0  0  0  0  0  0
   38.9950   27.1970   34.0120 C   0  0  0  0  0  0  0  0  0  0  0  0
   38.0980   27.5870   34.9990 C   0  0  0  0  0  0  0  0  0  0  0  0
   36.7960   27.8960   34.6390 C   0  0  0  0  0  0  0  0  0  0  0  0
   36.4310   27.8100   33.3260 N   0  0  0  0  0  0  0  0  0  0  0  0
   37.3420   27.4230   32.3870 C   0  0  0  0  0  0  0  0  0  0  0  0
   38.6150   27.1180   32.7290 N   0  0  0  0  0  0  0  0  0  0  0  0
   36.1370   28.1930   35.4340 H   0  0  0  0  0  0  0  0  0  0  0  0
   37.0260   27.3610   31.3420 H   0  0  0  0  0  0  0  0  0  0  0  0
   38.6350   27.6250   36.3080 N   0  0  0  0  0  0  0  0  0  0  0  0
   38.4240   28.5970   36.6530 H   0  0  0  0  0  0  0  0  0  0  0  0
   39.1320   26.8770   36.8340 H   0  0  0  0  0  0  0  0  0  0  0  0
   41.2530   24.8180   32.7060 O   0  0  0  0  0  0  0  0  0  0  0  0
   40.8660   25.2130   34.1190 P   0  0  1  0  0  0  0  0  0  0  0  0
   42.1730   25.0920   35.1730 O   0  0  0  0  0  0  0  0  0  0  0  0
   41.8970   24.7590   36.0470 H   0  0  0  0  0  0  0  0  0  0  0  0
   39.6020   24.1900   34.5710 O   0  0  0  0  0  0  0  0  0  0  0  0
   39.3180   23.8170   35.8660 C   0  0  0  0  0  0  0  0  0  0  0  0
   38.0720   24.1160   36.3850 C   0  0  0  0  0  3  0  0  0  0  0  0
   37.8140   23.7260   37.6960 C   0  0  0  0  0  0  0  0  0  0  0  0
   36.8480   23.9260   38.1810 H   0  0  0  0  0  0  0  0  0  0  0  0
   38.7770   23.0830   38.3970 N   0  0  0  0  0  0  0  0  0  0  0  0
   39.9810   22.8020   37.8780 C   0  0  0  0  0  3  0  0  0  0  0  0
   40.2620   23.1680   36.6030 N   0  0  0  0  0  0  0  0  0  0  0  0
  2  1  1  0  0  0  0
  2  3  1  0  0  0  0
  3 10  1  0  0  0  0
  4  3  2  0  0  0  0
  4  8  1  0  0  0  0
  5  4  1  0  0  0  0
  6  7  1  0  0  0  0
  6  5  2  0  0  0  0
  7  2  2  0  0  0  0
  9  6  1  0  0  0  0
 10 11  1  0  0  0  0
 10 12  1  0  0  0  0
 14 13  2  6  0  0  0
 14  1  1  0  0  0  0
 14 17  1  0  0  0  0
 14 15  1  0  0  0  0
 15 16  1  0  0  0  0
 17 18  1  0  0  0  0
 18 19  2  0  0  0  0
 18 24  1  0  0  0  0
 19 20  1  0  0  0  0
 20 21  1  0  0  0  0
 20 22  2  0  0  0  0
 23 22  1  0  0  0  0
 24 23  2  0  0  0  0
M  END
>  <minimizedAffinity>
-4.39158106

$$$$

 OpenBabel03272504183D

 24 25  0  0  0  0  0  0  0  0999 V2000
   37.6500   24.8450   36.5470 O   0  0  0  0  0  0  0  0  0  0  0  0
   38.2180   25.3470   35.3850 C   0  0  0  0  0  0  0  0  0  0  0  0
   38.7230   26.6290   35.2010 C   0  0  0  0  0  0  0  0  0  0  0  0
   39.2580   26.9690   33.9690 C   0  0  0  0  0  0  0  0  0  0  0  0
   39.2760   26.0370   32.9710 N   0  0  0  0  0  0  0  0  0  0  0  0
   38.7700   24.7890   33.1920 C   0  0  0  0  0  0  0  0  0  0  0  0
   38.2450   24.4480   34.3920 N   0  0  0  0  0  0  0  0  0  0  0  0
   39.6360   27.9700   33.8710 H   0  0  0  0  0  0  0  0  0  0  0  0
   38.7950   24.0600   32.3790 H   0  0  0  0  0  0  0  0  0  0  0  0
   38.6290   27.4730   36.3340 N   0  0  0  0  0  0  0  0  0  0  0  0
   39.6110   27.8180   36.4890 H   0  0  0  0  0  0  0  0  0  0  0  0
   37.7920   27.7140   36.9040 H   0  0  0  0  0  0  0  0  0  0  0  0
   37.5220   23.0990   38.5870 O   0  0  0  0  0  0  0  0  0  0  0  0
   38.1350   23.3270   37.2180 P   0  0  1  0  0  0  0  0  0  0  0  0
   37.6500   22.1460   36.1210 O   0  0  0  0  0  0  0  0  0  0  0  0
   38.3780   21.8960   35.5210 H   0  0  0  0  0  0  0  0  0  0  0  0
   39.8090   23.3260   37.4380 O   0  0  0  0  0  0  0  0  0  0  0  0
   40.6850   22.4810   36.7950 C   0  0  0  0  0  0  0  0  0  0  0  0
   41.4780   21.6430   37.5580 C   0  0  0  0  0  3  0  0  0  0  0  0
   42.3550   20.8000   36.8810 C   0  0  0  0  0  0  0  0  0  0  0  0
   43.0170   20.1040   37.4140 H   0  0  0  0  0  0  0  0  0  0  0  0
   42.3950   20.8350   35.5290 N   0  0  0  0  0  0  0  0  0  0  0  0
   41.6190   21.6540   34.8050 C   0  0  0  0  0  3  0  0  0  0  0  0
   40.7540   22.4870   35.4360 N   0  0  0  0  0  0  0  0  0  0  0  0
  1 14  1  0  0  0  0
  2  1  1  0  0  0  0
  3  2  1  0  0  0  0
  3 10  1  0  0  0  0
  4  3  2  0  0  0  0
  5  6  2  0  0  0  0
  5  4  1  0  0  0  0
  6  7  1  0  0  0  0
  7  2  2  0  0  0  0
  8  4  1  0  0  0  0
  9  6  1  0  0  0  0
 10 11  1  0  0  0  0
 10 12  1  0  0  0  0
 14 17  1  0  0  0  0
 14 13  2  1  0  0  0
 15 14  1  0  0  0  0
 16 15  1  0  0  0  0
 18 17  1  0  0  0  0
 18 19  1  0  0  0  0
 20 21  1  0  0  0  0
 20 19  2  0  0  0  0
 22 20  1  0  0  0  0
 23 24  1  0  0  0  0
 23 22  2  0  0  0  0
 24 18  2  0  0  0  0
M  END
>  <minimizedAffinity>
-4.38754606

$$$$

 OpenBabel03272504183D

 24 25  0  0  0  0  0  0  0  0999 V2000
   37.7230   25.3550   35.2000 O   0  0  0  0  0  0  0  0  0  0  0  0
   38.3190   24.5500   36.1600 C   0  0  0  0  0  0  0  0  0  0  0  0
   39.3920   23.6880   35.9640 C   0  0  0  0  0  0  0  0  0  0  0  0
   39.8670   22.9520   37.0370 C   0  0  0  0  0  0  0  0  0  0  0  0
   39.2700   23.0940   38.2570 N   0  0  0  0  0  0  0  0  0  0  0  0
   38.2180   23.9500   38.4080 C   0  0  0  0  0  0  0  0  0  0  0  0
   37.7470   24.6730   37.3650 N   0  0  0  0  0  0  0  0  0  0  0  0
   40.6970   22.2990   36.8400 H   0  0  0  0  0  0  0  0  0  0  0  0
   37.7560   24.0470   39.3940 H   0  0  0  0  0  0  0  0  0  0  0  0
   39.8950   23.6590   34.6410 N   0  0  0  0  0  0  0  0  0  0  0  0
   40.9230   23.8590   34.7450 H   0  0  0  0  0  0  0  0  0  0  0  0
   39.3870   23.4820   33.7500 H   0  0  0  0  0  0  0  0  0  0  0  0
   36.8980   27.8450   34.6140 O   0  0  0  0  0  0  0  0  0  0  0  0
   38.1030   27.0340   35.0520 P   0  0  1  0  0  0  0  0  0  0  0  0
   38.6640   27.5290   36.5600 O   0  0  0  0  0  0  0  0  0  0  0  0
   39.6390   27.5080   36.6030 H   0  0  0  0  0  0  0  0  0  0  0  0
   39.2750   27.2340   33.8530 O   0  0  0  0  0  0  0  0  0  0  0  0
   39.1830   26.7330   32.5740 C   0  0  0  0  0  0  0  0  0  0  0  0
   38.6310   27.5300   31.5870 C   0  0  0  0  0  3  0  0  0  0  0  0
   38.5510   26.9970   30.3040 C   0  0  0  0  0  0  0  0  0  0  0  0
   38.1270   27.5660   29.4650 H   0  0  0  0  0  0  0  0  0  0  0  0
   39.0090   25.7430   30.0780 N   0  0  0  0  0  0  0  0  0  0  0  0
   39.5410   24.9840   31.0470 C   0  0  0  0  0  3  0  0  0  0  0  0
   39.6330   25.4760   32.3080 N   0  0  0  0  0  0  0  0  0  0  0  0
  1  2  1  0  0  0  0
  2  7  1  0  0  0  0
  3  2  2  0  0  0  0
  3  4  1  0  0  0  0
  4  5  2  0  0  0  0
  5  6  1  0  0  0  0
  6  9  1  0  0  0  0
  7  6  2  0  0  0  0
  8  4  1  0  0  0  0
 10 11  1  0  0  0  0
 10  3  1  0  0  0  0
 12 10  1  0  0  0  0
 14 13  2  6  0  0  0
 14  1  1  0  0  0  0
 14 15  1  0  0  0  0
 15 16  1  0  0  0  0
 17 14  1  0  0  0  0
 18 17  1  0  0  0  0
 19 18  2  0  0  0  0
 20 19  1  0  0  0  0
 21 20  1  0  0  0  0
 22 20  2  0  0  0  0
 22 23  1  0  0  0  0
 23 24  2  0  0  0  0
 24 18  1  0  0  0  0
M  END
>  <minimizedAffinity>
-4.33880329

$$$$
