
 OpenBabel03262522203D

 17 18  0  0  0  0  0  0  0  0999 V2000
   36.4860   29.4710   50.4760 C   0  0  0  0  0  0  0  0  0  0  0  0
   36.6830   30.0280   49.1980 C   0  0  0  0  0  0  0  0  0  0  0  0
   35.5580   30.2780   48.4310 C   0  0  0  0  0  0  0  0  0  0  0  0
   34.3270   29.9830   48.9290 N   0  0  0  0  0  0  0  0  0  0  0  0
   34.1840   29.4470   50.1650 C   0  0  0  0  0  0  0  0  0  0  0  0
   35.2460   29.1860   50.9490 N   0  0  0  0  0  0  0  0  0  0  0  0
   37.3090   29.2410   51.1460 H   0  0  0  0  0  0  0  0  0  0  0  0
   35.7620   30.6960   47.4810 H   0  0  0  0  0  0  0  0  0  0  0  0
   33.1530   29.2550   50.4520 H   0  0  0  0  0  0  0  0  0  0  0  0
   38.0000   30.2520   48.8810 O   0  0  0  0  0  0  0  0  0  0  0  0
   38.5360   31.5000   48.5570 C   0  0  0  0  0  0  0  0  0  0  0  0
   39.0480   31.8710   47.3230 C   0  0  0  0  0  3  0  0  0  0  0  0
   39.5470   33.1490   47.1550 C   0  0  0  0  0  0  0  0  0  0  0  0
   39.9420   33.4260   46.1890 H   0  0  0  0  0  0  0  0  0  0  0  0
   39.5380   34.0270   48.1740 N   0  0  0  0  0  0  0  0  0  0  0  0
   39.0270   33.6070   49.3470 C   0  0  0  0  0  3  0  0  0  0  0  0
   38.5260   32.3770   49.5770 N   0  0  0  0  0  0  0  0  0  0  0  0
  1  6  1  0  0  0  0
  1  7  1  0  0  0  0
  2  1  2  0  0  0  0
  3  4  2  0  0  0  0
  3  2  1  0  0  0  0
  4  5  1  0  0  0  0
  5  9  1  0  0  0  0
  5  6  2  0  0  0  0
  8  3  1  0  0  0  0
 10  2  1  0  0  0  0
 11 10  1  0  0  0  0
 11 17  1  0  0  0  0
 12 11  2  0  0  0  0
 13 12  1  0  0  0  0
 13 15  2  0  0  0  0
 14 13  1  0  0  0  0
 15 16  1  0  0  0  0
 16 17  2  0  0  0  0
M  END
>  <minimizedAffinity>
-3.98722959

>  <minimizedRMSD>
1.97312832

$$$$
