
 OpenBabel03272510073D

 28 30  0  0  0  0  0  0  0  0999 V2000
   36.5300   31.1900   49.0290 C   0  0  0  0  0  0  0  0  0  0  0  0
   37.2170   31.5080   47.8550 C   0  0  0  0  0  0  0  0  0  0  0  0
   36.8340   30.8690   46.6770 C   0  0  0  0  0  0  0  0  0  0  0  0
   35.8160   29.9770   46.7390 N   0  0  0  0  0  0  0  0  0  0  0  0
   35.1670   29.6840   47.8770 C   0  0  0  0  0  0  0  0  0  0  0  0
   35.5090   30.2820   49.0400 N   0  0  0  0  0  0  0  0  0  0  0  0
   34.0980   28.7240   47.8460 N   0  0  0  0  0  0  0  0  0  0  0  0
   32.9000   28.9230   47.0290 C   0  0  0  0  0  0  0  0  0  0  0  0
   32.1870   27.6170   47.1100 C   0  0  0  0  0  0  0  0  0  0  0  0
   33.1350   26.6450   47.7750 C   0  0  0  0  0  0  0  0  0  0  0  0
   34.0620   27.4840   48.5850 C   0  0  0  0  0  0  0  0  0  0  0  0
   36.7330   31.6140   49.9920 H   0  0  0  0  0  0  0  0  0  0  0  0
   37.3550   31.1060   45.7740 H   0  0  0  0  0  0  0  0  0  0  0  0
   32.2860   29.6970   47.5260 H   0  0  0  0  0  0  0  0  0  0  0  0
   33.2050   29.1860   45.9940 H   0  0  0  0  0  0  0  0  0  0  0  0
   32.0350   27.2300   46.0670 H   0  0  0  0  0  0  0  0  0  0  0  0
   31.2220   27.7100   47.6510 H   0  0  0  0  0  0  0  0  0  0  0  0
   33.6210   25.9440   47.0740 H   0  0  0  0  0  0  0  0  0  0  0  0
   32.5030   26.0150   48.4600 H   0  0  0  0  0  0  0  0  0  0  0  0
   35.0930   27.0550   48.5100 H   0  0  0  0  0  0  0  0  0  0  0  0
   33.8280   27.5890   49.6450 H   0  0  0  0  0  0  0  0  0  0  0  0
   38.2920   32.4880   47.9410 C   0  0  0  0  0  0  0  0  0  0  0  0
   38.4990   33.2730   49.0540 C   0  0  0  0  0  3  0  0  0  0  0  0
   39.5360   34.1950   49.0930 C   0  0  0  0  0  0  0  0  0  0  0  0
   39.7460   34.8370   49.9380 H   0  0  0  0  0  0  0  0  0  0  0  0
   40.3220   34.2990   48.0300 N   0  0  0  0  0  0  0  0  0  0  0  0
   40.1040   33.5240   46.9560 C   0  0  0  0  0  3  0  0  0  0  0  0
   39.0970   32.6040   46.8720 N   0  0  0  0  0  0  0  0  0  0  0  0
  1  6  1  0  0  0  0
  1 12  1  0  0  0  0
  2 22  1  0  0  0  0
  2  1  2  0  0  0  0
  3  4  2  0  0  0  0
  3  2  1  0  0  0  0
  4  5  1  0  0  0  0
  5  6  2  0  0  0  0
  7  5  1  0  0  0  0
  7 11  1  0  0  0  0
  8  9  1  0  0  0  0
  8 14  1  0  0  0  0
  8  7  1  0  0  0  0
  9 17  1  0  0  0  0
  9 10  1  0  0  0  0
 10 19  1  0  0  0  0
 10 11  1  0  0  0  0
 11 21  1  0  0  0  0
 13  3  1  0  0  0  0
 15  8  1  0  0  0  0
 16  9  1  0  0  0  0
 18 10  1  0  0  0  0
 20 11  1  0  0  0  0
 22 23  1  0  0  0  0
 23 24  2  0  0  0  0
 24 25  1  0  0  0  0
 26 24  1  0  0  0  0
 27 26  2  0  0  0  0
 28 27  1  0  0  0  0
 28 22  2  0  0  0  0
M  END
>  <minimizedAffinity>
-4.5372529

>  <minimizedRMSD>
2.63093805

$$$$
