
     RDKit          3D

 31 33  0  0  0  0  0  0  0  0999 V2000
   37.1595   31.2230   48.5969 C   0  0  0  0  0  0  0  0  0  0  0  0
   38.0887   32.2560   48.3963 C   0  0  0  0  0  0  0  0  0  0  0  0
   38.4333   32.4291   47.0762 C   0  0  0  0  0  0  0  0  0  0  0  0
   37.9244   31.6754   46.0834 N   0  0  0  0  0  0  0  0  0  0  0  0
   37.0342   30.6884   46.3081 C   0  0  0  0  0  0  0  0  0  0  0  0
   36.6518   30.4623   47.5683 N   0  0  0  0  0  0  0  0  0  0  0  0
   36.6340   31.0408   50.0163 C   0  0  0  0  0  0  0  0  0  0  0  0
   35.8825   29.9076   50.4077 C   0  0  0  0  0  0  0  0  0  0  0  0
   37.3789   29.8242   50.6596 C   0  0  0  0  0  0  0  0  0  0  0  0
   38.6552   33.0081   49.5088 C   0  0  0  0  0  0  0  0  0  0  0  0
   39.5105   34.1572   49.1374 C   0  0  0  0  0  0  0  0  0  0  0  0
   39.1572   33.2207   46.8318 H   0  0  0  0  0  0  0  0  0  0  0  0
   36.6783   30.1351   45.4656 H   0  0  0  0  0  0  0  0  0  0  0  0
   36.7668   31.9393   50.6887 H   0  0  0  0  0  0  0  0  0  0  0  0
   35.2238   29.9649   51.2955 H   0  0  0  0  0  0  0  0  0  0  0  0
   35.5162   29.1904   49.6361 H   0  0  0  0  0  0  0  0  0  0  0  0
   37.9672   29.1708   50.0278 H   0  0  0  0  0  0  0  0  0  0  0  0
   37.6766   29.9896   51.6995 H   0  0  0  0  0  0  0  0  0  0  0  0
   37.9030   33.4046   50.2315 H   0  0  0  0  0  0  0  0  0  0  0  0
   39.2587   32.2935   50.1147 H   0  0  0  0  0  0  0  0  0  0  0  0
   40.3125   33.8220   48.4415 H   0  0  0  0  0  0  0  0  0  0  0  0
   39.9633   34.6813   49.9838 H   0  0  0  0  0  0  0  0  0  0  0  0
   38.7134   35.1594   48.3894 C   0  0  0  0  0  0  0  0  0  0  0  0
   37.3904   35.5400   48.4526 C   0  0  0  0  0  0  0  0  0  0  0  0
   36.9117   36.5276   47.6349 C   0  0  0  0  0  0  0  0  0  0  0  0
   35.8491   36.7154   47.8015 H   0  0  0  0  0  0  0  0  0  0  0  0
   37.7422   37.1318   46.7623 N   0  0  0  0  0  0  0  0  0  0  0  0
   39.0232   36.7739   46.6914 C   0  0  0  0  0  0  0  0  0  0  0  0
   39.4938   35.8030   47.4949 N   0  0  0  0  0  0  0  0  0  0  0  0
   36.8383   34.9876   49.1989 H   0  0  0  0  0  0  0  0  0  0  0  0
   39.5883   37.3178   45.9667 H   0  0  0  0  0  0  0  0  0  0  0  0
  1  7  1  0
  2  1  1  0
  2 10  1  0
  3  2  2  0
  4  5  2  0
  4  3  1  0
  5  6  1  0
  6  1  2  0
  7  8  1  0
  7  9  1  0
  8  9  1  0
 11 10  1  0
  3 12  1  0
  5 13  1  0
  7 14  1  0
  8 15  1  0
  8 16  1  0
  9 17  1  0
  9 18  1  0
 10 19  1  0
 10 20  1  0
 11 21  1  0
 11 22  1  0
 23 24  2  0
 24 25  1  0
 25 26  1  0
 25 27  2  0
 27 28  1  0
 28 29  2  0
 29 23  1  0
 24 30  1  0
 28 31  1  0
 11 23  1  0
M  ISO  8  12  14  13  14  14  13  15  13  16  13  17  13  18  13  19   8
M  ISO  4  20   8  21   8  22   8  26  14
M  END
>  <DihAtoms>  (1) 
9,10,22,23

>  <DihDeg>  (1) 
2.241614863542716

$$$$
