
 OpenBabel03272509463D

 23 24  0  0  0  0  0  0  0  0999 V2000
   34.1450   28.4160   48.5180 C   0  0  0  0  0  0  0  0  0  0  0  0
   34.7500   29.0260   47.8360 H   0  0  0  0  0  0  0  0  0  0  0  0
   33.1830   28.9460   48.6760 H   0  0  0  0  0  0  0  0  0  0  0  0
   33.8370   27.0450   47.9880 C   0  0  0  0  0  0  0  0  0  0  0  0
   33.1250   26.5470   48.6440 H   0  0  0  0  0  0  0  0  0  0  0  0
   34.7840   26.4430   47.9280 H   0  0  0  0  0  0  0  0  0  0  0  0
   33.3190   27.0780   46.5940 C   0  0  0  0  0  0  0  0  0  0  0  0
   33.8600   26.1680   45.7070 C   0  0  0  0  0  3  0  0  0  0  0  0
   33.4580   26.1070   44.3900 C   0  0  0  0  0  0  0  0  0  0  0  0
   33.8390   25.4190   43.6430 H   0  0  0  0  0  0  0  0  0  0  0  0
   32.5180   26.9500   43.9560 N   0  0  0  0  0  0  0  0  0  0  0  0
   31.9910   27.8410   44.8320 C   0  0  0  0  0  3  0  0  0  0  0  0
   32.3690   27.9180   46.1190 N   0  0  0  0  0  0  0  0  0  0  0  0
   34.7280   28.3190   49.8120 O   0  0  0  0  0  0  0  0  0  0  0  0
   37.3570   30.2390   51.4120 C   0  0  0  0  0  0  0  0  0  0  0  0
   38.0640   30.6660   50.2700 C   0  0  0  0  0  0  0  0  0  0  0  0
   37.5940   30.2700   49.0230 C   0  0  0  0  0  0  0  0  0  0  0  0
   36.4710   29.4870   48.9910 N   0  0  0  0  0  0  0  0  0  0  0  0
   35.8210   29.0970   50.0940 C   0  0  0  0  0  0  0  0  0  0  0  0
   36.2700   29.4760   51.3130 N   0  0  0  0  0  0  0  0  0  0  0  0
   37.6680   30.5110   52.4170 H   0  0  0  0  0  0  0  0  0  0  0  0
   38.9450   31.2860   50.3900 H   0  0  0  0  0  0  0  0  0  0  0  0
   38.1100   30.5780   48.1200 H   0  0  0  0  0  0  0  0  0  0  0  0
  1  3  1  0  0  0  0
  1 14  1  0  0  0  0
  2  1  1  0  0  0  0
  4  1  1  0  0  0  0
  4  5  1  0  0  0  0
  6  4  1  0  0  0  0
  7  4  1  0  0  0  0
  8  7  2  0  0  0  0
  9  8  1  0  0  0  0
 10  9  1  0  0  0  0
 11  9  2  0  0  0  0
 11 12  1  0  0  0  0
 12 13  2  0  0  0  0
 13  7  1  0  0  0  0
 14 19  1  0  0  0  0
 15 21  1  0  0  0  0
 16 22  1  0  0  0  0
 16 15  2  0  0  0  0
 17 16  1  0  0  0  0
 18 17  2  0  0  0  0
 18 19  1  0  0  0  0
 19 20  2  0  0  0  0
 20 15  1  0  0  0  0
 23 17  1  0  0  0  0
M  END
>  <minimizedAffinity>
-3.67136097

>  <minimizedRMSD>
0.131610781

$$$$
