
 OpenBabel03272509463D

 23 24  0  0  0  0  0  0  0  0999 V2000
   34.1860   28.4090   48.4680 C   0  0  0  0  0  0  0  0  0  0  0  0
   34.8140   29.0000   47.7910 H   0  0  0  0  0  0  0  0  0  0  0  0
   33.2320   28.9610   48.6070 H   0  0  0  0  0  0  0  0  0  0  0  0
   33.8570   27.0400   47.9440 C   0  0  0  0  0  0  0  0  0  0  0  0
   33.2260   26.5130   48.6580 H   0  0  0  0  0  0  0  0  0  0  0  0
   34.8060   26.4630   47.7770 H   0  0  0  0  0  0  0  0  0  0  0  0
   33.2000   27.0850   46.6100 C   0  0  0  0  0  0  0  0  0  0  0  0
   31.8220   27.0020   46.5910 C   0  0  0  0  0  3  0  0  0  0  0  0
   31.1070   27.0330   45.4130 C   0  0  0  0  0  0  0  0  0  0  0  0
   30.0270   26.9720   45.3250 H   0  0  0  0  0  0  0  0  0  0  0  0
   31.7630   27.1470   44.2550 N   0  0  0  0  0  0  0  0  0  0  0  0
   33.1160   27.2290   44.2810 C   0  0  0  0  0  3  0  0  0  0  0  0
   33.8320   27.2010   45.4170 N   0  0  0  0  0  0  0  0  0  0  0  0
   34.7460   28.3100   49.7720 O   0  0  0  0  0  0  0  0  0  0  0  0
   37.3430   30.2300   51.4230 C   0  0  0  0  0  0  0  0  0  0  0  0
   38.0640   30.6690   50.2950 C   0  0  0  0  0  0  0  0  0  0  0  0
   37.6140   30.2800   49.0390 C   0  0  0  0  0  0  0  0  0  0  0  0
   36.4950   29.4920   48.9850 N   0  0  0  0  0  0  0  0  0  0  0  0
   35.8310   29.0900   50.0750 C   0  0  0  0  0  0  0  0  0  0  0  0
   36.2610   29.4630   51.3030 N   0  0  0  0  0  0  0  0  0  0  0  0
   37.6380   30.4950   52.4350 H   0  0  0  0  0  0  0  0  0  0  0  0
   38.9400   31.2920   50.4320 H   0  0  0  0  0  0  0  0  0  0  0  0
   38.1400   30.5970   48.1460 H   0  0  0  0  0  0  0  0  0  0  0  0
  1  3  1  0  0  0  0
  1 14  1  0  0  0  0
  2  1  1  0  0  0  0
  4  1  1  0  0  0  0
  4  5  1  0  0  0  0
  6  4  1  0  0  0  0
  7  4  1  0  0  0  0
  8  7  1  0  0  0  0
  9  8  2  0  0  0  0
 10  9  1  0  0  0  0
 11 12  2  0  0  0  0
 11  9  1  0  0  0  0
 12 13  1  0  0  0  0
 13  7  2  0  0  0  0
 14 19  1  0  0  0  0
 15 21  1  0  0  0  0
 16 22  1  0  0  0  0
 16 15  2  0  0  0  0
 17 16  1  0  0  0  0
 18 17  2  0  0  0  0
 18 19  1  0  0  0  0
 19 20  2  0  0  0  0
 20 15  1  0  0  0  0
 23 17  1  0  0  0  0
M  END
>  <minimizedAffinity>
-3.63321066

>  <minimizedRMSD>
0.107864283

$$$$
