
 OpenBabel03272509343D

 39 43  0  0  1  0  0  0  0  0999 V2000
   37.6210   30.5110   44.0980 C   0  0  1  0  0  0  0  0  0  0  0  0
   38.9450   31.0800   44.4060 C   0  0  0  0  0  0  0  0  0  0  0  0
   38.8750   29.6040   44.2590 C   0  0  2  0  0  0  0  0  0  0  0  0
   37.2610   30.4660   43.0830 H   0  0  0  0  0  0  0  0  0  0  0  0
   39.2360   31.8330   43.6910 H   0  0  0  0  0  0  0  0  0  0  0  0
   39.0170   31.4860   45.4640 H   0  0  0  0  0  0  0  0  0  0  0  0
   38.6340   28.8050   44.9390 H   0  0  0  0  0  0  0  0  0  0  0  0
   39.5960   29.1730   43.0330 C   0  0  0  0  0  0  0  0  0  0  0  0
   40.6000   30.0870   42.7020 C   0  0  0  0  0  0  0  0  0  0  0  0
   41.4520   29.8500   41.6430 C   0  0  0  0  0  0  0  0  0  0  0  0
   41.3430   28.6970   40.8740 C   0  0  0  0  0  0  0  0  0  0  0  0
   40.3500   27.8080   41.2140 C   0  0  0  0  0  0  0  0  0  0  0  0
   40.0910   26.6300   40.5540 C   0  0  0  0  0  0  0  0  0  0  0  0
   39.0910   25.7360   40.8770 C   0  0  0  0  0  0  0  0  0  0  0  0
   38.2730   26.0350   41.9510 C   0  0  0  0  0  0  0  0  0  0  0  0
   38.5090   27.2010   42.6250 C   0  0  0  0  0  0  0  0  0  0  0  0
   39.5180   28.0590   42.2640 C   0  0  0  0  0  0  0  0  0  0  0  0
   40.9640   31.0210   43.0740 H   0  0  0  0  0  0  0  0  0  0  0  0
   42.2680   30.4450   41.2610 H   0  0  0  0  0  0  0  0  0  0  0  0
   41.9210   28.3620   40.0210 H   0  0  0  0  0  0  0  0  0  0  0  0
   40.7280   26.3670   39.6950 H   0  0  0  0  0  0  0  0  0  0  0  0
   38.9390   24.8240   40.3160 H   0  0  0  0  0  0  0  0  0  0  0  0
   37.4670   25.3880   42.2700 H   0  0  0  0  0  0  0  0  0  0  0  0
   37.8430   27.4190   43.4800 H   0  0  0  0  0  0  0  0  0  0  0  0
   34.3800   30.0730   45.9760 C   0  0  0  0  0  0  0  0  0  0  0  0
   35.3040   30.2120   44.8990 C   0  0  0  0  0  0  0  0  0  0  0  0
   36.6400   30.3530   45.1920 C   0  0  0  0  0  0  0  0  0  0  0  0
   36.9770   30.3480   46.5090 N   0  0  0  0  0  0  0  0  0  0  0  0
   36.1070   30.2180   47.5220 C   0  0  0  0  0  0  0  0  0  0  0  0
   34.7840   30.0770   47.2500 N   0  0  0  0  0  0  0  0  0  0  0  0
   33.3320   29.9630   45.7340 H   0  0  0  0  0  0  0  0  0  0  0  0
   35.0020   30.2110   43.8640 H   0  0  0  0  0  0  0  0  0  0  0  0
   36.5560   30.2220   48.9090 C   0  0  0  0  0  0  0  0  0  0  0  0
   35.8590   29.5210   49.8580 C   0  0  0  0  0  3  0  0  0  0  0  0
   36.3210   29.5490   51.1780 C   0  0  0  0  0  0  0  0  0  0  0  0
   35.8630   29.0410   52.0150 H   0  0  0  0  0  0  0  0  0  0  0  0
   37.4390   30.2600   51.4980 N   0  0  0  0  0  0  0  0  0  0  0  0
   38.0960   30.9370   50.5300 C   0  0  0  0  0  3  0  0  0  0  0  0
   37.6640   30.9190   49.2600 N   0  0  0  0  0  0  0  0  0  0  0  0
  1  4  1  6  0  0  0
  1  3  1  0  0  0  0
  1  2  1  0  0  0  0
  1 27  1  0  0  0  0
  2  6  1  0  0  0  0
  3  2  1  0  0  0  0
  3  7  1  1  0  0  0
  5  2  1  0  0  0  0
  8  3  1  0  0  0  0
  9  8  1  0  0  0  0
  9 18  1  0  0  0  0
 10  9  2  0  0  0  0
 11 12  2  0  0  0  0
 11 10  1  0  0  0  0
 12 17  1  0  0  0  0
 13 14  2  0  0  0  0
 13 12  1  0  0  0  0
 14 15  1  0  0  0  0
 15 23  1  0  0  0  0
 15 16  2  0  0  0  0
 16 24  1  0  0  0  0
 17 16  1  0  0  0  0
 17  8  2  0  0  0  0
 19 10  1  0  0  0  0
 20 11  1  0  0  0  0
 21 13  1  0  0  0  0
 22 14  1  0  0  0  0
 25 30  1  0  0  0  0
 26 27  1  0  0  0  0
 26 25  2  0  0  0  0
 27 28  2  0  0  0  0
 28 29  1  0  0  0  0
 29 33  1  0  0  0  0
 30 29  2  0  0  0  0
 31 25  1  0  0  0  0
 32 26  1  0  0  0  0
 33 39  2  0  0  0  0
 33 34  1  0  0  0  0
 34 35  2  0  0  0  0
 35 37  1  0  0  0  0
 35 36  1  0  0  0  0
 38 37  2  0  0  0  0
 39 38  1  0  0  0  0
M  END
>  <minimizedAffinity>
-5.69618177

>  <minimizedRMSD>
4.65612268

$$$$
