
     RDKit          3D

 41 45  0  0  0  0  0  0  0  0999 V2000
   37.5583   32.0640   48.5023 C   0  0  1  0  0  0  0  0  0  0  0  0
   38.7945   32.7936   48.8366 C   0  0  0  0  0  0  0  0  0  0  0  0
   38.9353   31.6357   47.9180 C   0  0  2  0  0  0  0  0  0  0  0  0
   39.2994   32.1006   46.5536 C   0  0  0  0  0  0  0  0  0  0  0  0
   39.7533   33.4227   46.5868 C   0  0  0  0  0  0  0  0  0  0  0  0
   40.2224   34.0381   45.4448 C   0  0  0  0  0  0  0  0  0  0  0  0
   40.2605   33.3682   44.2282 C   0  0  0  0  0  0  0  0  0  0  0  0
   39.8114   32.0683   44.2142 C   0  0  0  0  0  0  0  0  0  0  0  0
   39.7641   31.2645   43.0994 C   0  0  0  0  0  0  0  0  0  0  0  0
   39.3039   29.9648   43.0693 C   0  0  0  0  0  0  0  0  0  0  0  0
   38.8487   29.4078   44.2498 C   0  0  0  0  0  0  0  0  0  0  0  0
   38.8839   30.1846   45.3745 C   0  0  0  0  0  0  0  0  0  0  0  0
   39.3516   31.4761   45.3527 C   0  0  0  0  0  0  0  0  0  0  0  0
   35.2950   29.5731   50.2029 C   0  0  0  0  0  0  0  0  0  0  0  0
   35.8020   30.4901   49.2362 C   0  0  0  0  0  0  0  0  0  0  0  0
   37.0115   31.1003   49.4791 C   0  0  0  0  0  0  0  0  0  0  0  0
   37.6339   30.7721   50.6407 N   0  0  0  0  0  0  0  0  0  0  0  0
   37.1557   29.9087   51.5496 C   0  0  0  0  0  0  0  0  0  0  0  0
   35.9635   29.2978   51.3263 N   0  0  0  0  0  0  0  0  0  0  0  0
   36.9117   32.4060   47.7098 H   0  0  0  0  0  0  0  0  0  0  0  0
   38.7127   33.8457   48.6159 H   0  0  0  0  0  0  0  0  0  0  0  0
   39.1234   32.6355   49.9125 H   0  0  0  0  0  0  0  0  0  0  0  0
   39.0603   30.5782   48.0757 H   0  0  0  0  0  0  0  0  0  0  0  0
   39.8779   34.1905   47.3201 H   0  0  0  0  0  0  0  0  0  0  0  0
   40.6027   35.0393   45.3014 H   0  0  0  0  0  0  0  0  0  0  0  0
   40.5933   33.6990   43.2511 H   0  0  0  0  0  0  0  0  0  0  0  0
   40.1213   31.6835   42.1441 H   0  0  0  0  0  0  0  0  0  0  0  0
   39.2932   29.3850   42.1563 H   0  0  0  0  0  0  0  0  0  0  0  0
   38.4726   28.3965   44.3116 H   0  0  0  0  0  0  0  0  0  0  0  0
   38.5156   29.7189   46.3073 H   0  0  0  0  0  0  0  0  0  0  0  0
   34.3435   29.0999   50.0015 H   0  0  0  0  0  0  0  0  0  0  0  0
   35.2805   30.7275   48.3226 H   0  0  0  0  0  0  0  0  0  0  0  0
   37.8932   29.6143   52.7731 C   0  0  0  0  0  0  0  0  0  0  0  0
   39.0022   28.8096   52.7283 C   0  0  0  0  0  0  0  0  0  0  0  0
   39.6833   28.5501   53.9220 C   0  0  0  0  0  0  0  0  0  0  0  0
   40.5666   27.9352   54.0218 H   0  0  0  0  0  0  0  0  0  0  0  0
   39.2436   29.0910   55.0941 N   0  0  0  0  0  0  0  0  0  0  0  0
   38.1463   29.8783   55.0921 C   0  0  0  0  0  0  0  0  0  0  0  0
   37.4820   30.1366   53.9545 N   0  0  0  0  0  0  0  0  0  0  0  0
   39.3857   28.3630   51.8369 H   0  0  0  0  0  0  0  0  0  0  0  0
   37.6942   30.3671   55.9462 H   0  0  0  0  0  0  0  0  0  0  0  0
  1  2  1  0
  1 16  1  0
  3  1  1  0
  3  2  1  0
  4  5  2  0
  4  3  1  0
  6  5  1  0
  7  6  2  0
  8  7  1  0
  8 13  2  0
  9  8  1  0
 10  9  2  0
 10 11  1  0
 11 12  2  0
 13 12  1  0
 13  4  1  0
 14 19  2  0
 15 16  2  0
 15 14  1  0
 16 17  1  0
 17 18  2  0
 19 18  1  0
  1 20  1  6
  2 21  1  0
  2 22  1  0
  3 23  1  1
  5 24  1  0
  6 25  1  0
  7 26  1  0
  9 27  1  0
 10 28  1  0
 11 29  1  0
 12 30  1  0
 14 31  1  0
 15 32  1  0
 33 34  2  0
 34 35  1  0
 35 36  1  0
 35 37  2  0
 37 38  1  0
 38 39  2  0
 39 33  1  0
 34 40  1  0
 38 41  1  0
 18 33  1  0
M  ISO  8  20  13  21  13  22  13  23  13  24  14  25  14  26  14  27  14
M  ISO  6  28  14  29  14  30  14  31  14  32  14  36  14
M  END
>  <DihAtoms>  (1) 
16,17,32,33

>  <DihDeg>  (1) 
0.00048718054515805366

$$$$
