
 OpenBabel03272502243D

 27 29  0  0  0  0  0  0  0  0999 V2000
   36.2730   28.4380   33.9870 C   0  0  0  0  0  0  0  0  0  0  0  0
   36.6570   27.3130   34.7360 C   0  0  0  0  0  0  0  0  0  0  0  0
   37.4730   26.3770   34.1260 C   0  0  0  0  0  0  0  0  0  0  0  0
   37.8490   26.6020   32.8510 N   0  0  0  0  0  0  0  0  0  0  0  0
   37.4720   27.6830   32.1520 C   0  0  0  0  0  0  0  0  0  0  0  0
   36.6780   28.6090   32.7230 N   0  0  0  0  0  0  0  0  0  0  0  0
   35.6390   29.1590   34.4740 H   0  0  0  0  0  0  0  0  0  0  0  0
   36.3530   27.1370   35.7580 H   0  0  0  0  0  0  0  0  0  0  0  0
   37.9420   25.1660   34.7890 C   0  0  0  0  0  0  0  0  0  0  0  0
   38.4470   24.0930   34.0770 C   0  0  0  0  0  0  0  0  0  0  0  0
   38.8980   22.9350   34.6910 C   0  0  0  0  0  0  0  0  0  0  0  0
   38.8510   22.8340   36.0300 N   0  0  0  0  0  0  0  0  0  0  0  0
   38.3600   23.8840   36.7080 C   0  0  0  0  0  0  0  0  0  0  0  0
   37.9200   25.0080   36.1300 N   0  0  0  0  0  0  0  0  0  0  0  0
   38.4920   24.1570   32.9900 H   0  0  0  0  0  0  0  0  0  0  0  0
   39.2770   22.1440   34.0500 H   0  0  0  0  0  0  0  0  0  0  0  0
   38.2920   23.8090   38.1940 C   0  0  0  0  0  0  0  0  0  0  0  0
   39.5160   23.3370   38.6620 F   0  0  0  0  0  0  0  0  0  0  0  0
   38.0060   25.0440   38.7500 F   0  0  0  0  0  0  0  0  0  0  0  0
   37.3350   22.9290   38.6180 F   0  0  0  0  0  0  0  0  0  0  0  0
   37.9180   27.8610   30.7750 C   0  0  0  0  0  0  0  0  0  0  0  0
   37.2370   28.7130   29.9310 C   0  0  0  0  0  3  0  0  0  0  0  0
   37.7130   28.8330   28.6420 C   0  0  0  0  0  0  0  0  0  0  0  0
   37.1320   29.5230   28.0210 H   0  0  0  0  0  0  0  0  0  0  0  0
   38.8040   28.1580   28.1840 N   0  0  0  0  0  0  0  0  0  0  0  0
   39.4410   27.3310   29.0500 C   0  0  0  0  0  3  0  0  0  0  0  0
   38.9990   27.1860   30.3330 N   0  0  0  0  0  0  0  0  0  0  0  0
  1  7  1  0  0  0  0
  1  2  1  0  0  0  0
  2  8  1  0  0  0  0
  3  2  2  0  0  0  0
  3  9  1  0  0  0  0
  4  3  1  0  0  0  0
  5  6  1  0  0  0  0
  5  4  2  0  0  0  0
  6  1  2  0  0  0  0
  9 14  1  0  0  0  0
 10 11  1  0  0  0  0
 10  9  2  0  0  0  0
 11 12  2  0  0  0  0
 12 13  1  0  0  0  0
 13 17  1  0  0  0  0
 14 13  2  0  0  0  0
 15 10  1  0  0  0  0
 16 11  1  0  0  0  0
 17 20  1  0  0  0  0
 17 18  1  0  0  0  0
 17 19  1  0  0  0  0
 21  5  1  0  0  0  0
 22 21  2  0  0  0  0
 23 22  1  0  0  0  0
 24 23  1  0  0  0  0
 25 23  2  0  0  0  0
 25 26  1  0  0  0  0
 26 27  2  0  0  0  0
 27 21  1  0  0  0  0
M  END
>  <minimizedAffinity>
-5.70106411

$$$$

 OpenBabel03272502243D

 27 29  0  0  0  0  0  0  0  0999 V2000
   38.6330   21.3120   31.7780 C   0  0  0  0  0  0  0  0  0  0  0  0
   39.2120   21.2680   33.0570 C   0  0  0  0  0  0  0  0  0  0  0  0
   38.9400   22.3100   33.9260 C   0  0  0  0  0  0  0  0  0  0  0  0
   38.1370   23.3030   33.4910 N   0  0  0  0  0  0  0  0  0  0  0  0
   37.5940   23.3260   32.2650 C   0  0  0  0  0  0  0  0  0  0  0  0
   37.8430   22.3240   31.4010 N   0  0  0  0  0  0  0  0  0  0  0  0
   38.8520   20.4940   31.1120 H   0  0  0  0  0  0  0  0  0  0  0  0
   39.8540   20.4700   33.4010 H   0  0  0  0  0  0  0  0  0  0  0  0
   39.4760   22.3890   35.2800 C   0  0  0  0  0  0  0  0  0  0  0  0
   40.7270   21.8920   35.6000 C   0  0  0  0  0  0  0  0  0  0  0  0
   41.2520   21.9600   36.8820 C   0  0  0  0  0  0  0  0  0  0  0  0
   40.5310   22.5270   37.8640 N   0  0  0  0  0  0  0  0  0  0  0  0
   39.3190   23.0060   37.5370 C   0  0  0  0  0  0  0  0  0  0  0  0
   38.7990   22.9480   36.3060 N   0  0  0  0  0  0  0  0  0  0  0  0
   41.3250   21.4280   34.8170 H   0  0  0  0  0  0  0  0  0  0  0  0
   42.2420   21.5420   37.0390 H   0  0  0  0  0  0  0  0  0  0  0  0
   38.4910   23.6430   38.5990 C   0  0  0  0  0  0  0  0  0  0  0  0
   37.4520   22.7740   38.9200 F   0  0  0  0  0  0  0  0  0  0  0  0
   39.2460   23.9290   39.7240 F   0  0  0  0  0  0  0  0  0  0  0  0
   37.9210   24.8090   38.1720 F   0  0  0  0  0  0  0  0  0  0  0  0
   36.7340   24.4340   31.8630 C   0  0  0  0  0  0  0  0  0  0  0  0
   35.5930   24.1920   31.1280 C   0  0  0  0  0  3  0  0  0  0  0  0
   34.8270   25.2850   30.7820 C   0  0  0  0  0  0  0  0  0  0  0  0
   33.9350   25.0310   30.1990 H   0  0  0  0  0  0  0  0  0  0  0  0
   35.1480   26.5620   31.1310 N   0  0  0  0  0  0  0  0  0  0  0  0
   36.2790   26.7510   31.8540 C   0  0  0  0  0  3  0  0  0  0  0  0
   37.0630   25.6940   32.2150 N   0  0  0  0  0  0  0  0  0  0  0  0
  1  2  1  0  0  0  0
  2  8  1  0  0  0  0
  2  3  2  0  0  0  0
  3  9  1  0  0  0  0
  4  3  1  0  0  0  0
  5  4  2  0  0  0  0
  6  1  2  0  0  0  0
  6  5  1  0  0  0  0
  7  1  1  0  0  0  0
  9 10  2  0  0  0  0
  9 14  1  0  0  0  0
 10 11  1  0  0  0  0
 11 16  1  0  0  0  0
 11 12  2  0  0  0  0
 13 12  1  0  0  0  0
 13 17  1  0  0  0  0
 14 13  2  0  0  0  0
 15 10  1  0  0  0  0
 17 18  1  0  0  0  0
 17 19  1  0  0  0  0
 20 17  1  0  0  0  0
 21 27  1  0  0  0  0
 21  5  1  0  0  0  0
 22 21  2  0  0  0  0
 23 22  1  0  0  0  0
 23 25  2  0  0  0  0
 24 23  1  0  0  0  0
 25 26  1  0  0  0  0
 26 27  2  0  0  0  0
M  END
>  <minimizedAffinity>
-5.68841696

$$$$

 OpenBabel03272502243D

 27 29  0  0  0  0  0  0  0  0999 V2000
   35.7460   28.0890   31.9670 C   0  0  0  0  0  0  0  0  0  0  0  0
   36.6490   27.1260   32.4490 C   0  0  0  0  0  0  0  0  0  0  0  0
   37.0210   27.1970   33.7800 C   0  0  0  0  0  0  0  0  0  0  0  0
   36.4950   28.1860   34.5320 N   0  0  0  0  0  0  0  0  0  0  0  0
   35.6350   29.0960   34.0520 C   0  0  0  0  0  0  0  0  0  0  0  0
   35.2570   29.0490   32.7610 N   0  0  0  0  0  0  0  0  0  0  0  0
   35.4650   28.0220   30.9300 H   0  0  0  0  0  0  0  0  0  0  0  0
   37.0680   26.3350   31.8430 H   0  0  0  0  0  0  0  0  0  0  0  0
   37.9490   26.2630   34.4070 C   0  0  0  0  0  0  0  0  0  0  0  0
   39.1670   25.9460   33.8320 C   0  0  0  0  0  0  0  0  0  0  0  0
   40.0600   25.0610   34.4140 C   0  0  0  0  0  0  0  0  0  0  0  0
   39.7480   24.4780   35.5840 N   0  0  0  0  0  0  0  0  0  0  0  0
   38.5630   24.7960   36.1310 C   0  0  0  0  0  0  0  0  0  0  0  0
   37.6890   25.6480   35.5810 N   0  0  0  0  0  0  0  0  0  0  0  0
   39.4360   26.4090   32.8830 H   0  0  0  0  0  0  0  0  0  0  0  0
   40.9920   24.8740   33.8890 H   0  0  0  0  0  0  0  0  0  0  0  0
   38.1820   24.1700   37.4280 C   0  0  0  0  0  0  0  0  0  0  0  0
   39.1930   23.2880   37.7980 F   0  0  0  0  0  0  0  0  0  0  0  0
   37.9880   25.1250   38.4120 F   0  0  0  0  0  0  0  0  0  0  0  0
   37.0310   23.4400   37.3240 F   0  0  0  0  0  0  0  0  0  0  0  0
   35.1060   30.1390   34.9250 C   0  0  0  0  0  0  0  0  0  0  0  0
   35.9660   31.0010   35.5720 C   0  0  0  0  0  3  0  0  0  0  0  0
   35.3980   31.9620   36.3820 C   0  0  0  0  0  0  0  0  0  0  0  0
   36.1300   32.6160   36.8680 H   0  0  0  0  0  0  0  0  0  0  0  0
   34.0540   32.0890   36.5600 N   0  0  0  0  0  0  0  0  0  0  0  0
   33.2470   31.2190   35.9020 C   0  0  0  0  0  3  0  0  0  0  0  0
   33.7720   30.2540   35.0930 N   0  0  0  0  0  0  0  0  0  0  0  0
  1  2  2  0  0  0  0
  1  6  1  0  0  0  0
  2  3  1  0  0  0  0
  3  9  1  0  0  0  0
  3  4  2  0  0  0  0
  5  4  1  0  0  0  0
  5 21  1  0  0  0  0
  6  5  2  0  0  0  0
  7  1  1  0  0  0  0
  8  2  1  0  0  0  0
  9 14  1  0  0  0  0
 10  9  2  0  0  0  0
 10 11  1  0  0  0  0
 11 12  2  0  0  0  0
 12 13  1  0  0  0  0
 13 17  1  0  0  0  0
 14 13  2  0  0  0  0
 15 10  1  0  0  0  0
 16 11  1  0  0  0  0
 17 18  1  0  0  0  0
 17 19  1  0  0  0  0
 20 17  1  0  0  0  0
 21 27  2  0  0  0  0
 21 22  1  0  0  0  0
 22 23  2  0  0  0  0
 23 25  1  0  0  0  0
 23 24  1  0  0  0  0
 26 25  2  0  0  0  0
 27 26  1  0  0  0  0
M  END
>  <minimizedAffinity>
-5.64248419

$$$$

 OpenBabel03272502243D

 27 29  0  0  0  0  0  0  0  0999 V2000
   38.8020   27.0390   31.7420 C   0  0  0  0  0  0  0  0  0  0  0  0
   38.9670   25.8720   32.5080 C   0  0  0  0  0  0  0  0  0  0  0  0
   38.0720   25.6420   33.5370 C   0  0  0  0  0  0  0  0  0  0  0  0
   37.0960   26.5520   33.7420 N   0  0  0  0  0  0  0  0  0  0  0  0
   36.9560   27.6600   32.9990 C   0  0  0  0  0  0  0  0  0  0  0  0
   37.8150   27.9060   31.9910 N   0  0  0  0  0  0  0  0  0  0  0  0
   39.5060   27.2050   30.9440 H   0  0  0  0  0  0  0  0  0  0  0  0
   39.7500   25.1460   32.3410 H   0  0  0  0  0  0  0  0  0  0  0  0
   38.1300   24.4740   34.4080 C   0  0  0  0  0  0  0  0  0  0  0  0
   38.1300   23.1860   33.9030 C   0  0  0  0  0  0  0  0  0  0  0  0
   38.1850   22.0650   34.7160 C   0  0  0  0  0  0  0  0  0  0  0  0
   38.2420   22.2170   36.0510 N   0  0  0  0  0  0  0  0  0  0  0  0
   38.2420   23.4730   36.5260 C   0  0  0  0  0  0  0  0  0  0  0  0
   38.1880   24.5650   35.7540 N   0  0  0  0  0  0  0  0  0  0  0  0
   38.0840   23.0450   32.8240 H   0  0  0  0  0  0  0  0  0  0  0  0
   38.1800   21.0940   34.2300 H   0  0  0  0  0  0  0  0  0  0  0  0
   38.3030   23.6800   38.0000 C   0  0  0  0  0  0  0  0  0  0  0  0
   37.2910   22.9270   38.5880 F   0  0  0  0  0  0  0  0  0  0  0  0
   39.5370   23.3140   38.5100 F   0  0  0  0  0  0  0  0  0  0  0  0
   38.0820   24.9850   38.3420 F   0  0  0  0  0  0  0  0  0  0  0  0
   35.8760   28.6000   33.2780 C   0  0  0  0  0  0  0  0  0  0  0  0
   35.8820   29.3330   34.4460 C   0  0  0  0  0  3  0  0  0  0  0  0
   34.8310   30.2030   34.6460 C   0  0  0  0  0  0  0  0  0  0  0  0
   34.8900   30.7560   35.5890 H   0  0  0  0  0  0  0  0  0  0  0  0
   33.8130   30.3600   33.7540 N   0  0  0  0  0  0  0  0  0  0  0  0
   33.8500   29.6180   32.6200 C   0  0  0  0  0  3  0  0  0  0  0  0
   34.8740   28.7470   32.3870 N   0  0  0  0  0  0  0  0  0  0  0  0
  1  6  2  0  0  0  0
  1  2  1  0  0  0  0
  2  3  2  0  0  0  0
  3  4  1  0  0  0  0
  3  9  1  0  0  0  0
  5 21  1  0  0  0  0
  5  4  2  0  0  0  0
  6  5  1  0  0  0  0
  7  1  1  0  0  0  0
  8  2  1  0  0  0  0
  9 14  1  0  0  0  0
 10  9  2  0  0  0  0
 10 11  1  0  0  0  0
 11 12  2  0  0  0  0
 12 13  1  0  0  0  0
 13 17  1  0  0  0  0
 14 13  2  0  0  0  0
 15 10  1  0  0  0  0
 16 11  1  0  0  0  0
 17 20  1  0  0  0  0
 17 19  1  0  0  0  0
 17 18  1  0  0  0  0
 21 22  1  0  0  0  0
 22 23  2  0  0  0  0
 23 24  1  0  0  0  0
 25 23  1  0  0  0  0
 26 25  2  0  0  0  0
 27 26  1  0  0  0  0
 27 21  2  0  0  0  0
M  END
>  <minimizedAffinity>
-5.63329363

$$$$

 OpenBabel03272502243D

 27 29  0  0  0  0  0  0  0  0999 V2000
   36.6900   23.4030   31.5070 C   0  0  0  0  0  0  0  0  0  0  0  0
   37.3990   22.8940   32.6090 C   0  0  0  0  0  0  0  0  0  0  0  0
   37.8370   23.7920   33.5670 C   0  0  0  0  0  0  0  0  0  0  0  0
   37.5570   25.0990   33.3830 N   0  0  0  0  0  0  0  0  0  0  0  0
   36.8790   25.5640   32.3240 C   0  0  0  0  0  0  0  0  0  0  0  0
   36.4420   24.7110   31.3780 N   0  0  0  0  0  0  0  0  0  0  0  0
   36.3550   22.6940   30.7700 H   0  0  0  0  0  0  0  0  0  0  0  0
   37.6210   21.8460   32.7520 H   0  0  0  0  0  0  0  0  0  0  0  0
   38.5830   23.3990   34.7570 C   0  0  0  0  0  0  0  0  0  0  0  0
   39.7570   22.6720   34.6760 C   0  0  0  0  0  0  0  0  0  0  0  0
   40.4780   22.2900   35.7960 C   0  0  0  0  0  0  0  0  0  0  0  0
   40.0340   22.6320   37.0180 N   0  0  0  0  0  0  0  0  0  0  0  0
   38.8930   23.3390   37.0800 C   0  0  0  0  0  0  0  0  0  0  0  0
   38.1860   23.7140   36.0090 N   0  0  0  0  0  0  0  0  0  0  0  0
   40.1310   22.3850   33.6940 H   0  0  0  0  0  0  0  0  0  0  0  0
   41.3880   21.7210   35.6350 H   0  0  0  0  0  0  0  0  0  0  0  0
   38.3700   23.7360   38.4170 C   0  0  0  0  0  0  0  0  0  0  0  0
   37.3180   22.8840   38.7440 F   0  0  0  0  0  0  0  0  0  0  0  0
   39.3590   23.6760   39.3850 F   0  0  0  0  0  0  0  0  0  0  0  0
   37.8680   25.0070   38.4130 F   0  0  0  0  0  0  0  0  0  0  0  0
   36.6130   26.9920   32.1910 C   0  0  0  0  0  0  0  0  0  0  0  0
   36.4420   27.7720   33.3160 C   0  0  0  0  0  3  0  0  0  0  0  0
   36.1930   29.1130   33.1170 C   0  0  0  0  0  0  0  0  0  0  0  0
   36.0670   29.6800   34.0460 H   0  0  0  0  0  0  0  0  0  0  0  0
   36.1140   29.6830   31.8830 N   0  0  0  0  0  0  0  0  0  0  0  0
   36.2890   28.8770   30.8060 C   0  0  0  0  0  3  0  0  0  0  0  0
   36.5360   27.5440   30.9620 N   0  0  0  0  0  0  0  0  0  0  0  0
  1  2  1  0  0  0  0
  2  8  1  0  0  0  0
  2  3  2  0  0  0  0
  3  9  1  0  0  0  0
  4  3  1  0  0  0  0
  5  4  2  0  0  0  0
  6  1  2  0  0  0  0
  6  5  1  0  0  0  0
  7  1  1  0  0  0  0
  9 14  1  0  0  0  0
 10  9  2  0  0  0  0
 10 11  1  0  0  0  0
 11 12  2  0  0  0  0
 12 13  1  0  0  0  0
 13 17  1  0  0  0  0
 14 13  2  0  0  0  0
 15 10  1  0  0  0  0
 16 11  1  0  0  0  0
 17 18  1  0  0  0  0
 17 19  1  0  0  0  0
 20 17  1  0  0  0  0
 21  5  1  0  0  0  0
 21 22  1  0  0  0  0
 23 22  2  0  0  0  0
 23 24  1  0  0  0  0
 25 23  1  0  0  0  0
 26 27  1  0  0  0  0
 26 25  2  0  0  0  0
 27 21  2  0  0  0  0
M  END
>  <minimizedAffinity>
-5.62598085

$$$$

 OpenBabel03272502243D

 27 29  0  0  0  0  0  0  0  0999 V2000
   37.7510   24.6850   31.9230 C   0  0  0  0  0  0  0  0  0  0  0  0
   38.1960   24.0440   33.0910 C   0  0  0  0  0  0  0  0  0  0  0  0
   38.0760   24.7240   34.2900 C   0  0  0  0  0  0  0  0  0  0  0  0
   37.5390   25.9610   34.2630 N   0  0  0  0  0  0  0  0  0  0  0  0
   37.1190   26.5570   33.1360 C   0  0  0  0  0  0  0  0  0  0  0  0
   37.2260   25.9160   31.9570 N   0  0  0  0  0  0  0  0  0  0  0  0
   37.8500   24.1440   30.9980 H   0  0  0  0  0  0  0  0  0  0  0  0
   38.6260   23.0520   33.1080 H   0  0  0  0  0  0  0  0  0  0  0  0
   38.4990   24.1750   35.5730 C   0  0  0  0  0  0  0  0  0  0  0  0
   37.7580   24.3610   36.7270 C   0  0  0  0  0  0  0  0  0  0  0  0
   38.1460   23.8450   37.9540 C   0  0  0  0  0  0  0  0  0  0  0  0
   39.2830   23.1350   38.0440 N   0  0  0  0  0  0  0  0  0  0  0  0
   39.9900   22.9630   36.9160 C   0  0  0  0  0  0  0  0  0  0  0  0
   39.6300   23.4540   35.7250 N   0  0  0  0  0  0  0  0  0  0  0  0
   36.8340   24.9350   36.6710 H   0  0  0  0  0  0  0  0  0  0  0  0
   37.5000   24.0420   38.8040 H   0  0  0  0  0  0  0  0  0  0  0  0
   41.2570   22.1800   36.9780 C   0  0  0  0  0  0  0  0  0  0  0  0
   41.3430   21.4000   35.8280 F   0  0  0  0  0  0  0  0  0  0  0  0
   42.3590   23.0120   37.0820 F   0  0  0  0  0  0  0  0  0  0  0  0
   41.2780   21.3260   38.0440 F   0  0  0  0  0  0  0  0  0  0  0  0
   36.5480   27.8990   33.1830 C   0  0  0  0  0  0  0  0  0  0  0  0
   36.4020   28.6290   32.0230 C   0  0  0  0  0  3  0  0  0  0  0  0
   35.8550   29.8900   32.1410 C   0  0  0  0  0  0  0  0  0  0  0  0
   35.7640   30.4210   31.1870 H   0  0  0  0  0  0  0  0  0  0  0  0
   35.4640   30.4260   33.3300 N   0  0  0  0  0  0  0  0  0  0  0  0
   35.6270   29.6700   34.4440 C   0  0  0  0  0  3  0  0  0  0  0  0
   36.1650   28.4180   34.3680 N   0  0  0  0  0  0  0  0  0  0  0  0
  1  6  2  0  0  0  0
  1  2  1  0  0  0  0
  2  8  1  0  0  0  0
  2  3  2  0  0  0  0
  3  9  1  0  0  0  0
  4  3  1  0  0  0  0
  5 21  1  0  0  0  0
  5  4  2  0  0  0  0
  6  5  1  0  0  0  0
  7  1  1  0  0  0  0
  9 14  2  0  0  0  0
  9 10  1  0  0  0  0
 10 11  2  0  0  0  0
 11 12  1  0  0  0  0
 11 16  1  0  0  0  0
 13 17  1  0  0  0  0
 13 12  2  0  0  0  0
 14 13  1  0  0  0  0
 15 10  1  0  0  0  0
 17 19  1  0  0  0  0
 17 20  1  0  0  0  0
 18 17  1  0  0  0  0
 21 27  1  0  0  0  0
 22 23  1  0  0  0  0
 22 21  2  0  0  0  0
 23 25  2  0  0  0  0
 24 23  1  0  0  0  0
 25 26  1  0  0  0  0
 27 26  2  0  0  0  0
M  END
>  <minimizedAffinity>
-5.4615159

$$$$

 OpenBabel03272502243D

 27 29  0  0  0  0  0  0  0  0999 V2000
   36.8810   29.1600   30.0510 C   0  0  0  0  0  0  0  0  0  0  0  0
   36.1670   29.8350   31.0550 C   0  0  0  0  0  0  0  0  0  0  0  0
   35.5620   29.0760   32.0410 C   0  0  0  0  0  0  0  0  0  0  0  0
   35.6950   27.7350   31.9770 N   0  0  0  0  0  0  0  0  0  0  0  0
   36.3810   27.1090   31.0090 C   0  0  0  0  0  0  0  0  0  0  0  0
   36.9790   27.8250   30.0380 N   0  0  0  0  0  0  0  0  0  0  0  0
   37.3460   29.7630   29.2900 H   0  0  0  0  0  0  0  0  0  0  0  0
   36.0630   30.9100   31.1030 H   0  0  0  0  0  0  0  0  0  0  0  0
   34.7920   29.6490   33.1390 C   0  0  0  0  0  0  0  0  0  0  0  0
   33.4420   29.3930   33.2960 C   0  0  0  0  0  0  0  0  0  0  0  0
   32.6950   29.9280   34.3340 C   0  0  0  0  0  0  0  0  0  0  0  0
   33.2910   30.7310   35.2320 N   0  0  0  0  0  0  0  0  0  0  0  0
   34.6020   30.9690   35.0680 C   0  0  0  0  0  0  0  0  0  0  0  0
   35.3360   30.4600   34.0720 N   0  0  0  0  0  0  0  0  0  0  0  0
   32.9430   28.7450   32.5760 H   0  0  0  0  0  0  0  0  0  0  0  0
   31.6410   29.6720   34.3750 H   0  0  0  0  0  0  0  0  0  0  0  0
   35.2970   31.8540   36.0450 C   0  0  0  0  0  0  0  0  0  0  0  0
   35.0810   33.1760   35.6650 F   0  0  0  0  0  0  0  0  0  0  0  0
   34.8380   31.6410   37.3340 F   0  0  0  0  0  0  0  0  0  0  0  0
   36.6490   31.6530   36.0450 F   0  0  0  0  0  0  0  0  0  0  0  0
   36.4830   25.6540   31.0040 C   0  0  0  0  0  0  0  0  0  0  0  0
   35.3550   24.8810   31.1860 C   0  0  0  0  0  3  0  0  0  0  0  0
   35.5240   23.5130   31.1700 C   0  0  0  0  0  0  0  0  0  0  0  0
   34.5940   22.9530   31.3200 H   0  0  0  0  0  0  0  0  0  0  0  0
   36.7320   22.9120   30.9850 N   0  0  0  0  0  0  0  0  0  0  0  0
   37.8120   23.7120   30.8090 C   0  0  0  0  0  3  0  0  0  0  0  0
   37.6850   25.0710   30.8190 N   0  0  0  0  0  0  0  0  0  0  0  0
  1  2  1  0  0  0  0
  2  8  1  0  0  0  0
  2  3  2  0  0  0  0
  3  9  1  0  0  0  0
  4  3  1  0  0  0  0
  5  4  2  0  0  0  0
  6  1  2  0  0  0  0
  6  5  1  0  0  0  0
  7  1  1  0  0  0  0
  9 10  2  0  0  0  0
  9 14  1  0  0  0  0
 10 11  1  0  0  0  0
 11 16  1  0  0  0  0
 11 12  2  0  0  0  0
 13 12  1  0  0  0  0
 13 17  1  0  0  0  0
 14 13  2  0  0  0  0
 15 10  1  0  0  0  0
 17 19  1  0  0  0  0
 18 17  1  0  0  0  0
 20 17  1  0  0  0  0
 21  5  1  0  0  0  0
 21 22  1  0  0  0  0
 23 22  2  0  0  0  0
 23 24  1  0  0  0  0
 25 23  1  0  0  0  0
 26 27  1  0  0  0  0
 26 25  2  0  0  0  0
 27 21  2  0  0  0  0
M  END
>  <minimizedAffinity>
-5.33432865

$$$$

 OpenBabel03272502243D

 27 29  0  0  0  0  0  0  0  0999 V2000
   36.9200   27.7810   33.2970 C   0  0  0  0  0  0  0  0  0  0  0  0
   37.1480   26.7450   34.2170 C   0  0  0  0  0  0  0  0  0  0  0  0
   37.9380   25.6830   33.8140 C   0  0  0  0  0  0  0  0  0  0  0  0
   38.4390   25.7090   32.5620 N   0  0  0  0  0  0  0  0  0  0  0  0
   38.2100   26.7080   31.6980 C   0  0  0  0  0  0  0  0  0  0  0  0
   37.4450   27.7530   32.0660 N   0  0  0  0  0  0  0  0  0  0  0  0
   36.3040   28.6010   33.6240 H   0  0  0  0  0  0  0  0  0  0  0  0
   36.7430   26.7280   35.2200 H   0  0  0  0  0  0  0  0  0  0  0  0
   38.2520   24.5430   34.6680 C   0  0  0  0  0  0  0  0  0  0  0  0
   38.6720   23.3330   34.1460 C   0  0  0  0  0  0  0  0  0  0  0  0
   38.9760   22.2410   34.9440 C   0  0  0  0  0  0  0  0  0  0  0  0
   38.8630   22.3440   36.2790 N   0  0  0  0  0  0  0  0  0  0  0  0
   38.4540   23.5250   36.7710 C   0  0  0  0  0  0  0  0  0  0  0  0
   38.1570   24.5880   36.0140 N   0  0  0  0  0  0  0  0  0  0  0  0
   38.7690   23.2320   33.0660 H   0  0  0  0  0  0  0  0  0  0  0  0
   39.2980   21.3320   34.4440 H   0  0  0  0  0  0  0  0  0  0  0  0
   38.3170   23.6770   38.2460 C   0  0  0  0  0  0  0  0  0  0  0  0
   38.0190   25.0090   38.5210 F   0  0  0  0  0  0  0  0  0  0  0  0
   37.3290   22.8470   38.7490 F   0  0  0  0  0  0  0  0  0  0  0  0
   39.4800   23.3830   38.9000 F   0  0  0  0  0  0  0  0  0  0  0  0
   38.7860   26.6690   30.3580 C   0  0  0  0  0  0  0  0  0  0  0  0
   39.4120   25.5250   29.9070 C   0  0  0  0  0  3  0  0  0  0  0  0
   39.9340   25.5570   28.6320 C   0  0  0  0  0  0  0  0  0  0  0  0
   40.4180   24.6220   28.3310 H   0  0  0  0  0  0  0  0  0  0  0  0
   39.8560   26.6490   27.8210 N   0  0  0  0  0  0  0  0  0  0  0  0
   39.2320   27.7500   28.3060 C   0  0  0  0  0  3  0  0  0  0  0  0
   38.7020   27.7560   29.5640 N   0  0  0  0  0  0  0  0  0  0  0  0
  1  7  1  0  0  0  0
  1  2  1  0  0  0  0
  2  8  1  0  0  0  0
  3  2  2  0  0  0  0
  3  9  1  0  0  0  0
  4  3  1  0  0  0  0
  5  6  1  0  0  0  0
  5  4  2  0  0  0  0
  6  1  2  0  0  0  0
  9 14  1  0  0  0  0
 10  9  2  0  0  0  0
 10 11  1  0  0  0  0
 11 12  2  0  0  0  0
 12 13  1  0  0  0  0
 13 17  1  0  0  0  0
 14 13  2  0  0  0  0
 15 10  1  0  0  0  0
 16 11  1  0  0  0  0
 17 18  1  0  0  0  0
 17 19  1  0  0  0  0
 17 20  1  0  0  0  0
 21  5  1  0  0  0  0
 22 21  1  0  0  0  0
 23 22  2  0  0  0  0
 24 23  1  0  0  0  0
 25 26  2  0  0  0  0
 25 23  1  0  0  0  0
 26 27  1  0  0  0  0
 27 21  2  0  0  0  0
M  END
>  <minimizedAffinity>
-5.32851982

$$$$

 OpenBabel03272502243D

 27 29  0  0  0  0  0  0  0  0999 V2000
   38.4910   23.8640   30.7300 C   0  0  0  0  0  0  0  0  0  0  0  0
   38.6370   24.6520   31.8840 C   0  0  0  0  0  0  0  0  0  0  0  0
   38.0600   24.1950   33.0560 C   0  0  0  0  0  0  0  0  0  0  0  0
   37.3950   23.0220   33.0180 N   0  0  0  0  0  0  0  0  0  0  0  0
   37.2680   22.2850   31.9050 C   0  0  0  0  0  0  0  0  0  0  0  0
   37.8190   22.7070   30.7520 N   0  0  0  0  0  0  0  0  0  0  0  0
   38.9450   24.2310   29.8250 H   0  0  0  0  0  0  0  0  0  0  0  0
   39.1710   25.5910   31.9100 H   0  0  0  0  0  0  0  0  0  0  0  0
   38.1350   24.9140   34.3230 C   0  0  0  0  0  0  0  0  0  0  0  0
   38.2580   26.2900   34.3750 C   0  0  0  0  0  0  0  0  0  0  0  0
   38.3290   26.9890   35.5700 C   0  0  0  0  0  0  0  0  0  0  0  0
   38.2780   26.3180   36.7340 N   0  0  0  0  0  0  0  0  0  0  0  0
   38.1580   24.9820   36.6670 C   0  0  0  0  0  0  0  0  0  0  0  0
   38.0880   24.2930   35.5220 N   0  0  0  0  0  0  0  0  0  0  0  0
   38.3010   26.8500   33.4420 H   0  0  0  0  0  0  0  0  0  0  0  0
   38.4250   28.0690   35.5130 H   0  0  0  0  0  0  0  0  0  0  0  0
   38.0980   24.2040   37.9360 C   0  0  0  0  0  0  0  0  0  0  0  0
   37.0650   23.2770   37.8300 F   0  0  0  0  0  0  0  0  0  0  0  0
   39.2980   23.5630   38.1930 F   0  0  0  0  0  0  0  0  0  0  0  0
   37.8130   25.0010   39.0100 F   0  0  0  0  0  0  0  0  0  0  0  0
   36.5330   21.0250   31.9380 C   0  0  0  0  0  0  0  0  0  0  0  0
   37.2130   19.8260   31.9100 C   0  0  0  0  0  3  0  0  0  0  0  0
   36.4560   18.6740   31.9440 C   0  0  0  0  0  0  0  0  0  0  0  0
   37.0510   17.7550   31.9190 H   0  0  0  0  0  0  0  0  0  0  0  0
   35.0950   18.6770   32.0040 N   0  0  0  0  0  0  0  0  0  0  0  0
   34.4690   19.8790   32.0310 C   0  0  0  0  0  3  0  0  0  0  0  0
   35.1850   21.0410   31.9980 N   0  0  0  0  0  0  0  0  0  0  0  0
  1  6  2  0  0  0  0
  1  2  1  0  0  0  0
  2  8  1  0  0  0  0
  2  3  2  0  0  0  0
  3  9  1  0  0  0  0
  4  3  1  0  0  0  0
  5 21  1  0  0  0  0
  5  4  2  0  0  0  0
  6  5  1  0  0  0  0
  7  1  1  0  0  0  0
  9 10  2  0  0  0  0
  9 14  1  0  0  0  0
 10 11  1  0  0  0  0
 11 12  2  0  0  0  0
 13 12  1  0  0  0  0
 13 17  1  0  0  0  0
 14 13  2  0  0  0  0
 15 10  1  0  0  0  0
 16 11  1  0  0  0  0
 17 19  1  0  0  0  0
 17 20  1  0  0  0  0
 18 17  1  0  0  0  0
 21 27  1  0  0  0  0
 22 21  2  0  0  0  0
 22 23  1  0  0  0  0
 23 25  2  0  0  0  0
 24 23  1  0  0  0  0
 25 26  1  0  0  0  0
 27 26  2  0  0  0  0
M  END
>  <minimizedAffinity>
-5.32499552

$$$$
