
 OpenBabel03272500123D

 19 20  0  0  0  0  0  0  0  0999 V2000
   35.8730   29.5650   50.4110 C   0  0  0  0  0  0  0  0  0  0  0  0
   36.4550   30.4070   49.4370 C   0  0  0  0  0  0  0  0  0  0  0  0
   36.0060   30.3180   48.1210 C   0  0  0  0  0  0  0  0  0  0  0  0
   35.0230   29.4120   47.8520 N   0  0  0  0  0  0  0  0  0  0  0  0
   34.4860   28.6250   48.7900 C   0  0  0  0  0  0  0  0  0  0  0  0
   34.8930   28.6880   50.0560 N   0  0  0  0  0  0  0  0  0  0  0  0
   36.1950   29.6030   51.4560 H   0  0  0  0  0  0  0  0  0  0  0  0
   36.4540   30.9590   47.3930 H   0  0  0  0  0  0  0  0  0  0  0  0
   33.4370   27.6830   48.4240 C   0  0  0  0  0  0  0  0  0  0  0  0
   33.7240   26.5600   47.6660 C   0  0  0  0  0  0  0  0  0  0  0  0
   32.6690   25.7230   47.3650 C   0  0  0  0  0  0  0  0  0  0  0  0
   32.8580   24.8190   46.7640 H   0  0  0  0  0  0  0  0  0  0  0  0
   31.3780   25.9000   47.7470 N   0  0  0  0  0  0  0  0  0  0  0  0
   31.1660   27.0220   48.4910 C   0  0  0  0  0  0  0  0  0  0  0  0
   32.1550   27.8470   48.7960 N   0  0  0  0  0  0  0  0  0  0  0  0
   37.5290   31.3530   49.8860 C   0  0  0  0  0  0  0  0  0  0  0  0
   38.4140   31.6250   48.8350 F   0  0  0  0  0  0  0  0  0  0  0  0
   36.9110   32.5500   50.2220 F   0  0  0  0  0  0  0  0  0  0  0  0
   38.2440   30.8960   50.9590 F   0  0  0  0  0  0  0  0  0  0  0  0
  1  7  1  0  0  0  0
  2 16  1  0  0  0  0
  2  1  2  0  0  0  0
  3  2  1  0  0  0  0
  4  3  2  0  0  0  0
  4  5  1  0  0  0  0
  5  6  2  0  0  0  0
  6  1  1  0  0  0  0
  8  3  1  0  0  0  0
  9  5  1  0  0  0  0
  9 15  1  0  0  0  0
 10  9  2  0  0  0  0
 11 10  1  0  0  0  0
 11 13  2  0  0  0  0
 12 11  1  0  0  0  0
 13 14  1  0  0  0  0
 14 15  2  0  0  0  0
 16 18  1  0  0  0  0
 16 19  1  0  0  0  0
 17 16  1  0  0  0  0
M  END
>  <minimizedAffinity>
-5.07271862

>  <minimizedRMSD>
1.19359183

$$$$
