
     RDKit          3D

 32 34  0  0  0  0  0  0  0  0999 V2000
   35.1652   28.6748   50.0287 C   0  0  0  0  0  0  0  0  0  0  0  0
   36.2364   29.5968   49.8579 C   0  0  0  0  0  0  0  0  0  0  0  0
   36.1559   30.5033   48.8059 C   0  0  0  0  0  0  0  0  0  0  0  0
   35.0562   30.4646   47.9904 N   0  0  0  0  0  0  0  0  0  0  0  0
   34.0629   29.5582   48.2045 C   0  0  0  0  0  0  0  0  0  0  0  0
   34.1026   28.6778   49.1966 N   0  0  0  0  0  0  0  0  0  0  0  0
   33.0296   29.6954   47.2270 N   0  0  0  0  0  0  0  0  0  0  0  0
   37.2302   31.4649   48.5945 C   0  0  0  0  0  0  0  0  0  0  0  0
   37.1962   32.4980   49.5111 C   0  0  0  0  0  0  0  0  0  0  0  0
   38.1510   33.5024   49.4529 C   0  0  0  0  0  0  0  0  0  0  0  0
   39.1359   33.4644   48.4737 C   0  0  0  0  0  0  0  0  0  0  0  0
   39.1351   32.4201   47.5808 C   0  0  0  0  0  0  0  0  0  0  0  0
   38.2006   31.4508   47.6496 N   0  0  0  0  0  0  0  0  0  0  0  0
   37.3797   29.5488   50.8008 C   0  0  0  0  0  0  0  0  0  0  0  0
   38.5867   29.8083   50.1511 F   0  0  0  0  0  0  0  0  0  0  0  0
   37.1915   30.4976   51.7554 F   0  0  0  0  0  0  0  0  0  0  0  0
   37.5133   28.3250   51.4332 F   0  0  0  0  0  0  0  0  0  0  0  0
   35.2043   27.9620   50.8372 H   0  0  0  0  0  0  0  0  0  0  0  0
   32.4291   30.5553   47.3201 H   0  0  0  0  0  0  0  0  0  0  0  0
   32.9462   28.9446   46.5025 H   0  0  0  0  0  0  0  0  0  0  0  0
   36.5023   32.6736   50.3263 H   0  0  0  0  0  0  0  0  0  0  0  0
   38.2062   34.3481   50.1235 H   0  0  0  0  0  0  0  0  0  0  0  0
   39.9014   34.2246   48.3883 H   0  0  0  0  0  0  0  0  0  0  0  0
   40.1475   32.3368   46.5364 C   0  0  0  0  0  0  0  0  0  0  0  0
   40.4980   33.4363   45.7878 C   0  0  0  0  0  0  0  0  0  0  0  0
   41.4690   33.2263   44.8307 C   0  0  0  0  0  0  0  0  0  0  0  0
   41.7730   34.0856   44.2136 H   0  0  0  0  0  0  0  0  0  0  0  0
   42.0443   32.0273   44.6324 N   0  0  0  0  0  0  0  0  0  0  0  0
   41.6802   30.9554   45.3861 C   0  0  0  0  0  0  0  0  0  0  0  0
   40.7478   31.1547   46.3058 N   0  0  0  0  0  0  0  0  0  0  0  0
   40.0156   34.3868   45.9728 H   0  0  0  0  0  0  0  0  0  0  0  0
   42.1052   29.9836   45.2691 H   0  0  0  0  0  0  0  0  0  0  0  0
  2  1  2  0
  2 14  1  0
  3  2  1  0
  4  5  1  0
  4  3  2  0
  5  6  2  0
  6  1  1  0
  7  5  1  0
  8  3  1  0
  8  9  2  0
 10  9  1  0
 11 10  2  0
 12 13  2  0
 12 11  1  0
 13  8  1  0
 14 17  1  0
 14 16  1  0
 15 14  1  0
  1 18  1  0
  7 19  1  0
  7 20  1  0
  9 21  1  0
 10 22  1  0
 11 23  1  0
 24 25  2  0
 25 26  1  0
 26 27  1  0
 26 28  2  0
 28 29  1  0
 29 30  2  0
 30 24  1  0
 25 31  1  0
 29 32  1  0
 12 24  1  0
M  ISO  5  18  14  21  14  22  14  23  14  27  14
M  END
>  <DihAtoms>  (1) 
12,11,23,24

>  <DihDeg>  (1) 
0.00011645304907044534

$$$$
