
 OpenBabel03262522203D

 17 18  0  0  0  0  0  0  0  0999 V2000
   36.7330   29.4090   50.0000 C   0  0  0  0  0  0  0  0  0  0  0  0
   36.7450   30.0290   48.7360 C   0  0  0  0  0  0  0  0  0  0  0  0
   35.5280   30.4260   48.2080 C   0  0  0  0  0  0  0  0  0  0  0  0
   34.3870   30.2080   48.9150 N   0  0  0  0  0  0  0  0  0  0  0  0
   34.4210   29.6060   50.1290 C   0  0  0  0  0  0  0  0  0  0  0  0
   35.5780   29.2030   50.6850 N   0  0  0  0  0  0  0  0  0  0  0  0
   37.6380   29.0650   50.4910 H   0  0  0  0  0  0  0  0  0  0  0  0
   35.5940   30.8850   47.2580 H   0  0  0  0  0  0  0  0  0  0  0  0
   33.4470   29.4870   50.5960 H   0  0  0  0  0  0  0  0  0  0  0  0
   37.9970   30.1570   48.1870 O   0  0  0  0  0  0  0  0  0  0  0  0
   38.3070   30.9850   47.1060 C   0  0  0  0  0  0  0  0  0  0  0  0
   37.8400   30.8400   45.8090 C   0  0  0  0  0  3  0  0  0  0  0  0
   38.2380   31.7440   44.8420 C   0  0  0  0  0  0  0  0  0  0  0  0
   37.8660   31.6200   43.8360 H   0  0  0  0  0  0  0  0  0  0  0  0
   39.0700   32.7550   45.1520 N   0  0  0  0  0  0  0  0  0  0  0  0
   39.4880   32.8430   46.4270 C   0  0  0  0  0  3  0  0  0  0  0  0
   39.1390   31.9960   47.4170 N   0  0  0  0  0  0  0  0  0  0  0  0
  1  7  1  0  0  0  0
  1  6  1  0  0  0  0
  2  1  2  0  0  0  0
  3  2  1  0  0  0  0
  3  4  2  0  0  0  0
  4  5  1  0  0  0  0
  5  9  1  0  0  0  0
  5  6  2  0  0  0  0
  8  3  1  0  0  0  0
 10  2  1  0  0  0  0
 11 17  1  0  0  0  0
 11 10  1  0  0  0  0
 12 11  2  0  0  0  0
 13 15  2  0  0  0  0
 13 12  1  0  0  0  0
 14 13  1  0  0  0  0
 15 16  1  0  0  0  0
 16 17  2  0  0  0  0
M  END
>  <minimizedAffinity>
-3.91717219

>  <minimizedRMSD>
3.58412147

$$$$
