
 OpenBabel03272508083D

 22 23  0  0  0  0  0  0  0  0999 V2000
   38.4780   32.7410   47.7390 O   0  0  0  0  0  0  0  0  0  0  0  0
   38.2290   31.3620   47.1920 P   0  0  2  0  0  0  0  0  0  0  0  0
   36.9220   31.4160   46.1010 O   0  0  0  0  0  0  0  0  0  0  0  0
   36.6310   32.3520   45.9660 H   0  0  0  0  0  0  0  0  0  0  0  0
   37.9800   30.1750   48.3610 O   0  0  0  0  0  0  0  0  0  0  0  0
   35.4460   29.2300   50.8760 C   0  0  0  0  0  0  0  0  0  0  0  0
   36.7210   29.3460   50.3390 C   0  0  0  0  0  0  0  0  0  0  0  0
   36.8540   29.9450   49.0950 C   0  0  0  0  0  0  0  0  0  0  0  0
   35.7270   30.3840   48.4680 N   0  0  0  0  0  0  0  0  0  0  0  0
   34.5000   30.2490   49.0310 C   0  0  0  0  0  0  0  0  0  0  0  0
   34.3660   29.6730   50.2310 N   0  0  0  0  0  0  0  0  0  0  0  0
   35.4440   28.7530   51.8450 H   0  0  0  0  0  0  0  0  0  0  0  0
   37.6510   29.0290   50.7640 H   0  0  0  0  0  0  0  0  0  0  0  0
   33.6010   30.6030   48.5240 H   0  0  0  0  0  0  0  0  0  0  0  0
   39.5810   30.9330   46.2590 O   0  0  0  0  0  0  0  0  0  0  0  0
   39.5770   30.6430   44.9160 C   0  0  0  0  0  0  0  0  0  0  0  0
   39.1810   29.4950   44.2760 C   0  0  0  0  0  3  0  0  0  0  0  0
   39.2500   29.3840   42.8990 C   0  0  0  0  0  0  0  0  0  0  0  0
   38.9220   28.4490   42.4390 H   0  0  0  0  0  0  0  0  0  0  0  0
   39.7160   30.4240   42.1620 N   0  0  0  0  0  0  0  0  0  0  0  0
   40.0970   31.5320   42.8080 C   0  0  0  0  0  3  0  0  0  0  0  0
   40.0400   31.6680   44.1580 N   0  0  0  0  0  0  0  0  0  0  0  0
  2  1  2  1  0  0  0
  2  5  1  0  0  0  0
  3  2  1  0  0  0  0
  4  3  1  0  0  0  0
  5  8  1  0  0  0  0
  6 12  1  0  0  0  0
  7 13  1  0  0  0  0
  7  6  1  0  0  0  0
  8  7  2  0  0  0  0
  9 10  2  0  0  0  0
  9  8  1  0  0  0  0
 10 11  1  0  0  0  0
 11  6  2  0  0  0  0
 14 10  1  0  0  0  0
 15  2  1  0  0  0  0
 16 15  1  0  0  0  0
 17 16  1  0  0  0  0
 18 17  2  0  0  0  0
 19 18  1  0  0  0  0
 20 21  2  0  0  0  0
 20 18  1  0  0  0  0
 21 22  1  0  0  0  0
 22 16  2  0  0  0  0
M  END
>  <minimizedAffinity>
-4.68289757

>  <minimizedRMSD>
1.82050049

$$$$
