
 OpenBabel03272509463D

 23 24  0  0  0  0  0  0  0  0999 V2000
   33.7890   28.7230   49.3850 C   0  0  0  0  0  0  0  0  0  0  0  0
   33.7980   29.7960   49.1560 H   0  0  0  0  0  0  0  0  0  0  0  0
   33.2640   28.5920   50.3550 H   0  0  0  0  0  0  0  0  0  0  0  0
   33.0760   27.8930   48.3570 C   0  0  0  0  0  0  0  0  0  0  0  0
   32.0020   28.0610   48.4260 H   0  0  0  0  0  0  0  0  0  0  0  0
   33.3020   26.8060   48.5280 H   0  0  0  0  0  0  0  0  0  0  0  0
   33.5530   28.1680   46.9750 C   0  0  0  0  0  0  0  0  0  0  0  0
   33.8520   29.4800   46.6680 C   0  0  0  0  0  3  0  0  0  0  0  0
   34.3020   29.8530   45.4200 C   0  0  0  0  0  0  0  0  0  0  0  0
   34.5550   30.8620   45.1120 H   0  0  0  0  0  0  0  0  0  0  0  0
   34.4550   28.9190   44.4770 N   0  0  0  0  0  0  0  0  0  0  0  0
   34.1600   27.6330   44.7850 C   0  0  0  0  0  3  0  0  0  0  0  0
   33.7200   27.2470   45.9950 N   0  0  0  0  0  0  0  0  0  0  0  0
   35.0970   28.2090   49.6040 O   0  0  0  0  0  0  0  0  0  0  0  0
   37.4490   30.3250   51.3800 C   0  0  0  0  0  0  0  0  0  0  0  0
   38.1420   30.8760   50.2850 C   0  0  0  0  0  0  0  0  0  0  0  0
   37.7590   30.4900   49.0060 C   0  0  0  0  0  0  0  0  0  0  0  0
   36.7300   29.5930   48.8990 N   0  0  0  0  0  0  0  0  0  0  0  0
   36.0900   29.0860   49.9590 C   0  0  0  0  0  0  0  0  0  0  0  0
   36.4550   29.4560   51.2080 N   0  0  0  0  0  0  0  0  0  0  0  0
   37.6950   30.5820   52.4070 H   0  0  0  0  0  0  0  0  0  0  0  0
   38.9460   31.5810   50.4630 H   0  0  0  0  0  0  0  0  0  0  0  0
   38.2680   30.8910   48.1360 H   0  0  0  0  0  0  0  0  0  0  0  0
  1 14  1  0  0  0  0
  1  3  1  0  0  0  0
  2  1  1  0  0  0  0
  4  5  1  0  0  0  0
  4  6  1  0  0  0  0
  4  1  1  0  0  0  0
  7  4  1  0  0  0  0
  8  7  1  0  0  0  0
  9  8  2  0  0  0  0
 10  9  1  0  0  0  0
 11 12  2  0  0  0  0
 11  9  1  0  0  0  0
 12 13  1  0  0  0  0
 13  7  2  0  0  0  0
 14 19  1  0  0  0  0
 15 21  1  0  0  0  0
 16 22  1  0  0  0  0
 16 15  2  0  0  0  0
 17 16  1  0  0  0  0
 18 17  2  0  0  0  0
 18 19  1  0  0  0  0
 19 20  2  0  0  0  0
 20 15  1  0  0  0  0
 23 17  1  0  0  0  0
M  END
>  <minimizedAffinity>
-3.90145421

>  <minimizedRMSD>
1.38391364

$$$$
