
 OpenBabel03272503313D

 32 34  0  0  1  0  0  0  0  0999 V2000
   38.4990   23.8870   36.1230 N   0  0  0  0  0  0  0  0  0  0  0  0
   39.3120   22.8220   35.6330 C   0  0  0  0  0  0  0  0  0  0  0  0
   39.8740   22.2060   36.8990 C   0  0  2  0  0  0  0  0  0  0  0  0
   39.3670   23.0610   38.0480 C   0  0  0  0  0  0  0  0  0  0  0  0
   38.0340   23.4750   37.4340 C   0  0  0  0  0  0  0  0  0  0  0  0
   38.6210   22.1010   35.1080 H   0  0  0  0  0  0  0  0  0  0  0  0
   40.0770   23.1140   34.9150 H   0  0  0  0  0  0  0  0  0  0  0  0
   39.4610   21.1710   37.0000 H   0  0  0  0  0  0  0  0  0  0  0  0
   39.1420   22.4060   38.9300 H   0  0  0  0  0  0  0  0  0  0  0  0
   40.0120   23.9160   38.2720 H   0  0  0  0  0  0  0  0  0  0  0  0
   37.3540   22.6220   37.4280 H   0  0  0  0  0  0  0  0  0  0  0  0
   37.6680   24.3560   37.9750 H   0  0  0  0  0  0  0  0  0  0  0  0
   38.1800   25.1250   35.4830 C   0  0  0  0  0  0  0  0  0  0  0  0
   38.4500   26.2840   36.2050 C   0  0  0  0  0  0  0  0  0  0  0  0
   38.1440   27.5090   35.5950 C   0  0  0  0  0  0  0  0  0  0  0  0
   37.6060   27.4680   34.3390 N   0  0  0  0  0  0  0  0  0  0  0  0
   37.3550   26.3380   33.6640 C   0  0  0  0  0  0  0  0  0  0  0  0
   37.6490   25.1500   34.2490 N   0  0  0  0  0  0  0  0  0  0  0  0
   38.8730   26.3260   37.1910 H   0  0  0  0  0  0  0  0  0  0  0  0
   38.3140   28.4620   36.0670 H   0  0  0  0  0  0  0  0  0  0  0  0
   36.6560   26.3530   32.0410 S   0  0  0  0  0  0  0  0  0  0  0  0
   36.0610   28.0210   31.7130 C   0  0  0  0  0  0  0  0  0  0  0  0
   36.7310   28.7250   30.7260 C   0  0  0  0  0  3  0  0  0  0  0  0
   36.2380   30.0140   30.5030 C   0  0  0  0  0  0  0  0  0  0  0  0
   36.6980   30.6330   29.7560 H   0  0  0  0  0  0  0  0  0  0  0  0
   35.2040   30.5600   31.1680 N   0  0  0  0  0  0  0  0  0  0  0  0
   34.5950   29.8240   32.1150 C   0  0  0  0  0  3  0  0  0  0  0  0
   35.0240   28.5830   32.3720 N   0  0  0  0  0  0  0  0  0  0  0  0
   41.3710   22.0820   36.8880 C   0  0  0  0  0  0  0  0  0  0  0  0
   41.7030   21.4820   35.6820 F   0  0  0  0  0  0  0  0  0  0  0  0
   41.7160   21.1980   37.8870 F   0  0  0  0  0  0  0  0  0  0  0  0
   42.0210   23.2630   37.0850 F   0  0  0  0  0  0  0  0  0  0  0  0
  1  5  1  0  0  0  0
  2  1  1  0  0  0  0
  2  3  1  0  0  0  0
  3  8  1  1  0  0  0
  3  4  1  0  0  0  0
  4 10  1  0  0  0  0
  4  9  1  0  0  0  0
  5 12  1  0  0  0  0
  5  4  1  0  0  0  0
  6  2  1  0  0  0  0
  7  2  1  0  0  0  0
 11  5  1  0  0  0  0
 13  1  1  0  0  0  0
 13 14  1  0  0  0  0
 14 19  1  0  0  0  0
 15 20  1  0  0  0  0
 15 14  2  0  0  0  0
 16 15  1  0  0  0  0
 17 18  1  0  0  0  0
 17 16  2  0  0  0  0
 18 13  2  0  0  0  0
 21 17  1  0  0  0  0
 22 21  1  0  0  0  0
 22 28  1  0  0  0  0
 23 22  2  0  0  0  0
 24 23  1  0  0  0  0
 24 26  2  0  0  0  0
 25 24  1  0  0  0  0
 26 27  1  0  0  0  0
 27 28  2  0  0  0  0
 29  3  1  0  0  0  0
 29 32  1  0  0  0  0
 29 31  1  0  0  0  0
 30 29  1  0  0  0  0
M  END
>  <minimizedAffinity>
-5.39979315

$$$$

 OpenBabel03272503313D

 32 34  0  0  1  0  0  0  0  0999 V2000
   38.4290   23.8780   36.2670 N   0  0  0  0  0  0  0  0  0  0  0  0
   39.0960   22.6680   35.9130 C   0  0  0  0  0  0  0  0  0  0  0  0
   39.7220   22.2240   37.2190 C   0  0  2  0  0  0  0  0  0  0  0  0
   39.4040   23.3110   38.2330 C   0  0  0  0  0  0  0  0  0  0  0  0
   38.0590   23.7460   37.6630 C   0  0  0  0  0  0  0  0  0  0  0  0
   38.2980   21.9420   35.5820 H   0  0  0  0  0  0  0  0  0  0  0  0
   39.8110   22.7530   35.0950 H   0  0  0  0  0  0  0  0  0  0  0  0
   39.2340   21.2690   37.5380 H   0  0  0  0  0  0  0  0  0  0  0  0
   39.2090   22.8430   39.2340 H   0  0  0  0  0  0  0  0  0  0  0  0
   40.1380   24.1220   38.2470 H   0  0  0  0  0  0  0  0  0  0  0  0
   37.3100   22.9790   37.8650 H   0  0  0  0  0  0  0  0  0  0  0  0
   37.8240   24.7400   38.0650 H   0  0  0  0  0  0  0  0  0  0  0  0
   38.1570   25.0140   35.4420 C   0  0  0  0  0  0  0  0  0  0  0  0
   38.2450   26.2610   36.0550 C   0  0  0  0  0  0  0  0  0  0  0  0
   37.9820   27.3880   35.2630 C   0  0  0  0  0  0  0  0  0  0  0  0
   37.6610   27.1730   33.9510 N   0  0  0  0  0  0  0  0  0  0  0  0
   37.5830   25.9620   33.3840 C   0  0  0  0  0  0  0  0  0  0  0  0
   37.8360   24.8680   34.1450 N   0  0  0  0  0  0  0  0  0  0  0  0
   38.4960   26.4390   37.0830 H   0  0  0  0  0  0  0  0  0  0  0  0
   38.0230   28.3970   35.6400 H   0  0  0  0  0  0  0  0  0  0  0  0
   37.1610   25.7520   31.6810 S   0  0  0  0  0  0  0  0  0  0  0  0
   37.0080   23.9860   31.3650 C   0  0  0  0  0  0  0  0  0  0  0  0
   35.7380   23.4480   31.5040 C   0  0  0  0  0  3  0  0  0  0  0  0
   35.6630   22.0750   31.2510 C   0  0  0  0  0  0  0  0  0  0  0  0
   34.7170   21.5740   31.3360 H   0  0  0  0  0  0  0  0  0  0  0  0
   36.7100   21.3070   30.9010 N   0  0  0  0  0  0  0  0  0  0  0  0
   37.9170   21.8890   30.7830 C   0  0  0  0  0  3  0  0  0  0  0  0
   38.0490   23.2000   31.0130 N   0  0  0  0  0  0  0  0  0  0  0  0
   41.1950   21.9490   37.1120 C   0  0  0  0  0  0  0  0  0  0  0  0
   41.8250   23.1840   37.1620 F   0  0  0  0  0  0  0  0  0  0  0  0
   41.4250   21.4310   35.8560 F   0  0  0  0  0  0  0  0  0  0  0  0
   41.6620   21.0820   38.0520 F   0  0  0  0  0  0  0  0  0  0  0  0
  1  5  1  0  0  0  0
  2  1  1  0  0  0  0
  2  3  1  0  0  0  0
  3  8  1  1  0  0  0
  3  4  1  0  0  0  0
  4 10  1  0  0  0  0
  4  9  1  0  0  0  0
  5 11  1  0  0  0  0
  5 12  1  0  0  0  0
  5  4  1  0  0  0  0
  6  2  1  0  0  0  0
  7  2  1  0  0  0  0
 13 14  1  0  0  0  0
 13  1  1  0  0  0  0
 14 19  1  0  0  0  0
 15 20  1  0  0  0  0
 15 14  2  0  0  0  0
 16 15  1  0  0  0  0
 17 16  2  0  0  0  0
 17 18  1  0  0  0  0
 18 13  2  0  0  0  0
 21 17  1  0  0  0  0
 22 23  1  0  0  0  0
 22 21  1  0  0  0  0
 24 25  1  0  0  0  0
 24 23  2  0  0  0  0
 26 24  1  0  0  0  0
 27 26  2  0  0  0  0
 27 28  1  0  0  0  0
 28 22  2  0  0  0  0
 29 30  1  0  0  0  0
 29  3  1  0  0  0  0
 29 32  1  0  0  0  0
 31 29  1  0  0  0  0
M  END
>  <minimizedAffinity>
-5.39948988

$$$$

 OpenBabel03272503313D

 32 34  0  0  1  0  0  0  0  0999 V2000
   37.3930   22.2920   32.9680 N   0  0  0  0  0  0  0  0  0  0  0  0
   37.3110   20.9010   32.6620 C   0  0  0  0  0  0  0  0  0  0  0  0
   36.0760   20.8120   31.7890 C   0  0  2  0  0  0  0  0  0  0  0  0
   35.4920   22.2140   31.7340 C   0  0  0  0  0  0  0  0  0  0  0  0
   36.7980   22.9920   31.8460 C   0  0  0  0  0  0  0  0  0  0  0  0
   38.2390   20.6430   32.0730 H   0  0  0  0  0  0  0  0  0  0  0  0
   37.2830   20.2360   33.5240 H   0  0  0  0  0  0  0  0  0  0  0  0
   36.3920   20.5040   30.7600 H   0  0  0  0  0  0  0  0  0  0  0  0
   35.0730   22.4050   30.7120 H   0  0  0  0  0  0  0  0  0  0  0  0
   34.8010   22.4300   32.5540 H   0  0  0  0  0  0  0  0  0  0  0  0
   37.3550   22.9090   30.9120 H   0  0  0  0  0  0  0  0  0  0  0  0
   36.5590   24.0180   32.1520 H   0  0  0  0  0  0  0  0  0  0  0  0
   37.9420   22.9110   34.1340 C   0  0  0  0  0  0  0  0  0  0  0  0
   38.1580   22.0840   35.2330 C   0  0  0  0  0  0  0  0  0  0  0  0
   38.6960   22.6720   36.3860 C   0  0  0  0  0  0  0  0  0  0  0  0
   38.9660   24.0110   36.3410 N   0  0  0  0  0  0  0  0  0  0  0  0
   38.7490   24.7870   35.2710 C   0  0  0  0  0  0  0  0  0  0  0  0
   38.2290   24.2240   34.1510 N   0  0  0  0  0  0  0  0  0  0  0  0
   37.9490   21.0310   35.2780 H   0  0  0  0  0  0  0  0  0  0  0  0
   38.9010   22.1200   37.2890 H   0  0  0  0  0  0  0  0  0  0  0  0
   39.1200   26.5150   35.2770 S   0  0  0  0  0  0  0  0  0  0  0  0
   38.0440   27.3130   34.0730 C   0  0  0  0  0  0  0  0  0  0  0  0
   36.8770   27.8690   34.5710 C   0  0  0  0  0  3  0  0  0  0  0  0
   36.0710   28.4780   33.6040 C   0  0  0  0  0  0  0  0  0  0  0  0
   35.1460   28.9340   33.9010 H   0  0  0  0  0  0  0  0  0  0  0  0
   36.3680   28.5390   32.2940 N   0  0  0  0  0  0  0  0  0  0  0  0
   37.5160   27.9800   31.8730 C   0  0  0  0  0  3  0  0  0  0  0  0
   38.3280   27.3830   32.7540 N   0  0  0  0  0  0  0  0  0  0  0  0
   35.0810   19.7920   32.2650 C   0  0  0  0  0  0  0  0  0  0  0  0
   35.3110   19.6290   33.6230 F   0  0  0  0  0  0  0  0  0  0  0  0
   35.3960   18.5960   31.6570 F   0  0  0  0  0  0  0  0  0  0  0  0
   33.7870   20.1140   31.9860 F   0  0  0  0  0  0  0  0  0  0  0  0
  1 13  1  0  0  0  0
  2  1  1  0  0  0  0
  2  7  1  0  0  0  0
  3  8  1  6  0  0  0
  3 29  1  0  0  0  0
  3  2  1  0  0  0  0
  4  3  1  0  0  0  0
  4  5  1  0  0  0  0
  4 10  1  0  0  0  0
  5 12  1  0  0  0  0
  5  1  1  0  0  0  0
  6  2  1  0  0  0  0
  9  4  1  0  0  0  0
 11  5  1  0  0  0  0
 13 18  2  0  0  0  0
 13 14  1  0  0  0  0
 14 19  1  0  0  0  0
 14 15  2  0  0  0  0
 15 20  1  0  0  0  0
 16 15  1  0  0  0  0
 17 21  1  0  0  0  0
 17 16  2  0  0  0  0
 18 17  1  0  0  0  0
 22 23  1  0  0  0  0
 22 21  1  0  0  0  0
 24 25  1  0  0  0  0
 24 23  2  0  0  0  0
 26 24  1  0  0  0  0
 27 26  2  0  0  0  0
 27 28  1  0  0  0  0
 28 22  2  0  0  0  0
 29 30  1  0  0  0  0
 31 29  1  0  0  0  0
 32 29  1  0  0  0  0
M  END
>  <minimizedAffinity>
-5.38660192

$$$$

 OpenBabel03272503313D

 32 34  0  0  1  0  0  0  0  0999 V2000
   36.9790   22.5170   31.7090 N   0  0  0  0  0  0  0  0  0  0  0  0
   36.8390   21.7790   32.9210 C   0  0  0  0  0  0  0  0  0  0  0  0
   36.7060   20.3480   32.4410 C   0  0  2  0  0  0  0  0  0  0  0  0
   36.7070   20.4080   30.9220 C   0  0  0  0  0  0  0  0  0  0  0  0
   37.6130   21.6230   30.7580 C   0  0  0  0  0  0  0  0  0  0  0  0
   37.7970   21.9210   33.5000 H   0  0  0  0  0  0  0  0  0  0  0  0
   36.0230   22.0970   33.5680 H   0  0  0  0  0  0  0  0  0  0  0  0
   37.6030   19.7750   32.7870 H   0  0  0  0  0  0  0  0  0  0  0  0
   37.2570   19.5210   30.5130 H   0  0  0  0  0  0  0  0  0  0  0  0
   35.7130   20.5630   30.4920 H   0  0  0  0  0  0  0  0  0  0  0  0
   38.6400   21.3510   31.0050 H   0  0  0  0  0  0  0  0  0  0  0  0
   37.4700   22.0210   29.7460 H   0  0  0  0  0  0  0  0  0  0  0  0
   36.5890   23.8670   31.4440 C   0  0  0  0  0  0  0  0  0  0  0  0
   35.2450   24.0770   31.1470 C   0  0  0  0  0  0  0  0  0  0  0  0
   34.8410   25.3940   30.8840 C   0  0  0  0  0  0  0  0  0  0  0  0
   35.8000   26.3670   30.9380 N   0  0  0  0  0  0  0  0  0  0  0  0
   37.0880   26.1390   31.2260 C   0  0  0  0  0  0  0  0  0  0  0  0
   37.4850   24.8680   31.4820 N   0  0  0  0  0  0  0  0  0  0  0  0
   34.4850   23.3190   31.1020 H   0  0  0  0  0  0  0  0  0  0  0  0
   33.8260   25.6630   30.6450 H   0  0  0  0  0  0  0  0  0  0  0  0
   38.2800   27.4440   31.2800 S   0  0  0  0  0  0  0  0  0  0  0  0
   39.3480   27.1550   32.7000 C   0  0  0  0  0  0  0  0  0  0  0  0
   40.7070   27.0880   32.4370 C   0  0  0  0  0  3  0  0  0  0  0  0
   41.5010   26.8630   33.5660 C   0  0  0  0  0  0  0  0  0  0  0  0
   42.5670   26.7950   33.4570 H   0  0  0  0  0  0  0  0  0  0  0  0
   41.0250   26.7180   34.8150 N   0  0  0  0  0  0  0  0  0  0  0  0
   39.6960   26.7940   35.0040 C   0  0  0  0  0  3  0  0  0  0  0  0
   38.8860   27.0080   33.9610 N   0  0  0  0  0  0  0  0  0  0  0  0
   35.4980   19.6440   32.9890 C   0  0  0  0  0  0  0  0  0  0  0  0
   35.3900   20.0340   34.3160 F   0  0  0  0  0  0  0  0  0  0  0  0
   35.7730   18.2940   32.9870 F   0  0  0  0  0  0  0  0  0  0  0  0
   34.3580   19.8750   32.2790 F   0  0  0  0  0  0  0  0  0  0  0  0
  1  2  1  0  0  0  0
  2  6  1  0  0  0  0
  2  7  1  0  0  0  0
  3  8  1  1  0  0  0
  3  2  1  0  0  0  0
  3 29  1  0  0  0  0
  4  3  1  0  0  0  0
  5  4  1  0  0  0  0
  5 11  1  0  0  0  0
  5  1  1  0  0  0  0
  9  4  1  0  0  0  0
 10  4  1  0  0  0  0
 12  5  1  0  0  0  0
 13 18  1  0  0  0  0
 13  1  1  0  0  0  0
 14 13  2  0  0  0  0
 15 16  2  0  0  0  0
 15 14  1  0  0  0  0
 16 17  1  0  0  0  0
 17 21  1  0  0  0  0
 17 18  2  0  0  0  0
 19 14  1  0  0  0  0
 20 15  1  0  0  0  0
 21 22  1  0  0  0  0
 22 28  1  0  0  0  0
 23 22  2  0  0  0  0
 23 24  1  0  0  0  0
 24 26  2  0  0  0  0
 25 24  1  0  0  0  0
 26 27  1  0  0  0  0
 28 27  2  0  0  0  0
 29 30  1  0  0  0  0
 31 29  1  0  0  0  0
 32 29  1  0  0  0  0
M  END
>  <minimizedAffinity>
-5.34287739

$$$$

 OpenBabel03272503313D

 32 34  0  0  1  0  0  0  0  0999 V2000
   38.5710   23.8350   34.4570 N   0  0  0  0  0  0  0  0  0  0  0  0
   38.8740   24.6170   35.6110 C   0  0  0  0  0  0  0  0  0  0  0  0
   39.1680   23.5720   36.6690 C   0  0  2  0  0  0  0  0  0  0  0  0
   38.9210   22.2230   36.0130 C   0  0  0  0  0  0  0  0  0  0  0  0
   39.3230   22.6020   34.5920 C   0  0  0  0  0  0  0  0  0  0  0  0
   39.8000   25.2120   35.3660 H   0  0  0  0  0  0  0  0  0  0  0  0
   38.1040   25.3280   35.9060 H   0  0  0  0  0  0  0  0  0  0  0  0
   40.2470   23.6510   36.9530 H   0  0  0  0  0  0  0  0  0  0  0  0
   39.6740   21.4820   36.3890 H   0  0  0  0  0  0  0  0  0  0  0  0
   37.8820   21.8880   36.0830 H   0  0  0  0  0  0  0  0  0  0  0  0
   40.4050   22.7210   34.5360 H   0  0  0  0  0  0  0  0  0  0  0  0
   38.9040   21.8530   33.9080 H   0  0  0  0  0  0  0  0  0  0  0  0
   37.7080   24.1640   33.3660 C   0  0  0  0  0  0  0  0  0  0  0  0
   37.2200   23.0970   32.6170 C   0  0  0  0  0  0  0  0  0  0  0  0
   36.3730   23.3990   31.5410 C   0  0  0  0  0  0  0  0  0  0  0  0
   36.0930   24.7180   31.3130 N   0  0  0  0  0  0  0  0  0  0  0  0
   36.5750   25.7280   32.0490 C   0  0  0  0  0  0  0  0  0  0  0  0
   37.3960   25.4420   33.0910 N   0  0  0  0  0  0  0  0  0  0  0  0
   37.4340   22.0590   32.7880 H   0  0  0  0  0  0  0  0  0  0  0  0
   35.9420   22.6480   30.9010 H   0  0  0  0  0  0  0  0  0  0  0  0
   36.1750   27.4130   31.7010 S   0  0  0  0  0  0  0  0  0  0  0  0
   37.3650   28.0250   30.4960 C   0  0  0  0  0  0  0  0  0  0  0  0
   38.7010   27.8010   30.7900 C   0  0  0  0  0  3  0  0  0  0  0  0
   39.5910   28.2910   29.8290 C   0  0  0  0  0  0  0  0  0  0  0  0
   40.6470   28.1630   29.9750 H   0  0  0  0  0  0  0  0  0  0  0  0
   39.2230   28.9310   28.7050 N   0  0  0  0  0  0  0  0  0  0  0  0
   37.9110   29.1170   28.4780 C   0  0  0  0  0  3  0  0  0  0  0  0
   37.0120   28.6690   29.3620 N   0  0  0  0  0  0  0  0  0  0  0  0
   38.3680   23.7550   37.9270 C   0  0  0  0  0  0  0  0  0  0  0  0
   38.0310   25.1000   37.9810 F   0  0  0  0  0  0  0  0  0  0  0  0
   39.2110   23.5090   38.9890 F   0  0  0  0  0  0  0  0  0  0  0  0
   37.2820   22.9370   38.0130 F   0  0  0  0  0  0  0  0  0  0  0  0
  1  5  1  0  0  0  0
  1  2  1  0  0  0  0
  2  7  1  0  0  0  0
  2  3  1  0  0  0  0
  3  8  1  1  0  0  0
  3 29  1  0  0  0  0
  4 10  1  0  0  0  0
  4  9  1  0  0  0  0
  4  3  1  0  0  0  0
  5  4  1  0  0  0  0
  6  2  1  0  0  0  0
 11  5  1  0  0  0  0
 12  5  1  0  0  0  0
 13  1  1  0  0  0  0
 14 19  1  0  0  0  0
 14 13  2  0  0  0  0
 15 14  1  0  0  0  0
 16 15  2  0  0  0  0
 16 17  1  0  0  0  0
 17 18  2  0  0  0  0
 18 13  1  0  0  0  0
 20 15  1  0  0  0  0
 21 17  1  0  0  0  0
 22 23  1  0  0  0  0
 22 21  1  0  0  0  0
 24 25  1  0  0  0  0
 24 23  2  0  0  0  0
 26 24  1  0  0  0  0
 27 26  2  0  0  0  0
 27 28  1  0  0  0  0
 28 22  2  0  0  0  0
 29 30  1  0  0  0  0
 29 32  1  0  0  0  0
 29 31  1  0  0  0  0
M  END
>  <minimizedAffinity>
-5.28701019

$$$$

 OpenBabel03272503313D

 32 34  0  0  1  0  0  0  0  0999 V2000
   36.8280   25.8370   31.4520 N   0  0  0  0  0  0  0  0  0  0  0  0
   35.7540   26.7750   31.4250 C   0  0  0  0  0  0  0  0  0  0  0  0
   36.4500   28.1030   31.6480 C   0  0  2  0  0  0  0  0  0  0  0  0
   37.9190   27.7800   31.8680 C   0  0  0  0  0  0  0  0  0  0  0  0
   38.0010   26.5460   30.9770 C   0  0  0  0  0  0  0  0  0  0  0  0
   35.3050   26.7260   30.3910 H   0  0  0  0  0  0  0  0  0  0  0  0
   34.9490   26.5820   32.1330 H   0  0  0  0  0  0  0  0  0  0  0  0
   36.3430   28.7180   30.7200 H   0  0  0  0  0  0  0  0  0  0  0  0
   38.5510   28.5770   31.3970 H   0  0  0  0  0  0  0  0  0  0  0  0
   38.1660   27.5640   32.9120 H   0  0  0  0  0  0  0  0  0  0  0  0
   37.9570   26.8470   29.9300 H   0  0  0  0  0  0  0  0  0  0  0  0
   38.8970   25.9800   31.2600 H   0  0  0  0  0  0  0  0  0  0  0  0
   36.7960   24.4660   31.8560 C   0  0  0  0  0  0  0  0  0  0  0  0
   35.6680   23.7370   31.4880 C   0  0  0  0  0  0  0  0  0  0  0  0
   35.6170   22.3900   31.8760 C   0  0  0  0  0  0  0  0  0  0  0  0
   36.6780   21.8990   32.5840 N   0  0  0  0  0  0  0  0  0  0  0  0
   37.7530   22.6220   32.9260 C   0  0  0  0  0  0  0  0  0  0  0  0
   37.8090   23.9250   32.5540 N   0  0  0  0  0  0  0  0  0  0  0  0
   34.8300   24.1130   30.9330 H   0  0  0  0  0  0  0  0  0  0  0  0
   34.7910   21.7390   31.6420 H   0  0  0  0  0  0  0  0  0  0  0  0
   39.0940   21.9270   33.8450 S   0  0  0  0  0  0  0  0  0  0  0  0
   38.9340   22.4750   35.5520 C   0  0  0  0  0  0  0  0  0  0  0  0
   40.0560   22.3190   36.3510 C   0  0  0  0  0  3  0  0  0  0  0  0
   39.8890   22.7560   37.6690 C   0  0  0  0  0  0  0  0  0  0  0  0
   40.7070   22.6730   38.3590 H   0  0  0  0  0  0  0  0  0  0  0  0
   38.7550   23.2870   38.1570 N   0  0  0  0  0  0  0  0  0  0  0  0
   37.7010   23.4110   37.3320 C   0  0  0  0  0  3  0  0  0  0  0  0
   37.8010   23.0100   36.0590 N   0  0  0  0  0  0  0  0  0  0  0  0
   35.8610   28.9030   32.7750 C   0  0  0  0  0  0  0  0  0  0  0  0
   34.4830   28.8120   32.6380 F   0  0  0  0  0  0  0  0  0  0  0  0
   36.2000   30.2220   32.5620 F   0  0  0  0  0  0  0  0  0  0  0  0
   36.2930   28.5180   34.0080 F   0  0  0  0  0  0  0  0  0  0  0  0
  1 13  1  0  0  0  0
  2  1  1  0  0  0  0
  2  3  1  0  0  0  0
  2  7  1  0  0  0  0
  3  8  1  6  0  0  0
  3  4  1  0  0  0  0
  3 29  1  0  0  0  0
  4 10  1  0  0  0  0
  5 12  1  0  0  0  0
  5  1  1  0  0  0  0
  5  4  1  0  0  0  0
  6  2  1  0  0  0  0
  9  4  1  0  0  0  0
 11  5  1  0  0  0  0
 13 18  1  0  0  0  0
 14 13  2  0  0  0  0
 14 15  1  0  0  0  0
 15 16  2  0  0  0  0
 16 17  1  0  0  0  0
 17 21  1  0  0  0  0
 18 17  2  0  0  0  0
 19 14  1  0  0  0  0
 20 15  1  0  0  0  0
 21 22  1  0  0  0  0
 22 28  2  0  0  0  0
 22 23  1  0  0  0  0
 23 24  2  0  0  0  0
 24 26  1  0  0  0  0
 24 25  1  0  0  0  0
 27 26  2  0  0  0  0
 28 27  1  0  0  0  0
 29 32  1  0  0  0  0
 30 29  1  0  0  0  0
 31 29  1  0  0  0  0
M  END
>  <minimizedAffinity>
-5.2689662

$$$$

 OpenBabel03272503313D

 32 34  0  0  1  0  0  0  0  0999 V2000
   34.7190   29.4140   33.6700 N   0  0  0  0  0  0  0  0  0  0  0  0
   33.5240   29.3370   32.8960 C   0  0  0  0  0  0  0  0  0  0  0  0
   32.4460   29.7310   33.8860 C   0  0  2  0  0  0  0  0  0  0  0  0
   33.1470   29.9340   35.2190 C   0  0  0  0  0  0  0  0  0  0  0  0
   34.4860   30.4270   34.6820 C   0  0  0  0  0  0  0  0  0  0  0  0
   33.6180   30.1080   32.0770 H   0  0  0  0  0  0  0  0  0  0  0  0
   33.3420   28.3780   32.4150 H   0  0  0  0  0  0  0  0  0  0  0  0
   32.0000   30.7020   33.5540 H   0  0  0  0  0  0  0  0  0  0  0  0
   32.6700   30.7880   35.7670 H   0  0  0  0  0  0  0  0  0  0  0  0
   33.2400   29.0150   35.8060 H   0  0  0  0  0  0  0  0  0  0  0  0
   34.3740   31.4400   34.2940 H   0  0  0  0  0  0  0  0  0  0  0  0
   35.2340   30.3150   35.4770 H   0  0  0  0  0  0  0  0  0  0  0  0
   35.9260   28.6630   33.5130 C   0  0  0  0  0  0  0  0  0  0  0  0
   36.3860   28.4940   32.2100 C   0  0  0  0  0  0  0  0  0  0  0  0
   37.5670   27.7590   32.0340 C   0  0  0  0  0  0  0  0  0  0  0  0
   38.1740   27.2680   33.1560 N   0  0  0  0  0  0  0  0  0  0  0  0
   37.7120   27.4440   34.4000 C   0  0  0  0  0  0  0  0  0  0  0  0
   36.5690   28.1530   34.5770 N   0  0  0  0  0  0  0  0  0  0  0  0
   35.9160   28.8760   31.3230 H   0  0  0  0  0  0  0  0  0  0  0  0
   38.0070   27.5720   31.0680 H   0  0  0  0  0  0  0  0  0  0  0  0
   38.5440   26.7800   35.8110 S   0  0  0  0  0  0  0  0  0  0  0  0
   38.2210   25.0100   35.8590 C   0  0  0  0  0  0  0  0  0  0  0  0
   37.8380   24.4920   37.0860 C   0  0  0  0  0  3  0  0  0  0  0  0
   37.5980   23.1150   37.0800 C   0  0  0  0  0  0  0  0  0  0  0  0
   37.2970   22.6280   37.9880 H   0  0  0  0  0  0  0  0  0  0  0  0
   37.7170   22.3260   35.9980 N   0  0  0  0  0  0  0  0  0  0  0  0
   38.0920   22.8880   34.8360 C   0  0  0  0  0  3  0  0  0  0  0  0
   38.3360   24.2030   34.7810 N   0  0  0  0  0  0  0  0  0  0  0  0
   31.3220   28.7380   33.9710 C   0  0  0  0  0  0  0  0  0  0  0  0
   31.4410   27.9210   32.8550 F   0  0  0  0  0  0  0  0  0  0  0  0
   30.1440   29.4390   33.8330 F   0  0  0  0  0  0  0  0  0  0  0  0
   31.2960   28.0350   35.1370 F   0  0  0  0  0  0  0  0  0  0  0  0
  1  5  1  0  0  0  0
  2  1  1  0  0  0  0
  2  3  1  0  0  0  0
  3  8  1  6  0  0  0
  3 29  1  0  0  0  0
  3  4  1  0  0  0  0
  4  9  1  0  0  0  0
  4 10  1  0  0  0  0
  5  4  1  0  0  0  0
  5 12  1  0  0  0  0
  6  2  1  0  0  0  0
  7  2  1  0  0  0  0
 11  5  1  0  0  0  0
 13  1  1  0  0  0  0
 13 18  1  0  0  0  0
 14 13  2  0  0  0  0
 15 14  1  0  0  0  0
 15 16  2  0  0  0  0
 16 17  1  0  0  0  0
 17 18  2  0  0  0  0
 17 21  1  0  0  0  0
 19 14  1  0  0  0  0
 20 15  1  0  0  0  0
 21 22  1  0  0  0  0
 22 23  1  0  0  0  0
 24 23  2  0  0  0  0
 24 25  1  0  0  0  0
 26 24  1  0  0  0  0
 27 26  2  0  0  0  0
 28 27  1  0  0  0  0
 28 22  2  0  0  0  0
 29 32  1  0  0  0  0
 30 29  1  0  0  0  0
 31 29  1  0  0  0  0
M  END
>  <minimizedAffinity>
-5.26556158

$$$$

 OpenBabel03272503313D

 32 34  0  0  1  0  0  0  0  0999 V2000
   35.4080   29.4650   33.2620 N   0  0  0  0  0  0  0  0  0  0  0  0
   34.8250   29.7530   34.5320 C   0  0  0  0  0  0  0  0  0  0  0  0
   34.9580   31.2580   34.6400 C   0  0  2  0  0  0  0  0  0  0  0  0
   35.7080   31.7090   33.3970 C   0  0  0  0  0  0  0  0  0  0  0  0
   35.1920   30.6410   32.4400 C   0  0  0  0  0  0  0  0  0  0  0  0
   33.7400   29.4490   34.4680 H   0  0  0  0  0  0  0  0  0  0  0  0
   35.2590   29.2170   35.3750 H   0  0  0  0  0  0  0  0  0  0  0  0
   33.9320   31.7050   34.6330 H   0  0  0  0  0  0  0  0  0  0  0  0
   35.3010   32.6950   33.0520 H   0  0  0  0  0  0  0  0  0  0  0  0
   36.7960   31.6830   33.5120 H   0  0  0  0  0  0  0  0  0  0  0  0
   34.1480   30.8400   32.1960 H   0  0  0  0  0  0  0  0  0  0  0  0
   35.8690   30.6010   31.5770 H   0  0  0  0  0  0  0  0  0  0  0  0
   36.0760   28.2730   32.8440 C   0  0  0  0  0  0  0  0  0  0  0  0
   35.5910   27.6610   31.6910 C   0  0  0  0  0  0  0  0  0  0  0  0
   36.2330   26.4900   31.2640 C   0  0  0  0  0  0  0  0  0  0  0  0
   37.2840   26.0410   32.0140 N   0  0  0  0  0  0  0  0  0  0  0  0
   37.7330   26.6480   33.1210 C   0  0  0  0  0  0  0  0  0  0  0  0
   37.1160   27.7810   33.5390 N   0  0  0  0  0  0  0  0  0  0  0  0
   34.7670   28.0060   31.0960 H   0  0  0  0  0  0  0  0  0  0  0  0
   35.9360   25.9410   30.3860 H   0  0  0  0  0  0  0  0  0  0  0  0
   39.0980   26.0150   34.0470 S   0  0  0  0  0  0  0  0  0  0  0  0
   38.4710   24.7390   35.1510 C   0  0  0  0  0  0  0  0  0  0  0  0
   38.1370   25.1500   36.4320 C   0  0  0  0  0  3  0  0  0  0  0  0
   37.6550   24.1290   37.2570 C   0  0  0  0  0  0  0  0  0  0  0  0
   37.3730   24.3560   38.2670 H   0  0  0  0  0  0  0  0  0  0  0  0
   37.5130   22.8470   36.8780 N   0  0  0  0  0  0  0  0  0  0  0  0
   37.8550   22.5110   35.6210 C   0  0  0  0  0  3  0  0  0  0  0  0
   38.3220   23.4460   34.7860 N   0  0  0  0  0  0  0  0  0  0  0  0
   35.6240   31.7090   35.9100 C   0  0  0  0  0  0  0  0  0  0  0  0
   36.1230   32.9790   35.6570 F   0  0  0  0  0  0  0  0  0  0  0  0
   36.7080   30.8850   36.1190 F   0  0  0  0  0  0  0  0  0  0  0  0
   34.8090   31.6720   37.0010 F   0  0  0  0  0  0  0  0  0  0  0  0
  1  2  1  0  0  0  0
  2  3  1  0  0  0  0
  2  7  1  0  0  0  0
  3  8  1  6  0  0  0
  3 29  1  0  0  0  0
  4 10  1  0  0  0  0
  4  3  1  0  0  0  0
  5  1  1  0  0  0  0
  5  4  1  0  0  0  0
  6  2  1  0  0  0  0
  9  4  1  0  0  0  0
 11  5  1  0  0  0  0
 12  5  1  0  0  0  0
 13  1  1  0  0  0  0
 13 18  1  0  0  0  0
 14 13  2  0  0  0  0
 15 14  1  0  0  0  0
 15 16  2  0  0  0  0
 16 17  1  0  0  0  0
 17 18  2  0  0  0  0
 17 21  1  0  0  0  0
 19 14  1  0  0  0  0
 20 15  1  0  0  0  0
 21 22  1  0  0  0  0
 22 23  1  0  0  0  0
 23 24  2  0  0  0  0
 24 25  1  0  0  0  0
 26 24  1  0  0  0  0
 27 26  2  0  0  0  0
 28 22  2  0  0  0  0
 28 27  1  0  0  0  0
 29 31  1  0  0  0  0
 29 32  1  0  0  0  0
 30 29  1  0  0  0  0
M  END
>  <minimizedAffinity>
-5.25496054

$$$$

 OpenBabel03272503313D

 32 34  0  0  1  0  0  0  0  0999 V2000
   38.4540   25.4890   34.9560 N   0  0  0  0  0  0  0  0  0  0  0  0
   38.2480   25.6840   36.3530 C   0  0  0  0  0  0  0  0  0  0  0  0
   38.9130   24.4720   36.9730 C   0  0  2  0  0  0  0  0  0  0  0  0
   39.3960   23.6140   35.8150 C   0  0  0  0  0  0  0  0  0  0  0  0
   39.6870   24.7380   34.8260 C   0  0  0  0  0  0  0  0  0  0  0  0
   38.7960   26.6300   36.6330 H   0  0  0  0  0  0  0  0  0  0  0  0
   37.2100   25.8130   36.6580 H   0  0  0  0  0  0  0  0  0  0  0  0
   39.7950   24.8180   37.5670 H   0  0  0  0  0  0  0  0  0  0  0  0
   40.3760   23.1400   36.0840 H   0  0  0  0  0  0  0  0  0  0  0  0
   38.6400   22.9140   35.4470 H   0  0  0  0  0  0  0  0  0  0  0  0
   40.5830   25.2770   35.1380 H   0  0  0  0  0  0  0  0  0  0  0  0
   39.7350   24.3020   33.8200 H   0  0  0  0  0  0  0  0  0  0  0  0
   37.6340   25.9300   33.8700 C   0  0  0  0  0  0  0  0  0  0  0  0
   37.4700   27.3060   33.7360 C   0  0  0  0  0  0  0  0  0  0  0  0
   36.6690   27.7590   32.6780 C   0  0  0  0  0  0  0  0  0  0  0  0
   36.1130   26.8140   31.8610 N   0  0  0  0  0  0  0  0  0  0  0  0
   36.2870   25.4940   32.0110 C   0  0  0  0  0  0  0  0  0  0  0  0
   37.0600   25.0490   33.0330 N   0  0  0  0  0  0  0  0  0  0  0  0
   37.9020   28.0560   34.3720 H   0  0  0  0  0  0  0  0  0  0  0  0
   36.4790   28.8020   32.4860 H   0  0  0  0  0  0  0  0  0  0  0  0
   35.5390   24.3220   30.9200 S   0  0  0  0  0  0  0  0  0  0  0  0
   36.1520   22.6880   31.3630 C   0  0  0  0  0  0  0  0  0  0  0  0
   35.3230   21.9230   32.1680 C   0  0  0  0  0  3  0  0  0  0  0  0
   35.8360   20.6620   32.4890 C   0  0  0  0  0  0  0  0  0  0  0  0
   35.2610   20.0020   33.1100 H   0  0  0  0  0  0  0  0  0  0  0  0
   37.0260   20.1960   32.0720 N   0  0  0  0  0  0  0  0  0  0  0  0
   37.7840   20.9870   31.2920 C   0  0  0  0  0  3  0  0  0  0  0  0
   37.3440   22.2040   30.9520 N   0  0  0  0  0  0  0  0  0  0  0  0
   38.0190   23.7170   37.9150 C   0  0  0  0  0  0  0  0  0  0  0  0
   37.5570   24.6440   38.8390 F   0  0  0  0  0  0  0  0  0  0  0  0
   38.8100   22.8230   38.6040 F   0  0  0  0  0  0  0  0  0  0  0  0
   37.0100   23.0440   37.2950 F   0  0  0  0  0  0  0  0  0  0  0  0
  1  2  1  0  0  0  0
  2  6  1  0  0  0  0
  2  7  1  0  0  0  0
  2  3  1  0  0  0  0
  3  8  1  1  0  0  0
  3 29  1  0  0  0  0
  4  9  1  0  0  0  0
  4  3  1  0  0  0  0
  5  1  1  0  0  0  0
  5 11  1  0  0  0  0
  5  4  1  0  0  0  0
 10  4  1  0  0  0  0
 12  5  1  0  0  0  0
 13  1  1  0  0  0  0
 14 13  1  0  0  0  0
 14 19  1  0  0  0  0
 15 14  2  0  0  0  0
 16 17  2  0  0  0  0
 16 15  1  0  0  0  0
 17 18  1  0  0  0  0
 18 13  2  0  0  0  0
 20 15  1  0  0  0  0
 21 22  1  0  0  0  0
 21 17  1  0  0  0  0
 22 23  1  0  0  0  0
 23 24  2  0  0  0  0
 24 25  1  0  0  0  0
 26 24  1  0  0  0  0
 27 26  2  0  0  0  0
 28 27  1  0  0  0  0
 28 22  2  0  0  0  0
 29 31  1  0  0  0  0
 29 30  1  0  0  0  0
 32 29  1  0  0  0  0
M  END
>  <minimizedAffinity>
-5.22898769

$$$$
