
 OpenBabel03272509463D

 23 24  0  0  0  0  0  0  0  0999 V2000
   33.8850   28.6540   48.7570 C   0  0  0  0  0  0  0  0  0  0  0  0
   34.3030   29.4660   48.1510 H   0  0  0  0  0  0  0  0  0  0  0  0
   32.9740   29.0440   49.2590 H   0  0  0  0  0  0  0  0  0  0  0  0
   33.4900   27.4460   47.9560 C   0  0  0  0  0  0  0  0  0  0  0  0
   34.0090   26.5660   48.3330 H   0  0  0  0  0  0  0  0  0  0  0  0
   33.7530   27.6090   46.8750 H   0  0  0  0  0  0  0  0  0  0  0  0
   32.0200   27.2190   47.9580 C   0  0  0  0  0  0  0  0  0  0  0  0
   31.3210   27.6750   49.0570 C   0  0  0  0  0  3  0  0  0  0  0  0
   29.9560   27.5200   49.1680 C   0  0  0  0  0  0  0  0  0  0  0  0
   29.3450   27.8530   50.0020 H   0  0  0  0  0  0  0  0  0  0  0  0
   29.2870   26.9120   48.1860 N   0  0  0  0  0  0  0  0  0  0  0  0
   29.9790   26.4650   47.1100 C   0  0  0  0  0  3  0  0  0  0  0  0
   31.3100   26.6060   46.9800 N   0  0  0  0  0  0  0  0  0  0  0  0
   34.7530   28.2720   49.8180 O   0  0  0  0  0  0  0  0  0  0  0  0
   37.3500   30.2470   51.4030 C   0  0  0  0  0  0  0  0  0  0  0  0
   38.0480   30.6800   50.2590 C   0  0  0  0  0  0  0  0  0  0  0  0
   37.5840   30.2690   49.0150 C   0  0  0  0  0  0  0  0  0  0  0  0
   36.4750   29.4660   48.9880 N   0  0  0  0  0  0  0  0  0  0  0  0
   35.8330   29.0700   50.0940 C   0  0  0  0  0  0  0  0  0  0  0  0
   36.2760   29.4650   51.3100 N   0  0  0  0  0  0  0  0  0  0  0  0
   37.6570   30.5300   52.4070 H   0  0  0  0  0  0  0  0  0  0  0  0
   38.9180   31.3160   50.3740 H   0  0  0  0  0  0  0  0  0  0  0  0
   38.0930   30.5800   48.1090 H   0  0  0  0  0  0  0  0  0  0  0  0
  1  3  1  0  0  0  0
  1 14  1  0  0  0  0
  2  1  1  0  0  0  0
  4  7  1  0  0  0  0
  4  5  1  0  0  0  0
  4  1  1  0  0  0  0
  6  4  1  0  0  0  0
  7  8  1  0  0  0  0
  8  9  2  0  0  0  0
  9 10  1  0  0  0  0
 11  9  1  0  0  0  0
 12 11  2  0  0  0  0
 13 12  1  0  0  0  0
 13  7  2  0  0  0  0
 14 19  1  0  0  0  0
 15 21  1  0  0  0  0
 16 22  1  0  0  0  0
 16 15  2  0  0  0  0
 17 16  1  0  0  0  0
 18 17  2  0  0  0  0
 18 19  1  0  0  0  0
 19 20  2  0  0  0  0
 20 15  1  0  0  0  0
 23 17  1  0  0  0  0
M  END
>  <minimizedAffinity>
-4.25195932

>  <minimizedRMSD>
2.30734372

$$$$
