
 OpenBabel03272510283D

 43 47  0  0  1  0  0  0  0  0999 V2000
   37.8880   24.8580   33.8620 C   0  0  0  0  0  0  0  0  0  0  0  0
   37.9790   25.3320   35.1710 C   0  0  0  0  0  0  0  0  0  0  0  0
   37.5080   26.5950   35.5130 C   0  0  0  0  0  0  0  0  0  0  0  0
   36.9470   27.3450   34.4850 C   0  0  0  0  0  0  0  0  0  0  0  0
   36.4240   28.6030   34.5690 N   0  0  0  0  0  0  0  0  0  0  0  0
   36.0050   28.9250   33.3370 C   0  0  0  0  0  0  0  0  0  0  0  0
   36.2450   27.9330   32.5070 N   0  0  0  0  0  0  0  0  0  0  0  0
   36.8350   26.9180   33.1830 C   0  0  0  0  0  0  0  0  0  0  0  0
   37.3190   25.6430   32.8650 C   0  0  0  0  0  0  0  0  0  0  0  0
   38.2440   23.8860   33.5690 H   0  0  0  0  0  0  0  0  0  0  0  0
   37.5850   26.9490   36.5290 H   0  0  0  0  0  0  0  0  0  0  0  0
   36.3710   29.1870   35.4500 H   0  0  0  0  0  0  0  0  0  0  0  0
   37.2190   25.3290   31.8340 H   0  0  0  0  0  0  0  0  0  0  0  0
   38.7760   23.3680   38.2670 C   0  0  0  0  0  0  0  0  0  0  0  0
   38.1080   24.2310   37.4190 C   0  0  0  0  0  0  0  0  0  0  0  0
   38.5980   24.4450   36.1360 C   0  0  0  0  0  0  0  0  0  0  0  0
   39.7360   23.7820   35.7680 N   0  0  0  0  0  0  0  0  0  0  0  0
   40.3800   22.9380   36.6130 C   0  0  0  0  0  0  0  0  0  0  0  0
   39.9100   22.7410   37.8260 N   0  0  0  0  0  0  0  0  0  0  0  0
   38.4110   23.1970   39.2510 H   0  0  0  0  0  0  0  0  0  0  0  0
   37.2060   24.7550   37.7130 H   0  0  0  0  0  0  0  0  0  0  0  0
   41.2910   22.4420   36.2440 H   0  0  0  0  0  0  0  0  0  0  0  0
   35.4060   30.1650   33.0600 O   0  0  0  0  0  0  0  0  0  0  0  0
   33.5940   30.9950   34.1720 N   0  0  0  0  0  0  0  0  0  0  0  0
   33.9860   30.1680   33.0160 C   0  0  1  0  0  0  0  0  0  0  0  0
   33.4700   30.7830   31.8000 C   0  0  0  0  0  0  0  0  0  0  0  0
   32.0640   30.7520   31.8410 O   0  0  0  0  0  0  0  0  0  0  0  0
   31.5040   31.3270   32.9480 C   0  0  0  0  0  0  0  0  0  0  0  0
   32.1490   30.9100   34.2330 C   0  0  1  0  0  0  0  0  0  0  0  0
   33.9870   30.5000   35.0050 H   0  0  0  0  0  0  0  0  0  0  0  0
   33.5910   29.1500   33.1080 H   0  0  0  0  0  0  0  0  0  0  0  0
   33.6870   31.7620   31.4670 H   0  0  0  0  0  0  0  0  0  0  0  0
   33.7130   30.0880   30.9400 H   0  0  0  0  0  0  0  0  0  0  0  0
   31.6510   32.4320   32.8460 H   0  0  0  0  0  0  0  0  0  0  0  0
   30.4380   31.0520   32.9630 H   0  0  0  0  0  0  0  0  0  0  0  0
   31.8550   31.7020   34.9830 H   0  0  0  0  0  0  0  0  0  0  0  0
   31.6770   29.6430   34.7940 C   0  0  0  0  0  0  0  0  0  0  0  0
   30.9190   28.6420   34.2610 C   0  0  0  0  0  3  0  0  0  0  0  0
   30.5880   27.5160   34.9870 C   0  0  0  0  0  0  0  0  0  0  0  0
   29.9800   26.7920   34.4500 H   0  0  0  0  0  0  0  0  0  0  0  0
   31.0080   27.3540   36.2740 N   0  0  0  0  0  0  0  0  0  0  0  0
   31.7550   28.3570   36.7730 C   0  0  0  0  0  3  0  0  0  0  0  0
   32.1000   29.4850   36.0840 N   0  0  0  0  0  0  0  0  0  0  0  0
  1  2  1  0  0  0  0
  2  3  2  0  0  0  0
  2 16  1  0  0  0  0
  3 11  1  0  0  0  0
  4  5  1  0  0  0  0
  4  3  1  0  0  0  0
  5 12  1  0  0  0  0
  6  5  1  0  0  0  0
  7  8  1  0  0  0  0
  7  6  2  0  0  0  0
  8  4  2  0  0  0  0
  9  8  1  0  0  0  0
  9  1  2  0  0  0  0
 10  1  1  0  0  0  0
 13  9  1  0  0  0  0
 14 20  1  0  0  0  0
 15 21  1  0  0  0  0
 15 14  2  0  0  0  0
 16 15  1  0  0  0  0
 17 16  2  0  0  0  0
 17 18  1  0  0  0  0
 18 19  2  0  0  0  0
 19 14  1  0  0  0  0
 22 18  1  0  0  0  0
 23  6  1  0  0  0  0
 24 29  1  0  0  0  0
 24 30  1  0  0  0  0
 25 23  1  0  0  0  0
 25 31  1  1  0  0  0
 25 24  1  0  0  0  0
 26 27  1  0  0  0  0
 26 25  1  0  0  0  0
 27 28  1  0  0  0  0
 28 35  1  0  0  0  0
 28 29  1  0  0  0  0
 29 37  1  0  0  0  0
 29 36  1  1  0  0  0
 32 26  1  0  0  0  0
 33 26  1  0  0  0  0
 34 28  1  0  0  0  0
 37 43  1  0  0  0  0
 38 37  2  0  0  0  0
 38 39  1  0  0  0  0
 39 41  2  0  0  0  0
 40 39  1  0  0  0  0
 41 42  1  0  0  0  0
 43 42  2  0  0  0  0
M  END
>  <minimizedAffinity>
-6.22726917

$$$$

 OpenBabel03272510283D

 43 47  0  0  1  0  0  0  0  0999 V2000
   35.0660   29.0360   33.0280 C   0  0  0  0  0  0  0  0  0  0  0  0
   35.6920   29.2700   34.2520 C   0  0  0  0  0  0  0  0  0  0  0  0
   36.8330   28.5680   34.6230 C   0  0  0  0  0  0  0  0  0  0  0  0
   37.3070   27.6310   33.7110 C   0  0  0  0  0  0  0  0  0  0  0  0
   38.3970   26.8220   33.8470 N   0  0  0  0  0  0  0  0  0  0  0  0
   38.4670   26.0850   32.7290 C   0  0  0  0  0  0  0  0  0  0  0  0
   37.4790   26.4000   31.9200 N   0  0  0  0  0  0  0  0  0  0  0  0
   36.7240   27.3680   32.4950 C   0  0  0  0  0  0  0  0  0  0  0  0
   35.5750   28.0890   32.1450 C   0  0  0  0  0  0  0  0  0  0  0  0
   34.1830   29.5640   32.7140 H   0  0  0  0  0  0  0  0  0  0  0  0
   37.3070   28.7600   35.5730 H   0  0  0  0  0  0  0  0  0  0  0  0
   39.0440   26.8020   34.6840 H   0  0  0  0  0  0  0  0  0  0  0  0
   35.1340   27.8640   31.1830 H   0  0  0  0  0  0  0  0  0  0  0  0
   35.1190   32.1350   36.6080 C   0  0  0  0  0  0  0  0  0  0  0  0
   35.7960   31.2290   35.8130 C   0  0  0  0  0  0  0  0  0  0  0  0
   35.0800   30.2690   35.1070 C   0  0  0  0  0  0  0  0  0  0  0  0
   33.7190   30.2650   35.2340 N   0  0  0  0  0  0  0  0  0  0  0  0
   33.0690   31.1620   36.0180 C   0  0  0  0  0  0  0  0  0  0  0  0
   33.7530   32.0670   36.6840 N   0  0  0  0  0  0  0  0  0  0  0  0
   35.6550   32.8740   37.1520 H   0  0  0  0  0  0  0  0  0  0  0  0
   36.8750   31.2350   35.7140 H   0  0  0  0  0  0  0  0  0  0  0  0
   31.9710   31.0940   36.0700 H   0  0  0  0  0  0  0  0  0  0  0  0
   39.4820   25.1340   32.5320 O   0  0  0  0  0  0  0  0  0  0  0  0
   37.9320   23.9630   33.7320 N   0  0  0  0  0  0  0  0  0  0  0  0
   39.3130   23.9000   33.2170 C   0  0  1  0  0  0  0  0  0  0  0  0
   39.4330   22.7520   32.3280 C   0  0  0  0  0  0  0  0  0  0  0  0
   39.2460   21.5790   33.0810 O   0  0  0  0  0  0  0  0  0  0  0  0
   38.0750   21.5230   33.7860 C   0  0  0  0  0  0  0  0  0  0  0  0
   37.7730   22.7760   34.5470 C   0  0  1  0  0  0  0  0  0  0  0  0
   37.9160   24.7980   34.3610 H   0  0  0  0  0  0  0  0  0  0  0  0
   40.0350   23.8070   34.0360 H   0  0  0  0  0  0  0  0  0  0  0  0
   38.8560   22.5850   31.4600 H   0  0  0  0  0  0  0  0  0  0  0  0
   40.5180   22.6800   32.0130 H   0  0  0  0  0  0  0  0  0  0  0  0
   37.2550   21.3830   33.0380 H   0  0  0  0  0  0  0  0  0  0  0  0
   38.1470   20.6750   34.4830 H   0  0  0  0  0  0  0  0  0  0  0  0
   36.6640   22.7330   34.7610 H   0  0  0  0  0  0  0  0  0  0  0  0
   38.4210   22.8930   35.8540 C   0  0  0  0  0  0  0  0  0  0  0  0
   39.5990   22.3940   36.3300 C   0  0  0  0  0  3  0  0  0  0  0  0
   40.0190   22.6340   37.6220 C   0  0  0  0  0  0  0  0  0  0  0  0
   40.9740   22.1810   37.8800 H   0  0  0  0  0  0  0  0  0  0  0  0
   39.2740   23.3840   38.4830 N   0  0  0  0  0  0  0  0  0  0  0  0
   38.1180   23.8640   37.9860 C   0  0  0  0  0  3  0  0  0  0  0  0
   37.6710   23.6450   36.7130 N   0  0  0  0  0  0  0  0  0  0  0  0
  1  2  1  0  0  0  0
  2  3  2  0  0  0  0
  2 16  1  0  0  0  0
  3 11  1  0  0  0  0
  4  5  1  0  0  0  0
  4  3  1  0  0  0  0
  5 12  1  0  0  0  0
  6  5  1  0  0  0  0
  7  8  1  0  0  0  0
  7  6  2  0  0  0  0
  8  4  2  0  0  0  0
  9  8  1  0  0  0  0
  9  1  2  0  0  0  0
 10  1  1  0  0  0  0
 13  9  1  0  0  0  0
 14 19  1  0  0  0  0
 14 20  1  0  0  0  0
 15 14  2  0  0  0  0
 16 17  2  0  0  0  0
 16 15  1  0  0  0  0
 17 18  1  0  0  0  0
 18 22  1  0  0  0  0
 18 19  2  0  0  0  0
 21 15  1  0  0  0  0
 23  6  1  0  0  0  0
 23 25  1  0  0  0  0
 24 30  1  0  0  0  0
 24 29  1  0  0  0  0
 25 24  1  0  0  0  0
 25 31  1  1  0  0  0
 26 27  1  0  0  0  0
 26 25  1  0  0  0  0
 27 28  1  0  0  0  0
 28 35  1  0  0  0  0
 28 29  1  0  0  0  0
 29 36  1  1  0  0  0
 29 37  1  0  0  0  0
 32 26  1  0  0  0  0
 33 26  1  0  0  0  0
 34 28  1  0  0  0  0
 37 38  2  0  0  0  0
 37 43  1  0  0  0  0
 38 39  1  0  0  0  0
 39 40  1  0  0  0  0
 39 41  2  0  0  0  0
 42 41  1  0  0  0  0
 43 42  2  0  0  0  0
M  END
>  <minimizedAffinity>
-5.97921038

$$$$

 OpenBabel03272510283D

 43 47  0  0  1  0  0  0  0  0999 V2000
   35.6280   30.6150   32.9230 C   0  0  0  0  0  0  0  0  0  0  0  0
   35.7850   30.3730   34.2870 C   0  0  0  0  0  0  0  0  0  0  0  0
   36.1680   29.1210   34.7570 C   0  0  0  0  0  0  0  0  0  0  0  0
   36.3820   28.1390   33.7960 C   0  0  0  0  0  0  0  0  0  0  0  0
   36.7550   26.8440   34.0060 N   0  0  0  0  0  0  0  0  0  0  0  0
   36.8360   26.2690   32.7980 C   0  0  0  0  0  0  0  0  0  0  0  0
   36.5320   27.1430   31.8630 N   0  0  0  0  0  0  0  0  0  0  0  0
   36.2400   28.3330   32.4430 C   0  0  0  0  0  0  0  0  0  0  0  0
   35.8530   29.6020   31.9960 C   0  0  0  0  0  0  0  0  0  0  0  0
   35.3330   31.5720   32.5310 H   0  0  0  0  0  0  0  0  0  0  0  0
   36.2860   28.9490   35.8150 H   0  0  0  0  0  0  0  0  0  0  0  0
   36.9400   26.4050   34.9510 H   0  0  0  0  0  0  0  0  0  0  0  0
   35.7480   29.7300   30.9260 H   0  0  0  0  0  0  0  0  0  0  0  0
   34.4100   32.5680   37.0020 C   0  0  0  0  0  0  0  0  0  0  0  0
   34.5970   31.4470   36.2160 C   0  0  0  0  0  0  0  0  0  0  0  0
   35.5170   31.4880   35.1740 C   0  0  0  0  0  0  0  0  0  0  0  0
   36.2040   32.6530   34.9740 N   0  0  0  0  0  0  0  0  0  0  0  0
   36.0090   33.7450   35.7550 C   0  0  0  0  0  0  0  0  0  0  0  0
   35.1360   33.6990   36.7390 N   0  0  0  0  0  0  0  0  0  0  0  0
   33.7100   32.5490   37.8020 H   0  0  0  0  0  0  0  0  0  0  0  0
   34.0520   30.5250   36.3780 H   0  0  0  0  0  0  0  0  0  0  0  0
   36.5990   34.6470   35.5300 H   0  0  0  0  0  0  0  0  0  0  0  0
   37.2010   24.9210   32.6420 O   0  0  0  0  0  0  0  0  0  0  0  0
   38.1640   23.0340   33.4940 N   0  0  0  0  0  0  0  0  0  0  0  0
   38.3280   24.4970   33.3970 C   0  0  1  0  0  0  0  0  0  0  0  0
   39.5870   24.7860   32.7230 C   0  0  0  0  0  0  0  0  0  0  0  0
   40.6450   24.3290   33.5300 O   0  0  0  0  0  0  0  0  0  0  0  0
   40.5780   23.0100   33.8810 C   0  0  0  0  0  0  0  0  0  0  0  0
   39.2280   22.5870   34.3700 C   0  0  1  0  0  0  0  0  0  0  0  0
   37.2530   22.8970   33.9880 H   0  0  0  0  0  0  0  0  0  0  0  0
   38.3290   24.9600   34.3900 H   0  0  0  0  0  0  0  0  0  0  0  0
   39.8540   24.4600   31.7550 H   0  0  0  0  0  0  0  0  0  0  0  0
   39.7270   25.9100   32.7350 H   0  0  0  0  0  0  0  0  0  0  0  0
   40.7960   22.4180   32.9560 H   0  0  0  0  0  0  0  0  0  0  0  0
   41.3270   22.8360   34.6680 H   0  0  0  0  0  0  0  0  0  0  0  0
   39.2150   21.4610   34.2690 H   0  0  0  0  0  0  0  0  0  0  0  0
   38.9540   22.8580   35.7820 C   0  0  0  0  0  0  0  0  0  0  0  0
   37.8300   23.2990   36.4190 C   0  0  0  0  0  3  0  0  0  0  0  0
   37.7980   23.4880   37.7850 C   0  0  0  0  0  0  0  0  0  0  0  0
   36.8450   23.8420   38.1720 H   0  0  0  0  0  0  0  0  0  0  0  0
   38.8920   23.2410   38.5620 N   0  0  0  0  0  0  0  0  0  0  0  0
   39.9840   22.8070   37.9060 C   0  0  0  0  0  3  0  0  0  0  0  0
   40.0520   22.6090   36.5560 N   0  0  0  0  0  0  0  0  0  0  0  0
  1  2  1  0  0  0  0
  2  3  2  0  0  0  0
  2 16  1  0  0  0  0
  3 11  1  0  0  0  0
  4  5  1  0  0  0  0
  4  3  1  0  0  0  0
  5 12  1  0  0  0  0
  6  5  1  0  0  0  0
  7  8  1  0  0  0  0
  7  6  2  0  0  0  0
  8  4  2  0  0  0  0
  9  8  1  0  0  0  0
  9  1  2  0  0  0  0
 10  1  1  0  0  0  0
 13  9  1  0  0  0  0
 14 20  1  0  0  0  0
 15 21  1  0  0  0  0
 15 14  2  0  0  0  0
 16 15  1  0  0  0  0
 17 16  2  0  0  0  0
 17 18  1  0  0  0  0
 18 19  2  0  0  0  0
 19 14  1  0  0  0  0
 22 18  1  0  0  0  0
 23  6  1  0  0  0  0
 23 25  1  0  0  0  0
 24 30  1  0  0  0  0
 24 29  1  0  0  0  0
 25 24  1  0  0  0  0
 25 31  1  1  0  0  0
 26 33  1  0  0  0  0
 26 25  1  0  0  0  0
 26 27  1  0  0  0  0
 27 28  1  0  0  0  0
 28 29  1  0  0  0  0
 28 35  1  0  0  0  0
 29 36  1  6  0  0  0
 29 37  1  0  0  0  0
 32 26  1  0  0  0  0
 34 28  1  0  0  0  0
 37 38  2  0  0  0  0
 37 43  1  0  0  0  0
 38 39  1  0  0  0  0
 39 40  1  0  0  0  0
 39 41  2  0  0  0  0
 42 41  1  0  0  0  0
 43 42  2  0  0  0  0
M  END
>  <minimizedAffinity>
-5.96380854

$$$$

 OpenBabel03272510283D

 43 47  0  0  1  0  0  0  0  0999 V2000
   37.9890   24.4970   33.8410 C   0  0  0  0  0  0  0  0  0  0  0  0
   38.0130   25.0980   35.0990 C   0  0  0  0  0  0  0  0  0  0  0  0
   37.5190   26.3830   35.2920 C   0  0  0  0  0  0  0  0  0  0  0  0
   37.0070   27.0240   34.1700 C   0  0  0  0  0  0  0  0  0  0  0  0
   36.4740   28.2790   34.1050 N   0  0  0  0  0  0  0  0  0  0  0  0
   36.1150   28.4750   32.8280 C   0  0  0  0  0  0  0  0  0  0  0  0
   36.4010   27.4100   32.1110 N   0  0  0  0  0  0  0  0  0  0  0  0
   36.9620   26.4710   32.9120 C   0  0  0  0  0  0  0  0  0  0  0  0
   37.4670   25.1760   32.7450 C   0  0  0  0  0  0  0  0  0  0  0  0
   38.3640   23.5050   33.6610 H   0  0  0  0  0  0  0  0  0  0  0  0
   37.5430   26.8350   36.2720 H   0  0  0  0  0  0  0  0  0  0  0  0
   36.3750   28.9460   34.9200 H   0  0  0  0  0  0  0  0  0  0  0  0
   37.4210   24.7620   31.7450 H   0  0  0  0  0  0  0  0  0  0  0  0
   38.6770   23.4730   38.4160 C   0  0  0  0  0  0  0  0  0  0  0  0
   38.0500   24.2450   37.4560 C   0  0  0  0  0  0  0  0  0  0  0  0
   38.5870   24.3150   36.1760 C   0  0  0  0  0  0  0  0  0  0  0  0
   39.7290   23.6070   35.9230 N   0  0  0  0  0  0  0  0  0  0  0  0
   40.3330   22.8540   36.8760 C   0  0  0  0  0  0  0  0  0  0  0  0
   39.8190   22.7930   38.0860 N   0  0  0  0  0  0  0  0  0  0  0  0
   38.2760   23.4110   39.3980 H   0  0  0  0  0  0  0  0  0  0  0  0
   37.1450   24.8040   37.6590 H   0  0  0  0  0  0  0  0  0  0  0  0
   41.2510   22.3140   36.5950 H   0  0  0  0  0  0  0  0  0  0  0  0
   35.5260   29.6770   32.4020 O   0  0  0  0  0  0  0  0  0  0  0  0
   34.1490   31.4800   32.6590 N   0  0  0  0  0  0  0  0  0  0  0  0
   34.4060   30.1160   33.1580 C   0  0  1  0  0  0  0  0  0  0  0  0
   33.2230   29.2980   32.9250 C   0  0  0  0  0  0  0  0  0  0  0  0
   32.1650   29.8040   33.7020 O   0  0  0  0  0  0  0  0  0  0  0  0
   31.8830   31.1280   33.5060 C   0  0  0  0  0  0  0  0  0  0  0  0
   33.0950   32.0060   33.5030 C   0  0  1  0  0  0  0  0  0  0  0  0
   35.0270   32.0120   32.8610 H   0  0  0  0  0  0  0  0  0  0  0  0
   34.6390   30.1260   34.2290 H   0  0  0  0  0  0  0  0  0  0  0  0
   32.7770   29.1190   31.9840 H   0  0  0  0  0  0  0  0  0  0  0  0
   33.4160   28.2840   33.3890 H   0  0  0  0  0  0  0  0  0  0  0  0
   31.4110   31.2100   32.4940 H   0  0  0  0  0  0  0  0  0  0  0  0
   31.1990   31.4440   34.3070 H   0  0  0  0  0  0  0  0  0  0  0  0
   32.7720   32.9560   32.9840 H   0  0  0  0  0  0  0  0  0  0  0  0
   33.5770   32.4220   34.8210 C   0  0  0  0  0  0  0  0  0  0  0  0
   34.7620   32.9660   35.2230 C   0  0  0  0  0  3  0  0  0  0  0  0
   35.0030   33.2840   36.5440 C   0  0  0  0  0  0  0  0  0  0  0  0
   35.9850   33.7110   36.7360 H   0  0  0  0  0  0  0  0  0  0  0  0
   34.0640   33.0690   37.5090 N   0  0  0  0  0  0  0  0  0  0  0  0
   32.9050   32.5330   37.0820 C   0  0  0  0  0  3  0  0  0  0  0  0
   32.6320   32.2040   35.7840 N   0  0  0  0  0  0  0  0  0  0  0  0
  1  2  1  0  0  0  0
  2  3  2  0  0  0  0
  2 16  1  0  0  0  0
  3 11  1  0  0  0  0
  4  3  1  0  0  0  0
  5  4  1  0  0  0  0
  5 12  1  0  0  0  0
  6  5  1  0  0  0  0
  7  6  2  0  0  0  0
  7  8  1  0  0  0  0
  8  4  2  0  0  0  0
  9  8  1  0  0  0  0
  9  1  2  0  0  0  0
 10  1  1  0  0  0  0
 13  9  1  0  0  0  0
 14 20  1  0  0  0  0
 15 21  1  0  0  0  0
 15 14  2  0  0  0  0
 16 15  1  0  0  0  0
 17 16  2  0  0  0  0
 17 18  1  0  0  0  0
 18 19  2  0  0  0  0
 19 14  1  0  0  0  0
 22 18  1  0  0  0  0
 23  6  1  0  0  0  0
 23 25  1  0  0  0  0
 24 30  1  0  0  0  0
 24 25  1  0  0  0  0
 24 29  1  0  0  0  0
 25 31  1  1  0  0  0
 26 25  1  0  0  0  0
 26 33  1  0  0  0  0
 26 27  1  0  0  0  0
 28 27  1  0  0  0  0
 28 35  1  0  0  0  0
 29 36  1  6  0  0  0
 29 28  1  0  0  0  0
 29 37  1  0  0  0  0
 32 26  1  0  0  0  0
 34 28  1  0  0  0  0
 37 38  2  0  0  0  0
 37 43  1  0  0  0  0
 38 39  1  0  0  0  0
 39 40  1  0  0  0  0
 39 41  2  0  0  0  0
 42 41  1  0  0  0  0
 43 42  2  0  0  0  0
M  END
>  <minimizedAffinity>
-5.91507244

$$$$

 OpenBabel03272510283D

 43 47  0  0  1  0  0  0  0  0999 V2000
   37.5300   22.8190   32.9440 C   0  0  0  0  0  0  0  0  0  0  0  0
   36.4850   22.4620   32.0910 C   0  0  0  0  0  0  0  0  0  0  0  0
   35.7100   23.4290   31.4600 C   0  0  0  0  0  0  0  0  0  0  0  0
   36.0350   24.7540   31.7270 C   0  0  0  0  0  0  0  0  0  0  0  0
   35.4240   25.8710   31.2350 N   0  0  0  0  0  0  0  0  0  0  0  0
   36.0670   26.9220   31.7650 C   0  0  0  0  0  0  0  0  0  0  0  0
   37.0350   26.5070   32.5520 N   0  0  0  0  0  0  0  0  0  0  0  0
   37.0540   25.1510   32.5590 C   0  0  0  0  0  0  0  0  0  0  0  0
   37.8200   24.1580   33.1830 C   0  0  0  0  0  0  0  0  0  0  0  0
   38.1460   22.0940   33.4460 H   0  0  0  0  0  0  0  0  0  0  0  0
   34.9060   23.1380   30.8020 H   0  0  0  0  0  0  0  0  0  0  0  0
   34.6040   25.8770   30.5670 H   0  0  0  0  0  0  0  0  0  0  0  0
   38.6170   24.4960   33.8330 H   0  0  0  0  0  0  0  0  0  0  0  0
   36.2940   18.9900   30.6810 C   0  0  0  0  0  0  0  0  0  0  0  0
   36.5590   20.3450   30.7510 C   0  0  0  0  0  0  0  0  0  0  0  0
   36.2540   21.0420   31.9150 C   0  0  0  0  0  0  0  0  0  0  0  0
   35.6980   20.3440   32.9500 N   0  0  0  0  0  0  0  0  0  0  0  0
   35.4440   19.0140   32.8650 C   0  0  0  0  0  0  0  0  0  0  0  0
   35.7350   18.3610   31.7600 N   0  0  0  0  0  0  0  0  0  0  0  0
   36.5230   18.4460   29.7960 H   0  0  0  0  0  0  0  0  0  0  0  0
   37.0010   20.8950   29.9290 H   0  0  0  0  0  0  0  0  0  0  0  0
   34.9930   18.5230   33.7410 H   0  0  0  0  0  0  0  0  0  0  0  0
   35.6930   28.2430   31.4680 O   0  0  0  0  0  0  0  0  0  0  0  0
   36.8290   28.2060   29.4880 N   0  0  0  0  0  0  0  0  0  0  0  0
   36.6370   28.9960   30.7180 C   0  0  1  0  0  0  0  0  0  0  0  0
   36.1330   30.3150   30.3570 C   0  0  0  0  0  0  0  0  0  0  0  0
   37.1200   30.9870   29.6140 O   0  0  0  0  0  0  0  0  0  0  0  0
   37.5660   30.3200   28.5060 C   0  0  0  0  0  0  0  0  0  0  0  0
   37.8850   28.8800   28.7600 C   0  0  1  0  0  0  0  0  0  0  0  0
   37.1940   27.2820   29.8140 H   0  0  0  0  0  0  0  0  0  0  0  0
   37.5780   29.1020   31.2690 H   0  0  0  0  0  0  0  0  0  0  0  0
   35.2440   30.5060   29.8190 H   0  0  0  0  0  0  0  0  0  0  0  0
   36.0720   30.9260   31.3080 H   0  0  0  0  0  0  0  0  0  0  0  0
   36.7350   30.3490   27.7570 H   0  0  0  0  0  0  0  0  0  0  0  0
   38.4650   30.8400   28.1440 H   0  0  0  0  0  0  0  0  0  0  0  0
   37.8770   28.3900   27.7410 H   0  0  0  0  0  0  0  0  0  0  0  0
   39.2150   28.6160   29.3120 C   0  0  0  0  0  0  0  0  0  0  0  0
   39.6880   27.5990   30.0900 C   0  0  0  0  0  3  0  0  0  0  0  0
   41.0030   27.5530   30.5020 C   0  0  0  0  0  0  0  0  0  0  0  0
   41.2560   26.6930   31.1180 H   0  0  0  0  0  0  0  0  0  0  0  0
   41.8920   28.5250   30.1480 N   0  0  0  0  0  0  0  0  0  0  0  0
   41.3980   29.5140   29.3800 C   0  0  0  0  0  3  0  0  0  0  0  0
   40.1020   29.5920   28.9550 N   0  0  0  0  0  0  0  0  0  0  0  0
  1  9  1  0  0  0  0
  1 10  1  0  0  0  0
  2  1  2  0  0  0  0
  3  4  2  0  0  0  0
  3  2  1  0  0  0  0
  4  8  1  0  0  0  0
  5  4  1  0  0  0  0
  5  6  1  0  0  0  0
  6  7  2  0  0  0  0
  7  8  1  0  0  0  0
  8  9  2  0  0  0  0
  9 13  1  0  0  0  0
 11  3  1  0  0  0  0
 12  5  1  0  0  0  0
 14 15  2  0  0  0  0
 14 19  1  0  0  0  0
 15 16  1  0  0  0  0
 16  2  1  0  0  0  0
 16 17  2  0  0  0  0
 18 17  1  0  0  0  0
 18 22  1  0  0  0  0
 19 18  2  0  0  0  0
 20 14  1  0  0  0  0
 21 15  1  0  0  0  0
 23  6  1  0  0  0  0
 24 30  1  0  0  0  0
 24 25  1  0  0  0  0
 25 31  1  1  0  0  0
 25 23  1  0  0  0  0
 26 25  1  0  0  0  0
 26 33  1  0  0  0  0
 27 26  1  0  0  0  0
 28 29  1  0  0  0  0
 28 27  1  0  0  0  0
 29 36  1  6  0  0  0
 29 37  1  0  0  0  0
 29 24  1  0  0  0  0
 32 26  1  0  0  0  0
 34 28  1  0  0  0  0
 35 28  1  0  0  0  0
 37 38  1  0  0  0  0
 38 39  2  0  0  0  0
 39 40  1  0  0  0  0
 41 39  1  0  0  0  0
 42 41  2  0  0  0  0
 43 37  2  0  0  0  0
 43 42  1  0  0  0  0
M  END
>  <minimizedAffinity>
-5.89594889

$$$$

 OpenBabel03272510283D

 43 47  0  0  1  0  0  0  0  0999 V2000
   38.0220   23.8120   33.8410 C   0  0  0  0  0  0  0  0  0  0  0  0
   38.0650   24.6530   34.9520 C   0  0  0  0  0  0  0  0  0  0  0  0
   37.6640   25.9820   34.8650 C   0  0  0  0  0  0  0  0  0  0  0  0
   37.2230   26.4150   33.6200 C   0  0  0  0  0  0  0  0  0  0  0  0
   36.7870   27.6640   33.2850 N   0  0  0  0  0  0  0  0  0  0  0  0
   36.4700   27.6200   31.9830 C   0  0  0  0  0  0  0  0  0  0  0  0
   36.6900   26.4150   31.5060 N   0  0  0  0  0  0  0  0  0  0  0  0
   37.1630   25.6220   32.4990 C   0  0  0  0  0  0  0  0  0  0  0  0
   37.5730   24.2880   32.6130 C   0  0  0  0  0  0  0  0  0  0  0  0
   38.3250   22.7810   33.8780 H   0  0  0  0  0  0  0  0  0  0  0  0
   37.7020   26.6210   35.7340 H   0  0  0  0  0  0  0  0  0  0  0  0
   36.7210   28.4880   33.9450 H   0  0  0  0  0  0  0  0  0  0  0  0
   37.5170   23.6840   31.7170 H   0  0  0  0  0  0  0  0  0  0  0  0
   38.4970   23.6370   38.5390 C   0  0  0  0  0  0  0  0  0  0  0  0
   37.9440   24.2330   37.4210 C   0  0  0  0  0  0  0  0  0  0  0  0
   38.5570   24.0680   36.1840 C   0  0  0  0  0  0  0  0  0  0  0  0
   39.6960   23.3130   36.1310 N   0  0  0  0  0  0  0  0  0  0  0  0
   40.2260   22.7350   37.2380 C   0  0  0  0  0  0  0  0  0  0  0  0
   39.6400   22.8960   38.4060 N   0  0  0  0  0  0  0  0  0  0  0  0
   38.0370   23.7560   39.4900 H   0  0  0  0  0  0  0  0  0  0  0  0
   37.0410   24.8300   37.4660 H   0  0  0  0  0  0  0  0  0  0  0  0
   41.1460   22.1430   37.1150 H   0  0  0  0  0  0  0  0  0  0  0  0
   35.9810   28.7480   31.3030 O   0  0  0  0  0  0  0  0  0  0  0  0
   36.9510   28.4930   29.2520 N   0  0  0  0  0  0  0  0  0  0  0  0
   36.8990   29.3850   30.4250 C   0  0  1  0  0  0  0  0  0  0  0  0
   36.4360   30.6990   29.9970 C   0  0  0  0  0  0  0  0  0  0  0  0
   37.3940   31.2540   29.1290 O   0  0  0  0  0  0  0  0  0  0  0  0
   37.7140   30.4790   28.0490 C   0  0  0  0  0  0  0  0  0  0  0  0
   37.9780   29.0470   28.3940 C   0  0  1  0  0  0  0  0  0  0  0  0
   37.2920   27.5770   29.6230 H   0  0  0  0  0  0  0  0  0  0  0  0
   37.8850   29.4780   30.8930 H   0  0  0  0  0  0  0  0  0  0  0  0
   35.5180   30.8990   29.5150 H   0  0  0  0  0  0  0  0  0  0  0  0
   36.4840   31.3840   30.8970 H   0  0  0  0  0  0  0  0  0  0  0  0
   36.8280   30.4980   27.3650 H   0  0  0  0  0  0  0  0  0  0  0  0
   38.6080   30.9170   27.5780 H   0  0  0  0  0  0  0  0  0  0  0  0
   37.8620   28.4810   27.4220 H   0  0  0  0  0  0  0  0  0  0  0  0
   39.3320   28.7490   28.8630 C   0  0  0  0  0  0  0  0  0  0  0  0
   40.4010   29.5570   29.1180 C   0  0  0  0  0  3  0  0  0  0  0  0
   41.6050   29.0500   29.5610 C   0  0  0  0  0  0  0  0  0  0  0  0
   42.3790   29.7960   29.7270 H   0  0  0  0  0  0  0  0  0  0  0  0
   41.7800   27.7130   29.7640 N   0  0  0  0  0  0  0  0  0  0  0  0
   40.7080   26.9400   29.5050 C   0  0  0  0  0  3  0  0  0  0  0  0
   39.5020   27.4080   29.0650 N   0  0  0  0  0  0  0  0  0  0  0  0
  1 10  1  0  0  0  0
  1  2  1  0  0  0  0
  2 16  1  0  0  0  0
  3  2  2  0  0  0  0
  3 11  1  0  0  0  0
  4  3  1  0  0  0  0
  5  4  1  0  0  0  0
  5 12  1  0  0  0  0
  6  5  1  0  0  0  0
  7  6  2  0  0  0  0
  7  8  1  0  0  0  0
  8  9  1  0  0  0  0
  8  4  2  0  0  0  0
  9  1  2  0  0  0  0
 13  9  1  0  0  0  0
 14 20  1  0  0  0  0
 15 21  1  0  0  0  0
 15 14  2  0  0  0  0
 16 15  1  0  0  0  0
 17 16  2  0  0  0  0
 17 18  1  0  0  0  0
 18 19  2  0  0  0  0
 19 14  1  0  0  0  0
 22 18  1  0  0  0  0
 23  6  1  0  0  0  0
 24 30  1  0  0  0  0
 24 25  1  0  0  0  0
 25 31  1  1  0  0  0
 25 23  1  0  0  0  0
 26 25  1  0  0  0  0
 26 33  1  0  0  0  0
 27 26  1  0  0  0  0
 28 29  1  0  0  0  0
 28 27  1  0  0  0  0
 29 36  1  6  0  0  0
 29 37  1  0  0  0  0
 29 24  1  0  0  0  0
 32 26  1  0  0  0  0
 34 28  1  0  0  0  0
 35 28  1  0  0  0  0
 37 43  2  0  0  0  0
 37 38  1  0  0  0  0
 38 39  2  0  0  0  0
 39 40  1  0  0  0  0
 39 41  1  0  0  0  0
 42 41  2  0  0  0  0
 43 42  1  0  0  0  0
M  END
>  <minimizedAffinity>
-5.83097696

$$$$

 OpenBabel03272510283D

 43 47  0  0  1  0  0  0  0  0999 V2000
   36.0000   31.8770   32.5840 C   0  0  0  0  0  0  0  0  0  0  0  0
   35.4560   31.2200   33.6870 C   0  0  0  0  0  0  0  0  0  0  0  0
   35.3030   29.8380   33.6970 C   0  0  0  0  0  0  0  0  0  0  0  0
   35.7200   29.1600   32.5570 C   0  0  0  0  0  0  0  0  0  0  0  0
   35.6690   27.8160   32.3280 N   0  0  0  0  0  0  0  0  0  0  0  0
   36.1720   27.6190   31.1010 C   0  0  0  0  0  0  0  0  0  0  0  0
   36.5260   28.7690   30.5690 N   0  0  0  0  0  0  0  0  0  0  0  0
   36.2610   29.7660   31.4480 C   0  0  0  0  0  0  0  0  0  0  0  0
   36.4040   31.1590   31.4630 C   0  0  0  0  0  0  0  0  0  0  0  0
   36.1300   32.9440   32.5470 H   0  0  0  0  0  0  0  0  0  0  0  0
   34.8810   29.3420   34.5580 H   0  0  0  0  0  0  0  0  0  0  0  0
   35.3000   27.0930   33.0060 H   0  0  0  0  0  0  0  0  0  0  0  0
   36.8330   31.6130   30.5790 H   0  0  0  0  0  0  0  0  0  0  0  0
   34.8110   32.5730   37.1270 C   0  0  0  0  0  0  0  0  0  0  0  0
   35.2350   31.7080   36.1350 C   0  0  0  0  0  0  0  0  0  0  0  0
   35.0540   32.0550   34.8010 C   0  0  0  0  0  0  0  0  0  0  0  0
   34.4580   33.2540   34.5280 N   0  0  0  0  0  0  0  0  0  0  0  0
   34.0470   34.0930   35.5130 C   0  0  0  0  0  0  0  0  0  0  0  0
   34.2200   33.7570   36.7740 N   0  0  0  0  0  0  0  0  0  0  0  0
   34.9430   32.3190   38.1500 H   0  0  0  0  0  0  0  0  0  0  0  0
   35.7080   30.7590   36.3550 H   0  0  0  0  0  0  0  0  0  0  0  0
   33.5740   35.0410   35.2130 H   0  0  0  0  0  0  0  0  0  0  0  0
   36.2710   26.3350   30.5390 O   0  0  0  0  0  0  0  0  0  0  0  0
   37.3730   24.3480   30.3130 N   0  0  0  0  0  0  0  0  0  0  0  0
   37.0120   25.3870   31.2960 C   0  0  1  0  0  0  0  0  0  0  0  0
   38.2330   25.9540   31.8520 C   0  0  0  0  0  0  0  0  0  0  0  0
   38.9060   24.9520   32.5750 O   0  0  0  0  0  0  0  0  0  0  0  0
   39.1810   23.8130   31.8690 C   0  0  0  0  0  0  0  0  0  0  0  0
   38.0160   23.3010   31.0800 C   0  0  1  0  0  0  0  0  0  0  0  0
   36.4600   23.9810   29.9590 H   0  0  0  0  0  0  0  0  0  0  0  0
   36.4000   24.9690   32.1040 H   0  0  0  0  0  0  0  0  0  0  0  0
   39.0020   26.4190   31.2970 H   0  0  0  0  0  0  0  0  0  0  0  0
   37.9290   26.6860   32.6600 H   0  0  0  0  0  0  0  0  0  0  0  0
   39.9880   24.0730   31.1390 H   0  0  0  0  0  0  0  0  0  0  0  0
   39.5060   23.0460   32.5880 H   0  0  0  0  0  0  0  0  0  0  0  0
   38.4650   22.6190   30.2980 H   0  0  0  0  0  0  0  0  0  0  0  0
   37.0650   22.4730   31.8230 C   0  0  0  0  0  0  0  0  0  0  0  0
   35.8220   22.0110   31.5010 C   0  0  0  0  0  3  0  0  0  0  0  0
   35.0900   21.2320   32.3730 C   0  0  0  0  0  0  0  0  0  0  0  0
   34.1140   20.9270   32.0000 H   0  0  0  0  0  0  0  0  0  0  0  0
   35.5780   20.8890   33.6000 N   0  0  0  0  0  0  0  0  0  0  0  0
   36.8060   21.3590   33.8890 C   0  0  0  0  0  3  0  0  0  0  0  0
   37.5580   22.1320   33.0500 N   0  0  0  0  0  0  0  0  0  0  0  0
  1  2  1  0  0  0  0
  2  3  2  0  0  0  0
  2 16  1  0  0  0  0
  3 11  1  0  0  0  0
  4  3  1  0  0  0  0
  5  4  1  0  0  0  0
  5 12  1  0  0  0  0
  6  5  1  0  0  0  0
  7  6  2  0  0  0  0
  7  8  1  0  0  0  0
  8  9  1  0  0  0  0
  8  4  2  0  0  0  0
  9  1  2  0  0  0  0
 10  1  1  0  0  0  0
 13  9  1  0  0  0  0
 14 20  1  0  0  0  0
 15 21  1  0  0  0  0
 15 14  2  0  0  0  0
 16 15  1  0  0  0  0
 17 16  2  0  0  0  0
 17 18  1  0  0  0  0
 18 19  2  0  0  0  0
 19 14  1  0  0  0  0
 22 18  1  0  0  0  0
 23  6  1  0  0  0  0
 23 25  1  0  0  0  0
 24 29  1  0  0  0  0
 24 25  1  0  0  0  0
 25 26  1  0  0  0  0
 25 31  1  1  0  0  0
 26 27  1  0  0  0  0
 26 33  1  0  0  0  0
 28 27  1  0  0  0  0
 28 35  1  0  0  0  0
 29 36  1  6  0  0  0
 29 37  1  0  0  0  0
 29 28  1  0  0  0  0
 30 24  1  0  0  0  0
 32 26  1  0  0  0  0
 34 28  1  0  0  0  0
 37 43  1  0  0  0  0
 38 37  2  0  0  0  0
 38 39  1  0  0  0  0
 39 41  2  0  0  0  0
 40 39  1  0  0  0  0
 41 42  1  0  0  0  0
 43 42  2  0  0  0  0
M  END
>  <minimizedAffinity>
-5.77036095

$$$$

 OpenBabel03272510283D

 43 47  0  0  1  0  0  0  0  0999 V2000
   40.1840   25.9190   34.5650 C   0  0  0  0  0  0  0  0  0  0  0  0
   38.9650   25.3350   34.9110 C   0  0  0  0  0  0  0  0  0  0  0  0
   37.8300   25.5250   34.1310 C   0  0  0  0  0  0  0  0  0  0  0  0
   37.9810   26.3220   33.0020 C   0  0  0  0  0  0  0  0  0  0  0  0
   37.0210   26.6570   32.0910 N   0  0  0  0  0  0  0  0  0  0  0  0
   37.6160   27.4410   31.1810 C   0  0  0  0  0  0  0  0  0  0  0  0
   38.8850   27.6020   31.4870 N   0  0  0  0  0  0  0  0  0  0  0  0
   39.1600   26.9170   32.6230 C   0  0  0  0  0  0  0  0  0  0  0  0
   40.2890   26.7100   33.4260 C   0  0  0  0  0  0  0  0  0  0  0  0
   41.0780   25.7900   35.1490 H   0  0  0  0  0  0  0  0  0  0  0  0
   36.8940   25.0660   34.4100 H   0  0  0  0  0  0  0  0  0  0  0  0
   36.0110   26.3440   32.1220 H   0  0  0  0  0  0  0  0  0  0  0  0
   41.2070   27.1890   33.1070 H   0  0  0  0  0  0  0  0  0  0  0  0
   39.7480   22.7970   37.5620 C   0  0  0  0  0  0  0  0  0  0  0  0
   39.8460   23.5020   36.3770 C   0  0  0  0  0  0  0  0  0  0  0  0
   38.9540   24.5380   36.1210 C   0  0  0  0  0  0  0  0  0  0  0  0
   38.0060   24.8130   37.0680 N   0  0  0  0  0  0  0  0  0  0  0  0
   37.9230   24.1110   38.2260 C   0  0  0  0  0  0  0  0  0  0  0  0
   38.7710   23.1320   38.4610 N   0  0  0  0  0  0  0  0  0  0  0  0
   40.4240   22.0030   37.7690 H   0  0  0  0  0  0  0  0  0  0  0  0
   40.5980   23.2820   35.6290 H   0  0  0  0  0  0  0  0  0  0  0  0
   37.1320   24.3920   38.9380 H   0  0  0  0  0  0  0  0  0  0  0  0
   36.9110   27.9710   30.0870 O   0  0  0  0  0  0  0  0  0  0  0  0
   36.6300   29.5820   31.6800 N   0  0  0  0  0  0  0  0  0  0  0  0
   36.4410   29.3030   30.2440 C   0  0  1  0  0  0  0  0  0  0  0  0
   37.2200   30.2610   29.4710 C   0  0  0  0  0  0  0  0  0  0  0  0
   36.6960   31.5480   29.6890 O   0  0  0  0  0  0  0  0  0  0  0  0
   36.6240   31.9300   31.0000 C   0  0  0  0  0  0  0  0  0  0  0  0
   36.0380   30.8860   31.8980 C   0  0  1  0  0  0  0  0  0  0  0  0
   36.0450   28.8700   32.1740 H   0  0  0  0  0  0  0  0  0  0  0  0
   35.3840   29.3790   29.9640 H   0  0  0  0  0  0  0  0  0  0  0  0
   38.2650   30.4020   29.5430 H   0  0  0  0  0  0  0  0  0  0  0  0
   36.9940   30.0770   28.3770 H   0  0  0  0  0  0  0  0  0  0  0  0
   37.6750   32.1100   31.3410 H   0  0  0  0  0  0  0  0  0  0  0  0
   36.0130   32.8440   31.0470 H   0  0  0  0  0  0  0  0  0  0  0  0
   36.3700   31.1710   32.9400 H   0  0  0  0  0  0  0  0  0  0  0  0
   34.5760   30.8450   31.9490 C   0  0  0  0  0  0  0  0  0  0  0  0
   33.6250   31.5320   31.2520 C   0  0  0  0  0  3  0  0  0  0  0  0
   32.2770   31.3290   31.4700 C   0  0  0  0  0  0  0  0  0  0  0  0
   31.6210   31.9370   30.8510 H   0  0  0  0  0  0  0  0  0  0  0  0
   31.8360   30.4300   32.3950 N   0  0  0  0  0  0  0  0  0  0  0  0
   32.7960   29.7680   33.0670 C   0  0  0  0  0  3  0  0  0  0  0  0
   34.1380   29.9440   32.8780 N   0  0  0  0  0  0  0  0  0  0  0  0
  1  2  1  0  0  0  0
  1 10  1  0  0  0  0
  2 16  1  0  0  0  0
  3 11  1  0  0  0  0
  3  2  2  0  0  0  0
  4  3  1  0  0  0  0
  5 12  1  0  0  0  0
  5  4  1  0  0  0  0
  6  7  2  0  0  0  0
  6  5  1  0  0  0  0
  7  8  1  0  0  0  0
  8  4  2  0  0  0  0
  8  9  1  0  0  0  0
  9  1  2  0  0  0  0
 13  9  1  0  0  0  0
 14 20  1  0  0  0  0
 14 19  1  0  0  0  0
 15 14  2  0  0  0  0
 16 15  1  0  0  0  0
 16 17  2  0  0  0  0
 17 18  1  0  0  0  0
 18 19  2  0  0  0  0
 18 22  1  0  0  0  0
 21 15  1  0  0  0  0
 23 25  1  0  0  0  0
 23  6  1  0  0  0  0
 24 29  1  0  0  0  0
 24 30  1  0  0  0  0
 25 31  1  6  0  0  0
 25 24  1  0  0  0  0
 26 32  1  0  0  0  0
 26 27  1  0  0  0  0
 26 25  1  0  0  0  0
 27 28  1  0  0  0  0
 28 35  1  0  0  0  0
 28 34  1  0  0  0  0
 28 29  1  0  0  0  0
 29 37  1  0  0  0  0
 29 36  1  1  0  0  0
 33 26  1  0  0  0  0
 37 43  1  0  0  0  0
 38 39  1  0  0  0  0
 38 37  2  0  0  0  0
 39 41  2  0  0  0  0
 40 39  1  0  0  0  0
 41 42  1  0  0  0  0
 43 42  2  0  0  0  0
M  END
>  <minimizedAffinity>
-5.7056241

$$$$

 OpenBabel03272510283D

 43 47  0  0  1  0  0  0  0  0999 V2000
   37.7140   27.8520   31.7610 C   0  0  0  0  0  0  0  0  0  0  0  0
   37.2920   27.9570   33.0870 C   0  0  0  0  0  0  0  0  0  0  0  0
   38.0750   27.4770   34.1310 C   0  0  0  0  0  0  0  0  0  0  0  0
   39.2870   26.8950   33.7780 C   0  0  0  0  0  0  0  0  0  0  0  0
   40.2190   26.3520   34.6150 N   0  0  0  0  0  0  0  0  0  0  0  0
   41.2170   25.9090   33.8370 C   0  0  0  0  0  0  0  0  0  0  0  0
   40.9450   26.1510   32.5740 N   0  0  0  0  0  0  0  0  0  0  0  0
   39.7430   26.7710   32.4870 C   0  0  0  0  0  0  0  0  0  0  0  0
   38.9350   27.2620   31.4540 C   0  0  0  0  0  0  0  0  0  0  0  0
   37.1300   28.2140   30.9330 H   0  0  0  0  0  0  0  0  0  0  0  0
   37.7360   27.5660   35.1510 H   0  0  0  0  0  0  0  0  0  0  0  0
   40.1420   26.3040   35.6690 H   0  0  0  0  0  0  0  0  0  0  0  0
   39.3150   27.1530   30.4460 H   0  0  0  0  0  0  0  0  0  0  0  0
   34.3850   29.7970   34.5850 C   0  0  0  0  0  0  0  0  0  0  0  0
   35.6460   29.2430   34.4730 C   0  0  0  0  0  0  0  0  0  0  0  0
   36.0000   28.5780   33.3040 C   0  0  0  0  0  0  0  0  0  0  0  0
   35.0700   28.5030   32.3050 N   0  0  0  0  0  0  0  0  0  0  0  0
   33.8360   29.0530   32.4300 C   0  0  0  0  0  0  0  0  0  0  0  0
   33.5070   29.6790   33.5400 N   0  0  0  0  0  0  0  0  0  0  0  0
   34.1020   30.3080   35.4730 H   0  0  0  0  0  0  0  0  0  0  0  0
   36.3810   29.3050   35.2660 H   0  0  0  0  0  0  0  0  0  0  0  0
   33.1420   28.9490   31.5820 H   0  0  0  0  0  0  0  0  0  0  0  0
   42.3550   25.2870   34.3780 O   0  0  0  0  0  0  0  0  0  0  0  0
   41.1370   23.3770   34.6690 N   0  0  0  0  0  0  0  0  0  0  0  0
   42.1030   24.2690   35.3380 C   0  0  1  0  0  0  0  0  0  0  0  0
   43.3010   23.5060   35.6640 C   0  0  0  0  0  0  0  0  0  0  0  0
   42.9630   22.5200   36.6090 O   0  0  0  0  0  0  0  0  0  0  0  0
   41.9460   21.6860   36.2370 C   0  0  0  0  0  0  0  0  0  0  0  0
   40.7600   22.4010   35.6700 C   0  0  1  0  0  0  0  0  0  0  0  0
   40.3060   23.9800   34.4680 H   0  0  0  0  0  0  0  0  0  0  0  0
   41.6780   24.6940   36.2540 H   0  0  0  0  0  0  0  0  0  0  0  0
   43.9070   22.9890   34.9710 H   0  0  0  0  0  0  0  0  0  0  0  0
   43.9890   24.1900   36.2470 H   0  0  0  0  0  0  0  0  0  0  0  0
   42.3510   21.0230   35.4320 H   0  0  0  0  0  0  0  0  0  0  0  0
   41.6420   21.1140   37.1270 H   0  0  0  0  0  0  0  0  0  0  0  0
   40.1890   21.6160   35.0910 H   0  0  0  0  0  0  0  0  0  0  0  0
   39.8120   22.9310   36.6520 C   0  0  0  0  0  0  0  0  0  0  0  0
   39.7630   22.8280   38.0120 C   0  0  0  0  0  3  0  0  0  0  0  0
   38.7580   23.4190   38.7490 C   0  0  0  0  0  0  0  0  0  0  0  0
   38.8310   23.2630   39.8230 H   0  0  0  0  0  0  0  0  0  0  0  0
   37.7650   24.1350   38.1480 N   0  0  0  0  0  0  0  0  0  0  0  0
   37.8400   24.2210   36.8060 C   0  0  0  0  0  3  0  0  0  0  0  0
   38.8200   23.6480   36.0450 N   0  0  0  0  0  0  0  0  0  0  0  0
  1  2  1  0  0  0  0
  2 16  1  0  0  0  0
  2  3  2  0  0  0  0
  3 11  1  0  0  0  0
  4  3  1  0  0  0  0
  4  5  1  0  0  0  0
  5 12  1  0  0  0  0
  6 23  1  0  0  0  0
  6  5  1  0  0  0  0
  7  6  2  0  0  0  0
  8  7  1  0  0  0  0
  8  4  2  0  0  0  0
  9  1  2  0  0  0  0
  9  8  1  0  0  0  0
 10  1  1  0  0  0  0
 13  9  1  0  0  0  0
 14 20  1  0  0  0  0
 15 14  1  0  0  0  0
 15 21  1  0  0  0  0
 16 15  2  0  0  0  0
 17 18  2  0  0  0  0
 17 16  1  0  0  0  0
 18 19  1  0  0  0  0
 19 14  2  0  0  0  0
 22 18  1  0  0  0  0
 23 25  1  0  0  0  0
 24 25  1  0  0  0  0
 24 29  1  0  0  0  0
 25 26  1  0  0  0  0
 25 31  1  1  0  0  0
 26 33  1  0  0  0  0
 26 27  1  0  0  0  0
 28 27  1  0  0  0  0
 28 35  1  0  0  0  0
 29 36  1  6  0  0  0
 29 28  1  0  0  0  0
 29 37  1  0  0  0  0
 30 24  1  0  0  0  0
 32 26  1  0  0  0  0
 34 28  1  0  0  0  0
 37 38  1  0  0  0  0
 38 39  2  0  0  0  0
 39 40  1  0  0  0  0
 41 39  1  0  0  0  0
 42 41  2  0  0  0  0
 43 37  2  0  0  0  0
 43 42  1  0  0  0  0
M  END
>  <minimizedAffinity>
-5.66198492

$$$$
