REMARK  Name = 
REMARK  5 active torsions:
REMARK  status: ('A' for Active; 'I' for Inactive)
REMARK    1  A    between atoms: C_11  and  C_12
REMARK    2  A    between atoms: C_11  and  C_16
REMARK    3  A    between atoms: C_16  and  O_17
REMARK    4  A    between atoms: C_16  and  C_33
REMARK    5  A    between atoms: O_17  and  C_18
REMARK                            x       y       z     vdW  Elec       q    Type
REMARK                         _______ _______ _______ _____ _____    ______ ____
ROOT
ATOM      1  C   UNL     1      36.693  29.950  49.013  0.00  0.00    +0.000 A 
ATOM      2  C   UNL     1      37.725  30.618  48.320  0.00  0.00    +0.000 A 
ATOM      3  C   UNL     1      37.495  30.907  46.974  0.00  0.00    +0.000 A 
ATOM      4  N   UNL     1      36.329  30.544  46.414  0.00  0.00    +0.000 NA
ATOM      5  C   UNL     1      35.367  29.907  47.108  0.00  0.00    +0.000 A 
ATOM      6  N   UNL     1      35.550  29.615  48.392  0.00  0.00    +0.000 NA
ATOM      7  N   UNL     1      38.465  31.561  46.218  0.00  0.00    +0.000 N 
ATOM      8  C   UNL     1      39.431  32.571  46.730  0.00  0.00    +0.000 C 
ATOM      9  C   UNL     1      40.091  33.197  45.566  0.00  0.00    +0.000 C 
ATOM     10  C   UNL     1      39.219  32.859  44.447  0.00  0.00    +0.000 C 
ATOM     11  C   UNL     1      38.789  31.493  44.830  0.00  0.00    +0.000 C 
ATOM     12  H   UNL     1      36.980  29.775  50.056  0.00  0.00    +0.000 HD
ATOM     13  H   UNL     1      38.662  30.922  48.726  0.00  0.00    +0.000 HD
ATOM     14  H   UNL     1      34.414  29.589  46.726  0.00  0.00    +0.000 HD
ATOM     15  H   UNL     1      39.977  32.314  47.603  0.00  0.00    +0.000 HD
ATOM     16  H   UNL     1      38.658  33.334  47.155  0.00  0.00    +0.000 HD
ATOM     17  H   UNL     1      39.836  34.346  45.711  0.00  0.00    +0.000 HD
ATOM     18  H   UNL     1      41.143  33.296  45.490  0.00  0.00    +0.000 HD
ATOM     19  H   UNL     1      38.334  33.519  44.338  0.00  0.00    +0.000 HD
ATOM     20  H   UNL     1      39.707  32.810  43.450  0.00  0.00    +0.000 HD
ENDROOT
BRANCH  11  21
ATOM     21  C   UNL     1      37.635  31.041  43.930  0.00  0.00    +0.000 C 
ATOM     22  F   UNL     1      36.509  31.752  44.284  0.00  0.00    +0.000 F 
ATOM     23  F   UNL     1      37.306  29.721  44.020  0.00  0.00    +0.000 F 
ATOM     24  F   UNL     1      37.961  31.427  42.649  0.00  0.00    +0.000 F 
ENDBRANCH  11  21
BRANCH  11  25
ATOM     25  C   UNL     1      39.824  30.515  44.669  0.00  0.00    +0.000 C 
ATOM     26  H   UNL     1      39.533  29.547  45.010  0.00  0.00    +0.000 HD
BRANCH  25  27
ATOM     27  C   UNL     1      41.111  30.615  45.588  0.00  0.00    +0.000 A 
ATOM     28  C   UNL     1      41.089  30.509  46.972  0.00  0.00    +0.000 A 
ATOM     29  C   UNL     1      42.256  30.683  47.675  0.00  0.00    +0.000 A 
ATOM     30  H   UNL     1      42.121  30.578  48.744  0.00  0.00    +0.000 HD
ATOM     31  N   UNL     1      43.409  30.951  47.053  0.00  0.00    +0.000 NA
ATOM     32  C   UNL     1      43.464  31.059  45.721  0.00  0.00    +0.000 A 
ATOM     33  N   UNL     1      42.329  30.888  45.072  0.00  0.00    +0.000 NA
ENDBRANCH  25  27
BRANCH  25  34
ATOM     34  O   UNL     1      40.350  30.681  43.539  0.00  0.00    +0.000 OA
BRANCH  34  35
ATOM     35  C   UNL     1      40.991  29.978  42.592  0.00  0.00    +0.000 C 
ATOM     36  O   UNL     1      40.759  30.406  41.460  0.00  0.00    +0.000 OA
ATOM     37  N   UNL     1      41.868  28.912  42.257  0.00  0.00    +0.000 N 
ATOM     38  H   UNL     1      41.629  27.896  42.167  0.00  0.00    +0.000 HD
ATOM     39  H   UNL     1      42.903  29.055  42.056  0.00  0.00    +0.000 HD
ENDBRANCH  34  35
ENDBRANCH  25  34
ENDBRANCH  11  25
TORSDOF 5
