
 OpenBabel03272507283D

 39 41  0  0  1  0  0  0  0  0999 V2000
   34.4580   29.5950   46.4420 C   0  0  0  0  0  0  0  0  0  0  0  0
   35.3960   30.3750   45.7320 C   0  0  0  0  0  0  0  0  0  0  0  0
   35.8000   29.8940   44.4850 C   0  0  0  0  0  0  0  0  0  0  0  0
   35.2890   28.7380   44.0300 N   0  0  0  0  0  0  0  0  0  0  0  0
   34.3960   28.0210   44.7370 C   0  0  0  0  0  0  0  0  0  0  0  0
   33.9870   28.4470   45.9280 N   0  0  0  0  0  0  0  0  0  0  0  0
   36.7250   30.6030   43.7230 N   0  0  0  0  0  0  0  0  0  0  0  0
   36.8800   32.0830   43.6990 C   0  0  0  0  0  0  0  0  0  0  0  0
   37.7780   32.4270   42.5770 C   0  0  0  0  0  0  0  0  0  0  0  0
   37.7750   31.2270   41.7480 C   0  0  0  0  0  0  0  0  0  0  0  0
   37.7100   30.1700   42.7860 C   0  0  2  0  0  0  0  0  0  0  0  0
   34.2150   30.0650   47.4010 H   0  0  0  0  0  0  0  0  0  0  0  0
   35.8240   31.2950   46.0570 H   0  0  0  0  0  0  0  0  0  0  0  0
   33.9470   27.0920   44.4350 H   0  0  0  0  0  0  0  0  0  0  0  0
   36.9550   32.5730   44.6370 H   0  0  0  0  0  0  0  0  0  0  0  0
   35.7910   32.3550   43.3810 H   0  0  0  0  0  0  0  0  0  0  0  0
   37.1080   33.1540   41.9230 H   0  0  0  0  0  0  0  0  0  0  0  0
   38.6130   33.0690   42.6890 H   0  0  0  0  0  0  0  0  0  0  0  0
   36.9050   31.1420   41.0650 H   0  0  0  0  0  0  0  0  0  0  0  0
   38.6840   31.0620   41.1310 H   0  0  0  0  0  0  0  0  0  0  0  0
   37.4130   28.8180   42.1310 C   0  0  0  0  0  0  0  0  0  0  0  0
   36.0980   28.8190   41.7190 F   0  0  0  0  0  0  0  0  0  0  0  0
   37.5660   27.7300   42.9390 F   0  0  0  0  0  0  0  0  0  0  0  0
   38.1850   28.7540   40.9930 F   0  0  0  0  0  0  0  0  0  0  0  0
   38.9450   30.0050   43.4940 C   0  0  2  0  0  0  0  0  0  0  0  0
   38.9690   29.1130   44.0790 H   0  0  0  0  0  0  0  0  0  0  0  0
   39.2650   30.9820   44.6990 C   0  0  0  0  0  0  0  0  0  0  0  0
   38.8960   30.7390   46.0170 C   0  0  0  0  0  0  0  0  0  0  0  0
   39.1630   31.6900   46.9710 C   0  0  0  0  0  0  0  0  0  0  0  0
   38.8320   31.3960   47.9590 H   0  0  0  0  0  0  0  0  0  0  0  0
   39.7680   32.8400   46.6580 N   0  0  0  0  0  0  0  0  0  0  0  0
   40.1360   33.1030   45.3990 C   0  0  0  0  0  0  0  0  0  0  0  0
   39.8680   32.1730   44.5030 N   0  0  0  0  0  0  0  0  0  0  0  0
   39.8880   30.3030   42.7160 O   0  0  0  0  0  0  0  0  0  0  0  0
   40.9860   29.7520   42.1760 C   0  0  0  0  0  0  0  0  0  0  0  0
   41.2280   30.2040   41.0560 O   0  0  0  0  0  0  0  0  0  0  0  0
   42.0720   28.8440   42.2950 N   0  0  0  0  0  0  0  0  0  0  0  0
   42.0580   27.8100   42.1240 H   0  0  0  0  0  0  0  0  0  0  0  0
   43.0500   29.1450   42.5840 H   0  0  0  0  0  0  0  0  0  0  0  0
  1 12  1  0  0  0  0
  2 13  1  0  0  0  0
  2  1  2  0  0  0  0
  3  2  1  0  0  0  0
  4  3  2  0  0  0  0
  4  5  1  0  0  0  0
  5  6  2  0  0  0  0
  6  1  1  0  0  0  0
  7  3  1  0  0  0  0
  8  7  1  0  0  0  0
  8 15  1  0  0  0  0
  9 18  1  0  0  0  0
  9  8  1  0  0  0  0
 10  9  1  0  0  0  0
 10 11  1  0  0  0  0
 11 21  1  6  0  0  0
 11 25  1  0  0  0  0
 11  7  1  0  0  0  0
 14  5  1  0  0  0  0
 16  8  1  0  0  0  0
 17  9  1  0  0  0  0
 19 10  1  0  0  0  0
 20 10  1  0  0  0  0
 21 23  1  0  0  0  0
 22 21  1  0  0  0  0
 24 21  1  0  0  0  0
 25 26  1  1  0  0  0
 25 27  1  0  0  0  0
 27 28  1  0  0  0  0
 28 29  2  0  0  0  0
 29 30  1  0  0  0  0
 31 29  1  0  0  0  0
 32 31  2  0  0  0  0
 33 27  2  0  0  0  0
 33 32  1  0  0  0  0
 34 25  1  0  0  0  0
 35 37  1  0  0  0  0
 35 34  1  0  0  0  0
 36 35  2  0  0  0  0
 37 39  1  0  0  0  0
 38 37  1  0  0  0  0
M  END
>  <minimizedAffinity>
-4.68446016

>  <minimizedRMSD>
2.96437001

$$$$
