
 OpenBabel03272510233D

 29 32  0  0  0  0  0  0  0  0999 V2000
   35.6740   29.8380   46.9600 C   0  0  0  0  0  0  0  0  0  0  0  0
   36.6800   30.5930   47.5520 C   0  0  0  0  0  0  0  0  0  0  0  0
   37.3920   31.5080   46.8100 C   0  0  0  0  0  0  0  0  0  0  0  0
   37.0600   31.6350   45.4620 C   0  0  0  0  0  0  0  0  0  0  0  0
   37.6190   32.4640   44.5390 N   0  0  0  0  0  0  0  0  0  0  0  0
   36.9780   32.2360   43.3880 C   0  0  0  0  0  0  0  0  0  0  0  0
   36.0380   31.3000   43.5380 N   0  0  0  0  0  0  0  0  0  0  0  0
   36.0560   30.8960   44.8290 C   0  0  0  0  0  0  0  0  0  0  0  0
   35.3620   29.9860   45.6080 C   0  0  0  0  0  0  0  0  0  0  0  0
   35.0830   29.1040   47.4980 H   0  0  0  0  0  0  0  0  0  0  0  0
   38.1620   32.0890   47.2550 H   0  0  0  0  0  0  0  0  0  0  0  0
   38.3830   33.1270   44.7140 H   0  0  0  0  0  0  0  0  0  0  0  0
   34.5820   29.4040   45.1340 H   0  0  0  0  0  0  0  0  0  0  0  0
   38.1820   30.5530   50.9960 C   0  0  0  0  0  0  0  0  0  0  0  0
   38.0430   30.8340   49.6320 C   0  0  0  0  0  0  0  0  0  0  0  0
   36.9260   30.3610   48.9680 C   0  0  0  0  0  0  0  0  0  0  0  0
   36.0060   29.6420   49.6670 N   0  0  0  0  0  0  0  0  0  0  0  0
   36.1560   29.3790   50.9870 C   0  0  0  0  0  0  0  0  0  0  0  0
   37.2280   29.8270   51.6460 N   0  0  0  0  0  0  0  0  0  0  0  0
   39.0330   30.9030   51.5380 H   0  0  0  0  0  0  0  0  0  0  0  0
   38.7790   31.4020   49.0970 H   0  0  0  0  0  0  0  0  0  0  0  0
   35.3800   28.7980   51.4790 H   0  0  0  0  0  0  0  0  0  0  0  0
   37.2660   32.9190   42.1310 C   0  0  0  0  0  0  0  0  0  0  0  0
   36.2680   33.4890   41.3670 C   0  0  0  0  0  3  0  0  0  0  0  0
   36.5310   34.1360   40.1790 C   0  0  0  0  0  0  0  0  0  0  0  0
   35.7520   34.5790   39.5890 H   0  0  0  0  0  0  0  0  0  0  0  0
   37.7910   34.2390   39.7070 N   0  0  0  0  0  0  0  0  0  0  0  0
   38.7590   33.6760   40.4640 C   0  0  0  0  0  3  0  0  0  0  0  0
   38.5150   33.0320   41.6430 N   0  0  0  0  0  0  0  0  0  0  0  0
  1 10  1  0  0  0  0
  1  2  1  0  0  0  0
  2 16  1  0  0  0  0
  3 11  1  0  0  0  0
  3  2  2  0  0  0  0
  4  3  1  0  0  0  0
  5 12  1  0  0  0  0
  5  4  1  0  0  0  0
  6  7  2  0  0  0  0
  6  5  1  0  0  0  0
  7  8  1  0  0  0  0
  8  4  2  0  0  0  0
  8  9  1  0  0  0  0
  9  1  2  0  0  0  0
 13  9  1  0  0  0  0
 14 20  1  0  0  0  0
 14 19  1  0  0  0  0
 15 14  2  0  0  0  0
 16 15  1  0  0  0  0
 16 17  2  0  0  0  0
 17 18  1  0  0  0  0
 18 22  1  0  0  0  0
 18 19  2  0  0  0  0
 21 15  1  0  0  0  0
 23  6  1  0  0  0  0
 24 23  2  0  0  0  0
 25 24  1  0  0  0  0
 26 25  1  0  0  0  0
 27 25  2  0  0  0  0
 27 28  1  0  0  0  0
 28 29  2  0  0  0  0
 29 23  1  0  0  0  0
M  END
>  <minimizedAffinity>
-4.79768944

>  <minimizedRMSD>
3.32066751

$$$$
