
 OpenBabel03262521103D

 22 23  0  0  0  0  0  0  0  0999 V2000
   39.4750   27.1640   34.2890 O   0  0  0  0  0  0  0  0  0  0  0  0
   38.2280   26.8250   35.0940 P   0  0  1  0  0  0  0  0  0  0  0  0
   38.3870   27.4230   36.6830 O   0  0  0  0  0  0  0  0  0  0  0  0
   38.2290   26.6970   37.3370 H   0  0  0  0  0  0  0  0  0  0  0  0
   36.8120   27.5310   34.4470 O   0  0  0  0  0  0  0  0  0  0  0  0
   36.6490   27.7390   33.0920 C   0  0  0  0  0  0  0  0  0  0  0  0
   36.4170   28.9860   32.4760 C   0  0  0  0  0  0  0  0  0  0  0  0
   36.2750   29.0180   31.0980 C   0  0  0  0  0  0  0  0  0  0  0  0
   36.3620   27.8560   30.3860 N   0  0  0  0  0  0  0  0  0  0  0  0
   36.5860   26.6690   31.0140 C   0  0  0  0  0  0  0  0  0  0  0  0
   36.7310   26.5980   32.3680 N   0  0  0  0  0  0  0  0  0  0  0  0
   36.3680   29.8360   33.1390 H   0  0  0  0  0  0  0  0  0  0  0  0
   36.0980   29.9800   30.6380 H   0  0  0  0  0  0  0  0  0  0  0  0
   36.6460   25.7750   30.3900 H   0  0  0  0  0  0  0  0  0  0  0  0
   38.0880   25.1430   35.1140 O   0  0  0  0  0  0  0  0  0  0  0  0
   38.5620   24.3870   36.1780 C   0  0  0  0  0  0  0  0  0  0  0  0
   39.6170   23.4900   36.2680 C   0  0  0  0  0  3  0  0  0  0  0  0
   39.8700   22.8740   37.4550 C   0  0  0  0  0  0  0  0  0  0  0  0
   40.7140   22.1940   37.4170 H   0  0  0  0  0  0  0  0  0  0  0  0
   39.1070   23.1360   38.5130 N   0  0  0  0  0  0  0  0  0  0  0  0
   38.0850   23.9940   38.4610 C   0  0  0  0  0  3  0  0  0  0  0  0
   37.8100   24.6240   37.2870 N   0  0  0  0  0  0  0  0  0  0  0  0
  2  1  2  6  0  0  0
  2 15  1  0  0  0  0
  2  3  1  0  0  0  0
  3  4  1  0  0  0  0
  5  2  1  0  0  0  0
  6  5  1  0  0  0  0
  7  6  1  0  0  0  0
  7 12  1  0  0  0  0
  8  7  2  0  0  0  0
  9 10  2  0  0  0  0
  9  8  1  0  0  0  0
 10 11  1  0  0  0  0
 11  6  2  0  0  0  0
 13  8  1  0  0  0  0
 14 10  1  0  0  0  0
 15 16  1  0  0  0  0
 16 17  2  0  0  0  0
 16 22  1  0  0  0  0
 17 18  1  0  0  0  0
 18 20  2  0  0  0  0
 19 18  1  0  0  0  0
 21 20  1  0  0  0  0
 22 21  2  0  0  0  0
M  END
>  <minimizedAffinity>
-4.60730553

$$$$

 OpenBabel03262521103D

 22 23  0  0  0  0  0  0  0  0999 V2000
   37.0170   28.0280   34.8840 O   0  0  0  0  0  0  0  0  0  0  0  0
   37.9500   26.8250   34.9200 P   0  0  1  0  0  0  0  0  0  0  0  0
   39.4130   27.2530   35.6820 O   0  0  0  0  0  0  0  0  0  0  0  0
   40.1800   27.0240   35.0990 H   0  0  0  0  0  0  0  0  0  0  0  0
   37.3040   25.5150   35.8080 O   0  0  0  0  0  0  0  0  0  0  0  0
   38.1060   24.6350   36.5070 C   0  0  0  0  0  0  0  0  0  0  0  0
   37.9280   24.2560   37.8530 C   0  0  0  0  0  0  0  0  0  0  0  0
   38.8290   23.3590   38.4050 C   0  0  0  0  0  0  0  0  0  0  0  0
   39.8480   22.8740   37.6380 N   0  0  0  0  0  0  0  0  0  0  0  0
   39.9910   23.2620   36.3400 C   0  0  0  0  0  0  0  0  0  0  0  0
   39.1250   24.1420   35.7640 N   0  0  0  0  0  0  0  0  0  0  0  0
   37.0870   24.7040   38.3610 H   0  0  0  0  0  0  0  0  0  0  0  0
   38.6810   23.0770   39.4380 H   0  0  0  0  0  0  0  0  0  0  0  0
   40.8260   22.8380   35.7790 H   0  0  0  0  0  0  0  0  0  0  0  0
   38.2360   26.3660   33.3210 O   0  0  0  0  0  0  0  0  0  0  0  0
   37.2260   25.8410   32.5250 C   0  0  0  0  0  0  0  0  0  0  0  0
   36.2430   26.4580   31.7660 C   0  0  0  0  0  3  0  0  0  0  0  0
   35.3610   25.6930   31.0650 C   0  0  0  0  0  0  0  0  0  0  0  0
   34.6350   26.2720   30.5070 H   0  0  0  0  0  0  0  0  0  0  0  0
   35.4520   24.3660   31.1140 N   0  0  0  0  0  0  0  0  0  0  0  0
   36.3870   23.7400   31.8340 C   0  0  0  0  0  3  0  0  0  0  0  0
   37.2800   24.4820   32.5440 N   0  0  0  0  0  0  0  0  0  0  0  0
  2  1  2  1  0  0  0
  2  3  1  0  0  0  0
  2  5  1  0  0  0  0
  4  3  1  0  0  0  0
  5  6  1  0  0  0  0
  6  7  1  0  0  0  0
  7 12  1  0  0  0  0
  7  8  2  0  0  0  0
  8 13  1  0  0  0  0
  9  8  1  0  0  0  0
 10  9  2  0  0  0  0
 11 10  1  0  0  0  0
 11  6  2  0  0  0  0
 14 10  1  0  0  0  0
 15  2  1  0  0  0  0
 16 22  1  0  0  0  0
 16 15  1  0  0  0  0
 17 16  2  0  0  0  0
 18 20  2  0  0  0  0
 18 17  1  0  0  0  0
 19 18  1  0  0  0  0
 20 21  1  0  0  0  0
 21 22  2  0  0  0  0
M  END
>  <minimizedAffinity>
-4.57417679

$$$$

 OpenBabel03262521103D

 22 23  0  0  0  0  0  0  0  0999 V2000
   39.1760   27.3250   35.5480 O   0  0  0  0  0  0  0  0  0  0  0  0
   37.9420   26.7180   34.8950 P   0  0  1  0  0  0  0  0  0  0  0  0
   36.7370   27.9120   34.7180 O   0  0  0  0  0  0  0  0  0  0  0  0
   35.8890   27.6000   35.1240 H   0  0  0  0  0  0  0  0  0  0  0  0
   38.2570   26.1090   33.3290 O   0  0  0  0  0  0  0  0  0  0  0  0
   37.2720   25.5260   32.5560 C   0  0  0  0  0  0  0  0  0  0  0  0
   37.0910   24.1400   32.3670 C   0  0  0  0  0  0  0  0  0  0  0  0
   36.0490   23.7220   31.5560 C   0  0  0  0  0  0  0  0  0  0  0  0
   35.2380   24.6510   30.9710 N   0  0  0  0  0  0  0  0  0  0  0  0
   35.4420   25.9820   31.1750 C   0  0  0  0  0  0  0  0  0  0  0  0
   36.4570   26.4320   31.9660 N   0  0  0  0  0  0  0  0  0  0  0  0
   37.7940   23.5000   32.8800 H   0  0  0  0  0  0  0  0  0  0  0  0
   35.9210   22.6570   31.4190 H   0  0  0  0  0  0  0  0  0  0  0  0
   34.7590   26.6760   30.6790 H   0  0  0  0  0  0  0  0  0  0  0  0
   37.3970   25.4820   35.9060 O   0  0  0  0  0  0  0  0  0  0  0  0
   38.2710   24.5510   36.4510 C   0  0  0  0  0  0  0  0  0  0  0  0
   39.3310   23.8510   35.8920 C   0  0  0  0  0  3  0  0  0  0  0  0
   40.0400   22.9820   36.6650 C   0  0  0  0  0  0  0  0  0  0  0  0
   40.8440   22.4880   36.1320 H   0  0  0  0  0  0  0  0  0  0  0  0
   39.7100   22.8130   37.9420 N   0  0  0  0  0  0  0  0  0  0  0  0
   38.6970   23.4720   38.5120 C   0  0  0  0  0  3  0  0  0  0  0  0
   37.9730   24.3460   37.7620 N   0  0  0  0  0  0  0  0  0  0  0  0
  2  1  2  1  0  0  0
  2 15  1  0  0  0  0
  3  2  1  0  0  0  0
  3  4  1  0  0  0  0
  5  2  1  0  0  0  0
  6  5  1  0  0  0  0
  7  6  1  0  0  0  0
  7 12  1  0  0  0  0
  8  7  2  0  0  0  0
  9 10  2  0  0  0  0
  9  8  1  0  0  0  0
 10 11  1  0  0  0  0
 11  6  2  0  0  0  0
 13  8  1  0  0  0  0
 14 10  1  0  0  0  0
 15 16  1  0  0  0  0
 16 22  1  0  0  0  0
 17 16  2  0  0  0  0
 17 18  1  0  0  0  0
 18 20  2  0  0  0  0
 19 18  1  0  0  0  0
 20 21  1  0  0  0  0
 22 21  2  0  0  0  0
M  END
>  <minimizedAffinity>
-4.49229813

$$$$

 OpenBabel03262521103D

 22 23  0  0  0  0  0  0  0  0999 V2000
   40.5440   27.4000   34.0280 O   0  0  0  0  0  0  0  0  0  0  0  0
   39.3990   26.7040   34.7500 P   0  0  1  0  0  0  0  0  0  0  0  0
   38.9270   27.6250   36.1050 O   0  0  0  0  0  0  0  0  0  0  0  0
   38.9350   27.0610   36.9190 H   0  0  0  0  0  0  0  0  0  0  0  0
   38.0080   26.5330   33.7700 O   0  0  0  0  0  0  0  0  0  0  0  0
   37.2230   27.6110   33.4140 C   0  0  0  0  0  0  0  0  0  0  0  0
   37.1450   28.1800   32.1270 C   0  0  0  0  0  0  0  0  0  0  0  0
   36.3040   29.2650   31.9400 C   0  0  0  0  0  0  0  0  0  0  0  0
   35.5840   29.7450   32.9960 N   0  0  0  0  0  0  0  0  0  0  0  0
   35.6840   29.1720   34.2270 C   0  0  0  0  0  0  0  0  0  0  0  0
   36.5000   28.1040   34.4490 N   0  0  0  0  0  0  0  0  0  0  0  0
   37.7600   27.7160   31.3700 H   0  0  0  0  0  0  0  0  0  0  0  0
   36.2530   29.6910   30.9480 H   0  0  0  0  0  0  0  0  0  0  0  0
   35.0820   29.6020   35.0310 H   0  0  0  0  0  0  0  0  0  0  0  0
   39.9610   25.1900   35.2390 O   0  0  0  0  0  0  0  0  0  0  0  0
   39.0890   24.1790   35.6180 C   0  0  0  0  0  0  0  0  0  0  0  0
   38.8610   22.9170   35.0870 C   0  0  0  0  0  3  0  0  0  0  0  0
   37.9300   22.1070   35.6640 C   0  0  0  0  0  0  0  0  0  0  0  0
   37.8300   21.1470   35.1720 H   0  0  0  0  0  0  0  0  0  0  0  0
   37.2500   22.5330   36.7250 N   0  0  0  0  0  0  0  0  0  0  0  0
   37.4450   23.7410   37.2610 C   0  0  0  0  0  3  0  0  0  0  0  0
   38.3700   24.5690   36.7050 N   0  0  0  0  0  0  0  0  0  0  0  0
  2  1  2  6  0  0  0
  2 15  1  0  0  0  0
  2  3  1  0  0  0  0
  3  4  1  0  0  0  0
  5  2  1  0  0  0  0
  6  5  1  0  0  0  0
  6 11  1  0  0  0  0
  7  6  2  0  0  0  0
  8  7  1  0  0  0  0
  8  9  2  0  0  0  0
  9 10  1  0  0  0  0
 10 11  2  0  0  0  0
 10 14  1  0  0  0  0
 12  7  1  0  0  0  0
 13  8  1  0  0  0  0
 15 16  1  0  0  0  0
 16 22  1  0  0  0  0
 17 16  2  0  0  0  0
 17 18  1  0  0  0  0
 18 20  2  0  0  0  0
 19 18  1  0  0  0  0
 20 21  1  0  0  0  0
 22 21  2  0  0  0  0
M  END
>  <minimizedAffinity>
-4.34181261

$$$$

 OpenBabel03262521103D

 22 23  0  0  0  0  0  0  0  0999 V2000
   38.9170   27.3690   35.9680 O   0  0  0  0  0  0  0  0  0  0  0  0
   38.2390   26.7070   34.7760 P   0  0  1  0  0  0  0  0  0  0  0  0
   39.0430   27.1460   33.3380 O   0  0  0  0  0  0  0  0  0  0  0  0
   38.3960   27.5150   32.6860 H   0  0  0  0  0  0  0  0  0  0  0  0
   38.2840   24.9990   34.8570 O   0  0  0  0  0  0  0  0  0  0  0  0
   38.6020   24.3280   36.0210 C   0  0  0  0  0  0  0  0  0  0  0  0
   39.7220   23.4930   36.2060 C   0  0  0  0  0  0  0  0  0  0  0  0
   39.8930   22.8920   37.4430 C   0  0  0  0  0  0  0  0  0  0  0  0
   38.9820   23.1230   38.4330 N   0  0  0  0  0  0  0  0  0  0  0  0
   37.9100   23.9350   38.2190 C   0  0  0  0  0  0  0  0  0  0  0  0
   37.7090   24.5430   37.0170 N   0  0  0  0  0  0  0  0  0  0  0  0
   40.3740   23.3850   35.3520 H   0  0  0  0  0  0  0  0  0  0  0  0
   40.7560   22.2540   37.5720 H   0  0  0  0  0  0  0  0  0  0  0  0
   37.2170   24.0800   39.0510 H   0  0  0  0  0  0  0  0  0  0  0  0
   36.6420   27.2500   34.7430 O   0  0  0  0  0  0  0  0  0  0  0  0
   36.2770   28.3910   34.0400 C   0  0  0  0  0  0  0  0  0  0  0  0
   35.7370   29.5960   34.4660 C   0  0  0  0  0  3  0  0  0  0  0  0
   35.4690   30.5690   33.5510 C   0  0  0  0  0  0  0  0  0  0  0  0
   35.0500   31.4680   33.9870 H   0  0  0  0  0  0  0  0  0  0  0  0
   35.7270   30.3540   32.2640 N   0  0  0  0  0  0  0  0  0  0  0  0
   36.2480   29.2060   31.8210 C   0  0  0  0  0  3  0  0  0  0  0  0
   36.5250   28.2180   32.7140 N   0  0  0  0  0  0  0  0  0  0  0  0
  2  5  1  0  0  0  0
  2  1  2  1  0  0  0
  3  2  1  0  0  0  0
  4  3  1  0  0  0  0
  5  6  1  0  0  0  0
  6  7  2  0  0  0  0
  6 11  1  0  0  0  0
  7  8  1  0  0  0  0
  8 13  1  0  0  0  0
  8  9  2  0  0  0  0
 10  9  1  0  0  0  0
 10 14  1  0  0  0  0
 11 10  2  0  0  0  0
 12  7  1  0  0  0  0
 15  2  1  0  0  0  0
 16 17  1  0  0  0  0
 16 15  1  0  0  0  0
 18 19  1  0  0  0  0
 18 17  2  0  0  0  0
 20 18  1  0  0  0  0
 21 20  2  0  0  0  0
 21 22  1  0  0  0  0
 22 16  2  0  0  0  0
M  END
>  <minimizedAffinity>
-4.31845856

$$$$

 OpenBabel03262521103D

 22 23  0  0  0  0  0  0  0  0999 V2000
   35.0070   24.9050   30.7340 O   0  0  0  0  0  0  0  0  0  0  0  0
   36.3390   25.1060   31.4450 P   0  0  1  0  0  0  0  0  0  0  0  0
   37.5960   25.2080   30.2980 O   0  0  0  0  0  0  0  0  0  0  0  0
   38.3070   24.5540   30.5150 H   0  0  0  0  0  0  0  0  0  0  0  0
   36.3900   26.5530   32.3530 O   0  0  0  0  0  0  0  0  0  0  0  0
   37.3370   26.7720   33.3330 C   0  0  0  0  0  0  0  0  0  0  0  0
   37.0680   27.1530   34.6640 C   0  0  0  0  0  0  0  0  0  0  0  0
   38.1410   27.3320   35.5230 C   0  0  0  0  0  0  0  0  0  0  0  0
   39.4110   27.1380   35.0610 N   0  0  0  0  0  0  0  0  0  0  0  0
   39.6340   26.7710   33.7680 C   0  0  0  0  0  0  0  0  0  0  0  0
   38.6050   26.5850   32.8950 N   0  0  0  0  0  0  0  0  0  0  0  0
   36.0250   27.2770   34.9160 H   0  0  0  0  0  0  0  0  0  0  0  0
   37.9210   27.6240   36.5400 H   0  0  0  0  0  0  0  0  0  0  0  0
   40.6720   26.6310   33.4600 H   0  0  0  0  0  0  0  0  0  0  0  0
   36.5740   23.7730   32.4530 O   0  0  0  0  0  0  0  0  0  0  0  0
   36.2880   22.4820   32.0290 C   0  0  0  0  0  0  0  0  0  0  0  0
   35.2380   21.6280   32.3340 C   0  0  0  0  0  3  0  0  0  0  0  0
   35.1970   20.3900   31.7670 C   0  0  0  0  0  0  0  0  0  0  0  0
   34.3380   19.8040   32.0720 H   0  0  0  0  0  0  0  0  0  0  0  0
   36.1610   20.0130   30.9310 N   0  0  0  0  0  0  0  0  0  0  0  0
   37.1860   20.8110   30.6160 C   0  0  0  0  0  3  0  0  0  0  0  0
   37.2500   22.0530   31.1680 N   0  0  0  0  0  0  0  0  0  0  0  0
  2  1  2  6  0  0  0
  2  5  1  0  0  0  0
  2 15  1  0  0  0  0
  3  4  1  0  0  0  0
  3  2  1  0  0  0  0
  5  6  1  0  0  0  0
  6  7  1  0  0  0  0
  7 12  1  0  0  0  0
  7  8  2  0  0  0  0
  8 13  1  0  0  0  0
  9  8  1  0  0  0  0
 10  9  2  0  0  0  0
 11  6  2  0  0  0  0
 11 10  1  0  0  0  0
 14 10  1  0  0  0  0
 16 17  1  0  0  0  0
 16 15  1  0  0  0  0
 18 19  1  0  0  0  0
 18 17  2  0  0  0  0
 20 18  1  0  0  0  0
 21 20  2  0  0  0  0
 21 22  1  0  0  0  0
 22 16  2  0  0  0  0
M  END
>  <minimizedAffinity>
-4.18385506

$$$$

 OpenBabel03262521103D

 22 23  0  0  0  0  0  0  0  0999 V2000
   40.3500   26.6860   34.9410 O   0  0  0  0  0  0  0  0  0  0  0  0
   38.8300   26.7650   34.8840 P   0  0  1  0  0  0  0  0  0  0  0  0
   38.2620   27.8170   36.1000 O   0  0  0  0  0  0  0  0  0  0  0  0
   37.5790   27.3600   36.6520 H   0  0  0  0  0  0  0  0  0  0  0  0
   38.2570   27.3840   33.3970 O   0  0  0  0  0  0  0  0  0  0  0  0
   38.6600   26.8660   32.1820 C   0  0  0  0  0  0  0  0  0  0  0  0
   39.6710   27.4000   31.3580 C   0  0  0  0  0  0  0  0  0  0  0  0
   39.9510   26.7540   30.1640 C   0  0  0  0  0  0  0  0  0  0  0  0
   39.2480   25.6330   29.8260 N   0  0  0  0  0  0  0  0  0  0  0  0
   38.2770   25.1450   30.6470 C   0  0  0  0  0  0  0  0  0  0  0  0
   37.9740   25.7530   31.8280 N   0  0  0  0  0  0  0  0  0  0  0  0
   40.1580   28.2900   31.7280 H   0  0  0  0  0  0  0  0  0  0  0  0
   40.7280   27.1740   29.5410 H   0  0  0  0  0  0  0  0  0  0  0  0
   37.7510   24.2450   30.3210 H   0  0  0  0  0  0  0  0  0  0  0  0
   38.2380   25.2050   35.1370 O   0  0  0  0  0  0  0  0  0  0  0  0
   38.5630   24.4800   36.2760 C   0  0  0  0  0  0  0  0  0  0  0  0
   38.0050   24.4720   37.5470 C   0  0  0  0  0  3  0  0  0  0  0  0
   38.5260   23.6490   38.4990 C   0  0  0  0  0  0  0  0  0  0  0  0
   38.0190   23.7200   39.4550 H   0  0  0  0  0  0  0  0  0  0  0  0
   39.5580   22.8640   38.2030 N   0  0  0  0  0  0  0  0  0  0  0  0
   40.1180   22.8470   36.9900 C   0  0  0  0  0  3  0  0  0  0  0  0
   39.6170   23.6600   36.0200 N   0  0  0  0  0  0  0  0  0  0  0  0
  2  1  2  1  0  0  0
  2 15  1  0  0  0  0
  2  3  1  0  0  0  0
  3  4  1  0  0  0  0
  5  2  1  0  0  0  0
  6  5  1  0  0  0  0
  7 12  1  0  0  0  0
  7  6  2  0  0  0  0
  8  7  1  0  0  0  0
  9  8  2  0  0  0  0
  9 10  1  0  0  0  0
 10 11  2  0  0  0  0
 11  6  1  0  0  0  0
 13  8  1  0  0  0  0
 14 10  1  0  0  0  0
 15 16  1  0  0  0  0
 16 17  1  0  0  0  0
 17 18  2  0  0  0  0
 18 19  1  0  0  0  0
 20 18  1  0  0  0  0
 21 20  2  0  0  0  0
 22 16  2  0  0  0  0
 22 21  1  0  0  0  0
M  END
>  <minimizedAffinity>
-4.18247795

$$$$

 OpenBabel03262521103D

 22 23  0  0  0  0  0  0  0  0999 V2000
   35.0140   24.6600   30.9970 O   0  0  0  0  0  0  0  0  0  0  0  0
   36.4560   24.6370   31.4830 P   0  0  1  0  0  0  0  0  0  0  0  0
   37.5110   24.4940   30.1510 O   0  0  0  0  0  0  0  0  0  0  0  0
   38.1260   23.7290   30.2860 H   0  0  0  0  0  0  0  0  0  0  0  0
   36.8990   26.0720   32.3020 O   0  0  0  0  0  0  0  0  0  0  0  0
   36.6450   27.3240   31.7790 C   0  0  0  0  0  0  0  0  0  0  0  0
   35.9800   28.3720   32.4480 C   0  0  0  0  0  0  0  0  0  0  0  0
   35.8070   29.5710   31.7750 C   0  0  0  0  0  0  0  0  0  0  0  0
   36.2800   29.7000   30.5010 N   0  0  0  0  0  0  0  0  0  0  0  0
   36.9180   28.6670   29.8850 C   0  0  0  0  0  0  0  0  0  0  0  0
   37.1060   27.4730   30.5150 N   0  0  0  0  0  0  0  0  0  0  0  0
   35.6510   28.1540   33.4530 H   0  0  0  0  0  0  0  0  0  0  0  0
   35.2960   30.3660   32.2990 H   0  0  0  0  0  0  0  0  0  0  0  0
   37.2730   28.8320   28.8660 H   0  0  0  0  0  0  0  0  0  0  0  0
   36.6200   23.3050   32.5050 O   0  0  0  0  0  0  0  0  0  0  0  0
   36.2010   22.0380   32.1200 C   0  0  0  0  0  0  0  0  0  0  0  0
   35.1670   21.2350   32.5780 C   0  0  0  0  0  3  0  0  0  0  0  0
   34.9710   20.0110   32.0140 C   0  0  0  0  0  0  0  0  0  0  0  0
   34.1390   19.4660   32.4450 H   0  0  0  0  0  0  0  0  0  0  0  0
   35.7700   19.5990   31.0340 N   0  0  0  0  0  0  0  0  0  0  0  0
   36.7750   20.3470   30.5690 C   0  0  0  0  0  3  0  0  0  0  0  0
   36.9920   21.5750   31.1140 N   0  0  0  0  0  0  0  0  0  0  0  0
  2  1  2  6  0  0  0
  2  5  1  0  0  0  0
  2 15  1  0  0  0  0
  3  4  1  0  0  0  0
  3  2  1  0  0  0  0
  6  5  1  0  0  0  0
  6  7  1  0  0  0  0
  7 12  1  0  0  0  0
  8 13  1  0  0  0  0
  8  7  2  0  0  0  0
  9  8  1  0  0  0  0
 10  9  2  0  0  0  0
 10 11  1  0  0  0  0
 11  6  2  0  0  0  0
 14 10  1  0  0  0  0
 16 15  1  0  0  0  0
 16 17  1  0  0  0  0
 18 19  1  0  0  0  0
 18 17  2  0  0  0  0
 20 18  1  0  0  0  0
 21 20  2  0  0  0  0
 21 22  1  0  0  0  0
 22 16  2  0  0  0  0
M  END
>  <minimizedAffinity>
-4.11930418

$$$$

 OpenBabel03262521103D

 22 23  0  0  0  0  0  0  0  0999 V2000
   36.8150   27.8440   34.6980 O   0  0  0  0  0  0  0  0  0  0  0  0
   38.0560   27.0020   34.9600 P   0  0  1  0  0  0  0  0  0  0  0  0
   38.7830   27.4850   36.4240 O   0  0  0  0  0  0  0  0  0  0  0  0
   39.7390   27.6950   36.2760 H   0  0  0  0  0  0  0  0  0  0  0  0
   37.7020   25.3360   35.1180 O   0  0  0  0  0  0  0  0  0  0  0  0
   38.3210   24.5410   36.0610 C   0  0  0  0  0  0  0  0  0  0  0  0
   39.4310   23.7020   35.8270 C   0  0  0  0  0  0  0  0  0  0  0  0
   39.9310   22.9670   36.8890 C   0  0  0  0  0  0  0  0  0  0  0  0
   39.3420   23.0740   38.1160 N   0  0  0  0  0  0  0  0  0  0  0  0
   38.2710   23.8930   38.3070 C   0  0  0  0  0  0  0  0  0  0  0  0
   37.7520   24.6320   37.2860 N   0  0  0  0  0  0  0  0  0  0  0  0
   39.8120   23.6990   34.8160 H   0  0  0  0  0  0  0  0  0  0  0  0
   40.7810   22.3280   36.6960 H   0  0  0  0  0  0  0  0  0  0  0  0
   37.8450   23.9360   39.3120 H   0  0  0  0  0  0  0  0  0  0  0  0
   39.1150   27.2560   33.6700 O   0  0  0  0  0  0  0  0  0  0  0  0
   40.2460   26.4710   33.4930 C   0  0  0  0  0  0  0  0  0  0  0  0
   40.6110   25.6050   32.4720 C   0  0  0  0  0  3  0  0  0  0  0  0
   41.8010   24.9460   32.5480 C   0  0  0  0  0  0  0  0  0  0  0  0
   41.9890   24.2960   31.7010 H   0  0  0  0  0  0  0  0  0  0  0  0
   42.5980   25.1390   33.5950 N   0  0  0  0  0  0  0  0  0  0  0  0
   42.2770   25.9650   34.5950 C   0  0  0  0  0  3  0  0  0  0  0  0
   41.0940   26.6360   34.5440 N   0  0  0  0  0  0  0  0  0  0  0  0
  2  1  2  6  0  0  0
  2  5  1  0  0  0  0
  2  3  1  0  0  0  0
  4  3  1  0  0  0  0
  5  6  1  0  0  0  0
  6 11  1  0  0  0  0
  7  6  2  0  0  0  0
  7  8  1  0  0  0  0
  8  9  2  0  0  0  0
  9 10  1  0  0  0  0
 10 14  1  0  0  0  0
 11 10  2  0  0  0  0
 12  7  1  0  0  0  0
 13  8  1  0  0  0  0
 15  2  1  0  0  0  0
 16 15  1  0  0  0  0
 16 22  1  0  0  0  0
 17 18  1  0  0  0  0
 17 16  2  0  0  0  0
 18 20  2  0  0  0  0
 19 18  1  0  0  0  0
 20 21  1  0  0  0  0
 22 21  2  0  0  0  0
M  END
>  <minimizedAffinity>
-4.06866503

$$$$
