
 OpenBabel03272502583D

 32 34  0  0  1  0  0  0  0  0999 V2000
   35.8800   29.6450   48.7910 N   0  0  0  0  0  0  0  0  0  0  0  0
   36.6800   28.8800   49.7220 C   0  0  0  0  0  0  0  0  0  0  0  0
   37.2070   29.5680   50.9010 C   0  0  0  0  0  0  0  0  0  0  0  0
   37.3970   31.0330   50.8400 C   0  0  0  0  0  0  0  0  0  0  0  0
   36.5920   31.7170   49.7790 C   0  0  0  0  0  0  0  0  0  0  0  0
   36.5770   30.8730   48.4990 C   0  0  1  0  0  0  0  0  0  0  0  0
   36.0700   27.9890   50.0080 H   0  0  0  0  0  0  0  0  0  0  0  0
   37.5290   28.4550   49.1360 H   0  0  0  0  0  0  0  0  0  0  0  0
   36.5310   29.3310   51.7760 H   0  0  0  0  0  0  0  0  0  0  0  0
   38.1850   29.1070   51.1930 H   0  0  0  0  0  0  0  0  0  0  0  0
   37.1360   31.5040   51.8140 H   0  0  0  0  0  0  0  0  0  0  0  0
   38.4800   31.3010   50.6690 H   0  0  0  0  0  0  0  0  0  0  0  0
   35.5580   31.9290   50.1060 H   0  0  0  0  0  0  0  0  0  0  0  0
   37.0900   32.6770   49.4630 H   0  0  0  0  0  0  0  0  0  0  0  0
   36.1310   31.4550   47.6800 H   0  0  0  0  0  0  0  0  0  0  0  0
   34.6180   29.2370   48.2620 C   0  0  0  0  0  0  0  0  0  0  0  0
   34.0780   29.7090   47.0690 C   0  0  0  0  0  0  0  0  0  0  0  0
   32.8350   29.2220   46.6760 C   0  0  0  0  0  0  0  0  0  0  0  0
   32.2160   28.3120   47.4810 N   0  0  0  0  0  0  0  0  0  0  0  0
   32.7720   27.8840   48.6260 C   0  0  0  0  0  0  0  0  0  0  0  0
   33.9750   28.3540   49.0080 N   0  0  0  0  0  0  0  0  0  0  0  0
   34.6500   30.4250   46.5110 H   0  0  0  0  0  0  0  0  0  0  0  0
   32.4040   29.5800   45.7500 H   0  0  0  0  0  0  0  0  0  0  0  0
   32.2510   27.1600   49.2420 H   0  0  0  0  0  0  0  0  0  0  0  0
   37.9280   30.6490   48.2230 O   0  0  0  0  0  0  0  0  0  0  0  0
   38.6740   31.2820   47.2450 C   0  0  0  0  0  0  0  0  0  0  0  0
   38.9160   30.5410   46.1270 C   0  0  0  0  0  0  0  0  0  0  0  0
   39.6510   31.0090   45.0320 C   0  0  0  0  0  0  0  0  0  0  0  0
   39.8270   30.3960   44.1560 H   0  0  0  0  0  0  0  0  0  0  0  0
   40.1230   32.2810   45.1520 N   0  0  0  0  0  0  0  0  0  0  0  0
   39.8760   32.9860   46.2510 C   0  0  0  0  0  0  0  0  0  0  0  0
   39.1670   32.5310   47.3040 N   0  0  0  0  0  0  0  0  0  0  0  0
  1  2  1  0  0  0  0
  2  7  1  0  0  0  0
  2  3  1  0  0  0  0
  3 10  1  0  0  0  0
  3  9  1  0  0  0  0
  4  3  1  0  0  0  0
  4 11  1  0  0  0  0
  5 13  1  0  0  0  0
  5  4  1  0  0  0  0
  6 15  1  6  0  0  0
  6  1  1  0  0  0  0
  6  5  1  0  0  0  0
  8  2  1  0  0  0  0
 12  4  1  0  0  0  0
 14  5  1  0  0  0  0
 16  1  1  0  0  0  0
 16 21  1  0  0  0  0
 17 16  2  0  0  0  0
 18 17  1  0  0  0  0
 18 19  2  0  0  0  0
 19 20  1  0  0  0  0
 20 21  2  0  0  0  0
 20 24  1  0  0  0  0
 22 17  1  0  0  0  0
 23 18  1  0  0  0  0
 25  6  1  0  0  0  0
 26 32  1  0  0  0  0
 26 25  1  0  0  0  0
 27 26  2  0  0  0  0
 28 30  2  0  0  0  0
 28 27  1  0  0  0  0
 29 28  1  0  0  0  0
 30 31  1  0  0  0  0
 31 32  2  0  0  0  0
M  END
>  <minimizedAffinity>
-5.65847015

>  <minimizedRMSD>
0.771418571

$$$$
