
     RDKit          3D

 27 29  0  0  0  0  0  0  0  0999 V2000
   35.1921   30.4379   48.9778 C   0  0  0  0  0  0  0  0  0  0  0  0
   34.3285   30.1935   49.8640 O   0  0  0  0  0  0  0  0  0  0  0  0
   33.3242   30.0847   45.8882 C   0  0  0  0  0  0  0  0  0  0  0  0
   34.3111   30.0039   44.9126 C   0  0  0  0  0  0  0  0  0  0  0  0
   35.6440   30.0705   45.3086 C   0  0  0  0  0  0  0  0  0  0  0  0
   35.8912   30.2112   46.6337 N   0  0  0  0  0  0  0  0  0  0  0  0
   34.9146   30.2869   47.5584 C   0  0  0  0  0  0  0  0  0  0  0  0
   33.6374   30.2226   47.1741 N   0  0  0  0  0  0  0  0  0  0  0  0
   36.5188   30.8903   49.4284 C   0  0  0  0  0  0  0  0  0  0  0  0
   37.3144   30.2129   50.3248 C   0  0  0  0  0  0  0  0  0  0  0  0
   38.4443   31.0220   50.4287 C   0  0  0  0  0  0  0  0  0  0  0  0
   38.2798   32.1141   49.6148 C   0  0  0  0  0  0  0  0  0  0  0  0
   37.1107   32.0155   49.0198 O   0  0  0  0  0  0  0  0  0  0  0  0
   32.2737   30.0370   45.6220 H   0  0  0  0  0  0  0  0  0  0  0  0
   34.0024   29.8911   43.8710 H   0  0  0  0  0  0  0  0  0  0  0  0
   36.4227   30.0086   44.5570 H   0  0  0  0  0  0  0  0  0  0  0  0
   37.1334   29.2849   50.8352 H   0  0  0  0  0  0  0  0  0  0  0  0
   39.3223   30.8277   51.0528 H   0  0  0  0  0  0  0  0  0  0  0  0
   39.2065   33.2223   49.4066 C   0  0  0  0  0  0  0  0  0  0  0  0
   39.4498   33.6671   48.1227 C   0  0  0  0  0  0  0  0  0  0  0  0
   40.3444   34.7303   47.9742 C   0  0  0  0  0  0  0  0  0  0  0  0
   40.5069   35.0494   46.9408 H   0  0  0  0  0  0  0  0  0  0  0  0
   40.9333   35.2831   49.0515 N   0  0  0  0  0  0  0  0  0  0  0  0
   40.6801   34.8313   50.2973 C   0  0  0  0  0  0  0  0  0  0  0  0
   39.8137   33.7965   50.4820 N   0  0  0  0  0  0  0  0  0  0  0  0
   38.9726   33.2185   47.2557 H   0  0  0  0  0  0  0  0  0  0  0  0
   41.1863   35.3173   51.1368 H   0  0  0  0  0  0  0  0  0  0  0  0
  1  9  1  0
  1  2  2  0
  3  8  2  0
  4  5  2  0
  4  3  1  0
  5  6  1  0
  6  7  2  0
  7  1  1  0
  8  7  1  0
  9 10  2  0
 10 11  1  0
 12 11  2  0
 13  9  1  0
 13 12  1  0
  3 14  1  0
  4 15  1  0
  5 16  1  0
 10 17  1  0
 11 18  1  0
 19 20  2  0
 20 21  1  0
 21 22  1  0
 21 23  2  0
 23 24  1  0
 24 25  2  0
 25 19  1  0
 20 26  1  0
 24 27  1  0
 12 19  1  0
M  ISO  6  14  14  15  14  16  14  17  14  18  14  22  14
M  END
>  <DihAtoms>  (1) 
10,11,18,19

>  <DihDeg>  (1) 
-179.9988875214927

$$$$
