
 OpenBabel03262523233D

 31 33  0  0  1  0  0  0  0  0999 V2000
   37.0720   27.1110   34.4810 C   0  0  0  0  0  0  0  0  0  0  0  0
   38.0560   27.3620   33.5140 C   0  0  0  0  0  0  0  0  0  0  0  0
   39.1560   26.4880   33.4370 C   0  0  0  0  0  0  0  0  0  0  0  0
   39.1930   25.4490   34.3110 N   0  0  0  0  0  0  0  0  0  0  0  0
   38.2390   25.2350   35.2230 C   0  0  0  0  0  0  0  0  0  0  0  0
   37.1680   26.0630   35.3190 N   0  0  0  0  0  0  0  0  0  0  0  0
   38.3440   24.1110   36.1130 N   0  0  0  0  0  0  0  0  0  0  0  0
   38.0270   24.2850   37.5400 C   0  0  0  0  0  0  0  0  0  0  0  0
   38.8330   23.3890   38.4300 C   0  0  0  0  0  0  0  0  0  0  0  0
   40.0590   22.9470   37.6790 C   0  0  0  0  0  0  0  0  0  0  0  0
   39.5760   22.0340   36.5880 C   0  0  0  0  0  0  0  0  0  0  0  0
   38.7550   22.8350   35.6120 C   0  0  1  0  0  0  0  0  0  0  0  0
   36.2420   27.8050   34.5080 H   0  0  0  0  0  0  0  0  0  0  0  0
   38.0600   28.1700   32.8080 H   0  0  0  0  0  0  0  0  0  0  0  0
   39.9750   26.5770   32.7360 H   0  0  0  0  0  0  0  0  0  0  0  0
   38.2240   25.3300   37.7850 H   0  0  0  0  0  0  0  0  0  0  0  0
   36.9430   24.0490   37.6140 H   0  0  0  0  0  0  0  0  0  0  0  0
   39.1530   23.9580   39.3440 H   0  0  0  0  0  0  0  0  0  0  0  0
   38.2660   22.5170   38.8210 H   0  0  0  0  0  0  0  0  0  0  0  0
   40.7270   22.4660   38.3990 H   0  0  0  0  0  0  0  0  0  0  0  0
   40.5050   23.8610   37.2170 H   0  0  0  0  0  0  0  0  0  0  0  0
   38.9420   21.2330   37.0300 H   0  0  0  0  0  0  0  0  0  0  0  0
   40.4120   21.5120   36.0970 H   0  0  0  0  0  0  0  0  0  0  0  0
   39.4500   23.0470   34.7460 H   0  0  0  0  0  0  0  0  0  0  0  0
   37.6470   22.0360   35.0230 C   0  0  0  0  0  0  0  0  0  0  0  0
   36.7150   21.4740   35.8700 C   0  0  0  0  0  3  0  0  0  0  0  0
   35.6640   20.7220   35.3860 C   0  0  0  0  0  0  0  0  0  0  0  0
   34.8940   20.2500   35.9970 H   0  0  0  0  0  0  0  0  0  0  0  0
   35.5540   20.5390   34.0500 N   0  0  0  0  0  0  0  0  0  0  0  0
   36.4660   21.0880   33.2060 C   0  0  0  0  0  3  0  0  0  0  0  0
   37.4870   21.8210   33.7030 N   0  0  0  0  0  0  0  0  0  0  0  0
  1 13  1  0  0  0  0
  1  6  1  0  0  0  0
  2  1  2  0  0  0  0
  3  2  1  0  0  0  0
  3  4  2  0  0  0  0
  4  5  1  0  0  0  0
  5  6  2  0  0  0  0
  5  7  1  0  0  0  0
  7  8  1  0  0  0  0
  8 17  1  0  0  0  0
  8 16  1  0  0  0  0
  8  9  1  0  0  0  0
  9 19  1  0  0  0  0
  9 18  1  0  0  0  0
 10 20  1  0  0  0  0
 10  9  1  0  0  0  0
 11 22  1  0  0  0  0
 11 10  1  0  0  0  0
 12 24  1  6  0  0  0
 12  7  1  0  0  0  0
 12 11  1  0  0  0  0
 14  2  1  0  0  0  0
 15  3  1  0  0  0  0
 21 10  1  0  0  0  0
 23 11  1  0  0  0  0
 25 12  1  0  0  0  0
 25 26  1  0  0  0  0
 27 26  2  0  0  0  0
 27 28  1  0  0  0  0
 29 27  1  0  0  0  0
 30 31  1  0  0  0  0
 30 29  2  0  0  0  0
 31 25  2  0  0  0  0
M  END
>  <minimizedAffinity>
-5.1782918

$$$$

 OpenBabel03262523233D

 31 33  0  0  1  0  0  0  0  0999 V2000
   38.2070   22.9980   37.1060 C   0  0  0  0  0  0  0  0  0  0  0  0
   39.6010   22.9480   36.9540 C   0  0  0  0  0  0  0  0  0  0  0  0
   40.1240   22.4660   35.7410 C   0  0  0  0  0  0  0  0  0  0  0  0
   39.2380   22.0780   34.7860 N   0  0  0  0  0  0  0  0  0  0  0  0
   37.9140   22.1370   34.9600 C   0  0  0  0  0  0  0  0  0  0  0  0
   37.3820   22.5970   36.1210 N   0  0  0  0  0  0  0  0  0  0  0  0
   37.0370   21.7130   33.9030 N   0  0  0  0  0  0  0  0  0  0  0  0
   35.8600   20.8900   34.2250 C   0  0  0  0  0  0  0  0  0  0  0  0
   35.4960   19.9370   33.1270 C   0  0  0  0  0  0  0  0  0  0  0  0
   36.7010   19.7380   32.2490 C   0  0  0  0  0  0  0  0  0  0  0  0
   36.9220   21.0430   31.5370 C   0  0  0  0  0  0  0  0  0  0  0  0
   37.3120   22.0890   32.5490 C   0  0  1  0  0  0  0  0  0  0  0  0
   37.8440   23.3740   38.0530 H   0  0  0  0  0  0  0  0  0  0  0  0
   40.3290   23.2450   37.6840 H   0  0  0  0  0  0  0  0  0  0  0  0
   41.1770   22.3800   35.5060 H   0  0  0  0  0  0  0  0  0  0  0  0
   36.0970   20.3370   35.1350 H   0  0  0  0  0  0  0  0  0  0  0  0
   35.0460   21.6270   34.3980 H   0  0  0  0  0  0  0  0  0  0  0  0
   35.2030   18.9490   33.5700 H   0  0  0  0  0  0  0  0  0  0  0  0
   34.6140   20.2560   32.5310 H   0  0  0  0  0  0  0  0  0  0  0  0
   36.4830   18.8990   31.5820 H   0  0  0  0  0  0  0  0  0  0  0  0
   37.5680   19.5420   32.9250 H   0  0  0  0  0  0  0  0  0  0  0  0
   35.9800   21.3540   31.0340 H   0  0  0  0  0  0  0  0  0  0  0  0
   37.6690   20.9450   30.7330 H   0  0  0  0  0  0  0  0  0  0  0  0
   38.4360   22.1720   32.4680 H   0  0  0  0  0  0  0  0  0  0  0  0
   36.8030   23.4380   32.1860 C   0  0  0  0  0  0  0  0  0  0  0  0
   35.6650   23.5290   31.4120 C   0  0  0  0  0  3  0  0  0  0  0  0
   35.1430   24.7510   31.0400 C   0  0  0  0  0  0  0  0  0  0  0  0
   34.2500   24.8950   30.4320 H   0  0  0  0  0  0  0  0  0  0  0  0
   35.7680   25.8790   31.4510 N   0  0  0  0  0  0  0  0  0  0  0  0
   36.8890   25.8020   32.2150 C   0  0  0  0  0  3  0  0  0  0  0  0
   37.3820   24.5930   32.5650 N   0  0  0  0  0  0  0  0  0  0  0  0
  1 13  1  0  0  0  0
  2  1  1  0  0  0  0
  2 14  1  0  0  0  0
  3  2  2  0  0  0  0
  4  5  2  0  0  0  0
  4  3  1  0  0  0  0
  5  6  1  0  0  0  0
  6  1  2  0  0  0  0
  7  8  1  0  0  0  0
  7  5  1  0  0  0  0
  8 17  1  0  0  0  0
  8 16  1  0  0  0  0
  9 18  1  0  0  0  0
  9  8  1  0  0  0  0
 10 21  1  0  0  0  0
 10  9  1  0  0  0  0
 11 10  1  0  0  0  0
 11 12  1  0  0  0  0
 12 24  1  6  0  0  0
 12  7  1  0  0  0  0
 15  3  1  0  0  0  0
 19  9  1  0  0  0  0
 20 10  1  0  0  0  0
 22 11  1  0  0  0  0
 23 11  1  0  0  0  0
 25 12  1  0  0  0  0
 25 31  1  0  0  0  0
 26 25  2  0  0  0  0
 27 26  1  0  0  0  0
 27 29  2  0  0  0  0
 28 27  1  0  0  0  0
 29 30  1  0  0  0  0
 30 31  2  0  0  0  0
M  END
>  <minimizedAffinity>
-5.1269598

$$$$

 OpenBabel03262523233D

 31 33  0  0  1  0  0  0  0  0999 V2000
   42.3850   22.1970   35.7610 C   0  0  0  0  0  0  0  0  0  0  0  0
   41.9630   21.5500   36.9330 C   0  0  0  0  0  0  0  0  0  0  0  0
   40.7740   21.9850   37.5450 C   0  0  0  0  0  0  0  0  0  0  0  0
   40.1040   23.0100   36.9560 N   0  0  0  0  0  0  0  0  0  0  0  0
   40.5310   23.6070   35.8380 C   0  0  0  0  0  0  0  0  0  0  0  0
   41.6760   23.2080   35.2280 N   0  0  0  0  0  0  0  0  0  0  0  0
   39.7670   24.6840   35.2690 N   0  0  0  0  0  0  0  0  0  0  0  0
   40.4630   25.8820   34.7740 C   0  0  0  0  0  0  0  0  0  0  0  0
   39.6490   27.1320   34.9200 C   0  0  0  0  0  0  0  0  0  0  0  0
   38.5930   26.8940   35.9640 C   0  0  0  0  0  0  0  0  0  0  0  0
   37.6320   25.9030   35.3710 C   0  0  0  0  0  0  0  0  0  0  0  0
   38.3420   24.5870   35.1880 C   0  0  1  0  0  0  0  0  0  0  0  0
   43.3050   21.8330   35.3220 H   0  0  0  0  0  0  0  0  0  0  0  0
   42.4650   20.7400   37.4250 H   0  0  0  0  0  0  0  0  0  0  0  0
   40.3480   21.5670   38.4470 H   0  0  0  0  0  0  0  0  0  0  0  0
   41.3890   25.9720   35.3440 H   0  0  0  0  0  0  0  0  0  0  0  0
   40.6660   25.6620   33.7030 H   0  0  0  0  0  0  0  0  0  0  0  0
   40.3110   27.9730   35.2580 H   0  0  0  0  0  0  0  0  0  0  0  0
   39.1990   27.4870   33.9680 H   0  0  0  0  0  0  0  0  0  0  0  0
   38.1440   27.8630   36.2000 H   0  0  0  0  0  0  0  0  0  0  0  0
   39.1020   26.4260   36.8410 H   0  0  0  0  0  0  0  0  0  0  0  0
   37.2840   26.2720   34.3810 H   0  0  0  0  0  0  0  0  0  0  0  0
   36.7230   25.8020   35.9850 H   0  0  0  0  0  0  0  0  0  0  0  0
   38.0190   23.9540   36.0680 H   0  0  0  0  0  0  0  0  0  0  0  0
   37.8570   23.8500   33.9910 C   0  0  0  0  0  0  0  0  0  0  0  0
   37.4740   24.5720   32.8810 C   0  0  0  0  0  3  0  0  0  0  0  0
   37.0150   23.9470   31.7390 C   0  0  0  0  0  0  0  0  0  0  0  0
   36.6970   24.4550   30.8280 H   0  0  0  0  0  0  0  0  0  0  0  0
   36.9440   22.5960   31.7190 N   0  0  0  0  0  0  0  0  0  0  0  0
   37.3190   21.8740   32.8070 C   0  0  0  0  0  3  0  0  0  0  0  0
   37.7650   22.5080   33.9140 N   0  0  0  0  0  0  0  0  0  0  0  0
  1  2  1  0  0  0  0
  2 14  1  0  0  0  0
  2  3  2  0  0  0  0
  3 15  1  0  0  0  0
  4  3  1  0  0  0  0
  5  4  2  0  0  0  0
  6  1  2  0  0  0  0
  6  5  1  0  0  0  0
  7  5  1  0  0  0  0
  8  9  1  0  0  0  0
  8  7  1  0  0  0  0
  8 16  1  0  0  0  0
  9 18  1  0  0  0  0
  9 10  1  0  0  0  0
 10 20  1  0  0  0  0
 10 21  1  0  0  0  0
 11 10  1  0  0  0  0
 11 23  1  0  0  0  0
 12  7  1  0  0  0  0
 12 11  1  0  0  0  0
 12 24  1  1  0  0  0
 13  1  1  0  0  0  0
 17  8  1  0  0  0  0
 19  9  1  0  0  0  0
 22 11  1  0  0  0  0
 25 12  1  0  0  0  0
 26 25  2  0  0  0  0
 27 26  1  0  0  0  0
 28 27  1  0  0  0  0
 29 27  2  0  0  0  0
 29 30  1  0  0  0  0
 30 31  2  0  0  0  0
 31 25  1  0  0  0  0
M  END
>  <minimizedAffinity>
-4.73122311

$$$$

 OpenBabel03262523233D

 31 33  0  0  1  0  0  0  0  0999 V2000
   35.7270   29.4040   31.1410 C   0  0  0  0  0  0  0  0  0  0  0  0
   36.6450   29.6900   30.1190 C   0  0  0  0  0  0  0  0  0  0  0  0
   37.9250   29.1110   30.1890 C   0  0  0  0  0  0  0  0  0  0  0  0
   38.1920   28.3060   31.2510 N   0  0  0  0  0  0  0  0  0  0  0  0
   37.2960   28.0520   32.2110 C   0  0  0  0  0  0  0  0  0  0  0  0
   36.0530   28.5980   32.1670 N   0  0  0  0  0  0  0  0  0  0  0  0
   37.6480   27.1870   33.3030 N   0  0  0  0  0  0  0  0  0  0  0  0
   37.2630   27.5580   34.6730 C   0  0  0  0  0  0  0  0  0  0  0  0
   38.2400   27.0790   35.7040 C   0  0  0  0  0  0  0  0  0  0  0  0
   39.5540   26.8070   35.0250 C   0  0  0  0  0  0  0  0  0  0  0  0
   39.3340   25.6060   34.1490 C   0  0  0  0  0  0  0  0  0  0  0  0
   38.3670   25.9750   33.0530 C   0  0  1  0  0  0  0  0  0  0  0  0
   34.7540   29.8680   31.0500 H   0  0  0  0  0  0  0  0  0  0  0  0
   36.4700   30.3190   29.2670 H   0  0  0  0  0  0  0  0  0  0  0  0
   38.7150   29.2550   29.4640 H   0  0  0  0  0  0  0  0  0  0  0  0
   37.1950   28.6470   34.7020 H   0  0  0  0  0  0  0  0  0  0  0  0
   36.2670   27.0860   34.8200 H   0  0  0  0  0  0  0  0  0  0  0  0
   38.3900   27.8770   36.4780 H   0  0  0  0  0  0  0  0  0  0  0  0
   37.8910   26.1900   36.2730 H   0  0  0  0  0  0  0  0  0  0  0  0
   40.3010   26.6540   35.8090 H   0  0  0  0  0  0  0  0  0  0  0  0
   39.7770   27.6910   34.3800 H   0  0  0  0  0  0  0  0  0  0  0  0
   38.9020   24.7800   34.7550 H   0  0  0  0  0  0  0  0  0  0  0  0
   40.2840   25.2160   33.7500 H   0  0  0  0  0  0  0  0  0  0  0  0
   39.0120   26.1730   32.1460 H   0  0  0  0  0  0  0  0  0  0  0  0
   37.5010   24.8320   32.6620 C   0  0  0  0  0  0  0  0  0  0  0  0
   37.8110   23.5750   33.1360 C   0  0  0  0  0  3  0  0  0  0  0  0
   37.0470   22.4730   32.8090 C   0  0  0  0  0  0  0  0  0  0  0  0
   37.2350   21.4540   33.1480 H   0  0  0  0  0  0  0  0  0  0  0  0
   35.9710   22.6410   32.0060 N   0  0  0  0  0  0  0  0  0  0  0  0
   35.6550   23.8750   31.5330 C   0  0  0  0  0  3  0  0  0  0  0  0
   36.4190   24.9390   31.8670 N   0  0  0  0  0  0  0  0  0  0  0  0
  1  6  1  0  0  0  0
  2  3  1  0  0  0  0
  2  1  2  0  0  0  0
  3  4  2  0  0  0  0
  4  5  1  0  0  0  0
  5  7  1  0  0  0  0
  6  5  2  0  0  0  0
  7  8  1  0  0  0  0
  8 16  1  0  0  0  0
  8 17  1  0  0  0  0
  8  9  1  0  0  0  0
  9 19  1  0  0  0  0
  9 18  1  0  0  0  0
 10  9  1  0  0  0  0
 10 20  1  0  0  0  0
 11 22  1  0  0  0  0
 11 10  1  0  0  0  0
 12 24  1  6  0  0  0
 12  7  1  0  0  0  0
 12 11  1  0  0  0  0
 13  1  1  0  0  0  0
 14  2  1  0  0  0  0
 15  3  1  0  0  0  0
 21 10  1  0  0  0  0
 23 11  1  0  0  0  0
 25 12  1  0  0  0  0
 25 26  1  0  0  0  0
 27 26  2  0  0  0  0
 27 28  1  0  0  0  0
 29 27  1  0  0  0  0
 30 31  1  0  0  0  0
 30 29  2  0  0  0  0
 31 25  2  0  0  0  0
M  END
>  <minimizedAffinity>
-4.70873404

$$$$

 OpenBabel03262523233D

 31 33  0  0  1  0  0  0  0  0999 V2000
   38.3650   20.5970   32.4000 C   0  0  0  0  0  0  0  0  0  0  0  0
   36.9860   20.3340   32.3970 C   0  0  0  0  0  0  0  0  0  0  0  0
   36.1950   20.9040   33.4110 C   0  0  0  0  0  0  0  0  0  0  0  0
   36.8210   21.6790   34.3340 N   0  0  0  0  0  0  0  0  0  0  0  0
   38.1380   21.9130   34.3110 C   0  0  0  0  0  0  0  0  0  0  0  0
   38.9250   21.3750   33.3450 N   0  0  0  0  0  0  0  0  0  0  0  0
   38.7310   22.7480   35.3200 N   0  0  0  0  0  0  0  0  0  0  0  0
   40.0030   22.3430   35.9380 C   0  0  0  0  0  0  0  0  0  0  0  0
   40.1270   22.7900   37.3640 C   0  0  0  0  0  0  0  0  0  0  0  0
   38.7500   23.0720   37.8970 C   0  0  0  0  0  0  0  0  0  0  0  0
   38.2620   24.2970   37.1740 C   0  0  0  0  0  0  0  0  0  0  0  0
   38.0850   23.9620   35.7160 C   0  0  1  0  0  0  0  0  0  0  0  0
   38.9380   20.1410   31.6050 H   0  0  0  0  0  0  0  0  0  0  0  0
   36.4590   19.7280   31.6860 H   0  0  0  0  0  0  0  0  0  0  0  0
   35.1260   20.7740   33.5140 H   0  0  0  0  0  0  0  0  0  0  0  0
   40.0520   21.2540   35.8840 H   0  0  0  0  0  0  0  0  0  0  0  0
   40.7830   22.8160   35.3040 H   0  0  0  0  0  0  0  0  0  0  0  0
   40.5910   21.9710   37.9750 H   0  0  0  0  0  0  0  0  0  0  0  0
   40.7980   23.6650   37.5020 H   0  0  0  0  0  0  0  0  0  0  0  0
   38.8380   23.2010   38.9800 H   0  0  0  0  0  0  0  0  0  0  0  0
   38.1060   22.2040   37.6140 H   0  0  0  0  0  0  0  0  0  0  0  0
   39.0150   25.1090   37.2740 H   0  0  0  0  0  0  0  0  0  0  0  0
   37.3380   24.6920   37.6240 H   0  0  0  0  0  0  0  0  0  0  0  0
   36.9760   23.7840   35.5880 H   0  0  0  0  0  0  0  0  0  0  0  0
   38.3890   25.1190   34.8340 C   0  0  0  0  0  0  0  0  0  0  0  0
   39.4980   25.8900   35.1130 C   0  0  0  0  0  3  0  0  0  0  0  0
   39.8340   26.9780   34.3330 C   0  0  0  0  0  0  0  0  0  0  0  0
   40.6940   27.6270   34.4970 H   0  0  0  0  0  0  0  0  0  0  0  0
   39.0520   27.2850   33.2730 N   0  0  0  0  0  0  0  0  0  0  0  0
   37.9570   26.5340   32.9870 C   0  0  0  0  0  3  0  0  0  0  0  0
   37.6480   25.4730   33.7660 N   0  0  0  0  0  0  0  0  0  0  0  0
  1  6  1  0  0  0  0
  2  1  2  0  0  0  0
  2  3  1  0  0  0  0
  3 15  1  0  0  0  0
  3  4  2  0  0  0  0
  5  4  1  0  0  0  0
  5  7  1  0  0  0  0
  6  5  2  0  0  0  0
  7 12  1  0  0  0  0
  7  8  1  0  0  0  0
  8  9  1  0  0  0  0
  9 19  1  0  0  0  0
  9 10  1  0  0  0  0
  9 18  1  0  0  0  0
 10 20  1  0  0  0  0
 11 22  1  0  0  0  0
 11 23  1  0  0  0  0
 11 10  1  0  0  0  0
 12 24  1  6  0  0  0
 12 11  1  0  0  0  0
 13  1  1  0  0  0  0
 14  2  1  0  0  0  0
 16  8  1  0  0  0  0
 17  8  1  0  0  0  0
 21 10  1  0  0  0  0
 25 26  1  0  0  0  0
 25 12  1  0  0  0  0
 27 28  1  0  0  0  0
 27 26  2  0  0  0  0
 29 27  1  0  0  0  0
 30 29  2  0  0  0  0
 30 31  1  0  0  0  0
 31 25  2  0  0  0  0
M  END
>  <minimizedAffinity>
-4.65408754

$$$$

 OpenBabel03262523233D

 31 33  0  0  1  0  0  0  0  0999 V2000
   35.5830   22.1570   31.5520 C   0  0  0  0  0  0  0  0  0  0  0  0
   36.6440   21.3770   31.0670 C   0  0  0  0  0  0  0  0  0  0  0  0
   37.8580   22.0170   30.7580 C   0  0  0  0  0  0  0  0  0  0  0  0
   37.9260   23.3600   30.9520 N   0  0  0  0  0  0  0  0  0  0  0  0
   36.8970   24.0780   31.4170 C   0  0  0  0  0  0  0  0  0  0  0  0
   35.7140   23.4850   31.7220 N   0  0  0  0  0  0  0  0  0  0  0  0
   37.0440   25.4960   31.6010 N   0  0  0  0  0  0  0  0  0  0  0  0
   35.9590   26.3960   31.1800 C   0  0  0  0  0  0  0  0  0  0  0  0
   36.4560   27.7330   30.7200 C   0  0  0  0  0  0  0  0  0  0  0  0
   37.9070   27.6010   30.3480 C   0  0  0  0  0  0  0  0  0  0  0  0
   38.6500   27.3610   31.6320 C   0  0  0  0  0  0  0  0  0  0  0  0
   38.2380   26.0230   32.1890 C   0  0  1  0  0  0  0  0  0  0  0  0
   34.6670   21.6280   31.7780 H   0  0  0  0  0  0  0  0  0  0  0  0
   36.6260   20.3170   30.9020 H   0  0  0  0  0  0  0  0  0  0  0  0
   38.7430   21.5250   30.3790 H   0  0  0  0  0  0  0  0  0  0  0  0
   35.4270   25.8970   30.3680 H   0  0  0  0  0  0  0  0  0  0  0  0
   35.3180   26.4990   32.0810 H   0  0  0  0  0  0  0  0  0  0  0  0
   35.8780   28.0570   29.8140 H   0  0  0  0  0  0  0  0  0  0  0  0
   36.3050   28.5470   31.4610 H   0  0  0  0  0  0  0  0  0  0  0  0
   38.1970   28.5210   29.8320 H   0  0  0  0  0  0  0  0  0  0  0  0
   37.9970   26.6940   29.7020 H   0  0  0  0  0  0  0  0  0  0  0  0
   38.3900   28.1570   32.3640 H   0  0  0  0  0  0  0  0  0  0  0  0
   39.7400   27.4330   31.4900 H   0  0  0  0  0  0  0  0  0  0  0  0
   39.0700   25.3150   31.8980 H   0  0  0  0  0  0  0  0  0  0  0  0
   38.2300   26.0120   33.6760 C   0  0  0  0  0  0  0  0  0  0  0  0
   38.2580   27.2170   34.3450 C   0  0  0  0  0  3  0  0  0  0  0  0
   38.2530   27.2750   35.7240 C   0  0  0  0  0  0  0  0  0  0  0  0
   38.2740   28.1900   36.3160 H   0  0  0  0  0  0  0  0  0  0  0  0
   38.2190   26.1180   36.4250 N   0  0  0  0  0  0  0  0  0  0  0  0
   38.1900   24.9250   35.7760 C   0  0  0  0  0  3  0  0  0  0  0  0
   38.1960   24.8930   34.4250 N   0  0  0  0  0  0  0  0  0  0  0  0
  1  6  1  0  0  0  0
  1 13  1  0  0  0  0
  2  1  2  0  0  0  0
  3  4  2  0  0  0  0
  3  2  1  0  0  0  0
  4  5  1  0  0  0  0
  5  7  1  0  0  0  0
  5  6  2  0  0  0  0
  7 12  1  0  0  0  0
  8  7  1  0  0  0  0
  8 17  1  0  0  0  0
  9  8  1  0  0  0  0
  9 19  1  0  0  0  0
 10  9  1  0  0  0  0
 10 11  1  0  0  0  0
 11 12  1  0  0  0  0
 11 22  1  0  0  0  0
 12 24  1  6  0  0  0
 12 25  1  0  0  0  0
 14  2  1  0  0  0  0
 15  3  1  0  0  0  0
 16  8  1  0  0  0  0
 18  9  1  0  0  0  0
 20 10  1  0  0  0  0
 21 10  1  0  0  0  0
 23 11  1  0  0  0  0
 25 26  2  0  0  0  0
 25 31  1  0  0  0  0
 26 27  1  0  0  0  0
 27 28  1  0  0  0  0
 27 29  2  0  0  0  0
 30 29  1  0  0  0  0
 31 30  2  0  0  0  0
M  END
>  <minimizedAffinity>
-4.64045954

$$$$

 OpenBabel03262523233D

 31 33  0  0  1  0  0  0  0  0999 V2000
   36.8730   21.8420   32.0080 C   0  0  0  0  0  0  0  0  0  0  0  0
   37.9830   21.2080   31.4290 C   0  0  0  0  0  0  0  0  0  0  0  0
   39.2490   21.8010   31.5850 C   0  0  0  0  0  0  0  0  0  0  0  0
   39.3160   22.9580   32.2940 N   0  0  0  0  0  0  0  0  0  0  0  0
   38.2400   23.5390   32.8360 C   0  0  0  0  0  0  0  0  0  0  0  0
   37.0070   22.9890   32.6990 N   0  0  0  0  0  0  0  0  0  0  0  0
   38.3890   24.7620   33.5770 N   0  0  0  0  0  0  0  0  0  0  0  0
   37.4210   25.8520   33.3760 C   0  0  0  0  0  0  0  0  0  0  0  0
   38.0270   27.2110   33.5550 C   0  0  0  0  0  0  0  0  0  0  0  0
   39.5170   27.0940   33.3910 C   0  0  0  0  0  0  0  0  0  0  0  0
   40.0110   26.3180   34.5790 C   0  0  0  0  0  0  0  0  0  0  0  0
   39.4710   24.9130   34.5010 C   0  0  1  0  0  0  0  0  0  0  0  0
   35.9180   21.3550   31.8660 H   0  0  0  0  0  0  0  0  0  0  0  0
   37.9680   20.2960   30.8640 H   0  0  0  0  0  0  0  0  0  0  0  0
   40.1750   21.4080   31.1870 H   0  0  0  0  0  0  0  0  0  0  0  0
   37.0300   25.7490   32.3620 H   0  0  0  0  0  0  0  0  0  0  0  0
   36.6310   25.6660   34.1360 H   0  0  0  0  0  0  0  0  0  0  0  0
   37.6290   27.9060   32.7690 H   0  0  0  0  0  0  0  0  0  0  0  0
   37.7660   27.6940   34.5220 H   0  0  0  0  0  0  0  0  0  0  0  0
   39.9190   28.1090   33.3250 H   0  0  0  0  0  0  0  0  0  0  0  0
   39.6970   26.4950   32.4660 H   0  0  0  0  0  0  0  0  0  0  0  0
   39.6450   26.7990   35.5130 H   0  0  0  0  0  0  0  0  0  0  0  0
   41.1100   26.3360   34.6480 H   0  0  0  0  0  0  0  0  0  0  0  0
   40.3230   24.2930   34.0910 H   0  0  0  0  0  0  0  0  0  0  0  0
   39.1970   24.3420   35.8460 C   0  0  0  0  0  0  0  0  0  0  0  0
   40.0170   23.3400   36.3180 C   0  0  0  0  0  3  0  0  0  0  0  0
   39.8150   22.7670   37.5580 C   0  0  0  0  0  0  0  0  0  0  0  0
   40.4230   21.9740   37.9910 H   0  0  0  0  0  0  0  0  0  0  0  0
   38.7870   23.2090   38.3190 N   0  0  0  0  0  0  0  0  0  0  0  0
   37.9720   24.1960   37.8650 C   0  0  0  0  0  3  0  0  0  0  0  0
   38.1900   24.7400   36.6470 N   0  0  0  0  0  0  0  0  0  0  0  0
  1  6  1  0  0  0  0
  2  3  1  0  0  0  0
  2  1  2  0  0  0  0
  3  4  2  0  0  0  0
  4  5  1  0  0  0  0
  5  7  1  0  0  0  0
  6  5  2  0  0  0  0
  7 12  1  0  0  0  0
  8  9  1  0  0  0  0
  8  7  1  0  0  0  0
  8 17  1  0  0  0  0
  9 19  1  0  0  0  0
 10  9  1  0  0  0  0
 10 11  1  0  0  0  0
 11 23  1  0  0  0  0
 11 22  1  0  0  0  0
 12 24  1  6  0  0  0
 12 11  1  0  0  0  0
 12 25  1  0  0  0  0
 13  1  1  0  0  0  0
 14  2  1  0  0  0  0
 15  3  1  0  0  0  0
 16  8  1  0  0  0  0
 18  9  1  0  0  0  0
 20 10  1  0  0  0  0
 21 10  1  0  0  0  0
 25 26  2  0  0  0  0
 25 31  1  0  0  0  0
 26 27  1  0  0  0  0
 27 28  1  0  0  0  0
 27 29  2  0  0  0  0
 30 29  1  0  0  0  0
 31 30  2  0  0  0  0
M  END
>  <minimizedAffinity>
-4.58910942

$$$$

 OpenBabel03262523233D

 31 33  0  0  1  0  0  0  0  0999 V2000
   38.1300   26.3240   36.1620 C   0  0  0  0  0  0  0  0  0  0  0  0
   38.8480   27.2380   35.3760 C   0  0  0  0  0  0  0  0  0  0  0  0
   40.0270   26.7990   34.7470 C   0  0  0  0  0  0  0  0  0  0  0  0
   40.3970   25.5060   34.9430 N   0  0  0  0  0  0  0  0  0  0  0  0
   39.6920   24.6570   35.6980 C   0  0  0  0  0  0  0  0  0  0  0  0
   38.5510   25.0550   36.3170 N   0  0  0  0  0  0  0  0  0  0  0  0
   40.1430   23.3010   35.8560 N   0  0  0  0  0  0  0  0  0  0  0  0
   40.1020   22.6750   37.1870 C   0  0  0  0  0  0  0  0  0  0  0  0
   41.1980   21.6740   37.3950 C   0  0  0  0  0  0  0  0  0  0  0  0
   42.2960   21.9570   36.4080 C   0  0  0  0  0  0  0  0  0  0  0  0
   41.7420   21.6110   35.0540 C   0  0  0  0  0  0  0  0  0  0  0  0
   40.6290   22.5710   34.7250 C   0  0  1  0  0  0  0  0  0  0  0  0
   37.2300   26.7000   36.6290 H   0  0  0  0  0  0  0  0  0  0  0  0
   38.5860   28.2640   35.2000 H   0  0  0  0  0  0  0  0  0  0  0  0
   40.6620   27.4080   34.1190 H   0  0  0  0  0  0  0  0  0  0  0  0
   40.1870   23.4780   37.9210 H   0  0  0  0  0  0  0  0  0  0  0  0
   39.1040   22.1870   37.2340 H   0  0  0  0  0  0  0  0  0  0  0  0
   41.6080   21.7790   38.4350 H   0  0  0  0  0  0  0  0  0  0  0  0
   40.8590   20.6180   37.3270 H   0  0  0  0  0  0  0  0  0  0  0  0
   43.1610   21.3550   36.7010 H   0  0  0  0  0  0  0  0  0  0  0  0
   42.4960   23.0540   36.4480 H   0  0  0  0  0  0  0  0  0  0  0  0
   41.3390   20.5750   35.0730 H   0  0  0  0  0  0  0  0  0  0  0  0
   42.5290   21.6090   34.2830 H   0  0  0  0  0  0  0  0  0  0  0  0
   41.0930   23.3350   34.0340 H   0  0  0  0  0  0  0  0  0  0  0  0
   39.5560   21.9300   33.9190 C   0  0  0  0  0  0  0  0  0  0  0  0
   39.9160   21.1560   32.8360 C   0  0  0  0  0  3  0  0  0  0  0  0
   38.9690   20.5350   32.0470 C   0  0  0  0  0  0  0  0  0  0  0  0
   39.1830   19.9120   31.1800 H   0  0  0  0  0  0  0  0  0  0  0  0
   37.6600   20.6950   32.3540 N   0  0  0  0  0  0  0  0  0  0  0  0
   37.2930   21.4540   33.4190 C   0  0  0  0  0  3  0  0  0  0  0  0
   38.2400   22.0530   34.1760 N   0  0  0  0  0  0  0  0  0  0  0  0
  1  6  1  0  0  0  0
  1 13  1  0  0  0  0
  2  1  2  0  0  0  0
  3  4  2  0  0  0  0
  3  2  1  0  0  0  0
  4  5  1  0  0  0  0
  5  7  1  0  0  0  0
  5  6  2  0  0  0  0
  7  8  1  0  0  0  0
  8 17  1  0  0  0  0
  8  9  1  0  0  0  0
  8 16  1  0  0  0  0
  9 18  1  0  0  0  0
 10 21  1  0  0  0  0
 10 20  1  0  0  0  0
 10  9  1  0  0  0  0
 11 22  1  0  0  0  0
 11 10  1  0  0  0  0
 12 24  1  6  0  0  0
 12 11  1  0  0  0  0
 12  7  1  0  0  0  0
 14  2  1  0  0  0  0
 15  3  1  0  0  0  0
 19  9  1  0  0  0  0
 23 11  1  0  0  0  0
 25 31  1  0  0  0  0
 25 12  1  0  0  0  0
 26 25  2  0  0  0  0
 27 29  2  0  0  0  0
 27 26  1  0  0  0  0
 28 27  1  0  0  0  0
 29 30  1  0  0  0  0
 30 31  2  0  0  0  0
M  END
>  <minimizedAffinity>
-4.56201315

$$$$

 OpenBabel03262523233D

 31 33  0  0  1  0  0  0  0  0999 V2000
   36.2340   25.9890   32.0660 C   0  0  0  0  0  0  0  0  0  0  0  0
   36.2070   24.9160   31.1610 C   0  0  0  0  0  0  0  0  0  0  0  0
   37.3300   24.0730   31.0910 C   0  0  0  0  0  0  0  0  0  0  0  0
   38.3770   24.3520   31.9120 N   0  0  0  0  0  0  0  0  0  0  0  0
   38.3730   25.3820   32.7650 C   0  0  0  0  0  0  0  0  0  0  0  0
   37.3020   26.2120   32.8520 N   0  0  0  0  0  0  0  0  0  0  0  0
   39.5150   25.6140   33.6060 N   0  0  0  0  0  0  0  0  0  0  0  0
   40.0140   26.9870   33.7870 C   0  0  0  0  0  0  0  0  0  0  0  0
   41.4970   27.0460   33.9970 C   0  0  0  0  0  0  0  0  0  0  0  0
   42.1040   25.7750   33.4710 C   0  0  0  0  0  0  0  0  0  0  0  0
   41.6510   24.6790   34.3950 C   0  0  0  0  0  0  0  0  0  0  0  0
   40.1590   24.5160   34.2590 C   0  0  1  0  0  0  0  0  0  0  0  0
   35.3510   26.6140   32.0900 H   0  0  0  0  0  0  0  0  0  0  0  0
   35.4000   24.6660   30.4990 H   0  0  0  0  0  0  0  0  0  0  0  0
   37.4280   23.2170   30.4360 H   0  0  0  0  0  0  0  0  0  0  0  0
   39.7420   27.5460   32.8900 H   0  0  0  0  0  0  0  0  0  0  0  0
   39.4700   27.3640   34.6800 H   0  0  0  0  0  0  0  0  0  0  0  0
   41.9220   27.9140   33.4270 H   0  0  0  0  0  0  0  0  0  0  0  0
   41.7930   27.2250   35.0530 H   0  0  0  0  0  0  0  0  0  0  0  0
   43.1890   25.9170   33.4470 H   0  0  0  0  0  0  0  0  0  0  0  0
   41.6670   25.6000   32.4580 H   0  0  0  0  0  0  0  0  0  0  0  0
   41.8960   24.9560   35.4440 H   0  0  0  0  0  0  0  0  0  0  0  0
   42.1910   23.7380   34.2020 H   0  0  0  0  0  0  0  0  0  0  0  0
   40.0220   23.6220   33.5810 H   0  0  0  0  0  0  0  0  0  0  0  0
   39.5200   24.1220   35.5420 C   0  0  0  0  0  0  0  0  0  0  0  0
   40.1860   23.2430   36.3700 C   0  0  0  0  0  3  0  0  0  0  0  0
   39.6460   22.8380   37.5740 C   0  0  0  0  0  0  0  0  0  0  0  0
   40.1170   22.1480   38.2750 H   0  0  0  0  0  0  0  0  0  0  0  0
   38.4370   23.3210   37.9410 N   0  0  0  0  0  0  0  0  0  0  0  0
   37.7710   24.1880   37.1340 C   0  0  0  0  0  3  0  0  0  0  0  0
   38.3200   24.5690   35.9600 N   0  0  0  0  0  0  0  0  0  0  0  0
  1 13  1  0  0  0  0
  1  6  1  0  0  0  0
  2  1  2  0  0  0  0
  3  2  1  0  0  0  0
  3  4  2  0  0  0  0
  4  5  1  0  0  0  0
  5  6  2  0  0  0  0
  5  7  1  0  0  0  0
  7  8  1  0  0  0  0
  7 12  1  0  0  0  0
  8  9  1  0  0  0  0
  8 17  1  0  0  0  0
  9 19  1  0  0  0  0
 10  9  1  0  0  0  0
 10 11  1  0  0  0  0
 11 22  1  0  0  0  0
 12 24  1  6  0  0  0
 12 11  1  0  0  0  0
 12 25  1  0  0  0  0
 14  2  1  0  0  0  0
 15  3  1  0  0  0  0
 16  8  1  0  0  0  0
 18  9  1  0  0  0  0
 20 10  1  0  0  0  0
 21 10  1  0  0  0  0
 23 11  1  0  0  0  0
 25 31  2  0  0  0  0
 25 26  1  0  0  0  0
 26 27  2  0  0  0  0
 27 29  1  0  0  0  0
 27 28  1  0  0  0  0
 30 29  2  0  0  0  0
 31 30  1  0  0  0  0
M  END
>  <minimizedAffinity>
-4.53825521

$$$$
