
     RDKit          3D

 33 35  0  0  0  0  0  0  0  0999 V2000
   35.2080   29.2830   48.3888 C   0  0  0  0  0  0  0  0  0  0  0  0
   34.6410   29.8401   47.2410 C   0  0  0  0  0  0  0  0  0  0  0  0
   33.3589   29.4349   46.8700 C   0  0  0  0  0  0  0  0  0  0  0  0
   32.7188   28.5131   47.6460 N   0  0  0  0  0  0  0  0  0  0  0  0
   33.3031   28.0027   48.7436 C   0  0  0  0  0  0  0  0  0  0  0  0
   34.5346   28.3815   49.1140 N   0  0  0  0  0  0  0  0  0  0  0  0
   36.4994   29.5994   48.8851 N   0  0  0  0  0  0  0  0  0  0  0  0
   36.9972   29.2950   50.1975 C   0  0  0  0  0  0  0  0  0  0  0  0
   37.6350   30.3863   50.9614 C   0  0  0  0  0  0  0  0  0  0  0  0
   38.3354   31.4403   50.1841 C   0  0  0  0  0  0  0  0  0  0  0  0
   37.7877   31.6518   48.8103 C   0  0  0  0  0  0  0  0  0  0  0  0
   37.5390   30.2810   48.1623 C   0  0  0  0  0  0  0  0  0  0  0  0
   35.2326   30.5632   46.6960 H   0  0  0  0  0  0  0  0  0  0  0  0
   32.9267   29.8720   45.9785 H   0  0  0  0  0  0  0  0  0  0  0  0
   32.7694   27.2631   49.3520 H   0  0  0  0  0  0  0  0  0  0  0  0
   37.6906   28.4152   50.0613 H   0  0  0  0  0  0  0  0  0  0  0  0
   36.1488   28.8887   50.7887 H   0  0  0  0  0  0  0  0  0  0  0  0
   38.3379   29.9462   51.6993 H   0  0  0  0  0  0  0  0  0  0  0  0
   36.8488   30.8997   51.5690 H   0  0  0  0  0  0  0  0  0  0  0  0
   39.4124   31.1474   50.0844 H   0  0  0  0  0  0  0  0  0  0  0  0
   36.8319   32.1815   48.7760 H   0  0  0  0  0  0  0  0  0  0  0  0
   38.5571   32.1601   48.1893 H   0  0  0  0  0  0  0  0  0  0  0  0
   38.5017   29.7380   48.1668 H   0  0  0  0  0  0  0  0  0  0  0  0
   37.2568   30.5336   47.1161 H   0  0  0  0  0  0  0  0  0  0  0  0
   38.3275   32.7141   50.9520 C   0  0  0  0  0  0  0  0  0  0  0  0
   37.1510   33.4656   50.9467 C   0  0  0  0  0  0  0  0  0  0  0  0
   37.1961   34.6516   51.6821 C   0  0  0  0  0  0  0  0  0  0  0  0
   36.2737   35.2457   51.6810 H   0  0  0  0  0  0  0  0  0  0  0  0
   38.2608   35.1036   52.3720 N   0  0  0  0  0  0  0  0  0  0  0  0
   39.3698   34.3244   52.3341 C   0  0  0  0  0  0  0  0  0  0  0  0
   39.4134   33.1605   51.6467 N   0  0  0  0  0  0  0  0  0  0  0  0
   36.2835   33.1526   50.4182 H   0  0  0  0  0  0  0  0  0  0  0  0
   40.3146   34.5344   52.8306 H   0  0  0  0  0  0  0  0  0  0  0  0
  1  7  1  0
  1  6  1  0
  2  1  2  0
  3  2  1  0
  3  4  2  0
  4  5  1  0
  5  6  2  0
  7  8  1  0
  8  9  1  0
 10  9  1  0
 11 10  1  0
 12 11  1  0
 12  7  1  0
  2 13  1  0
  3 14  1  0
  5 15  1  0
  8 16  1  0
  8 17  1  0
  9 18  1  0
  9 19  1  0
 10 20  1  0
 11 21  1  0
 11 22  1  0
 12 23  1  0
 12 24  1  0
 25 26  2  0
 26 27  1  0
 27 28  1  0
 27 29  2  0
 29 30  1  0
 30 31  2  0
 31 25  1  0
 26 32  1  0
 30 33  1  0
 10 25  1  0
M  ISO  8  13  14  14  14  15  14  16  13  17  13  18  13  19  13  20  13
M  ISO  5  21  13  22  13  23  13  24  13  28  14
M  END
>  <DihAtoms>  (1) 
8,9,24,25

>  <DihDeg>  (1) 
-63.33913956110501

$$$$
