
 OpenBabel03262523413D

 30 32  0  0  1  0  0  0  0  0999 V2000
   40.0530   22.7540   37.7790 C   0  0  0  0  0  0  0  0  0  0  0  0
   39.7490   22.7150   36.4150 C   0  0  0  0  0  0  0  0  0  0  0  0
   38.4560   23.0110   35.9810 C   0  0  0  0  0  0  0  0  0  0  0  0
   37.5490   23.3250   36.9340 N   0  0  0  0  0  0  0  0  0  0  0  0
   37.8340   23.3650   38.2510 C   0  0  0  0  0  0  0  0  0  0  0  0
   39.0940   23.0770   38.6680 N   0  0  0  0  0  0  0  0  0  0  0  0
   38.1450   22.9730   34.5990 N   0  0  0  0  0  0  0  0  0  0  0  0
   37.3530   21.8550   34.1510 C   0  0  0  0  0  0  0  0  0  0  0  0
   36.9430   21.9160   32.7210 C   0  0  0  0  0  0  0  0  0  0  0  0
   37.2090   23.0830   32.0020 N   0  0  0  0  0  0  0  0  0  0  0  0
   38.3540   23.8510   32.3080 C   0  0  0  0  0  0  0  0  0  0  0  0
   38.6350   24.0350   33.7640 C   0  0  1  0  0  0  0  0  0  0  0  0
   41.0480   22.5290   38.1460 H   0  0  0  0  0  0  0  0  0  0  0  0
   40.5340   22.4550   35.7400 H   0  0  0  0  0  0  0  0  0  0  0  0
   37.0490   23.6280   38.9620 H   0  0  0  0  0  0  0  0  0  0  0  0
   36.4900   21.7930   34.8490 H   0  0  0  0  0  0  0  0  0  0  0  0
   37.9580   20.9330   34.3790 H   0  0  0  0  0  0  0  0  0  0  0  0
   37.3980   21.0470   32.1970 H   0  0  0  0  0  0  0  0  0  0  0  0
   35.8420   21.7160   32.6790 H   0  0  0  0  0  0  0  0  0  0  0  0
   37.2460   22.8640   30.9740 H   0  0  0  0  0  0  0  0  0  0  0  0
   39.2160   23.3950   31.7450 H   0  0  0  0  0  0  0  0  0  0  0  0
   38.2340   24.8610   31.8590 H   0  0  0  0  0  0  0  0  0  0  0  0
   39.7600   23.9720   33.8560 H   0  0  0  0  0  0  0  0  0  0  0  0
   38.2810   25.3880   34.2670 C   0  0  0  0  0  0  0  0  0  0  0  0
   39.1220   26.0980   35.1160 C   0  0  0  0  0  3  0  0  0  0  0  0
   38.8610   27.3540   35.6220 C   0  0  0  0  0  0  0  0  0  0  0  0
   39.5830   27.8200   36.2770 H   0  0  0  0  0  0  0  0  0  0  0  0
   37.6790   27.9110   35.2380 N   0  0  0  0  0  0  0  0  0  0  0  0
   36.8450   27.2290   34.4070 C   0  0  0  0  0  3  0  0  0  0  0  0
   37.1560   26.0210   33.9540 N   0  0  0  0  0  0  0  0  0  0  0  0
  1 13  1  0  0  0  0
  1  6  1  0  0  0  0
  2  1  2  0  0  0  0
  3  2  1  0  0  0  0
  3  4  2  0  0  0  0
  4  5  1  0  0  0  0
  5  6  2  0  0  0  0
  5 15  1  0  0  0  0
  7  3  1  0  0  0  0
  8 17  1  0  0  0  0
  8  7  1  0  0  0  0
  8 16  1  0  0  0  0
  9  8  1  0  0  0  0
 10 11  1  0  0  0  0
 10  9  1  0  0  0  0
 11 12  1  0  0  0  0
 12 23  1  1  0  0  0
 12 24  1  0  0  0  0
 12  7  1  0  0  0  0
 14  2  1  0  0  0  0
 18  9  1  0  0  0  0
 19  9  1  0  0  0  0
 20 10  1  0  0  0  0
 21 11  1  0  0  0  0
 22 11  1  0  0  0  0
 24 25  1  0  0  0  0
 25 26  2  0  0  0  0
 26 27  1  0  0  0  0
 28 26  1  0  0  0  0
 29 28  2  0  0  0  0
 30 24  2  0  0  0  0
 30 29  1  0  0  0  0
M  END
>  <minimizedAffinity>
-5.00686216

$$$$

 OpenBabel03262523413D

 30 32  0  0  1  0  0  0  0  0999 V2000
   39.6500   27.1350   33.7160 C   0  0  0  0  0  0  0  0  0  0  0  0
   39.7630   26.2770   34.8150 C   0  0  0  0  0  0  0  0  0  0  0  0
   38.6610   25.5300   35.2320 C   0  0  0  0  0  0  0  0  0  0  0  0
   37.5150   25.6880   34.5290 N   0  0  0  0  0  0  0  0  0  0  0  0
   37.3980   26.5130   33.4690 C   0  0  0  0  0  0  0  0  0  0  0  0
   38.4750   27.2360   33.0670 N   0  0  0  0  0  0  0  0  0  0  0  0
   38.7720   24.6600   36.3450 N   0  0  0  0  0  0  0  0  0  0  0  0
   38.1360   25.0920   37.5630 C   0  0  0  0  0  0  0  0  0  0  0  0
   38.1680   24.0960   38.6700 C   0  0  0  0  0  0  0  0  0  0  0  0
   38.6490   22.8140   38.3960 N   0  0  0  0  0  0  0  0  0  0  0  0
   39.6600   22.6350   37.4270 C   0  0  0  0  0  0  0  0  0  0  0  0
   39.5000   23.4320   36.1740 C   0  0  1  0  0  0  0  0  0  0  0  0
   40.4890   27.7270   33.3690 H   0  0  0  0  0  0  0  0  0  0  0  0
   40.7100   26.2230   35.3050 H   0  0  0  0  0  0  0  0  0  0  0  0
   36.4410   26.5870   32.9500 H   0  0  0  0  0  0  0  0  0  0  0  0
   37.1040   25.3940   37.2790 H   0  0  0  0  0  0  0  0  0  0  0  0
   38.6360   26.0600   37.8490 H   0  0  0  0  0  0  0  0  0  0  0  0
   38.7480   24.5370   39.5100 H   0  0  0  0  0  0  0  0  0  0  0  0
   37.1270   24.0080   39.0720 H   0  0  0  0  0  0  0  0  0  0  0  0
   38.9860   22.3660   39.2850 H   0  0  0  0  0  0  0  0  0  0  0  0
   40.6450   22.8140   37.9440 H   0  0  0  0  0  0  0  0  0  0  0  0
   39.6910   21.5610   37.1400 H   0  0  0  0  0  0  0  0  0  0  0  0
   40.5470   23.7580   35.8980 H   0  0  0  0  0  0  0  0  0  0  0  0
   39.0280   22.6260   35.0180 C   0  0  0  0  0  0  0  0  0  0  0  0
   39.8870   22.2330   33.9990 C   0  0  0  0  0  3  0  0  0  0  0  0
   39.5220   21.4860   32.8980 C   0  0  0  0  0  0  0  0  0  0  0  0
   40.2700   21.2340   32.1600 H   0  0  0  0  0  0  0  0  0  0  0  0
   38.2110   21.1240   32.8390 N   0  0  0  0  0  0  0  0  0  0  0  0
   37.3570   21.5010   33.8300 C   0  0  0  0  0  3  0  0  0  0  0  0
   37.7720   22.2200   34.8640 N   0  0  0  0  0  0  0  0  0  0  0  0
  1  2  1  0  0  0  0
  2  3  2  0  0  0  0
  2 14  1  0  0  0  0
  3  7  1  0  0  0  0
  4  3  1  0  0  0  0
  5  4  2  0  0  0  0
  6  5  1  0  0  0  0
  6  1  2  0  0  0  0
  7  8  1  0  0  0  0
  8 17  1  0  0  0  0
  8  9  1  0  0  0  0
  9 19  1  0  0  0  0
  9 18  1  0  0  0  0
 10  9  1  0  0  0  0
 10 20  1  0  0  0  0
 11 21  1  0  0  0  0
 11 10  1  0  0  0  0
 12 23  1  6  0  0  0
 12  7  1  0  0  0  0
 12 11  1  0  0  0  0
 13  1  1  0  0  0  0
 15  5  1  0  0  0  0
 16  8  1  0  0  0  0
 22 11  1  0  0  0  0
 24 12  1  0  0  0  0
 25 24  2  0  0  0  0
 26 25  1  0  0  0  0
 27 26  1  0  0  0  0
 28 26  2  0  0  0  0
 28 29  1  0  0  0  0
 29 30  2  0  0  0  0
 30 24  1  0  0  0  0
M  END
>  <minimizedAffinity>
-4.72388554

$$$$

 OpenBabel03262523413D

 30 32  0  0  1  0  0  0  0  0999 V2000
   37.6530   23.7880   30.5550 C   0  0  0  0  0  0  0  0  0  0  0  0
   38.7620   24.2070   31.2970 C   0  0  0  0  0  0  0  0  0  0  0  0
   38.5970   25.1110   32.3470 C   0  0  0  0  0  0  0  0  0  0  0  0
   37.3360   25.5410   32.5890 N   0  0  0  0  0  0  0  0  0  0  0  0
   36.2630   25.1430   31.8780 C   0  0  0  0  0  0  0  0  0  0  0  0
   36.4300   24.2620   30.8580 N   0  0  0  0  0  0  0  0  0  0  0  0
   39.7180   25.5370   33.1010 N   0  0  0  0  0  0  0  0  0  0  0  0
   40.1780   26.8810   32.8610 C   0  0  0  0  0  0  0  0  0  0  0  0
   41.2770   27.3330   33.7600 C   0  0  0  0  0  0  0  0  0  0  0  0
   41.6450   26.5100   34.8260 N   0  0  0  0  0  0  0  0  0  0  0  0
   41.5420   25.1070   34.6970 C   0  0  0  0  0  0  0  0  0  0  0  0
   40.3000   24.6100   34.0320 C   0  0  1  0  0  0  0  0  0  0  0  0
   37.7510   23.0870   29.7340 H   0  0  0  0  0  0  0  0  0  0  0  0
   39.7160   23.8110   31.0280 H   0  0  0  0  0  0  0  0  0  0  0  0
   35.2760   25.5320   32.1330 H   0  0  0  0  0  0  0  0  0  0  0  0
   39.2750   27.5280   32.9180 H   0  0  0  0  0  0  0  0  0  0  0  0
   40.4760   26.9200   31.7750 H   0  0  0  0  0  0  0  0  0  0  0  0
   42.1690   27.5450   33.1300 H   0  0  0  0  0  0  0  0  0  0  0  0
   40.9850   28.3340   34.1670 H   0  0  0  0  0  0  0  0  0  0  0  0
   42.6330   26.7250   35.1130 H   0  0  0  0  0  0  0  0  0  0  0  0
   42.4860   24.7540   34.1940 H   0  0  0  0  0  0  0  0  0  0  0  0
   41.5840   24.6540   35.7120 H   0  0  0  0  0  0  0  0  0  0  0  0
   40.6370   23.7400   33.3940 H   0  0  0  0  0  0  0  0  0  0  0  0
   39.3120   24.0340   34.9820 C   0  0  0  0  0  0  0  0  0  0  0  0
   38.7190   24.8010   35.9780 C   0  0  0  0  0  3  0  0  0  0  0  0
   37.7980   24.3370   36.8920 C   0  0  0  0  0  0  0  0  0  0  0  0
   37.3960   25.0170   37.6290 H   0  0  0  0  0  0  0  0  0  0  0  0
   37.4660   23.0200   36.7800 N   0  0  0  0  0  0  0  0  0  0  0  0
   38.0380   22.2570   35.8100 C   0  0  0  0  0  3  0  0  0  0  0  0
   38.9200   22.7650   34.9600 N   0  0  0  0  0  0  0  0  0  0  0  0
  1  6  2  0  0  0  0
  1  2  1  0  0  0  0
  2  3  2  0  0  0  0
  3  4  1  0  0  0  0
  3  7  1  0  0  0  0
  5 15  1  0  0  0  0
  5  4  2  0  0  0  0
  6  5  1  0  0  0  0
  7 12  1  0  0  0  0
  8 16  1  0  0  0  0
  8  7  1  0  0  0  0
  8  9  1  0  0  0  0
  9 19  1  0  0  0  0
  9 10  1  0  0  0  0
 10 20  1  0  0  0  0
 11 10  1  0  0  0  0
 11 22  1  0  0  0  0
 12 23  1  6  0  0  0
 12 11  1  0  0  0  0
 12 24  1  0  0  0  0
 13  1  1  0  0  0  0
 14  2  1  0  0  0  0
 17  8  1  0  0  0  0
 18  9  1  0  0  0  0
 21 11  1  0  0  0  0
 24 25  1  0  0  0  0
 25 26  2  0  0  0  0
 26 27  1  0  0  0  0
 28 26  1  0  0  0  0
 29 28  2  0  0  0  0
 30 24  2  0  0  0  0
 30 29  1  0  0  0  0
M  END
>  <minimizedAffinity>
-4.49419832

$$$$

 OpenBabel03262523413D

 30 32  0  0  1  0  0  0  0  0999 V2000
   38.1670   25.2700   35.9460 C   0  0  0  0  0  0  0  0  0  0  0  0
   37.4530   25.7850   34.8600 C   0  0  0  0  0  0  0  0  0  0  0  0
   38.0690   25.8970   33.6120 C   0  0  0  0  0  0  0  0  0  0  0  0
   39.3560   25.4890   33.5290 N   0  0  0  0  0  0  0  0  0  0  0  0
   40.0510   24.9910   34.5710 C   0  0  0  0  0  0  0  0  0  0  0  0
   39.4460   24.8840   35.7830 N   0  0  0  0  0  0  0  0  0  0  0  0
   37.3490   26.4180   32.5090 N   0  0  0  0  0  0  0  0  0  0  0  0
   37.6970   27.7520   32.0900 C   0  0  0  0  0  0  0  0  0  0  0  0
   37.0080   28.2160   30.8530 C   0  0  0  0  0  0  0  0  0  0  0  0
   36.2360   27.2970   30.1380 N   0  0  0  0  0  0  0  0  0  0  0  0
   35.5610   26.2640   30.8240 C   0  0  0  0  0  0  0  0  0  0  0  0
   36.3420   25.5900   31.9040 C   0  0  1  0  0  0  0  0  0  0  0  0
   37.7150   25.1710   36.9270 H   0  0  0  0  0  0  0  0  0  0  0  0
   36.4410   26.0800   35.0270 H   0  0  0  0  0  0  0  0  0  0  0  0
   41.0870   24.6820   34.4270 H   0  0  0  0  0  0  0  0  0  0  0  0
   38.8050   27.7650   32.0010 H   0  0  0  0  0  0  0  0  0  0  0  0
   37.4840   28.4220   32.9690 H   0  0  0  0  0  0  0  0  0  0  0  0
   36.3840   29.0970   31.1190 H   0  0  0  0  0  0  0  0  0  0  0  0
   37.7910   28.6310   30.1690 H   0  0  0  0  0  0  0  0  0  0  0  0
   35.5200   27.8090   29.5640 H   0  0  0  0  0  0  0  0  0  0  0  0
   34.5840   26.6920   31.1850 H   0  0  0  0  0  0  0  0  0  0  0  0
   35.2640   25.4840   30.0880 H   0  0  0  0  0  0  0  0  0  0  0  0
   35.5960   25.3990   32.7310 H   0  0  0  0  0  0  0  0  0  0  0  0
   36.8440   24.2440   31.5180 C   0  0  0  0  0  0  0  0  0  0  0  0
   36.2880   23.0800   32.0340 C   0  0  0  0  0  3  0  0  0  0  0  0
   36.7000   21.8010   31.7230 C   0  0  0  0  0  0  0  0  0  0  0  0
   36.2010   20.9590   32.1810 H   0  0  0  0  0  0  0  0  0  0  0  0
   37.7320   21.7110   30.8390 N   0  0  0  0  0  0  0  0  0  0  0  0
   38.2870   22.8420   30.3250 C   0  0  0  0  0  3  0  0  0  0  0  0
   37.8430   24.0460   30.6650 N   0  0  0  0  0  0  0  0  0  0  0  0
  1 13  1  0  0  0  0
  2 14  1  0  0  0  0
  2  1  2  0  0  0  0
  3  2  1  0  0  0  0
  4  3  2  0  0  0  0
  4  5  1  0  0  0  0
  5  6  2  0  0  0  0
  6  1  1  0  0  0  0
  7  3  1  0  0  0  0
  8  7  1  0  0  0  0
  8 17  1  0  0  0  0
  9 18  1  0  0  0  0
  9  8  1  0  0  0  0
 10 11  1  0  0  0  0
 10  9  1  0  0  0  0
 11 21  1  0  0  0  0
 11 12  1  0  0  0  0
 12  7  1  0  0  0  0
 12 23  1  1  0  0  0
 15  5  1  0  0  0  0
 16  8  1  0  0  0  0
 19  9  1  0  0  0  0
 20 10  1  0  0  0  0
 22 11  1  0  0  0  0
 24 12  1  0  0  0  0
 24 25  1  0  0  0  0
 26 25  2  0  0  0  0
 26 27  1  0  0  0  0
 28 26  1  0  0  0  0
 29 30  1  0  0  0  0
 29 28  2  0  0  0  0
 30 24  2  0  0  0  0
M  END
>  <minimizedAffinity>
-4.29590178

$$$$

 OpenBabel03262523413D

 30 32  0  0  1  0  0  0  0  0999 V2000
   39.1640   25.7090   31.3800 C   0  0  0  0  0  0  0  0  0  0  0  0
   39.3180   25.1050   32.6310 C   0  0  0  0  0  0  0  0  0  0  0  0
   38.1960   24.6770   33.3410 C   0  0  0  0  0  0  0  0  0  0  0  0
   36.9910   24.8820   32.7590 N   0  0  0  0  0  0  0  0  0  0  0  0
   36.8340   25.4630   31.5540 C   0  0  0  0  0  0  0  0  0  0  0  0
   37.9300   25.8760   30.8660 N   0  0  0  0  0  0  0  0  0  0  0  0
   38.3480   24.0640   34.6100 N   0  0  0  0  0  0  0  0  0  0  0  0
   37.9800   24.8590   35.7530 C   0  0  0  0  0  0  0  0  0  0  0  0
   38.0360   24.1380   37.0560 C   0  0  0  0  0  0  0  0  0  0  0  0
   38.2730   22.7620   37.0450 N   0  0  0  0  0  0  0  0  0  0  0  0
   39.0840   22.1980   36.0360 C   0  0  0  0  0  0  0  0  0  0  0  0
   38.8510   22.7190   34.6560 C   0  0  1  0  0  0  0  0  0  0  0  0
   40.0170   26.0510   30.8050 H   0  0  0  0  0  0  0  0  0  0  0  0
   40.3110   24.9890   33.0060 H   0  0  0  0  0  0  0  0  0  0  0  0
   35.8300   25.5940   31.1470 H   0  0  0  0  0  0  0  0  0  0  0  0
   36.9720   25.2710   35.5280 H   0  0  0  0  0  0  0  0  0  0  0  0
   38.6550   25.7600   35.7390 H   0  0  0  0  0  0  0  0  0  0  0  0
   38.7970   24.6400   37.6920 H   0  0  0  0  0  0  0  0  0  0  0  0
   37.0680   24.3280   37.5860 H   0  0  0  0  0  0  0  0  0  0  0  0
   38.6740   22.4650   37.9700 H   0  0  0  0  0  0  0  0  0  0  0  0
   40.1530   22.3050   36.3760 H   0  0  0  0  0  0  0  0  0  0  0  0
   38.9110   21.0990   36.0140 H   0  0  0  0  0  0  0  0  0  0  0  0
   39.8790   22.7840   34.1890 H   0  0  0  0  0  0  0  0  0  0  0  0
   38.0910   21.7780   33.7900 C   0  0  0  0  0  0  0  0  0  0  0  0
   36.7620   21.4610   34.0430 C   0  0  0  0  0  3  0  0  0  0  0  0
   35.9960   20.6000   33.2860 C   0  0  0  0  0  0  0  0  0  0  0  0
   34.9690   20.4200   33.5690 H   0  0  0  0  0  0  0  0  0  0  0  0
   36.6230   20.0360   32.2170 N   0  0  0  0  0  0  0  0  0  0  0  0
   37.9240   20.3370   31.9560 C   0  0  0  0  0  3  0  0  0  0  0  0
   38.6070   21.1760   32.7250 N   0  0  0  0  0  0  0  0  0  0  0  0
  1  2  1  0  0  0  0
  2 14  1  0  0  0  0
  2  3  2  0  0  0  0
  3  7  1  0  0  0  0
  4  3  1  0  0  0  0
  5  4  2  0  0  0  0
  6  1  2  0  0  0  0
  6  5  1  0  0  0  0
  7 12  1  0  0  0  0
  7  8  1  0  0  0  0
  8  9  1  0  0  0  0
  9 19  1  0  0  0  0
  9 18  1  0  0  0  0
 10  9  1  0  0  0  0
 10 20  1  0  0  0  0
 11 21  1  0  0  0  0
 11 10  1  0  0  0  0
 12 23  1  6  0  0  0
 12 11  1  0  0  0  0
 13  1  1  0  0  0  0
 15  5  1  0  0  0  0
 16  8  1  0  0  0  0
 17  8  1  0  0  0  0
 22 11  1  0  0  0  0
 24 25  1  0  0  0  0
 24 12  1  0  0  0  0
 26 27  1  0  0  0  0
 26 25  2  0  0  0  0
 28 26  1  0  0  0  0
 29 28  2  0  0  0  0
 29 30  1  0  0  0  0
 30 24  2  0  0  0  0
M  END
>  <minimizedAffinity>
-4.27857733

$$$$

 OpenBabel03262523413D

 30 32  0  0  1  0  0  0  0  0999 V2000
   39.0580   22.9510   31.2330 C   0  0  0  0  0  0  0  0  0  0  0  0
   39.0870   24.1200   31.9990 C   0  0  0  0  0  0  0  0  0  0  0  0
   38.2620   24.2410   33.1170 C   0  0  0  0  0  0  0  0  0  0  0  0
   37.4580   23.1900   33.3990 N   0  0  0  0  0  0  0  0  0  0  0  0
   37.4230   22.0590   32.6650 C   0  0  0  0  0  0  0  0  0  0  0  0
   38.2300   21.9470   31.5780 N   0  0  0  0  0  0  0  0  0  0  0  0
   38.2890   25.4250   33.8960 N   0  0  0  0  0  0  0  0  0  0  0  0
   37.1590   26.3080   33.7590 C   0  0  0  0  0  0  0  0  0  0  0  0
   37.1660   27.4760   34.6840 C   0  0  0  0  0  0  0  0  0  0  0  0
   38.1430   27.5280   35.6810 N   0  0  0  0  0  0  0  0  0  0  0  0
   39.4180   26.9710   35.4440 C   0  0  0  0  0  0  0  0  0  0  0  0
   39.4240   25.6480   34.7490 C   0  0  1  0  0  0  0  0  0  0  0  0
   39.6880   22.8290   30.3590 H   0  0  0  0  0  0  0  0  0  0  0  0
   39.7560   24.8950   31.6950 H   0  0  0  0  0  0  0  0  0  0  0  0
   36.7490   21.2520   32.9550 H   0  0  0  0  0  0  0  0  0  0  0  0
   36.2560   25.6700   33.8710 H   0  0  0  0  0  0  0  0  0  0  0  0
   37.1400   26.6250   32.6780 H   0  0  0  0  0  0  0  0  0  0  0  0
   37.2150   28.4000   34.0680 H   0  0  0  0  0  0  0  0  0  0  0  0
   36.1590   27.5240   35.1710 H   0  0  0  0  0  0  0  0  0  0  0  0
   38.2890   28.5260   35.9790 H   0  0  0  0  0  0  0  0  0  0  0  0
   40.0250   27.7550   34.9100 H   0  0  0  0  0  0  0  0  0  0  0  0
   39.9350   26.8390   36.4200 H   0  0  0  0  0  0  0  0  0  0  0  0
   40.3060   25.6910   34.0430 H   0  0  0  0  0  0  0  0  0  0  0  0
   39.7100   24.5060   35.6570 C   0  0  0  0  0  0  0  0  0  0  0  0
   40.8890   23.7760   35.5660 C   0  0  0  0  0  3  0  0  0  0  0  0
   41.2230   22.7070   36.3700 C   0  0  0  0  0  0  0  0  0  0  0  0
   42.1670   22.2050   36.2170 H   0  0  0  0  0  0  0  0  0  0  0  0
   40.3030   22.3700   37.3160 N   0  0  0  0  0  0  0  0  0  0  0  0
   39.1430   23.0750   37.4170 C   0  0  0  0  0  3  0  0  0  0  0  0
   38.8820   24.0960   36.6110 N   0  0  0  0  0  0  0  0  0  0  0  0
  1  6  2  0  0  0  0
  1  2  1  0  0  0  0
  2  3  2  0  0  0  0
  3  4  1  0  0  0  0
  3  7  1  0  0  0  0
  5 15  1  0  0  0  0
  5  4  2  0  0  0  0
  6  5  1  0  0  0  0
  7 12  1  0  0  0  0
  8 16  1  0  0  0  0
  8  7  1  0  0  0  0
  8  9  1  0  0  0  0
  9 19  1  0  0  0  0
  9 10  1  0  0  0  0
 10 20  1  0  0  0  0
 11 10  1  0  0  0  0
 11 22  1  0  0  0  0
 12 23  1  6  0  0  0
 12 11  1  0  0  0  0
 12 24  1  0  0  0  0
 13  1  1  0  0  0  0
 14  2  1  0  0  0  0
 17  8  1  0  0  0  0
 18  9  1  0  0  0  0
 21 11  1  0  0  0  0
 24 30  1  0  0  0  0
 25 24  2  0  0  0  0
 25 26  1  0  0  0  0
 26 28  2  0  0  0  0
 27 26  1  0  0  0  0
 28 29  1  0  0  0  0
 30 29  2  0  0  0  0
M  END
>  <minimizedAffinity>
-4.24984312

$$$$

 OpenBabel03262523413D

 30 32  0  0  1  0  0  0  0  0999 V2000
   41.9490   24.1930   32.0790 C   0  0  0  0  0  0  0  0  0  0  0  0
   41.2190   23.5910   33.1080 C   0  0  0  0  0  0  0  0  0  0  0  0
   41.1540   24.1980   34.3630 C   0  0  0  0  0  0  0  0  0  0  0  0
   41.8220   25.3660   34.5110 N   0  0  0  0  0  0  0  0  0  0  0  0
   42.5280   25.9520   33.5240 C   0  0  0  0  0  0  0  0  0  0  0  0
   42.5870   25.3570   32.3040 N   0  0  0  0  0  0  0  0  0  0  0  0
   40.4150   23.5910   35.4090 N   0  0  0  0  0  0  0  0  0  0  0  0
   41.1820   22.9680   36.4570 C   0  0  0  0  0  0  0  0  0  0  0  0
   40.3750   22.4520   37.5970 C   0  0  0  0  0  0  0  0  0  0  0  0
   39.0100   22.7490   37.6330 N   0  0  0  0  0  0  0  0  0  0  0  0
   38.2890   22.8820   36.4260 C   0  0  0  0  0  0  0  0  0  0  0  0
   38.9810   23.6430   35.3430 C   0  0  1  0  0  0  0  0  0  0  0  0
   42.0180   23.7440   31.0940 H   0  0  0  0  0  0  0  0  0  0  0  0
   40.7270   22.6680   32.8930 H   0  0  0  0  0  0  0  0  0  0  0  0
   43.0410   26.8960   33.7180 H   0  0  0  0  0  0  0  0  0  0  0  0
   41.9430   23.7180   36.7670 H   0  0  0  0  0  0  0  0  0  0  0  0
   41.7840   22.1540   35.9620 H   0  0  0  0  0  0  0  0  0  0  0  0
   40.5150   21.3500   37.6460 H   0  0  0  0  0  0  0  0  0  0  0  0
   40.8460   22.8310   38.5400 H   0  0  0  0  0  0  0  0  0  0  0  0
   38.5090   22.0340   38.2180 H   0  0  0  0  0  0  0  0  0  0  0  0
   37.9810   21.8450   36.1120 H   0  0  0  0  0  0  0  0  0  0  0  0
   37.3290   23.4010   36.6420 H   0  0  0  0  0  0  0  0  0  0  0  0
   38.7200   23.0980   34.3880 H   0  0  0  0  0  0  0  0  0  0  0  0
   38.4510   25.0200   35.1590 C   0  0  0  0  0  0  0  0  0  0  0  0
   37.7250   25.3810   34.0310 C   0  0  0  0  0  3  0  0  0  0  0  0
   37.2040   26.6350   33.7910 C   0  0  0  0  0  0  0  0  0  0  0  0
   36.6530   26.8130   32.8800 H   0  0  0  0  0  0  0  0  0  0  0  0
   37.4380   27.5660   34.7580 N   0  0  0  0  0  0  0  0  0  0  0  0
   38.1480   27.2280   35.8680 C   0  0  0  0  0  3  0  0  0  0  0  0
   38.6220   26.0010   36.0380 N   0  0  0  0  0  0  0  0  0  0  0  0
  1  6  2  0  0  0  0
  1  2  1  0  0  0  0
  2  3  2  0  0  0  0
  3  4  1  0  0  0  0
  3  7  1  0  0  0  0
  5 15  1  0  0  0  0
  5  4  2  0  0  0  0
  6  5  1  0  0  0  0
  7  8  1  0  0  0  0
  8 16  1  0  0  0  0
  8  9  1  0  0  0  0
  9 10  1  0  0  0  0
  9 18  1  0  0  0  0
  9 19  1  0  0  0  0
 10 20  1  0  0  0  0
 11 22  1  0  0  0  0
 11 10  1  0  0  0  0
 12 23  1  6  0  0  0
 12  7  1  0  0  0  0
 12 11  1  0  0  0  0
 13  1  1  0  0  0  0
 14  2  1  0  0  0  0
 17  8  1  0  0  0  0
 21 11  1  0  0  0  0
 24 12  1  0  0  0  0
 24 30  1  0  0  0  0
 25 24  2  0  0  0  0
 26 25  1  0  0  0  0
 26 28  2  0  0  0  0
 27 26  1  0  0  0  0
 28 29  1  0  0  0  0
 29 30  2  0  0  0  0
M  END
>  <minimizedAffinity>
-4.23142624

$$$$

 OpenBabel03262523413D

 30 32  0  0  1  0  0  0  0  0999 V2000
   36.2950   28.3780   33.4180 C   0  0  0  0  0  0  0  0  0  0  0  0
   35.7330   29.0300   34.5200 C   0  0  0  0  0  0  0  0  0  0  0  0
   35.2910   30.3470   34.3990 C   0  0  0  0  0  0  0  0  0  0  0  0
   35.4380   30.9310   33.1870 N   0  0  0  0  0  0  0  0  0  0  0  0
   35.9780   30.3100   32.1200 C   0  0  0  0  0  0  0  0  0  0  0  0
   36.4060   29.0270   32.2430 N   0  0  0  0  0  0  0  0  0  0  0  0
   34.7220   31.0110   35.5140 N   0  0  0  0  0  0  0  0  0  0  0  0
   35.5370   32.0160   36.1460 C   0  0  0  0  0  0  0  0  0  0  0  0
   34.8590   32.7760   37.2330 C   0  0  0  0  0  0  0  0  0  0  0  0
   33.4910   32.5730   37.4320 N   0  0  0  0  0  0  0  0  0  0  0  0
   32.9240   31.3070   37.1690 C   0  0  0  0  0  0  0  0  0  0  0  0
   33.3950   30.6360   35.9210 C   0  0  1  0  0  0  0  0  0  0  0  0
   36.6470   27.3540   33.4810 H   0  0  0  0  0  0  0  0  0  0  0  0
   35.6620   28.4830   35.4340 H   0  0  0  0  0  0  0  0  0  0  0  0
   36.0640   30.8460   31.1730 H   0  0  0  0  0  0  0  0  0  0  0  0
   35.9100   32.6680   35.3270 H   0  0  0  0  0  0  0  0  0  0  0  0
   36.4590   31.4830   36.5150 H   0  0  0  0  0  0  0  0  0  0  0  0
   35.4040   32.5770   38.1820 H   0  0  0  0  0  0  0  0  0  0  0  0
   35.0320   33.8640   37.0400 H   0  0  0  0  0  0  0  0  0  0  0  0
   33.2360   32.8310   38.4180 H   0  0  0  0  0  0  0  0  0  0  0  0
   33.0760   30.6810   38.0930 H   0  0  0  0  0  0  0  0  0  0  0  0
   31.8200   31.4210   37.0920 H   0  0  0  0  0  0  0  0  0  0  0  0
   33.4790   29.5410   36.1890 H   0  0  0  0  0  0  0  0  0  0  0  0
   32.4050   30.6880   34.8130 C   0  0  0  0  0  0  0  0  0  0  0  0
   31.7850   29.5410   34.3310 C   0  0  0  0  0  3  0  0  0  0  0  0
   30.8590   29.5110   33.3090 C   0  0  0  0  0  0  0  0  0  0  0  0
   30.4350   28.5640   33.0080 H   0  0  0  0  0  0  0  0  0  0  0  0
   30.5530   30.7170   32.7540 N   0  0  0  0  0  0  0  0  0  0  0  0
   31.1520   31.8480   33.2150 C   0  0  0  0  0  3  0  0  0  0  0  0
   32.0360   31.8090   34.2040 N   0  0  0  0  0  0  0  0  0  0  0  0
  1 13  1  0  0  0  0
  1  2  1  0  0  0  0
  2 14  1  0  0  0  0
  3  2  2  0  0  0  0
  3  7  1  0  0  0  0
  4  3  1  0  0  0  0
  5  6  1  0  0  0  0
  5  4  2  0  0  0  0
  6  1  2  0  0  0  0
  7 12  1  0  0  0  0
  7  8  1  0  0  0  0
  8 17  1  0  0  0  0
  8  9  1  0  0  0  0
  9 10  1  0  0  0  0
  9 18  1  0  0  0  0
 10 20  1  0  0  0  0
 11 10  1  0  0  0  0
 11 21  1  0  0  0  0
 12 23  1  1  0  0  0
 12 11  1  0  0  0  0
 15  5  1  0  0  0  0
 16  8  1  0  0  0  0
 19  9  1  0  0  0  0
 22 11  1  0  0  0  0
 24 12  1  0  0  0  0
 25 24  1  0  0  0  0
 26 25  2  0  0  0  0
 27 26  1  0  0  0  0
 28 29  2  0  0  0  0
 28 26  1  0  0  0  0
 29 30  1  0  0  0  0
 30 24  2  0  0  0  0
M  END
>  <minimizedAffinity>
-4.20261574

$$$$

 OpenBabel03262523413D

 30 32  0  0  1  0  0  0  0  0999 V2000
   36.9310   19.7210   31.3450 C   0  0  0  0  0  0  0  0  0  0  0  0
   37.0870   21.0970   31.1530 C   0  0  0  0  0  0  0  0  0  0  0  0
   36.4880   21.9960   32.0350 C   0  0  0  0  0  0  0  0  0  0  0  0
   35.7690   21.4660   33.0520 N   0  0  0  0  0  0  0  0  0  0  0  0
   35.6130   20.1410   33.2440 C   0  0  0  0  0  0  0  0  0  0  0  0
   36.2010   19.2700   32.3830 N   0  0  0  0  0  0  0  0  0  0  0  0
   36.6440   23.3910   31.8430 N   0  0  0  0  0  0  0  0  0  0  0  0
   35.4950   24.1020   31.3430 C   0  0  0  0  0  0  0  0  0  0  0  0
   35.6590   25.5810   31.2740 C   0  0  0  0  0  0  0  0  0  0  0  0
   36.8060   26.1490   31.8310 N   0  0  0  0  0  0  0  0  0  0  0  0
   38.0220   25.4310   31.8180 C   0  0  0  0  0  0  0  0  0  0  0  0
   37.9170   23.9800   32.1580 C   0  0  1  0  0  0  0  0  0  0  0  0
   37.3850   18.9990   30.6760 H   0  0  0  0  0  0  0  0  0  0  0  0
   37.6730   21.4170   30.3200 H   0  0  0  0  0  0  0  0  0  0  0  0
   35.0190   19.7870   34.0880 H   0  0  0  0  0  0  0  0  0  0  0  0
   34.6400   23.7890   31.9810 H   0  0  0  0  0  0  0  0  0  0  0  0
   35.2650   23.6540   30.3360 H   0  0  0  0  0  0  0  0  0  0  0  0
   35.5750   25.8850   30.2070 H   0  0  0  0  0  0  0  0  0  0  0  0
   34.7620   26.0410   31.7610 H   0  0  0  0  0  0  0  0  0  0  0  0
   36.9910   27.0820   31.3830 H   0  0  0  0  0  0  0  0  0  0  0  0
   38.5040   25.6180   30.8170 H   0  0  0  0  0  0  0  0  0  0  0  0
   38.7180   25.8970   32.5510 H   0  0  0  0  0  0  0  0  0  0  0  0
   38.6470   23.4630   31.4670 H   0  0  0  0  0  0  0  0  0  0  0  0
   38.3890   23.6590   33.5310 C   0  0  0  0  0  0  0  0  0  0  0  0
   39.3320   22.6660   33.7680 C   0  0  0  0  0  3  0  0  0  0  0  0
   39.8160   22.3140   35.0100 C   0  0  0  0  0  0  0  0  0  0  0  0
   40.5490   21.5250   35.0870 H   0  0  0  0  0  0  0  0  0  0  0  0
   39.3080   23.0150   36.0620 N   0  0  0  0  0  0  0  0  0  0  0  0
   38.3840   23.9900   35.8460 C   0  0  0  0  0  3  0  0  0  0  0  0
   37.9600   24.2810   34.6230 N   0  0  0  0  0  0  0  0  0  0  0  0
  1  6  1  0  0  0  0
  2  1  2  0  0  0  0
  2  3  1  0  0  0  0
  3  4  2  0  0  0  0
  4  5  1  0  0  0  0
  5 15  1  0  0  0  0
  6  5  2  0  0  0  0
  7  3  1  0  0  0  0
  7 12  1  0  0  0  0
  8  7  1  0  0  0  0
  8 16  1  0  0  0  0
  9  8  1  0  0  0  0
  9 19  1  0  0  0  0
  9 10  1  0  0  0  0
 11 10  1  0  0  0  0
 11 12  1  0  0  0  0
 11 22  1  0  0  0  0
 12 23  1  6  0  0  0
 12 24  1  0  0  0  0
 13  1  1  0  0  0  0
 14  2  1  0  0  0  0
 17  8  1  0  0  0  0
 18  9  1  0  0  0  0
 20 10  1  0  0  0  0
 21 11  1  0  0  0  0
 24 25  2  0  0  0  0
 24 30  1  0  0  0  0
 25 26  1  0  0  0  0
 26 27  1  0  0  0  0
 26 28  2  0  0  0  0
 29 28  1  0  0  0  0
 30 29  2  0  0  0  0
M  END
>  <minimizedAffinity>
-4.19150972

$$$$
