
 OpenBabel03272510163D

 26 28  0  0  0  0  0  0  0  0999 V2000
   37.3170   29.3550   51.0510 Br  0  0  0  0  0  0  0  0  0  0  0  0
   35.9720   29.3380   49.7000 C   0  0  0  0  0  0  0  0  0  0  0  0
   36.0010   30.2560   48.6530 C   0  0  0  0  0  0  0  0  0  0  0  0
   34.9970   30.1860   47.7160 C   0  0  0  0  0  0  0  0  0  0  0  0
   33.9750   29.2570   47.7660 C   0  0  0  0  0  0  0  0  0  0  0  0
   33.9730   28.3680   48.8080 C   0  0  0  0  0  0  0  0  0  0  0  0
   34.9670   28.4180   49.7600 C   0  0  0  0  0  0  0  0  0  0  0  0
   35.0340   30.9050   46.9090 H   0  0  0  0  0  0  0  0  0  0  0  0
   33.2220   27.6020   48.9460 H   0  0  0  0  0  0  0  0  0  0  0  0
   34.9700   27.7150   50.5870 H   0  0  0  0  0  0  0  0  0  0  0  0
   38.0000   33.2000   49.4570 C   0  0  0  0  0  0  0  0  0  0  0  0
   39.0280   33.1760   48.4650 C   0  0  0  0  0  0  0  0  0  0  0  0
   39.0100   32.1440   47.5400 C   0  0  0  0  0  0  0  0  0  0  0  0
   38.0180   31.2050   47.6180 N   0  0  0  0  0  0  0  0  0  0  0  0
   37.0580   31.2520   48.5650 C   0  0  0  0  0  0  0  0  0  0  0  0
   37.0550   32.2560   49.4850 N   0  0  0  0  0  0  0  0  0  0  0  0
   37.9420   33.9640   50.2100 H   0  0  0  0  0  0  0  0  0  0  0  0
   39.7670   33.9540   48.4790 H   0  0  0  0  0  0  0  0  0  0  0  0
   39.7780   32.1060   46.7810 H   0  0  0  0  0  0  0  0  0  0  0  0
   32.9130   29.1820   46.7760 C   0  0  0  0  0  0  0  0  0  0  0  0
   31.7910   28.3880   46.8870 C   0  0  0  0  0  3  0  0  0  0  0  0
   30.8020   28.3480   45.9160 C   0  0  0  0  0  0  0  0  0  0  0  0
   29.9590   27.6960   46.0910 H   0  0  0  0  0  0  0  0  0  0  0  0
   30.9250   29.1040   44.8200 N   0  0  0  0  0  0  0  0  0  0  0  0
   32.0170   29.8850   44.6990 C   0  0  0  0  0  3  0  0  0  0  0  0
   32.9600   29.9100   45.6470 N   0  0  0  0  0  0  0  0  0  0  0  0
  2  7  1  0  0  0  0
  2  1  1  0  0  0  0
  3  2  2  0  0  0  0
  4  5  2  0  0  0  0
  4  3  1  0  0  0  0
  5  6  1  0  0  0  0
  6  9  1  0  0  0  0
  6  7  2  0  0  0  0
  7 10  1  0  0  0  0
  8  4  1  0  0  0  0
 11 16  1  0  0  0  0
 11 17  1  0  0  0  0
 12 18  1  0  0  0  0
 12 11  2  0  0  0  0
 13 14  2  0  0  0  0
 13 12  1  0  0  0  0
 14 15  1  0  0  0  0
 15  3  1  0  0  0  0
 15 16  2  0  0  0  0
 19 13  1  0  0  0  0
 20 21  1  0  0  0  0
 20  5  1  0  0  0  0
 22 23  1  0  0  0  0
 22 21  2  0  0  0  0
 24 22  1  0  0  0  0
 25 24  2  0  0  0  0
 25 26  1  0  0  0  0
 26 20  2  0  0  0  0
M  END
>  <minimizedAffinity>
-5.85082912

>  <minimizedRMSD>
0.228926495

$$$$
