
 OpenBabel03272504053D

 39 42  0  0  0  0  0  0  0  0999 V2000
   37.6860   27.2990   32.9200 C   0  0  0  0  0  0  0  0  0  0  0  0
   38.5450   27.8410   32.5200 H   0  0  0  0  0  0  0  0  0  0  0  0
   38.0300   26.9450   33.9370 H   0  0  0  0  0  0  0  0  0  0  0  0
   36.5390   28.1880   33.2040 C   0  0  0  0  0  0  0  0  0  0  0  0
   35.5250   28.4120   32.2640 C   0  0  0  0  0  0  0  0  0  0  0  0
   34.6190   29.2680   32.8110 C   0  0  0  0  0  0  0  0  0  0  0  0
   35.0550   29.5580   34.0400 N   0  0  0  0  0  0  0  0  0  0  0  0
   36.1890   28.9060   34.2430 N   0  0  0  0  0  0  0  0  0  0  0  0
   35.3840   28.0250   31.2430 H   0  0  0  0  0  0  0  0  0  0  0  0
   33.6910   29.7110   32.4550 H   0  0  0  0  0  0  0  0  0  0  0  0
   34.5300   30.3900   35.0750 C   0  0  0  0  0  0  0  0  0  0  0  0
   35.4550   31.2350   35.6770 C   0  0  0  0  0  0  0  0  0  0  0  0
   35.1000   32.1130   36.7060 C   0  0  0  0  0  0  0  0  0  0  0  0
   33.7730   32.1050   37.1090 C   0  0  0  0  0  0  0  0  0  0  0  0
   32.8660   31.2660   36.5070 C   0  0  0  0  0  0  0  0  0  0  0  0
   33.2230   30.4020   35.4920 C   0  0  0  0  0  0  0  0  0  0  0  0
   36.5010   31.2670   35.3880 H   0  0  0  0  0  0  0  0  0  0  0  0
   35.8410   32.7570   37.1550 H   0  0  0  0  0  0  0  0  0  0  0  0
   33.4430   32.7700   37.9090 H   0  0  0  0  0  0  0  0  0  0  0  0
   31.8210   31.2210   36.7830 H   0  0  0  0  0  0  0  0  0  0  0  0
   32.5530   29.7250   34.9870 H   0  0  0  0  0  0  0  0  0  0  0  0
   37.3130   26.0880   32.1590 C   0  0  0  0  0  0  0  0  0  0  0  0
   36.2660   26.2700   31.7820 H   0  0  0  0  0  0  0  0  0  0  0  0
   37.9150   26.0950   31.2210 H   0  0  0  0  0  0  0  0  0  0  0  0
   37.4840   24.8030   32.7710 C   0  0  0  0  0  0  0  0  0  0  0  0
   37.2690   23.6650   32.0380 C   0  0  0  0  0  0  0  0  0  0  0  0
   37.4330   22.3880   32.6260 C   0  0  0  0  0  0  0  0  0  0  0  0
   37.8130   22.3830   33.9510 N   0  0  0  0  0  0  0  0  0  0  0  0
   38.0110   23.5410   34.6260 C   0  0  0  0  0  0  0  0  0  0  0  0
   37.8500   24.7430   34.0470 N   0  0  0  0  0  0  0  0  0  0  0  0
   36.9710   23.7040   30.9990 H   0  0  0  0  0  0  0  0  0  0  0  0
   37.2670   21.4990   32.0590 H   0  0  0  0  0  0  0  0  0  0  0  0
   38.4130   23.4740   36.0290 C   0  0  0  0  0  0  0  0  0  0  0  0
   37.6570   24.0740   37.0120 C   0  0  0  0  0  3  0  0  0  0  0  0
   37.9770   24.0500   38.3530 C   0  0  0  0  0  0  0  0  0  0  0  0
   37.3570   24.5310   39.0870 H   0  0  0  0  0  0  0  0  0  0  0  0
   39.1000   23.3950   38.6770 N   0  0  0  0  0  0  0  0  0  0  0  0
   39.8790   22.7900   37.7480 C   0  0  0  0  0  3  0  0  0  0  0  0
   39.5210   22.8420   36.4420 N   0  0  0  0  0  0  0  0  0  0  0  0
  1  4  1  0  0  0  0
  1  3  1  0  0  0  0
  2  1  1  0  0  0  0
  4  8  2  0  0  0  0
  5  6  2  0  0  0  0
  5  4  1  0  0  0  0
  6  7  1  0  0  0  0
  7  8  1  0  0  0  0
  7 11  1  0  0  0  0
  9  5  1  0  0  0  0
 10  6  1  0  0  0  0
 11 16  2  0  0  0  0
 11 12  1  0  0  0  0
 12 13  2  0  0  0  0
 13 14  1  0  0  0  0
 13 18  1  0  0  0  0
 14 19  1  0  0  0  0
 15 20  1  0  0  0  0
 15 14  2  0  0  0  0
 16 15  1  0  0  0  0
 17 12  1  0  0  0  0
 21 16  1  0  0  0  0
 22 25  1  0  0  0  0
 22  1  1  0  0  0  0
 23 22  1  0  0  0  0
 24 22  1  0  0  0  0
 25 30  1  0  0  0  0
 26 27  1  0  0  0  0
 26 25  2  0  0  0  0
 27 28  2  0  0  0  0
 28 29  1  0  0  0  0
 29 33  1  0  0  0  0
 30 29  2  0  0  0  0
 31 26  1  0  0  0  0
 32 27  1  0  0  0  0
 33 39  2  0  0  0  0
 33 34  1  0  0  0  0
 34 35  2  0  0  0  0
 35 37  1  0  0  0  0
 35 36  1  0  0  0  0
 38 37  2  0  0  0  0
 39 38  1  0  0  0  0
M  END
>  <minimizedAffinity>
-6.08963013

$$$$

 OpenBabel03272504053D

 39 42  0  0  0  0  0  0  0  0999 V2000
   37.5850   26.0530   35.1310 C   0  0  0  0  0  0  0  0  0  0  0  0
   36.5110   26.0580   35.3260 H   0  0  0  0  0  0  0  0  0  0  0  0
   37.9550   27.0200   35.5850 H   0  0  0  0  0  0  0  0  0  0  0  0
   38.2910   24.9940   35.8850 C   0  0  0  0  0  0  0  0  0  0  0  0
   37.7370   24.4070   37.0300 C   0  0  0  0  0  0  0  0  0  0  0  0
   38.6140   23.4770   37.4970 C   0  0  0  0  0  0  0  0  0  0  0  0
   39.6660   23.4890   36.6740 N   0  0  0  0  0  0  0  0  0  0  0  0
   39.4450   24.3940   35.7330 N   0  0  0  0  0  0  0  0  0  0  0  0
   36.7810   24.5850   37.5470 H   0  0  0  0  0  0  0  0  0  0  0  0
   38.6060   22.7920   38.3430 H   0  0  0  0  0  0  0  0  0  0  0  0
   40.8810   22.7410   36.6550 C   0  0  0  0  0  0  0  0  0  0  0  0
   41.8830   23.2660   35.8480 C   0  0  0  0  0  0  0  0  0  0  0  0
   43.1340   22.6530   35.7210 C   0  0  0  0  0  0  0  0  0  0  0  0
   43.3370   21.4850   36.4410 C   0  0  0  0  0  0  0  0  0  0  0  0
   42.3400   20.9740   37.2370 C   0  0  0  0  0  0  0  0  0  0  0  0
   41.1080   21.5840   37.3580 C   0  0  0  0  0  0  0  0  0  0  0  0
   41.7600   24.1770   35.2700 H   0  0  0  0  0  0  0  0  0  0  0  0
   43.8930   23.0840   35.0860 H   0  0  0  0  0  0  0  0  0  0  0  0
   44.2940   20.9660   36.3780 H   0  0  0  0  0  0  0  0  0  0  0  0
   42.4470   20.0680   37.8180 H   0  0  0  0  0  0  0  0  0  0  0  0
   40.2930   21.2270   37.9670 H   0  0  0  0  0  0  0  0  0  0  0  0
   37.9510   26.0940   33.7000 C   0  0  0  0  0  0  0  0  0  0  0  0
   38.2310   27.1650   33.4830 H   0  0  0  0  0  0  0  0  0  0  0  0
   38.9240   25.5620   33.5980 H   0  0  0  0  0  0  0  0  0  0  0  0
   37.0500   25.5330   32.7360 C   0  0  0  0  0  0  0  0  0  0  0  0
   36.2840   26.3610   31.9570 C   0  0  0  0  0  0  0  0  0  0  0  0
   35.3890   25.8250   31.0010 C   0  0  0  0  0  0  0  0  0  0  0  0
   35.3510   24.4500   30.9200 N   0  0  0  0  0  0  0  0  0  0  0  0
   36.1330   23.6810   31.7170 C   0  0  0  0  0  0  0  0  0  0  0  0
   36.9760   24.2120   32.6180 N   0  0  0  0  0  0  0  0  0  0  0  0
   36.3370   27.4380   32.0460 H   0  0  0  0  0  0  0  0  0  0  0  0
   34.7900   26.4660   30.3930 H   0  0  0  0  0  0  0  0  0  0  0  0
   36.0510   22.2280   31.5880 C   0  0  0  0  0  0  0  0  0  0  0  0
   35.0480   21.5170   32.2090 C   0  0  0  0  0  3  0  0  0  0  0  0
   34.9120   20.1470   32.1290 C   0  0  0  0  0  0  0  0  0  0  0  0
   34.1120   19.6320   32.6300 H   0  0  0  0  0  0  0  0  0  0  0  0
   35.8310   19.5070   31.3940 N   0  0  0  0  0  0  0  0  0  0  0  0
   36.8370   20.1610   30.7650 C   0  0  0  0  0  3  0  0  0  0  0  0
   36.9280   21.5080   30.8740 N   0  0  0  0  0  0  0  0  0  0  0  0
  1  2  1  0  0  0  0
  1  3  1  0  0  0  0
  1  4  1  0  0  0  0
  4  5  1  0  0  0  0
  5  6  2  0  0  0  0
  5  9  1  0  0  0  0
  6 10  1  0  0  0  0
  7  6  1  0  0  0  0
  8  4  2  0  0  0  0
  8  7  1  0  0  0  0
 11  7  1  0  0  0  0
 11 16  1  0  0  0  0
 12 11  2  0  0  0  0
 13 12  1  0  0  0  0
 13 14  2  0  0  0  0
 14 15  1  0  0  0  0
 15 16  2  0  0  0  0
 15 20  1  0  0  0  0
 16 21  1  0  0  0  0
 17 12  1  0  0  0  0
 18 13  1  0  0  0  0
 19 14  1  0  0  0  0
 22  1  1  0  0  0  0
 23 22  1  0  0  0  0
 24 22  1  0  0  0  0
 25 22  1  0  0  0  0
 26 31  1  0  0  0  0
 26 25  2  0  0  0  0
 27 26  1  0  0  0  0
 28 27  2  0  0  0  0
 28 29  1  0  0  0  0
 29 30  2  0  0  0  0
 30 25  1  0  0  0  0
 32 27  1  0  0  0  0
 33 29  1  0  0  0  0
 33 34  1  0  0  0  0
 35 34  2  0  0  0  0
 35 36  1  0  0  0  0
 37 35  1  0  0  0  0
 38 39  1  0  0  0  0
 38 37  2  0  0  0  0
 39 33  2  0  0  0  0
M  END
>  <minimizedAffinity>
-6.03587151

$$$$

 OpenBabel03272504053D

 39 42  0  0  0  0  0  0  0  0999 V2000
   38.2170   25.7120   30.5460 C   0  0  0  0  0  0  0  0  0  0  0  0
   38.7200   25.5240   29.5960 H   0  0  0  0  0  0  0  0  0  0  0  0
   37.6110   26.6480   30.3590 H   0  0  0  0  0  0  0  0  0  0  0  0
   37.2110   24.6760   30.8670 C   0  0  0  0  0  0  0  0  0  0  0  0
   35.8490   24.9810   30.9880 C   0  0  0  0  0  0  0  0  0  0  0  0
   35.1820   23.8320   31.2860 C   0  0  0  0  0  0  0  0  0  0  0  0
   36.0950   22.8580   31.3450 N   0  0  0  0  0  0  0  0  0  0  0  0
   37.2820   23.3880   31.0920 N   0  0  0  0  0  0  0  0  0  0  0  0
   35.3060   25.9330   30.8850 H   0  0  0  0  0  0  0  0  0  0  0  0
   34.1350   23.5930   31.4660 H   0  0  0  0  0  0  0  0  0  0  0  0
   35.9940   21.4610   31.6130 C   0  0  0  0  0  0  0  0  0  0  0  0
   35.5850   21.1360   32.9010 C   0  0  0  0  0  0  0  0  0  0  0  0
   35.4360   19.8100   33.3220 C   0  0  0  0  0  0  0  0  0  0  0  0
   35.7180   18.8210   32.3920 C   0  0  0  0  0  0  0  0  0  0  0  0
   36.1210   19.1520   31.1210 C   0  0  0  0  0  0  0  0  0  0  0  0
   36.2650   20.4610   30.7110 C   0  0  0  0  0  0  0  0  0  0  0  0
   35.3570   21.8830   33.6540 H   0  0  0  0  0  0  0  0  0  0  0  0
   35.1170   19.5890   34.3290 H   0  0  0  0  0  0  0  0  0  0  0  0
   35.6180   17.7700   32.6690 H   0  0  0  0  0  0  0  0  0  0  0  0
   36.3520   18.4190   30.3590 H   0  0  0  0  0  0  0  0  0  0  0  0
   36.5780   20.7760   29.7290 H   0  0  0  0  0  0  0  0  0  0  0  0
   39.1220   26.0170   31.6730 C   0  0  0  0  0  0  0  0  0  0  0  0
   39.9170   25.2170   31.6570 H   0  0  0  0  0  0  0  0  0  0  0  0
   39.6910   26.9330   31.3940 H   0  0  0  0  0  0  0  0  0  0  0  0
   38.5610   26.2370   32.9740 C   0  0  0  0  0  0  0  0  0  0  0  0
   37.7400   27.3140   33.1890 C   0  0  0  0  0  0  0  0  0  0  0  0
   37.1780   27.5460   34.4660 C   0  0  0  0  0  0  0  0  0  0  0  0
   37.5120   26.6340   35.4440 N   0  0  0  0  0  0  0  0  0  0  0  0
   38.3300   25.5880   35.1730 C   0  0  0  0  0  0  0  0  0  0  0  0
   38.8530   25.3860   33.9520 N   0  0  0  0  0  0  0  0  0  0  0  0
   37.4970   28.0120   32.3990 H   0  0  0  0  0  0  0  0  0  0  0  0
   36.5380   28.3840   34.6380 H   0  0  0  0  0  0  0  0  0  0  0  0
   38.6500   24.6530   36.2490 C   0  0  0  0  0  0  0  0  0  0  0  0
   37.9600   24.6800   37.4410 C   0  0  0  0  0  3  0  0  0  0  0  0
   38.2100   23.8280   38.4950 C   0  0  0  0  0  0  0  0  0  0  0  0
   37.6450   23.8840   39.4080 H   0  0  0  0  0  0  0  0  0  0  0  0
   39.1920   22.9360   38.3110 N   0  0  0  0  0  0  0  0  0  0  0  0
   39.9020   22.8700   37.1580 C   0  0  0  0  0  3  0  0  0  0  0  0
   39.6180   23.7300   36.1500 N   0  0  0  0  0  0  0  0  0  0  0  0
  1  4  1  0  0  0  0
  1 22  1  0  0  0  0
  2  1  1  0  0  0  0
  3  1  1  0  0  0  0
  4  5  1  0  0  0  0
  4  8  2  0  0  0  0
  5  6  2  0  0  0  0
  6  7  1  0  0  0  0
  6 10  1  0  0  0  0
  7 11  1  0  0  0  0
  8  7  1  0  0  0  0
  9  5  1  0  0  0  0
 11 12  1  0  0  0  0
 12 13  2  0  0  0  0
 12 17  1  0  0  0  0
 13 18  1  0  0  0  0
 14 19  1  0  0  0  0
 14 13  1  0  0  0  0
 15 14  2  0  0  0  0
 16 15  1  0  0  0  0
 16 11  2  0  0  0  0
 20 15  1  0  0  0  0
 21 16  1  0  0  0  0
 22 25  1  0  0  0  0
 23 22  1  0  0  0  0
 24 22  1  0  0  0  0
 25 26  2  0  0  0  0
 25 30  1  0  0  0  0
 26 27  1  0  0  0  0
 27 32  1  0  0  0  0
 27 28  2  0  0  0  0
 29 28  1  0  0  0  0
 29 33  1  0  0  0  0
 30 29  2  0  0  0  0
 31 26  1  0  0  0  0
 33 34  1  0  0  0  0
 34 35  2  0  0  0  0
 35 36  1  0  0  0  0
 37 35  1  0  0  0  0
 38 37  2  0  0  0  0
 39 33  2  0  0  0  0
 39 38  1  0  0  0  0
M  END
>  <minimizedAffinity>
-5.95590782

$$$$

 OpenBabel03272504053D

 39 42  0  0  0  0  0  0  0  0999 V2000
   36.6770   26.5320   31.8460 C   0  0  0  0  0  0  0  0  0  0  0  0
   36.1330   27.4670   31.6970 H   0  0  0  0  0  0  0  0  0  0  0  0
   37.6260   26.6640   31.2460 H   0  0  0  0  0  0  0  0  0  0  0  0
   37.1390   26.3630   33.2410 C   0  0  0  0  0  0  0  0  0  0  0  0
   37.0110   27.3850   34.1910 C   0  0  0  0  0  0  0  0  0  0  0  0
   37.5210   26.9350   35.3700 C   0  0  0  0  0  0  0  0  0  0  0  0
   37.9460   25.6860   35.1560 N   0  0  0  0  0  0  0  0  0  0  0  0
   37.7060   25.3770   33.8910 N   0  0  0  0  0  0  0  0  0  0  0  0
   36.5930   28.4000   34.1130 H   0  0  0  0  0  0  0  0  0  0  0  0
   37.6320   27.3740   36.3600 H   0  0  0  0  0  0  0  0  0  0  0  0
   38.5630   24.7210   36.0070 C   0  0  0  0  0  0  0  0  0  0  0  0
   37.9510   24.5500   37.2440 C   0  0  0  0  0  0  0  0  0  0  0  0
   38.4320   23.6410   38.1920 C   0  0  0  0  0  0  0  0  0  0  0  0
   39.5590   22.9100   37.8460 C   0  0  0  0  0  0  0  0  0  0  0  0
   40.1570   23.0870   36.6210 C   0  0  0  0  0  0  0  0  0  0  0  0
   39.6760   23.9840   35.6900 C   0  0  0  0  0  0  0  0  0  0  0  0
   37.0690   25.1050   37.5480 H   0  0  0  0  0  0  0  0  0  0  0  0
   37.9360   23.5300   39.1440 H   0  0  0  0  0  0  0  0  0  0  0  0
   39.9760   22.1880   38.5500 H   0  0  0  0  0  0  0  0  0  0  0  0
   41.0350   22.5420   36.3030 H   0  0  0  0  0  0  0  0  0  0  0  0
   40.1050   24.1610   34.7170 H   0  0  0  0  0  0  0  0  0  0  0  0
   36.0020   25.3340   31.3040 C   0  0  0  0  0  0  0  0  0  0  0  0
   35.1440   25.1200   32.0030 H   0  0  0  0  0  0  0  0  0  0  0  0
   35.4850   25.6470   30.3690 H   0  0  0  0  0  0  0  0  0  0  0  0
   36.7890   24.1750   30.9940 C   0  0  0  0  0  0  0  0  0  0  0  0
   37.9830   24.3190   30.3370 C   0  0  0  0  0  0  0  0  0  0  0  0
   38.7710   23.1860   30.0230 C   0  0  0  0  0  0  0  0  0  0  0  0
   38.2580   21.9690   30.4170 N   0  0  0  0  0  0  0  0  0  0  0  0
   37.0690   21.8890   31.0640 C   0  0  0  0  0  0  0  0  0  0  0  0
   36.3370   22.9780   31.3520 N   0  0  0  0  0  0  0  0  0  0  0  0
   38.3590   25.2890   30.0410 H   0  0  0  0  0  0  0  0  0  0  0  0
   39.7020   23.2930   29.5110 H   0  0  0  0  0  0  0  0  0  0  0  0
   36.5740   20.5730   31.4570 C   0  0  0  0  0  0  0  0  0  0  0  0
   35.2660   20.3980   31.8560 C   0  0  0  0  0  3  0  0  0  0  0  0
   34.7340   19.1850   32.2400 C   0  0  0  0  0  0  0  0  0  0  0  0
   33.7070   19.0940   32.5430 H   0  0  0  0  0  0  0  0  0  0  0  0
   35.5710   18.1400   32.2100 N   0  0  0  0  0  0  0  0  0  0  0  0
   36.8650   18.2600   31.8270 C   0  0  0  0  0  3  0  0  0  0  0  0
   37.3420   19.4740   31.4590 N   0  0  0  0  0  0  0  0  0  0  0  0
  1  4  1  0  0  0  0
  2  1  1  0  0  0  0
  3  1  1  0  0  0  0
  4  8  2  0  0  0  0
  4  5  1  0  0  0  0
  5  6  2  0  0  0  0
  6 10  1  0  0  0  0
  7  6  1  0  0  0  0
  7 11  1  0  0  0  0
  8  7  1  0  0  0  0
  9  5  1  0  0  0  0
 11 12  1  0  0  0  0
 12 17  1  0  0  0  0
 12 13  2  0  0  0  0
 13 18  1  0  0  0  0
 14 13  1  0  0  0  0
 14 19  1  0  0  0  0
 15 14  2  0  0  0  0
 16 11  2  0  0  0  0
 16 15  1  0  0  0  0
 20 15  1  0  0  0  0
 21 16  1  0  0  0  0
 22  1  1  0  0  0  0
 22 23  1  0  0  0  0
 24 22  1  0  0  0  0
 25 22  1  0  0  0  0
 25 30  1  0  0  0  0
 26 25  2  0  0  0  0
 27 26  1  0  0  0  0
 27 28  2  0  0  0  0
 28 29  1  0  0  0  0
 29 30  2  0  0  0  0
 29 33  1  0  0  0  0
 31 26  1  0  0  0  0
 32 27  1  0  0  0  0
 33 39  2  0  0  0  0
 33 34  1  0  0  0  0
 34 35  2  0  0  0  0
 35 36  1  0  0  0  0
 37 35  1  0  0  0  0
 38 37  2  0  0  0  0
 39 38  1  0  0  0  0
M  END
>  <minimizedAffinity>
-5.85388708

$$$$

 OpenBabel03272504053D

 39 42  0  0  0  0  0  0  0  0999 V2000
   37.7110   26.2880   33.5920 C   0  0  0  0  0  0  0  0  0  0  0  0
   37.1330   25.3640   33.5300 H   0  0  0  0  0  0  0  0  0  0  0  0
   38.2730   26.3300   32.6130 H   0  0  0  0  0  0  0  0  0  0  0  0
   36.8520   27.4920   33.5800 C   0  0  0  0  0  0  0  0  0  0  0  0
   36.3780   28.0510   32.3860 C   0  0  0  0  0  0  0  0  0  0  0  0
   35.6230   29.1400   32.6970 C   0  0  0  0  0  0  0  0  0  0  0  0
   35.6310   29.2490   34.0280 N   0  0  0  0  0  0  0  0  0  0  0  0
   36.3630   28.2620   34.5210 N   0  0  0  0  0  0  0  0  0  0  0  0
   36.5240   27.7510   31.3370 H   0  0  0  0  0  0  0  0  0  0  0  0
   35.0680   29.8660   32.1050 H   0  0  0  0  0  0  0  0  0  0  0  0
   35.0230   30.1820   34.9200 C   0  0  0  0  0  0  0  0  0  0  0  0
   35.8990   31.0790   35.5210 C   0  0  0  0  0  0  0  0  0  0  0  0
   35.4610   32.0570   36.4200 C   0  0  0  0  0  0  0  0  0  0  0  0
   34.1020   32.0970   36.6920 C   0  0  0  0  0  0  0  0  0  0  0  0
   33.2440   31.2060   36.0920 C   0  0  0  0  0  0  0  0  0  0  0  0
   33.6820   30.2440   35.2060 C   0  0  0  0  0  0  0  0  0  0  0  0
   36.9680   31.0760   35.3330 H   0  0  0  0  0  0  0  0  0  0  0  0
   36.1650   32.7390   36.8720 H   0  0  0  0  0  0  0  0  0  0  0  0
   33.7070   32.8400   37.3870 H   0  0  0  0  0  0  0  0  0  0  0  0
   32.1760   31.1960   36.2700 H   0  0  0  0  0  0  0  0  0  0  0  0
   33.0530   29.5230   34.7090 H   0  0  0  0  0  0  0  0  0  0  0  0
   38.7290   26.3060   34.6620 C   0  0  0  0  0  0  0  0  0  0  0  0
   39.7180   26.4690   34.1460 H   0  0  0  0  0  0  0  0  0  0  0  0
   38.5890   27.2560   35.2280 H   0  0  0  0  0  0  0  0  0  0  0  0
   38.7530   25.2360   35.6170 C   0  0  0  0  0  0  0  0  0  0  0  0
   37.7730   25.1530   36.5720 C   0  0  0  0  0  0  0  0  0  0  0  0
   37.7820   24.1030   37.5210 C   0  0  0  0  0  0  0  0  0  0  0  0
   38.8200   23.2030   37.4120 N   0  0  0  0  0  0  0  0  0  0  0  0
   39.7610   23.3370   36.4460 C   0  0  0  0  0  0  0  0  0  0  0  0
   39.7340   24.3410   35.5540 N   0  0  0  0  0  0  0  0  0  0  0  0
   36.9720   25.8760   36.6310 H   0  0  0  0  0  0  0  0  0  0  0  0
   37.0210   24.0340   38.2670 H   0  0  0  0  0  0  0  0  0  0  0  0
   40.8390   22.3530   36.3770 C   0  0  0  0  0  0  0  0  0  0  0  0
   41.4710   22.0750   35.1850 C   0  0  0  0  0  3  0  0  0  0  0  0
   42.4930   21.1600   35.0490 C   0  0  0  0  0  0  0  0  0  0  0  0
   42.9580   20.9750   34.0980 H   0  0  0  0  0  0  0  0  0  0  0  0
   42.8640   20.5230   36.1680 N   0  0  0  0  0  0  0  0  0  0  0  0
   42.2740   20.7590   37.3650 C   0  0  0  0  0  3  0  0  0  0  0  0
   41.2720   21.6690   37.4460 N   0  0  0  0  0  0  0  0  0  0  0  0
  1 22  1  0  0  0  0
  2  1  1  0  0  0  0
  3  1  1  0  0  0  0
  4  1  1  0  0  0  0
  4  8  2  0  0  0  0
  5  6  2  0  0  0  0
  5  4  1  0  0  0  0
  6  7  1  0  0  0  0
  7  8  1  0  0  0  0
  7 11  1  0  0  0  0
  9  5  1  0  0  0  0
 10  6  1  0  0  0  0
 11 16  2  0  0  0  0
 11 12  1  0  0  0  0
 12 13  2  0  0  0  0
 13 14  1  0  0  0  0
 13 18  1  0  0  0  0
 14 19  1  0  0  0  0
 15 20  1  0  0  0  0
 15 14  2  0  0  0  0
 16 15  1  0  0  0  0
 17 12  1  0  0  0  0
 21 16  1  0  0  0  0
 22 24  1  0  0  0  0
 22 25  1  0  0  0  0
 23 22  1  0  0  0  0
 25 26  1  0  0  0  0
 26 31  1  0  0  0  0
 26 27  2  0  0  0  0
 27 32  1  0  0  0  0
 28 27  1  0  0  0  0
 29 28  2  0  0  0  0
 30 25  2  0  0  0  0
 30 29  1  0  0  0  0
 33 29  1  0  0  0  0
 33 39  1  0  0  0  0
 34 33  2  0  0  0  0
 35 34  1  0  0  0  0
 35 37  2  0  0  0  0
 36 35  1  0  0  0  0
 37 38  1  0  0  0  0
 38 39  2  0  0  0  0
M  END
>  <minimizedAffinity>
-5.81316853

$$$$

 OpenBabel03272504053D

 39 42  0  0  0  0  0  0  0  0999 V2000
   38.4870   25.7730   33.9400 C   0  0  0  0  0  0  0  0  0  0  0  0
   39.5380   25.5070   33.8160 H   0  0  0  0  0  0  0  0  0  0  0  0
   38.4070   26.8080   33.4930 H   0  0  0  0  0  0  0  0  0  0  0  0
   37.5920   24.9400   33.1070 C   0  0  0  0  0  0  0  0  0  0  0  0
   36.6740   25.5050   32.2130 C   0  0  0  0  0  0  0  0  0  0  0  0
   36.0010   24.4940   31.5980 C   0  0  0  0  0  0  0  0  0  0  0  0
   36.4850   23.3510   32.0920 N   0  0  0  0  0  0  0  0  0  0  0  0
   37.4220   23.6470   32.9800 N   0  0  0  0  0  0  0  0  0  0  0  0
   36.4510   26.5560   31.9700 H   0  0  0  0  0  0  0  0  0  0  0  0
   35.2150   24.4600   30.8460 H   0  0  0  0  0  0  0  0  0  0  0  0
   36.1740   21.9830   31.8320 C   0  0  0  0  0  0  0  0  0  0  0  0
   37.0630   21.3260   30.9900 C   0  0  0  0  0  0  0  0  0  0  0  0
   36.9000   19.9830   30.6370 C   0  0  0  0  0  0  0  0  0  0  0  0
   35.8010   19.3240   31.1670 C   0  0  0  0  0  0  0  0  0  0  0  0
   34.9270   19.9810   32.0000 C   0  0  0  0  0  0  0  0  0  0  0  0
   35.0950   21.3070   32.3440 C   0  0  0  0  0  0  0  0  0  0  0  0
   37.9330   21.8100   30.5560 H   0  0  0  0  0  0  0  0  0  0  0  0
   37.6070   19.5000   29.9800 H   0  0  0  0  0  0  0  0  0  0  0  0
   35.6260   18.2740   30.9240 H   0  0  0  0  0  0  0  0  0  0  0  0
   34.0570   19.5130   32.4390 H   0  0  0  0  0  0  0  0  0  0  0  0
   34.4410   21.8690   32.9920 H   0  0  0  0  0  0  0  0  0  0  0  0
   38.0410   25.8870   35.3440 C   0  0  0  0  0  0  0  0  0  0  0  0
   38.2990   26.9360   35.6660 H   0  0  0  0  0  0  0  0  0  0  0  0
   36.9270   25.9020   35.3310 H   0  0  0  0  0  0  0  0  0  0  0  0
   38.4480   24.8840   36.2850 C   0  0  0  0  0  0  0  0  0  0  0  0
   37.8250   24.8010   37.5030 C   0  0  0  0  0  0  0  0  0  0  0  0
   38.2140   23.8190   38.4440 C   0  0  0  0  0  0  0  0  0  0  0  0
   39.2350   22.9810   38.0500 N   0  0  0  0  0  0  0  0  0  0  0  0
   39.8140   23.1110   36.8310 C   0  0  0  0  0  0  0  0  0  0  0  0
   39.4280   24.0520   35.9530 N   0  0  0  0  0  0  0  0  0  0  0  0
   37.0260   25.4750   37.7820 H   0  0  0  0  0  0  0  0  0  0  0  0
   37.7320   23.7500   39.3940 H   0  0  0  0  0  0  0  0  0  0  0  0
   40.8920   22.1950   36.4670 C   0  0  0  0  0  0  0  0  0  0  0  0
   41.2980   22.0640   35.1570 C   0  0  0  0  0  3  0  0  0  0  0  0
   42.3070   21.2200   34.7440 C   0  0  0  0  0  0  0  0  0  0  0  0
   42.5920   21.1500   33.7100 H   0  0  0  0  0  0  0  0  0  0  0  0
   42.9020   20.5010   35.7050 N   0  0  0  0  0  0  0  0  0  0  0  0
   42.5390   20.5930   37.0070 C   0  0  0  0  0  3  0  0  0  0  0  0
   41.5410   21.4380   37.3630 N   0  0  0  0  0  0  0  0  0  0  0  0
  1 22  1  0  0  0  0
  2  1  1  0  0  0  0
  3  1  1  0  0  0  0
  4  1  1  0  0  0  0
  5  4  1  0  0  0  0
  6  7  1  0  0  0  0
  6  5  2  0  0  0  0
  7  8  1  0  0  0  0
  8  4  2  0  0  0  0
  9  5  1  0  0  0  0
 10  6  1  0  0  0  0
 11  7  1  0  0  0  0
 11 16  1  0  0  0  0
 12 11  2  0  0  0  0
 13 12  1  0  0  0  0
 13 14  2  0  0  0  0
 14 15  1  0  0  0  0
 15 16  2  0  0  0  0
 15 20  1  0  0  0  0
 16 21  1  0  0  0  0
 17 12  1  0  0  0  0
 18 13  1  0  0  0  0
 19 14  1  0  0  0  0
 22 23  1  0  0  0  0
 22 25  1  0  0  0  0
 24 22  1  0  0  0  0
 25 26  1  0  0  0  0
 26 31  1  0  0  0  0
 26 27  2  0  0  0  0
 27 32  1  0  0  0  0
 28 27  1  0  0  0  0
 29 28  2  0  0  0  0
 30 25  2  0  0  0  0
 30 29  1  0  0  0  0
 33 29  1  0  0  0  0
 33 39  1  0  0  0  0
 34 33  2  0  0  0  0
 35 34  1  0  0  0  0
 35 37  2  0  0  0  0
 36 35  1  0  0  0  0
 37 38  1  0  0  0  0
 38 39  2  0  0  0  0
M  END
>  <minimizedAffinity>
-5.80303288

$$$$

 OpenBabel03272504053D

 39 42  0  0  0  0  0  0  0  0999 V2000
   36.1970   26.6370   31.8360 C   0  0  0  0  0  0  0  0  0  0  0  0
   35.6850   25.8900   32.4470 H   0  0  0  0  0  0  0  0  0  0  0  0
   35.6480   26.6120   30.8490 H   0  0  0  0  0  0  0  0  0  0  0  0
   35.9940   28.0130   32.3400 C   0  0  0  0  0  0  0  0  0  0  0  0
   36.2700   29.1370   31.5520 C   0  0  0  0  0  0  0  0  0  0  0  0
   35.9870   30.2490   32.2840 C   0  0  0  0  0  0  0  0  0  0  0  0
   35.5540   29.8280   33.4750 N   0  0  0  0  0  0  0  0  0  0  0  0
   35.5690   28.5040   33.4780 N   0  0  0  0  0  0  0  0  0  0  0  0
   36.6470   29.2260   30.5210 H   0  0  0  0  0  0  0  0  0  0  0  0
   36.0470   31.3180   32.0850 H   0  0  0  0  0  0  0  0  0  0  0  0
   35.1160   30.5250   34.6400 C   0  0  0  0  0  0  0  0  0  0  0  0
   33.7720   30.3620   34.9550 C   0  0  0  0  0  0  0  0  0  0  0  0
   33.1880   30.9780   36.0660 C   0  0  0  0  0  0  0  0  0  0  0  0
   34.0120   31.7700   36.8510 C   0  0  0  0  0  0  0  0  0  0  0  0
   35.3400   31.9250   36.5330 C   0  0  0  0  0  0  0  0  0  0  0  0
   35.9100   31.3140   35.4350 C   0  0  0  0  0  0  0  0  0  0  0  0
   33.0970   29.7510   34.3630 H   0  0  0  0  0  0  0  0  0  0  0  0
   32.1400   30.8320   36.2840 H   0  0  0  0  0  0  0  0  0  0  0  0
   33.6070   32.2740   37.7300 H   0  0  0  0  0  0  0  0  0  0  0  0
   36.0250   32.5300   37.1110 H   0  0  0  0  0  0  0  0  0  0  0  0
   36.9440   31.4020   35.1400 H   0  0  0  0  0  0  0  0  0  0  0  0
   37.6100   26.3250   31.5380 C   0  0  0  0  0  0  0  0  0  0  0  0
   37.6000   25.3490   30.9750 H   0  0  0  0  0  0  0  0  0  0  0  0
   37.9470   27.0520   30.7640 H   0  0  0  0  0  0  0  0  0  0  0  0
   38.5690   26.3580   32.6050 C   0  0  0  0  0  0  0  0  0  0  0  0
   39.6660   27.1740   32.5100 C   0  0  0  0  0  0  0  0  0  0  0  0
   40.6210   27.2180   33.5530 C   0  0  0  0  0  0  0  0  0  0  0  0
   40.3680   26.4030   34.6350 N   0  0  0  0  0  0  0  0  0  0  0  0
   39.2640   25.6170   34.6730 C   0  0  0  0  0  0  0  0  0  0  0  0
   38.3700   25.5900   33.6710 N   0  0  0  0  0  0  0  0  0  0  0  0
   39.8360   27.8020   31.6460 H   0  0  0  0  0  0  0  0  0  0  0  0
   41.4780   27.8520   33.4830 H   0  0  0  0  0  0  0  0  0  0  0  0
   39.0470   24.7720   35.8450 C   0  0  0  0  0  0  0  0  0  0  0  0
   39.8340   23.6650   36.0770 C   0  0  0  0  0  3  0  0  0  0  0  0
   39.6830   22.8270   37.1610 C   0  0  0  0  0  0  0  0  0  0  0  0
   40.3210   21.9730   37.3030 H   0  0  0  0  0  0  0  0  0  0  0  0
   38.7010   23.1410   38.0160 N   0  0  0  0  0  0  0  0  0  0  0  0
   37.8990   24.2180   37.8320 C   0  0  0  0  0  3  0  0  0  0  0  0
   38.0870   25.0120   36.7500 N   0  0  0  0  0  0  0  0  0  0  0  0
  1  4  1  0  0  0  0
  1  2  1  0  0  0  0
  3  1  1  0  0  0  0
  4  8  2  0  0  0  0
  5  6  2  0  0  0  0
  5  4  1  0  0  0  0
  6  7  1  0  0  0  0
  7  8  1  0  0  0  0
  7 11  1  0  0  0  0
  9  5  1  0  0  0  0
 10  6  1  0  0  0  0
 11 12  2  0  0  0  0
 11 16  1  0  0  0  0
 12 13  1  0  0  0  0
 13 18  1  0  0  0  0
 13 14  2  0  0  0  0
 14 19  1  0  0  0  0
 15 14  1  0  0  0  0
 15 20  1  0  0  0  0
 16 15  2  0  0  0  0
 17 12  1  0  0  0  0
 21 16  1  0  0  0  0
 22  1  1  0  0  0  0
 22 25  1  0  0  0  0
 23 22  1  0  0  0  0
 24 22  1  0  0  0  0
 25 30  1  0  0  0  0
 26 25  2  0  0  0  0
 26 27  1  0  0  0  0
 27 28  2  0  0  0  0
 28 29  1  0  0  0  0
 29 33  1  0  0  0  0
 30 29  2  0  0  0  0
 31 26  1  0  0  0  0
 32 27  1  0  0  0  0
 33 34  2  0  0  0  0
 33 39  1  0  0  0  0
 34 35  1  0  0  0  0
 35 36  1  0  0  0  0
 35 37  2  0  0  0  0
 38 37  1  0  0  0  0
 39 38  2  0  0  0  0
M  END
>  <minimizedAffinity>
-5.77015638

$$$$

 OpenBabel03272504053D

 39 42  0  0  0  0  0  0  0  0999 V2000
   37.5650   25.6410   35.8970 C   0  0  0  0  0  0  0  0  0  0  0  0
   36.5340   25.5490   36.2430 H   0  0  0  0  0  0  0  0  0  0  0  0
   37.9250   26.6130   36.3490 H   0  0  0  0  0  0  0  0  0  0  0  0
   38.4510   24.6100   36.4810 C   0  0  0  0  0  0  0  0  0  0  0  0
   38.1150   23.9260   37.6570 C   0  0  0  0  0  0  0  0  0  0  0  0
   39.1170   23.0500   37.9400 C   0  0  0  0  0  0  0  0  0  0  0  0
   40.0340   23.1870   36.9770 N   0  0  0  0  0  0  0  0  0  0  0  0
   39.6120   24.1140   36.1310 N   0  0  0  0  0  0  0  0  0  0  0  0
   37.2340   24.0010   38.3130 H   0  0  0  0  0  0  0  0  0  0  0  0
   39.2840   22.3270   38.7370 H   0  0  0  0  0  0  0  0  0  0  0  0
   41.2860   22.5430   36.7430 C   0  0  0  0  0  0  0  0  0  0  0  0
   42.2180   23.3030   36.0480 C   0  0  0  0  0  0  0  0  0  0  0  0
   43.4930   22.8170   35.7390 C   0  0  0  0  0  0  0  0  0  0  0  0
   43.7930   21.5300   36.1580 C   0  0  0  0  0  0  0  0  0  0  0  0
   42.8640   20.7860   36.8450 C   0  0  0  0  0  0  0  0  0  0  0  0
   41.6080   21.2710   37.1470 C   0  0  0  0  0  0  0  0  0  0  0  0
   42.0180   24.3140   35.7040 H   0  0  0  0  0  0  0  0  0  0  0  0
   44.1960   23.4320   35.1970 H   0  0  0  0  0  0  0  0  0  0  0  0
   44.7730   21.1020   35.9430 H   0  0  0  0  0  0  0  0  0  0  0  0
   43.0470   19.7780   37.1940 H   0  0  0  0  0  0  0  0  0  0  0  0
   40.8440   20.7320   37.6830 H   0  0  0  0  0  0  0  0  0  0  0  0
   37.7150   25.7790   34.4340 C   0  0  0  0  0  0  0  0  0  0  0  0
   38.8070   25.6040   34.2160 H   0  0  0  0  0  0  0  0  0  0  0  0
   37.2270   24.8910   33.9720 H   0  0  0  0  0  0  0  0  0  0  0  0
   37.1840   26.9460   33.7890 C   0  0  0  0  0  0  0  0  0  0  0  0
   37.3260   27.0980   32.4340 C   0  0  0  0  0  0  0  0  0  0  0  0
   36.8090   28.2430   31.7810 C   0  0  0  0  0  0  0  0  0  0  0  0
   36.1740   29.1600   32.5910 N   0  0  0  0  0  0  0  0  0  0  0  0
   36.0640   28.9540   33.9260 C   0  0  0  0  0  0  0  0  0  0  0  0
   36.5620   27.8600   34.5250 N   0  0  0  0  0  0  0  0  0  0  0  0
   37.8300   26.3590   31.8260 H   0  0  0  0  0  0  0  0  0  0  0  0
   36.9170   28.3660   30.7260 H   0  0  0  0  0  0  0  0  0  0  0  0
   35.3800   29.9610   34.7350 C   0  0  0  0  0  0  0  0  0  0  0  0
   34.0060   30.0520   34.7390 C   0  0  0  0  0  3  0  0  0  0  0  0
   33.2980   30.9760   35.4780 C   0  0  0  0  0  0  0  0  0  0  0  0
   32.2230   31.0120   35.4520 H   0  0  0  0  0  0  0  0  0  0  0  0
   34.0270   31.8180   36.2220 N   0  0  0  0  0  0  0  0  0  0  0  0
   35.3810   31.7700   36.2510 C   0  0  0  0  0  3  0  0  0  0  0  0
   36.0320   30.8420   35.5070 N   0  0  0  0  0  0  0  0  0  0  0  0
  1  2  1  0  0  0  0
  1  3  1  0  0  0  0
  1  4  1  0  0  0  0
  4  5  1  0  0  0  0
  5  6  2  0  0  0  0
  5  9  1  0  0  0  0
  6 10  1  0  0  0  0
  7  6  1  0  0  0  0
  8  4  2  0  0  0  0
  8  7  1  0  0  0  0
 11  7  1  0  0  0  0
 11 16  1  0  0  0  0
 12 11  2  0  0  0  0
 13 12  1  0  0  0  0
 13 14  2  0  0  0  0
 14 15  1  0  0  0  0
 15 16  2  0  0  0  0
 15 20  1  0  0  0  0
 16 21  1  0  0  0  0
 17 12  1  0  0  0  0
 18 13  1  0  0  0  0
 19 14  1  0  0  0  0
 22  1  1  0  0  0  0
 23 22  1  0  0  0  0
 24 22  1  0  0  0  0
 25 22  1  0  0  0  0
 25 30  1  0  0  0  0
 26 25  2  0  0  0  0
 27 26  1  0  0  0  0
 27 28  2  0  0  0  0
 28 29  1  0  0  0  0
 29 30  2  0  0  0  0
 29 33  1  0  0  0  0
 31 26  1  0  0  0  0
 32 27  1  0  0  0  0
 33 34  2  0  0  0  0
 33 39  1  0  0  0  0
 34 35  1  0  0  0  0
 35 37  2  0  0  0  0
 36 35  1  0  0  0  0
 37 38  1  0  0  0  0
 39 38  2  0  0  0  0
M  END
>  <minimizedAffinity>
-5.73345613

$$$$

 OpenBabel03272504053D

 39 42  0  0  0  0  0  0  0  0999 V2000
   35.7320   26.2470   31.1360 C   0  0  0  0  0  0  0  0  0  0  0  0
   35.6700   26.6440   30.1210 H   0  0  0  0  0  0  0  0  0  0  0  0
   34.6550   26.1630   31.4690 H   0  0  0  0  0  0  0  0  0  0  0  0
   36.2410   24.8590   31.1710 C   0  0  0  0  0  0  0  0  0  0  0  0
   37.5050   24.5220   30.6710 C   0  0  0  0  0  0  0  0  0  0  0  0
   37.6860   23.1830   30.8410 C   0  0  0  0  0  0  0  0  0  0  0  0
   36.5790   22.7140   31.4230 N   0  0  0  0  0  0  0  0  0  0  0  0
   35.7450   23.7260   31.6050 N   0  0  0  0  0  0  0  0  0  0  0  0
   38.2900   25.1390   30.2060 H   0  0  0  0  0  0  0  0  0  0  0  0
   38.4990   22.4970   30.6080 H   0  0  0  0  0  0  0  0  0  0  0  0
   36.1930   21.4050   31.8410 C   0  0  0  0  0  0  0  0  0  0  0  0
   36.3090   20.4180   30.8700 C   0  0  0  0  0  0  0  0  0  0  0  0
   35.9720   19.0840   31.1210 C   0  0  0  0  0  0  0  0  0  0  0  0
   35.5100   18.7820   32.3930 C   0  0  0  0  0  0  0  0  0  0  0  0
   35.3990   19.7650   33.3470 C   0  0  0  0  0  0  0  0  0  0  0  0
   35.7340   21.0790   33.0930 C   0  0  0  0  0  0  0  0  0  0  0  0
   36.6660   20.6180   29.8640 H   0  0  0  0  0  0  0  0  0  0  0  0
   36.0730   18.3390   30.3460 H   0  0  0  0  0  0  0  0  0  0  0  0
   35.2330   17.7560   32.6420 H   0  0  0  0  0  0  0  0  0  0  0  0
   35.0460   19.5820   34.3530 H   0  0  0  0  0  0  0  0  0  0  0  0
   35.6660   21.8870   33.8030 H   0  0  0  0  0  0  0  0  0  0  0  0
   36.4010   27.1400   32.1050 C   0  0  0  0  0  0  0  0  0  0  0  0
   36.3780   26.5970   33.0940 H   0  0  0  0  0  0  0  0  0  0  0  0
   37.4860   27.1400   31.8520 H   0  0  0  0  0  0  0  0  0  0  0  0
   35.9800   28.5080   32.1950 C   0  0  0  0  0  0  0  0  0  0  0  0
   36.0110   29.3050   31.0800 C   0  0  0  0  0  0  0  0  0  0  0  0
   35.5990   30.6570   31.1510 C   0  0  0  0  0  0  0  0  0  0  0  0
   35.1800   31.0920   32.3900 N   0  0  0  0  0  0  0  0  0  0  0  0
   35.1710   30.2580   33.4580 C   0  0  0  0  0  0  0  0  0  0  0  0
   35.5670   28.9770   33.3680 N   0  0  0  0  0  0  0  0  0  0  0  0
   36.3460   28.9320   30.1220 H   0  0  0  0  0  0  0  0  0  0  0  0
   35.6220   31.2810   30.2860 H   0  0  0  0  0  0  0  0  0  0  0  0
   34.7170   30.7740   34.7470 C   0  0  0  0  0  0  0  0  0  0  0  0
   33.4350   30.5360   35.1930 C   0  0  0  0  0  3  0  0  0  0  0  0
   32.9420   30.9930   36.3970 C   0  0  0  0  0  0  0  0  0  0  0  0
   31.9340   30.7840   36.7070 H   0  0  0  0  0  0  0  0  0  0  0  0
   33.7910   31.7080   37.1470 N   0  0  0  0  0  0  0  0  0  0  0  0
   35.0610   31.9710   36.7520 C   0  0  0  0  0  3  0  0  0  0  0  0
   35.4990   31.4990   35.5590 N   0  0  0  0  0  0  0  0  0  0  0  0
  1  4  1  0  0  0  0
  1  3  1  0  0  0  0
  1 22  1  0  0  0  0
  2  1  1  0  0  0  0
  4  8  2  0  0  0  0
  5  6  2  0  0  0  0
  5  4  1  0  0  0  0
  6  7  1  0  0  0  0
  7  8  1  0  0  0  0
  7 11  1  0  0  0  0
  9  5  1  0  0  0  0
 10  6  1  0  0  0  0
 11 16  1  0  0  0  0
 12 13  1  0  0  0  0
 12 11  2  0  0  0  0
 13 14  2  0  0  0  0
 14 19  1  0  0  0  0
 14 15  1  0  0  0  0
 15 20  1  0  0  0  0
 16 15  2  0  0  0  0
 16 21  1  0  0  0  0
 17 12  1  0  0  0  0
 18 13  1  0  0  0  0
 22 25  1  0  0  0  0
 22 23  1  0  0  0  0
 24 22  1  0  0  0  0
 25 30  1  0  0  0  0
 26 27  1  0  0  0  0
 26 25  2  0  0  0  0
 27 28  2  0  0  0  0
 28 29  1  0  0  0  0
 29 33  1  0  0  0  0
 30 29  2  0  0  0  0
 31 26  1  0  0  0  0
 32 27  1  0  0  0  0
 33 34  2  0  0  0  0
 33 39  1  0  0  0  0
 34 35  1  0  0  0  0
 35 36  1  0  0  0  0
 35 37  2  0  0  0  0
 38 37  1  0  0  0  0
 39 38  2  0  0  0  0
M  END
>  <minimizedAffinity>
-5.68451214

$$$$
