
 OpenBabel03272506483D

 40 43  0  0  1  0  0  0  0  0999 V2000
   32.1770   28.4710   47.4750 C   0  0  2  0  0  0  0  0  0  0  0  0
   33.4340   28.2690   48.2680 C   0  0  1  0  0  0  0  0  0  0  0  0
   33.8080   26.9660   48.1370 O   0  0  0  0  0  0  0  0  0  0  0  0
   33.0710   26.3720   47.1180 C   0  0  0  0  0  0  0  0  0  0  0  0
   32.4680   27.4890   46.3000 C   0  0  1  0  0  0  0  0  0  0  0  0
   31.2600   28.1330   47.9510 H   0  0  0  0  0  0  0  0  0  0  0  0
   33.2880   28.5630   49.3310 H   0  0  0  0  0  0  0  0  0  0  0  0
   32.3730   25.7000   47.5990 H   0  0  0  0  0  0  0  0  0  0  0  0
   33.7820   25.7730   46.4650 H   0  0  0  0  0  0  0  0  0  0  0  0
   33.2050   27.9570   45.6530 H   0  0  0  0  0  0  0  0  0  0  0  0
   32.1140   29.7860   46.9720 O   0  0  0  0  0  0  0  0  0  0  0  0
   32.5320   30.4050   47.6210 H   0  0  0  0  0  0  0  0  0  0  0  0
   34.7450   29.3080   47.5030 S   0  0  0  0  0  0  0  0  0  0  0  0
   37.1300   29.2940   50.6660 C   0  0  0  0  0  0  0  0  0  0  0  0
   37.6030   30.6010   50.7720 C   0  0  0  0  0  0  0  0  0  0  0  0
   37.1640   31.5330   49.8160 C   0  0  0  0  0  0  0  0  0  0  0  0
   36.3060   31.1140   48.8470 N   0  0  0  0  0  0  0  0  0  0  0  0
   35.8730   29.8360   48.7860 C   0  0  0  0  0  0  0  0  0  0  0  0
   36.2780   28.9090   49.6930 N   0  0  0  0  0  0  0  0  0  0  0  0
   37.5010   28.6220   51.4270 H   0  0  0  0  0  0  0  0  0  0  0  0
   38.2850   30.8890   51.5590 H   0  0  0  0  0  0  0  0  0  0  0  0
   37.5020   32.5590   49.8530 H   0  0  0  0  0  0  0  0  0  0  0  0
   31.3040   27.0470   45.7220 O   0  0  0  0  0  0  0  0  0  0  0  0
   30.0200   29.3370   44.3930 Cl  0  0  0  0  0  0  0  0  0  0  0  0
   29.3730   28.3030   45.6470 C   0  0  0  0  0  0  0  0  0  0  0  0
   30.0740   27.2460   46.1840 C   0  0  0  0  0  0  0  0  0  0  0  0
   29.4430   26.4720   47.1600 C   0  0  0  0  0  0  0  0  0  0  0  0
   28.1580   26.7650   47.5680 C   0  0  0  0  0  0  0  0  0  0  0  0
   27.4480   27.8260   47.0330 C   0  0  0  0  0  0  0  0  0  0  0  0
   28.0710   28.5920   46.0670 C   0  0  0  0  0  0  0  0  0  0  0  0
   29.9020   25.6240   47.6370 H   0  0  0  0  0  0  0  0  0  0  0  0
   27.6720   26.1660   48.3230 H   0  0  0  0  0  0  0  0  0  0  0  0
   26.4490   28.0040   47.3920 H   0  0  0  0  0  0  0  0  0  0  0  0
   27.3750   29.7230   45.4660 C   0  0  0  0  0  0  0  0  0  0  0  0
   26.7100   29.6570   44.2700 C   0  0  0  0  0  3  0  0  0  0  0  0
   26.0450   30.7250   43.6880 C   0  0  0  0  0  0  0  0  0  0  0  0
   25.5330   30.6400   42.7480 H   0  0  0  0  0  0  0  0  0  0  0  0
   26.0400   31.9140   44.3260 N   0  0  0  0  0  0  0  0  0  0  0  0
   26.6880   32.0020   45.5020 C   0  0  0  0  0  3  0  0  0  0  0  0
   27.3240   30.9460   46.0390 N   0  0  0  0  0  0  0  0  0  0  0  0
  1  6  1  1  0  0  0
  1  2  1  0  0  0  0
  2  7  1  1  0  0  0
  3  2  1  0  0  0  0
  4  8  1  0  0  0  0
  4  3  1  0  0  0  0
  5 10  1  6  0  0  0
  5  4  1  0  0  0  0
  5  1  1  0  0  0  0
  9  4  1  0  0  0  0
 11  1  1  0  0  0  0
 11 12  1  0  0  0  0
 13  2  1  0  0  0  0
 13 18  1  0  0  0  0
 14 15  1  0  0  0  0
 14 20  1  0  0  0  0
 15 21  1  0  0  0  0
 16 22  1  0  0  0  0
 16 15  2  0  0  0  0
 17 16  1  0  0  0  0
 18 17  2  0  0  0  0
 18 19  1  0  0  0  0
 19 14  2  0  0  0  0
 23 26  1  0  0  0  0
 23  5  1  0  0  0  0
 24 25  1  0  0  0  0
 25 30  2  0  0  0  0
 25 26  1  0  0  0  0
 26 27  2  0  0  0  0
 27 28  1  0  0  0  0
 27 31  1  0  0  0  0
 28 32  1  0  0  0  0
 29 33  1  0  0  0  0
 29 28  2  0  0  0  0
 30 29  1  0  0  0  0
 34 40  1  0  0  0  0
 34 30  1  0  0  0  0
 35 34  2  0  0  0  0
 36 35  1  0  0  0  0
 36 38  2  0  0  0  0
 37 36  1  0  0  0  0
 38 39  1  0  0  0  0
 39 40  2  0  0  0  0
M  END
>  <minimizedAffinity>
-5.40118265

>  <minimizedRMSD>
0.496583223

$$$$
