
 OpenBabel03272503543D

 42 45  0  0  1  0  0  0  0  0999 V2000
   36.8180   30.6210   46.4920 C   0  0  1  0  0  0  0  0  0  0  0  0
   35.2730   30.5260   46.3700 C   0  0  0  0  0  0  0  0  0  0  0  0
   35.0490   29.4140   45.3380 C   0  0  0  0  0  0  0  0  0  0  0  0
   35.4830   29.9430   44.0130 C   0  0  0  0  0  0  0  0  0  0  0  0
   36.9440   30.3280   44.0580 C   0  0  0  0  0  0  0  0  0  0  0  0
   37.2390   31.2640   45.2050 C   0  0  2  0  0  0  0  0  0  0  0  0
   37.1190   29.5590   46.5160 H   0  0  0  0  0  0  0  0  0  0  0  0
   34.8400   30.2860   47.3420 H   0  0  0  0  0  0  0  0  0  0  0  0
   34.8820   31.4670   45.9350 H   0  0  0  0  0  0  0  0  0  0  0  0
   35.6390   28.5190   45.5560 H   0  0  0  0  0  0  0  0  0  0  0  0
   33.9600   29.2560   45.3060 H   0  0  0  0  0  0  0  0  0  0  0  0
   34.8690   30.7760   43.6340 H   0  0  0  0  0  0  0  0  0  0  0  0
   35.3810   29.1190   43.2610 H   0  0  0  0  0  0  0  0  0  0  0  0
   37.1630   30.8750   43.0960 H   0  0  0  0  0  0  0  0  0  0  0  0
   37.5970   29.4340   44.0940 H   0  0  0  0  0  0  0  0  0  0  0  0
   36.6370   32.1840   45.0510 H   0  0  0  0  0  0  0  0  0  0  0  0
   36.7430   31.1280   48.9500 C   0  0  0  0  0  0  0  0  0  0  0  0
   37.2340   31.8320   50.0370 C   0  0  0  0  0  0  0  0  0  0  0  0
   38.2350   32.8080   49.8670 C   0  0  0  0  0  0  0  0  0  0  0  0
   38.6890   33.0190   48.5780 C   0  0  0  0  0  0  0  0  0  0  0  0
   38.2100   32.3290   47.4940 C   0  0  0  0  0  0  0  0  0  0  0  0
   37.2130   31.3610   47.6940 C   0  0  0  0  0  0  0  0  0  0  0  0
   36.8670   31.6570   51.0530 H   0  0  0  0  0  0  0  0  0  0  0  0
   38.5740   33.3180   50.7490 H   0  0  0  0  0  0  0  0  0  0  0  0
   39.4610   33.7870   48.5240 H   0  0  0  0  0  0  0  0  0  0  0  0
   38.6510   32.5940   46.5480 H   0  0  0  0  0  0  0  0  0  0  0  0
   34.7340   27.9560   49.4160 C   0  0  0  0  0  0  0  0  0  0  0  0
   35.8200   28.7900   49.0720 C   0  0  0  0  0  0  0  0  0  0  0  0
   35.7010   30.1670   49.2560 C   0  0  0  0  0  0  0  0  0  0  0  0
   34.5310   30.6010   49.7590 N   0  0  0  0  0  0  0  0  0  0  0  0
   33.4980   29.8050   50.0860 C   0  0  0  0  0  0  0  0  0  0  0  0
   33.6020   28.4960   49.9140 N   0  0  0  0  0  0  0  0  0  0  0  0
   34.9300   26.9050   49.2330 H   0  0  0  0  0  0  0  0  0  0  0  0
   36.7360   28.4170   48.6750 H   0  0  0  0  0  0  0  0  0  0  0  0
   32.5700   30.1870   50.4890 H   0  0  0  0  0  0  0  0  0  0  0  0
   38.6730   31.6300   45.1480 C   0  0  0  0  0  0  0  0  0  0  0  0
   39.6220   30.6670   45.4290 C   0  0  0  0  0  0  0  0  0  0  0  0
   40.9580   31.0080   45.3750 C   0  0  0  0  0  0  0  0  0  0  0  0
   41.7040   30.2540   45.5950 H   0  0  0  0  0  0  0  0  0  0  0  0
   41.3090   32.2730   45.0490 N   0  0  0  0  0  0  0  0  0  0  0  0
   40.3850   33.2130   44.7750 C   0  0  0  0  0  0  0  0  0  0  0  0
   39.0760   32.8900   44.8240 N   0  0  0  0  0  0  0  0  0  0  0  0
  1  7  1  1  0  0  0
  1 22  1  0  0  0  0
  2  1  1  0  0  0  0
  2  8  1  0  0  0  0
  3 10  1  0  0  0  0
  3  2  1  0  0  0  0
  4  5  1  0  0  0  0
  4  3  1  0  0  0  0
  5 15  1  0  0  0  0
  5  6  1  0  0  0  0
  6 16  1  6  0  0  0
  6  1  1  0  0  0  0
  9  2  1  0  0  0  0
 11  3  1  0  0  0  0
 12  4  1  0  0  0  0
 13  4  1  0  0  0  0
 14  5  1  0  0  0  0
 17 29  1  0  0  0  0
 17 18  1  0  0  0  0
 18 23  1  0  0  0  0
 19 18  2  0  0  0  0
 19 24  1  0  0  0  0
 20 19  1  0  0  0  0
 21 22  1  0  0  0  0
 21 20  2  0  0  0  0
 22 17  2  0  0  0  0
 25 20  1  0  0  0  0
 26 21  1  0  0  0  0
 27 32  1  0  0  0  0
 28 29  1  0  0  0  0
 28 27  2  0  0  0  0
 29 30  2  0  0  0  0
 30 31  1  0  0  0  0
 31 35  1  0  0  0  0
 32 31  2  0  0  0  0
 33 27  1  0  0  0  0
 34 28  1  0  0  0  0
 36  6  1  0  0  0  0
 36 37  1  0  0  0  0
 38 37  2  0  0  0  0
 38 39  1  0  0  0  0
 40 38  1  0  0  0  0
 41 42  1  0  0  0  0
 41 40  2  0  0  0  0
 42 36  2  0  0  0  0
M  END
>  <minimizedAffinity>
-5.94310236

>  <minimizedRMSD>
2.57345843

$$$$
