
 OpenBabel03272504483D

 25 27  0  0  0  0  0  0  0  0999 V2000
   36.1600   29.4610   49.3770 C   0  0  0  0  0  0  0  0  0  0  0  0
   36.3640   30.4190   48.3870 C   0  0  0  0  0  0  0  0  0  0  0  0
   35.5400   30.3510   47.2710 C   0  0  0  0  0  0  0  0  0  0  0  0
   34.5900   29.3740   47.1970 N   0  0  0  0  0  0  0  0  0  0  0  0
   34.4290   28.4670   48.1810 C   0  0  0  0  0  0  0  0  0  0  0  0
   35.2220   28.5190   49.2720 N   0  0  0  0  0  0  0  0  0  0  0  0
   36.7940   29.5100   50.2400 H   0  0  0  0  0  0  0  0  0  0  0  0
   35.6510   31.0670   46.4700 H   0  0  0  0  0  0  0  0  0  0  0  0
   33.4120   27.4400   48.0750 C   0  0  0  0  0  0  0  0  0  0  0  0
   33.7030   26.2260   47.5030 C   0  0  0  0  0  0  0  0  0  0  0  0
   32.7590   25.2220   47.3840 C   0  0  0  0  0  0  0  0  0  0  0  0
   31.5060   25.5210   47.8780 C   0  0  0  0  0  0  0  0  0  0  0  0
   31.1760   26.7380   48.4620 C   0  0  0  0  0  0  0  0  0  0  0  0
   32.1640   27.6740   48.5400 N   0  0  0  0  0  0  0  0  0  0  0  0
   34.7160   26.0360   47.1250 H   0  0  0  0  0  0  0  0  0  0  0  0
   32.9460   24.2620   46.9450 H   0  0  0  0  0  0  0  0  0  0  0  0
   30.7290   24.7650   47.8080 H   0  0  0  0  0  0  0  0  0  0  0  0
   30.1970   26.9250   48.8290 H   0  0  0  0  0  0  0  0  0  0  0  0
   37.3660   31.4760   48.4300 C   0  0  0  0  0  0  0  0  0  0  0  0
   37.5190   32.3050   49.5170 C   0  0  0  0  0  0  0  0  0  0  0  0
   38.4620   33.3150   49.5810 C   0  0  0  0  0  0  0  0  0  0  0  0
   38.5950   33.9720   50.4270 H   0  0  0  0  0  0  0  0  0  0  0  0
   39.2730   33.5030   48.5300 N   0  0  0  0  0  0  0  0  0  0  0  0
   39.1220   32.6840   47.4550 C   0  0  0  0  0  0  0  0  0  0  0  0
   38.1990   31.7080   47.4160 N   0  0  0  0  0  0  0  0  0  0  0  0
  1  7  1  0  0  0  0
  2 19  1  0  0  0  0
  2  1  2  0  0  0  0
  3  2  1  0  0  0  0
  4  3  2  0  0  0  0
  4  5  1  0  0  0  0
  5  6  2  0  0  0  0
  6  1  1  0  0  0  0
  8  3  1  0  0  0  0
  9  5  1  0  0  0  0
  9 14  1  0  0  0  0
 10  9  2  0  0  0  0
 11 10  1  0  0  0  0
 11 12  2  0  0  0  0
 12 13  1  0  0  0  0
 13 14  2  0  0  0  0
 13 18  1  0  0  0  0
 15 10  1  0  0  0  0
 16 11  1  0  0  0  0
 17 12  1  0  0  0  0
 19 20  1  0  0  0  0
 20 21  2  0  0  0  0
 21 22  1  0  0  0  0
 23 21  1  0  0  0  0
 24 23  2  0  0  0  0
 25 24  1  0  0  0  0
 25 19  2  0  0  0  0
M  END
>  <minimizedAffinity>
-5.30504227

>  <minimizedRMSD>
3.97074819

$$$$
