
 OpenBabel03272510173D

 26 28  0  0  0  0  0  0  0  0999 V2000
   37.4140   29.2030   50.8780 Br  0  0  0  0  0  0  0  0  0  0  0  0
   36.0120   29.2620   49.5860 C   0  0  0  0  0  0  0  0  0  0  0  0
   35.9990   30.2380   48.5920 C   0  0  0  0  0  0  0  0  0  0  0  0
   34.9570   30.2210   47.6960 C   0  0  0  0  0  0  0  0  0  0  0  0
   33.9350   29.2920   47.7380 C   0  0  0  0  0  0  0  0  0  0  0  0
   33.9750   28.3450   48.7270 C   0  0  0  0  0  0  0  0  0  0  0  0
   35.0090   28.3410   49.6370 C   0  0  0  0  0  0  0  0  0  0  0  0
   34.9610   30.9850   46.9310 H   0  0  0  0  0  0  0  0  0  0  0  0
   33.2290   27.5720   48.8530 H   0  0  0  0  0  0  0  0  0  0  0  0
   35.0450   27.5920   50.4220 H   0  0  0  0  0  0  0  0  0  0  0  0
   37.9980   33.1710   49.4370 C   0  0  0  0  0  0  0  0  0  0  0  0
   39.0210   33.1660   48.4380 C   0  0  0  0  0  0  0  0  0  0  0  0
   38.9990   32.1510   47.4960 C   0  0  0  0  0  0  0  0  0  0  0  0
   38.0090   31.2090   47.5630 N   0  0  0  0  0  0  0  0  0  0  0  0
   37.0540   31.2380   48.5160 C   0  0  0  0  0  0  0  0  0  0  0  0
   37.0550   32.2250   49.4540 N   0  0  0  0  0  0  0  0  0  0  0  0
   37.9440   33.9220   50.2030 H   0  0  0  0  0  0  0  0  0  0  0  0
   39.7590   33.9460   48.4620 H   0  0  0  0  0  0  0  0  0  0  0  0
   39.7620   32.1270   46.7310 H   0  0  0  0  0  0  0  0  0  0  0  0
   32.8320   29.2720   46.7920 C   0  0  0  0  0  0  0  0  0  0  0  0
   32.0580   28.1650   46.5100 C   0  0  0  0  0  3  0  0  0  0  0  0
   31.0140   28.1940   45.5980 C   0  0  0  0  0  0  0  0  0  0  0  0
   30.4640   27.2770   45.4420 H   0  0  0  0  0  0  0  0  0  0  0  0
   30.7320   29.3320   44.9560 N   0  0  0  0  0  0  0  0  0  0  0  0
   31.4800   30.4210   45.2210 C   0  0  0  0  0  3  0  0  0  0  0  0
   32.4820   30.3740   46.1050 N   0  0  0  0  0  0  0  0  0  0  0  0
  2  7  1  0  0  0  0
  2  1  1  0  0  0  0
  3  2  2  0  0  0  0
  4  5  2  0  0  0  0
  4  3  1  0  0  0  0
  5  6  1  0  0  0  0
  6  9  1  0  0  0  0
  6  7  2  0  0  0  0
  7 10  1  0  0  0  0
  8  4  1  0  0  0  0
 11 16  1  0  0  0  0
 11 17  1  0  0  0  0
 12 18  1  0  0  0  0
 12 11  2  0  0  0  0
 13 14  2  0  0  0  0
 13 12  1  0  0  0  0
 14 15  1  0  0  0  0
 15  3  1  0  0  0  0
 15 16  2  0  0  0  0
 19 13  1  0  0  0  0
 20  5  1  0  0  0  0
 21 20  1  0  0  0  0
 22 21  2  0  0  0  0
 23 22  1  0  0  0  0
 24 25  2  0  0  0  0
 24 22  1  0  0  0  0
 25 26  1  0  0  0  0
 26 20  2  0  0  0  0
M  END
>  <minimizedAffinity>
-5.86879444

>  <minimizedRMSD>
0.846086383

$$$$
