REMARK  Name = 
REMARK  6 active torsions:
REMARK  status: ('A' for Active; 'I' for Inactive)
REMARK    1  A    between atoms: C_1  and  O_6
REMARK    2  A    between atoms: C_2  and  S_7
REMARK    3  A    between atoms: C_5  and  O_14
REMARK    4  A    between atoms: S_7  and  C_12
REMARK    5  A    between atoms: O_14  and  C_17
REMARK    6  A    between atoms: C_21  and  C_34
REMARK                            x       y       z     vdW  Elec       q    Type
REMARK                         _______ _______ _______ _____ _____    ______ ____
ROOT
ATOM      1  C   UNL     1      32.167  28.525  47.425  0.00  0.00    +0.000 C 
ATOM      2  C   UNL     1      33.407  28.365  48.254  0.00  0.00    +0.000 C 
ATOM      3  O   UNL     1      33.807  27.066  48.165  0.00  0.00    +0.000 OA
ATOM      4  C   UNL     1      33.107  26.435  47.142  0.00  0.00    +0.000 C 
ATOM      5  C   UNL     1      32.505  27.521  46.282  0.00  0.00    +0.000 C 
ATOM      6  H   UNL     1      31.244  28.182  47.886  0.00  0.00    +0.000 HD
ATOM      7  H   UNL     1      33.228  28.681  49.306  0.00  0.00    +0.000 HD
ATOM      8  H   UNL     1      32.409  25.762  47.621  0.00  0.00    +0.000 HD
ATOM      9  H   UNL     1      33.845  25.834  46.522  0.00  0.00    +0.000 HD
ATOM     10  H   UNL     1      33.250  27.987  45.643  0.00  0.00    +0.000 HD
ENDROOT
BRANCH   1  11
ATOM     11  O   UNL     1      32.094  29.826  46.889  0.00  0.00    +0.000 OA
ATOM     12  H   UNL     1      32.484  30.468  47.533  0.00  0.00    +0.000 HD
ENDBRANCH   1  11
BRANCH   2  13
ATOM     13  S   UNL     1      34.718  29.409  47.498  0.00  0.00    +0.000 S 
BRANCH  13  18
ATOM     14  C   UNL     1      37.133  29.292  50.636  0.00  0.00    +0.000 A 
ATOM     15  C   UNL     1      37.636  30.586  50.758  0.00  0.00    +0.000 A 
ATOM     16  C   UNL     1      37.208  31.543  49.822  0.00  0.00    +0.000 A 
ATOM     17  N   UNL     1      36.331  31.159  48.855  0.00  0.00    +0.000 NA
ATOM     18  C   UNL     1      35.870  29.892  48.778  0.00  0.00    +0.000 A 
ATOM     19  N   UNL     1      36.264  28.941  49.665  0.00  0.00    +0.000 NA
ATOM     20  H   UNL     1      37.497  28.599  51.382  0.00  0.00    +0.000 HD
ATOM     21  H   UNL     1      38.332  30.846  51.543  0.00  0.00    +0.000 HD
ATOM     22  H   UNL     1      37.568  32.561  49.872  0.00  0.00    +0.000 HD
ENDBRANCH  13  18
ENDBRANCH   2  13
BRANCH   5  23
ATOM     23  O   UNL     1      31.365  27.044  45.686  0.00  0.00    +0.000 OA
BRANCH  23  26
ATOM     24 CL   UNL     1      29.884  29.117  44.213  0.00  0.00    +0.000 Cl
ATOM     25  C   UNL     1      29.335  28.126  45.546  0.00  0.00    +0.000 A 
ATOM     26  C   UNL     1      30.125  27.173  46.148  0.00  0.00    +0.000 A 
ATOM     27  C   UNL     1      29.568  26.422  47.185  0.00  0.00    +0.000 A 
ATOM     28  C   UNL     1      28.266  26.636  47.587  0.00  0.00    +0.000 A 
ATOM     29  C   UNL     1      27.466  27.593  46.986  0.00  0.00    +0.000 A 
ATOM     30  C   UNL     1      28.016  28.336  45.960  0.00  0.00    +0.000 A 
ATOM     31  H   UNL     1      30.100  25.652  47.715  0.00  0.00    +0.000 HD
ATOM     32  H   UNL     1      27.837  26.055  48.389  0.00  0.00    +0.000 HD
ATOM     33  H   UNL     1      26.458  27.712  47.344  0.00  0.00    +0.000 HD
BRANCH  30  34
ATOM     34  C   UNL     1      27.224  29.358  45.288  0.00  0.00    +0.000 A 
ATOM     35  C   UNL     1      27.567  30.685  45.254  0.00  0.00    +0.000 A 
ATOM     36  C   UNL     1      26.822  31.666  44.619  0.00  0.00    +0.000 A 
ATOM     37  H   UNL     1      27.119  32.698  44.611  0.00  0.00    +0.000 HD
ATOM     38  N   UNL     1      25.683  31.312  43.987  0.00  0.00    +0.000 NA
ATOM     39  C   UNL     1      25.327  30.014  44.008  0.00  0.00    +0.000 A 
ATOM     40  N   UNL     1      26.073  29.087  44.634  0.00  0.00    +0.000 NA
ENDBRANCH  30  34
ENDBRANCH  23  26
ENDBRANCH   5  23
TORSDOF 6
