
 OpenBabel03272501213D

 38 41  0  0  0  0  0  0  0  0999 V2000
   38.3360   32.2290   47.4150 C   0  0  0  0  0  0  0  0  0  0  0  0
   38.1570   32.1030   48.7860 C   0  0  0  0  0  0  0  0  0  0  0  0
   38.8560   33.0300   49.5540 C   0  0  0  0  0  0  0  0  0  0  0  0
   39.6700   34.0030   48.9550 C   0  0  0  0  0  0  0  0  0  0  0  0
   39.7990   34.0650   47.5760 C   0  0  0  0  0  0  0  0  0  0  0  0
   39.1140   33.1560   46.8010 C   0  0  0  0  0  0  0  0  0  0  0  0
   38.7890   33.0220   50.6340 H   0  0  0  0  0  0  0  0  0  0  0  0
   40.2080   34.7180   49.5660 H   0  0  0  0  0  0  0  0  0  0  0  0
   40.4210   34.8090   47.1000 H   0  0  0  0  0  0  0  0  0  0  0  0
   35.9390   31.2120   49.3270 C   0  0  0  0  0  0  0  0  0  0  0  0
   37.3280   31.1090   49.3830 C   0  0  0  0  0  0  0  0  0  0  0  0
   37.8640   29.9930   50.0460 C   0  0  0  0  0  0  0  0  0  0  0  0
   37.0070   29.0840   50.5910 N   0  0  0  0  0  0  0  0  0  0  0  0
   35.6680   29.2350   50.5060 C   0  0  0  0  0  0  0  0  0  0  0  0
   35.1330   30.2960   49.8770 N   0  0  0  0  0  0  0  0  0  0  0  0
   35.4310   32.0330   48.8400 H   0  0  0  0  0  0  0  0  0  0  0  0
   38.9500   29.8780   50.1100 H   0  0  0  0  0  0  0  0  0  0  0  0
   34.9960   28.5000   50.9480 H   0  0  0  0  0  0  0  0  0  0  0  0
   37.6770   31.3450   46.5560 O   0  0  0  0  0  0  0  0  0  0  0  0
   37.7480   30.3330   46.6990 H   0  0  0  0  0  0  0  0  0  0  0  0
   39.2540   33.2330   45.4060 O   0  0  0  0  0  0  0  0  0  0  0  0
   36.9950   32.5260   43.5460 Cl  0  0  0  0  0  0  0  0  0  0  0  0
   38.5140   31.6510   43.6530 C   0  0  0  0  0  0  0  0  0  0  0  0
   39.4230   32.1450   44.5790 C   0  0  0  0  0  0  0  0  0  0  0  0
   40.6160   31.4760   44.6790 C   0  0  0  0  0  0  0  0  0  0  0  0
   40.9410   30.3780   43.9300 C   0  0  0  0  0  0  0  0  0  0  0  0
   40.0280   29.9040   43.0180 C   0  0  0  0  0  0  0  0  0  0  0  0
   38.8190   30.5370   42.8790 C   0  0  0  0  0  0  0  0  0  0  0  0
   41.3830   31.7930   45.3760 H   0  0  0  0  0  0  0  0  0  0  0  0
   41.8800   29.8710   44.0250 H   0  0  0  0  0  0  0  0  0  0  0  0
   40.2580   29.0380   42.4130 H   0  0  0  0  0  0  0  0  0  0  0  0
   37.7840   30.1130   41.9420 C   0  0  0  0  0  0  0  0  0  0  0  0
   36.8370   29.1530   42.2330 C   0  0  0  0  0  0  0  0  0  0  0  0
   35.8500   28.7340   41.3660 C   0  0  0  0  0  0  0  0  0  0  0  0
   35.1290   27.9760   41.6470 H   0  0  0  0  0  0  0  0  0  0  0  0
   35.7860   29.2900   40.1430 N   0  0  0  0  0  0  0  0  0  0  0  0
   36.6980   30.2290   39.8340 C   0  0  0  0  0  0  0  0  0  0  0  0
   37.6530   30.6210   40.6940 N   0  0  0  0  0  0  0  0  0  0  0  0
  1  2  1  0  0  0  0
  2 11  1  0  0  0  0
  2  3  2  0  0  0  0
  3  7  1  0  0  0  0
  4  3  1  0  0  0  0
  4  8  1  0  0  0  0
  5  4  2  0  0  0  0
  6  1  2  0  0  0  0
  6  5  1  0  0  0  0
  9  5  1  0  0  0  0
 10 11  2  0  0  0  0
 10 15  1  0  0  0  0
 11 12  1  0  0  0  0
 12 17  1  0  0  0  0
 12 13  2  0  0  0  0
 14 13  1  0  0  0  0
 14 18  1  0  0  0  0
 15 14  2  0  0  0  0
 16 10  1  0  0  0  0
 19 20  1  0  0  0  0
 19  1  1  0  0  0  0
 21  6  1  0  0  0  0
 22 23  1  0  0  0  0
 23 24  1  0  0  0  0
 24 25  2  0  0  0  0
 24 21  1  0  0  0  0
 25 29  1  0  0  0  0
 26 30  1  0  0  0  0
 26 25  1  0  0  0  0
 27 26  2  0  0  0  0
 28 27  1  0  0  0  0
 28 23  2  0  0  0  0
 31 27  1  0  0  0  0
 32 33  1  0  0  0  0
 32 28  1  0  0  0  0
 34 35  1  0  0  0  0
 34 33  2  0  0  0  0
 36 34  1  0  0  0  0
 37 36  2  0  0  0  0
 37 38  1  0  0  0  0
 38 32  2  0  0  0  0
M  END
>  <minimizedAffinity>
-5.43306303

>  <minimizedRMSD>
0.0616716817

$$$$
