
 OpenBabel03272501113D

 23 25  0  0  1  0  0  0  0  0999 V2000
   35.2200   30.0640   49.2470 C   0  0  1  0  0  0  0  0  0  0  0  0
   35.1330   28.6430   48.9340 C   0  0  1  0  0  0  0  0  0  0  0  0
   35.4060   29.0470   50.3620 C   0  0  0  0  0  0  0  0  0  0  0  0
   34.3170   30.6980   49.3210 H   0  0  0  0  0  0  0  0  0  0  0  0
   36.0010   28.2140   48.3730 H   0  0  0  0  0  0  0  0  0  0  0  0
   34.5790   28.9840   51.0870 H   0  0  0  0  0  0  0  0  0  0  0  0
   36.4010   28.9320   50.7880 H   0  0  0  0  0  0  0  0  0  0  0  0
   36.4850   30.8270   48.9460 C   0  0  0  0  0  0  0  0  0  0  0  0
   36.7940   31.9030   49.8260 C   0  0  0  0  0  0  0  0  0  0  0  0
   37.9510   32.6010   49.5290 C   0  0  0  0  0  0  0  0  0  0  0  0
   38.7080   32.2450   48.4600 N   0  0  0  0  0  0  0  0  0  0  0  0
   38.3780   31.2100   47.6420 C   0  0  0  0  0  0  0  0  0  0  0  0
   37.2630   30.5020   47.8900 N   0  0  0  0  0  0  0  0  0  0  0  0
   36.1210   32.0960   50.6440 H   0  0  0  0  0  0  0  0  0  0  0  0
   38.1740   33.4030   50.1930 H   0  0  0  0  0  0  0  0  0  0  0  0
   39.0260   30.9840   46.8110 H   0  0  0  0  0  0  0  0  0  0  0  0
   33.8750   27.9520   48.6520 C   0  0  0  0  0  0  0  0  0  0  0  0
   33.9270   26.8720   47.7970 C   0  0  0  0  0  0  0  0  0  0  0  0
   32.7380   26.2130   47.5250 C   0  0  0  0  0  0  0  0  0  0  0  0
   32.7180   25.3500   46.8560 H   0  0  0  0  0  0  0  0  0  0  0  0
   31.5370   26.5610   48.0430 N   0  0  0  0  0  0  0  0  0  0  0  0
   31.5310   27.6340   48.8830 C   0  0  0  0  0  0  0  0  0  0  0  0
   32.6590   28.2820   49.1580 N   0  0  0  0  0  0  0  0  0  0  0  0
  1  4  1  6  0  0  0
  1  3  1  0  0  0  0
  2  5  1  6  0  0  0
  2  1  1  0  0  0  0
  2  3  1  0  0  0  0
  3  7  1  0  0  0  0
  3  6  1  0  0  0  0
  8  1  1  0  0  0  0
  8  9  1  0  0  0  0
  9 14  1  0  0  0  0
 10  9  2  0  0  0  0
 10 15  1  0  0  0  0
 11 10  1  0  0  0  0
 12 13  1  0  0  0  0
 12 11  2  0  0  0  0
 13  8  2  0  0  0  0
 16 12  1  0  0  0  0
 17  2  1  0  0  0  0
 17 23  1  0  0  0  0
 18 17  2  0  0  0  0
 19 18  1  0  0  0  0
 19 21  2  0  0  0  0
 20 19  1  0  0  0  0
 21 22  1  0  0  0  0
 22 23  2  0  0  0  0
M  END
>  <minimizedAffinity>
-4.94756413

>  <minimizedRMSD>
1.42600155

$$$$
