
 OpenBabel03272506473D

 40 43  0  0  1  0  0  0  0  0999 V2000
   32.1770   28.4700   47.4750 C   0  0  2  0  0  0  0  0  0  0  0  0
   33.4350   28.2680   48.2670 C   0  0  1  0  0  0  0  0  0  0  0  0
   33.8090   26.9650   48.1370 O   0  0  0  0  0  0  0  0  0  0  0  0
   33.0720   26.3720   47.1170 C   0  0  0  0  0  0  0  0  0  0  0  0
   32.4680   27.4890   46.3000 C   0  0  1  0  0  0  0  0  0  0  0  0
   31.2600   28.1320   47.9510 H   0  0  0  0  0  0  0  0  0  0  0  0
   33.2890   28.5610   49.3310 H   0  0  0  0  0  0  0  0  0  0  0  0
   32.3740   25.6990   47.5980 H   0  0  0  0  0  0  0  0  0  0  0  0
   33.7830   25.7730   46.4640 H   0  0  0  0  0  0  0  0  0  0  0  0
   33.2050   27.9570   45.6530 H   0  0  0  0  0  0  0  0  0  0  0  0
   32.1140   29.7850   46.9720 O   0  0  0  0  0  0  0  0  0  0  0  0
   32.5320   30.4040   47.6210 H   0  0  0  0  0  0  0  0  0  0  0  0
   34.7450   29.3070   47.5030 S   0  0  0  0  0  0  0  0  0  0  0  0
   37.1290   29.2950   50.6670 C   0  0  0  0  0  0  0  0  0  0  0  0
   37.6040   30.6010   50.7710 C   0  0  0  0  0  0  0  0  0  0  0  0
   37.1660   31.5320   49.8150 C   0  0  0  0  0  0  0  0  0  0  0  0
   36.3070   31.1140   48.8460 N   0  0  0  0  0  0  0  0  0  0  0  0
   35.8730   29.8360   48.7860 C   0  0  0  0  0  0  0  0  0  0  0  0
   36.2780   28.9090   49.6930 N   0  0  0  0  0  0  0  0  0  0  0  0
   37.5000   28.6220   51.4280 H   0  0  0  0  0  0  0  0  0  0  0  0
   38.2860   30.8890   51.5590 H   0  0  0  0  0  0  0  0  0  0  0  0
   37.5040   32.5590   49.8510 H   0  0  0  0  0  0  0  0  0  0  0  0
   31.3050   27.0470   45.7220 O   0  0  0  0  0  0  0  0  0  0  0  0
   30.0200   29.3370   44.3930 Cl  0  0  0  0  0  0  0  0  0  0  0  0
   29.3740   28.3020   45.6480 C   0  0  0  0  0  0  0  0  0  0  0  0
   30.0740   27.2460   46.1840 C   0  0  0  0  0  0  0  0  0  0  0  0
   29.4430   26.4720   47.1600 C   0  0  0  0  0  0  0  0  0  0  0  0
   28.1590   26.7650   47.5680 C   0  0  0  0  0  0  0  0  0  0  0  0
   27.4490   27.8260   47.0330 C   0  0  0  0  0  0  0  0  0  0  0  0
   28.0720   28.5920   46.0670 C   0  0  0  0  0  0  0  0  0  0  0  0
   29.9030   25.6240   47.6370 H   0  0  0  0  0  0  0  0  0  0  0  0
   27.6730   26.1660   48.3230 H   0  0  0  0  0  0  0  0  0  0  0  0
   26.4500   28.0030   47.3920 H   0  0  0  0  0  0  0  0  0  0  0  0
   27.3760   29.7220   45.4660 C   0  0  0  0  0  0  0  0  0  0  0  0
   26.7100   29.6560   44.2690 C   0  0  0  0  0  3  0  0  0  0  0  0
   26.0450   30.7240   43.6890 C   0  0  0  0  0  0  0  0  0  0  0  0
   25.5330   30.6390   42.7480 H   0  0  0  0  0  0  0  0  0  0  0  0
   26.0410   31.9140   44.3260 N   0  0  0  0  0  0  0  0  0  0  0  0
   26.6880   32.0010   45.5020 C   0  0  0  0  0  3  0  0  0  0  0  0
   27.3250   30.9450   46.0390 N   0  0  0  0  0  0  0  0  0  0  0  0
  1  6  1  1  0  0  0
  1  2  1  0  0  0  0
  2  7  1  1  0  0  0
  3  2  1  0  0  0  0
  4  8  1  0  0  0  0
  4  3  1  0  0  0  0
  5 10  1  6  0  0  0
  5  4  1  0  0  0  0
  5  1  1  0  0  0  0
  9  4  1  0  0  0  0
 11  1  1  0  0  0  0
 11 12  1  0  0  0  0
 13  2  1  0  0  0  0
 13 18  1  0  0  0  0
 14 15  1  0  0  0  0
 14 20  1  0  0  0  0
 15 21  1  0  0  0  0
 16 22  1  0  0  0  0
 16 15  2  0  0  0  0
 17 16  1  0  0  0  0
 18 17  2  0  0  0  0
 18 19  1  0  0  0  0
 19 14  2  0  0  0  0
 23 26  1  0  0  0  0
 23  5  1  0  0  0  0
 24 25  1  0  0  0  0
 25 30  2  0  0  0  0
 25 26  1  0  0  0  0
 26 27  2  0  0  0  0
 27 28  1  0  0  0  0
 27 31  1  0  0  0  0
 28 32  1  0  0  0  0
 29 33  1  0  0  0  0
 29 28  2  0  0  0  0
 30 29  1  0  0  0  0
 34 40  1  0  0  0  0
 34 30  1  0  0  0  0
 35 34  2  0  0  0  0
 36 35  1  0  0  0  0
 36 38  2  0  0  0  0
 37 36  1  0  0  0  0
 38 39  1  0  0  0  0
 39 40  2  0  0  0  0
M  END
>  <minimizedAffinity>
-5.40128708

>  <minimizedRMSD>
0.65691638

$$$$
