REMARK  Name = 
REMARK  2 active torsions:
REMARK  status: ('A' for Active; 'I' for Inactive)
REMARK    1  A    between atoms: C_2  and  C_7
REMARK    2  A    between atoms: C_12  and  C_26
REMARK                            x       y       z     vdW  Elec       q    Type
REMARK                         _______ _______ _______ _____ _____    ______ ____
ROOT
ATOM      1  C   UNL     1      34.486  30.157  49.071  0.00  0.00    +0.000 C 
ATOM      2  C   UNL     1      34.217  30.344  47.635  0.00  0.00    +0.000 C 
ATOM      3  C   UNL     1      34.392  29.145  46.748  0.00  0.00    +0.000 C 
ATOM      4  C   UNL     1      33.987  27.848  47.346  0.00  0.00    +0.000 C 
ATOM      5  C   UNL     1      34.273  27.644  48.788  0.00  0.00    +0.000 C 
ATOM      6  C   UNL     1      33.976  28.866  49.606  0.00  0.00    +0.000 C 
ATOM      7  H   UNL     1      33.883  30.946  49.633  0.00  0.00    +0.000 HD
ATOM      8  H   UNL     1      34.648  31.198  47.143  0.00  0.00    +0.000 HD
ATOM      9  H   UNL     1      33.097  30.538  47.571  0.00  0.00    +0.000 HD
ATOM     10  H   UNL     1      35.465  29.089  46.469  0.00  0.00    +0.000 HD
ATOM     11  H   UNL     1      33.819  29.309  45.821  0.00  0.00    +0.000 HD
ATOM     12  H   UNL     1      32.892  27.711  47.142  0.00  0.00    +0.000 HD
ATOM     13  H   UNL     1      34.482  27.030  46.774  0.00  0.00    +0.000 HD
ATOM     14  H   UNL     1      35.303  27.286  49.000  0.00  0.00    +0.000 HD
ATOM     15  H   UNL     1      33.593  26.843  49.146  0.00  0.00    +0.000 HD
ATOM     16  H   UNL     1      34.336  28.629  50.617  0.00  0.00    +0.000 HD
ENDROOT
BRANCH   1  18
ATOM     17  C   UNL     1      36.803  31.175  48.696  0.00  0.00    +0.000 A 
ATOM     18  C   UNL     1      35.870  30.466  49.495  0.00  0.00    +0.000 A 
ATOM     19  C   UNL     1      36.308  30.066  50.742  0.00  0.00    +0.000 A 
ATOM     20  N   UNL     1      37.571  30.354  51.148  0.00  0.00    +0.000 NA
ATOM     21  C   UNL     1      38.429  31.036  50.346  0.00  0.00    +0.000 A 
ATOM     22  N   UNL     1      38.035  31.447  49.111  0.00  0.00    +0.000 NA
ATOM     23  H   UNL     1      36.522  31.514  47.714  0.00  0.00    +0.000 HD
ATOM     24  H   UNL     1      35.781  29.532  51.508  0.00  0.00    +0.000 HD
ATOM     25  H   UNL     1      39.442  31.282  50.637  0.00  0.00    +0.000 HD
ENDBRANCH   1  18
BRANCH   6  26
ATOM     26  C   UNL     1      32.481  28.999  49.793  0.00  0.00    +0.000 A 
ATOM     27  C   UNL     1      31.979  30.167  50.380  0.00  0.00    +0.000 A 
ATOM     28  C   UNL     1      30.610  30.372  50.592  0.00  0.00    +0.000 A 
ATOM     29  H   UNL     1      30.270  31.292  51.049  0.00  0.00    +0.000 HD
ATOM     30  N   UNL     1      29.765  29.398  50.210  0.00  0.00    +0.000 NA
ATOM     31  C   UNL     1      30.243  28.265  49.641  0.00  0.00    +0.000 A 
ATOM     32  N   UNL     1      31.541  28.100  49.454  0.00  0.00    +0.000 NA
ENDBRANCH   6  26
TORSDOF 2
