
 OpenBabel03272506353D

 17 18  0  0  0  0  0  0  0  0999 V2000
   37.3990   30.0620   50.9640 C   0  0  0  0  0  0  0  0  0  0  0  0
   38.1800   31.0230   50.2910 C   0  0  0  0  0  0  0  0  0  0  0  0
   37.7860   31.4440   49.0290 C   0  0  0  0  0  0  0  0  0  0  0  0
   36.6490   30.9000   48.4920 N   0  0  0  0  0  0  0  0  0  0  0  0
   35.9210   29.9790   49.1620 C   0  0  0  0  0  0  0  0  0  0  0  0
   36.2890   29.5710   50.3690 N   0  0  0  0  0  0  0  0  0  0  0  0
   39.0800   31.4680   50.6920 H   0  0  0  0  0  0  0  0  0  0  0  0
   38.3570   32.1880   48.4640 H   0  0  0  0  0  0  0  0  0  0  0  0
   34.7230   29.4410   48.5350 C   0  0  0  0  0  0  0  0  0  0  0  0
   34.0250   28.4090   49.1260 C   0  0  0  0  0  0  0  0  0  0  0  0
   32.8680   27.8520   48.5700 C   0  0  0  0  0  0  0  0  0  0  0  0
   32.3790   27.0340   49.1090 H   0  0  0  0  0  0  0  0  0  0  0  0
   32.4670   28.3800   47.4170 N   0  0  0  0  0  0  0  0  0  0  0  0
   33.1240   29.3870   46.8140 C   0  0  0  0  0  0  0  0  0  0  0  0
   34.2490   29.9160   47.3720 N   0  0  0  0  0  0  0  0  0  0  0  0
   37.9130   29.7440   52.2040 O   0  0  0  0  0  0  0  0  0  0  0  0
   37.5500   28.9000   52.6510 H   0  0  0  0  0  0  0  0  0  0  0  0
  1 16  1  0  0  0  0
  2  7  1  0  0  0  0
  2  1  2  0  0  0  0
  3  2  1  0  0  0  0
  4  3  2  0  0  0  0
  4  5  1  0  0  0  0
  5  6  2  0  0  0  0
  6  1  1  0  0  0  0
  8  3  1  0  0  0  0
  9 10  1  0  0  0  0
  9  5  1  0  0  0  0
 11 12  1  0  0  0  0
 11 10  2  0  0  0  0
 13 11  1  0  0  0  0
 14 15  1  0  0  0  0
 14 13  2  0  0  0  0
 15  9  2  0  0  0  0
 16 17  1  0  0  0  0
M  END
>  <minimizedAffinity>
-4.64232969

>  <minimizedRMSD>
1.19342685

$$$$
