REMARK  Name = 
REMARK  2 active torsions:
REMARK  status: ('A' for Active; 'I' for Inactive)
REMARK    1  A    between atoms: C_1  and  N_7
REMARK    2  A    between atoms: C_10  and  C_25
REMARK                            x       y       z     vdW  Elec       q    Type
REMARK                         _______ _______ _______ _____ _____    ______ ____
ROOT
ATOM      1  N   UNL     1      36.499  29.599  48.885  0.00  0.00    +0.000 N 
ATOM      2  C   UNL     1      36.997  29.295  50.197  0.00  0.00    +0.000 C 
ATOM      3  C   UNL     1      37.635  30.386  50.961  0.00  0.00    +0.000 C 
ATOM      4  C   UNL     1      38.335  31.440  50.184  0.00  0.00    +0.000 C 
ATOM      5  C   UNL     1      37.788  31.652  48.810  0.00  0.00    +0.000 C 
ATOM      6  C   UNL     1      37.539  30.281  48.162  0.00  0.00    +0.000 C 
ATOM      7  H   UNL     1      37.691  28.415  50.061  0.00  0.00    +0.000 HD
ATOM      8  H   UNL     1      36.149  28.889  50.789  0.00  0.00    +0.000 HD
ATOM      9  H   UNL     1      38.338  29.946  51.699  0.00  0.00    +0.000 HD
ATOM     10  H   UNL     1      36.849  30.900  51.569  0.00  0.00    +0.000 HD
ATOM     11  H   UNL     1      39.412  31.147  50.084  0.00  0.00    +0.000 HD
ATOM     12  H   UNL     1      36.832  32.181  48.776  0.00  0.00    +0.000 HD
ATOM     13  H   UNL     1      38.557  32.160  48.189  0.00  0.00    +0.000 HD
ATOM     14  H   UNL     1      38.502  29.738  48.167  0.00  0.00    +0.000 HD
ATOM     15  H   UNL     1      37.257  30.534  47.116  0.00  0.00    +0.000 HD
ENDROOT
BRANCH   1  16
ATOM     16  C   UNL     1      35.208  29.283  48.389  0.00  0.00    +0.000 A 
ATOM     17  C   UNL     1      34.641  29.840  47.241  0.00  0.00    +0.000 A 
ATOM     18  C   UNL     1      33.359  29.435  46.870  0.00  0.00    +0.000 A 
ATOM     19  N   UNL     1      32.719  28.513  47.646  0.00  0.00    +0.000 NA
ATOM     20  C   UNL     1      33.303  28.003  48.744  0.00  0.00    +0.000 A 
ATOM     21  N   UNL     1      34.535  28.381  49.114  0.00  0.00    +0.000 NA
ATOM     22  H   UNL     1      35.233  30.563  46.696  0.00  0.00    +0.000 HD
ATOM     23  H   UNL     1      32.927  29.872  45.978  0.00  0.00    +0.000 HD
ATOM     24  H   UNL     1      32.769  27.263  49.352  0.00  0.00    +0.000 HD
ENDBRANCH   1  16
BRANCH   4  25
ATOM     25  C   UNL     1      38.328  32.714  50.952  0.00  0.00    +0.000 A 
ATOM     26  C   UNL     1      37.151  33.466  50.947  0.00  0.00    +0.000 A 
ATOM     27  C   UNL     1      37.196  34.652  51.682  0.00  0.00    +0.000 A 
ATOM     28  H   UNL     1      36.274  35.246  51.681  0.00  0.00    +0.000 HD
ATOM     29  N   UNL     1      38.261  35.104  52.372  0.00  0.00    +0.000 NA
ATOM     30  C   UNL     1      39.370  34.324  52.334  0.00  0.00    +0.000 A 
ATOM     31  N   UNL     1      39.413  33.160  51.647  0.00  0.00    +0.000 NA
ENDBRANCH   4  25
TORSDOF 2
