
 OpenBabel03272510163D

 26 28  0  0  0  0  0  0  0  0999 V2000
   37.3150   29.3540   51.0520 Br  0  0  0  0  0  0  0  0  0  0  0  0
   35.9700   29.3370   49.7010 C   0  0  0  0  0  0  0  0  0  0  0  0
   36.0000   30.2550   48.6530 C   0  0  0  0  0  0  0  0  0  0  0  0
   34.9970   30.1850   47.7160 C   0  0  0  0  0  0  0  0  0  0  0  0
   33.9740   29.2570   47.7670 C   0  0  0  0  0  0  0  0  0  0  0  0
   33.9720   28.3680   48.8090 C   0  0  0  0  0  0  0  0  0  0  0  0
   34.9660   28.4180   49.7610 C   0  0  0  0  0  0  0  0  0  0  0  0
   35.0340   30.9040   46.9090 H   0  0  0  0  0  0  0  0  0  0  0  0
   33.2210   27.6010   48.9460 H   0  0  0  0  0  0  0  0  0  0  0  0
   34.9680   27.7140   50.5880 H   0  0  0  0  0  0  0  0  0  0  0  0
   37.9990   33.1990   49.4570 C   0  0  0  0  0  0  0  0  0  0  0  0
   39.0280   33.1740   48.4660 C   0  0  0  0  0  0  0  0  0  0  0  0
   39.0100   32.1420   47.5420 C   0  0  0  0  0  0  0  0  0  0  0  0
   38.0180   31.2040   47.6200 N   0  0  0  0  0  0  0  0  0  0  0  0
   37.0580   31.2510   48.5660 C   0  0  0  0  0  0  0  0  0  0  0  0
   37.0540   32.2550   49.4850 N   0  0  0  0  0  0  0  0  0  0  0  0
   37.9410   33.9640   50.2090 H   0  0  0  0  0  0  0  0  0  0  0  0
   39.7670   33.9530   48.4800 H   0  0  0  0  0  0  0  0  0  0  0  0
   39.7780   32.1030   46.7830 H   0  0  0  0  0  0  0  0  0  0  0  0
   32.9130   29.1810   46.7770 C   0  0  0  0  0  0  0  0  0  0  0  0
   31.7900   28.3870   46.8880 C   0  0  0  0  0  3  0  0  0  0  0  0
   30.8020   28.3480   45.9160 C   0  0  0  0  0  0  0  0  0  0  0  0
   29.9590   27.6950   46.0900 H   0  0  0  0  0  0  0  0  0  0  0  0
   30.9240   29.1040   44.8200 N   0  0  0  0  0  0  0  0  0  0  0  0
   32.0170   29.8850   44.6990 C   0  0  0  0  0  3  0  0  0  0  0  0
   32.9600   29.9100   45.6470 N   0  0  0  0  0  0  0  0  0  0  0  0
  2  7  1  0  0  0  0
  2  1  1  0  0  0  0
  3  2  2  0  0  0  0
  4  5  2  0  0  0  0
  4  3  1  0  0  0  0
  5  6  1  0  0  0  0
  6  9  1  0  0  0  0
  6  7  2  0  0  0  0
  7 10  1  0  0  0  0
  8  4  1  0  0  0  0
 11 16  1  0  0  0  0
 11 17  1  0  0  0  0
 12 18  1  0  0  0  0
 12 11  2  0  0  0  0
 13 14  2  0  0  0  0
 13 12  1  0  0  0  0
 14 15  1  0  0  0  0
 15  3  1  0  0  0  0
 15 16  2  0  0  0  0
 19 13  1  0  0  0  0
 20 21  1  0  0  0  0
 20  5  1  0  0  0  0
 22 23  1  0  0  0  0
 22 21  2  0  0  0  0
 24 22  1  0  0  0  0
 25 24  2  0  0  0  0
 25 26  1  0  0  0  0
 26 20  2  0  0  0  0
M  END
>  <minimizedAffinity>
-5.85036469

>  <minimizedRMSD>
0.12751478

$$$$
