REMARK  Name = 
REMARK  2 active torsions:
REMARK  status: ('A' for Active; 'I' for Inactive)
REMARK    1  A    between atoms: C_1  and  C_7
REMARK    2  A    between atoms: C_12  and  C_26
REMARK                            x       y       z     vdW  Elec       q    Type
REMARK                         _______ _______ _______ _____ _____    ______ ____
ROOT
ATOM      1  C   UNL     1      35.525  30.313  49.735  0.00  0.00    +0.000 C 
ATOM      2  C   UNL     1      36.486  31.172  48.946  0.00  0.00    +0.000 C 
ATOM      3  C   UNL     1      37.919  30.784  49.160  0.00  0.00    +0.000 C 
ATOM      4  C   UNL     1      38.292  30.820  50.623  0.00  0.00    +0.000 C 
ATOM      5  C   UNL     1      37.321  30.087  51.480  0.00  0.00    +0.000 C 
ATOM      6  C   UNL     1      36.182  29.437  50.739  0.00  0.00    +0.000 C 
ATOM      7  H   UNL     1      34.766  30.989  50.175  0.00  0.00    +0.000 HD
ATOM      8  H   UNL     1      36.398  32.231  49.267  0.00  0.00    +0.000 HD
ATOM      9  H   UNL     1      36.237  31.081  47.889  0.00  0.00    +0.000 HD
ATOM     10  H   UNL     1      38.533  31.553  48.642  0.00  0.00    +0.000 HD
ATOM     11  H   UNL     1      38.066  29.788  48.699  0.00  0.00    +0.000 HD
ATOM     12  H   UNL     1      38.223  31.901  50.928  0.00  0.00    +0.000 HD
ATOM     13  H   UNL     1      39.332  30.529  50.746  0.00  0.00    +0.000 HD
ATOM     14  H   UNL     1      37.895  29.223  51.929  0.00  0.00    +0.000 HD
ATOM     15  H   UNL     1      36.990  30.661  52.365  0.00  0.00    +0.000 HD
ATOM     16  H   UNL     1      36.451  28.449  50.319  0.00  0.00    +0.000 HD
ENDROOT
BRANCH   1  17
ATOM     17  C   UNL     1      34.757  29.428  48.802  0.00  0.00    +0.000 A 
ATOM     18  C   UNL     1      34.222  30.052  47.657  0.00  0.00    +0.000 A 
ATOM     19  C   UNL     1      33.499  29.258  46.777  0.00  0.00    +0.000 A 
ATOM     20  N   UNL     1      33.338  27.916  47.059  0.00  0.00    +0.000 NA
ATOM     21  C   UNL     1      33.873  27.354  48.179  0.00  0.00    +0.000 A 
ATOM     22  N   UNL     1      34.571  28.107  49.033  0.00  0.00    +0.000 NA
ATOM     23  H   UNL     1      34.295  31.066  47.371  0.00  0.00    +0.000 HD
ATOM     24  H   UNL     1      33.045  29.640  45.865  0.00  0.00    +0.000 HD
ATOM     25  H   UNL     1      33.715  26.300  48.349  0.00  0.00    +0.000 HD
ENDBRANCH   1  17
BRANCH   6  26
ATOM     26  C   UNL     1      35.146  29.210  51.812  0.00  0.00    +0.000 A 
ATOM     27  C   UNL     1      35.210  28.007  52.488  0.00  0.00    +0.000 A 
ATOM     28  C   UNL     1      34.266  27.791  53.471  0.00  0.00    +0.000 A 
ATOM     29  H   UNL     1      34.291  26.844  54.026  0.00  0.00    +0.000 HD
ATOM     30  N   UNL     1      33.315  28.727  53.758  0.00  0.00    +0.000 NA
ATOM     31  C   UNL     1      33.300  29.894  53.061  0.00  0.00    +0.000 A 
ATOM     32  N   UNL     1      34.227  30.124  52.085  0.00  0.00    +0.000 NA
ENDBRANCH   6  26
TORSDOF 2
