
 OpenBabel03272506483D

 40 43  0  0  1  0  0  0  0  0999 V2000
   32.1460   28.4730   47.4680 C   0  0  2  0  0  0  0  0  0  0  0  0
   33.4030   28.2670   48.2600 C   0  0  1  0  0  0  0  0  0  0  0  0
   33.7700   26.9610   48.1350 O   0  0  0  0  0  0  0  0  0  0  0  0
   33.0290   26.3680   47.1180 C   0  0  0  0  0  0  0  0  0  0  0  0
   32.4300   27.4850   46.2960 C   0  0  1  0  0  0  0  0  0  0  0  0
   31.2280   28.1420   47.9460 H   0  0  0  0  0  0  0  0  0  0  0  0
   33.2590   28.5650   49.3230 H   0  0  0  0  0  0  0  0  0  0  0  0
   32.3280   25.7010   47.6020 H   0  0  0  0  0  0  0  0  0  0  0  0
   33.7360   25.7630   46.4670 H   0  0  0  0  0  0  0  0  0  0  0  0
   33.1690   27.9470   45.6470 H   0  0  0  0  0  0  0  0  0  0  0  0
   32.0900   29.7860   46.9600 O   0  0  0  0  0  0  0  0  0  0  0  0
   32.5120   30.4050   47.6060 H   0  0  0  0  0  0  0  0  0  0  0  0
   34.7190   29.2960   47.4910 S   0  0  0  0  0  0  0  0  0  0  0  0
   37.1090   29.2910   50.6490 C   0  0  0  0  0  0  0  0  0  0  0  0
   37.5780   30.6000   50.7540 C   0  0  0  0  0  0  0  0  0  0  0  0
   37.1330   31.5300   49.8000 C   0  0  0  0  0  0  0  0  0  0  0  0
   36.2750   31.1080   48.8320 N   0  0  0  0  0  0  0  0  0  0  0  0
   35.8470   29.8290   48.7720 C   0  0  0  0  0  0  0  0  0  0  0  0
   36.2580   28.9030   49.6770 N   0  0  0  0  0  0  0  0  0  0  0  0
   37.4850   28.6200   51.4090 H   0  0  0  0  0  0  0  0  0  0  0  0
   38.2600   30.8900   51.5410 H   0  0  0  0  0  0  0  0  0  0  0  0
   37.4670   32.5580   49.8360 H   0  0  0  0  0  0  0  0  0  0  0  0
   31.2640   27.0470   45.7210 O   0  0  0  0  0  0  0  0  0  0  0  0
   29.9920   29.3400   44.3850 Cl  0  0  0  0  0  0  0  0  0  0  0  0
   29.3400   28.3140   45.6430 C   0  0  0  0  0  0  0  0  0  0  0  0
   30.0350   27.2550   46.1830 C   0  0  0  0  0  0  0  0  0  0  0  0
   29.4010   26.4880   47.1630 C   0  0  0  0  0  0  0  0  0  0  0  0
   28.1180   26.7900   47.5710 C   0  0  0  0  0  0  0  0  0  0  0  0
   27.4140   27.8540   47.0320 C   0  0  0  0  0  0  0  0  0  0  0  0
   28.0400   28.6120   46.0630 C   0  0  0  0  0  0  0  0  0  0  0  0
   29.8560   25.6390   47.6420 H   0  0  0  0  0  0  0  0  0  0  0  0
   27.6290   26.1970   48.3280 H   0  0  0  0  0  0  0  0  0  0  0  0
   26.4160   28.0380   47.3910 H   0  0  0  0  0  0  0  0  0  0  0  0
   27.3510   29.7440   45.4580 C   0  0  0  0  0  0  0  0  0  0  0  0
   27.2590   30.9810   46.0430 C   0  0  0  0  0  3  0  0  0  0  0  0
   26.6070   32.0640   45.4780 C   0  0  0  0  0  0  0  0  0  0  0  0
   26.5540   33.0200   45.9620 H   0  0  0  0  0  0  0  0  0  0  0  0
   26.0170   31.9130   44.2730 N   0  0  0  0  0  0  0  0  0  0  0  0
   26.0950   30.7080   43.6800 C   0  0  0  0  0  3  0  0  0  0  0  0
   26.7360   29.6760   44.2560 N   0  0  0  0  0  0  0  0  0  0  0  0
  1  6  1  1  0  0  0
  1  2  1  0  0  0  0
  2  7  1  1  0  0  0
  3  2  1  0  0  0  0
  4  8  1  0  0  0  0
  4  3  1  0  0  0  0
  5 10  1  6  0  0  0
  5  4  1  0  0  0  0
  5  1  1  0  0  0  0
  9  4  1  0  0  0  0
 11  1  1  0  0  0  0
 11 12  1  0  0  0  0
 13  2  1  0  0  0  0
 13 18  1  0  0  0  0
 14 15  1  0  0  0  0
 14 20  1  0  0  0  0
 15 21  1  0  0  0  0
 16 22  1  0  0  0  0
 16 15  2  0  0  0  0
 17 16  1  0  0  0  0
 18 17  2  0  0  0  0
 18 19  1  0  0  0  0
 19 14  2  0  0  0  0
 23 26  1  0  0  0  0
 23  5  1  0  0  0  0
 24 25  1  0  0  0  0
 25 30  2  0  0  0  0
 25 26  1  0  0  0  0
 26 27  2  0  0  0  0
 27 28  1  0  0  0  0
 27 31  1  0  0  0  0
 28 32  1  0  0  0  0
 29 33  1  0  0  0  0
 29 28  2  0  0  0  0
 30 29  1  0  0  0  0
 34 35  1  0  0  0  0
 34 30  1  0  0  0  0
 36 37  1  0  0  0  0
 36 35  2  0  0  0  0
 38 36  1  0  0  0  0
 39 40  1  0  0  0  0
 39 38  2  0  0  0  0
 40 34  2  0  0  0  0
M  END
>  <minimizedAffinity>
-5.42178822

>  <minimizedRMSD>
0.572104752

$$$$
