
 OpenBabel03272510173D

 26 28  0  0  0  0  0  0  0  0999 V2000
   37.4560   29.2020   50.8670 Br  0  0  0  0  0  0  0  0  0  0  0  0
   36.0370   29.2740   49.5950 C   0  0  0  0  0  0  0  0  0  0  0  0
   36.0130   30.2570   48.6080 C   0  0  0  0  0  0  0  0  0  0  0  0
   34.9590   30.2490   47.7260 C   0  0  0  0  0  0  0  0  0  0  0  0
   33.9360   29.3210   47.7740 C   0  0  0  0  0  0  0  0  0  0  0  0
   33.9870   28.3670   48.7550 C   0  0  0  0  0  0  0  0  0  0  0  0
   35.0330   28.3540   49.6520 C   0  0  0  0  0  0  0  0  0  0  0  0
   34.9540   31.0190   46.9670 H   0  0  0  0  0  0  0  0  0  0  0  0
   33.2420   27.5940   48.8850 H   0  0  0  0  0  0  0  0  0  0  0  0
   35.0780   27.5980   50.4300 H   0  0  0  0  0  0  0  0  0  0  0  0
   38.0150   33.1930   49.4360 C   0  0  0  0  0  0  0  0  0  0  0  0
   39.0360   33.1820   48.4370 C   0  0  0  0  0  0  0  0  0  0  0  0
   39.0130   32.1630   47.4990 C   0  0  0  0  0  0  0  0  0  0  0  0
   38.0220   31.2220   47.5720 N   0  0  0  0  0  0  0  0  0  0  0  0
   37.0690   31.2560   48.5260 C   0  0  0  0  0  0  0  0  0  0  0  0
   37.0710   32.2470   49.4590 N   0  0  0  0  0  0  0  0  0  0  0  0
   37.9620   33.9470   50.1990 H   0  0  0  0  0  0  0  0  0  0  0  0
   39.7750   33.9610   48.4550 H   0  0  0  0  0  0  0  0  0  0  0  0
   39.7750   32.1340   46.7340 H   0  0  0  0  0  0  0  0  0  0  0  0
   32.8200   29.3110   46.8420 C   0  0  0  0  0  0  0  0  0  0  0  0
   32.5270   30.3260   45.9560 C   0  0  0  0  0  3  0  0  0  0  0  0
   31.4500   30.2710   45.0840 C   0  0  0  0  0  0  0  0  0  0  0  0
   31.3000   31.1150   44.4260 H   0  0  0  0  0  0  0  0  0  0  0  0
   30.6510   29.1990   45.0900 N   0  0  0  0  0  0  0  0  0  0  0  0
   30.9260   28.2000   45.9510 C   0  0  0  0  0  3  0  0  0  0  0  0
   31.9700   28.2700   46.7840 N   0  0  0  0  0  0  0  0  0  0  0  0
  2  7  1  0  0  0  0
  2  1  1  0  0  0  0
  3  2  2  0  0  0  0
  4  5  2  0  0  0  0
  4  3  1  0  0  0  0
  5  6  1  0  0  0  0
  6  9  1  0  0  0  0
  6  7  2  0  0  0  0
  7 10  1  0  0  0  0
  8  4  1  0  0  0  0
 11 16  1  0  0  0  0
 11 17  1  0  0  0  0
 12 18  1  0  0  0  0
 12 11  2  0  0  0  0
 13 14  2  0  0  0  0
 13 12  1  0  0  0  0
 14 15  1  0  0  0  0
 15  3  1  0  0  0  0
 15 16  2  0  0  0  0
 19 13  1  0  0  0  0
 20  5  1  0  0  0  0
 21 20  2  0  0  0  0
 22 24  2  0  0  0  0
 22 21  1  0  0  0  0
 23 22  1  0  0  0  0
 24 25  1  0  0  0  0
 25 26  2  0  0  0  0
 26 20  1  0  0  0  0
M  END
>  <minimizedAffinity>
-5.86391783

>  <minimizedRMSD>
0.314311355

$$$$
