
 OpenBabel03272507453D

 31 33  0  0  0  0  0  0  0  0999 V2000
   37.9290   26.8710   32.9000 N   0  0  0  0  0  0  0  0  0  0  0  0
   37.6840   25.4690   32.7110 C   0  0  0  0  0  0  0  0  0  0  0  0
   38.0700   24.5500   33.8010 C   0  0  0  0  0  0  0  0  0  0  0  0
   39.2310   24.9410   34.6400 C   0  0  0  0  0  0  0  0  0  0  0  0
   39.4470   26.4160   34.7360 C   0  0  0  0  0  0  0  0  0  0  0  0
   39.2910   27.0290   33.3350 C   0  0  0  0  0  0  0  0  0  0  0  0
   38.1880   25.2010   31.7370 H   0  0  0  0  0  0  0  0  0  0  0  0
   36.6000   25.3450   32.5040 H   0  0  0  0  0  0  0  0  0  0  0  0
   38.2490   23.5400   33.3750 H   0  0  0  0  0  0  0  0  0  0  0  0
   37.1980   24.4310   34.4910 H   0  0  0  0  0  0  0  0  0  0  0  0
   40.1550   24.4860   34.1960 H   0  0  0  0  0  0  0  0  0  0  0  0
   38.7340   26.9410   35.3770 H   0  0  0  0  0  0  0  0  0  0  0  0
   40.4960   26.6090   35.0500 H   0  0  0  0  0  0  0  0  0  0  0  0
   40.0220   26.5260   32.6760 H   0  0  0  0  0  0  0  0  0  0  0  0
   39.5880   28.0910   33.4810 H   0  0  0  0  0  0  0  0  0  0  0  0
   36.9930   27.9160   32.6930 C   0  0  0  0  0  0  0  0  0  0  0  0
   36.1890   28.4700   33.6920 C   0  0  0  0  0  0  0  0  0  0  0  0
   35.3110   29.4960   33.3450 C   0  0  0  0  0  0  0  0  0  0  0  0
   35.2790   29.9120   32.0450 N   0  0  0  0  0  0  0  0  0  0  0  0
   36.0710   29.3500   31.1160 C   0  0  0  0  0  0  0  0  0  0  0  0
   36.9210   28.3630   31.4330 N   0  0  0  0  0  0  0  0  0  0  0  0
   36.2920   28.0680   34.6910 H   0  0  0  0  0  0  0  0  0  0  0  0
   34.6910   29.9200   34.1250 H   0  0  0  0  0  0  0  0  0  0  0  0
   36.0270   29.7010   30.0780 H   0  0  0  0  0  0  0  0  0  0  0  0
   39.0920   24.3430   35.9950 C   0  0  0  0  0  0  0  0  0  0  0  0
   38.0720   24.8270   36.8150 C   0  0  0  0  0  3  0  0  0  0  0  0
   37.9850   24.2320   38.0750 C   0  0  0  0  0  0  0  0  0  0  0  0
   37.1850   24.6100   38.7230 H   0  0  0  0  0  0  0  0  0  0  0  0
   38.7920   23.2580   38.5370 N   0  0  0  0  0  0  0  0  0  0  0  0
   39.7620   22.8360   37.6890 C   0  0  0  0  0  3  0  0  0  0  0  0
   39.9170   23.3560   36.4510 N   0  0  0  0  0  0  0  0  0  0  0  0
  1  6  1  0  0  0  0
  2  1  1  0  0  0  0
  2  3  1  0  0  0  0
  3 10  1  0  0  0  0
  3  4  1  0  0  0  0
  4  5  1  0  0  0  0
  4 25  1  0  0  0  0
  5 13  1  0  0  0  0
  5 12  1  0  0  0  0
  6 15  1  0  0  0  0
  6  5  1  0  0  0  0
  7  2  1  0  0  0  0
  8  2  1  0  0  0  0
  9  3  1  0  0  0  0
 11  4  1  0  0  0  0
 14  6  1  0  0  0  0
 16  1  1  0  0  0  0
 16 17  1  0  0  0  0
 17 22  1  0  0  0  0
 18 17  2  0  0  0  0
 18 23  1  0  0  0  0
 19 18  1  0  0  0  0
 20 21  1  0  0  0  0
 20 19  2  0  0  0  0
 21 16  2  0  0  0  0
 24 20  1  0  0  0  0
 25 31  2  0  0  0  0
 25 26  1  0  0  0  0
 26 27  2  0  0  0  0
 27 29  1  0  0  0  0
 27 28  1  0  0  0  0
 30 29  2  0  0  0  0
 31 30  1  0  0  0  0
M  END
>  <minimizedAffinity>
-4.87576389

$$$$

 OpenBabel03272507453D

 31 33  0  0  0  0  0  0  0  0999 V2000
   39.0750   24.8780   34.7590 N   0  0  0  0  0  0  0  0  0  0  0  0
   39.8770   26.0060   34.3760 C   0  0  0  0  0  0  0  0  0  0  0  0
   39.2380   27.0600   33.5620 C   0  0  0  0  0  0  0  0  0  0  0  0
   38.1500   26.6420   32.6420 C   0  0  0  0  0  0  0  0  0  0  0  0
   37.4030   25.4280   33.0900 C   0  0  0  0  0  0  0  0  0  0  0  0
   38.4150   24.3810   33.5810 C   0  0  0  0  0  0  0  0  0  0  0  0
   40.7850   25.5720   33.8640 H   0  0  0  0  0  0  0  0  0  0  0  0
   40.2760   26.4620   35.3070 H   0  0  0  0  0  0  0  0  0  0  0  0
   40.0210   27.5940   32.9850 H   0  0  0  0  0  0  0  0  0  0  0  0
   38.8020   27.8260   34.2520 H   0  0  0  0  0  0  0  0  0  0  0  0
   38.6010   26.4190   31.6410 H   0  0  0  0  0  0  0  0  0  0  0  0
   36.7140   25.5960   33.9210 H   0  0  0  0  0  0  0  0  0  0  0  0
   36.8850   24.9790   32.2150 H   0  0  0  0  0  0  0  0  0  0  0  0
   39.1100   24.1800   32.7440 H   0  0  0  0  0  0  0  0  0  0  0  0
   37.7890   23.4810   33.7720 H   0  0  0  0  0  0  0  0  0  0  0  0
   38.9530   24.3480   36.0690 C   0  0  0  0  0  0  0  0  0  0  0  0
   37.9830   24.7350   36.9950 C   0  0  0  0  0  0  0  0  0  0  0  0
   37.9820   24.1270   38.2500 C   0  0  0  0  0  0  0  0  0  0  0  0
   38.9290   23.1810   38.5140 N   0  0  0  0  0  0  0  0  0  0  0  0
   39.8460   22.8390   37.5930 C   0  0  0  0  0  0  0  0  0  0  0  0
   39.8600   23.4130   36.3810 N   0  0  0  0  0  0  0  0  0  0  0  0
   37.2770   25.4940   36.6860 H   0  0  0  0  0  0  0  0  0  0  0  0
   37.2260   24.4340   38.9620 H   0  0  0  0  0  0  0  0  0  0  0  0
   40.5970   22.0760   37.8280 H   0  0  0  0  0  0  0  0  0  0  0  0
   37.2160   27.7790   32.4250 C   0  0  0  0  0  0  0  0  0  0  0  0
   36.4580   28.2130   33.5150 C   0  0  0  0  0  3  0  0  0  0  0  0
   35.5990   29.2820   33.2570 C   0  0  0  0  0  0  0  0  0  0  0  0
   35.0010   29.6260   34.1100 H   0  0  0  0  0  0  0  0  0  0  0  0
   35.4550   29.9020   32.0690 N   0  0  0  0  0  0  0  0  0  0  0  0
   36.2200   29.4290   31.0550 C   0  0  0  0  0  3  0  0  0  0  0  0
   37.0790   28.3980   31.2170 N   0  0  0  0  0  0  0  0  0  0  0  0
  1 16  1  0  0  0  0
  2  1  1  0  0  0  0
  2  8  1  0  0  0  0
  3 10  1  0  0  0  0
  3  2  1  0  0  0  0
  4  5  1  0  0  0  0
  4  3  1  0  0  0  0
  5  6  1  0  0  0  0
  5 12  1  0  0  0  0
  6 15  1  0  0  0  0
  6  1  1  0  0  0  0
  7  2  1  0  0  0  0
  9  3  1  0  0  0  0
 11  4  1  0  0  0  0
 13  5  1  0  0  0  0
 14  6  1  0  0  0  0
 16 21  2  0  0  0  0
 16 17  1  0  0  0  0
 17 18  2  0  0  0  0
 18 19  1  0  0  0  0
 18 23  1  0  0  0  0
 20 24  1  0  0  0  0
 20 19  2  0  0  0  0
 21 20  1  0  0  0  0
 22 17  1  0  0  0  0
 25  4  1  0  0  0  0
 25 26  1  0  0  0  0
 27 26  2  0  0  0  0
 27 28  1  0  0  0  0
 29 27  1  0  0  0  0
 30 31  1  0  0  0  0
 30 29  2  0  0  0  0
 31 25  2  0  0  0  0
M  END
>  <minimizedAffinity>
-4.82816315

$$$$

 OpenBabel03272507453D

 31 33  0  0  0  0  0  0  0  0999 V2000
   37.6190   25.4270   32.2520 N   0  0  0  0  0  0  0  0  0  0  0  0
   36.2350   25.3490   31.8770 C   0  0  0  0  0  0  0  0  0  0  0  0
   35.6950   24.0250   31.5090 C   0  0  0  0  0  0  0  0  0  0  0  0
   36.6340   23.0570   30.8880 C   0  0  0  0  0  0  0  0  0  0  0  0
   38.0600   23.2450   31.2900 C   0  0  0  0  0  0  0  0  0  0  0  0
   38.3910   24.7450   31.2480 C   0  0  0  0  0  0  0  0  0  0  0  0
   36.1040   26.1030   31.0460 H   0  0  0  0  0  0  0  0  0  0  0  0
   35.6380   25.7610   32.7190 H   0  0  0  0  0  0  0  0  0  0  0  0
   34.8180   24.1660   30.8420 H   0  0  0  0  0  0  0  0  0  0  0  0
   35.2910   23.5380   32.4320 H   0  0  0  0  0  0  0  0  0  0  0  0
   36.5720   23.1720   29.7750 H   0  0  0  0  0  0  0  0  0  0  0  0
   38.2960   22.9110   32.3040 H   0  0  0  0  0  0  0  0  0  0  0  0
   38.7150   22.7560   30.5370 H   0  0  0  0  0  0  0  0  0  0  0  0
   38.1790   25.0970   30.2210 H   0  0  0  0  0  0  0  0  0  0  0  0
   39.4870   24.7760   31.4360 H   0  0  0  0  0  0  0  0  0  0  0  0
   38.1340   26.0630   33.4110 C   0  0  0  0  0  0  0  0  0  0  0  0
   39.4890   26.1290   33.7430 C   0  0  0  0  0  0  0  0  0  0  0  0
   39.8540   26.7890   34.9160 C   0  0  0  0  0  0  0  0  0  0  0  0
   38.8690   27.3400   35.6850 N   0  0  0  0  0  0  0  0  0  0  0  0
   37.5770   27.2510   35.3260 C   0  0  0  0  0  0  0  0  0  0  0  0
   37.2100   26.6210   34.2010 N   0  0  0  0  0  0  0  0  0  0  0  0
   40.1900   25.6600   33.0650 H   0  0  0  0  0  0  0  0  0  0  0  0
   40.9060   26.8360   35.1660 H   0  0  0  0  0  0  0  0  0  0  0  0
   36.8030   27.7020   35.9600 H   0  0  0  0  0  0  0  0  0  0  0  0
   36.1860   21.6690   31.1810 C   0  0  0  0  0  0  0  0  0  0  0  0
   35.1430   21.5040   32.0940 C   0  0  0  0  0  3  0  0  0  0  0  0
   34.7620   20.1820   32.3330 C   0  0  0  0  0  0  0  0  0  0  0  0
   33.9430   20.0470   33.0500 H   0  0  0  0  0  0  0  0  0  0  0  0
   35.3140   19.0940   31.7620 N   0  0  0  0  0  0  0  0  0  0  0  0
   36.3210   19.3270   30.8860 C   0  0  0  0  0  3  0  0  0  0  0  0
   36.7530   20.5750   30.5950 N   0  0  0  0  0  0  0  0  0  0  0  0
  1 16  1  0  0  0  0
  2  1  1  0  0  0  0
  2  8  1  0  0  0  0
  3  2  1  0  0  0  0
  3 10  1  0  0  0  0
  4 25  1  0  0  0  0
  4  5  1  0  0  0  0
  4  3  1  0  0  0  0
  5 12  1  0  0  0  0
  6  5  1  0  0  0  0
  6 15  1  0  0  0  0
  6  1  1  0  0  0  0
  7  2  1  0  0  0  0
  9  3  1  0  0  0  0
 11  4  1  0  0  0  0
 13  5  1  0  0  0  0
 14  6  1  0  0  0  0
 16 17  2  0  0  0  0
 16 21  1  0  0  0  0
 17 18  1  0  0  0  0
 18 23  1  0  0  0  0
 18 19  2  0  0  0  0
 20 19  1  0  0  0  0
 20 24  1  0  0  0  0
 21 20  2  0  0  0  0
 22 17  1  0  0  0  0
 25 26  1  0  0  0  0
 26 27  2  0  0  0  0
 27 28  1  0  0  0  0
 29 27  1  0  0  0  0
 30 29  2  0  0  0  0
 31 30  1  0  0  0  0
 31 25  2  0  0  0  0
M  END
>  <minimizedAffinity>
-4.68994188

$$$$

 OpenBabel03272507453D

 31 33  0  0  0  0  0  0  0  0999 V2000
   36.8640   23.0180   31.0660 N   0  0  0  0  0  0  0  0  0  0  0  0
   38.2640   23.3200   30.9730 C   0  0  0  0  0  0  0  0  0  0  0  0
   38.7850   24.4300   31.7970 C   0  0  0  0  0  0  0  0  0  0  0  0
   37.8560   25.5490   32.0940 C   0  0  0  0  0  0  0  0  0  0  0  0
   36.4150   25.1580   32.1150 C   0  0  0  0  0  0  0  0  0  0  0  0
   36.1330   24.2480   30.9090 C   0  0  0  0  0  0  0  0  0  0  0  0
   38.4680   23.4800   29.8740 H   0  0  0  0  0  0  0  0  0  0  0  0
   38.8220   22.3920   31.2250 H   0  0  0  0  0  0  0  0  0  0  0  0
   39.7040   24.8310   31.3200 H   0  0  0  0  0  0  0  0  0  0  0  0
   39.1180   24.0150   32.7810 H   0  0  0  0  0  0  0  0  0  0  0  0
   37.9880   26.3340   31.3050 H   0  0  0  0  0  0  0  0  0  0  0  0
   36.1080   24.5930   32.9990 H   0  0  0  0  0  0  0  0  0  0  0  0
   35.7910   26.0680   31.9760 H   0  0  0  0  0  0  0  0  0  0  0  0
   36.4170   24.8110   30.0020 H   0  0  0  0  0  0  0  0  0  0  0  0
   35.0290   24.1120   30.9370 H   0  0  0  0  0  0  0  0  0  0  0  0
   36.2990   21.7340   31.2750 C   0  0  0  0  0  0  0  0  0  0  0  0
   35.1940   21.4760   32.0890 C   0  0  0  0  0  0  0  0  0  0  0  0
   34.7450   20.1600   32.2020 C   0  0  0  0  0  0  0  0  0  0  0  0
   35.4060   19.1870   31.5120 N   0  0  0  0  0  0  0  0  0  0  0  0
   36.4670   19.4800   30.7390 C   0  0  0  0  0  0  0  0  0  0  0  0
   36.9100   20.7400   30.6190 N   0  0  0  0  0  0  0  0  0  0  0  0
   34.7420   22.3190   32.5930 H   0  0  0  0  0  0  0  0  0  0  0  0
   33.8880   19.9690   32.8360 H   0  0  0  0  0  0  0  0  0  0  0  0
   36.9820   18.6810   30.1930 H   0  0  0  0  0  0  0  0  0  0  0  0
   38.2430   26.1910   33.3780 C   0  0  0  0  0  0  0  0  0  0  0  0
   37.2540   26.8800   34.0820 C   0  0  0  0  0  3  0  0  0  0  0  0
   37.6700   27.4640   35.2800 C   0  0  0  0  0  0  0  0  0  0  0  0
   36.8960   28.0070   35.8370 H   0  0  0  0  0  0  0  0  0  0  0  0
   38.9170   27.4090   35.7850 N   0  0  0  0  0  0  0  0  0  0  0  0
   39.8280   26.7250   35.0500 C   0  0  0  0  0  3  0  0  0  0  0  0
   39.5110   26.1290   33.8790 N   0  0  0  0  0  0  0  0  0  0  0  0
  1 16  1  0  0  0  0
  2  1  1  0  0  0  0
  2  8  1  0  0  0  0
  2  3  1  0  0  0  0
  3  4  1  0  0  0  0
  3 10  1  0  0  0  0
  4  5  1  0  0  0  0
  4 25  1  0  0  0  0
  5 12  1  0  0  0  0
  6 15  1  0  0  0  0
  6  1  1  0  0  0  0
  6  5  1  0  0  0  0
  7  2  1  0  0  0  0
  9  3  1  0  0  0  0
 11  4  1  0  0  0  0
 13  5  1  0  0  0  0
 14  6  1  0  0  0  0
 16 17  1  0  0  0  0
 17 18  2  0  0  0  0
 17 22  1  0  0  0  0
 18 23  1  0  0  0  0
 19 18  1  0  0  0  0
 20 19  2  0  0  0  0
 21 20  1  0  0  0  0
 21 16  2  0  0  0  0
 24 20  1  0  0  0  0
 25 31  2  0  0  0  0
 25 26  1  0  0  0  0
 26 27  2  0  0  0  0
 27 29  1  0  0  0  0
 27 28  1  0  0  0  0
 30 29  2  0  0  0  0
 31 30  1  0  0  0  0
M  END
>  <minimizedAffinity>
-4.52157021

$$$$

 OpenBabel03272507453D

 31 33  0  0  0  0  0  0  0  0999 V2000
   36.8800   26.6220   32.6400 N   0  0  0  0  0  0  0  0  0  0  0  0
   37.2920   27.1240   33.9200 C   0  0  0  0  0  0  0  0  0  0  0  0
   36.5130   28.2320   34.5090 C   0  0  0  0  0  0  0  0  0  0  0  0
   35.8690   29.1840   33.5680 C   0  0  0  0  0  0  0  0  0  0  0  0
   35.5250   28.5930   32.2400 C   0  0  0  0  0  0  0  0  0  0  0  0
   36.7110   27.7440   31.7560 C   0  0  0  0  0  0  0  0  0  0  0  0
   38.3830   27.3920   33.8040 H   0  0  0  0  0  0  0  0  0  0  0  0
   37.2930   26.2680   34.6290 H   0  0  0  0  0  0  0  0  0  0  0  0
   37.1600   28.7940   35.2140 H   0  0  0  0  0  0  0  0  0  0  0  0
   35.6960   27.7960   35.1370 H   0  0  0  0  0  0  0  0  0  0  0  0
   36.5750   30.0360   33.3930 H   0  0  0  0  0  0  0  0  0  0  0  0
   34.6590   27.9260   32.2480 H   0  0  0  0  0  0  0  0  0  0  0  0
   35.4010   29.4130   31.5000 H   0  0  0  0  0  0  0  0  0  0  0  0
   37.5940   28.4080   31.7200 H   0  0  0  0  0  0  0  0  0  0  0  0
   36.4190   27.4520   30.7230 H   0  0  0  0  0  0  0  0  0  0  0  0
   36.6750   25.2580   32.3050 C   0  0  0  0  0  0  0  0  0  0  0  0
   35.7010   24.7970   31.4180 C   0  0  0  0  0  0  0  0  0  0  0  0
   35.6130   23.4250   31.1820 C   0  0  0  0  0  0  0  0  0  0  0  0
   36.4850   22.5980   31.8300 N   0  0  0  0  0  0  0  0  0  0  0  0
   37.4070   23.0860   32.6760 C   0  0  0  0  0  0  0  0  0  0  0  0
   37.5050   24.4020   32.9130 N   0  0  0  0  0  0  0  0  0  0  0  0
   35.0600   25.5360   30.9570 H   0  0  0  0  0  0  0  0  0  0  0  0
   34.8550   23.0760   30.4930 H   0  0  0  0  0  0  0  0  0  0  0  0
   38.0970   22.4010   33.1850 H   0  0  0  0  0  0  0  0  0  0  0  0
   34.6630   29.7770   34.2050 C   0  0  0  0  0  0  0  0  0  0  0  0
   34.8590   30.7900   35.1460 C   0  0  0  0  0  3  0  0  0  0  0  0
   33.6950   31.3110   35.7130 C   0  0  0  0  0  0  0  0  0  0  0  0
   33.8430   32.1070   36.4530 H   0  0  0  0  0  0  0  0  0  0  0  0
   32.4390   30.9160   35.4240 N   0  0  0  0  0  0  0  0  0  0  0  0
   32.3220   29.9290   34.5030 C   0  0  0  0  0  3  0  0  0  0  0  0
   33.3960   29.3680   33.9040 N   0  0  0  0  0  0  0  0  0  0  0  0
  1  2  1  0  0  0  0
  2  3  1  0  0  0  0
  2  8  1  0  0  0  0
  3 10  1  0  0  0  0
  3  9  1  0  0  0  0
  4 25  1  0  0  0  0
  4  3  1  0  0  0  0
  5 12  1  0  0  0  0
  5  4  1  0  0  0  0
  6  5  1  0  0  0  0
  6  1  1  0  0  0  0
  7  2  1  0  0  0  0
 11  4  1  0  0  0  0
 13  5  1  0  0  0  0
 14  6  1  0  0  0  0
 15  6  1  0  0  0  0
 16  1  1  0  0  0  0
 16 21  1  0  0  0  0
 17 16  2  0  0  0  0
 18 17  1  0  0  0  0
 18 19  2  0  0  0  0
 19 20  1  0  0  0  0
 20 21  2  0  0  0  0
 20 24  1  0  0  0  0
 22 17  1  0  0  0  0
 23 18  1  0  0  0  0
 25 26  1  0  0  0  0
 26 27  2  0  0  0  0
 27 28  1  0  0  0  0
 29 27  1  0  0  0  0
 30 29  2  0  0  0  0
 31 25  2  0  0  0  0
 31 30  1  0  0  0  0
M  END
>  <minimizedAffinity>
-4.51396894

$$$$

 OpenBabel03272507453D

 31 33  0  0  0  0  0  0  0  0999 V2000
   39.0990   26.7370   32.2570 N   0  0  0  0  0  0  0  0  0  0  0  0
   39.1930   25.3150   32.0830 C   0  0  0  0  0  0  0  0  0  0  0  0
   39.3240   24.4800   33.2940 C   0  0  0  0  0  0  0  0  0  0  0  0
   40.0200   25.0800   34.4600 C   0  0  0  0  0  0  0  0  0  0  0  0
   39.9180   26.5690   34.5330 C   0  0  0  0  0  0  0  0  0  0  0  0
   40.1640   27.1490   33.1320 C   0  0  0  0  0  0  0  0  0  0  0  0
   40.0500   25.1540   31.3660 H   0  0  0  0  0  0  0  0  0  0  0  0
   38.2940   24.9890   31.5160 H   0  0  0  0  0  0  0  0  0  0  0  0
   39.8210   23.5250   33.0210 H   0  0  0  0  0  0  0  0  0  0  0  0
   38.2990   24.1940   33.6400 H   0  0  0  0  0  0  0  0  0  0  0  0
   41.1060   24.8120   34.3980 H   0  0  0  0  0  0  0  0  0  0  0  0
   38.9420   26.9440   34.8500 H   0  0  0  0  0  0  0  0  0  0  0  0
   40.7330   26.9550   35.1830 H   0  0  0  0  0  0  0  0  0  0  0  0
   41.1590   26.7970   32.8030 H   0  0  0  0  0  0  0  0  0  0  0  0
   40.1930   28.2470   33.3060 H   0  0  0  0  0  0  0  0  0  0  0  0
   38.1260   27.5870   31.6710 C   0  0  0  0  0  0  0  0  0  0  0  0
   38.0940   27.9430   30.3210 C   0  0  0  0  0  0  0  0  0  0  0  0
   37.0760   28.7890   29.8810 C   0  0  0  0  0  0  0  0  0  0  0  0
   36.1580   29.2280   30.7910 N   0  0  0  0  0  0  0  0  0  0  0  0
   36.2270   28.8600   32.0820 C   0  0  0  0  0  0  0  0  0  0  0  0
   37.1990   28.0470   32.5200 N   0  0  0  0  0  0  0  0  0  0  0  0
   38.8690   27.5400   29.6830 H   0  0  0  0  0  0  0  0  0  0  0  0
   37.0590   29.0600   28.8330 H   0  0  0  0  0  0  0  0  0  0  0  0
   35.4780   29.2260   32.7940 H   0  0  0  0  0  0  0  0  0  0  0  0
   39.5170   24.4590   35.7150 C   0  0  0  0  0  0  0  0  0  0  0  0
   40.2260   23.3710   36.2290 C   0  0  0  0  0  3  0  0  0  0  0  0
   39.7120   22.8260   37.4070 C   0  0  0  0  0  0  0  0  0  0  0  0
   40.2650   21.9710   37.8140 H   0  0  0  0  0  0  0  0  0  0  0  0
   38.6170   23.2640   38.0580 N   0  0  0  0  0  0  0  0  0  0  0  0
   37.9770   24.3220   37.5040 C   0  0  0  0  0  3  0  0  0  0  0  0
   38.4060   24.9110   36.3650 N   0  0  0  0  0  0  0  0  0  0  0  0
  1  6  1  0  0  0  0
  2  1  1  0  0  0  0
  2  3  1  0  0  0  0
  3 10  1  0  0  0  0
  3  4  1  0  0  0  0
  4  5  1  0  0  0  0
  4 25  1  0  0  0  0
  5 12  1  0  0  0  0
  5 13  1  0  0  0  0
  6 15  1  0  0  0  0
  6  5  1  0  0  0  0
  7  2  1  0  0  0  0
  8  2  1  0  0  0  0
  9  3  1  0  0  0  0
 11  4  1  0  0  0  0
 14  6  1  0  0  0  0
 16  1  1  0  0  0  0
 16 21  1  0  0  0  0
 17 16  2  0  0  0  0
 18 17  1  0  0  0  0
 18 19  2  0  0  0  0
 19 20  1  0  0  0  0
 20 21  2  0  0  0  0
 20 24  1  0  0  0  0
 22 17  1  0  0  0  0
 23 18  1  0  0  0  0
 25 26  2  0  0  0  0
 25 31  1  0  0  0  0
 26 27  1  0  0  0  0
 27 28  1  0  0  0  0
 27 29  2  0  0  0  0
 30 29  1  0  0  0  0
 31 30  2  0  0  0  0
M  END
>  <minimizedAffinity>
-4.46919489

$$$$

 OpenBabel03272507453D

 31 33  0  0  0  0  0  0  0  0999 V2000
   37.1110   27.3220   33.9740 N   0  0  0  0  0  0  0  0  0  0  0  0
   37.6660   27.5510   35.2780 C   0  0  0  0  0  0  0  0  0  0  0  0
   39.0600   27.1250   35.5180 C   0  0  0  0  0  0  0  0  0  0  0  0
   39.5510   25.9500   34.7550 C   0  0  0  0  0  0  0  0  0  0  0  0
   38.8800   25.7540   33.4350 C   0  0  0  0  0  0  0  0  0  0  0  0
   37.3670   25.9530   33.6170 C   0  0  0  0  0  0  0  0  0  0  0  0
   36.9480   27.0670   36.0030 H   0  0  0  0  0  0  0  0  0  0  0  0
   37.5810   28.6390   35.4900 H   0  0  0  0  0  0  0  0  0  0  0  0
   39.2000   26.9430   36.6040 H   0  0  0  0  0  0  0  0  0  0  0  0
   39.7390   27.9790   35.2700 H   0  0  0  0  0  0  0  0  0  0  0  0
   39.3730   25.0310   35.3710 H   0  0  0  0  0  0  0  0  0  0  0  0
   39.1870   26.4590   32.6580 H   0  0  0  0  0  0  0  0  0  0  0  0
   39.0240   24.7010   33.1090 H   0  0  0  0  0  0  0  0  0  0  0  0
   37.0330   25.2310   34.3850 H   0  0  0  0  0  0  0  0  0  0  0  0
   36.9460   25.6680   32.6270 H   0  0  0  0  0  0  0  0  0  0  0  0
   36.4300   28.2780   33.1780 C   0  0  0  0  0  0  0  0  0  0  0  0
   35.4980   29.1980   33.6650 C   0  0  0  0  0  0  0  0  0  0  0  0
   34.9050   30.0820   32.7650 C   0  0  0  0  0  0  0  0  0  0  0  0
   35.2620   30.0080   31.4500 N   0  0  0  0  0  0  0  0  0  0  0  0
   36.1630   29.1060   31.0250 C   0  0  0  0  0  0  0  0  0  0  0  0
   36.7440   28.2490   31.8770 N   0  0  0  0  0  0  0  0  0  0  0  0
   35.2860   29.1740   34.7260 H   0  0  0  0  0  0  0  0  0  0  0  0
   34.1840   30.7920   33.1520 H   0  0  0  0  0  0  0  0  0  0  0  0
   36.4350   29.0660   29.9630 H   0  0  0  0  0  0  0  0  0  0  0  0
   41.0260   26.0470   34.5830 C   0  0  0  0  0  0  0  0  0  0  0  0
   41.5190   27.0920   33.8000 C   0  0  0  0  0  3  0  0  0  0  0  0
   42.9080   27.1380   33.6710 C   0  0  0  0  0  0  0  0  0  0  0  0
   43.3010   27.9570   33.0560 H   0  0  0  0  0  0  0  0  0  0  0  0
   43.7740   26.2710   34.2320 N   0  0  0  0  0  0  0  0  0  0  0  0
   43.2270   25.2810   34.9780 C   0  0  0  0  0  3  0  0  0  0  0  0
   41.8930   25.1630   35.1560 N   0  0  0  0  0  0  0  0  0  0  0  0
  1  2  1  0  0  0  0
  2  8  1  0  0  0  0
  2  3  1  0  0  0  0
  2  7  1  0  0  0  0
  3  9  1  0  0  0  0
  4 11  1  0  0  0  0
  4  3  1  0  0  0  0
  5  6  1  0  0  0  0
  5  4  1  0  0  0  0
  6  1  1  0  0  0  0
  6 14  1  0  0  0  0
 10  3  1  0  0  0  0
 12  5  1  0  0  0  0
 13  5  1  0  0  0  0
 15  6  1  0  0  0  0
 16 17  1  0  0  0  0
 16  1  1  0  0  0  0
 17 22  1  0  0  0  0
 18 23  1  0  0  0  0
 18 17  2  0  0  0  0
 19 18  1  0  0  0  0
 20 19  2  0  0  0  0
 20 21  1  0  0  0  0
 21 16  2  0  0  0  0
 24 20  1  0  0  0  0
 25  4  1  0  0  0  0
 25 31  1  0  0  0  0
 26 25  2  0  0  0  0
 27 26  1  0  0  0  0
 27 29  2  0  0  0  0
 28 27  1  0  0  0  0
 29 30  1  0  0  0  0
 30 31  2  0  0  0  0
M  END
>  <minimizedAffinity>
-4.45014429

$$$$

 OpenBabel03272507453D

 31 33  0  0  0  0  0  0  0  0999 V2000
   37.1390   27.3100   33.9960 N   0  0  0  0  0  0  0  0  0  0  0  0
   37.7030   27.5500   35.2950 C   0  0  0  0  0  0  0  0  0  0  0  0
   39.0970   27.1240   35.5290 C   0  0  0  0  0  0  0  0  0  0  0  0
   39.5820   25.9420   34.7730 C   0  0  0  0  0  0  0  0  0  0  0  0
   38.9030   25.7350   33.4590 C   0  0  0  0  0  0  0  0  0  0  0  0
   37.3910   25.9370   33.6490 C   0  0  0  0  0  0  0  0  0  0  0  0
   36.9890   27.0730   36.0280 H   0  0  0  0  0  0  0  0  0  0  0  0
   37.6200   28.6390   35.4980 H   0  0  0  0  0  0  0  0  0  0  0  0
   39.2440   26.9510   36.6160 H   0  0  0  0  0  0  0  0  0  0  0  0
   39.7760   27.9750   35.2690 H   0  0  0  0  0  0  0  0  0  0  0  0
   39.4070   25.0280   35.3990 H   0  0  0  0  0  0  0  0  0  0  0  0
   39.2050   26.4320   32.6740 H   0  0  0  0  0  0  0  0  0  0  0  0
   39.0420   24.6790   33.1420 H   0  0  0  0  0  0  0  0  0  0  0  0
   37.0610   25.2230   34.4260 H   0  0  0  0  0  0  0  0  0  0  0  0
   36.9630   25.6450   32.6650 H   0  0  0  0  0  0  0  0  0  0  0  0
   36.4530   28.2600   33.1960 C   0  0  0  0  0  0  0  0  0  0  0  0
   36.6650   28.4460   31.8290 C   0  0  0  0  0  0  0  0  0  0  0  0
   35.9170   29.4190   31.1670 C   0  0  0  0  0  0  0  0  0  0  0  0
   35.0140   30.1450   31.8870 N   0  0  0  0  0  0  0  0  0  0  0  0
   34.8430   29.9330   33.2030 C   0  0  0  0  0  0  0  0  0  0  0  0
   35.5530   29.0010   33.8540 N   0  0  0  0  0  0  0  0  0  0  0  0
   37.4050   27.8170   31.3510 H   0  0  0  0  0  0  0  0  0  0  0  0
   36.0880   29.5560   30.1060 H   0  0  0  0  0  0  0  0  0  0  0  0
   34.1100   30.5290   33.7610 H   0  0  0  0  0  0  0  0  0  0  0  0
   41.0560   26.0360   34.5910 C   0  0  0  0  0  0  0  0  0  0  0  0
   41.5470   27.0890   33.8180 C   0  0  0  0  0  3  0  0  0  0  0  0
   42.9350   27.1310   33.6790 C   0  0  0  0  0  0  0  0  0  0  0  0
   43.3260   27.9560   33.0710 H   0  0  0  0  0  0  0  0  0  0  0  0
   43.8020   26.2540   34.2210 N   0  0  0  0  0  0  0  0  0  0  0  0
   43.2570   25.2560   34.9590 C   0  0  0  0  0  3  0  0  0  0  0  0
   41.9240   25.1410   35.1460 N   0  0  0  0  0  0  0  0  0  0  0  0
  1  2  1  0  0  0  0
  2  8  1  0  0  0  0
  2  3  1  0  0  0  0
  2  7  1  0  0  0  0
  3  9  1  0  0  0  0
  4 11  1  0  0  0  0
  4  3  1  0  0  0  0
  5  6  1  0  0  0  0
  5  4  1  0  0  0  0
  6  1  1  0  0  0  0
  6 14  1  0  0  0  0
 10  3  1  0  0  0  0
 12  5  1  0  0  0  0
 13  5  1  0  0  0  0
 15  6  1  0  0  0  0
 16 21  1  0  0  0  0
 16  1  1  0  0  0  0
 17 16  2  0  0  0  0
 18 17  1  0  0  0  0
 18 19  2  0  0  0  0
 19 20  1  0  0  0  0
 20 24  1  0  0  0  0
 20 21  2  0  0  0  0
 22 17  1  0  0  0  0
 23 18  1  0  0  0  0
 25  4  1  0  0  0  0
 25 31  1  0  0  0  0
 26 25  2  0  0  0  0
 27 26  1  0  0  0  0
 27 29  2  0  0  0  0
 28 27  1  0  0  0  0
 29 30  1  0  0  0  0
 30 31  2  0  0  0  0
M  END
>  <minimizedAffinity>
-4.40696287

$$$$

 OpenBabel03272507453D

 31 33  0  0  0  0  0  0  0  0999 V2000
   38.4280   25.9300   35.4750 N   0  0  0  0  0  0  0  0  0  0  0  0
   37.2410   26.0950   34.6830 C   0  0  0  0  0  0  0  0  0  0  0  0
   37.4080   26.4260   33.2540 C   0  0  0  0  0  0  0  0  0  0  0  0
   38.6060   27.2170   32.8750 C   0  0  0  0  0  0  0  0  0  0  0  0
   39.7760   27.0280   33.7840 C   0  0  0  0  0  0  0  0  0  0  0  0
   39.2810   27.0640   35.2380 C   0  0  0  0  0  0  0  0  0  0  0  0
   36.6220   26.8680   35.2250 H   0  0  0  0  0  0  0  0  0  0  0  0
   36.6510   25.1580   34.7700 H   0  0  0  0  0  0  0  0  0  0  0  0
   36.4950   26.9470   32.8960 H   0  0  0  0  0  0  0  0  0  0  0  0
   37.4520   25.4720   32.6720 H   0  0  0  0  0  0  0  0  0  0  0  0
   38.3300   28.3030   32.8900 H   0  0  0  0  0  0  0  0  0  0  0  0
   40.2970   26.0750   33.6650 H   0  0  0  0  0  0  0  0  0  0  0  0
   40.4690   27.8890   33.6650 H   0  0  0  0  0  0  0  0  0  0  0  0
   38.7690   28.0330   35.3850 H   0  0  0  0  0  0  0  0  0  0  0  0
   40.2200   27.0430   35.8340 H   0  0  0  0  0  0  0  0  0  0  0  0
   38.7100   24.8400   36.3370 C   0  0  0  0  0  0  0  0  0  0  0  0
   38.0370   24.5790   37.5320 C   0  0  0  0  0  0  0  0  0  0  0  0
   38.4210   23.4680   38.2820 C   0  0  0  0  0  0  0  0  0  0  0  0
   39.4370   22.6870   37.8130 N   0  0  0  0  0  0  0  0  0  0  0  0
   40.0590   22.9770   36.6570 C   0  0  0  0  0  0  0  0  0  0  0  0
   39.7010   24.0400   35.9240 N   0  0  0  0  0  0  0  0  0  0  0  0
   37.2450   25.2600   37.8140 H   0  0  0  0  0  0  0  0  0  0  0  0
   37.8930   23.2730   39.2080 H   0  0  0  0  0  0  0  0  0  0  0  0
   40.8730   22.3350   36.3000 H   0  0  0  0  0  0  0  0  0  0  0  0
   38.9810   26.9120   31.4680 C   0  0  0  0  0  0  0  0  0  0  0  0
   38.9140   27.9510   30.5390 C   0  0  0  0  0  3  0  0  0  0  0  0
   39.2770   27.6110   29.2350 C   0  0  0  0  0  0  0  0  0  0  0  0
   39.2240   28.4240   28.5000 H   0  0  0  0  0  0  0  0  0  0  0  0
   39.6730   26.3900   28.8260 N   0  0  0  0  0  0  0  0  0  0  0  0
   39.7150   25.4280   29.7800 C   0  0  0  0  0  3  0  0  0  0  0  0
   39.3810   25.6700   31.0670 N   0  0  0  0  0  0  0  0  0  0  0  0
  1 16  1  0  0  0  0
  2  8  1  0  0  0  0
  2  7  1  0  0  0  0
  2  1  1  0  0  0  0
  3  2  1  0  0  0  0
  4 11  1  0  0  0  0
  4  3  1  0  0  0  0
  4  5  1  0  0  0  0
  5  6  1  0  0  0  0
  6 14  1  0  0  0  0
  6  1  1  0  0  0  0
  6 15  1  0  0  0  0
  9  3  1  0  0  0  0
 10  3  1  0  0  0  0
 12  5  1  0  0  0  0
 13  5  1  0  0  0  0
 16 17  1  0  0  0  0
 17 22  1  0  0  0  0
 17 18  2  0  0  0  0
 18 23  1  0  0  0  0
 19 18  1  0  0  0  0
 20 19  2  0  0  0  0
 21 16  2  0  0  0  0
 21 20  1  0  0  0  0
 24 20  1  0  0  0  0
 25  4  1  0  0  0  0
 26 25  2  0  0  0  0
 27 26  1  0  0  0  0
 28 27  1  0  0  0  0
 29 27  2  0  0  0  0
 29 30  1  0  0  0  0
 30 31  2  0  0  0  0
 31 25  1  0  0  0  0
M  END
>  <minimizedAffinity>
-4.40303946

$$$$
