
 OpenBabel03272506173D

 32 34  0  0  0  0  0  0  0  0999 V2000
   35.5240   30.3070   49.8260 C   0  0  0  0  0  0  0  0  0  0  0  0
   36.4490   31.2250   49.0560 C   0  0  0  0  0  0  0  0  0  0  0  0
   37.8980   30.8560   49.1920 C   0  0  0  0  0  0  0  0  0  0  0  0
   38.3440   30.7540   50.6270 C   0  0  0  0  0  0  0  0  0  0  0  0
   37.3340   30.1060   51.5230 C   0  0  0  0  0  0  0  0  0  0  0  0
   36.2550   29.3840   50.7410 C   0  0  0  0  0  0  0  0  0  0  0  0
   34.7700   30.8800   50.4040 H   0  0  0  0  0  0  0  0  0  0  0  0
   36.3460   32.2590   49.4820 H   0  0  0  0  0  0  0  0  0  0  0  0
   36.1960   31.3070   48.0030 H   0  0  0  0  0  0  0  0  0  0  0  0
   38.0870   29.8860   48.6650 H   0  0  0  0  0  0  0  0  0  0  0  0
   38.4850   31.6620   48.7100 H   0  0  0  0  0  0  0  0  0  0  0  0
   38.7280   31.7250   51.0050 H   0  0  0  0  0  0  0  0  0  0  0  0
   39.2400   30.0770   50.6240 H   0  0  0  0  0  0  0  0  0  0  0  0
   36.8130   30.9450   52.0570 H   0  0  0  0  0  0  0  0  0  0  0  0
   37.7570   29.4600   52.2990 H   0  0  0  0  0  0  0  0  0  0  0  0
   36.7610   28.5450   50.2020 H   0  0  0  0  0  0  0  0  0  0  0  0
   35.5640   28.9120   51.4450 H   0  0  0  0  0  0  0  0  0  0  0  0
   34.7450   29.4610   48.8710 C   0  0  0  0  0  0  0  0  0  0  0  0
   34.1250   30.1380   47.7960 C   0  0  0  0  0  0  0  0  0  0  0  0
   33.3970   29.3720   46.9000 C   0  0  0  0  0  0  0  0  0  0  0  0
   33.3030   28.0050   47.0840 N   0  0  0  0  0  0  0  0  0  0  0  0
   33.9230   27.3980   48.1430 C   0  0  0  0  0  0  0  0  0  0  0  0
   34.6280   28.1190   49.0140 N   0  0  0  0  0  0  0  0  0  0  0  0
   34.1500   31.1740   47.5980 H   0  0  0  0  0  0  0  0  0  0  0  0
   33.8250   26.3260   48.2510 H   0  0  0  0  0  0  0  0  0  0  0  0
   32.6940   29.8970   45.7380 C   0  0  0  0  0  0  0  0  0  0  0  0
   32.5020   29.1670   44.5850 C   0  0  0  0  0  3  0  0  0  0  0  0
   31.8410   29.6280   43.4610 C   0  0  0  0  0  0  0  0  0  0  0  0
   31.7050   29.0330   42.5730 H   0  0  0  0  0  0  0  0  0  0  0  0
   31.3410   30.8970   43.4910 N   0  0  0  0  0  0  0  0  0  0  0  0
   31.5290   31.6230   44.6300 C   0  0  0  0  0  3  0  0  0  0  0  0
   32.1770   31.1370   45.6990 N   0  0  0  0  0  0  0  0  0  0  0  0
  1  7  1  0  0  0  0
  1  6  1  0  0  0  0
  2  3  1  0  0  0  0
  2  8  1  0  0  0  0
  2  1  1  0  0  0  0
  3  4  1  0  0  0  0
  4 12  1  0  0  0  0
  4  5  1  0  0  0  0
  5 14  1  0  0  0  0
  5 15  1  0  0  0  0
  6 17  1  0  0  0  0
  6  5  1  0  0  0  0
  9  2  1  0  0  0  0
 10  3  1  0  0  0  0
 11  3  1  0  0  0  0
 13  4  1  0  0  0  0
 16  6  1  0  0  0  0
 18 23  1  0  0  0  0
 18  1  1  0  0  0  0
 19 18  2  0  0  0  0
 20 21  2  0  0  0  0
 20 19  1  0  0  0  0
 21 22  1  0  0  0  0
 22 25  1  0  0  0  0
 22 23  2  0  0  0  0
 24 19  1  0  0  0  0
 26 20  1  0  0  0  0
 27 26  2  0  0  0  0
 28 30  2  0  0  0  0
 28 27  1  0  0  0  0
 29 28  1  0  0  0  0
 30 31  1  0  0  0  0
 31 32  2  0  0  0  0
 32 26  1  0  0  0  0
M  END
>  <minimizedAffinity>
-5.22134161

>  <minimizedRMSD>
0.287737668

$$$$
