
 OpenBabel03272508563D

 38 41  0  0  1  0  0  0  0  0999 V2000
   38.3190   31.8760   44.5670 C   0  0  0  0  0  0  0  0  0  0  0  0
   37.1560   32.3200   44.4520 O   0  0  0  0  0  0  0  0  0  0  0  0
   38.9460   31.7300   45.8730 N   0  0  0  0  0  0  0  0  0  0  0  0
   39.9500   31.5680   46.0180 H   0  0  0  0  0  0  0  0  0  0  0  0
   39.1240   31.4760   43.3880 C   0  0  0  0  0  0  0  0  0  0  0  0
   40.1240   30.5590   43.5420 C   0  0  0  0  0  0  0  0  0  0  0  0
   40.8430   30.2260   42.4060 C   0  0  0  0  0  0  0  0  0  0  0  0
   40.5280   30.8150   41.2180 C   0  0  0  0  0  0  0  0  0  0  0  0
   39.5150   31.7430   41.0630 C   0  0  0  0  0  0  0  0  0  0  0  0
   38.8430   32.0380   42.1830 N   0  0  0  0  0  0  0  0  0  0  0  0
   40.3590   30.1030   44.4950 H   0  0  0  0  0  0  0  0  0  0  0  0
   41.6430   29.5030   42.4880 H   0  0  0  0  0  0  0  0  0  0  0  0
   41.1280   30.5140   40.3530 H   0  0  0  0  0  0  0  0  0  0  0  0
   39.2140   32.3480   39.7640 C   0  0  0  0  0  0  0  0  0  0  0  0
   38.6710   33.4760   39.7400 O   0  0  0  0  0  0  0  0  0  0  0  0
   39.5200   31.6920   38.5030 C   0  0  0  0  0  0  0  0  0  0  0  0
   38.6390   30.7280   38.0620 C   0  0  0  0  0  3  0  0  0  0  0  0
   38.9000   30.0780   36.8590 C   0  0  0  0  0  0  0  0  0  0  0  0
   38.2240   29.3120   36.4830 H   0  0  0  0  0  0  0  0  0  0  0  0
   40.0140   30.4280   36.1720 N   0  0  0  0  0  0  0  0  0  0  0  0
   40.8630   31.3680   36.6100 C   0  0  0  0  0  3  0  0  0  0  0  0
   40.6130   32.0000   37.7790 N   0  0  0  0  0  0  0  0  0  0  0  0
   38.4310   31.1640   48.2390 C   0  0  2  0  0  0  0  0  0  0  0  0
   38.7090   32.6230   48.1920 C   0  0  0  0  0  0  0  0  0  0  0  0
   38.0770   31.8230   47.0230 C   0  0  1  0  0  0  0  0  0  0  0  0
   39.3610   30.5390   48.2970 H   0  0  0  0  0  0  0  0  0  0  0  0
   38.0180   33.2400   48.8110 H   0  0  0  0  0  0  0  0  0  0  0  0
   39.7310   33.0010   48.0680 H   0  0  0  0  0  0  0  0  0  0  0  0
   37.0020   32.0990   46.8460 H   0  0  0  0  0  0  0  0  0  0  0  0
   35.0770   30.2490   49.5200 C   0  0  0  0  0  0  0  0  0  0  0  0
   35.4010   29.5830   50.7410 C   0  0  0  0  0  0  0  0  0  0  0  0
   36.7940   29.4720   51.1050 C   0  0  0  0  0  0  0  0  0  0  0  0
   37.7540   30.0010   50.2770 N   0  0  0  0  0  0  0  0  0  0  0  0
   37.3660   30.6160   49.1390 C   0  0  0  0  0  0  0  0  0  0  0  0
   36.0450   30.7570   48.7320 N   0  0  0  0  0  0  0  0  0  0  0  0
   34.0170   30.2950   49.3120 H   0  0  0  0  0  0  0  0  0  0  0  0
   34.6630   29.1650   51.3960 H   0  0  0  0  0  0  0  0  0  0  0  0
   37.0380   28.9670   52.0290 H   0  0  0  0  0  0  0  0  0  0  0  0
  1  3  1  0  0  0  0
  2  1  2  0  0  0  0
  3  4  1  0  0  0  0
  3 25  1  0  0  0  0
  5  6  1  0  0  0  0
  5  1  1  0  0  0  0
  6 11  1  0  0  0  0
  7 12  1  0  0  0  0
  7  6  2  0  0  0  0
  8  7  1  0  0  0  0
  9  8  2  0  0  0  0
  9 10  1  0  0  0  0
 10  5  2  0  0  0  0
 13  8  1  0  0  0  0
 14  9  1  0  0  0  0
 15 14  2  0  0  0  0
 16 14  1  0  0  0  0
 17 16  1  0  0  0  0
 18 17  2  0  0  0  0
 19 18  1  0  0  0  0
 20 21  2  0  0  0  0
 20 18  1  0  0  0  0
 21 22  1  0  0  0  0
 22 16  2  0  0  0  0
 23 26  1  6  0  0  0
 23 34  1  0  0  0  0
 24 23  1  0  0  0  0
 24 27  1  0  0  0  0
 25 29  1  6  0  0  0
 25 24  1  0  0  0  0
 25 23  1  0  0  0  0
 28 24  1  0  0  0  0
 30 31  1  0  0  0  0
 31 32  2  0  0  0  0
 31 37  1  0  0  0  0
 32 38  1  0  0  0  0
 33 32  1  0  0  0  0
 34 33  2  0  0  0  0
 35 34  1  0  0  0  0
 35 30  2  0  0  0  0
 36 30  1  0  0  0  0
M  END
>  <minimizedAffinity>
-4.94855547

>  <minimizedRMSD>
0.458619744

$$$$
