
 OpenBabel03272508563D

 38 41  0  0  1  0  0  0  0  0999 V2000
   38.3640   31.8640   44.5890 C   0  0  0  0  0  0  0  0  0  0  0  0
   37.2370   32.3940   44.4690 O   0  0  0  0  0  0  0  0  0  0  0  0
   38.9510   31.6300   45.9010 N   0  0  0  0  0  0  0  0  0  0  0  0
   39.9380   31.3900   46.0590 H   0  0  0  0  0  0  0  0  0  0  0  0
   39.1620   31.4470   43.4120 C   0  0  0  0  0  0  0  0  0  0  0  0
   40.1510   30.5180   43.5700 C   0  0  0  0  0  0  0  0  0  0  0  0
   40.8640   30.1690   42.4360 C   0  0  0  0  0  0  0  0  0  0  0  0
   40.5550   30.7550   41.2440 C   0  0  0  0  0  0  0  0  0  0  0  0
   39.5540   31.6950   41.0850 C   0  0  0  0  0  0  0  0  0  0  0  0
   38.8880   32.0050   42.2040 N   0  0  0  0  0  0  0  0  0  0  0  0
   40.3810   30.0650   44.5260 H   0  0  0  0  0  0  0  0  0  0  0  0
   41.6560   29.4370   42.5220 H   0  0  0  0  0  0  0  0  0  0  0  0
   41.1510   30.4410   40.3810 H   0  0  0  0  0  0  0  0  0  0  0  0
   39.2600   32.2950   39.7820 C   0  0  0  0  0  0  0  0  0  0  0  0
   38.7460   33.4360   39.7520 O   0  0  0  0  0  0  0  0  0  0  0  0
   39.5410   31.6210   38.5250 C   0  0  0  0  0  0  0  0  0  0  0  0
   40.6110   32.0820   37.7860 C   0  0  0  0  0  3  0  0  0  0  0  0
   40.9090   31.4610   36.5770 C   0  0  0  0  0  0  0  0  0  0  0  0
   41.7460   31.7990   35.9690 H   0  0  0  0  0  0  0  0  0  0  0  0
   40.1290   30.4260   36.1800 N   0  0  0  0  0  0  0  0  0  0  0  0
   39.0920   29.9880   36.9060 C   0  0  0  0  0  3  0  0  0  0  0  0
   38.8000   30.5890   38.0820 N   0  0  0  0  0  0  0  0  0  0  0  0
   38.4130   31.1260   48.2750 C   0  0  2  0  0  0  0  0  0  0  0  0
   38.6760   32.5860   48.1900 C   0  0  0  0  0  0  0  0  0  0  0  0
   38.0670   31.7460   47.0370 C   0  0  1  0  0  0  0  0  0  0  0  0
   39.3490   30.5130   48.3630 H   0  0  0  0  0  0  0  0  0  0  0  0
   37.9710   33.2130   48.7820 H   0  0  0  0  0  0  0  0  0  0  0  0
   39.6960   32.9720   48.0670 H   0  0  0  0  0  0  0  0  0  0  0  0
   36.9910   32.0060   46.8390 H   0  0  0  0  0  0  0  0  0  0  0  0
   35.0520   30.2180   49.5440 C   0  0  0  0  0  0  0  0  0  0  0  0
   35.3680   29.5860   50.7860 C   0  0  0  0  0  0  0  0  0  0  0  0
   36.7580   29.4960   51.1670 C   0  0  0  0  0  0  0  0  0  0  0  0
   37.7230   30.0110   50.3350 N   0  0  0  0  0  0  0  0  0  0  0  0
   37.3420   30.5930   49.1780 C   0  0  0  0  0  0  0  0  0  0  0  0
   36.0250   30.7130   48.7540 N   0  0  0  0  0  0  0  0  0  0  0  0
   33.9950   30.2500   49.3240 H   0  0  0  0  0  0  0  0  0  0  0  0
   34.6270   29.1790   51.4440 H   0  0  0  0  0  0  0  0  0  0  0  0
   36.9960   29.0170   52.1060 H   0  0  0  0  0  0  0  0  0  0  0  0
  1  3  1  0  0  0  0
  2  1  2  0  0  0  0
  3  4  1  0  0  0  0
  3 25  1  0  0  0  0
  5  6  1  0  0  0  0
  5  1  1  0  0  0  0
  6 11  1  0  0  0  0
  7 12  1  0  0  0  0
  7  6  2  0  0  0  0
  8  7  1  0  0  0  0
  9  8  2  0  0  0  0
  9 10  1  0  0  0  0
 10  5  2  0  0  0  0
 13  8  1  0  0  0  0
 14  9  1  0  0  0  0
 15 14  2  0  0  0  0
 16 14  1  0  0  0  0
 17 16  2  0  0  0  0
 18 17  1  0  0  0  0
 19 18  1  0  0  0  0
 20 18  2  0  0  0  0
 20 21  1  0  0  0  0
 21 22  2  0  0  0  0
 22 16  1  0  0  0  0
 23 26  1  6  0  0  0
 23 34  1  0  0  0  0
 24 23  1  0  0  0  0
 24 27  1  0  0  0  0
 25 29  1  6  0  0  0
 25 24  1  0  0  0  0
 25 23  1  0  0  0  0
 28 24  1  0  0  0  0
 30 31  1  0  0  0  0
 31 32  2  0  0  0  0
 31 37  1  0  0  0  0
 32 38  1  0  0  0  0
 33 32  1  0  0  0  0
 34 33  2  0  0  0  0
 35 34  1  0  0  0  0
 35 30  2  0  0  0  0
 36 30  1  0  0  0  0
M  END
>  <minimizedAffinity>
-4.94624376

>  <minimizedRMSD>
0.346657783

$$$$
