REMARK  Name = 
REMARK  5 active torsions:
REMARK  status: ('A' for Active; 'I' for Inactive)
REMARK    1  A    between atoms: C_1  and  C_8
REMARK    2  A    between atoms: C_3  and  N_12
REMARK    3  A    between atoms: C_10  and  C_13
REMARK    4  A    between atoms: C_17  and  C_19
REMARK    5  A    between atoms: C_19  and  C_32
REMARK                            x       y       z     vdW  Elec       q    Type
REMARK                         _______ _______ _______ _____ _____    ______ ____
ROOT
ATOM      1  C   UNL     1      38.355  31.898  44.486  0.00  0.00    +0.000 C 
ATOM      2  O   UNL     1      37.233  32.440  44.382  0.00  0.00    +0.000 OA
ATOM      3  N   UNL     1      38.949  31.638  45.790  0.00  0.00    +0.000 N 
ATOM      4  H   UNL     1      39.935  31.387  45.937  0.00  0.00    +0.000 HD
ENDROOT
BRANCH   1   5
ATOM      5  C   UNL     1      39.141  31.491  43.297  0.00  0.00    +0.000 A 
ATOM      6  C   UNL     1      40.142  30.572  43.440  0.00  0.00    +0.000 A 
ATOM      7  C   UNL     1      40.843  30.233  42.295  0.00  0.00    +0.000 A 
ATOM      8  C   UNL     1      40.511  30.818  41.109  0.00  0.00    +0.000 A 
ATOM      9  C   UNL     1      39.498  31.747  40.965  0.00  0.00    +0.000 A 
ATOM     10  N   UNL     1      38.844  32.048  42.094  0.00  0.00    +0.000 NA
ATOM     11  H   UNL     1      40.390  30.120  44.391  0.00  0.00    +0.000 HD
ATOM     12  H   UNL     1      41.643  29.509  42.368  0.00  0.00    +0.000 HD
ATOM     13  H   UNL     1      41.098  30.512  40.237  0.00  0.00    +0.000 HD
BRANCH   9  14
ATOM     14  C   UNL     1      39.179  32.347  39.668  0.00  0.00    +0.000 C 
ATOM     15  O   UNL     1      38.850  33.554  39.632  0.00  0.00    +0.000 OA
BRANCH  14  16
ATOM     16  C   UNL     1      39.229  31.598  38.423  0.00  0.00    +0.000 A 
ATOM     17  C   UNL     1      39.279  30.223  38.515  0.00  0.00    +0.000 A 
ATOM     18  C   UNL     1      39.328  29.473  37.343  0.00  0.00    +0.000 A 
ATOM     19  H   UNL     1      39.368  28.386  37.380  0.00  0.00    +0.000 HD
ATOM     20  N   UNL     1      39.324  30.133  36.160  0.00  0.00    +0.000 NA
ATOM     21  C   UNL     1      39.275  31.470  36.084  0.00  0.00    +0.000 A 
ATOM     22  N   UNL     1      39.228  32.202  37.220  0.00  0.00    +0.000 NA
ENDBRANCH  14  16
ENDBRANCH   9  14
ENDBRANCH   1   5
BRANCH   3  25
ATOM     23  C   UNL     1      38.434  31.122  48.167  0.00  0.00    +0.000 C 
ATOM     24  C   UNL     1      38.689  32.584  48.085  0.00  0.00    +0.000 C 
ATOM     25  C   UNL     1      38.075  31.745  46.934  0.00  0.00    +0.000 C 
ATOM     26  H   UNL     1      39.374  30.514  48.244  0.00  0.00    +0.000 HD
ATOM     27  H   UNL     1      37.986  33.205  48.686  0.00  0.00    +0.000 HD
ATOM     28  H   UNL     1      39.706  32.975  47.955  0.00  0.00    +0.000 HD
ATOM     29  H   UNL     1      36.996  32.000  46.746  0.00  0.00    +0.000 HD
BRANCH  23  34
ATOM     30  C   UNL     1      35.085  30.257  49.495  0.00  0.00    +0.000 A 
ATOM     31  C   UNL     1      35.417  29.559  50.696  0.00  0.00    +0.000 A 
ATOM     32  C   UNL     1      36.814  29.409  51.030  0.00  0.00    +0.000 A 
ATOM     33  N   UNL     1      37.770  29.933  50.194  0.00  0.00    +0.000 NA
ATOM     34  C   UNL     1      37.374  30.580  49.077  0.00  0.00    +0.000 A 
ATOM     35  N   UNL     1      36.049  30.759  48.699  0.00  0.00    +0.000 NA
ATOM     36  H   UNL     1      34.023  30.331  49.309  0.00  0.00    +0.000 HD
ATOM     37  H   UNL     1      34.683  29.144  51.357  0.00  0.00    +0.000 HD
ATOM     38  H   UNL     1      37.064  28.880  51.939  0.00  0.00    +0.000 HD
ENDBRANCH  23  34
ENDBRANCH   3  25
TORSDOF 5
