
 OpenBabel03272508563D

 38 41  0  0  1  0  0  0  0  0999 V2000
   38.3260   31.8840   44.5920 C   0  0  0  0  0  0  0  0  0  0  0  0
   37.1730   32.3530   44.4770 O   0  0  0  0  0  0  0  0  0  0  0  0
   38.9430   31.7100   45.9000 N   0  0  0  0  0  0  0  0  0  0  0  0
   39.9430   31.5250   46.0480 H   0  0  0  0  0  0  0  0  0  0  0  0
   39.1280   31.4800   43.4130 C   0  0  0  0  0  0  0  0  0  0  0  0
   40.1270   30.5610   43.5670 C   0  0  0  0  0  0  0  0  0  0  0  0
   40.8440   30.2240   42.4310 C   0  0  0  0  0  0  0  0  0  0  0  0
   40.5280   30.8110   41.2420 C   0  0  0  0  0  0  0  0  0  0  0  0
   39.5160   31.7400   41.0860 C   0  0  0  0  0  0  0  0  0  0  0  0
   38.8470   32.0390   42.2070 N   0  0  0  0  0  0  0  0  0  0  0  0
   40.3630   30.1070   44.5210 H   0  0  0  0  0  0  0  0  0  0  0  0
   41.6430   29.5000   42.5130 H   0  0  0  0  0  0  0  0  0  0  0  0
   41.1260   30.5070   40.3770 H   0  0  0  0  0  0  0  0  0  0  0  0
   39.2150   32.3430   39.7860 C   0  0  0  0  0  0  0  0  0  0  0  0
   38.6710   33.4700   39.7610 O   0  0  0  0  0  0  0  0  0  0  0  0
   39.5210   31.6860   38.5260 C   0  0  0  0  0  0  0  0  0  0  0  0
   40.5530   32.2080   37.7770 C   0  0  0  0  0  3  0  0  0  0  0  0
   40.8750   31.6050   36.5640 C   0  0  0  0  0  0  0  0  0  0  0  0
   41.6850   31.9920   35.9470 H   0  0  0  0  0  0  0  0  0  0  0  0
   40.1540   30.5260   36.1750 N   0  0  0  0  0  0  0  0  0  0  0  0
   39.1520   30.0280   36.9130 C   0  0  0  0  0  3  0  0  0  0  0  0
   38.8370   30.6110   38.0910 N   0  0  0  0  0  0  0  0  0  0  0  0
   38.4210   31.1570   48.2670 C   0  0  2  0  0  0  0  0  0  0  0  0
   38.6970   32.6160   48.2130 C   0  0  0  0  0  0  0  0  0  0  0  0
   38.0710   31.8080   47.0460 C   0  0  1  0  0  0  0  0  0  0  0  0
   39.3510   30.5330   48.3320 H   0  0  0  0  0  0  0  0  0  0  0  0
   38.0040   33.2360   48.8260 H   0  0  0  0  0  0  0  0  0  0  0  0
   39.7200   32.9940   48.0900 H   0  0  0  0  0  0  0  0  0  0  0  0
   36.9950   32.0830   46.8640 H   0  0  0  0  0  0  0  0  0  0  0  0
   35.0650   30.2280   49.5330 C   0  0  0  0  0  0  0  0  0  0  0  0
   35.3840   29.5870   50.7690 C   0  0  0  0  0  0  0  0  0  0  0  0
   36.7750   29.4970   51.1470 C   0  0  0  0  0  0  0  0  0  0  0  0
   37.7370   30.0220   50.3190 N   0  0  0  0  0  0  0  0  0  0  0  0
   37.3530   30.6130   49.1670 C   0  0  0  0  0  0  0  0  0  0  0  0
   36.0340   30.7330   48.7460 N   0  0  0  0  0  0  0  0  0  0  0  0
   34.0070   30.2590   49.3150 H   0  0  0  0  0  0  0  0  0  0  0  0
   34.6450   29.1720   51.4240 H   0  0  0  0  0  0  0  0  0  0  0  0
   37.0160   29.0120   52.0820 H   0  0  0  0  0  0  0  0  0  0  0  0
  1  3  1  0  0  0  0
  2  1  2  0  0  0  0
  3  4  1  0  0  0  0
  3 25  1  0  0  0  0
  5  6  1  0  0  0  0
  5  1  1  0  0  0  0
  6 11  1  0  0  0  0
  7 12  1  0  0  0  0
  7  6  2  0  0  0  0
  8  7  1  0  0  0  0
  9  8  2  0  0  0  0
  9 10  1  0  0  0  0
 10  5  2  0  0  0  0
 13  8  1  0  0  0  0
 14  9  1  0  0  0  0
 15 14  2  0  0  0  0
 16 14  1  0  0  0  0
 17 16  2  0  0  0  0
 18 17  1  0  0  0  0
 19 18  1  0  0  0  0
 20 18  2  0  0  0  0
 20 21  1  0  0  0  0
 21 22  2  0  0  0  0
 22 16  1  0  0  0  0
 23 26  1  6  0  0  0
 23 34  1  0  0  0  0
 24 23  1  0  0  0  0
 24 27  1  0  0  0  0
 25 29  1  6  0  0  0
 25 24  1  0  0  0  0
 25 23  1  0  0  0  0
 28 24  1  0  0  0  0
 30 31  1  0  0  0  0
 31 32  2  0  0  0  0
 31 37  1  0  0  0  0
 32 38  1  0  0  0  0
 33 32  1  0  0  0  0
 34 33  2  0  0  0  0
 35 34  1  0  0  0  0
 35 30  2  0  0  0  0
 36 30  1  0  0  0  0
M  END
>  <minimizedAffinity>
-4.95022869

>  <minimizedRMSD>
0.513153434

$$$$
