
 OpenBabel03272508563D

 38 41  0  0  1  0  0  0  0  0999 V2000
   38.3210   31.8770   44.5720 C   0  0  0  0  0  0  0  0  0  0  0  0
   37.1590   32.3240   44.4570 O   0  0  0  0  0  0  0  0  0  0  0  0
   38.9460   31.7280   45.8790 N   0  0  0  0  0  0  0  0  0  0  0  0
   39.9500   31.5620   46.0250 H   0  0  0  0  0  0  0  0  0  0  0  0
   39.1260   31.4760   43.3940 C   0  0  0  0  0  0  0  0  0  0  0  0
   40.1270   30.5580   43.5490 C   0  0  0  0  0  0  0  0  0  0  0  0
   40.8450   30.2250   42.4130 C   0  0  0  0  0  0  0  0  0  0  0  0
   40.5300   30.8140   41.2240 C   0  0  0  0  0  0  0  0  0  0  0  0
   39.5180   31.7410   41.0680 C   0  0  0  0  0  0  0  0  0  0  0  0
   38.8460   32.0370   42.1890 N   0  0  0  0  0  0  0  0  0  0  0  0
   40.3610   30.1030   44.5020 H   0  0  0  0  0  0  0  0  0  0  0  0
   41.6460   29.5020   42.4960 H   0  0  0  0  0  0  0  0  0  0  0  0
   41.1310   30.5120   40.3600 H   0  0  0  0  0  0  0  0  0  0  0  0
   39.2170   32.3450   39.7690 C   0  0  0  0  0  0  0  0  0  0  0  0
   38.6670   33.4690   39.7450 O   0  0  0  0  0  0  0  0  0  0  0  0
   39.5310   31.6930   38.5080 C   0  0  0  0  0  0  0  0  0  0  0  0
   40.5630   32.2230   37.7630 C   0  0  0  0  0  3  0  0  0  0  0  0
   40.8920   31.6250   36.5500 C   0  0  0  0  0  0  0  0  0  0  0  0
   41.7020   32.0190   35.9370 H   0  0  0  0  0  0  0  0  0  0  0  0
   40.1790   30.5430   36.1560 N   0  0  0  0  0  0  0  0  0  0  0  0
   39.1790   30.0360   36.8900 C   0  0  0  0  0  3  0  0  0  0  0  0
   38.8560   30.6150   38.0680 N   0  0  0  0  0  0  0  0  0  0  0  0
   38.4290   31.1630   48.2450 C   0  0  2  0  0  0  0  0  0  0  0  0
   38.7070   32.6230   48.1970 C   0  0  0  0  0  0  0  0  0  0  0  0
   38.0770   31.8210   47.0280 C   0  0  1  0  0  0  0  0  0  0  0  0
   39.3600   30.5390   48.3040 H   0  0  0  0  0  0  0  0  0  0  0  0
   38.0160   33.2400   48.8150 H   0  0  0  0  0  0  0  0  0  0  0  0
   39.7300   33.0000   48.0730 H   0  0  0  0  0  0  0  0  0  0  0  0
   37.0020   32.0980   46.8500 H   0  0  0  0  0  0  0  0  0  0  0  0
   35.0740   30.2460   49.5210 C   0  0  0  0  0  0  0  0  0  0  0  0
   35.3970   29.5850   50.7460 C   0  0  0  0  0  0  0  0  0  0  0  0
   36.7900   29.4790   51.1140 C   0  0  0  0  0  0  0  0  0  0  0  0
   37.7500   30.0070   50.2860 N   0  0  0  0  0  0  0  0  0  0  0  0
   37.3630   30.6160   49.1450 C   0  0  0  0  0  0  0  0  0  0  0  0
   36.0430   30.7530   48.7340 N   0  0  0  0  0  0  0  0  0  0  0  0
   34.0150   30.2880   49.3110 H   0  0  0  0  0  0  0  0  0  0  0  0
   34.6590   29.1680   51.4010 H   0  0  0  0  0  0  0  0  0  0  0  0
   37.0330   28.9780   52.0410 H   0  0  0  0  0  0  0  0  0  0  0  0
  1  3  1  0  0  0  0
  2  1  2  0  0  0  0
  3  4  1  0  0  0  0
  3 25  1  0  0  0  0
  5  6  1  0  0  0  0
  5  1  1  0  0  0  0
  6 11  1  0  0  0  0
  7 12  1  0  0  0  0
  7  6  2  0  0  0  0
  8  7  1  0  0  0  0
  9  8  2  0  0  0  0
  9 10  1  0  0  0  0
 10  5  2  0  0  0  0
 13  8  1  0  0  0  0
 14  9  1  0  0  0  0
 15 14  2  0  0  0  0
 16 14  1  0  0  0  0
 17 16  2  0  0  0  0
 18 17  1  0  0  0  0
 19 18  1  0  0  0  0
 20 18  2  0  0  0  0
 20 21  1  0  0  0  0
 21 22  2  0  0  0  0
 22 16  1  0  0  0  0
 23 26  1  6  0  0  0
 23 34  1  0  0  0  0
 24 23  1  0  0  0  0
 24 27  1  0  0  0  0
 25 29  1  6  0  0  0
 25 24  1  0  0  0  0
 25 23  1  0  0  0  0
 28 24  1  0  0  0  0
 30 31  1  0  0  0  0
 31 32  2  0  0  0  0
 31 37  1  0  0  0  0
 32 38  1  0  0  0  0
 33 32  1  0  0  0  0
 34 33  2  0  0  0  0
 35 34  1  0  0  0  0
 35 30  2  0  0  0  0
 36 30  1  0  0  0  0
M  END
>  <minimizedAffinity>
-4.95539141

>  <minimizedRMSD>
0.36381644

$$$$
