
 OpenBabel03272508563D

 38 41  0  0  1  0  0  0  0  0999 V2000
   38.3640   31.8930   44.5180 C   0  0  0  0  0  0  0  0  0  0  0  0
   37.2460   32.4430   44.4120 O   0  0  0  0  0  0  0  0  0  0  0  0
   38.9520   31.6250   45.8230 N   0  0  0  0  0  0  0  0  0  0  0  0
   39.9360   31.3660   45.9720 H   0  0  0  0  0  0  0  0  0  0  0  0
   39.1510   31.4860   43.3300 C   0  0  0  0  0  0  0  0  0  0  0  0
   40.1430   30.5560   43.4720 C   0  0  0  0  0  0  0  0  0  0  0  0
   40.8450   30.2170   42.3280 C   0  0  0  0  0  0  0  0  0  0  0  0
   40.5240   30.8120   41.1440 C   0  0  0  0  0  0  0  0  0  0  0  0
   39.5200   31.7510   41.0010 C   0  0  0  0  0  0  0  0  0  0  0  0
   38.8640   32.0520   42.1280 N   0  0  0  0  0  0  0  0  0  0  0  0
   40.3820   30.0970   44.4210 H   0  0  0  0  0  0  0  0  0  0  0  0
   41.6380   29.4850   42.4000 H   0  0  0  0  0  0  0  0  0  0  0  0
   41.1120   30.5050   40.2720 H   0  0  0  0  0  0  0  0  0  0  0  0
   39.2120   32.3610   39.7060 C   0  0  0  0  0  0  0  0  0  0  0  0
   38.7490   33.5240   39.6870 O   0  0  0  0  0  0  0  0  0  0  0  0
   39.4230   31.6720   38.4430 C   0  0  0  0  0  0  0  0  0  0  0  0
   40.4610   32.1110   37.6490 C   0  0  0  0  0  3  0  0  0  0  0  0
   40.6930   31.4740   36.4330 C   0  0  0  0  0  0  0  0  0  0  0  0
   41.5050   31.7960   35.7830 H   0  0  0  0  0  0  0  0  0  0  0  0
   39.8810   30.4470   36.0840 N   0  0  0  0  0  0  0  0  0  0  0  0
   38.8750   30.0290   36.8640 C   0  0  0  0  0  3  0  0  0  0  0  0
   38.6470   30.6460   38.0460 N   0  0  0  0  0  0  0  0  0  0  0  0
   38.4280   31.1080   48.1970 C   0  0  2  0  0  0  0  0  0  0  0  0
   38.6880   32.5690   48.1180 C   0  0  0  0  0  0  0  0  0  0  0  0
   38.0750   31.7330   46.9640 C   0  0  1  0  0  0  0  0  0  0  0  0
   39.3660   30.4960   48.2760 H   0  0  0  0  0  0  0  0  0  0  0  0
   37.9850   33.1910   48.7170 H   0  0  0  0  0  0  0  0  0  0  0  0
   39.7070   32.9570   47.9910 H   0  0  0  0  0  0  0  0  0  0  0  0
   36.9970   31.9920   46.7730 H   0  0  0  0  0  0  0  0  0  0  0  0
   35.0730   30.2370   49.5060 C   0  0  0  0  0  0  0  0  0  0  0  0
   35.3990   29.5510   50.7160 C   0  0  0  0  0  0  0  0  0  0  0  0
   36.7940   29.4110   51.0620 C   0  0  0  0  0  0  0  0  0  0  0  0
   37.7540   29.9330   50.2290 N   0  0  0  0  0  0  0  0  0  0  0  0
   37.3640   30.5680   49.1040 C   0  0  0  0  0  0  0  0  0  0  0  0
   36.0410   30.7370   48.7140 N   0  0  0  0  0  0  0  0  0  0  0  0
   34.0120   30.3040   49.3110 H   0  0  0  0  0  0  0  0  0  0  0  0
   34.6620   29.1380   51.3750 H   0  0  0  0  0  0  0  0  0  0  0  0
   37.0390   28.8910   51.9780 H   0  0  0  0  0  0  0  0  0  0  0  0
  1  3  1  0  0  0  0
  2  1  2  0  0  0  0
  3  4  1  0  0  0  0
  3 25  1  0  0  0  0
  5  6  1  0  0  0  0
  5  1  1  0  0  0  0
  6 11  1  0  0  0  0
  7 12  1  0  0  0  0
  7  6  2  0  0  0  0
  8  7  1  0  0  0  0
  9  8  2  0  0  0  0
  9 10  1  0  0  0  0
 10  5  2  0  0  0  0
 13  8  1  0  0  0  0
 14  9  1  0  0  0  0
 15 14  2  0  0  0  0
 16 14  1  0  0  0  0
 17 16  2  0  0  0  0
 18 17  1  0  0  0  0
 19 18  1  0  0  0  0
 20 18  2  0  0  0  0
 20 21  1  0  0  0  0
 21 22  2  0  0  0  0
 22 16  1  0  0  0  0
 23 26  1  6  0  0  0
 23 34  1  0  0  0  0
 24 23  1  0  0  0  0
 24 27  1  0  0  0  0
 25 29  1  6  0  0  0
 25 24  1  0  0  0  0
 25 23  1  0  0  0  0
 28 24  1  0  0  0  0
 30 31  1  0  0  0  0
 31 32  2  0  0  0  0
 31 37  1  0  0  0  0
 32 38  1  0  0  0  0
 33 32  1  0  0  0  0
 34 33  2  0  0  0  0
 35 34  1  0  0  0  0
 35 30  2  0  0  0  0
 36 30  1  0  0  0  0
M  END
>  <minimizedAffinity>
-4.93024302

>  <minimizedRMSD>
0.642894089

$$$$
