
 OpenBabel03272508563D

 38 41  0  0  1  0  0  0  0  0999 V2000
   38.3660   31.8640   44.5870 C   0  0  0  0  0  0  0  0  0  0  0  0
   37.2410   32.3960   44.4670 O   0  0  0  0  0  0  0  0  0  0  0  0
   38.9520   31.6270   45.8990 N   0  0  0  0  0  0  0  0  0  0  0  0
   39.9390   31.3850   46.0570 H   0  0  0  0  0  0  0  0  0  0  0  0
   39.1640   31.4460   43.4100 C   0  0  0  0  0  0  0  0  0  0  0  0
   40.1520   30.5150   43.5690 C   0  0  0  0  0  0  0  0  0  0  0  0
   40.8650   30.1660   42.4340 C   0  0  0  0  0  0  0  0  0  0  0  0
   40.5570   30.7530   41.2430 C   0  0  0  0  0  0  0  0  0  0  0  0
   39.5570   31.6930   41.0830 C   0  0  0  0  0  0  0  0  0  0  0  0
   38.8900   32.0040   42.2020 N   0  0  0  0  0  0  0  0  0  0  0  0
   40.3810   30.0620   44.5240 H   0  0  0  0  0  0  0  0  0  0  0  0
   41.6550   29.4330   42.5200 H   0  0  0  0  0  0  0  0  0  0  0  0
   41.1520   30.4380   40.3800 H   0  0  0  0  0  0  0  0  0  0  0  0
   39.2630   32.2950   39.7810 C   0  0  0  0  0  0  0  0  0  0  0  0
   38.7500   33.4360   39.7510 O   0  0  0  0  0  0  0  0  0  0  0  0
   39.5430   31.6210   38.5240 C   0  0  0  0  0  0  0  0  0  0  0  0
   40.6120   32.0820   37.7840 C   0  0  0  0  0  3  0  0  0  0  0  0
   40.9110   31.4610   36.5750 C   0  0  0  0  0  0  0  0  0  0  0  0
   41.7480   31.7990   35.9680 H   0  0  0  0  0  0  0  0  0  0  0  0
   40.1320   30.4260   36.1790 N   0  0  0  0  0  0  0  0  0  0  0  0
   39.0950   29.9870   36.9060 C   0  0  0  0  0  3  0  0  0  0  0  0
   38.8020   30.5880   38.0800 N   0  0  0  0  0  0  0  0  0  0  0  0
   38.4130   31.1240   48.2740 C   0  0  2  0  0  0  0  0  0  0  0  0
   38.6770   32.5840   48.1880 C   0  0  0  0  0  0  0  0  0  0  0  0
   38.0690   31.7440   47.0350 C   0  0  1  0  0  0  0  0  0  0  0  0
   39.3490   30.5110   48.3620 H   0  0  0  0  0  0  0  0  0  0  0  0
   37.9730   33.2120   48.7800 H   0  0  0  0  0  0  0  0  0  0  0  0
   39.6980   32.9690   48.0650 H   0  0  0  0  0  0  0  0  0  0  0  0
   36.9930   32.0040   46.8370 H   0  0  0  0  0  0  0  0  0  0  0  0
   35.0520   30.2190   49.5430 C   0  0  0  0  0  0  0  0  0  0  0  0
   35.3680   29.5870   50.7840 C   0  0  0  0  0  0  0  0  0  0  0  0
   36.7580   29.4950   51.1650 C   0  0  0  0  0  0  0  0  0  0  0  0
   37.7230   30.0100   50.3340 N   0  0  0  0  0  0  0  0  0  0  0  0
   37.3420   30.5920   49.1770 C   0  0  0  0  0  0  0  0  0  0  0  0
   36.0250   30.7130   48.7530 N   0  0  0  0  0  0  0  0  0  0  0  0
   33.9950   30.2510   49.3230 H   0  0  0  0  0  0  0  0  0  0  0  0
   34.6260   29.1800   51.4420 H   0  0  0  0  0  0  0  0  0  0  0  0
   36.9950   29.0160   52.1050 H   0  0  0  0  0  0  0  0  0  0  0  0
  1  3  1  0  0  0  0
  2  1  2  0  0  0  0
  3  4  1  0  0  0  0
  3 25  1  0  0  0  0
  5  6  1  0  0  0  0
  5  1  1  0  0  0  0
  6 11  1  0  0  0  0
  7 12  1  0  0  0  0
  7  6  2  0  0  0  0
  8  7  1  0  0  0  0
  9  8  2  0  0  0  0
  9 10  1  0  0  0  0
 10  5  2  0  0  0  0
 13  8  1  0  0  0  0
 14  9  1  0  0  0  0
 15 14  2  0  0  0  0
 16 14  1  0  0  0  0
 17 16  2  0  0  0  0
 18 17  1  0  0  0  0
 19 18  1  0  0  0  0
 20 18  2  0  0  0  0
 20 21  1  0  0  0  0
 21 22  2  0  0  0  0
 22 16  1  0  0  0  0
 23 26  1  6  0  0  0
 23 34  1  0  0  0  0
 24 23  1  0  0  0  0
 24 27  1  0  0  0  0
 25 29  1  6  0  0  0
 25 24  1  0  0  0  0
 25 23  1  0  0  0  0
 28 24  1  0  0  0  0
 30 31  1  0  0  0  0
 31 32  2  0  0  0  0
 31 37  1  0  0  0  0
 32 38  1  0  0  0  0
 33 32  1  0  0  0  0
 34 33  2  0  0  0  0
 35 34  1  0  0  0  0
 35 30  2  0  0  0  0
 36 30  1  0  0  0  0
M  END
>  <minimizedAffinity>
-4.94670343

>  <minimizedRMSD>
0.307741731

$$$$
