
 OpenBabel03272508563D

 38 41  0  0  1  0  0  0  0  0999 V2000
   38.3190   31.8770   44.5690 C   0  0  0  0  0  0  0  0  0  0  0  0
   37.1560   32.3220   44.4550 O   0  0  0  0  0  0  0  0  0  0  0  0
   38.9450   31.7300   45.8760 N   0  0  0  0  0  0  0  0  0  0  0  0
   39.9490   31.5660   46.0210 H   0  0  0  0  0  0  0  0  0  0  0  0
   39.1230   31.4770   43.3910 C   0  0  0  0  0  0  0  0  0  0  0  0
   40.1240   30.5590   43.5450 C   0  0  0  0  0  0  0  0  0  0  0  0
   40.8420   30.2260   42.4090 C   0  0  0  0  0  0  0  0  0  0  0  0
   40.5270   30.8160   41.2200 C   0  0  0  0  0  0  0  0  0  0  0  0
   39.5140   31.7430   41.0650 C   0  0  0  0  0  0  0  0  0  0  0  0
   38.8430   32.0380   42.1860 N   0  0  0  0  0  0  0  0  0  0  0  0
   40.3590   30.1040   44.4970 H   0  0  0  0  0  0  0  0  0  0  0  0
   41.6430   29.5040   42.4900 H   0  0  0  0  0  0  0  0  0  0  0  0
   41.1270   30.5140   40.3560 H   0  0  0  0  0  0  0  0  0  0  0  0
   39.2130   32.3480   39.7660 C   0  0  0  0  0  0  0  0  0  0  0  0
   38.6710   33.4760   39.7430 O   0  0  0  0  0  0  0  0  0  0  0  0
   39.5190   31.6920   38.5050 C   0  0  0  0  0  0  0  0  0  0  0  0
   38.6370   30.7280   38.0650 C   0  0  0  0  0  3  0  0  0  0  0  0
   38.8960   30.0780   36.8620 C   0  0  0  0  0  0  0  0  0  0  0  0
   38.2210   29.3110   36.4860 H   0  0  0  0  0  0  0  0  0  0  0  0
   40.0110   30.4270   36.1750 N   0  0  0  0  0  0  0  0  0  0  0  0
   40.8600   31.3660   36.6130 C   0  0  0  0  0  3  0  0  0  0  0  0
   40.6110   31.9990   37.7810 N   0  0  0  0  0  0  0  0  0  0  0  0
   38.4300   31.1630   48.2410 C   0  0  2  0  0  0  0  0  0  0  0  0
   38.7080   32.6230   48.1950 C   0  0  0  0  0  0  0  0  0  0  0  0
   38.0770   31.8220   47.0260 C   0  0  1  0  0  0  0  0  0  0  0  0
   39.3600   30.5390   48.3000 H   0  0  0  0  0  0  0  0  0  0  0  0
   38.0170   33.2400   48.8130 H   0  0  0  0  0  0  0  0  0  0  0  0
   39.7310   33.0010   48.0710 H   0  0  0  0  0  0  0  0  0  0  0  0
   37.0010   32.0990   46.8480 H   0  0  0  0  0  0  0  0  0  0  0  0
   35.0750   30.2470   49.5200 C   0  0  0  0  0  0  0  0  0  0  0  0
   35.3990   29.5840   50.7430 C   0  0  0  0  0  0  0  0  0  0  0  0
   36.7920   29.4760   51.1090 C   0  0  0  0  0  0  0  0  0  0  0  0
   37.7520   30.0040   50.2810 N   0  0  0  0  0  0  0  0  0  0  0  0
   37.3640   30.6160   49.1420 C   0  0  0  0  0  0  0  0  0  0  0  0
   36.0440   30.7540   48.7330 N   0  0  0  0  0  0  0  0  0  0  0  0
   34.0160   30.2900   49.3110 H   0  0  0  0  0  0  0  0  0  0  0  0
   34.6610   29.1660   51.3990 H   0  0  0  0  0  0  0  0  0  0  0  0
   37.0350   28.9730   52.0350 H   0  0  0  0  0  0  0  0  0  0  0  0
  1  3  1  0  0  0  0
  2  1  2  0  0  0  0
  3  4  1  0  0  0  0
  3 25  1  0  0  0  0
  5  6  1  0  0  0  0
  5  1  1  0  0  0  0
  6 11  1  0  0  0  0
  7 12  1  0  0  0  0
  7  6  2  0  0  0  0
  8  7  1  0  0  0  0
  9  8  2  0  0  0  0
  9 10  1  0  0  0  0
 10  5  2  0  0  0  0
 13  8  1  0  0  0  0
 14  9  1  0  0  0  0
 15 14  2  0  0  0  0
 16 14  1  0  0  0  0
 17 16  1  0  0  0  0
 18 17  2  0  0  0  0
 19 18  1  0  0  0  0
 20 21  2  0  0  0  0
 20 18  1  0  0  0  0
 21 22  1  0  0  0  0
 22 16  2  0  0  0  0
 23 26  1  6  0  0  0
 23 34  1  0  0  0  0
 24 23  1  0  0  0  0
 24 27  1  0  0  0  0
 25 29  1  6  0  0  0
 25 24  1  0  0  0  0
 25 23  1  0  0  0  0
 28 24  1  0  0  0  0
 30 31  1  0  0  0  0
 31 32  2  0  0  0  0
 31 37  1  0  0  0  0
 32 38  1  0  0  0  0
 33 32  1  0  0  0  0
 34 33  2  0  0  0  0
 35 34  1  0  0  0  0
 35 30  2  0  0  0  0
 36 30  1  0  0  0  0
M  END
>  <minimizedAffinity>
-4.94772196

>  <minimizedRMSD>
0.336243659

$$$$
