
 OpenBabel03272508563D

 38 41  0  0  1  0  0  0  0  0999 V2000
   37.9600   31.5810   45.3050 C   0  0  0  0  0  0  0  0  0  0  0  0
   36.9160   30.9140   45.4740 O   0  0  0  0  0  0  0  0  0  0  0  0
   38.4500   32.4880   46.3340 N   0  0  0  0  0  0  0  0  0  0  0  0
   39.1730   33.2010   46.1790 H   0  0  0  0  0  0  0  0  0  0  0  0
   38.7550   31.4880   44.0580 C   0  0  0  0  0  0  0  0  0  0  0  0
   39.8150   30.6270   44.0030 C   0  0  0  0  0  0  0  0  0  0  0  0
   40.5210   30.5860   42.8130 C   0  0  0  0  0  0  0  0  0  0  0  0
   40.1370   31.3860   41.7780 C   0  0  0  0  0  0  0  0  0  0  0  0
   39.0650   32.2570   41.8340 C   0  0  0  0  0  0  0  0  0  0  0  0
   38.4080   32.2670   43.0010 N   0  0  0  0  0  0  0  0  0  0  0  0
   40.1030   30.0000   44.8360 H   0  0  0  0  0  0  0  0  0  0  0  0
   41.3670   29.9160   42.7310 H   0  0  0  0  0  0  0  0  0  0  0  0
   40.7310   31.3120   40.8620 H   0  0  0  0  0  0  0  0  0  0  0  0
   38.6920   33.0960   40.6940 C   0  0  0  0  0  0  0  0  0  0  0  0
   38.3940   34.2940   40.9060 O   0  0  0  0  0  0  0  0  0  0  0  0
   38.6530   32.5960   39.3300 C   0  0  0  0  0  0  0  0  0  0  0  0
   37.6030   31.7690   38.9910 C   0  0  0  0  0  0  0  0  0  0  0  0
   37.5330   31.2700   37.6930 C   0  0  0  0  0  0  0  0  0  0  0  0
   36.7170   30.6150   37.3920 H   0  0  0  0  0  0  0  0  0  0  0  0
   38.5060   31.6240   36.8190 N   0  0  0  0  0  0  0  0  0  0  0  0
   39.5210   32.4290   37.1600 C   0  0  0  0  0  0  0  0  0  0  0  0
   39.5920   32.9150   38.4200 N   0  0  0  0  0  0  0  0  0  0  0  0
   38.4670   31.4910   48.6110 C   0  0  2  0  0  0  0  0  0  0  0  0
   38.7650   32.9390   48.7680 C   0  0  0  0  0  0  0  0  0  0  0  0
   37.8660   32.3550   47.6470 C   0  0  1  0  0  0  0  0  0  0  0  0
   39.3700   30.8810   48.3430 H   0  0  0  0  0  0  0  0  0  0  0  0
   38.2480   33.4210   49.6290 H   0  0  0  0  0  0  0  0  0  0  0  0
   39.7430   33.3490   48.4860 H   0  0  0  0  0  0  0  0  0  0  0  0
   36.7860   32.6430   47.7710 H   0  0  0  0  0  0  0  0  0  0  0  0
   35.6440   29.5800   50.0620 C   0  0  0  0  0  0  0  0  0  0  0  0
   36.0680   29.4110   51.4150 C   0  0  0  0  0  0  0  0  0  0  0  0
   37.3370   29.9800   51.8050 C   0  0  0  0  0  0  0  0  0  0  0  0
   38.0900   30.6560   50.8750 N   0  0  0  0  0  0  0  0  0  0  0  0
   37.6180   30.7720   49.6150 C   0  0  0  0  0  0  0  0  0  0  0  0
   36.4070   30.2490   49.1770 N   0  0  0  0  0  0  0  0  0  0  0  0
   34.6860   29.1290   49.8420 H   0  0  0  0  0  0  0  0  0  0  0  0
   35.4930   28.8860   52.1510 H   0  0  0  0  0  0  0  0  0  0  0  0
   37.6570   29.8520   52.8290 H   0  0  0  0  0  0  0  0  0  0  0  0
  1  2  2  0  0  0  0
  1  3  1  0  0  0  0
  3 25  1  0  0  0  0
  4  3  1  0  0  0  0
  5  1  1  0  0  0  0
  6  5  1  0  0  0  0
  6 11  1  0  0  0  0
  7  6  2  0  0  0  0
  8  9  2  0  0  0  0
  8  7  1  0  0  0  0
  9 10  1  0  0  0  0
 10  5  2  0  0  0  0
 12  7  1  0  0  0  0
 13  8  1  0  0  0  0
 14 15  2  0  0  0  0
 14  9  1  0  0  0  0
 16 14  1  0  0  0  0
 17 16  1  0  0  0  0
 18 17  2  0  0  0  0
 19 18  1  0  0  0  0
 20 21  2  0  0  0  0
 20 18  1  0  0  0  0
 21 22  1  0  0  0  0
 22 16  2  0  0  0  0
 23 26  1  6  0  0  0
 23 24  1  0  0  0  0
 23 34  1  0  0  0  0
 24 27  1  0  0  0  0
 25 29  1  1  0  0  0
 25 23  1  0  0  0  0
 25 24  1  0  0  0  0
 28 24  1  0  0  0  0
 30 31  1  0  0  0  0
 31 32  2  0  0  0  0
 31 37  1  0  0  0  0
 32 38  1  0  0  0  0
 33 32  1  0  0  0  0
 34 33  2  0  0  0  0
 35 34  1  0  0  0  0
 35 30  2  0  0  0  0
 36 30  1  0  0  0  0
M  END
>  <minimizedAffinity>
-5.4376626

>  <minimizedRMSD>
1.3259933

$$$$
