
 OpenBabel03272508163D

 28 30  0  0  0  0  0  0  0  0999 V2000
   36.5490   28.1310   34.8130 Cl  0  0  0  0  0  0  0  0  0  0  0  0
   36.2860   29.0630   33.3740 C   0  0  0  0  0  0  0  0  0  0  0  0
   35.5770   30.2120   33.5830 C   0  0  0  0  0  0  0  0  0  0  0  0
   35.3200   31.0490   32.4750 C   0  0  0  0  0  0  0  0  0  0  0  0
   35.7620   30.7300   31.2280 C   0  0  0  0  0  0  0  0  0  0  0  0
   36.4780   29.5580   31.0490 C   0  0  0  0  0  0  0  0  0  0  0  0
   37.0570   29.1390   29.4520 Cl  0  0  0  0  0  0  0  0  0  0  0  0
   36.7260   28.7470   32.1250 C   0  0  0  0  0  0  0  0  0  0  0  0
   34.7690   31.9770   32.5370 H   0  0  0  0  0  0  0  0  0  0  0  0
   35.5760   31.3630   30.3560 H   0  0  0  0  0  0  0  0  0  0  0  0
   33.6220   30.4810   35.0630 C   0  0  0  0  0  0  0  0  0  0  0  0
   35.0020   30.7520   34.8190 C   0  0  0  0  0  0  0  0  0  0  0  0
   35.6820   31.4980   35.7580 C   0  0  0  0  0  0  0  0  0  0  0  0
   34.9990   31.9250   36.8510 N   0  0  0  0  0  0  0  0  0  0  0  0
   33.7020   31.6580   37.0590 C   0  0  0  0  0  0  0  0  0  0  0  0
   33.0130   30.9340   36.1600 N   0  0  0  0  0  0  0  0  0  0  0  0
   33.0490   29.9000   34.3530 H   0  0  0  0  0  0  0  0  0  0  0  0
   36.7270   31.6980   35.5640 H   0  0  0  0  0  0  0  0  0  0  0  0
   33.2550   32.0500   37.9680 H   0  0  0  0  0  0  0  0  0  0  0  0
   37.4580   27.4940   31.9700 C   0  0  0  0  0  0  0  0  0  0  0  0
   38.7150   27.3210   32.0010 O   0  0  0  0  0  0  0  0  0  0  0  0
   36.7190   26.2280   31.7400 C   0  0  0  0  0  0  0  0  0  0  0  0
   37.2720   25.0340   32.1530 C   0  0  0  0  0  3  0  0  0  0  0  0
   36.6770   23.7790   31.9820 C   0  0  0  0  0  0  0  0  0  0  0  0
   37.1240   22.8650   32.3110 H   0  0  0  0  0  0  0  0  0  0  0  0
   35.4790   23.7590   31.3650 N   0  0  0  0  0  0  0  0  0  0  0  0
   34.9440   24.9270   30.9640 C   0  0  0  0  0  3  0  0  0  0  0  0
   35.5460   26.1080   31.1470 N   0  0  0  0  0  0  0  0  0  0  0  0
  2  3  1  0  0  0  0
  2  1  1  0  0  0  0
  3 12  1  0  0  0  0
  4  9  1  0  0  0  0
  4  3  2  0  0  0  0
  5  4  1  0  0  0  0
  6  5  2  0  0  0  0
  6  8  1  0  0  0  0
  7  6  1  0  0  0  0
  8  2  2  0  0  0  0
 10  5  1  0  0  0  0
 11 16  1  0  0  0  0
 12 11  2  0  0  0  0
 12 13  1  0  0  0  0
 13 14  2  0  0  0  0
 14 15  1  0  0  0  0
 15 19  1  0  0  0  0
 16 15  2  0  0  0  0
 17 11  1  0  0  0  0
 18 13  1  0  0  0  0
 20 21  2  0  0  0  0
 20  8  1  0  0  0  0
 22 20  1  0  0  0  0
 22 23  1  0  0  0  0
 24 23  2  0  0  0  0
 24 25  1  0  0  0  0
 26 24  1  0  0  0  0
 27 28  1  0  0  0  0
 27 26  2  0  0  0  0
 28 22  2  0  0  0  0
M  END
>  <minimizedAffinity>
-5.40353346

$$$$

 OpenBabel03272508163D

 28 30  0  0  0  0  0  0  0  0999 V2000
   38.1940   24.0760   32.8310 Cl  0  0  0  0  0  0  0  0  0  0  0  0
   37.8690   25.5290   33.7210 C   0  0  0  0  0  0  0  0  0  0  0  0
   38.4140   25.5430   34.9730 C   0  0  0  0  0  0  0  0  0  0  0  0
   38.2170   26.6890   35.7740 C   0  0  0  0  0  0  0  0  0  0  0  0
   37.5060   27.7570   35.3220 C   0  0  0  0  0  0  0  0  0  0  0  0
   36.9650   27.7120   34.0470 C   0  0  0  0  0  0  0  0  0  0  0  0
   36.0520   29.0800   33.4500 Cl  0  0  0  0  0  0  0  0  0  0  0  0
   37.1570   26.5990   33.2710 C   0  0  0  0  0  0  0  0  0  0  0  0
   38.6080   26.7960   36.7770 H   0  0  0  0  0  0  0  0  0  0  0  0
   37.3410   28.6550   35.9240 H   0  0  0  0  0  0  0  0  0  0  0  0
   38.5560   23.8090   36.7210 C   0  0  0  0  0  0  0  0  0  0  0  0
   39.2040   24.5210   35.6680 C   0  0  0  0  0  0  0  0  0  0  0  0
   40.5140   24.1970   35.3880 C   0  0  0  0  0  0  0  0  0  0  0  0
   41.1030   23.2230   36.1300 N   0  0  0  0  0  0  0  0  0  0  0  0
   40.4740   22.5670   37.1150 C   0  0  0  0  0  0  0  0  0  0  0  0
   39.1960   22.8630   37.4100 N   0  0  0  0  0  0  0  0  0  0  0  0
   37.5280   24.0300   36.9750 H   0  0  0  0  0  0  0  0  0  0  0  0
   40.9960   24.7420   34.5890 H   0  0  0  0  0  0  0  0  0  0  0  0
   41.0410   21.8060   37.6440 H   0  0  0  0  0  0  0  0  0  0  0  0
   36.5830   26.5080   31.9330 C   0  0  0  0  0  0  0  0  0  0  0  0
   35.5370   25.8820   31.5780 O   0  0  0  0  0  0  0  0  0  0  0  0
   37.2410   27.1970   30.7950 C   0  0  0  0  0  0  0  0  0  0  0  0
   38.5080   26.8130   30.4090 C   0  0  0  0  0  3  0  0  0  0  0  0
   39.2320   27.3940   29.3620 C   0  0  0  0  0  0  0  0  0  0  0  0
   40.2140   27.0800   29.0790 H   0  0  0  0  0  0  0  0  0  0  0  0
   38.6290   28.4010   28.6980 N   0  0  0  0  0  0  0  0  0  0  0  0
   37.3940   28.7720   29.0800 C   0  0  0  0  0  3  0  0  0  0  0  0
   36.7340   28.1890   30.0880 N   0  0  0  0  0  0  0  0  0  0  0  0
  1  2  1  0  0  0  0
  2  3  1  0  0  0  0
  3 12  1  0  0  0  0
  3  4  2  0  0  0  0
  4  9  1  0  0  0  0
  5  4  1  0  0  0  0
  5 10  1  0  0  0  0
  6  5  2  0  0  0  0
  7  6  1  0  0  0  0
  8  2  2  0  0  0  0
  8  6  1  0  0  0  0
 11 17  1  0  0  0  0
 11 16  1  0  0  0  0
 12 11  2  0  0  0  0
 13 12  1  0  0  0  0
 13 14  2  0  0  0  0
 14 15  1  0  0  0  0
 15 16  2  0  0  0  0
 15 19  1  0  0  0  0
 18 13  1  0  0  0  0
 20  8  1  0  0  0  0
 21 20  2  0  0  0  0
 22 20  1  0  0  0  0
 23 22  1  0  0  0  0
 24 23  2  0  0  0  0
 25 24  1  0  0  0  0
 26 27  2  0  0  0  0
 26 24  1  0  0  0  0
 27 28  1  0  0  0  0
 28 22  2  0  0  0  0
M  END
>  <minimizedAffinity>
-5.28375721

$$$$

 OpenBabel03272508163D

 28 30  0  0  0  0  0  0  0  0999 V2000
   38.3660   27.1750   33.1460 Cl  0  0  0  0  0  0  0  0  0  0  0  0
   37.2670   26.0570   32.4060 C   0  0  0  0  0  0  0  0  0  0  0  0
   36.2860   26.6540   31.6670 C   0  0  0  0  0  0  0  0  0  0  0  0
   35.3460   25.8280   31.0120 C   0  0  0  0  0  0  0  0  0  0  0  0
   35.4070   24.4720   31.1060 C   0  0  0  0  0  0  0  0  0  0  0  0
   36.4130   23.8960   31.8640 C   0  0  0  0  0  0  0  0  0  0  0  0
   36.5060   22.1540   31.9890 Cl  0  0  0  0  0  0  0  0  0  0  0  0
   37.3240   24.6990   32.4990 C   0  0  0  0  0  0  0  0  0  0  0  0
   34.5340   26.2050   30.4040 H   0  0  0  0  0  0  0  0  0  0  0  0
   34.6910   23.8130   30.6070 H   0  0  0  0  0  0  0  0  0  0  0  0
   35.1180   28.7260   32.3220 C   0  0  0  0  0  0  0  0  0  0  0  0
   36.0210   28.0760   31.4280 C   0  0  0  0  0  0  0  0  0  0  0  0
   36.5700   28.8320   30.4140 C   0  0  0  0  0  0  0  0  0  0  0  0
   36.2180   30.1410   30.3310 N   0  0  0  0  0  0  0  0  0  0  0  0
   35.3670   30.7300   31.1830 C   0  0  0  0  0  0  0  0  0  0  0  0
   34.8160   30.0170   32.1810 N   0  0  0  0  0  0  0  0  0  0  0  0
   34.6630   28.1710   33.1310 H   0  0  0  0  0  0  0  0  0  0  0  0
   37.2530   28.3310   29.7420 H   0  0  0  0  0  0  0  0  0  0  0  0
   35.1560   31.7830   31.0230 H   0  0  0  0  0  0  0  0  0  0  0  0
   38.3840   24.1280   33.3230 C   0  0  0  0  0  0  0  0  0  0  0  0
   39.5750   23.8570   32.9770 O   0  0  0  0  0  0  0  0  0  0  0  0
   38.1190   23.7920   34.7440 C   0  0  0  0  0  0  0  0  0  0  0  0
   38.2760   24.7610   35.7120 C   0  0  0  0  0  3  0  0  0  0  0  0
   38.0670   24.5610   37.0820 C   0  0  0  0  0  0  0  0  0  0  0  0
   38.1940   25.3280   37.8160 H   0  0  0  0  0  0  0  0  0  0  0  0
   37.6870   23.3240   37.4580 N   0  0  0  0  0  0  0  0  0  0  0  0
   37.5360   22.3820   36.5090 C   0  0  0  0  0  3  0  0  0  0  0  0
   37.7460   22.6140   35.2080 N   0  0  0  0  0  0  0  0  0  0  0  0
  2  8  1  0  0  0  0
  2  1  1  0  0  0  0
  3  2  2  0  0  0  0
  4  5  2  0  0  0  0
  4  3  1  0  0  0  0
  5  6  1  0  0  0  0
  6  7  1  0  0  0  0
  6  8  2  0  0  0  0
  8 20  1  0  0  0  0
  9  4  1  0  0  0  0
 10  5  1  0  0  0  0
 11 17  1  0  0  0  0
 12  3  1  0  0  0  0
 12 11  2  0  0  0  0
 13 12  1  0  0  0  0
 14 13  2  0  0  0  0
 14 15  1  0  0  0  0
 15 16  2  0  0  0  0
 16 11  1  0  0  0  0
 18 13  1  0  0  0  0
 19 15  1  0  0  0  0
 20 22  1  0  0  0  0
 21 20  2  0  0  0  0
 22 28  2  0  0  0  0
 22 23  1  0  0  0  0
 23 24  2  0  0  0  0
 24 26  1  0  0  0  0
 24 25  1  0  0  0  0
 27 26  2  0  0  0  0
 28 27  1  0  0  0  0
M  END
>  <minimizedAffinity>
-5.25866556

$$$$

 OpenBabel03272508163D

 28 30  0  0  0  0  0  0  0  0999 V2000
   38.6970   21.8430   33.8930 Cl  0  0  0  0  0  0  0  0  0  0  0  0
   38.1090   23.4630   33.6950 C   0  0  0  0  0  0  0  0  0  0  0  0
   38.1460   24.2070   34.8400 C   0  0  0  0  0  0  0  0  0  0  0  0
   37.7000   25.5450   34.7810 C   0  0  0  0  0  0  0  0  0  0  0  0
   37.2440   26.0910   33.6210 C   0  0  0  0  0  0  0  0  0  0  0  0
   37.2190   25.3110   32.4770 C   0  0  0  0  0  0  0  0  0  0  0  0
   36.6400   26.0000   30.9770 Cl  0  0  0  0  0  0  0  0  0  0  0  0
   37.6510   24.0110   32.5350 C   0  0  0  0  0  0  0  0  0  0  0  0
   37.6900   26.2140   35.6320 H   0  0  0  0  0  0  0  0  0  0  0  0
   36.8950   27.1250   33.5520 H   0  0  0  0  0  0  0  0  0  0  0  0
   37.6800   24.1060   37.2600 C   0  0  0  0  0  0  0  0  0  0  0  0
   38.5850   23.8370   36.1890 C   0  0  0  0  0  0  0  0  0  0  0  0
   39.7950   23.2560   36.5050 C   0  0  0  0  0  0  0  0  0  0  0  0
   40.0470   22.9770   37.8100 N   0  0  0  0  0  0  0  0  0  0  0  0
   39.1810   23.2380   38.8000 C   0  0  0  0  0  0  0  0  0  0  0  0
   37.9950   23.8050   38.5210 N   0  0  0  0  0  0  0  0  0  0  0  0
   36.7200   24.5610   37.0590 H   0  0  0  0  0  0  0  0  0  0  0  0
   40.4720   23.0570   35.6870 H   0  0  0  0  0  0  0  0  0  0  0  0
   39.4870   22.9730   39.8080 H   0  0  0  0  0  0  0  0  0  0  0  0
   37.6180   23.1540   31.3560 C   0  0  0  0  0  0  0  0  0  0  0  0
   38.2220   23.3280   30.2530 O   0  0  0  0  0  0  0  0  0  0  0  0
   36.8020   21.9140   31.3630 C   0  0  0  0  0  0  0  0  0  0  0  0
   35.5760   21.9110   31.9940 C   0  0  0  0  0  3  0  0  0  0  0  0
   34.7250   20.8030   32.0770 C   0  0  0  0  0  0  0  0  0  0  0  0
   33.7780   20.8230   32.5720 H   0  0  0  0  0  0  0  0  0  0  0  0
   35.1550   19.6680   31.4910 N   0  0  0  0  0  0  0  0  0  0  0  0
   36.3530   19.6770   30.8770 C   0  0  0  0  0  3  0  0  0  0  0  0
   37.1370   20.7600   30.8190 N   0  0  0  0  0  0  0  0  0  0  0  0
  2  1  1  0  0  0  0
  2  3  1  0  0  0  0
  3 12  1  0  0  0  0
  4  3  2  0  0  0  0
  4  9  1  0  0  0  0
  5  4  1  0  0  0  0
  6  8  1  0  0  0  0
  6  5  2  0  0  0  0
  7  6  1  0  0  0  0
  8  2  2  0  0  0  0
 10  5  1  0  0  0  0
 11 16  1  0  0  0  0
 12 13  1  0  0  0  0
 12 11  2  0  0  0  0
 13 14  2  0  0  0  0
 14 15  1  0  0  0  0
 15 19  1  0  0  0  0
 16 15  2  0  0  0  0
 17 11  1  0  0  0  0
 18 13  1  0  0  0  0
 20 22  1  0  0  0  0
 20  8  1  0  0  0  0
 21 20  2  0  0  0  0
 22 23  1  0  0  0  0
 23 24  2  0  0  0  0
 24 25  1  0  0  0  0
 26 24  1  0  0  0  0
 27 26  2  0  0  0  0
 28 27  1  0  0  0  0
 28 22  2  0  0  0  0
M  END
>  <minimizedAffinity>
-5.19868231

$$$$

 OpenBabel03272508163D

 28 30  0  0  0  0  0  0  0  0999 V2000
   36.6490   27.7470   34.5820 Cl  0  0  0  0  0  0  0  0  0  0  0  0
   36.3920   28.6090   33.0990 C   0  0  0  0  0  0  0  0  0  0  0  0
   35.5770   29.6980   33.2280 C   0  0  0  0  0  0  0  0  0  0  0  0
   35.3150   30.4750   32.0780 C   0  0  0  0  0  0  0  0  0  0  0  0
   35.8550   30.1590   30.8700 C   0  0  0  0  0  0  0  0  0  0  0  0
   36.6780   29.0490   30.7720 C   0  0  0  0  0  0  0  0  0  0  0  0
   37.3830   28.6340   29.2260 Cl  0  0  0  0  0  0  0  0  0  0  0  0
   36.9310   28.2950   31.8880 C   0  0  0  0  0  0  0  0  0  0  0  0
   34.6840   31.3540   32.0770 H   0  0  0  0  0  0  0  0  0  0  0  0
   35.6670   30.7470   29.9670 H   0  0  0  0  0  0  0  0  0  0  0  0
   35.6090   31.1470   35.2230 C   0  0  0  0  0  0  0  0  0  0  0  0
   34.8870   30.2230   34.4100 C   0  0  0  0  0  0  0  0  0  0  0  0
   33.6050   29.8960   34.7970 C   0  0  0  0  0  0  0  0  0  0  0  0
   33.1120   30.4720   35.9240 N   0  0  0  0  0  0  0  0  0  0  0  0
   33.8090   31.3390   36.6730 C   0  0  0  0  0  0  0  0  0  0  0  0
   35.0620   31.6750   36.3190 N   0  0  0  0  0  0  0  0  0  0  0  0
   36.6170   31.4320   34.9570 H   0  0  0  0  0  0  0  0  0  0  0  0
   33.0660   29.1950   34.1750 H   0  0  0  0  0  0  0  0  0  0  0  0
   33.3170   31.7390   37.5540 H   0  0  0  0  0  0  0  0  0  0  0  0
   37.7740   27.1070   31.8180 C   0  0  0  0  0  0  0  0  0  0  0  0
   39.0410   27.0570   31.7560 O   0  0  0  0  0  0  0  0  0  0  0  0
   37.1550   25.7580   31.8090 C   0  0  0  0  0  0  0  0  0  0  0  0
   35.9900   25.5490   31.1040 C   0  0  0  0  0  3  0  0  0  0  0  0
   35.3090   24.3280   31.0310 C   0  0  0  0  0  0  0  0  0  0  0  0
   34.4060   24.1880   30.4770 H   0  0  0  0  0  0  0  0  0  0  0  0
   35.8510   23.2960   31.7080 N   0  0  0  0  0  0  0  0  0  0  0  0
   36.9890   23.5050   32.3950 C   0  0  0  0  0  3  0  0  0  0  0  0
   37.6090   24.6900   32.4390 N   0  0  0  0  0  0  0  0  0  0  0  0
  2  3  1  0  0  0  0
  2  1  1  0  0  0  0
  3 12  1  0  0  0  0
  4  3  2  0  0  0  0
  5  4  1  0  0  0  0
  6  5  2  0  0  0  0
  6  8  1  0  0  0  0
  7  6  1  0  0  0  0
  8  2  2  0  0  0  0
  9  4  1  0  0  0  0
 10  5  1  0  0  0  0
 11 16  1  0  0  0  0
 12 13  1  0  0  0  0
 12 11  2  0  0  0  0
 13 14  2  0  0  0  0
 14 15  1  0  0  0  0
 15 19  1  0  0  0  0
 16 15  2  0  0  0  0
 17 11  1  0  0  0  0
 18 13  1  0  0  0  0
 20  8  1  0  0  0  0
 21 20  2  0  0  0  0
 22 20  1  0  0  0  0
 22 28  1  0  0  0  0
 23 22  2  0  0  0  0
 24 23  1  0  0  0  0
 24 26  2  0  0  0  0
 25 24  1  0  0  0  0
 26 27  1  0  0  0  0
 27 28  2  0  0  0  0
M  END
>  <minimizedAffinity>
-5.16240454

$$$$

 OpenBabel03272508163D

 28 30  0  0  0  0  0  0  0  0999 V2000
   37.9720   23.3250   33.5520 Cl  0  0  0  0  0  0  0  0  0  0  0  0
   37.7550   24.9930   33.9720 C   0  0  0  0  0  0  0  0  0  0  0  0
   38.1330   25.2940   35.2500 C   0  0  0  0  0  0  0  0  0  0  0  0
   38.0070   26.6310   35.6870 C   0  0  0  0  0  0  0  0  0  0  0  0
   37.5250   27.6030   34.8650 C   0  0  0  0  0  0  0  0  0  0  0  0
   37.1500   27.2660   33.5750 C   0  0  0  0  0  0  0  0  0  0  0  0
   36.5340   28.5070   32.5060 Cl  0  0  0  0  0  0  0  0  0  0  0  0
   37.2720   25.9680   33.1530 C   0  0  0  0  0  0  0  0  0  0  0  0
   38.2790   26.9680   36.6780 H   0  0  0  0  0  0  0  0  0  0  0  0
   37.4210   28.6440   35.1810 H   0  0  0  0  0  0  0  0  0  0  0  0
   37.9390   24.3720   37.5300 C   0  0  0  0  0  0  0  0  0  0  0  0
   38.6670   24.4250   36.3030 C   0  0  0  0  0  0  0  0  0  0  0  0
   39.8100   23.6600   36.2050 C   0  0  0  0  0  0  0  0  0  0  0  0
   40.1690   22.9080   37.2770 N   0  0  0  0  0  0  0  0  0  0  0  0
   39.4690   22.8740   38.4210 C   0  0  0  0  0  0  0  0  0  0  0  0
   38.3510   23.6110   38.5440 N   0  0  0  0  0  0  0  0  0  0  0  0
   37.0370   24.9560   37.6510 H   0  0  0  0  0  0  0  0  0  0  0  0
   40.3540   23.7060   35.2720 H   0  0  0  0  0  0  0  0  0  0  0  0
   39.8480   22.2380   39.2150 H   0  0  0  0  0  0  0  0  0  0  0  0
   36.8670   25.5730   31.8080 C   0  0  0  0  0  0  0  0  0  0  0  0
   35.6870   25.4070   31.3720 O   0  0  0  0  0  0  0  0  0  0  0  0
   37.8950   25.3140   30.7700 C   0  0  0  0  0  0  0  0  0  0  0  0
   38.7010   26.3450   30.3390 C   0  0  0  0  0  3  0  0  0  0  0  0
   39.6940   26.2250   29.3600 C   0  0  0  0  0  0  0  0  0  0  0  0
   40.3090   27.0400   29.0400 H   0  0  0  0  0  0  0  0  0  0  0  0
   39.8560   25.0040   28.8120 N   0  0  0  0  0  0  0  0  0  0  0  0
   39.0650   24.0010   29.2370 C   0  0  0  0  0  3  0  0  0  0  0  0
   38.1260   24.1570   30.1770 N   0  0  0  0  0  0  0  0  0  0  0  0
  1  2  1  0  0  0  0
  2  3  1  0  0  0  0
  3  4  2  0  0  0  0
  3 12  1  0  0  0  0
  4  9  1  0  0  0  0
  5 10  1  0  0  0  0
  5  4  1  0  0  0  0
  6  5  2  0  0  0  0
  7  6  1  0  0  0  0
  8  6  1  0  0  0  0
  8  2  2  0  0  0  0
 11 17  1  0  0  0  0
 11 16  1  0  0  0  0
 12 11  2  0  0  0  0
 13 12  1  0  0  0  0
 13 14  2  0  0  0  0
 14 15  1  0  0  0  0
 15 16  2  0  0  0  0
 15 19  1  0  0  0  0
 18 13  1  0  0  0  0
 20  8  1  0  0  0  0
 21 20  2  0  0  0  0
 22 20  1  0  0  0  0
 23 22  1  0  0  0  0
 24 23  2  0  0  0  0
 25 24  1  0  0  0  0
 26 27  2  0  0  0  0
 26 24  1  0  0  0  0
 27 28  1  0  0  0  0
 28 22  2  0  0  0  0
M  END
>  <minimizedAffinity>
-5.11272764

$$$$

 OpenBabel03272508163D

 28 30  0  0  0  0  0  0  0  0999 V2000
   38.2240   23.7670   32.8270 Cl  0  0  0  0  0  0  0  0  0  0  0  0
   38.1720   24.7960   34.2210 C   0  0  0  0  0  0  0  0  0  0  0  0
   38.0510   26.1240   33.9230 C   0  0  0  0  0  0  0  0  0  0  0  0
   37.9860   27.0450   34.9910 C   0  0  0  0  0  0  0  0  0  0  0  0
   38.0420   26.6340   36.2870 C   0  0  0  0  0  0  0  0  0  0  0  0
   38.1650   25.2810   36.5570 C   0  0  0  0  0  0  0  0  0  0  0  0
   38.2320   24.7370   38.2180 Cl  0  0  0  0  0  0  0  0  0  0  0  0
   38.2280   24.3870   35.5190 C   0  0  0  0  0  0  0  0  0  0  0  0
   37.8900   28.1140   34.8580 H   0  0  0  0  0  0  0  0  0  0  0  0
   37.9930   27.3290   37.1300 H   0  0  0  0  0  0  0  0  0  0  0  0
   39.2160   27.1640   32.0140 C   0  0  0  0  0  0  0  0  0  0  0  0
   37.9780   26.7930   32.6210 C   0  0  0  0  0  0  0  0  0  0  0  0
   36.8170   27.0940   31.9400 C   0  0  0  0  0  0  0  0  0  0  0  0
   36.9250   27.7200   30.7400 N   0  0  0  0  0  0  0  0  0  0  0  0
   38.1000   28.0580   30.1890 C   0  0  0  0  0  0  0  0  0  0  0  0
   39.2480   27.7780   30.8310 N   0  0  0  0  0  0  0  0  0  0  0  0
   40.1510   26.9480   32.5120 H   0  0  0  0  0  0  0  0  0  0  0  0
   35.8860   26.8090   32.4080 H   0  0  0  0  0  0  0  0  0  0  0  0
   38.0690   28.5570   29.2240 H   0  0  0  0  0  0  0  0  0  0  0  0
   38.3800   22.9580   35.7660 C   0  0  0  0  0  0  0  0  0  0  0  0
   37.4620   22.0990   35.9400 O   0  0  0  0  0  0  0  0  0  0  0  0
   39.7360   22.3580   35.8390 C   0  0  0  0  0  0  0  0  0  0  0  0
   40.2880   22.0750   37.0700 C   0  0  0  0  0  3  0  0  0  0  0  0
   41.5580   21.5210   37.2660 C   0  0  0  0  0  0  0  0  0  0  0  0
   41.9670   21.3090   38.2300 H   0  0  0  0  0  0  0  0  0  0  0  0
   42.2760   21.2550   36.1570 N   0  0  0  0  0  0  0  0  0  0  0  0
   41.7330   21.5340   34.9580 C   0  0  0  0  0  3  0  0  0  0  0  0
   40.5120   22.0640   34.8130 N   0  0  0  0  0  0  0  0  0  0  0  0
  1  2  1  0  0  0  0
  2  8  1  0  0  0  0
  3  2  2  0  0  0  0
  3  4  1  0  0  0  0
  4  5  2  0  0  0  0
  5  6  1  0  0  0  0
  5 10  1  0  0  0  0
  6  7  1  0  0  0  0
  8 20  1  0  0  0  0
  8  6  2  0  0  0  0
  9  4  1  0  0  0  0
 11 17  1  0  0  0  0
 11 12  1  0  0  0  0
 12  3  1  0  0  0  0
 13 18  1  0  0  0  0
 13 12  2  0  0  0  0
 14 13  1  0  0  0  0
 15 14  2  0  0  0  0
 15 16  1  0  0  0  0
 16 11  2  0  0  0  0
 19 15  1  0  0  0  0
 20 22  1  0  0  0  0
 20 21  2  0  0  0  0
 22 23  1  0  0  0  0
 23 24  2  0  0  0  0
 24 25  1  0  0  0  0
 26 24  1  0  0  0  0
 27 26  2  0  0  0  0
 28 27  1  0  0  0  0
 28 22  2  0  0  0  0
M  END
>  <minimizedAffinity>
-5.10944319

$$$$

 OpenBabel03272508163D

 28 30  0  0  0  0  0  0  0  0999 V2000
   39.2740   26.8250   35.0580 Cl  0  0  0  0  0  0  0  0  0  0  0  0
   38.8230   25.5100   34.0210 C   0  0  0  0  0  0  0  0  0  0  0  0
   38.5400   24.3530   34.6890 C   0  0  0  0  0  0  0  0  0  0  0  0
   38.1490   23.2250   33.9350 C   0  0  0  0  0  0  0  0  0  0  0  0
   38.0540   23.2770   32.5780 C   0  0  0  0  0  0  0  0  0  0  0  0
   38.3480   24.4660   31.9300 C   0  0  0  0  0  0  0  0  0  0  0  0
   38.2230   24.5490   30.1870 Cl  0  0  0  0  0  0  0  0  0  0  0  0
   38.7270   25.5600   32.6640 C   0  0  0  0  0  0  0  0  0  0  0  0
   37.9050   22.2650   34.3700 H   0  0  0  0  0  0  0  0  0  0  0  0
   37.7520   22.4170   31.9740 H   0  0  0  0  0  0  0  0  0  0  0  0
   39.6810   23.2870   36.5990 C   0  0  0  0  0  0  0  0  0  0  0  0
   38.5790   24.0610   36.1250 C   0  0  0  0  0  0  0  0  0  0  0  0
   37.6410   24.4700   37.0500 C   0  0  0  0  0  0  0  0  0  0  0  0
   37.8250   24.1120   38.3470 N   0  0  0  0  0  0  0  0  0  0  0  0
   38.8690   23.3840   38.7690 C   0  0  0  0  0  0  0  0  0  0  0  0
   39.7980   22.9720   37.8890 N   0  0  0  0  0  0  0  0  0  0  0  0
   40.4400   22.9450   35.9090 H   0  0  0  0  0  0  0  0  0  0  0  0
   36.8100   25.0550   36.6810 H   0  0  0  0  0  0  0  0  0  0  0  0
   38.9160   23.1550   39.8290 H   0  0  0  0  0  0  0  0  0  0  0  0
   39.0650   26.8210   32.0130 C   0  0  0  0  0  0  0  0  0  0  0  0
   40.2190   27.2470   31.7000 O   0  0  0  0  0  0  0  0  0  0  0  0
   37.9920   27.7760   31.6430 C   0  0  0  0  0  0  0  0  0  0  0  0
   37.9760   28.3240   30.3790 C   0  0  0  0  0  3  0  0  0  0  0  0
   37.0240   29.2420   29.9200 C   0  0  0  0  0  0  0  0  0  0  0  0
   37.0300   29.6540   28.9340 H   0  0  0  0  0  0  0  0  0  0  0  0
   36.0640   29.6020   30.7950 N   0  0  0  0  0  0  0  0  0  0  0  0
   36.0850   29.0640   32.0280 C   0  0  0  0  0  3  0  0  0  0  0  0
   37.0140   28.1880   32.4280 N   0  0  0  0  0  0  0  0  0  0  0  0
  2  3  1  0  0  0  0
  2  1  1  0  0  0  0
  3 12  1  0  0  0  0
  4  9  1  0  0  0  0
  4  3  2  0  0  0  0
  5  4  1  0  0  0  0
  6  5  2  0  0  0  0
  6  8  1  0  0  0  0
  7  6  1  0  0  0  0
  8  2  2  0  0  0  0
 10  5  1  0  0  0  0
 11 16  1  0  0  0  0
 12 11  2  0  0  0  0
 12 13  1  0  0  0  0
 13 14  2  0  0  0  0
 14 15  1  0  0  0  0
 15 19  1  0  0  0  0
 16 15  2  0  0  0  0
 17 11  1  0  0  0  0
 18 13  1  0  0  0  0
 20  8  1  0  0  0  0
 21 20  2  0  0  0  0
 22 20  1  0  0  0  0
 22 28  1  0  0  0  0
 23 22  2  0  0  0  0
 24 23  1  0  0  0  0
 24 26  2  0  0  0  0
 25 24  1  0  0  0  0
 26 27  1  0  0  0  0
 27 28  2  0  0  0  0
M  END
>  <minimizedAffinity>
-5.10848427

$$$$

 OpenBabel03272508163D

 28 30  0  0  0  0  0  0  0  0999 V2000
   39.2620   21.7480   33.5480 Cl  0  0  0  0  0  0  0  0  0  0  0  0
   38.2600   23.0840   33.0820 C   0  0  0  0  0  0  0  0  0  0  0  0
   37.3380   22.7750   32.1230 C   0  0  0  0  0  0  0  0  0  0  0  0
   36.4640   23.7930   31.6830 C   0  0  0  0  0  0  0  0  0  0  0  0
   36.5280   25.0530   32.1950 C   0  0  0  0  0  0  0  0  0  0  0  0
   37.4740   25.3350   33.1670 C   0  0  0  0  0  0  0  0  0  0  0  0
   37.5640   26.9480   33.8380 Cl  0  0  0  0  0  0  0  0  0  0  0  0
   38.3220   24.3460   33.5920 C   0  0  0  0  0  0  0  0  0  0  0  0
   35.7020   23.6480   30.9300 H   0  0  0  0  0  0  0  0  0  0  0  0
   35.8610   25.8560   31.8710 H   0  0  0  0  0  0  0  0  0  0  0  0
   35.9610   20.7460   31.8580 C   0  0  0  0  0  0  0  0  0  0  0  0
   37.0900   21.5070   31.4300 C   0  0  0  0  0  0  0  0  0  0  0  0
   37.8550   20.9930   30.4050 C   0  0  0  0  0  0  0  0  0  0  0  0
   37.4870   19.8000   29.8700 N   0  0  0  0  0  0  0  0  0  0  0  0
   36.4220   19.1030   30.2890 C   0  0  0  0  0  0  0  0  0  0  0  0
   35.6580   19.5800   31.2870 N   0  0  0  0  0  0  0  0  0  0  0  0
   35.3320   21.1110   32.6590 H   0  0  0  0  0  0  0  0  0  0  0  0
   38.7080   21.5770   30.0870 H   0  0  0  0  0  0  0  0  0  0  0  0
   36.2200   18.1590   29.7900 H   0  0  0  0  0  0  0  0  0  0  0  0
   39.3450   24.6130   34.5970 C   0  0  0  0  0  0  0  0  0  0  0  0
   40.4430   25.2290   34.4420 O   0  0  0  0  0  0  0  0  0  0  0  0
   39.1570   24.1380   35.9910 C   0  0  0  0  0  0  0  0  0  0  0  0
   38.1330   24.6580   36.7540 C   0  0  0  0  0  3  0  0  0  0  0  0
   37.8650   24.2980   38.0800 C   0  0  0  0  0  0  0  0  0  0  0  0
   37.0640   24.7140   38.6530 H   0  0  0  0  0  0  0  0  0  0  0  0
   38.6790   23.3750   38.6300 N   0  0  0  0  0  0  0  0  0  0  0  0
   39.6770   22.8710   37.8800 C   0  0  0  0  0  3  0  0  0  0  0  0
   39.9000   23.2430   36.6140 N   0  0  0  0  0  0  0  0  0  0  0  0
  2  1  1  0  0  0  0
  2  8  1  0  0  0  0
  3  2  2  0  0  0  0
  4  3  1  0  0  0  0
  4  5  2  0  0  0  0
  5  6  1  0  0  0  0
  6  8  2  0  0  0  0
  6  7  1  0  0  0  0
  8 20  1  0  0  0  0
  9  4  1  0  0  0  0
 10  5  1  0  0  0  0
 11 17  1  0  0  0  0
 12 11  1  0  0  0  0
 12  3  1  0  0  0  0
 13 12  2  0  0  0  0
 14 15  2  0  0  0  0
 14 13  1  0  0  0  0
 15 16  1  0  0  0  0
 16 11  2  0  0  0  0
 18 13  1  0  0  0  0
 19 15  1  0  0  0  0
 20 22  1  0  0  0  0
 21 20  2  0  0  0  0
 22 28  2  0  0  0  0
 22 23  1  0  0  0  0
 23 24  2  0  0  0  0
 24 26  1  0  0  0  0
 24 25  1  0  0  0  0
 27 26  2  0  0  0  0
 28 27  1  0  0  0  0
M  END
>  <minimizedAffinity>
-5.10560751

$$$$
