
 OpenBabel03272508153D

 28 30  0  0  0  0  0  0  0  0999 V2000
   35.2160   30.4060   45.2240 Cl  0  0  0  0  0  0  0  0  0  0  0  0
   36.8780   30.1740   44.7850 C   0  0  0  0  0  0  0  0  0  0  0  0
   37.0500   29.4960   43.6120 C   0  0  0  0  0  0  0  0  0  0  0  0
   38.3670   29.2660   43.1600 C   0  0  0  0  0  0  0  0  0  0  0  0
   39.4460   29.7040   43.8650 C   0  0  0  0  0  0  0  0  0  0  0  0
   39.2390   30.3890   45.0510 C   0  0  0  0  0  0  0  0  0  0  0  0
   40.6160   30.9630   45.9650 Cl  0  0  0  0  0  0  0  0  0  0  0  0
   37.9590   30.6110   45.4890 C   0  0  0  0  0  0  0  0  0  0  0  0
   38.6070   28.7400   42.2450 H   0  0  0  0  0  0  0  0  0  0  0  0
   40.4750   29.5390   43.5330 H   0  0  0  0  0  0  0  0  0  0  0  0
   35.6430   27.5850   42.9380 C   0  0  0  0  0  0  0  0  0  0  0  0
   36.0530   28.9300   42.6970 C   0  0  0  0  0  0  0  0  0  0  0  0
   35.4850   29.5900   41.6270 C   0  0  0  0  0  0  0  0  0  0  0  0
   34.5750   28.9200   40.8750 N   0  0  0  0  0  0  0  0  0  0  0  0
   34.2040   27.6550   41.1210 C   0  0  0  0  0  0  0  0  0  0  0  0
   34.7420   26.9880   42.1570 N   0  0  0  0  0  0  0  0  0  0  0  0
   36.0620   27.0300   43.7660 H   0  0  0  0  0  0  0  0  0  0  0  0
   35.8030   30.6080   41.4530 H   0  0  0  0  0  0  0  0  0  0  0  0
   33.4680   27.2160   40.4540 H   0  0  0  0  0  0  0  0  0  0  0  0
   37.7050   31.3080   46.7450 C   0  0  0  0  0  0  0  0  0  0  0  0
   37.7760   32.5550   46.9670 O   0  0  0  0  0  0  0  0  0  0  0  0
   37.3150   30.5400   47.9540 C   0  0  0  0  0  0  0  0  0  0  0  0
   38.1130   30.5870   49.0760 C   0  0  0  0  0  3  0  0  0  0  0  0
   37.8560   29.8980   50.2660 C   0  0  0  0  0  0  0  0  0  0  0  0
   38.4900   29.9490   51.1260 H   0  0  0  0  0  0  0  0  0  0  0  0
   36.7420   29.1400   50.2960 N   0  0  0  0  0  0  0  0  0  0  0  0
   35.9660   29.0980   49.1960 C   0  0  0  0  0  3  0  0  0  0  0  0
   36.2470   29.7730   48.0750 N   0  0  0  0  0  0  0  0  0  0  0  0
  2  1  1  0  0  0  0
  2  8  1  0  0  0  0
  3  2  2  0  0  0  0
  4  3  1  0  0  0  0
  4  5  2  0  0  0  0
  5  6  1  0  0  0  0
  6  8  2  0  0  0  0
  6  7  1  0  0  0  0
  8 20  1  0  0  0  0
  9  4  1  0  0  0  0
 10  5  1  0  0  0  0
 11 17  1  0  0  0  0
 12 11  1  0  0  0  0
 12  3  1  0  0  0  0
 13 12  2  0  0  0  0
 14 15  2  0  0  0  0
 14 13  1  0  0  0  0
 15 16  1  0  0  0  0
 16 11  2  0  0  0  0
 18 13  1  0  0  0  0
 19 15  1  0  0  0  0
 20 21  2  0  0  0  0
 20 22  1  0  0  0  0
 22 28  2  0  0  0  0
 22 23  1  0  0  0  0
 23 24  2  0  0  0  0
 24 26  1  0  0  0  0
 24 25  1  0  0  0  0
 27 26  2  0  0  0  0
 28 27  1  0  0  0  0
M  END
>  <minimizedAffinity>
-4.17299032

>  <minimizedRMSD>
4.9995575

$$$$
