
 OpenBabel03272508153D

 28 30  0  0  0  0  0  0  0  0999 V2000
   35.3230   30.4030   44.4880 Cl  0  0  0  0  0  0  0  0  0  0  0  0
   36.8990   29.8600   44.0110 C   0  0  0  0  0  0  0  0  0  0  0  0
   36.8840   28.7410   43.2280 C   0  0  0  0  0  0  0  0  0  0  0  0
   38.1180   28.2250   42.7750 C   0  0  0  0  0  0  0  0  0  0  0  0
   39.2980   28.8190   43.1030 C   0  0  0  0  0  0  0  0  0  0  0  0
   39.2800   29.9520   43.8990 C   0  0  0  0  0  0  0  0  0  0  0  0
   40.7890   30.7290   44.3240 Cl  0  0  0  0  0  0  0  0  0  0  0  0
   38.0820   30.4520   44.3380 C   0  0  0  0  0  0  0  0  0  0  0  0
   38.2100   27.3460   42.1520 H   0  0  0  0  0  0  0  0  0  0  0  0
   40.2650   28.4380   42.7630 H   0  0  0  0  0  0  0  0  0  0  0  0
   35.3320   26.8580   43.5900 C   0  0  0  0  0  0  0  0  0  0  0  0
   35.7510   27.9380   42.7560 C   0  0  0  0  0  0  0  0  0  0  0  0
   35.0640   28.1390   41.5780 C   0  0  0  0  0  0  0  0  0  0  0  0
   34.0360   27.3010   41.2880 N   0  0  0  0  0  0  0  0  0  0  0  0
   33.6600   26.2930   42.0870 C   0  0  0  0  0  0  0  0  0  0  0  0
   34.3130   26.0730   43.2420 N   0  0  0  0  0  0  0  0  0  0  0  0
   35.8430   26.6630   44.5230 H   0  0  0  0  0  0  0  0  0  0  0  0
   35.3890   28.9590   40.9530 H   0  0  0  0  0  0  0  0  0  0  0  0
   32.8240   25.6840   41.7560 H   0  0  0  0  0  0  0  0  0  0  0  0
   38.0270   31.6300   45.1960 C   0  0  0  0  0  0  0  0  0  0  0  0
   37.9560   32.8460   44.8400 O   0  0  0  0  0  0  0  0  0  0  0  0
   38.0570   31.4750   46.6720 C   0  0  0  0  0  0  0  0  0  0  0  0
   38.5740   32.4870   47.4510 C   0  0  0  0  0  3  0  0  0  0  0  0
   38.6660   32.4520   48.8470 C   0  0  0  0  0  0  0  0  0  0  0  0
   39.0700   33.2490   49.4330 H   0  0  0  0  0  0  0  0  0  0  0  0
   38.2100   31.3360   49.4530 N   0  0  0  0  0  0  0  0  0  0  0  0
   37.7060   30.3510   48.6870 C   0  0  0  0  0  3  0  0  0  0  0  0
   37.6360   30.4250   47.3510 N   0  0  0  0  0  0  0  0  0  0  0  0
  2  8  1  0  0  0  0
  2  1  1  0  0  0  0
  3  2  2  0  0  0  0
  4  5  2  0  0  0  0
  4  3  1  0  0  0  0
  5  6  1  0  0  0  0
  6  7  1  0  0  0  0
  6  8  2  0  0  0  0
  8 20  1  0  0  0  0
  9  4  1  0  0  0  0
 10  5  1  0  0  0  0
 11 17  1  0  0  0  0
 12  3  1  0  0  0  0
 12 11  2  0  0  0  0
 13 12  1  0  0  0  0
 14 13  2  0  0  0  0
 14 15  1  0  0  0  0
 15 16  2  0  0  0  0
 16 11  1  0  0  0  0
 18 13  1  0  0  0  0
 19 15  1  0  0  0  0
 20 22  1  0  0  0  0
 21 20  2  0  0  0  0
 22 28  2  0  0  0  0
 22 23  1  0  0  0  0
 23 24  2  0  0  0  0
 24 25  1  0  0  0  0
 24 26  1  0  0  0  0
 27 26  2  0  0  0  0
 28 27  1  0  0  0  0
M  END
>  <minimizedAffinity>
-4.03461885

>  <minimizedRMSD>
5.05059958

$$$$
