
 OpenBabel03262521013D

 35 37  0  0  1  0  0  0  0  0999 V2000
   38.8540   30.7230   45.9400 S   0  0  0  0  0  0  0  0  0  0  0  0
   38.3280   33.0010   44.5670 N   0  0  0  0  0  0  0  0  0  0  0  0
   37.8680   31.6570   44.7200 C   0  0  1  0  0  0  0  0  0  0  0  0
   38.0060   30.9190   43.4130 C   0  0  0  0  0  0  0  0  0  0  0  0
   39.4310   30.9430   43.0550 N   0  0  0  0  0  0  0  0  0  0  0  0
   39.7080   32.3450   42.7100 C   0  0  0  0  0  0  0  0  0  0  0  0
   39.6350   33.1200   44.0100 C   0  0  2  0  0  0  0  0  0  0  0  0
   38.0820   33.6560   45.3110 H   0  0  0  0  0  0  0  0  0  0  0  0
   36.8310   31.6670   45.0850 H   0  0  0  0  0  0  0  0  0  0  0  0
   37.5850   29.9170   43.4120 H   0  0  0  0  0  0  0  0  0  0  0  0
   37.5180   31.5610   42.6320 H   0  0  0  0  0  0  0  0  0  0  0  0
   39.6220   30.3120   42.2460 H   0  0  0  0  0  0  0  0  0  0  0  0
   40.7120   32.4430   42.2480 H   0  0  0  0  0  0  0  0  0  0  0  0
   38.8890   32.6600   42.0610 H   0  0  0  0  0  0  0  0  0  0  0  0
   39.8120   34.1860   43.7610 H   0  0  0  0  0  0  0  0  0  0  0  0
   40.6820   32.6440   44.8870 N   0  0  0  0  0  0  0  0  0  0  0  0
   40.3780   32.7940   45.8740 H   0  0  0  0  0  0  0  0  0  0  0  0
   40.9690   31.6600   44.6900 H   0  0  0  0  0  0  0  0  0  0  0  0
   38.4030   32.7870   49.4010 C   0  0  0  0  0  0  0  0  0  0  0  0
   38.7740   32.4900   48.1080 C   0  0  0  0  0  0  0  0  0  0  0  0
   38.4470   31.2500   47.5820 C   0  0  0  0  0  0  0  0  0  0  0  0
   37.7600   30.3680   48.3860 N   0  0  0  0  0  0  0  0  0  0  0  0
   37.4240   30.7120   49.6380 C   0  0  0  0  0  0  0  0  0  0  0  0
   37.7380   31.9040   50.1460 N   0  0  0  0  0  0  0  0  0  0  0  0
   38.6620   33.7570   49.8030 H   0  0  0  0  0  0  0  0  0  0  0  0
   39.3040   33.1770   47.4930 H   0  0  0  0  0  0  0  0  0  0  0  0
   36.7000   29.7710   50.4750 C   0  0  0  0  0  0  0  0  0  0  0  0
   37.1210   29.3560   51.5760 O   0  0  0  0  0  0  0  0  0  0  0  0
   35.4030   29.2550   50.0450 C   0  0  0  0  0  0  0  0  0  0  0  0
   35.3300   28.2650   49.0880 C   0  0  0  0  0  3  0  0  0  0  0  0
   34.1220   27.7330   48.6390 C   0  0  0  0  0  0  0  0  0  0  0  0
   34.0780   26.9490   47.8790 H   0  0  0  0  0  0  0  0  0  0  0  0
   32.9860   28.2430   49.1970 N   0  0  0  0  0  0  0  0  0  0  0  0
   33.0450   29.2040   50.1280 C   0  0  0  0  0  3  0  0  0  0  0  0
   34.2290   29.7210   50.5640 N   0  0  0  0  0  0  0  0  0  0  0  0
  1 21  1  0  0  0  0
  2  3  1  0  0  0  0
  2  8  1  0  0  0  0
  3  9  1  1  0  0  0
  3  1  1  0  0  0  0
  4  3  1  0  0  0  0
  5  4  1  0  0  0  0
  6  5  1  0  0  0  0
  6  7  1  0  0  0  0
  7 15  1  6  0  0  0
  7  2  1  0  0  0  0
  7 16  1  0  0  0  0
 10  4  1  0  0  0  0
 11  4  1  0  0  0  0
 12  5  1  0  0  0  0
 13  6  1  0  0  0  0
 14  6  1  0  0  0  0
 16 17  1  0  0  0  0
 18 16  1  0  0  0  0
 19 25  1  0  0  0  0
 19 24  1  0  0  0  0
 20 19  2  0  0  0  0
 21 20  1  0  0  0  0
 21 22  2  0  0  0  0
 22 23  1  0  0  0  0
 23 24  2  0  0  0  0
 23 27  1  0  0  0  0
 26 20  1  0  0  0  0
 27 28  2  0  0  0  0
 29 27  1  0  0  0  0
 29 35  1  0  0  0  0
 30 29  2  0  0  0  0
 31 30  1  0  0  0  0
 31 33  2  0  0  0  0
 32 31  1  0  0  0  0
 33 34  1  0  0  0  0
 34 35  2  0  0  0  0
M  END
>  <minimizedAffinity>
-5.53198147

>  <minimizedRMSD>
2.57024431

$$$$
