
     RDKit          3D

 37 39  0  0  0  0  0  0  0  0999 V2000
   39.5841   32.8688   46.2887 N   0  0  0  0  0  0  0  0  0  0  0  0
   38.2680   32.3582   46.0733 C   0  0  1  0  0  0  0  0  0  0  0  0
   37.9361   32.4101   44.6042 C   0  0  0  0  0  0  0  0  0  0  0  0
   38.9341   31.5856   43.9094 N   0  0  0  0  0  0  0  0  0  0  0  0
   40.1904   32.3406   44.0226 C   0  0  0  0  0  0  0  0  0  0  0  0
   40.5927   32.2679   45.4806 C   0  0  2  0  0  0  0  0  0  0  0  0
   40.8531   30.8849   45.8158 N   0  0  0  0  0  0  0  0  0  0  0  0
   38.1149   30.6066   46.5693 S   0  0  0  0  0  0  0  0  0  0  0  0
   37.8900   30.9387   50.6037 C   0  0  0  0  0  0  0  0  0  0  0  0
   38.3480   31.0949   49.3142 C   0  0  0  0  0  0  0  0  0  0  0  0
   37.6521   30.4974   48.2761 C   0  0  0  0  0  0  0  0  0  0  0  0
   36.5245   29.7688   48.5884 N   0  0  0  0  0  0  0  0  0  0  0  0
   36.1261   29.6512   49.8623 C   0  0  0  0  0  0  0  0  0  0  0  0
   36.7943   30.2256   50.8633 N   0  0  0  0  0  0  0  0  0  0  0  0
   34.9356   28.8803   50.1773 C   0  0  0  0  0  0  0  0  0  0  0  0
   34.4649   27.9956   49.4296 O   0  0  0  0  0  0  0  0  0  0  0  0
   39.8367   33.0897   47.2538 H   0  0  0  0  0  0  0  0  0  0  0  0
   37.5516   32.9278   46.6834 H   0  0  0  0  0  0  0  0  0  0  0  0
   36.9130   32.1343   44.3611 H   0  0  0  0  0  0  0  0  0  0  0  0
   38.1609   33.4561   44.2644 H   0  0  0  0  0  0  0  0  0  0  0  0
   38.6694   31.4453   42.9086 H   0  0  0  0  0  0  0  0  0  0  0  0
   40.9729   31.8976   43.3741 H   0  0  0  0  0  0  0  0  0  0  0  0
   39.9407   33.3736   43.7744 H   0  0  0  0  0  0  0  0  0  0  0  0
   41.5246   32.8595   45.5891 H   0  0  0  0  0  0  0  0  0  0  0  0
   40.6695   30.7515   46.8347 H   0  0  0  0  0  0  0  0  0  0  0  0
   40.3332   30.2102   45.2133 H   0  0  0  0  0  0  0  0  0  0  0  0
   38.4399   31.4090   51.4077 H   0  0  0  0  0  0  0  0  0  0  0  0
   39.2189   31.6586   49.0809 H   0  0  0  0  0  0  0  0  0  0  0  0
   34.2167   29.1184   51.4261 C   0  0  0  0  0  0  0  0  0  0  0  0
   33.6852   30.3609   51.6969 C   0  0  0  0  0  0  0  0  0  0  0  0
   32.9893   30.6472   52.8715 C   0  0  0  0  0  0  0  0  0  0  0  0
   32.5730   31.6369   53.0737 H   0  0  0  0  0  0  0  0  0  0  0  0
   32.8519   29.6240   53.7642 N   0  0  0  0  0  0  0  0  0  0  0  0
   33.3645   28.4130   53.5110 C   0  0  0  0  0  0  0  0  0  0  0  0
   34.0440   28.1384   52.3608 N   0  0  0  0  0  0  0  0  0  0  0  0
   33.8025   31.1545   50.9837 H   0  0  0  0  0  0  0  0  0  0  0  0
   33.2168   27.6542   54.2619 H   0  0  0  0  0  0  0  0  0  0  0  0
  2  1  1  0
  2  8  1  0
  3  2  1  0
  4  5  1  0
  4  3  1  0
  5  6  1  0
  6  7  1  0
  6  1  1  0
  8 11  1  0
  9 14  2  0
 10  9  1  0
 11 12  1  0
 11 10  2  0
 12 13  2  0
 13 15  1  0
 13 14  1  0
 16 15  2  0
  1 17  1  0
  2 18  1  1
  3 19  1  0
  3 20  1  0
  4 21  1  0
  5 22  1  0
  5 23  1  0
  6 24  1  6
  7 25  1  0
  7 26  1  0
  9 27  1  0
 10 28  1  0
 29 30  2  0
 30 31  1  0
 31 32  1  0
 31 33  2  0
 33 34  1  0
 34 35  2  0
 35 29  1  0
 30 36  1  0
 34 37  1  0
 15 29  1  0
M  ISO  8  17   5  18  13  19  13  20  13  21   5  22  13  23  13  24  13
M  ISO  5  25   5  26   5  27  14  28  14  32  14
M  END
>  <DihAtoms>  (1) 
12,14,28,29

>  <DihDeg>  (1) 
179.99677930183958

$$$$
