
 OpenBabel03272509303D

 36 38  0  0  1  0  0  0  0  0999 V2000
   36.4000   30.7450   49.0040 C   0  0  2  0  0  0  0  0  0  0  0  0
   37.4170   31.5780   49.7290 C   0  0  0  0  0  0  0  0  0  0  0  0
   38.2790   30.7620   50.6680 C   0  0  0  0  0  0  0  0  0  0  0  0
   37.4080   30.0270   51.6820 C   0  0  0  0  0  0  0  0  0  0  0  0
   36.1220   29.4880   51.1020 C   0  0  0  0  0  0  0  0  0  0  0  0
   36.2870   29.3690   49.5750 C   0  0  1  0  0  0  0  0  0  0  0  0
   35.3530   31.1670   49.0500 H   0  0  0  0  0  0  0  0  0  0  0  0
   36.7940   32.2190   50.4380 H   0  0  0  0  0  0  0  0  0  0  0  0
   37.9810   32.2850   49.1510 H   0  0  0  0  0  0  0  0  0  0  0  0
   38.9360   31.4570   51.2010 H   0  0  0  0  0  0  0  0  0  0  0  0
   38.8540   29.9680   50.1420 H   0  0  0  0  0  0  0  0  0  0  0  0
   38.0330   29.2210   52.1490 H   0  0  0  0  0  0  0  0  0  0  0  0
   37.1760   30.7430   52.4960 H   0  0  0  0  0  0  0  0  0  0  0  0
   35.9970   28.4530   51.4920 H   0  0  0  0  0  0  0  0  0  0  0  0
   35.2790   30.1530   51.3400 H   0  0  0  0  0  0  0  0  0  0  0  0
   37.2180   28.8580   49.5310 H   0  0  0  0  0  0  0  0  0  0  0  0
   36.7310   30.6360   47.5590 C   0  0  0  0  0  0  0  0  0  0  0  0
   38.0920   30.8150   47.2320 C   0  0  0  0  0  0  0  0  0  0  0  0
   38.4240   30.7120   45.8760 C   0  0  0  0  0  0  0  0  0  0  0  0
   37.4270   30.4470   44.9640 N   0  0  0  0  0  0  0  0  0  0  0  0
   36.1190   30.2820   45.3370 C   0  0  0  0  0  0  0  0  0  0  0  0
   35.7940   30.3810   46.6400 N   0  0  0  0  0  0  0  0  0  0  0  0
   38.9470   31.0140   47.8440 H   0  0  0  0  0  0  0  0  0  0  0  0
   39.4220   30.8250   45.4790 H   0  0  0  0  0  0  0  0  0  0  0  0
   35.4550   30.0820   44.5280 H   0  0  0  0  0  0  0  0  0  0  0  0
   33.9490   28.4640   49.1800 C   0  0  0  0  0  0  0  0  0  0  0  0
   33.1890   29.1650   49.9450 O   0  0  0  0  0  0  0  0  0  0  0  0
   35.3450   28.5290   48.9330 N   0  0  0  0  0  0  0  0  0  0  0  0
   35.6840   27.8580   48.1710 H   0  0  0  0  0  0  0  0  0  0  0  0
   33.1520   27.4290   48.4640 C   0  0  0  0  0  0  0  0  0  0  0  0
   33.6840   26.4920   47.6260 C   0  0  0  0  0  3  0  0  0  0  0  0
   32.9940   25.5320   46.9550 C   0  0  0  0  0  0  0  0  0  0  0  0
   33.4850   24.8220   46.3050 H   0  0  0  0  0  0  0  0  0  0  0  0
   31.6540   25.5200   47.1480 N   0  0  0  0  0  0  0  0  0  0  0  0
   31.1120   26.4320   47.9680 C   0  0  0  0  0  3  0  0  0  0  0  0
   31.8270   27.3600   48.6100 N   0  0  0  0  0  0  0  0  0  0  0  0
  1  7  1  1  0  0  0
  1  6  1  0  0  0  0
  1  2  1  0  0  0  0
  2  8  1  0  0  0  0
  2  3  1  0  0  0  0
  3 10  1  0  0  0  0
  3  4  1  0  0  0  0
  4 12  1  0  0  0  0
  4 13  1  0  0  0  0
  5 15  1  0  0  0  0
  5 14  1  0  0  0  0
  5  4  1  0  0  0  0
  6 16  1  6  0  0  0
  6  5  1  0  0  0  0
  9  2  1  0  0  0  0
 11  3  1  0  0  0  0
 17  1  1  0  0  0  0
 18 17  1  0  0  0  0
 18 23  1  0  0  0  0
 19 18  2  0  0  0  0
 20 21  2  0  0  0  0
 20 19  1  0  0  0  0
 21 22  1  0  0  0  0
 22 17  2  0  0  0  0
 24 19  1  0  0  0  0
 25 21  1  0  0  0  0
 26 27  2  0  0  0  0
 28 26  1  0  0  0  0
 28  6  1  0  0  0  0
 29 28  1  0  0  0  0
 30 36  1  0  0  0  0
 30 26  1  0  0  0  0
 31 30  2  0  0  0  0
 32 34  2  0  0  0  0
 32 31  1  0  0  0  0
 33 32  1  0  0  0  0
 34 35  1  0  0  0  0
 35 36  2  0  0  0  0
M  END
>  <minimizedAffinity>
-5.99146843

>  <minimizedRMSD>
0.465979785

$$$$
