
 OpenBabel03272509293D

 36 38  0  0  1  0  0  0  0  0999 V2000
   36.3990   30.7460   49.0000 C   0  0  2  0  0  0  0  0  0  0  0  0
   37.4160   31.5790   49.7250 C   0  0  0  0  0  0  0  0  0  0  0  0
   38.2780   30.7640   50.6640 C   0  0  0  0  0  0  0  0  0  0  0  0
   37.4080   30.0290   51.6780 C   0  0  0  0  0  0  0  0  0  0  0  0
   36.1220   29.4890   51.1000 C   0  0  0  0  0  0  0  0  0  0  0  0
   36.2860   29.3700   49.5730 C   0  0  1  0  0  0  0  0  0  0  0  0
   35.3510   31.1670   49.0470 H   0  0  0  0  0  0  0  0  0  0  0  0
   36.7930   32.2210   50.4340 H   0  0  0  0  0  0  0  0  0  0  0  0
   37.9790   32.2850   49.1470 H   0  0  0  0  0  0  0  0  0  0  0  0
   38.9350   31.4590   51.1960 H   0  0  0  0  0  0  0  0  0  0  0  0
   38.8530   29.9700   50.1380 H   0  0  0  0  0  0  0  0  0  0  0  0
   38.0340   29.2230   52.1460 H   0  0  0  0  0  0  0  0  0  0  0  0
   37.1760   30.7460   52.4920 H   0  0  0  0  0  0  0  0  0  0  0  0
   35.9970   28.4540   51.4900 H   0  0  0  0  0  0  0  0  0  0  0  0
   35.2790   30.1550   51.3370 H   0  0  0  0  0  0  0  0  0  0  0  0
   37.2180   28.8590   49.5290 H   0  0  0  0  0  0  0  0  0  0  0  0
   36.7290   30.6360   47.5550 C   0  0  0  0  0  0  0  0  0  0  0  0
   38.0900   30.8150   47.2280 C   0  0  0  0  0  0  0  0  0  0  0  0
   38.4210   30.7110   45.8720 C   0  0  0  0  0  0  0  0  0  0  0  0
   37.4240   30.4460   44.9600 N   0  0  0  0  0  0  0  0  0  0  0  0
   36.1160   30.2810   45.3340 C   0  0  0  0  0  0  0  0  0  0  0  0
   35.7910   30.3800   46.6370 N   0  0  0  0  0  0  0  0  0  0  0  0
   38.9450   31.0140   47.8390 H   0  0  0  0  0  0  0  0  0  0  0  0
   39.4200   30.8240   45.4750 H   0  0  0  0  0  0  0  0  0  0  0  0
   35.4520   30.0810   44.5260 H   0  0  0  0  0  0  0  0  0  0  0  0
   33.9480   28.4630   49.1790 C   0  0  0  0  0  0  0  0  0  0  0  0
   33.1890   29.1630   49.9450 O   0  0  0  0  0  0  0  0  0  0  0  0
   35.3440   28.5290   48.9310 N   0  0  0  0  0  0  0  0  0  0  0  0
   35.6830   27.8580   48.1690 H   0  0  0  0  0  0  0  0  0  0  0  0
   33.1510   27.4280   48.4650 C   0  0  0  0  0  0  0  0  0  0  0  0
   33.6830   26.4910   47.6270 C   0  0  0  0  0  3  0  0  0  0  0  0
   32.9940   25.5300   46.9560 C   0  0  0  0  0  0  0  0  0  0  0  0
   33.4850   24.8200   46.3080 H   0  0  0  0  0  0  0  0  0  0  0  0
   31.6530   25.5190   47.1480 N   0  0  0  0  0  0  0  0  0  0  0  0
   31.1120   26.4320   47.9670 C   0  0  0  0  0  3  0  0  0  0  0  0
   31.8260   27.3600   48.6100 N   0  0  0  0  0  0  0  0  0  0  0  0
  1  7  1  1  0  0  0
  1  6  1  0  0  0  0
  1  2  1  0  0  0  0
  2  8  1  0  0  0  0
  2  3  1  0  0  0  0
  3 10  1  0  0  0  0
  3  4  1  0  0  0  0
  4 12  1  0  0  0  0
  4 13  1  0  0  0  0
  5 15  1  0  0  0  0
  5 14  1  0  0  0  0
  5  4  1  0  0  0  0
  6 16  1  6  0  0  0
  6  5  1  0  0  0  0
  9  2  1  0  0  0  0
 11  3  1  0  0  0  0
 17  1  1  0  0  0  0
 18 17  1  0  0  0  0
 18 23  1  0  0  0  0
 19 18  2  0  0  0  0
 20 21  2  0  0  0  0
 20 19  1  0  0  0  0
 21 22  1  0  0  0  0
 22 17  2  0  0  0  0
 24 19  1  0  0  0  0
 25 21  1  0  0  0  0
 26 27  2  0  0  0  0
 28 26  1  0  0  0  0
 28  6  1  0  0  0  0
 29 28  1  0  0  0  0
 30 36  1  0  0  0  0
 30 26  1  0  0  0  0
 31 30  2  0  0  0  0
 32 34  2  0  0  0  0
 32 31  1  0  0  0  0
 33 32  1  0  0  0  0
 34 35  1  0  0  0  0
 35 36  2  0  0  0  0
M  END
>  <minimizedAffinity>
-5.99282598

>  <minimizedRMSD>
0.529659867

$$$$
