REMARK  Name = 
REMARK  3 active torsions:
REMARK  status: ('A' for Active; 'I' for Inactive)
REMARK    1  A    between atoms: C_3  and  C_12
REMARK    2  A    between atoms: C_7  and  S_14
REMARK    3  A    between atoms: S_14  and  C_21
REMARK                            x       y       z     vdW  Elec       q    Type
REMARK                         _______ _______ _______ _____ _____    ______ ____
ROOT
ATOM      1 CL   UNL     1      36.368  30.471  46.385  0.00  0.00    +0.000 Cl
ATOM      2  C   UNL     1      36.800  30.538  48.074  0.00  0.00    +0.000 A 
ATOM      3  C   UNL     1      38.023  31.079  48.381  0.00  0.00    +0.000 A 
ATOM      4  C   UNL     1      38.385  31.140  49.731  0.00  0.00    +0.000 A 
ATOM      5  C   UNL     1      37.524  30.666  50.688  0.00  0.00    +0.000 A 
ATOM      6  C   UNL     1      36.320  30.139  50.308  0.00  0.00    +0.000 A 
ATOM      7  C   UNL     1      35.895  30.046  48.998  0.00  0.00    +0.000 A 
ATOM      8  H   UNL     1      39.361  31.575  49.937  0.00  0.00    +0.000 HD
ATOM      9  H   UNL     1      37.819  30.721  51.728  0.00  0.00    +0.000 HD
ATOM     10  H   UNL     1      35.651  29.769  51.083  0.00  0.00    +0.000 HD
ENDROOT
BRANCH   3  15
ATOM     11  C   UNL     1      39.998  33.429  46.410  0.00  0.00    +0.000 A 
ATOM     12  C   UNL     1      40.569  32.621  45.389  0.00  0.00    +0.000 A 
ATOM     13  C   UNL     1      40.254  31.265  45.407  0.00  0.00    +0.000 A 
ATOM     14  N   UNL     1      39.430  30.801  46.384  0.00  0.00    +0.000 NA
ATOM     15  C   UNL     1      38.910  31.573  47.325  0.00  0.00    +0.000 A 
ATOM     16  N   UNL     1      39.202  32.888  47.326  0.00  0.00    +0.000 NA
ATOM     17  H   UNL     1      40.267  34.477  46.361  0.00  0.00    +0.000 HD
ATOM     18  H   UNL     1      41.212  32.990  44.627  0.00  0.00    +0.000 HD
ATOM     19  H   UNL     1      40.661  30.588  44.648  0.00  0.00    +0.000 HD
ENDBRANCH   3  15
BRANCH   7  20
ATOM     20  S   UNL     1      34.340  29.366  48.496  0.00  0.00    +0.000 S 
BRANCH  20  21
ATOM     21  C   UNL     1      34.477  27.605  48.195  0.00  0.00    +0.000 A 
ATOM     22  C   UNL     1      33.986  26.659  49.070  0.00  0.00    +0.000 A 
ATOM     23  C   UNL     1      34.074  25.297  48.869  0.00  0.00    +0.000 A 
ATOM     24  H   UNL     1      33.677  24.594  49.578  0.00  0.00    +0.000 HD
ATOM     25  N   UNL     1      34.695  24.954  47.721  0.00  0.00    +0.000 NA
ATOM     26  C   UNL     1      35.191  25.839  46.837  0.00  0.00    +0.000 A 
ATOM     27  N   UNL     1      35.081  27.180  47.076  0.00  0.00    +0.000 NA
ENDBRANCH  20  21
ENDBRANCH   7  20
TORSDOF 3
