
 OpenBabel03272505083D

 27 29  0  0  0  0  0  0  0  0999 V2000
   36.3360   30.8850   45.7540 Cl  0  0  0  0  0  0  0  0  0  0  0  0
   36.6770   30.7190   47.4570 C   0  0  0  0  0  0  0  0  0  0  0  0
   37.9510   31.0200   47.8670 C   0  0  0  0  0  0  0  0  0  0  0  0
   38.2410   30.8920   49.2300 C   0  0  0  0  0  0  0  0  0  0  0  0
   37.2630   30.4770   50.0970 C   0  0  0  0  0  0  0  0  0  0  0  0
   36.0140   30.1930   49.6170 C   0  0  0  0  0  0  0  0  0  0  0  0
   35.6540   30.2960   48.2880 C   0  0  0  0  0  0  0  0  0  0  0  0
   39.2610   31.1390   49.5190 H   0  0  0  0  0  0  0  0  0  0  0  0
   37.5040   30.3830   51.1480 H   0  0  0  0  0  0  0  0  0  0  0  0
   35.2520   29.8650   50.3220 H   0  0  0  0  0  0  0  0  0  0  0  0
   40.1600   33.2690   46.0320 C   0  0  0  0  0  0  0  0  0  0  0  0
   40.8530   32.4100   45.1360 C   0  0  0  0  0  0  0  0  0  0  0  0
   40.5350   31.0550   45.1880 C   0  0  0  0  0  0  0  0  0  0  0  0
   39.5950   30.6410   46.0790 N   0  0  0  0  0  0  0  0  0  0  0  0
   38.9630   31.4600   46.9050 C   0  0  0  0  0  0  0  0  0  0  0  0
   39.2550   32.7750   46.8700 N   0  0  0  0  0  0  0  0  0  0  0  0
   40.4350   34.3140   45.9600 H   0  0  0  0  0  0  0  0  0  0  0  0
   41.5860   32.7400   44.4410 H   0  0  0  0  0  0  0  0  0  0  0  0
   41.0320   30.3400   44.5240 H   0  0  0  0  0  0  0  0  0  0  0  0
   34.0420   29.9310   47.6560 S   0  0  0  0  0  0  0  0  0  0  0  0
   33.9530   28.2440   47.0590 C   0  0  0  0  0  0  0  0  0  0  0  0
   33.8490   27.1590   47.9040 C   0  0  0  0  0  3  0  0  0  0  0  0
   33.7780   25.8480   47.4780 C   0  0  0  0  0  0  0  0  0  0  0  0
   33.6980   25.0320   48.1720 H   0  0  0  0  0  0  0  0  0  0  0  0
   33.8210   25.7080   46.1360 N   0  0  0  0  0  0  0  0  0  0  0  0
   33.9230   26.7360   45.2720 C   0  0  0  0  0  3  0  0  0  0  0  0
   33.9900   28.0170   45.7380 N   0  0  0  0  0  0  0  0  0  0  0  0
  1  2  1  0  0  0  0
  2  3  2  0  0  0  0
  2  7  1  0  0  0  0
  3  4  1  0  0  0  0
  4  8  1  0  0  0  0
  4  5  2  0  0  0  0
  5  9  1  0  0  0  0
  6  5  1  0  0  0  0
  6 10  1  0  0  0  0
  7  6  2  0  0  0  0
 11 16  1  0  0  0  0
 12 13  1  0  0  0  0
 12 11  2  0  0  0  0
 13 14  2  0  0  0  0
 14 15  1  0  0  0  0
 15  3  1  0  0  0  0
 16 15  2  0  0  0  0
 17 11  1  0  0  0  0
 18 12  1  0  0  0  0
 19 13  1  0  0  0  0
 20  7  1  0  0  0  0
 21 20  1  0  0  0  0
 21 22  1  0  0  0  0
 23 22  2  0  0  0  0
 23 24  1  0  0  0  0
 25 23  1  0  0  0  0
 26 27  1  0  0  0  0
 26 25  2  0  0  0  0
 27 21  2  0  0  0  0
M  END
>  <minimizedAffinity>
-5.44600105

>  <minimizedRMSD>
1.15987778

$$$$
