
 OpenBabel03272505083D

 27 29  0  0  0  0  0  0  0  0999 V2000
   36.2760   30.8850   45.3830 Cl  0  0  0  0  0  0  0  0  0  0  0  0
   36.4940   30.4880   47.0680 C   0  0  0  0  0  0  0  0  0  0  0  0
   37.7360   30.7190   47.6040 C   0  0  0  0  0  0  0  0  0  0  0  0
   37.9290   30.4060   48.9540 C   0  0  0  0  0  0  0  0  0  0  0  0
   36.8910   29.8880   49.6860 C   0  0  0  0  0  0  0  0  0  0  0  0
   35.6790   29.6840   49.0850 C   0  0  0  0  0  0  0  0  0  0  0  0
   35.4150   29.9690   47.7600 C   0  0  0  0  0  0  0  0  0  0  0  0
   38.9250   30.6020   49.3440 H   0  0  0  0  0  0  0  0  0  0  0  0
   37.0560   29.6520   50.7290 H   0  0  0  0  0  0  0  0  0  0  0  0
   34.8680   29.2730   49.6840 H   0  0  0  0  0  0  0  0  0  0  0  0
   40.0380   33.1820   46.2110 C   0  0  0  0  0  0  0  0  0  0  0  0
   40.8230   32.4330   45.2920 C   0  0  0  0  0  0  0  0  0  0  0  0
   40.5340   31.0760   45.1740 C   0  0  0  0  0  0  0  0  0  0  0  0
   39.5330   30.5560   45.9330 N   0  0  0  0  0  0  0  0  0  0  0  0
   38.8150   31.2740   46.7830 C   0  0  0  0  0  0  0  0  0  0  0  0
   39.0780   32.5880   46.9110 N   0  0  0  0  0  0  0  0  0  0  0  0
   40.2940   34.2330   46.2720 H   0  0  0  0  0  0  0  0  0  0  0  0
   41.6040   32.8460   44.7000 H   0  0  0  0  0  0  0  0  0  0  0  0
   41.1020   30.4430   44.4840 H   0  0  0  0  0  0  0  0  0  0  0  0
   33.8510   29.7090   46.9730 S   0  0  0  0  0  0  0  0  0  0  0  0
   33.2070   28.0790   47.3470 C   0  0  0  0  0  0  0  0  0  0  0  0
   31.9650   27.8810   47.9120 C   0  0  0  0  0  3  0  0  0  0  0  0
   31.4400   26.6400   48.2130 C   0  0  0  0  0  0  0  0  0  0  0  0
   30.4660   26.5310   48.6540 H   0  0  0  0  0  0  0  0  0  0  0  0
   32.2560   25.6120   47.9030 N   0  0  0  0  0  0  0  0  0  0  0  0
   33.4760   25.7550   47.3520 C   0  0  0  0  0  3  0  0  0  0  0  0
   33.9570   27.0020   47.0700 N   0  0  0  0  0  0  0  0  0  0  0  0
  1  2  1  0  0  0  0
  2  3  2  0  0  0  0
  2  7  1  0  0  0  0
  3  4  1  0  0  0  0
  4  8  1  0  0  0  0
  4  5  2  0  0  0  0
  5  9  1  0  0  0  0
  6 10  1  0  0  0  0
  6  5  1  0  0  0  0
  7  6  2  0  0  0  0
 11 17  1  0  0  0  0
 11 16  1  0  0  0  0
 12 11  2  0  0  0  0
 13 12  1  0  0  0  0
 13 14  2  0  0  0  0
 14 15  1  0  0  0  0
 15 16  2  0  0  0  0
 15  3  1  0  0  0  0
 18 12  1  0  0  0  0
 19 13  1  0  0  0  0
 20 21  1  0  0  0  0
 20  7  1  0  0  0  0
 21 22  1  0  0  0  0
 22 23  2  0  0  0  0
 23 24  1  0  0  0  0
 25 23  1  0  0  0  0
 26 25  2  0  0  0  0
 27 21  2  0  0  0  0
 27 26  1  0  0  0  0
M  END
>  <minimizedAffinity>
-5.44164515

>  <minimizedRMSD>
1.44356823

$$$$
