
 OpenBabel03272505083D

 27 29  0  0  0  0  0  0  0  0999 V2000
   36.3370   30.8900   45.7580 Cl  0  0  0  0  0  0  0  0  0  0  0  0
   36.6790   30.7240   47.4610 C   0  0  0  0  0  0  0  0  0  0  0  0
   37.9540   31.0250   47.8690 C   0  0  0  0  0  0  0  0  0  0  0  0
   38.2460   30.8970   49.2320 C   0  0  0  0  0  0  0  0  0  0  0  0
   37.2680   30.4830   50.1000 C   0  0  0  0  0  0  0  0  0  0  0  0
   36.0180   30.2000   49.6210 C   0  0  0  0  0  0  0  0  0  0  0  0
   35.6570   30.3030   48.2930 C   0  0  0  0  0  0  0  0  0  0  0  0
   39.2660   31.1430   49.5190 H   0  0  0  0  0  0  0  0  0  0  0  0
   37.5100   30.3890   51.1510 H   0  0  0  0  0  0  0  0  0  0  0  0
   35.2570   29.8730   50.3270 H   0  0  0  0  0  0  0  0  0  0  0  0
   40.1620   33.2710   46.0290 C   0  0  0  0  0  0  0  0  0  0  0  0
   40.8540   32.4100   45.1340 C   0  0  0  0  0  0  0  0  0  0  0  0
   40.5370   31.0560   45.1890 C   0  0  0  0  0  0  0  0  0  0  0  0
   39.5980   30.6430   46.0810 N   0  0  0  0  0  0  0  0  0  0  0  0
   38.9660   31.4630   46.9050 C   0  0  0  0  0  0  0  0  0  0  0  0
   39.2580   32.7780   46.8680 N   0  0  0  0  0  0  0  0  0  0  0  0
   40.4370   34.3160   45.9550 H   0  0  0  0  0  0  0  0  0  0  0  0
   41.5870   32.7390   44.4380 H   0  0  0  0  0  0  0  0  0  0  0  0
   41.0340   30.3390   44.5260 H   0  0  0  0  0  0  0  0  0  0  0  0
   34.0440   29.9390   47.6630 S   0  0  0  0  0  0  0  0  0  0  0  0
   33.9540   28.2530   47.0620 C   0  0  0  0  0  0  0  0  0  0  0  0
   33.8510   27.1670   47.9060 C   0  0  0  0  0  3  0  0  0  0  0  0
   33.7800   25.8570   47.4760 C   0  0  0  0  0  0  0  0  0  0  0  0
   33.6990   25.0390   48.1690 H   0  0  0  0  0  0  0  0  0  0  0  0
   33.8210   25.7200   46.1350 N   0  0  0  0  0  0  0  0  0  0  0  0
   33.9220   26.7470   45.2730 C   0  0  0  0  0  3  0  0  0  0  0  0
   33.9900   28.0290   45.7400 N   0  0  0  0  0  0  0  0  0  0  0  0
  1  2  1  0  0  0  0
  2  3  2  0  0  0  0
  2  7  1  0  0  0  0
  3  4  1  0  0  0  0
  4  8  1  0  0  0  0
  4  5  2  0  0  0  0
  5  9  1  0  0  0  0
  6  5  1  0  0  0  0
  6 10  1  0  0  0  0
  7  6  2  0  0  0  0
 11 16  1  0  0  0  0
 12 13  1  0  0  0  0
 12 11  2  0  0  0  0
 13 14  2  0  0  0  0
 14 15  1  0  0  0  0
 15  3  1  0  0  0  0
 16 15  2  0  0  0  0
 17 11  1  0  0  0  0
 18 12  1  0  0  0  0
 19 13  1  0  0  0  0
 20  7  1  0  0  0  0
 21 20  1  0  0  0  0
 21 22  1  0  0  0  0
 23 22  2  0  0  0  0
 23 24  1  0  0  0  0
 25 23  1  0  0  0  0
 26 27  1  0  0  0  0
 26 25  2  0  0  0  0
 27 21  2  0  0  0  0
M  END
>  <minimizedAffinity>
-5.44260836

>  <minimizedRMSD>
1.07120645

$$$$
