
 OpenBabel03272505083D

 27 29  0  0  0  0  0  0  0  0999 V2000
   36.3370   30.8810   45.7620 Cl  0  0  0  0  0  0  0  0  0  0  0  0
   36.6800   30.7230   47.4650 C   0  0  0  0  0  0  0  0  0  0  0  0
   37.9540   31.0280   47.8730 C   0  0  0  0  0  0  0  0  0  0  0  0
   38.2460   30.9070   49.2350 C   0  0  0  0  0  0  0  0  0  0  0  0
   37.2700   30.4940   50.1060 C   0  0  0  0  0  0  0  0  0  0  0  0
   36.0210   30.2060   49.6280 C   0  0  0  0  0  0  0  0  0  0  0  0
   35.6590   30.3030   48.3000 C   0  0  0  0  0  0  0  0  0  0  0  0
   39.2660   31.1570   49.5220 H   0  0  0  0  0  0  0  0  0  0  0  0
   37.5120   30.4050   51.1570 H   0  0  0  0  0  0  0  0  0  0  0  0
   35.2600   29.8810   50.3360 H   0  0  0  0  0  0  0  0  0  0  0  0
   40.1620   33.2710   46.0280 C   0  0  0  0  0  0  0  0  0  0  0  0
   40.8510   32.4090   45.1310 C   0  0  0  0  0  0  0  0  0  0  0  0
   40.5320   31.0550   45.1870 C   0  0  0  0  0  0  0  0  0  0  0  0
   39.5940   30.6440   46.0810 N   0  0  0  0  0  0  0  0  0  0  0  0
   38.9650   31.4650   46.9070 C   0  0  0  0  0  0  0  0  0  0  0  0
   39.2590   32.7790   46.8690 N   0  0  0  0  0  0  0  0  0  0  0  0
   40.4380   34.3160   45.9530 H   0  0  0  0  0  0  0  0  0  0  0  0
   41.5830   32.7370   44.4340 H   0  0  0  0  0  0  0  0  0  0  0  0
   41.0270   30.3380   44.5230 H   0  0  0  0  0  0  0  0  0  0  0  0
   34.0460   29.9340   47.6710 S   0  0  0  0  0  0  0  0  0  0  0  0
   33.9710   28.2570   47.0430 C   0  0  0  0  0  0  0  0  0  0  0  0
   33.9820   27.9660   45.6940 C   0  0  0  0  0  3  0  0  0  0  0  0
   33.9250   26.6880   45.1770 C   0  0  0  0  0  0  0  0  0  0  0  0
   33.9360   26.5060   44.1190 H   0  0  0  0  0  0  0  0  0  0  0  0
   33.8570   25.7220   46.1160 N   0  0  0  0  0  0  0  0  0  0  0  0
   33.8440   25.9560   47.4410 C   0  0  0  0  0  3  0  0  0  0  0  0
   33.9020   27.2370   47.9110 N   0  0  0  0  0  0  0  0  0  0  0  0
  1  2  1  0  0  0  0
  2  3  2  0  0  0  0
  2  7  1  0  0  0  0
  3  4  1  0  0  0  0
  4  8  1  0  0  0  0
  4  5  2  0  0  0  0
  5  9  1  0  0  0  0
  6  5  1  0  0  0  0
  6 10  1  0  0  0  0
  7  6  2  0  0  0  0
 11 16  1  0  0  0  0
 12 13  1  0  0  0  0
 12 11  2  0  0  0  0
 13 14  2  0  0  0  0
 14 15  1  0  0  0  0
 15  3  1  0  0  0  0
 16 15  2  0  0  0  0
 17 11  1  0  0  0  0
 18 12  1  0  0  0  0
 19 13  1  0  0  0  0
 20  7  1  0  0  0  0
 21 20  1  0  0  0  0
 21 27  1  0  0  0  0
 22 21  2  0  0  0  0
 23 22  1  0  0  0  0
 23 25  2  0  0  0  0
 24 23  1  0  0  0  0
 25 26  1  0  0  0  0
 26 27  2  0  0  0  0
M  END
>  <minimizedAffinity>
-5.34952307

>  <minimizedRMSD>
1.09610176

$$$$
