
 OpenBabel03262521553D

 37 39  0  0  1  0  0  0  0  0999 V2000
   32.2660   26.9490   48.1490 C   0  0  1  0  0  0  0  0  0  0  0  0
   32.9230   28.2890   48.3780 C   0  0  2  0  0  0  0  0  0  0  0  0
   32.9630   29.0000   47.0590 C   0  0  0  0  0  0  0  0  0  0  0  0
   32.4210   28.2670   46.0220 O   0  0  0  0  0  0  0  0  0  0  0  0
   31.0900   27.9320   46.2500 C   0  0  0  0  0  0  0  0  0  0  0  0
   30.8910   27.2300   47.5570 C   0  0  2  0  0  0  0  0  0  0  0  0
   32.2140   26.3310   49.0540 H   0  0  0  0  0  0  0  0  0  0  0  0
   32.3060   28.8340   49.1160 H   0  0  0  0  0  0  0  0  0  0  0  0
   32.3960   29.9530   47.1580 H   0  0  0  0  0  0  0  0  0  0  0  0
   33.9880   29.2900   46.7520 H   0  0  0  0  0  0  0  0  0  0  0  0
   30.7880   27.2240   45.4400 H   0  0  0  0  0  0  0  0  0  0  0  0
   30.3960   28.8050   46.1140 H   0  0  0  0  0  0  0  0  0  0  0  0
   30.3600   26.2620   47.4660 H   0  0  0  0  0  0  0  0  0  0  0  0
   32.9650   26.1980   47.2030 O   0  0  0  0  0  0  0  0  0  0  0  0
   32.3790   25.8230   46.4930 H   0  0  0  0  0  0  0  0  0  0  0  0
   34.5690   28.1230   49.0980 S   0  0  0  0  0  0  0  0  0  0  0  0
   34.8470   29.4120   50.3330 C   0  0  0  0  0  0  0  0  0  0  0  0
   34.2990   29.1290   51.2480 H   0  0  0  0  0  0  0  0  0  0  0  0
   34.4390   30.3830   49.9540 H   0  0  0  0  0  0  0  0  0  0  0  0
   36.5650   29.6550   50.7490 S   0  0  0  0  0  0  0  0  0  0  0  0
   37.3260   30.6940   49.5150 C   0  0  0  0  0  0  0  0  0  0  0  0
   37.4950   32.0160   49.8910 C   0  0  0  0  0  0  0  0  0  0  0  0
   38.0880   32.8970   48.9730 C   0  0  0  0  0  0  0  0  0  0  0  0
   38.4630   32.3970   47.7670 N   0  0  0  0  0  0  0  0  0  0  0  0
   38.2750   31.0920   47.4510 C   0  0  0  0  0  0  0  0  0  0  0  0
   37.7200   30.2630   48.3060 N   0  0  0  0  0  0  0  0  0  0  0  0
   37.2050   32.4380   50.8420 H   0  0  0  0  0  0  0  0  0  0  0  0
   38.2440   33.9330   49.2070 H   0  0  0  0  0  0  0  0  0  0  0  0
   38.6090   30.7960   46.4650 H   0  0  0  0  0  0  0  0  0  0  0  0
   30.2640   28.0640   48.4720 O   0  0  0  0  0  0  0  0  0  0  0  0
   28.9320   28.2160   48.7240 C   0  0  0  0  0  0  0  0  0  0  0  0
   28.3310   29.2400   49.4380 C   0  0  0  0  0  3  0  0  0  0  0  0
   26.9690   29.2850   49.6270 C   0  0  0  0  0  0  0  0  0  0  0  0
   26.5290   30.1140   50.1980 H   0  0  0  0  0  0  0  0  0  0  0  0
   26.1720   28.3080   49.1080 N   0  0  0  0  0  0  0  0  0  0  0  0
   26.7700   27.3010   48.4060 C   0  0  0  0  0  3  0  0  0  0  0  0
   28.1080   27.2520   48.2180 N   0  0  0  0  0  0  0  0  0  0  0  0
  1  2  1  0  0  0  0
  1  7  1  1  0  0  0
  2 16  1  0  0  0  0
  2  8  1  1  0  0  0
  3  9  1  0  0  0  0
  3  2  1  0  0  0  0
  4  5  1  0  0  0  0
  4  3  1  0  0  0  0
  5  6  1  0  0  0  0
  6 13  1  6  0  0  0
  6  1  1  0  0  0  0
  6 30  1  0  0  0  0
 10  3  1  0  0  0  0
 11  5  1  0  0  0  0
 12  5  1  0  0  0  0
 14  1  1  0  0  0  0
 15 14  1  0  0  0  0
 16 17  1  0  0  0  0
 17 20  1  0  0  0  0
 17 18  1  0  0  0  0
 19 17  1  0  0  0  0
 21 22  1  0  0  0  0
 21 20  1  0  0  0  0
 22 27  1  0  0  0  0
 23 28  1  0  0  0  0
 23 22  2  0  0  0  0
 24 23  1  0  0  0  0
 25 24  2  0  0  0  0
 25 26  1  0  0  0  0
 26 21  2  0  0  0  0
 29 25  1  0  0  0  0
 30 31  1  0  0  0  0
 31 32  1  0  0  0  0
 32 33  2  0  0  0  0
 33 34  1  0  0  0  0
 35 33  1  0  0  0  0
 36 35  2  0  0  0  0
 37 36  1  0  0  0  0
 37 31  2  0  0  0  0
M  END
>  <minimizedAffinity>
-5.25934649

>  <minimizedRMSD>
0.991966665

$$$$
