
     RDKit          3D

 39 41  0  0  0  0  0  0  0  0999 V2000
   35.5167   29.8347   50.5212 C   0  0  0  0  0  0  0  0  0  0  0  0
   37.2648   30.1141   50.7458 S   0  0  0  0  0  0  0  0  0  0  0  0
   37.9123   30.9668   49.3204 C   0  0  0  0  0  0  0  0  0  0  0  0
   38.3416   32.2605   49.5610 C   0  0  0  0  0  0  0  0  0  0  0  0
   38.8649   32.9979   48.4875 C   0  0  0  0  0  0  0  0  0  0  0  0
   38.9187   32.3949   47.2719 N   0  0  0  0  0  0  0  0  0  0  0  0
   38.4839   31.1235   47.0910 C   0  0  0  0  0  0  0  0  0  0  0  0
   37.9932   30.4290   48.0926 N   0  0  0  0  0  0  0  0  0  0  0  0
   35.1315   28.3953   49.5001 S   0  0  0  0  0  0  0  0  0  0  0  0
   32.9605   27.3589   48.1603 C   0  0  1  0  0  0  0  0  0  0  0  0
   33.5899   28.6590   48.6003 C   0  0  2  0  0  0  0  0  0  0  0  0
   33.7990   29.4944   47.3731 C   0  0  0  0  0  0  0  0  0  0  0  0
   33.3876   28.8746   46.2097 O   0  0  0  0  0  0  0  0  0  0  0  0
   32.0374   28.5422   46.2363 C   0  0  0  0  0  0  0  0  0  0  0  0
   31.6720   27.7200   47.4323 C   0  0  2  0  0  0  0  0  0  0  0  0
   33.7689   26.6921   47.2395 O   0  0  0  0  0  0  0  0  0  0  0  0
   30.9391   28.4710   48.3388 O   0  0  0  0  0  0  0  0  0  0  0  0
   35.0528   29.6830   51.5110 H   0  0  0  0  0  0  0  0  0  0  0  0
   35.0752   30.7511   50.0527 H   0  0  0  0  0  0  0  0  0  0  0  0
   38.3101   32.7629   50.5165 H   0  0  0  0  0  0  0  0  0  0  0  0
   39.2137   34.0059   48.6132 H   0  0  0  0  0  0  0  0  0  0  0  0
   38.5707   30.7369   46.0843 H   0  0  0  0  0  0  0  0  0  0  0  0
   32.7925   26.6571   48.9857 H   0  0  0  0  0  0  0  0  0  0  0  0
   32.8884   29.1399   49.3057 H   0  0  0  0  0  0  0  0  0  0  0  0
   33.2279   30.4428   47.4953 H   0  0  0  0  0  0  0  0  0  0  0  0
   34.8556   29.7949   47.2273 H   0  0  0  0  0  0  0  0  0  0  0  0
   31.8357   27.9218   45.3280 H   0  0  0  0  0  0  0  0  0  0  0  0
   31.3700   29.4357   46.1009 H   0  0  0  0  0  0  0  0  0  0  0  0
   31.1521   26.7742   47.1801 H   0  0  0  0  0  0  0  0  0  0  0  0
   33.2758   26.3977   46.4280 H   0  0  0  0  0  0  0  0  0  0  0  0
   29.7330   28.1896   48.9119 C   0  0  0  0  0  0  0  0  0  0  0  0
   28.8252   27.2237   48.5075 C   0  0  0  0  0  0  0  0  0  0  0  0
   27.6337   27.0326   49.1698 C   0  0  0  0  0  0  0  0  0  0  0  0
   26.9386   26.2569   48.8204 H   0  0  0  0  0  0  0  0  0  0  0  0
   27.3202   27.8009   50.2514 N   0  0  0  0  0  0  0  0  0  0  0  0
   28.2182   28.7500   50.6441 C   0  0  0  0  0  0  0  0  0  0  0  0
   29.3901   28.9418   49.9970 N   0  0  0  0  0  0  0  0  0  0  0  0
   29.1011   26.6345   47.6523 H   0  0  0  0  0  0  0  0  0  0  0  0
   28.0136   29.3915   51.5051 H   0  0  0  0  0  0  0  0  0  0  0  0
  1  2  1  0
  3  4  2  0
  3  2  1  0
  5  4  1  0
  6  5  2  0
  7  6  1  0
  7  8  2  0
  8  3  1  0
  9  1  1  0
 10 16  1  0
 10 11  1  0
 11  9  1  0
 12 11  1  0
 13 14  1  0
 13 12  1  0
 14 15  1  0
 15 10  1  0
 15 17  1  0
  1 18  1  0
  1 19  1  0
  4 20  1  0
  5 21  1  0
  7 22  1  0
 10 23  1  1
 11 24  1  1
 12 25  1  0
 12 26  1  0
 14 27  1  0
 14 28  1  0
 15 29  1  6
 16 30  1  0
 31 32  2  0
 32 33  1  0
 33 34  1  0
 33 35  2  0
 35 36  1  0
 36 37  2  0
 37 31  1  0
 32 38  1  0
 36 39  1  0
 17 31  1  0
M  ISO  8  18   8  19   8  20  14  21  14  22  14  23  13  24  13  25  13
M  ISO  6  26  13  27  13  28  13  29  13  30   3  34  14
M  END
>  <DihAtoms>  (1) 
14,16,30,31

>  <DihDeg>  (1) 
0.0008086421143675915

$$$$
