
 OpenBabel03272510103D

 26 28  0  0  0  0  0  0  0  0999 V2000
   36.6680   30.3320   47.5870 C   0  0  0  0  0  0  0  0  0  0  0  0
   37.6370   30.7910   46.7490 C   0  0  0  0  0  0  0  0  0  0  0  0
   37.4770   30.9120   45.3860 C   0  0  0  0  0  0  0  0  0  0  0  0
   36.3080   30.5680   44.7830 C   0  0  0  0  0  0  0  0  0  0  0  0
   35.3250   30.0980   45.6620 C   0  0  0  0  0  0  0  0  0  0  0  0
   35.4900   29.9820   47.0000 N   0  0  0  0  0  0  0  0  0  0  0  0
   38.5890   31.0810   47.1740 H   0  0  0  0  0  0  0  0  0  0  0  0
   38.2560   31.2800   44.7350 H   0  0  0  0  0  0  0  0  0  0  0  0
   34.3470   29.7880   45.3250 H   0  0  0  0  0  0  0  0  0  0  0  0
   35.9430   29.5330   49.8680 C   0  0  0  0  0  0  0  0  0  0  0  0
   36.8430   30.2050   49.0210 C   0  0  0  0  0  0  0  0  0  0  0  0
   37.9500   30.7710   49.6160 C   0  0  0  0  0  0  0  0  0  0  0  0
   38.1120   30.6500   50.9700 N   0  0  0  0  0  0  0  0  0  0  0  0
   37.2260   30.0000   51.7280 C   0  0  0  0  0  0  0  0  0  0  0  0
   36.1200   29.4280   51.1830 N   0  0  0  0  0  0  0  0  0  0  0  0
   35.0770   29.0940   49.3820 H   0  0  0  0  0  0  0  0  0  0  0  0
   38.6860   31.3050   49.0260 H   0  0  0  0  0  0  0  0  0  0  0  0
   37.4140   29.9420   52.7910 H   0  0  0  0  0  0  0  0  0  0  0  0
   35.9360   30.6070   43.4540 O   0  0  0  0  0  0  0  0  0  0  0  0
   35.4040   29.4890   42.8530 C   0  0  0  0  0  0  0  0  0  0  0  0
   36.4210   28.5220   42.8470 C   0  0  0  0  0  3  0  0  0  0  0  0
   36.2320   27.2430   42.3040 C   0  0  0  0  0  0  0  0  0  0  0  0
   36.9370   26.4450   42.2530 H   0  0  0  0  0  0  0  0  0  0  0  0
   35.0130   26.9630   41.7770 N   0  0  0  0  0  0  0  0  0  0  0  0
   34.0300   27.8830   41.7760 C   0  0  0  0  0  3  0  0  0  0  0  0
   34.2610   29.0840   42.3040 N   0  0  0  0  0  0  0  0  0  0  0  0
  1 11  1  0  0  0  0
  2  7  1  0  0  0  0
  2  1  2  0  0  0  0
  3  2  1  0  0  0  0
  4  3  2  0  0  0  0
  4  5  1  0  0  0  0
  5  6  2  0  0  0  0
  6  1  1  0  0  0  0
  8  3  1  0  0  0  0
  9  5  1  0  0  0  0
 10 15  1  0  0  0  0
 11 12  1  0  0  0  0
 11 10  2  0  0  0  0
 12 13  2  0  0  0  0
 13 14  1  0  0  0  0
 14 18  1  0  0  0  0
 15 14  2  0  0  0  0
 16 10  1  0  0  0  0
 17 12  1  0  0  0  0
 19  4  1  0  0  0  0
 20 19  1  0  0  0  0
 21 20  1  0  0  0  0
 22 21  2  0  0  0  0
 23 22  1  0  0  0  0
 24 22  1  0  0  0  0
 25 24  2  0  0  0  0
 25 26  1  0  0  0  0
 26 20  2  0  0  0  0
M  END
>  <minimizedAffinity>
-3.95419145

>  <minimizedRMSD>
7.23471451

$$$$
