REMARK  Name = 
REMARK  3 active torsions:
REMARK  status: ('A' for Active; 'I' for Inactive)
REMARK    1  A    between atoms: C_1  and  C_7
REMARK    2  A    between atoms: C_8  and  O_10
REMARK    3  A    between atoms: O_10  and  C_18
REMARK                            x       y       z     vdW  Elec       q    Type
REMARK                         _______ _______ _______ _____ _____    ______ ____
ROOT
ATOM      1  C   UNL     1      36.639  31.032  50.494  0.00  0.00    +0.000 C 
ATOM      2  C   UNL     1      36.149  29.683  50.664  0.00  0.00    +0.000 C 
ATOM      3  C   UNL     1      37.341  30.105  51.488  0.00  0.00    +0.000 C 
ATOM      4  H   UNL     1      36.169  31.941  50.953  0.00  0.00    +0.000 HD
ATOM      5  H   UNL     1      35.178  29.535  51.178  0.00  0.00    +0.000 HD
ATOM      6  H   UNL     1      37.102  30.322  52.544  0.00  0.00    +0.000 HD
ATOM      7  H   UNL     1      38.338  29.739  51.262  0.00  0.00    +0.000 HD
ENDROOT
BRANCH   1   8
ATOM      8  C   UNL     1      37.525  31.407  49.330  0.00  0.00    +0.000 A 
ATOM      9  C   UNL     1      38.153  32.651  49.404  0.00  0.00    +0.000 A 
ATOM     10  C   UNL     1      38.941  32.980  48.302  0.00  0.00    +0.000 A 
ATOM     11  N   UNL     1      39.065  32.116  47.239  0.00  0.00    +0.000 NA
ATOM     12  C   UNL     1      38.431  30.922  47.222  0.00  0.00    +0.000 A 
ATOM     13  N   UNL     1      37.650  30.557  48.280  0.00  0.00    +0.000 NA
ATOM     14  H   UNL     1      38.037  33.299  50.242  0.00  0.00    +0.000 HD
ATOM     15  H   UNL     1      39.455  33.931  48.298  0.00  0.00    +0.000 HD
ATOM     16  H   UNL     1      38.520  30.233  46.393  0.00  0.00    +0.000 HD
ENDBRANCH   1   8
BRANCH   2  17
ATOM     17  O   UNL     1      36.382  28.735  49.656  0.00  0.00    +0.000 OA
BRANCH  17  18
ATOM     18  C   UNL     1      35.452  27.721  49.367  0.00  0.00    +0.000 A 
ATOM     19  C   UNL     1      35.896  26.406  49.512  0.00  0.00    +0.000 A 
ATOM     20  C   UNL     1      34.903  25.479  49.202  0.00  0.00    +0.000 A 
ATOM     21  H   UNL     1      35.141  24.410  49.281  0.00  0.00    +0.000 HD
ATOM     22  N   UNL     1      33.651  25.740  48.807  0.00  0.00    +0.000 NA
ATOM     23  C   UNL     1      33.315  27.049  48.696  0.00  0.00    +0.000 A 
ATOM     24  N   UNL     1      34.200  28.023  48.971  0.00  0.00    +0.000 NA
ENDBRANCH  17  18
ENDBRANCH   2  17
TORSDOF 3
