
     RDKit          3D

 46 50  0  0  0  0  0  0  0  0999 V2000
   38.1181   30.1526   47.4861 F   0  0  0  0  0  0  0  0  0  0  0  0
   38.3810   31.4028   47.9738 C   0  0  0  0  0  0  0  0  0  0  0  0
   37.7144   31.8355   49.0859 C   0  0  0  0  0  0  0  0  0  0  0  0
   38.0228   33.0994   49.5259 C   0  0  0  0  0  0  0  0  0  0  0  0
   38.9402   33.8926   48.9007 C   0  0  0  0  0  0  0  0  0  0  0  0
   39.5983   33.4183   47.7720 C   0  0  0  0  0  0  0  0  0  0  0  0
   39.3053   32.1528   47.3118 C   0  0  0  0  0  0  0  0  0  0  0  0
   36.0835   29.3660   51.4429 C   0  0  0  0  0  0  0  0  0  0  0  0
   37.0392   30.2232   50.8547 C   0  0  0  0  0  0  0  0  0  0  0  0
   36.7447   30.9440   49.7121 C   0  0  0  0  0  0  0  0  0  0  0  0
   35.4958   30.7860   49.1875 N   0  0  0  0  0  0  0  0  0  0  0  0
   34.5894   29.9694   49.7502 C   0  0  0  0  0  0  0  0  0  0  0  0
   34.8742   29.2789   50.8464 N   0  0  0  0  0  0  0  0  0  0  0  0
   39.2653   31.9059   44.9308 C   0  0  0  0  0  0  0  0  0  0  0  0
   38.1782   32.5600   45.0465 O   0  0  0  0  0  0  0  0  0  0  0  0
   39.9689   31.6356   46.1484 N   0  0  0  0  0  0  0  0  0  0  0  0
   39.1852   32.1984   42.5596 C   0  0  0  0  0  0  0  0  0  0  0  0
   39.7222   31.4816   43.6202 C   0  0  0  0  0  0  0  0  0  0  0  0
   40.6076   30.4601   43.4574 C   0  0  0  0  0  0  0  0  0  0  0  0
   41.0117   30.0944   42.1823 C   0  0  0  0  0  0  0  0  0  0  0  0
   41.8482   29.1547   41.7251 N   0  0  0  0  0  0  0  0  0  0  0  0
   41.8670   29.2442   40.3956 C   0  0  0  0  0  0  0  0  0  0  0  0
   41.0344   30.2496   40.0148 N   0  0  0  0  0  0  0  0  0  0  0  0
   40.4932   30.7897   41.1199 C   0  0  0  0  0  0  0  0  0  0  0  0
   39.5830   31.8431   41.2495 C   0  0  0  0  0  0  0  0  0  0  0  0
   39.0560   32.5481   40.1911 O   0  0  0  0  0  0  0  0  0  0  0  0
   37.5039   33.4665   50.4113 H   0  0  0  0  0  0  0  0  0  0  0  0
   39.1611   34.8851   49.2726 H   0  0  0  0  0  0  0  0  0  0  0  0
   40.3360   34.0341   47.2550 H   0  0  0  0  0  0  0  0  0  0  0  0
   36.4363   28.8590   52.3326 H   0  0  0  0  0  0  0  0  0  0  0  0
   38.0373   30.3581   51.2623 H   0  0  0  0  0  0  0  0  0  0  0  0
   33.5866   29.8416   49.3302 H   0  0  0  0  0  0  0  0  0  0  0  0
   40.8666   31.1090   46.0996 H   0  0  0  0  0  0  0  0  0  0  0  0
   38.4904   33.0015   42.6703 H   0  0  0  0  0  0  0  0  0  0  0  0
   41.0002   29.9287   44.3191 H   0  0  0  0  0  0  0  0  0  0  0  0
   42.3714   28.4909   42.3461 H   0  0  0  0  0  0  0  0  0  0  0  0
   42.4725   28.5879   39.7796 H   0  0  0  0  0  0  0  0  0  0  0  0
   38.3247   31.8430   39.2446 C   0  0  0  0  0  0  0  0  0  0  0  0
   38.3670   32.3580   37.9566 C   0  0  0  0  0  0  0  0  0  0  0  0
   37.6640   31.7131   36.9539 C   0  0  0  0  0  0  0  0  0  0  0  0
   37.6917   32.1083   35.9463 H   0  0  0  0  0  0  0  0  0  0  0  0
   36.9446   30.5988   37.2146 N   0  0  0  0  0  0  0  0  0  0  0  0
   36.9202   30.1155   38.4850 C   0  0  0  0  0  0  0  0  0  0  0  0
   37.5969   30.7293   39.4695 N   0  0  0  0  0  0  0  0  0  0  0  0
   38.9378   33.2562   37.7100 H   0  0  0  0  0  0  0  0  0  0  0  0
   36.3421   29.2327   38.6585 H   0  0  0  0  0  0  0  0  0  0  0  0
  1  2  1  0
  2  3  2  0
  3  4  1  0
  3 10  1  0
  5  4  2  0
  6  5  1  0
  7  6  2  0
  7  2  1  0
  9  8  2  0
 10  9  1  0
 11 10  2  0
 11 12  1  0
 12 13  2  0
 13  8  1  0
 14 15  2  0
 14 16  1  0
 16  7  1  0
 17 18  2  0
 18 14  1  0
 19 18  1  0
 20 19  2  0
 21 20  1  0
 22 21  1  0
 23 22  2  0
 23 24  1  0
 24 25  2  0
 24 20  1  0
 25 17  1  0
 26 25  1  0
  4 27  1  0
  5 28  1  0
  6 29  1  0
  8 30  1  0
  9 31  1  0
 12 32  1  0
 16 33  1  0
 17 34  1  0
 19 35  1  0
 21 36  1  0
 22 37  1  0
 38 39  2  0
 39 40  1  0
 40 41  1  0
 40 42  2  0
 42 43  1  0
 43 44  2  0
 44 38  1  0
 39 45  1  0
 43 46  1  0
 26 38  1  0
M  ISO  8  27  14  28  14  29  14  30  14  31  14  32  14  34  14  35  14
M  ISO  3  36   9  37  14  41  14
M  END
>  <DihAtoms>  (1) 
24,25,37,38

>  <DihDeg>  (1) 
-179.9995541810187

$$$$
