
 OpenBabel03272507163D

 24 26  0  0  1  0  0  0  0  0999 V2000
   36.9180   30.9200   50.5800 C   0  0  1  0  0  0  0  0  0  0  0  0
   36.1710   29.6840   50.5210 C   0  0  2  0  0  0  0  0  0  0  0  0
   37.5080   29.6630   51.2200 C   0  0  0  0  0  0  0  0  0  0  0  0
   36.7070   31.7560   51.2970 H   0  0  0  0  0  0  0  0  0  0  0  0
   35.2530   29.5930   51.1360 H   0  0  0  0  0  0  0  0  0  0  0  0
   37.4380   29.6500   52.3220 H   0  0  0  0  0  0  0  0  0  0  0  0
   38.3720   29.1890   50.7640 H   0  0  0  0  0  0  0  0  0  0  0  0
   37.7310   31.4050   49.4030 C   0  0  0  0  0  0  0  0  0  0  0  0
   38.2110   32.7130   49.4770 C   0  0  0  0  0  0  0  0  0  0  0  0
   38.9330   33.1400   48.3640 C   0  0  0  0  0  0  0  0  0  0  0  0
   39.1360   32.3040   47.2910 N   0  0  0  0  0  0  0  0  0  0  0  0
   38.6460   31.0450   47.2740 C   0  0  0  0  0  0  0  0  0  0  0  0
   37.9340   30.5830   48.3430 N   0  0  0  0  0  0  0  0  0  0  0  0
   38.0370   33.3370   50.3240 H   0  0  0  0  0  0  0  0  0  0  0  0
   39.3330   34.1440   48.3600 H   0  0  0  0  0  0  0  0  0  0  0  0
   38.7980   30.3770   46.4370 H   0  0  0  0  0  0  0  0  0  0  0  0
   36.0830   28.9910   49.3050 O   0  0  0  0  0  0  0  0  0  0  0  0
   34.8550   28.8160   48.6420 C   0  0  0  0  0  0  0  0  0  0  0  0
   34.6450   29.5960   47.5020 C   0  0  0  0  0  3  0  0  0  0  0  0
   33.4040   29.3490   46.9190 C   0  0  0  0  0  0  0  0  0  0  0  0
   33.1300   29.9080   46.0150 H   0  0  0  0  0  0  0  0  0  0  0  0
   32.4720   28.4860   47.3410 N   0  0  0  0  0  0  0  0  0  0  0  0
   32.7700   27.7750   48.4570 C   0  0  0  0  0  3  0  0  0  0  0  0
   33.9410   27.9380   49.0960 N   0  0  0  0  0  0  0  0  0  0  0  0
  1  3  1  0  0  0  0
  1  4  1  1  0  0  0
  2  1  1  0  0  0  0
  2  5  1  1  0  0  0
  2  3  1  0  0  0  0
  3  6  1  0  0  0  0
  7  3  1  0  0  0  0
  8  9  1  0  0  0  0
  8  1  1  0  0  0  0
  9 14  1  0  0  0  0
 10  9  2  0  0  0  0
 11 10  1  0  0  0  0
 12 11  2  0  0  0  0
 12 13  1  0  0  0  0
 13  8  2  0  0  0  0
 15 10  1  0  0  0  0
 16 12  1  0  0  0  0
 17  2  1  0  0  0  0
 18 24  1  0  0  0  0
 18 17  1  0  0  0  0
 19 18  2  0  0  0  0
 20 22  2  0  0  0  0
 20 19  1  0  0  0  0
 21 20  1  0  0  0  0
 22 23  1  0  0  0  0
 23 24  2  0  0  0  0
M  END
>  <minimizedAffinity>
-5.2509613

>  <minimizedRMSD>
1.60524273

$$$$
