
 OpenBabel03272501573D

 29 31  0  0  0  0  0  0  0  0999 V2000
   34.3450   27.9530   48.2570 C   0  0  0  0  0  0  0  0  0  0  0  0
   34.4550   28.8460   47.5810 H   0  0  0  0  0  0  0  0  0  0  0  0
   35.0220   27.1320   48.0160 H   0  0  0  0  0  0  0  0  0  0  0  0
   32.9410   27.4650   48.0610 C   0  0  0  0  0  0  0  0  0  0  0  0
   32.5410   26.1940   47.7230 C   0  0  0  0  0  0  0  0  0  0  0  0
   31.1640   26.1240   47.6330 C   0  0  0  0  0  0  0  0  0  0  0  0
   30.7610   27.3860   47.9250 N   0  0  0  0  0  0  0  0  0  0  0  0
   31.8080   28.1800   48.1780 N   0  0  0  0  0  0  0  0  0  0  0  0
   33.2390   25.3610   47.5530 H   0  0  0  0  0  0  0  0  0  0  0  0
   30.5550   25.2770   47.3900 H   0  0  0  0  0  0  0  0  0  0  0  0
   29.3900   27.7880   47.9520 C   0  0  0  0  0  0  0  0  0  0  0  0
   28.8380   29.0070   47.6430 C   0  0  0  0  0  0  0  0  0  0  0  0
   27.4640   29.1550   47.7460 C   0  0  0  0  0  0  0  0  0  0  0  0
   27.0980   30.1440   47.4870 H   0  0  0  0  0  0  0  0  0  0  0  0
   26.7060   28.1310   48.1370 N   0  0  0  0  0  0  0  0  0  0  0  0
   27.2290   26.9170   48.4480 C   0  0  0  0  0  0  0  0  0  0  0  0
   28.5570   26.7800   48.3460 N   0  0  0  0  0  0  0  0  0  0  0  0
   34.4160   28.4150   49.6930 C   0  0  0  0  0  0  0  0  0  0  0  0
   34.3770   27.5250   50.3850 H   0  0  0  0  0  0  0  0  0  0  0  0
   33.5770   29.0800   49.9630 H   0  0  0  0  0  0  0  0  0  0  0  0
   37.2400   30.1250   51.3400 C   0  0  0  0  0  0  0  0  0  0  0  0
   38.0100   30.5770   50.2400 C   0  0  0  0  0  0  0  0  0  0  0  0
   37.5350   30.2810   48.9430 C   0  0  0  0  0  0  0  0  0  0  0  0
   36.3710   29.5810   48.8060 N   0  0  0  0  0  0  0  0  0  0  0  0
   35.6830   29.1780   49.9080 C   0  0  0  0  0  0  0  0  0  0  0  0
   36.1060   29.4420   51.1320 N   0  0  0  0  0  0  0  0  0  0  0  0
   37.5500   30.3200   52.3570 H   0  0  0  0  0  0  0  0  0  0  0  0
   38.9250   31.1280   50.4210 H   0  0  0  0  0  0  0  0  0  0  0  0
   38.1180   30.6240   48.1150 H   0  0  0  0  0  0  0  0  0  0  0  0
  1 18  1  0  0  0  0
  2  1  1  0  0  0  0
  3  1  1  0  0  0  0
  4  8  2  0  0  0  0
  4  1  1  0  0  0  0
  5  4  1  0  0  0  0
  6  5  2  0  0  0  0
  6  7  1  0  0  0  0
  7 11  1  0  0  0  0
  7  8  1  0  0  0  0
  9  5  1  0  0  0  0
 10  6  1  0  0  0  0
 11 17  1  0  0  0  0
 12 13  1  0  0  0  0
 12 11  2  0  0  0  0
 13 15  2  0  0  0  0
 14 13  1  0  0  0  0
 15 16  1  0  0  0  0
 17 16  2  0  0  0  0
 18 25  1  0  0  0  0
 18 20  1  0  0  0  0
 18 19  1  0  0  0  0
 21 27  1  0  0  0  0
 22 28  1  0  0  0  0
 22 21  2  0  0  0  0
 23 22  1  0  0  0  0
 24 23  2  0  0  0  0
 24 25  1  0  0  0  0
 25 26  2  0  0  0  0
 26 21  1  0  0  0  0
 29 23  1  0  0  0  0
M  END
>  <minimizedAffinity>
-5.20912218

>  <minimizedRMSD>
1.95953667

$$$$
