
 OpenBabel03272507163D

 24 26  0  0  1  0  0  0  0  0999 V2000
   36.9060   30.9310   50.5560 C   0  0  1  0  0  0  0  0  0  0  0  0
   36.1660   29.6910   50.4900 C   0  0  2  0  0  0  0  0  0  0  0  0
   37.4970   29.6750   51.2000 C   0  0  0  0  0  0  0  0  0  0  0  0
   36.6850   31.7650   51.2730 H   0  0  0  0  0  0  0  0  0  0  0  0
   35.2430   29.5940   51.0970 H   0  0  0  0  0  0  0  0  0  0  0  0
   37.4180   29.6610   52.3010 H   0  0  0  0  0  0  0  0  0  0  0  0
   38.3680   29.2070   50.7510 H   0  0  0  0  0  0  0  0  0  0  0  0
   37.7270   31.4210   49.3870 C   0  0  0  0  0  0  0  0  0  0  0  0
   38.2180   32.7240   49.4780 C   0  0  0  0  0  0  0  0  0  0  0  0
   38.9480   33.1570   48.3720 C   0  0  0  0  0  0  0  0  0  0  0  0
   39.1460   32.3320   47.2890 N   0  0  0  0  0  0  0  0  0  0  0  0
   38.6440   31.0770   47.2570 C   0  0  0  0  0  0  0  0  0  0  0  0
   37.9240   30.6100   48.3180 N   0  0  0  0  0  0  0  0  0  0  0  0
   38.0480   33.3400   50.3310 H   0  0  0  0  0  0  0  0  0  0  0  0
   39.3560   34.1580   48.3800 H   0  0  0  0  0  0  0  0  0  0  0  0
   38.7920   30.4180   46.4120 H   0  0  0  0  0  0  0  0  0  0  0  0
   36.0920   28.9990   49.2710 O   0  0  0  0  0  0  0  0  0  0  0  0
   34.8870   28.8940   48.5540 C   0  0  0  0  0  0  0  0  0  0  0  0
   34.0000   27.8980   48.9680 C   0  0  0  0  0  3  0  0  0  0  0  0
   32.8400   27.8750   48.1970 C   0  0  0  0  0  0  0  0  0  0  0  0
   32.0680   27.1300   48.4320 H   0  0  0  0  0  0  0  0  0  0  0  0
   32.5380   28.6790   47.1690 N   0  0  0  0  0  0  0  0  0  0  0  0
   33.4650   29.6150   46.8450 C   0  0  0  0  0  3  0  0  0  0  0  0
   34.6180   29.7200   47.5260 N   0  0  0  0  0  0  0  0  0  0  0  0
  1  3  1  0  0  0  0
  1  4  1  1  0  0  0
  2  1  1  0  0  0  0
  2  5  1  1  0  0  0
  2  3  1  0  0  0  0
  3  6  1  0  0  0  0
  7  3  1  0  0  0  0
  8  9  1  0  0  0  0
  8  1  1  0  0  0  0
  9 14  1  0  0  0  0
 10 15  1  0  0  0  0
 10  9  2  0  0  0  0
 11 10  1  0  0  0  0
 12 11  2  0  0  0  0
 12 13  1  0  0  0  0
 13  8  2  0  0  0  0
 16 12  1  0  0  0  0
 17  2  1  0  0  0  0
 18 19  1  0  0  0  0
 18 17  1  0  0  0  0
 20 21  1  0  0  0  0
 20 19  2  0  0  0  0
 22 20  1  0  0  0  0
 23 22  2  0  0  0  0
 23 24  1  0  0  0  0
 24 18  2  0  0  0  0
M  END
>  <minimizedAffinity>
-5.26905775

>  <minimizedRMSD>
1.833606

$$$$
