
 OpenBabel03262520363D

 40 42  0  0  0  0  0  0  0  0999 V2000
   37.5890   24.1990   31.6630 O   0  0  0  0  0  0  0  0  0  0  0  0
   37.5980   22.4940   33.2100 C   0  0  0  0  0  0  0  0  0  0  0  0
   36.9010   23.1280   32.1730 C   0  0  0  0  0  0  0  0  0  0  0  0
   35.6620   22.6770   31.7550 C   0  0  0  0  0  0  0  0  0  0  0  0
   35.1110   21.5880   32.3730 C   0  0  0  0  0  0  0  0  0  0  0  0
   35.7780   20.9660   33.3790 C   0  0  0  0  0  0  0  0  0  0  0  0
   37.0080   21.3730   33.8300 C   0  0  0  0  0  0  0  0  0  0  0  0
   35.1970   23.2240   30.9510 H   0  0  0  0  0  0  0  0  0  0  0  0
   34.1400   21.3120   31.9740 H   0  0  0  0  0  0  0  0  0  0  0  0
   35.2760   20.1040   33.8230 H   0  0  0  0  0  0  0  0  0  0  0  0
   37.5350   20.8720   34.6340 H   0  0  0  0  0  0  0  0  0  0  0  0
   39.1620   23.0020   33.7950 S   0  0  0  0  0  0  0  0  0  0  0  0
   39.7100   22.0100   34.7670 O   0  0  0  0  0  0  0  0  0  0  0  0
   40.0930   23.1620   32.5960 O   0  0  0  0  0  0  0  0  0  0  0  0
   39.0930   24.5790   34.5130 C   0  0  0  0  0  0  0  0  0  0  0  0
   39.9220   25.6350   34.1250 C   0  0  0  0  0  3  0  0  0  0  0  0
   39.7930   26.8650   34.7600 C   0  0  0  0  0  0  0  0  0  0  0  0
   40.4370   27.6970   34.4640 H   0  0  0  0  0  0  0  0  0  0  0  0
   38.8760   27.0430   35.7420 N   0  0  0  0  0  0  0  0  0  0  0  0
   38.0830   26.0250   36.1090 C   0  0  0  0  0  3  0  0  0  0  0  0
   38.2160   24.8560   35.4960 N   0  0  0  0  0  0  0  0  0  0  0  0
   38.1250   26.6580   30.8700 O   0  0  0  0  0  0  0  0  0  0  0  0
   37.0270   25.7640   31.4420 P   0  0  1  0  0  0  0  0  0  0  0  0
   35.6450   25.7880   30.4560 O   0  0  0  0  0  0  0  0  0  0  0  0
   35.1280   24.9830   30.7230 H   0  0  0  0  0  0  0  0  0  0  0  0
   36.6200   26.4900   32.9340 O   0  0  0  0  0  0  0  0  0  0  0  0
   36.8130   27.8790   32.8190 C   0  0  0  0  0  0  0  0  0  0  0  0
   36.4700   28.1730   31.8100 H   0  0  0  0  0  0  0  0  0  0  0  0
   37.8980   28.1290   32.8710 H   0  0  0  0  0  0  0  0  0  0  0  0
   35.6280   29.8460   33.7120 C   0  0  0  0  0  3  0  0  0  0  0  0
   36.0830   28.6310   33.8680 C   0  0  0  0  0  3  0  0  0  0  0  0
   33.0420   30.8780   36.0900 C   0  0  0  0  0  0  0  0  0  0  0  0
   33.7510   31.7130   36.9480 C   0  0  0  0  0  0  0  0  0  0  0  0
   35.1170   31.9150   36.7000 C   0  0  0  0  0  0  0  0  0  0  0  0
   35.6250   31.2540   35.6150 N   0  0  0  0  0  0  0  0  0  0  0  0
   34.9300   30.4680   34.8170 C   0  0  0  0  0  0  0  0  0  0  0  0
   33.6390   30.2970   35.0800 N   0  0  0  0  0  0  0  0  0  0  0  0
   31.9860   30.6880   36.2370 H   0  0  0  0  0  0  0  0  0  0  0  0
   33.2620   32.2000   37.7900 H   0  0  0  0  0  0  0  0  0  0  0  0
   35.7090   32.5530   37.3370 H   0  0  0  0  0  0  0  0  0  0  0  0
  1  3  1  0  0  0  0
  2 12  1  0  0  0  0
  2  7  1  0  0  0  0
  3  2  2  0  0  0  0
  4  3  1  0  0  0  0
  4  5  2  0  0  0  0
  5  6  1  0  0  0  0
  6 10  1  0  0  0  0
  6  7  2  0  0  0  0
  7 11  1  0  0  0  0
  8  4  1  0  0  0  0
  9  5  1  0  0  0  0
 12 15  1  0  0  0  0
 12 13  2  0  0  0  0
 14 12  2  0  0  0  0
 15 21  1  0  0  0  0
 16 15  2  0  0  0  0
 16 17  1  0  0  0  0
 17 19  2  0  0  0  0
 18 17  1  0  0  0  0
 19 20  1  0  0  0  0
 21 20  2  0  0  0  0
 23 22  2  6  0  0  0
 23  1  1  0  0  0  0
 23 26  1  0  0  0  0
 24 25  1  0  0  0  0
 24 23  1  0  0  0  0
 27 29  1  0  0  0  0
 27 26  1  0  0  0  0
 27 31  1  0  0  0  0
 28 27  1  0  0  0  0
 30 31  2  0  0  0  0
 30 36  1  0  0  0  0
 32 38  1  0  0  0  0
 32 33  1  0  0  0  0
 33 39  1  0  0  0  0
 34 33  2  0  0  0  0
 34 40  1  0  0  0  0
 35 34  1  0  0  0  0
 36 37  1  0  0  0  0
 36 35  2  0  0  0  0
 37 32  2  0  0  0  0
M  END
>  <minimizedAffinity>
-5.78572083

$$$$

 OpenBabel03262520363D

 40 42  0  0  0  0  0  0  0  0999 V2000
   36.6000   25.9860   32.7040 O   0  0  0  0  0  0  0  0  0  0  0  0
   38.5720   25.4850   33.7820 C   0  0  0  0  0  0  0  0  0  0  0  0
   37.4360   26.3040   33.7440 C   0  0  0  0  0  0  0  0  0  0  0  0
   37.2350   27.3030   34.6780 C   0  0  0  0  0  0  0  0  0  0  0  0
   38.1710   27.4920   35.6580 C   0  0  0  0  0  0  0  0  0  0  0  0
   39.2760   26.7030   35.7050 C   0  0  0  0  0  0  0  0  0  0  0  0
   39.5220   25.6990   34.8020 C   0  0  0  0  0  0  0  0  0  0  0  0
   36.3330   27.8860   34.5740 H   0  0  0  0  0  0  0  0  0  0  0  0
   37.9230   28.2980   36.3420 H   0  0  0  0  0  0  0  0  0  0  0  0
   39.9780   26.9130   36.5150 H   0  0  0  0  0  0  0  0  0  0  0  0
   40.4060   25.0740   34.8450 H   0  0  0  0  0  0  0  0  0  0  0  0
   38.8970   24.2050   32.6400 S   0  0  0  0  0  0  0  0  0  0  0  0
   39.1160   24.7620   31.2720 O   0  0  0  0  0  0  0  0  0  0  0  0
   40.1270   23.4370   33.1180 O   0  0  0  0  0  0  0  0  0  0  0  0
   37.6230   23.0300   32.6200 C   0  0  0  0  0  0  0  0  0  0  0  0
   37.4300   22.0900   33.6350 C   0  0  0  0  0  3  0  0  0  0  0  0
   36.3780   21.1870   33.5300 C   0  0  0  0  0  0  0  0  0  0  0  0
   36.2200   20.4470   34.3200 H   0  0  0  0  0  0  0  0  0  0  0  0
   35.5490   21.2130   32.4590 N   0  0  0  0  0  0  0  0  0  0  0  0
   35.7400   22.1190   31.4880 C   0  0  0  0  0  3  0  0  0  0  0  0
   36.7460   22.9760   31.5990 N   0  0  0  0  0  0  0  0  0  0  0  0
   37.3540   27.7290   30.8710 O   0  0  0  0  0  0  0  0  0  0  0  0
   36.1500   26.9650   31.4180 P   0  0  1  0  0  0  0  0  0  0  0  0
   35.3930   26.0630   30.1950 O   0  0  0  0  0  0  0  0  0  0  0  0
   34.8410   25.3920   30.6770 H   0  0  0  0  0  0  0  0  0  0  0  0
   35.0630   28.1830   31.9210 O   0  0  0  0  0  0  0  0  0  0  0  0
   35.7630   29.4020   31.9840 C   0  0  0  0  0  0  0  0  0  0  0  0
   35.4910   29.9800   31.0810 H   0  0  0  0  0  0  0  0  0  0  0  0
   36.8620   29.2270   31.9300 H   0  0  0  0  0  0  0  0  0  0  0  0
   34.4780   29.8540   34.0370 C   0  0  0  0  0  3  0  0  0  0  0  0
   35.4450   30.1630   33.2160 C   0  0  0  0  0  3  0  0  0  0  0  0
   34.9600   32.2490   36.7640 C   0  0  0  0  0  0  0  0  0  0  0  0
   33.7410   32.1830   37.4310 C   0  0  0  0  0  0  0  0  0  0  0  0
   32.7600   31.3110   36.9350 C   0  0  0  0  0  0  0  0  0  0  0  0
   33.1100   30.5990   35.8200 N   0  0  0  0  0  0  0  0  0  0  0  0
   34.2740   30.6810   35.2070 C   0  0  0  0  0  0  0  0  0  0  0  0
   35.1820   31.5160   35.7010 N   0  0  0  0  0  0  0  0  0  0  0  0
   35.7520   32.9050   37.1040 H   0  0  0  0  0  0  0  0  0  0  0  0
   33.5500   32.7890   38.3140 H   0  0  0  0  0  0  0  0  0  0  0  0
   31.7990   31.2250   37.4160 H   0  0  0  0  0  0  0  0  0  0  0  0
  1  3  1  0  0  0  0
  2  7  1  0  0  0  0
  3  2  2  0  0  0  0
  3  4  1  0  0  0  0
  4  5  2  0  0  0  0
  5  6  1  0  0  0  0
  5  9  1  0  0  0  0
  6 10  1  0  0  0  0
  7 11  1  0  0  0  0
  7  6  2  0  0  0  0
  8  4  1  0  0  0  0
 12 14  2  0  0  0  0
 12  2  1  0  0  0  0
 13 12  2  0  0  0  0
 15 12  1  0  0  0  0
 15 16  1  0  0  0  0
 17 16  2  0  0  0  0
 17 18  1  0  0  0  0
 19 17  1  0  0  0  0
 20 21  1  0  0  0  0
 20 19  2  0  0  0  0
 21 15  2  0  0  0  0
 23 22  2  6  0  0  0
 23 26  1  0  0  0  0
 23  1  1  0  0  0  0
 24 25  1  0  0  0  0
 24 23  1  0  0  0  0
 26 27  1  0  0  0  0
 27 31  1  0  0  0  0
 28 27  1  0  0  0  0
 29 27  1  0  0  0  0
 30 36  1  0  0  0  0
 31 30  2  0  0  0  0
 32 38  1  0  0  0  0
 32 33  1  0  0  0  0
 33 39  1  0  0  0  0
 34 40  1  0  0  0  0
 34 33  2  0  0  0  0
 35 34  1  0  0  0  0
 36 37  1  0  0  0  0
 36 35  2  0  0  0  0
 37 32  2  0  0  0  0
M  END
>  <minimizedAffinity>
-5.71788216

$$$$

 OpenBabel03262520363D

 40 42  0  0  0  0  0  0  0  0999 V2000
   36.5620   26.5690   32.3970 O   0  0  0  0  0  0  0  0  0  0  0  0
   37.4780   24.6340   33.2430 C   0  0  0  0  0  0  0  0  0  0  0  0
   36.6840   25.2120   32.2450 C   0  0  0  0  0  0  0  0  0  0  0  0
   36.1140   24.4480   31.2430 C   0  0  0  0  0  0  0  0  0  0  0  0
   36.3340   23.0970   31.2340 C   0  0  0  0  0  0  0  0  0  0  0  0
   37.1030   22.5270   32.1970 C   0  0  0  0  0  0  0  0  0  0  0  0
   37.6900   23.2400   33.2120 C   0  0  0  0  0  0  0  0  0  0  0  0
   35.5170   24.9740   30.5150 H   0  0  0  0  0  0  0  0  0  0  0  0
   35.8460   22.5870   30.4100 H   0  0  0  0  0  0  0  0  0  0  0  0
   37.2340   21.4450   32.1250 H   0  0  0  0  0  0  0  0  0  0  0  0
   38.3020   22.7780   33.9780 H   0  0  0  0  0  0  0  0  0  0  0  0
   38.2300   25.5300   34.5390 S   0  0  0  0  0  0  0  0  0  0  0  0
   39.3560   26.3620   34.0210 O   0  0  0  0  0  0  0  0  0  0  0  0
   37.1660   26.4030   35.1990 O   0  0  0  0  0  0  0  0  0  0  0  0
   38.7840   24.4800   35.8030 C   0  0  0  0  0  0  0  0  0  0  0  0
   38.0340   24.1940   36.9460 C   0  0  0  0  0  3  0  0  0  0  0  0
   38.5630   23.3380   37.9060 C   0  0  0  0  0  0  0  0  0  0  0  0
   37.9840   23.1090   38.8040 H   0  0  0  0  0  0  0  0  0  0  0  0
   39.7900   22.7870   37.7400 N   0  0  0  0  0  0  0  0  0  0  0  0
   40.5040   23.0660   36.6390 C   0  0  0  0  0  3  0  0  0  0  0  0
   39.9890   23.8830   35.7300 N   0  0  0  0  0  0  0  0  0  0  0  0
   38.5640   27.8480   31.2470 O   0  0  0  0  0  0  0  0  0  0  0  0
   37.0410   27.7660   31.3230 P   0  0  1  0  0  0  0  0  0  0  0  0
   36.3650   27.5190   29.7860 O   0  0  0  0  0  0  0  0  0  0  0  0
   35.4460   27.1850   29.9620 H   0  0  0  0  0  0  0  0  0  0  0  0
   36.5560   29.3110   31.8670 O   0  0  0  0  0  0  0  0  0  0  0  0
   35.2370   29.2190   32.3490 C   0  0  0  0  0  0  0  0  0  0  0  0
   35.0460   28.1520   32.5680 H   0  0  0  0  0  0  0  0  0  0  0  0
   34.5090   29.5170   31.5600 H   0  0  0  0  0  0  0  0  0  0  0  0
   35.3380   31.3200   33.6320 C   0  0  0  0  0  3  0  0  0  0  0  0
   35.0260   30.0530   33.5560 C   0  0  0  0  0  3  0  0  0  0  0  0
   35.2170   33.8670   36.2590 C   0  0  0  0  0  0  0  0  0  0  0  0
   34.5090   33.2160   37.2650 C   0  0  0  0  0  0  0  0  0  0  0  0
   34.0780   31.9030   37.0300 C   0  0  0  0  0  0  0  0  0  0  0  0
   34.4040   31.3830   35.8070 N   0  0  0  0  0  0  0  0  0  0  0  0
   35.0780   32.0210   34.8710 C   0  0  0  0  0  0  0  0  0  0  0  0
   35.4720   33.2650   35.1240 N   0  0  0  0  0  0  0  0  0  0  0  0
   35.5740   34.8820   36.3890 H   0  0  0  0  0  0  0  0  0  0  0  0
   34.2940   33.7100   38.2110 H   0  0  0  0  0  0  0  0  0  0  0  0
   33.5250   31.3570   37.7770 H   0  0  0  0  0  0  0  0  0  0  0  0
  2 12  1  0  0  0  0
  3  1  1  0  0  0  0
  3  2  2  0  0  0  0
  4  3  1  0  0  0  0
  5  4  2  0  0  0  0
  5  6  1  0  0  0  0
  6  7  2  0  0  0  0
  7  2  1  0  0  0  0
  7 11  1  0  0  0  0
  8  4  1  0  0  0  0
  9  5  1  0  0  0  0
 10  6  1  0  0  0  0
 12 14  2  0  0  0  0
 12 15  1  0  0  0  0
 13 12  2  0  0  0  0
 15 16  1  0  0  0  0
 16 17  2  0  0  0  0
 17 18  1  0  0  0  0
 19 17  1  0  0  0  0
 20 19  2  0  0  0  0
 21 15  2  0  0  0  0
 21 20  1  0  0  0  0
 23 22  2  6  0  0  0
 23 26  1  0  0  0  0
 23  1  1  0  0  0  0
 24 25  1  0  0  0  0
 24 23  1  0  0  0  0
 26 27  1  0  0  0  0
 27 28  1  0  0  0  0
 27 31  1  0  0  0  0
 29 27  1  0  0  0  0
 30 36  1  0  0  0  0
 31 30  2  0  0  0  0
 32 38  1  0  0  0  0
 32 33  1  0  0  0  0
 33 39  1  0  0  0  0
 34 33  2  0  0  0  0
 34 40  1  0  0  0  0
 35 34  1  0  0  0  0
 36 37  1  0  0  0  0
 36 35  2  0  0  0  0
 37 32  2  0  0  0  0
M  END
>  <minimizedAffinity>
-5.7099061

$$$$

 OpenBabel03262520363D

 40 42  0  0  0  0  0  0  0  0999 V2000
   38.2700   26.0600   32.5300 O   0  0  0  0  0  0  0  0  0  0  0  0
   39.9150   25.8110   34.1220 C   0  0  0  0  0  0  0  0  0  0  0  0
   39.5300   26.4300   32.9250 C   0  0  0  0  0  0  0  0  0  0  0  0
   40.3690   27.3080   32.2640 C   0  0  0  0  0  0  0  0  0  0  0  0
   41.6020   27.5720   32.7950 C   0  0  0  0  0  0  0  0  0  0  0  0
   41.9850   26.9780   33.9550 C   0  0  0  0  0  0  0  0  0  0  0  0
   41.1910   26.1010   34.6490 C   0  0  0  0  0  0  0  0  0  0  0  0
   39.9930   27.7390   31.3500 H   0  0  0  0  0  0  0  0  0  0  0  0
   42.1850   28.2720   32.2040 H   0  0  0  0  0  0  0  0  0  0  0  0
   42.9820   27.2370   34.3170 H   0  0  0  0  0  0  0  0  0  0  0  0
   41.5030   25.6300   35.5730 H   0  0  0  0  0  0  0  0  0  0  0  0
   38.9140   24.6940   35.0140 S   0  0  0  0  0  0  0  0  0  0  0  0
   38.0810   25.4180   36.0190 O   0  0  0  0  0  0  0  0  0  0  0  0
   38.0350   23.9390   34.0200 O   0  0  0  0  0  0  0  0  0  0  0  0
   39.8620   23.4650   35.7860 C   0  0  0  0  0  0  0  0  0  0  0  0
   40.7650   22.6480   35.1000 C   0  0  0  0  0  3  0  0  0  0  0  0
   41.4820   21.6890   35.8060 C   0  0  0  0  0  0  0  0  0  0  0  0
   42.1900   21.0450   35.2780 H   0  0  0  0  0  0  0  0  0  0  0  0
   41.3110   21.5440   37.1430 N   0  0  0  0  0  0  0  0  0  0  0  0
   40.4430   22.3320   37.7960 C   0  0  0  0  0  3  0  0  0  0  0  0
   39.7650   23.2430   37.1110 N   0  0  0  0  0  0  0  0  0  0  0  0
   37.0860   28.3890   32.1630 O   0  0  0  0  0  0  0  0  0  0  0  0
   37.1730   26.9590   31.6350 P   0  0  1  0  0  0  0  0  0  0  0  0
   37.5650   26.9420   29.9840 O   0  0  0  0  0  0  0  0  0  0  0  0
   37.8890   26.0190   29.8080 H   0  0  0  0  0  0  0  0  0  0  0  0
   35.5880   26.3440   31.8050 O   0  0  0  0  0  0  0  0  0  0  0  0
   35.3780   25.3790   30.8020 C   0  0  0  0  0  0  0  0  0  0  0  0
   36.2240   25.4550   30.0950 H   0  0  0  0  0  0  0  0  0  0  0  0
   34.4550   25.6130   30.2210 H   0  0  0  0  0  0  0  0  0  0  0  0
   36.1620   23.0710   31.1620 C   0  0  0  0  0  3  0  0  0  0  0  0
   35.2750   24.0100   31.3610 C   0  0  0  0  0  3  0  0  0  0  0  0
   35.5910   20.3830   33.5810 C   0  0  0  0  0  0  0  0  0  0  0  0
   35.5310   19.2600   32.7610 C   0  0  0  0  0  0  0  0  0  0  0  0
   35.6880   19.4380   31.3790 C   0  0  0  0  0  0  0  0  0  0  0  0
   35.8880   20.7280   30.9680 N   0  0  0  0  0  0  0  0  0  0  0  0
   35.9410   21.7750   31.7660 C   0  0  0  0  0  0  0  0  0  0  0  0
   35.7880   21.5730   33.0710 N   0  0  0  0  0  0  0  0  0  0  0  0
   35.4760   20.3010   34.6550 H   0  0  0  0  0  0  0  0  0  0  0  0
   35.3670   18.2680   33.1780 H   0  0  0  0  0  0  0  0  0  0  0  0
   35.6480   18.6000   30.7020 H   0  0  0  0  0  0  0  0  0  0  0  0
  1  3  1  0  0  0  0
  2  7  1  0  0  0  0
  2 12  1  0  0  0  0
  3  2  2  0  0  0  0
  4  5  2  0  0  0  0
  4  3  1  0  0  0  0
  5  6  1  0  0  0  0
  6 10  1  0  0  0  0
  6  7  2  0  0  0  0
  7 11  1  0  0  0  0
  8  4  1  0  0  0  0
  9  5  1  0  0  0  0
 12 15  1  0  0  0  0
 12 13  2  0  0  0  0
 14 12  2  0  0  0  0
 15 21  1  0  0  0  0
 16 15  2  0  0  0  0
 16 17  1  0  0  0  0
 17 19  2  0  0  0  0
 18 17  1  0  0  0  0
 19 20  1  0  0  0  0
 21 20  2  0  0  0  0
 23 26  1  0  0  0  0
 23 22  2  1  0  0  0
 23  1  1  0  0  0  0
 24 23  1  0  0  0  0
 25 24  1  0  0  0  0
 27 31  1  0  0  0  0
 27 26  1  0  0  0  0
 28 27  1  0  0  0  0
 29 27  1  0  0  0  0
 30 31  2  0  0  0  0
 30 36  1  0  0  0  0
 32 38  1  0  0  0  0
 33 39  1  0  0  0  0
 33 32  2  0  0  0  0
 34 33  1  0  0  0  0
 35 34  2  0  0  0  0
 35 36  1  0  0  0  0
 36 37  2  0  0  0  0
 37 32  1  0  0  0  0
 40 34  1  0  0  0  0
M  END
>  <minimizedAffinity>
-5.59347343

$$$$

 OpenBabel03262520363D

 40 42  0  0  0  0  0  0  0  0999 V2000
   38.9840   26.7830   31.7050 O   0  0  0  0  0  0  0  0  0  0  0  0
   37.3350   27.4690   33.1580 C   0  0  0  0  0  0  0  0  0  0  0  0
   38.6610   27.0420   33.0120 C   0  0  0  0  0  0  0  0  0  0  0  0
   39.5030   26.9160   34.1020 C   0  0  0  0  0  0  0  0  0  0  0  0
   39.0220   27.2160   35.3480 C   0  0  0  0  0  0  0  0  0  0  0  0
   37.7380   27.6300   35.5000 C   0  0  0  0  0  0  0  0  0  0  0  0
   36.8640   27.7710   34.4520 C   0  0  0  0  0  0  0  0  0  0  0  0
   40.5080   26.5820   33.8990 H   0  0  0  0  0  0  0  0  0  0  0  0
   39.7570   27.0860   36.1360 H   0  0  0  0  0  0  0  0  0  0  0  0
   37.4260   27.8510   36.5230 H   0  0  0  0  0  0  0  0  0  0  0  0
   35.8400   28.1020   34.5810 H   0  0  0  0  0  0  0  0  0  0  0  0
   36.2120   27.6520   31.8330 S   0  0  0  0  0  0  0  0  0  0  0  0
   35.9420   26.3340   31.1850 O   0  0  0  0  0  0  0  0  0  0  0  0
   34.9250   28.2660   32.3770 O   0  0  0  0  0  0  0  0  0  0  0  0
   36.7870   28.7950   30.6640 C   0  0  0  0  0  0  0  0  0  0  0  0
   36.8030   30.1750   30.8840 C   0  0  0  0  0  3  0  0  0  0  0  0
   37.2830   31.0140   29.8850 C   0  0  0  0  0  0  0  0  0  0  0  0
   37.2980   32.0950   30.0480 H   0  0  0  0  0  0  0  0  0  0  0  0
   37.7310   30.5060   28.7120 N   0  0  0  0  0  0  0  0  0  0  0  0
   37.7140   29.1800   28.5080 C   0  0  0  0  0  3  0  0  0  0  0  0
   37.2540   28.3890   29.4680 N   0  0  0  0  0  0  0  0  0  0  0  0
   39.1530   25.2760   29.5460 O   0  0  0  0  0  0  0  0  0  0  0  0
   39.4650   25.3200   31.0400 P   0  0  1  0  0  0  0  0  0  0  0  0
   41.1110   25.0250   31.3280 O   0  0  0  0  0  0  0  0  0  0  0  0
   41.2740   25.3630   32.2480 H   0  0  0  0  0  0  0  0  0  0  0  0
   38.5750   24.0210   31.7010 O   0  0  0  0  0  0  0  0  0  0  0  0
   39.4810   23.1050   32.2670 C   0  0  0  0  0  0  0  0  0  0  0  0
   40.4860   23.3650   31.8860 H   0  0  0  0  0  0  0  0  0  0  0  0
   39.2650   22.0700   31.9140 H   0  0  0  0  0  0  0  0  0  0  0  0
   38.4310   23.5490   34.4510 C   0  0  0  0  0  3  0  0  0  0  0  0
   39.4520   23.1360   33.7490 C   0  0  0  0  0  3  0  0  0  0  0  0
   37.7700   24.0390   38.0180 C   0  0  0  0  0  0  0  0  0  0  0  0
   38.8600   23.4040   38.6070 C   0  0  0  0  0  0  0  0  0  0  0  0
   39.8150   22.8120   37.7690 C   0  0  0  0  0  0  0  0  0  0  0  0
   39.5730   22.9190   36.4270 N   0  0  0  0  0  0  0  0  0  0  0  0
   38.5320   23.5280   35.8940 C   0  0  0  0  0  0  0  0  0  0  0  0
   37.6440   24.0790   36.7160 N   0  0  0  0  0  0  0  0  0  0  0  0
   37.0030   24.5130   38.6200 H   0  0  0  0  0  0  0  0  0  0  0  0
   38.9710   23.3670   39.6890 H   0  0  0  0  0  0  0  0  0  0  0  0
   40.6760   22.3070   38.1770 H   0  0  0  0  0  0  0  0  0  0  0  0
  1  3  1  0  0  0  0
  2  7  1  0  0  0  0
  3  2  2  0  0  0  0
  3  4  1  0  0  0  0
  4  5  2  0  0  0  0
  5  6  1  0  0  0  0
  5  9  1  0  0  0  0
  6 10  1  0  0  0  0
  7 11  1  0  0  0  0
  7  6  2  0  0  0  0
  8  4  1  0  0  0  0
 12 14  2  0  0  0  0
 12  2  1  0  0  0  0
 13 12  2  0  0  0  0
 15 16  1  0  0  0  0
 15 12  1  0  0  0  0
 17 18  1  0  0  0  0
 17 16  2  0  0  0  0
 19 17  1  0  0  0  0
 20 19  2  0  0  0  0
 20 21  1  0  0  0  0
 21 15  2  0  0  0  0
 23 22  2  6  0  0  0
 23 24  1  0  0  0  0
 23 26  1  0  0  0  0
 23  1  1  0  0  0  0
 24 25  1  0  0  0  0
 26 27  1  0  0  0  0
 27 31  1  0  0  0  0
 28 27  1  0  0  0  0
 29 27  1  0  0  0  0
 30 36  1  0  0  0  0
 31 30  2  0  0  0  0
 32 33  1  0  0  0  0
 32 38  1  0  0  0  0
 33 39  1  0  0  0  0
 34 40  1  0  0  0  0
 34 33  2  0  0  0  0
 35 34  1  0  0  0  0
 36 35  2  0  0  0  0
 36 37  1  0  0  0  0
 37 32  2  0  0  0  0
M  END
>  <minimizedAffinity>
-5.58710337

$$$$

 OpenBabel03262520363D

 40 42  0  0  0  0  0  0  0  0999 V2000
   38.5500   25.0550   32.6370 O   0  0  0  0  0  0  0  0  0  0  0  0
   37.9170   22.8410   32.6530 C   0  0  0  0  0  0  0  0  0  0  0  0
   37.5900   24.1480   32.2680 C   0  0  0  0  0  0  0  0  0  0  0  0
   36.4160   24.4290   31.5930 C   0  0  0  0  0  0  0  0  0  0  0  0
   35.5590   23.4030   31.2990 C   0  0  0  0  0  0  0  0  0  0  0  0
   35.8680   22.1330   31.6670 C   0  0  0  0  0  0  0  0  0  0  0  0
   37.0180   21.8020   32.3370 C   0  0  0  0  0  0  0  0  0  0  0  0
   36.2430   25.4620   31.3360 H   0  0  0  0  0  0  0  0  0  0  0  0
   34.6680   23.7250   30.7690 H   0  0  0  0  0  0  0  0  0  0  0  0
   35.1360   21.3680   31.3980 H   0  0  0  0  0  0  0  0  0  0  0  0
   37.2570   20.7850   32.6280 H   0  0  0  0  0  0  0  0  0  0  0  0
   39.3770   22.4070   33.5060 S   0  0  0  0  0  0  0  0  0  0  0  0
   39.7270   20.9770   33.2580 O   0  0  0  0  0  0  0  0  0  0  0  0
   40.4980   23.3310   33.0390 O   0  0  0  0  0  0  0  0  0  0  0  0
   39.2360   22.7100   35.2070 C   0  0  0  0  0  0  0  0  0  0  0  0
   38.1360   23.3490   35.7840 C   0  0  0  0  0  3  0  0  0  0  0  0
   38.1120   23.5480   37.1590 C   0  0  0  0  0  0  0  0  0  0  0  0
   37.2560   24.0480   37.6190 H   0  0  0  0  0  0  0  0  0  0  0  0
   39.1400   23.1280   37.9360 N   0  0  0  0  0  0  0  0  0  0  0  0
   40.1940   22.5140   37.3760 C   0  0  0  0  0  3  0  0  0  0  0  0
   40.2050   22.3300   36.0620 N   0  0  0  0  0  0  0  0  0  0  0  0
   39.1080   27.0950   34.2160 O   0  0  0  0  0  0  0  0  0  0  0  0
   38.3450   26.6890   32.9570 P   0  0  1  0  0  0  0  0  0  0  0  0
   38.8090   27.6390   31.6290 O   0  0  0  0  0  0  0  0  0  0  0  0
   38.5080   27.1280   30.8320 H   0  0  0  0  0  0  0  0  0  0  0  0
   36.7130   27.0470   33.3130 O   0  0  0  0  0  0  0  0  0  0  0  0
   36.4860   28.4080   33.0350 C   0  0  0  0  0  0  0  0  0  0  0  0
   35.9250   28.4560   32.0840 H   0  0  0  0  0  0  0  0  0  0  0  0
   37.4510   28.9380   32.8610 H   0  0  0  0  0  0  0  0  0  0  0  0
   35.3030   30.3110   34.0590 C   0  0  0  0  0  3  0  0  0  0  0  0
   35.7430   29.0820   34.1260 C   0  0  0  0  0  3  0  0  0  0  0  0
   32.7200   31.0550   36.5450 C   0  0  0  0  0  0  0  0  0  0  0  0
   33.3720   31.9550   37.3830 C   0  0  0  0  0  0  0  0  0  0  0  0
   34.6980   32.3000   37.0840 C   0  0  0  0  0  0  0  0  0  0  0  0
   35.2290   31.7010   35.9740 N   0  0  0  0  0  0  0  0  0  0  0  0
   34.5890   30.8510   35.1960 C   0  0  0  0  0  0  0  0  0  0  0  0
   33.3330   30.5450   35.5070 N   0  0  0  0  0  0  0  0  0  0  0  0
   31.6960   30.7550   36.7310 H   0  0  0  0  0  0  0  0  0  0  0  0
   32.8690   32.3830   38.2480 H   0  0  0  0  0  0  0  0  0  0  0  0
   35.2450   32.9920   37.7030 H   0  0  0  0  0  0  0  0  0  0  0  0
  1 23  1  0  0  0  0
  2 12  1  0  0  0  0
  3  1  1  0  0  0  0
  3  2  2  0  0  0  0
  4  3  1  0  0  0  0
  5  4  2  0  0  0  0
  5  6  1  0  0  0  0
  6  7  2  0  0  0  0
  7 11  1  0  0  0  0
  7  2  1  0  0  0  0
  8  4  1  0  0  0  0
  9  5  1  0  0  0  0
 10  6  1  0  0  0  0
 12 15  1  0  0  0  0
 13 12  2  0  0  0  0
 14 12  2  0  0  0  0
 15 16  2  0  0  0  0
 15 21  1  0  0  0  0
 16 17  1  0  0  0  0
 17 18  1  0  0  0  0
 17 19  2  0  0  0  0
 20 19  1  0  0  0  0
 21 20  2  0  0  0  0
 23 26  1  0  0  0  0
 23 22  2  1  0  0  0
 24 23  1  0  0  0  0
 25 24  1  0  0  0  0
 27 26  1  0  0  0  0
 27 31  1  0  0  0  0
 28 27  1  0  0  0  0
 29 27  1  0  0  0  0
 30 31  2  0  0  0  0
 30 36  1  0  0  0  0
 32 38  1  0  0  0  0
 32 33  1  0  0  0  0
 33 39  1  0  0  0  0
 34 33  2  0  0  0  0
 34 40  1  0  0  0  0
 35 34  1  0  0  0  0
 36 37  1  0  0  0  0
 36 35  2  0  0  0  0
 37 32  2  0  0  0  0
M  END
>  <minimizedAffinity>
-5.46395922

$$$$

 OpenBabel03262520363D

 40 42  0  0  0  0  0  0  0  0999 V2000
   38.4540   24.4440   34.8170 O   0  0  0  0  0  0  0  0  0  0  0  0
   39.6260   23.2660   36.4100 C   0  0  0  0  0  0  0  0  0  0  0  0
   38.5530   24.1270   36.1470 C   0  0  0  0  0  0  0  0  0  0  0  0
   37.7200   24.5720   37.1590 C   0  0  0  0  0  0  0  0  0  0  0  0
   37.9580   24.1590   38.4410 C   0  0  0  0  0  0  0  0  0  0  0  0
   38.9960   23.3240   38.7070 C   0  0  0  0  0  0  0  0  0  0  0  0
   39.8490   22.8540   37.7400 C   0  0  0  0  0  0  0  0  0  0  0  0
   36.9190   25.2320   36.8680 H   0  0  0  0  0  0  0  0  0  0  0  0
   37.2520   24.5610   39.1610 H   0  0  0  0  0  0  0  0  0  0  0  0
   39.1220   23.0380   39.7530 H   0  0  0  0  0  0  0  0  0  0  0  0
   40.6760   22.1880   37.9600 H   0  0  0  0  0  0  0  0  0  0  0  0
   40.7190   22.6610   35.1910 S   0  0  0  0  0  0  0  0  0  0  0  0
   41.6960   21.7020   35.7860 O   0  0  0  0  0  0  0  0  0  0  0  0
   39.8930   21.9890   34.0970 O   0  0  0  0  0  0  0  0  0  0  0  0
   41.5520   23.9510   34.3850 C   0  0  0  0  0  0  0  0  0  0  0  0
   42.3670   24.8710   35.0490 C   0  0  0  0  0  3  0  0  0  0  0  0
   42.9950   25.8720   34.3170 C   0  0  0  0  0  0  0  0  0  0  0  0
   43.6340   26.5960   34.8280 H   0  0  0  0  0  0  0  0  0  0  0  0
   42.8210   25.9590   32.9760 N   0  0  0  0  0  0  0  0  0  0  0  0
   42.0370   25.0720   32.3440 C   0  0  0  0  0  3  0  0  0  0  0  0
   41.4440   24.1210   33.0530 N   0  0  0  0  0  0  0  0  0  0  0  0
   36.9080   26.5690   34.5740 O   0  0  0  0  0  0  0  0  0  0  0  0
   38.2420   25.9650   34.1410 P   0  0  1  0  0  0  0  0  0  0  0  0
   39.5330   26.9960   34.5300 O   0  0  0  0  0  0  0  0  0  0  0  0
   40.3400   26.4180   34.4970 H   0  0  0  0  0  0  0  0  0  0  0  0
   38.1380   25.8730   32.4390 O   0  0  0  0  0  0  0  0  0  0  0  0
   36.8400   25.4510   32.0960 C   0  0  0  0  0  0  0  0  0  0  0  0
   36.5730   25.9550   31.1490 H   0  0  0  0  0  0  0  0  0  0  0  0
   36.1020   25.7950   32.8580 H   0  0  0  0  0  0  0  0  0  0  0  0
   35.6490   23.3330   31.6870 C   0  0  0  0  0  3  0  0  0  0  0  0
   36.7530   23.9780   31.9560 C   0  0  0  0  0  3  0  0  0  0  0  0
   34.9030   19.7630   32.0090 C   0  0  0  0  0  0  0  0  0  0  0  0
   35.9330   19.1820   31.2750 C   0  0  0  0  0  0  0  0  0  0  0  0
   36.8780   20.0260   30.6750 C   0  0  0  0  0  0  0  0  0  0  0  0
   36.6870   21.3660   30.8750 N   0  0  0  0  0  0  0  0  0  0  0  0
   35.7020   21.8910   31.5760 C   0  0  0  0  0  0  0  0  0  0  0  0
   34.8220   21.0640   32.1320 N   0  0  0  0  0  0  0  0  0  0  0  0
   34.1470   19.1570   32.4930 H   0  0  0  0  0  0  0  0  0  0  0  0
   36.0070   18.1010   31.1690 H   0  0  0  0  0  0  0  0  0  0  0  0
   37.6940   19.6240   30.0960 H   0  0  0  0  0  0  0  0  0  0  0  0
  1  3  1  0  0  0  0
  2  7  1  0  0  0  0
  3  2  2  0  0  0  0
  3  4  1  0  0  0  0
  4  5  2  0  0  0  0
  5  6  1  0  0  0  0
  5  9  1  0  0  0  0
  6 10  1  0  0  0  0
  7 11  1  0  0  0  0
  7  6  2  0  0  0  0
  8  4  1  0  0  0  0
 12 13  2  0  0  0  0
 12  2  1  0  0  0  0
 14 12  2  0  0  0  0
 15 16  1  0  0  0  0
 15 12  1  0  0  0  0
 17 18  1  0  0  0  0
 17 16  2  0  0  0  0
 19 17  1  0  0  0  0
 20 19  2  0  0  0  0
 20 21  1  0  0  0  0
 21 15  2  0  0  0  0
 23 24  1  0  0  0  0
 23 22  2  1  0  0  0
 23  1  1  0  0  0  0
 25 24  1  0  0  0  0
 26 23  1  0  0  0  0
 27 26  1  0  0  0  0
 27 29  1  0  0  0  0
 28 27  1  0  0  0  0
 30 31  2  0  0  0  0
 31 27  1  0  0  0  0
 32 37  1  0  0  0  0
 32 38  1  0  0  0  0
 33 32  2  0  0  0  0
 34 35  2  0  0  0  0
 34 33  1  0  0  0  0
 35 36  1  0  0  0  0
 36 30  1  0  0  0  0
 36 37  2  0  0  0  0
 39 33  1  0  0  0  0
 40 34  1  0  0  0  0
M  END
>  <minimizedAffinity>
-5.45580864

$$$$

 OpenBabel03262520363D

 40 42  0  0  0  0  0  0  0  0999 V2000
   37.6750   25.2700   35.2630 O   0  0  0  0  0  0  0  0  0  0  0  0
   39.1040   23.5550   35.8250 C   0  0  0  0  0  0  0  0  0  0  0  0
   38.2040   24.5260   36.2850 C   0  0  0  0  0  0  0  0  0  0  0  0
   37.9220   24.6680   37.6320 C   0  0  0  0  0  0  0  0  0  0  0  0
   38.5400   23.8390   38.5290 C   0  0  0  0  0  0  0  0  0  0  0  0
   39.4130   22.8950   38.0930 C   0  0  0  0  0  0  0  0  0  0  0  0
   39.7270   22.7130   36.7700 C   0  0  0  0  0  0  0  0  0  0  0  0
   37.2180   25.4400   37.8970 H   0  0  0  0  0  0  0  0  0  0  0  0
   38.2530   24.0290   39.5580 H   0  0  0  0  0  0  0  0  0  0  0  0
   39.8660   22.2720   38.8670 H   0  0  0  0  0  0  0  0  0  0  0  0
   40.4250   21.9580   36.4300 H   0  0  0  0  0  0  0  0  0  0  0  0
   39.5120   23.3140   34.1450 S   0  0  0  0  0  0  0  0  0  0  0  0
   40.2790   24.4800   33.6160 O   0  0  0  0  0  0  0  0  0  0  0  0
   40.3270   22.0280   34.0290 O   0  0  0  0  0  0  0  0  0  0  0  0
   38.1000   23.0290   33.1800 C   0  0  0  0  0  0  0  0  0  0  0  0
   37.7180   23.8530   32.1180 C   0  0  0  0  0  3  0  0  0  0  0  0
   36.5680   23.5440   31.4010 C   0  0  0  0  0  0  0  0  0  0  0  0
   36.2610   24.1830   30.5690 H   0  0  0  0  0  0  0  0  0  0  0  0
   35.8230   22.4580   31.7240 N   0  0  0  0  0  0  0  0  0  0  0  0
   36.1970   21.6710   32.7440 C   0  0  0  0  0  3  0  0  0  0  0  0
   37.2960   21.9760   33.4210 N   0  0  0  0  0  0  0  0  0  0  0  0
   36.4920   27.5980   34.8840 O   0  0  0  0  0  0  0  0  0  0  0  0
   37.8540   26.9170   34.9970 P   0  0  1  0  0  0  0  0  0  0  0  0
   38.7970   27.6370   36.2100 O   0  0  0  0  0  0  0  0  0  0  0  0
   39.5030   26.9680   36.4150 H   0  0  0  0  0  0  0  0  0  0  0  0
   38.6090   27.2200   33.4950 O   0  0  0  0  0  0  0  0  0  0  0  0
   37.6250   27.6380   32.5800 C   0  0  0  0  0  0  0  0  0  0  0  0
   37.4200   28.7040   32.7870 H   0  0  0  0  0  0  0  0  0  0  0  0
   36.6700   27.0900   32.7550 H   0  0  0  0  0  0  0  0  0  0  0  0
   39.2360   27.0090   30.8240 C   0  0  0  0  0  3  0  0  0  0  0  0
   38.0540   27.4440   31.1750 C   0  0  0  0  0  3  0  0  0  0  0  0
   39.8350   27.7010   27.2790 C   0  0  0  0  0  0  0  0  0  0  0  0
   40.0960   26.4300   26.7740 C   0  0  0  0  0  0  0  0  0  0  0  0
   40.0630   25.3440   27.6600 C   0  0  0  0  0  0  0  0  0  0  0  0
   39.7720   25.6510   28.9610 N   0  0  0  0  0  0  0  0  0  0  0  0
   39.5280   26.8640   29.4140 C   0  0  0  0  0  0  0  0  0  0  0  0
   39.5670   27.8720   28.5500 N   0  0  0  0  0  0  0  0  0  0  0  0
   39.8470   28.5740   26.6380 H   0  0  0  0  0  0  0  0  0  0  0  0
   40.3190   26.2800   25.7190 H   0  0  0  0  0  0  0  0  0  0  0  0
   40.2590   24.3410   27.3170 H   0  0  0  0  0  0  0  0  0  0  0  0
  1  3  1  0  0  0  0
  2  3  2  0  0  0  0
  2  7  1  0  0  0  0
  3  4  1  0  0  0  0
  4  8  1  0  0  0  0
  4  5  2  0  0  0  0
  5  9  1  0  0  0  0
  6  5  1  0  0  0  0
  6 10  1  0  0  0  0
  7  6  2  0  0  0  0
 11  7  1  0  0  0  0
 12  2  1  0  0  0  0
 13 12  2  0  0  0  0
 14 12  2  0  0  0  0
 15 21  1  0  0  0  0
 15 12  1  0  0  0  0
 16 15  2  0  0  0  0
 17 19  2  0  0  0  0
 17 16  1  0  0  0  0
 18 17  1  0  0  0  0
 19 20  1  0  0  0  0
 20 21  2  0  0  0  0
 23 22  2  6  0  0  0
 23  1  1  0  0  0  0
 23 24  1  0  0  0  0
 24 25  1  0  0  0  0
 26 23  1  0  0  0  0
 27 29  1  0  0  0  0
 27 28  1  0  0  0  0
 27 26  1  0  0  0  0
 30 31  2  0  0  0  0
 31 27  1  0  0  0  0
 32 37  1  0  0  0  0
 33 32  2  0  0  0  0
 33 34  1  0  0  0  0
 34 35  2  0  0  0  0
 35 36  1  0  0  0  0
 36 30  1  0  0  0  0
 37 36  2  0  0  0  0
 38 32  1  0  0  0  0
 39 33  1  0  0  0  0
 40 34  1  0  0  0  0
M  END
>  <minimizedAffinity>
-5.43598604

$$$$

 OpenBabel03262520363D

 40 42  0  0  0  0  0  0  0  0999 V2000
   36.8450   25.8630   32.1460 O   0  0  0  0  0  0  0  0  0  0  0  0
   37.5940   24.0320   33.3230 C   0  0  0  0  0  0  0  0  0  0  0  0
   36.8440   24.4950   32.2340 C   0  0  0  0  0  0  0  0  0  0  0  0
   36.1980   23.6210   31.3790 C   0  0  0  0  0  0  0  0  0  0  0  0
   36.2980   22.2750   31.6080 C   0  0  0  0  0  0  0  0  0  0  0  0
   37.0230   21.8160   32.6610 C   0  0  0  0  0  0  0  0  0  0  0  0
   37.6820   22.6410   33.5370 C   0  0  0  0  0  0  0  0  0  0  0  0
   35.6420   24.0630   30.5670 H   0  0  0  0  0  0  0  0  0  0  0  0
   35.7570   21.6740   30.8840 H   0  0  0  0  0  0  0  0  0  0  0  0
   37.0570   20.7310   32.7790 H   0  0  0  0  0  0  0  0  0  0  0  0
   38.2590   22.2670   34.3750 H   0  0  0  0  0  0  0  0  0  0  0  0
   38.4370   25.0700   34.4460 S   0  0  0  0  0  0  0  0  0  0  0  0
   39.7360   25.5270   33.8680 O   0  0  0  0  0  0  0  0  0  0  0  0
   37.5360   26.2590   34.7670 O   0  0  0  0  0  0  0  0  0  0  0  0
   38.6940   24.2860   35.9700 C   0  0  0  0  0  0  0  0  0  0  0  0
   39.7870   23.4570   36.2320 C   0  0  0  0  0  3  0  0  0  0  0  0
   39.9080   22.8710   37.4870 C   0  0  0  0  0  0  0  0  0  0  0  0
   40.7600   22.2200   37.7000 H   0  0  0  0  0  0  0  0  0  0  0  0
   38.9800   23.0990   38.4480 N   0  0  0  0  0  0  0  0  0  0  0  0
   37.9320   23.8970   38.1900 C   0  0  0  0  0  3  0  0  0  0  0  0
   37.8280   24.4500   36.9890 N   0  0  0  0  0  0  0  0  0  0  0  0
   38.6270   27.7570   31.7020 O   0  0  0  0  0  0  0  0  0  0  0  0
   37.6400   26.8150   31.0170 P   0  0  1  0  0  0  0  0  0  0  0  0
   38.4180   25.8610   29.8480 O   0  0  0  0  0  0  0  0  0  0  0  0
   37.7970   25.1040   29.6820 H   0  0  0  0  0  0  0  0  0  0  0  0
   36.5510   27.8520   30.2080 O   0  0  0  0  0  0  0  0  0  0  0  0
   36.7650   29.1650   30.6660 C   0  0  0  0  0  0  0  0  0  0  0  0
   36.9430   29.7950   29.7750 H   0  0  0  0  0  0  0  0  0  0  0  0
   37.6920   29.2180   31.2830 H   0  0  0  0  0  0  0  0  0  0  0  0
   34.9710   28.9660   32.3430 C   0  0  0  0  0  3  0  0  0  0  0  0
   35.6180   29.6740   31.4550 C   0  0  0  0  0  3  0  0  0  0  0  0
   32.9590   31.1720   34.4620 C   0  0  0  0  0  0  0  0  0  0  0  0
   31.6820   30.6410   34.3070 C   0  0  0  0  0  0  0  0  0  0  0  0
   31.5240   29.5260   33.4730 C   0  0  0  0  0  0  0  0  0  0  0  0
   32.6670   29.0620   32.8810 N   0  0  0  0  0  0  0  0  0  0  0  0
   33.8660   29.5840   33.0450 C   0  0  0  0  0  0  0  0  0  0  0  0
   33.9830   30.6410   33.8420 N   0  0  0  0  0  0  0  0  0  0  0  0
   33.1370   32.0340   35.0950 H   0  0  0  0  0  0  0  0  0  0  0  0
   30.8260   31.0780   34.8190 H   0  0  0  0  0  0  0  0  0  0  0  0
   30.5540   29.0790   33.3200 H   0  0  0  0  0  0  0  0  0  0  0  0
  1  3  1  0  0  0  0
  2  7  1  0  0  0  0
  2 12  1  0  0  0  0
  3  2  2  0  0  0  0
  4  5  2  0  0  0  0
  4  3  1  0  0  0  0
  5  6  1  0  0  0  0
  6 10  1  0  0  0  0
  6  7  2  0  0  0  0
  7 11  1  0  0  0  0
  8  4  1  0  0  0  0
  9  5  1  0  0  0  0
 12 14  2  0  0  0  0
 12 15  1  0  0  0  0
 13 12  2  0  0  0  0
 15 16  2  0  0  0  0
 15 21  1  0  0  0  0
 16 17  1  0  0  0  0
 17 18  1  0  0  0  0
 17 19  2  0  0  0  0
 20 19  1  0  0  0  0
 21 20  2  0  0  0  0
 23 22  2  1  0  0  0
 23  1  1  0  0  0  0
 24 23  1  0  0  0  0
 25 24  1  0  0  0  0
 26 27  1  0  0  0  0
 26 23  1  0  0  0  0
 27 29  1  0  0  0  0
 27 31  1  0  0  0  0
 28 27  1  0  0  0  0
 30 36  1  0  0  0  0
 31 30  2  0  0  0  0
 32 38  1  0  0  0  0
 33 32  1  0  0  0  0
 33 39  1  0  0  0  0
 34 33  2  0  0  0  0
 35 36  2  0  0  0  0
 35 34  1  0  0  0  0
 36 37  1  0  0  0  0
 37 32  2  0  0  0  0
 40 34  1  0  0  0  0
M  END
>  <minimizedAffinity>
-5.40878153

$$$$
