
     RDKit          3D

 30 31  0  0  0  0  0  0  0  0999 V2000
   39.5823   32.8728   46.2909 N   0  0  0  0  0  0  0  0  0  0  0  0
   38.2683   32.3539   46.0651 C   0  0  1  0  0  0  0  0  0  0  0  0
   37.9393   32.3970   44.6028 C   0  0  0  0  0  0  0  0  0  0  0  0
   38.9393   31.5862   43.9112 N   0  0  0  0  0  0  0  0  0  0  0  0
   40.1831   32.3584   44.0195 C   0  0  0  0  0  0  0  0  0  0  0  0
   40.5958   32.2732   45.4875 C   0  0  2  0  0  0  0  0  0  0  0  0
   40.8434   30.8848   45.8096 N   0  0  0  0  0  0  0  0  0  0  0  0
   38.1206   30.5985   46.5689 S   0  0  0  0  0  0  0  0  0  0  0  0
   37.8974   30.9238   50.6111 C   0  0  0  0  0  0  0  0  0  0  0  0
   38.3608   31.0762   49.3123 C   0  0  0  0  0  0  0  0  0  0  0  0
   37.6555   30.4928   48.2766 C   0  0  0  0  0  0  0  0  0  0  0  0
   36.5120   29.7795   48.5915 N   0  0  0  0  0  0  0  0  0  0  0  0
   36.1254   29.6738   49.8592 C   0  0  0  0  0  0  0  0  0  0  0  0
   36.7887   30.2268   50.8701 N   0  0  0  0  0  0  0  0  0  0  0  0
   34.9077   28.9095   50.1526 C   0  0  0  0  0  0  0  0  0  0  0  0
   34.4891   27.9679   49.4502 O   0  0  0  0  0  0  0  0  0  0  0  0
   39.8464   33.0596   47.2587 H   0  0  0  0  0  0  0  0  0  0  0  0
   37.5614   32.9708   46.6490 H   0  0  0  0  0  0  0  0  0  0  0  0
   37.8944   33.4268   44.2040 H   0  0  0  0  0  0  0  0  0  0  0  0
   36.9214   31.9538   44.4691 H   0  0  0  0  0  0  0  0  0  0  0  0
   38.6551   31.6121   42.9058 H   0  0  0  0  0  0  0  0  0  0  0  0
   40.9520   31.8959   43.4015 H   0  0  0  0  0  0  0  0  0  0  0  0
   39.9874   33.4100   43.7398 H   0  0  0  0  0  0  0  0  0  0  0  0
   41.5244   32.8499   45.5658 H   0  0  0  0  0  0  0  0  0  0  0  0
   40.2953   30.2132   45.2507 H   0  0  0  0  0  0  0  0  0  0  0  0
   40.8358   30.7283   46.8334 H   0  0  0  0  0  0  0  0  0  0  0  0
   38.4484   31.3813   51.4346 H   0  0  0  0  0  0  0  0  0  0  0  0
   39.2387   31.6254   49.0845 H   0  0  0  0  0  0  0  0  0  0  0  0
   34.0890   29.1531   51.2462 O   0  0  0  0  0  0  0  0  0  0  0  0
   33.1317   29.5256   51.1475 H   0  0  0  0  0  0  0  0  0  0  0  0
  2  1  1  0
  2  8  1  0
  3  2  1  0
  4  5  1  0
  4  3  1  0
  5  6  1  0
  6  7  1  0
  6  1  1  0
  8 11  1  0
  9 14  2  0
 10  9  1  0
 11 12  1  0
 11 10  2  0
 12 13  2  0
 13 15  1  0
 13 14  1  0
 16 15  2  0
  1 17  1  0
  2 18  1  1
  3 19  1  0
  3 20  1  0
  4 21  1  0
  5 22  1  0
  5 23  1  0
  6 24  1  6
  7 25  1  0
  7 26  1  0
  9 27  1  0
 10 28  1  0
 29 30  1  0
 15 29  1  0
M  ISO  8  17   5  18  13  19  13  20  13  21   5  22  13  23  13  24  13
M  ISO  5  25   5  26   5  27  14  28  14  30   3
M  END
>  <DihAtoms>  (1) 
12,14,28,29

>  <DihDeg>  (1) 
127.18810843033482

$$$$
