REMARK  Name = 
REMARK  2 active torsions:
REMARK  status: ('A' for Active; 'I' for Inactive)
REMARK    1  A    between atoms: C_5  and  C_7
REMARK    2  A    between atoms: C_7  and  O_12
REMARK                            x       y       z     vdW  Elec       q    Type
REMARK                         _______ _______ _______ _____ _____    ______ ____
ROOT
ATOM      1  C   UNL     1      37.267  30.185  51.430  0.00  0.00    +0.000 A 
ATOM      2  C   UNL     1      38.085  30.752  50.446  0.00  0.00    +0.000 A 
ATOM      3  C   UNL     1      37.804  30.495  49.093  0.00  0.00    +0.000 A 
ATOM      4  N   UNL     1      36.742  29.701  48.834  0.00  0.00    +0.000 NA
ATOM      5  C   UNL     1      35.966  29.164  49.799  0.00  0.00    +0.000 A 
ATOM      6  N   UNL     1      36.225  29.403  51.082  0.00  0.00    +0.000 NA
ATOM      7  H   UNL     1      37.525  30.413  52.435  0.00  0.00    +0.000 HD
ATOM      8  H   UNL     1      38.944  31.395  50.656  0.00  0.00    +0.000 HD
ATOM      9  H   UNL     1      38.386  30.895  48.276  0.00  0.00    +0.000 HD
ENDROOT
BRANCH   5  10
ATOM     10  C   UNL     1      34.828  28.312  49.476  0.00  0.00    +0.000 C 
ATOM     11  O   UNL     1      33.632  28.720  49.560  0.00  0.00    +0.000 OA
BRANCH  10  12
ATOM     12  O   UNL     1      34.901  26.977  49.044  0.00  0.00    +0.000 OA
ATOM     13  H   UNL     1      34.779  26.194  49.702  0.00  0.00    +0.000 HD
ENDBRANCH  10  12
ENDBRANCH   5  10
TORSDOF 2
