
     RDKit          3D

 25 26  0  0  0  0  0  0  0  0999 V2000
   37.4688   31.4394   49.3829 C   0  0  0  0  0  0  0  0  0  0  0  0
   37.8690   32.7252   49.6975 C   0  0  0  0  0  0  0  0  0  0  0  0
   38.6735   33.3225   48.7526 C   0  0  0  0  0  0  0  0  0  0  0  0
   39.0266   32.6658   47.6073 N   0  0  0  0  0  0  0  0  0  0  0  0
   38.6108   31.4097   47.3427 C   0  0  0  0  0  0  0  0  0  0  0  0
   37.8121   30.7838   48.2567 N   0  0  0  0  0  0  0  0  0  0  0  0
   36.5592   30.7290   50.3589 C   0  0  0  0  0  0  0  0  0  0  0  0
   36.4907   29.3123   50.4748 C   0  0  0  0  0  0  0  0  0  0  0  0
   37.3544   30.0429   51.4926 C   0  0  0  0  0  0  0  0  0  0  0  0
   38.9751   30.7173   46.1182 C   0  0  0  0  0  0  0  0  0  0  0  0
   41.0382   31.5281   45.0067 C   0  0  0  0  0  0  0  0  0  0  0  0
   40.4791   32.3212   44.2013 O   0  0  0  0  0  0  0  0  0  0  0  0
   40.4215   30.7417   46.0066 N   0  0  0  0  0  0  0  0  0  0  0  0
   37.5489   33.1735   50.6178 H   0  0  0  0  0  0  0  0  0  0  0  0
   39.0238   34.3309   48.9363 H   0  0  0  0  0  0  0  0  0  0  0  0
   35.7509   31.4124   50.7242 H   0  0  0  0  0  0  0  0  0  0  0  0
   37.0464   28.6442   49.7794 H   0  0  0  0  0  0  0  0  0  0  0  0
   35.5740   28.8334   50.8525 H   0  0  0  0  0  0  0  0  0  0  0  0
   38.4460   29.9786   51.3982 H   0  0  0  0  0  0  0  0  0  0  0  0
   36.9710   30.2316   52.4902 H   0  0  0  0  0  0  0  0  0  0  0  0
   38.5298   31.2093   45.2344 H   0  0  0  0  0  0  0  0  0  0  0  0
   38.6551   29.6624   46.1495 H   0  0  0  0  0  0  0  0  0  0  0  0
   41.0019   30.1746   46.6698 H   0  0  0  0  0  0  0  0  0  0  0  0
   42.4291   31.5114   44.7866 O   0  0  0  0  0  0  0  0  0  0  0  0
   42.9206   32.3198   44.3978 H   0  0  0  0  0  0  0  0  0  0  0  0
  1  2  2  0
  1  7  1  0
  3  2  1  0
  4  3  2  0
  5  4  1  0
  5  6  2  0
  6  1  1  0
  7  8  1  0
  7  9  1  0
  8  9  1  0
 10  5  1  0
 11 13  1  0
 12 11  2  0
 13 10  1  0
  2 14  1  0
  3 15  1  0
  7 16  1  0
  8 17  1  0
  8 18  1  0
  9 19  1  0
  9 20  1  0
 10 21  1  0
 10 22  1  0
 13 23  1  0
 24 25  1  0
 11 24  1  0
M  ISO  8  14  14  15  14  16  13  17  13  18  13  19  13  20  13  21   8
M  ISO  2  22   8  25   3
M  END
>  <DihAtoms>  (1) 
12,10,23,24

>  <DihDeg>  (1) 
132.59360864327297

$$$$
