REMARK  Name = 
REMARK  4 active torsions:
REMARK  status: ('A' for Active; 'I' for Inactive)
REMARK    1  A    between atoms: C_1  and  C_7
REMARK    2  A    between atoms: C_5  and  C_10
REMARK    3  A    between atoms: C_10  and  N_13
REMARK    4  A    between atoms: C_11  and  O_24
REMARK                            x       y       z     vdW  Elec       q    Type
REMARK                         _______ _______ _______ _____ _____    ______ ____
ROOT
ATOM      1  C   UNL     1      37.469  31.439  49.383  0.00  0.00    +0.000 A 
ATOM      2  C   UNL     1      37.869  32.725  49.697  0.00  0.00    +0.000 A 
ATOM      3  C   UNL     1      38.673  33.322  48.753  0.00  0.00    +0.000 A 
ATOM      4  N   UNL     1      39.027  32.666  47.607  0.00  0.00    +0.000 NA
ATOM      5  C   UNL     1      38.611  31.410  47.343  0.00  0.00    +0.000 A 
ATOM      6  N   UNL     1      37.812  30.784  48.257  0.00  0.00    +0.000 NA
ATOM      7  H   UNL     1      37.549  33.173  50.618  0.00  0.00    +0.000 HD
ATOM      8  H   UNL     1      39.024  34.331  48.936  0.00  0.00    +0.000 HD
ENDROOT
BRANCH   1   9
ATOM      9  C   UNL     1      36.559  30.729  50.359  0.00  0.00    +0.000 C 
ATOM     10  C   UNL     1      36.491  29.312  50.475  0.00  0.00    +0.000 C 
ATOM     11  C   UNL     1      37.354  30.043  51.493  0.00  0.00    +0.000 C 
ATOM     12  H   UNL     1      35.751  31.412  50.724  0.00  0.00    +0.000 HD
ATOM     13  H   UNL     1      37.046  28.644  49.779  0.00  0.00    +0.000 HD
ATOM     14  H   UNL     1      35.574  28.833  50.852  0.00  0.00    +0.000 HD
ATOM     15  H   UNL     1      38.446  29.979  51.398  0.00  0.00    +0.000 HD
ATOM     16  H   UNL     1      36.971  30.232  52.490  0.00  0.00    +0.000 HD
ENDBRANCH   1   9
BRANCH   5  17
ATOM     17  C   UNL     1      38.975  30.717  46.118  0.00  0.00    +0.000 C 
ATOM     18  H   UNL     1      38.530  31.209  45.234  0.00  0.00    +0.000 HD
ATOM     19  H   UNL     1      38.655  29.662  46.150  0.00  0.00    +0.000 HD
BRANCH  17  22
ATOM     20  C   UNL     1      41.038  31.528  45.007  0.00  0.00    +0.000 C 
ATOM     21  O   UNL     1      40.479  32.321  44.201  0.00  0.00    +0.000 OA
ATOM     22  N   UNL     1      40.422  30.742  46.007  0.00  0.00    +0.000 N 
ATOM     23  H   UNL     1      41.002  30.175  46.670  0.00  0.00    +0.000 HD
BRANCH  20  24
ATOM     24  O   UNL     1      42.429  31.511  44.787  0.00  0.00    +0.000 OA
ATOM     25  H   UNL     1      42.962  30.639  44.789  0.00  0.00    +0.000 HD
ENDBRANCH  20  24
ENDBRANCH  17  22
ENDBRANCH   5  17
TORSDOF 4
