
 OpenBabel03272509593D

 39 41  0  0  0  0  0  0  0  0999 V2000
   36.8840   26.8840   33.5790 O   0  0  0  0  0  0  0  0  0  0  0  0
   36.3190   29.9250   31.7220 C   0  0  0  0  0  0  0  0  0  0  0  0
   35.6860   30.7040   32.7090 C   0  0  0  0  0  0  0  0  0  0  0  0
   35.4890   30.1290   33.9680 C   0  0  0  0  0  0  0  0  0  0  0  0
   35.9410   28.8540   34.1040 N   0  0  0  0  0  0  0  0  0  0  0  0
   36.5400   28.1240   33.1620 C   0  0  0  0  0  0  0  0  0  0  0  0
   36.7240   28.6920   31.9480 N   0  0  0  0  0  0  0  0  0  0  0  0
   36.4520   30.4170   30.7480 H   0  0  0  0  0  0  0  0  0  0  0  0
   35.3310   31.7230   32.5820 H   0  0  0  0  0  0  0  0  0  0  0  0
   36.6920   31.9030   35.9100 F   0  0  0  0  0  0  0  0  0  0  0  0
   35.4040   31.5960   36.0040 C   0  0  0  0  0  0  0  0  0  0  0  0
   34.8620   30.7730   35.0970 C   0  0  0  0  0  0  0  0  0  0  0  0
   33.5000   30.5150   35.2840 C   0  0  0  0  0  0  0  0  0  0  0  0
   32.7840   31.0600   36.3120 C   0  0  0  0  0  0  0  0  0  0  0  0
   33.3770   31.9080   37.2320 C   0  0  0  0  0  0  0  0  0  0  0  0
   34.7130   32.1640   37.0520 C   0  0  0  0  0  0  0  0  0  0  0  0
   32.9530   29.8630   34.6130 H   0  0  0  0  0  0  0  0  0  0  0  0
   31.7300   30.8420   36.4320 H   0  0  0  0  0  0  0  0  0  0  0  0
   32.7680   32.3130   38.0270 H   0  0  0  0  0  0  0  0  0  0  0  0
   35.1910   32.8210   37.7570 H   0  0  0  0  0  0  0  0  0  0  0  0
   37.3720   26.7060   34.8920 C   0  0  0  0  0  0  0  0  0  0  0  0
   36.6960   25.9860   35.4290 H   0  0  0  0  0  0  0  0  0  0  0  0
   37.4470   27.6740   35.3960 H   0  0  0  0  0  0  0  0  0  0  0  0
   38.7330   26.0670   34.8850 C   0  0  0  0  0  0  0  0  0  0  0  0
   39.4850   26.8430   35.0790 H   0  0  0  0  0  0  0  0  0  0  0  0
   39.0090   25.6460   33.8800 H   0  0  0  0  0  0  0  0  0  0  0  0
   38.8530   24.9670   35.8780 C   0  0  0  0  0  0  0  0  0  0  0  0
   37.9820   25.0120   36.9720 C   0  0  0  0  0  0  0  0  0  0  0  0
   38.0210   24.0370   37.9390 C   0  0  0  0  0  0  0  0  0  0  0  0
   38.8980   23.0350   37.8360 N   0  0  0  0  0  0  0  0  0  0  0  0
   39.7360   23.0160   36.7580 C   0  0  0  0  0  0  0  0  0  0  0  0
   39.7260   23.9530   35.7930 N   0  0  0  0  0  0  0  0  0  0  0  0
   37.2460   25.7830   37.1290 H   0  0  0  0  0  0  0  0  0  0  0  0
   37.3610   24.0280   38.8130 H   0  0  0  0  0  0  0  0  0  0  0  0
   40.7050   21.8860   36.6700 C   0  0  0  0  0  0  0  0  0  0  0  0
   40.2700   21.0350   36.1090 H   0  0  0  0  0  0  0  0  0  0  0  0
   41.7070   22.1880   36.3280 H   0  0  0  0  0  0  0  0  0  0  0  0
   40.8600   21.4460   38.0040 O   0  0  0  0  0  0  0  0  0  0  0  0
   40.9240   20.4390   38.0050 H   0  0  0  0  0  0  0  0  0  0  0  0
  1 21  1  0  0  0  0
  2  7  2  0  0  0  0
  2  3  1  0  0  0  0
  3  4  2  0  0  0  0
  4  5  1  0  0  0  0
  4 12  1  0  0  0  0
  6  1  1  0  0  0  0
  6  5  2  0  0  0  0
  7  6  1  0  0  0  0
  8  2  1  0  0  0  0
  9  3  1  0  0  0  0
 10 11  1  0  0  0  0
 11 16  1  0  0  0  0
 12 13  1  0  0  0  0
 12 11  2  0  0  0  0
 13 14  2  0  0  0  0
 14 18  1  0  0  0  0
 14 15  1  0  0  0  0
 15 19  1  0  0  0  0
 16 15  2  0  0  0  0
 16 20  1  0  0  0  0
 17 13  1  0  0  0  0
 21 23  1  0  0  0  0
 21 22  1  0  0  0  0
 24 21  1  0  0  0  0
 24 25  1  0  0  0  0
 24 27  1  0  0  0  0
 26 24  1  0  0  0  0
 27 28  1  0  0  0  0
 28 33  1  0  0  0  0
 28 29  2  0  0  0  0
 29 34  1  0  0  0  0
 30 29  1  0  0  0  0
 31 30  2  0  0  0  0
 32 27  2  0  0  0  0
 32 31  1  0  0  0  0
 35 31  1  0  0  0  0
 35 38  1  0  0  0  0
 36 35  1  0  0  0  0
 37 35  1  0  0  0  0
 38 39  1  0  0  0  0
M  END
>  <minimizedAffinity>
-6.30184317

$$$$

 OpenBabel03272509593D

 39 41  0  0  0  0  0  0  0  0999 V2000
   38.9050   25.6200   32.6680 O   0  0  0  0  0  0  0  0  0  0  0  0
   35.6250   25.8080   31.1760 C   0  0  0  0  0  0  0  0  0  0  0  0
   35.3210   24.4370   31.0730 C   0  0  0  0  0  0  0  0  0  0  0  0
   36.2740   23.5210   31.5280 C   0  0  0  0  0  0  0  0  0  0  0  0
   37.4130   24.0660   32.0310 N   0  0  0  0  0  0  0  0  0  0  0  0
   37.6920   25.3670   32.1240 C   0  0  0  0  0  0  0  0  0  0  0  0
   36.7620   26.2430   31.6800 N   0  0  0  0  0  0  0  0  0  0  0  0
   34.8480   26.4910   30.8060 H   0  0  0  0  0  0  0  0  0  0  0  0
   34.4030   24.0190   30.6680 H   0  0  0  0  0  0  0  0  0  0  0  0
   37.9610   21.5860   30.1950 F   0  0  0  0  0  0  0  0  0  0  0  0
   36.9080   21.1760   30.8910 C   0  0  0  0  0  0  0  0  0  0  0  0
   36.1370   22.0840   31.5030 C   0  0  0  0  0  0  0  0  0  0  0  0
   35.0560   21.5490   32.2110 C   0  0  0  0  0  0  0  0  0  0  0  0
   34.8080   20.2070   32.2710 C   0  0  0  0  0  0  0  0  0  0  0  0
   35.6280   19.2950   31.6260 C   0  0  0  0  0  0  0  0  0  0  0  0
   36.6900   19.8160   30.9310 C   0  0  0  0  0  0  0  0  0  0  0  0
   34.3610   22.1880   32.7460 H   0  0  0  0  0  0  0  0  0  0  0  0
   33.9630   19.8210   32.8270 H   0  0  0  0  0  0  0  0  0  0  0  0
   35.3900   18.2450   31.7030 H   0  0  0  0  0  0  0  0  0  0  0  0
   37.3380   19.1230   30.4230 H   0  0  0  0  0  0  0  0  0  0  0  0
   39.0820   26.7800   33.4530 C   0  0  0  0  0  0  0  0  0  0  0  0
   38.0880   27.0750   33.8840 H   0  0  0  0  0  0  0  0  0  0  0  0
   39.5350   27.5730   32.8490 H   0  0  0  0  0  0  0  0  0  0  0  0
   39.9790   26.5090   34.6290 C   0  0  0  0  0  0  0  0  0  0  0  0
   40.0240   27.4120   35.2510 H   0  0  0  0  0  0  0  0  0  0  0  0
   41.0440   26.3160   34.3260 H   0  0  0  0  0  0  0  0  0  0  0  0
   39.5270   25.3440   35.4340 C   0  0  0  0  0  0  0  0  0  0  0  0
   38.2750   25.4550   36.0500 C   0  0  0  0  0  0  0  0  0  0  0  0
   37.7760   24.4270   36.8140 C   0  0  0  0  0  0  0  0  0  0  0  0
   38.4920   23.3110   36.9710 N   0  0  0  0  0  0  0  0  0  0  0  0
   39.7100   23.2300   36.3600 C   0  0  0  0  0  0  0  0  0  0  0  0
   40.2290   24.2150   35.6060 N   0  0  0  0  0  0  0  0  0  0  0  0
   37.6370   26.3190   35.9720 H   0  0  0  0  0  0  0  0  0  0  0  0
   36.8030   24.4660   37.3140 H   0  0  0  0  0  0  0  0  0  0  0  0
   40.4870   21.9710   36.5540 C   0  0  0  0  0  0  0  0  0  0  0  0
   39.9670   21.1100   36.0880 H   0  0  0  0  0  0  0  0  0  0  0  0
   41.5500   22.0610   36.2810 H   0  0  0  0  0  0  0  0  0  0  0  0
   40.4560   21.7470   37.9500 O   0  0  0  0  0  0  0  0  0  0  0  0
   40.3550   20.7560   38.1140 H   0  0  0  0  0  0  0  0  0  0  0  0
  1 21  1  0  0  0  0
  2  7  1  0  0  0  0
  3  2  2  0  0  0  0
  3  4  1  0  0  0  0
  4  5  2  0  0  0  0
  5  6  1  0  0  0  0
  6  1  1  0  0  0  0
  7  6  2  0  0  0  0
  8  2  1  0  0  0  0
  9  3  1  0  0  0  0
 10 11  1  0  0  0  0
 11 16  2  0  0  0  0
 11 12  1  0  0  0  0
 12  4  1  0  0  0  0
 12 13  2  0  0  0  0
 13 14  1  0  0  0  0
 13 17  1  0  0  0  0
 14 18  1  0  0  0  0
 15 19  1  0  0  0  0
 15 14  2  0  0  0  0
 16 15  1  0  0  0  0
 20 16  1  0  0  0  0
 21 22  1  0  0  0  0
 21 24  1  0  0  0  0
 23 21  1  0  0  0  0
 24 25  1  0  0  0  0
 24 27  1  0  0  0  0
 26 24  1  0  0  0  0
 27 32  2  0  0  0  0
 27 28  1  0  0  0  0
 28 29  2  0  0  0  0
 29 30  1  0  0  0  0
 29 34  1  0  0  0  0
 31 35  1  0  0  0  0
 31 30  2  0  0  0  0
 32 31  1  0  0  0  0
 33 28  1  0  0  0  0
 35 38  1  0  0  0  0
 36 35  1  0  0  0  0
 37 35  1  0  0  0  0
 38 39  1  0  0  0  0
M  END
>  <minimizedAffinity>
-5.91808033

$$$$

 OpenBabel03272509593D

 39 41  0  0  0  0  0  0  0  0999 V2000
   36.7780   25.2260   32.0870 O   0  0  0  0  0  0  0  0  0  0  0  0
   37.3130   27.5900   34.7590 C   0  0  0  0  0  0  0  0  0  0  0  0
   37.9940   26.7730   35.6820 C   0  0  0  0  0  0  0  0  0  0  0  0
   38.2300   25.4420   35.3230 C   0  0  0  0  0  0  0  0  0  0  0  0
   37.7670   25.0760   34.0990 N   0  0  0  0  0  0  0  0  0  0  0  0
   37.1230   25.8590   33.2320 C   0  0  0  0  0  0  0  0  0  0  0  0
   36.9000   27.1450   33.5910 N   0  0  0  0  0  0  0  0  0  0  0  0
   37.1500   28.6280   35.0830 H   0  0  0  0  0  0  0  0  0  0  0  0
   38.3580   27.0820   36.6580 H   0  0  0  0  0  0  0  0  0  0  0  0
   37.4040   24.3470   37.8700 F   0  0  0  0  0  0  0  0  0  0  0  0
   38.5400   23.9450   37.3160 C   0  0  0  0  0  0  0  0  0  0  0  0
   38.9090   24.4610   36.1360 C   0  0  0  0  0  0  0  0  0  0  0  0
   40.1200   23.9710   35.6380 C   0  0  0  0  0  0  0  0  0  0  0  0
   40.8660   23.0400   36.3050 C   0  0  0  0  0  0  0  0  0  0  0  0
   40.4540   22.5270   37.5230 C   0  0  0  0  0  0  0  0  0  0  0  0
   39.2660   23.0050   38.0160 C   0  0  0  0  0  0  0  0  0  0  0  0
   40.5220   24.3160   34.6920 H   0  0  0  0  0  0  0  0  0  0  0  0
   41.8010   22.6790   35.8950 H   0  0  0  0  0  0  0  0  0  0  0  0
   41.0790   21.7930   38.0110 H   0  0  0  0  0  0  0  0  0  0  0  0
   38.9290   22.6180   38.9610 H   0  0  0  0  0  0  0  0  0  0  0  0
   37.0470   23.8470   31.9510 C   0  0  0  0  0  0  0  0  0  0  0  0
   37.2380   23.4180   32.9710 H   0  0  0  0  0  0  0  0  0  0  0  0
   37.8850   23.6980   31.2630 H   0  0  0  0  0  0  0  0  0  0  0  0
   35.8530   23.1110   31.4100 C   0  0  0  0  0  0  0  0  0  0  0  0
   35.7560   23.3390   30.3410 H   0  0  0  0  0  0  0  0  0  0  0  0
   34.8870   23.4580   31.8660 H   0  0  0  0  0  0  0  0  0  0  0  0
   35.9440   21.6420   31.6220 C   0  0  0  0  0  0  0  0  0  0  0  0
   35.3720   21.1410   32.7960 C   0  0  0  0  0  0  0  0  0  0  0  0
   35.4090   19.7960   33.0760 C   0  0  0  0  0  0  0  0  0  0  0  0
   35.9970   18.9570   32.2190 N   0  0  0  0  0  0  0  0  0  0  0  0
   36.5480   19.4730   31.0810 C   0  0  0  0  0  0  0  0  0  0  0  0
   36.5300   20.7830   30.7760 N   0  0  0  0  0  0  0  0  0  0  0  0
   34.8790   21.7480   33.5370 H   0  0  0  0  0  0  0  0  0  0  0  0
   34.9750   19.3560   33.9800 H   0  0  0  0  0  0  0  0  0  0  0  0
   37.1980   18.5130   30.1430 C   0  0  0  0  0  0  0  0  0  0  0  0
   38.1300   18.9410   29.7220 H   0  0  0  0  0  0  0  0  0  0  0  0
   37.3130   17.4990   30.5580 H   0  0  0  0  0  0  0  0  0  0  0  0
   36.2900   18.3970   29.0660 O   0  0  0  0  0  0  0  0  0  0  0  0
   36.8160   18.3430   28.2070 H   0  0  0  0  0  0  0  0  0  0  0  0
  1  6  1  0  0  0  0
  2  8  1  0  0  0  0
  2  3  1  0  0  0  0
  3  9  1  0  0  0  0
  4  3  2  0  0  0  0
  4 12  1  0  0  0  0
  5  4  1  0  0  0  0
  6  7  1  0  0  0  0
  6  5  2  0  0  0  0
  7  2  2  0  0  0  0
 11 10  1  0  0  0  0
 11 16  1  0  0  0  0
 12 11  2  0  0  0  0
 13 12  1  0  0  0  0
 13 14  2  0  0  0  0
 14 15  1  0  0  0  0
 15 19  1  0  0  0  0
 15 16  2  0  0  0  0
 16 20  1  0  0  0  0
 17 13  1  0  0  0  0
 18 14  1  0  0  0  0
 21  1  1  0  0  0  0
 21 22  1  0  0  0  0
 23 21  1  0  0  0  0
 24 27  1  0  0  0  0
 24 26  1  0  0  0  0
 24 21  1  0  0  0  0
 25 24  1  0  0  0  0
 27 28  1  0  0  0  0
 28 29  2  0  0  0  0
 28 33  1  0  0  0  0
 29 34  1  0  0  0  0
 30 29  1  0  0  0  0
 31 30  2  0  0  0  0
 32 31  1  0  0  0  0
 32 27  2  0  0  0  0
 35 37  1  0  0  0  0
 35 31  1  0  0  0  0
 36 35  1  0  0  0  0
 38 35  1  0  0  0  0
 39 38  1  0  0  0  0
M  END
>  <minimizedAffinity>
-5.7801528

$$$$

 OpenBabel03272509593D

 39 41  0  0  0  0  0  0  0  0999 V2000
   37.1540   26.8800   33.5250 O   0  0  0  0  0  0  0  0  0  0  0  0
   36.3840   29.8440   31.6170 C   0  0  0  0  0  0  0  0  0  0  0  0
   35.6720   30.5820   32.5810 C   0  0  0  0  0  0  0  0  0  0  0  0
   35.4970   30.0070   33.8440 C   0  0  0  0  0  0  0  0  0  0  0  0
   36.0470   28.7740   34.0060 N   0  0  0  0  0  0  0  0  0  0  0  0
   36.7200   28.0840   33.0850 C   0  0  0  0  0  0  0  0  0  0  0  0
   36.8820   28.6500   31.8670 N   0  0  0  0  0  0  0  0  0  0  0  0
   36.4970   30.3330   30.6390 H   0  0  0  0  0  0  0  0  0  0  0  0
   35.2390   31.5680   32.4350 H   0  0  0  0  0  0  0  0  0  0  0  0
   32.7170   29.7070   34.5850 F   0  0  0  0  0  0  0  0  0  0  0  0
   33.5140   30.4840   35.3080 C   0  0  0  0  0  0  0  0  0  0  0  0
   34.7990   30.6130   34.9530 C   0  0  0  0  0  0  0  0  0  0  0  0
   35.5520   31.4520   35.7810 C   0  0  0  0  0  0  0  0  0  0  0  0
   35.0160   32.0880   36.8640 C   0  0  0  0  0  0  0  0  0  0  0  0
   33.6820   31.9320   37.2040 C   0  0  0  0  0  0  0  0  0  0  0  0
   32.9400   31.1100   36.3950 C   0  0  0  0  0  0  0  0  0  0  0  0
   36.6040   31.6330   35.5910 H   0  0  0  0  0  0  0  0  0  0  0  0
   35.6240   32.7320   37.4870 H   0  0  0  0  0  0  0  0  0  0  0  0
   33.3060   32.4560   38.0690 H   0  0  0  0  0  0  0  0  0  0  0  0
   31.9020   30.9750   36.6420 H   0  0  0  0  0  0  0  0  0  0  0  0
   38.4880   26.4910   33.2750 C   0  0  0  0  0  0  0  0  0  0  0  0
   39.0290   27.3560   32.8050 H   0  0  0  0  0  0  0  0  0  0  0  0
   38.5040   25.5920   32.6520 H   0  0  0  0  0  0  0  0  0  0  0  0
   39.2170   26.1940   34.5560 C   0  0  0  0  0  0  0  0  0  0  0  0
   39.0760   27.0380   35.2430 H   0  0  0  0  0  0  0  0  0  0  0  0
   40.3290   26.1220   34.4150 H   0  0  0  0  0  0  0  0  0  0  0  0
   38.7640   24.9270   35.1890 C   0  0  0  0  0  0  0  0  0  0  0  0
   38.5850   23.8300   34.3400 C   0  0  0  0  0  0  0  0  0  0  0  0
   38.1690   22.6190   34.8380 C   0  0  0  0  0  0  0  0  0  0  0  0
   37.9320   22.4860   36.1450 N   0  0  0  0  0  0  0  0  0  0  0  0
   38.1140   23.5730   36.9510 C   0  0  0  0  0  0  0  0  0  0  0  0
   38.5200   24.7730   36.4990 N   0  0  0  0  0  0  0  0  0  0  0  0
   38.7550   23.8540   33.2760 H   0  0  0  0  0  0  0  0  0  0  0  0
   38.0150   21.7320   34.2140 H   0  0  0  0  0  0  0  0  0  0  0  0
   37.8410   23.3940   38.4070 C   0  0  0  0  0  0  0  0  0  0  0  0
   37.3930   24.3100   38.8400 H   0  0  0  0  0  0  0  0  0  0  0  0
   37.2970   22.4670   38.6440 H   0  0  0  0  0  0  0  0  0  0  0  0
   39.1200   23.2610   38.9940 O   0  0  0  0  0  0  0  0  0  0  0  0
   39.1200   23.7480   39.8780 H   0  0  0  0  0  0  0  0  0  0  0  0
  2  7  2  0  0  0  0
  2  3  1  0  0  0  0
  3  4  2  0  0  0  0
  4  5  1  0  0  0  0
  4 12  1  0  0  0  0
  6  1  1  0  0  0  0
  6  5  2  0  0  0  0
  7  6  1  0  0  0  0
  8  2  1  0  0  0  0
  9  3  1  0  0  0  0
 10 11  1  0  0  0  0
 11 16  1  0  0  0  0
 12 11  2  0  0  0  0
 12 13  1  0  0  0  0
 13 14  2  0  0  0  0
 14 15  1  0  0  0  0
 14 18  1  0  0  0  0
 15 19  1  0  0  0  0
 16 20  1  0  0  0  0
 16 15  2  0  0  0  0
 17 13  1  0  0  0  0
 21  1  1  0  0  0  0
 21 24  1  0  0  0  0
 22 21  1  0  0  0  0
 23 21  1  0  0  0  0
 24 27  1  0  0  0  0
 24 25  1  0  0  0  0
 26 24  1  0  0  0  0
 27 32  1  0  0  0  0
 28 29  1  0  0  0  0
 28 27  2  0  0  0  0
 29 30  2  0  0  0  0
 30 31  1  0  0  0  0
 31 35  1  0  0  0  0
 32 31  2  0  0  0  0
 33 28  1  0  0  0  0
 34 29  1  0  0  0  0
 35 37  1  0  0  0  0
 35 36  1  0  0  0  0
 35 38  1  0  0  0  0
 38 39  1  0  0  0  0
M  END
>  <minimizedAffinity>
-5.75690222

$$$$

 OpenBabel03272509593D

 39 41  0  0  0  0  0  0  0  0999 V2000
   37.2690   27.7520   32.8870 O   0  0  0  0  0  0  0  0  0  0  0  0
   35.2320   30.2590   31.2810 C   0  0  0  0  0  0  0  0  0  0  0  0
   34.6700   30.8840   32.4110 C   0  0  0  0  0  0  0  0  0  0  0  0
   35.0310   30.3980   33.6710 C   0  0  0  0  0  0  0  0  0  0  0  0
   35.9030   29.3550   33.6680 N   0  0  0  0  0  0  0  0  0  0  0  0
   36.4290   28.7710   32.5910 C   0  0  0  0  0  0  0  0  0  0  0  0
   36.0720   29.2490   31.3770 N   0  0  0  0  0  0  0  0  0  0  0  0
   34.9210   30.6730   30.3110 H   0  0  0  0  0  0  0  0  0  0  0  0
   33.9740   31.7180   32.3950 H   0  0  0  0  0  0  0  0  0  0  0  0
   36.5200   31.8520   35.6800 F   0  0  0  0  0  0  0  0  0  0  0  0
   35.2350   31.5850   35.8750 C   0  0  0  0  0  0  0  0  0  0  0  0
   34.5590   30.9110   34.9350 C   0  0  0  0  0  0  0  0  0  0  0  0
   33.2120   30.6830   35.2360 C   0  0  0  0  0  0  0  0  0  0  0  0
   32.6350   31.1140   36.3980 C   0  0  0  0  0  0  0  0  0  0  0  0
   33.3650   31.8090   37.3480 C   0  0  0  0  0  0  0  0  0  0  0  0
   34.6860   32.0350   37.0570 C   0  0  0  0  0  0  0  0  0  0  0  0
   32.5650   30.1470   34.5510 H   0  0  0  0  0  0  0  0  0  0  0  0
   31.5900   30.9230   36.6040 H   0  0  0  0  0  0  0  0  0  0  0  0
   32.8640   32.1290   38.2500 H   0  0  0  0  0  0  0  0  0  0  0  0
   35.2690   32.5740   37.7820 H   0  0  0  0  0  0  0  0  0  0  0  0
   37.0760   27.0200   34.0790 C   0  0  0  0  0  0  0  0  0  0  0  0
   36.9180   25.9400   33.8120 H   0  0  0  0  0  0  0  0  0  0  0  0
   36.2410   27.4440   34.6450 H   0  0  0  0  0  0  0  0  0  0  0  0
   38.3040   27.0570   34.9450 C   0  0  0  0  0  0  0  0  0  0  0  0
   38.1390   27.7760   35.7570 H   0  0  0  0  0  0  0  0  0  0  0  0
   39.2070   27.4430   34.4000 H   0  0  0  0  0  0  0  0  0  0  0  0
   38.6530   25.7210   35.4970 C   0  0  0  0  0  0  0  0  0  0  0  0
   39.5450   24.9450   34.7480 C   0  0  0  0  0  0  0  0  0  0  0  0
   39.9230   23.6970   35.1820 C   0  0  0  0  0  0  0  0  0  0  0  0
   39.4370   23.2190   36.3290 N   0  0  0  0  0  0  0  0  0  0  0  0
   38.5680   23.9970   37.0400 C   0  0  0  0  0  0  0  0  0  0  0  0
   38.1760   25.2210   36.6460 N   0  0  0  0  0  0  0  0  0  0  0  0
   39.9820   25.2580   33.8150 H   0  0  0  0  0  0  0  0  0  0  0  0
   40.6180   23.0540   34.6320 H   0  0  0  0  0  0  0  0  0  0  0  0
   38.0410   23.4350   38.3170 C   0  0  0  0  0  0  0  0  0  0  0  0
   37.3630   24.1560   38.8150 H   0  0  0  0  0  0  0  0  0  0  0  0
   37.6270   22.4200   38.2170 H   0  0  0  0  0  0  0  0  0  0  0  0
   39.1770   23.3170   39.1500 O   0  0  0  0  0  0  0  0  0  0  0  0
   38.9140   23.5680   40.0910 H   0  0  0  0  0  0  0  0  0  0  0  0
  1 21  1  0  0  0  0
  2  7  2  0  0  0  0
  2  3  1  0  0  0  0
  3  4  2  0  0  0  0
  4 12  1  0  0  0  0
  5  4  1  0  0  0  0
  6  1  1  0  0  0  0
  6  5  2  0  0  0  0
  7  6  1  0  0  0  0
  8  2  1  0  0  0  0
  9  3  1  0  0  0  0
 10 11  1  0  0  0  0
 11 16  1  0  0  0  0
 12 13  1  0  0  0  0
 12 11  2  0  0  0  0
 13 14  2  0  0  0  0
 14 18  1  0  0  0  0
 14 15  1  0  0  0  0
 15 19  1  0  0  0  0
 16 15  2  0  0  0  0
 16 20  1  0  0  0  0
 17 13  1  0  0  0  0
 21 23  1  0  0  0  0
 21 24  1  0  0  0  0
 22 21  1  0  0  0  0
 24 27  1  0  0  0  0
 24 25  1  0  0  0  0
 26 24  1  0  0  0  0
 27 32  1  0  0  0  0
 28 29  1  0  0  0  0
 28 27  2  0  0  0  0
 29 30  2  0  0  0  0
 30 31  1  0  0  0  0
 31 35  1  0  0  0  0
 32 31  2  0  0  0  0
 33 28  1  0  0  0  0
 34 29  1  0  0  0  0
 35 36  1  0  0  0  0
 35 38  1  0  0  0  0
 37 35  1  0  0  0  0
 38 39  1  0  0  0  0
M  END
>  <minimizedAffinity>
-5.72448444

$$$$

 OpenBabel03272509593D

 39 41  0  0  0  0  0  0  0  0999 V2000
   36.9290   27.1170   32.9470 O   0  0  0  0  0  0  0  0  0  0  0  0
   38.6400   25.1510   30.4520 C   0  0  0  0  0  0  0  0  0  0  0  0
   38.1280   23.8730   30.7490 C   0  0  0  0  0  0  0  0  0  0  0  0
   37.2150   23.7650   31.8030 C   0  0  0  0  0  0  0  0  0  0  0  0
   36.9150   24.9290   32.4370 N   0  0  0  0  0  0  0  0  0  0  0  0
   37.4060   26.1350   32.1480 C   0  0  0  0  0  0  0  0  0  0  0  0
   38.2890   26.2270   31.1270 N   0  0  0  0  0  0  0  0  0  0  0  0
   39.3540   25.1890   29.6170 H   0  0  0  0  0  0  0  0  0  0  0  0
   38.3790   22.9520   30.2310 H   0  0  0  0  0  0  0  0  0  0  0  0
   37.6160   22.3550   34.2960 F   0  0  0  0  0  0  0  0  0  0  0  0
   36.7640   21.8790   33.3980 C   0  0  0  0  0  0  0  0  0  0  0  0
   36.5890   22.5430   32.2480 C   0  0  0  0  0  0  0  0  0  0  0  0
   35.6680   21.9590   31.3720 C   0  0  0  0  0  0  0  0  0  0  0  0
   35.0030   20.8030   31.6680 C   0  0  0  0  0  0  0  0  0  0  0  0
   35.2080   20.1420   32.8670 C   0  0  0  0  0  0  0  0  0  0  0  0
   36.1100   20.7110   33.7300 C   0  0  0  0  0  0  0  0  0  0  0  0
   35.4450   22.4060   30.4100 H   0  0  0  0  0  0  0  0  0  0  0  0
   34.2960   20.3740   30.9690 H   0  0  0  0  0  0  0  0  0  0  0  0
   34.6590   19.2320   33.0540 H   0  0  0  0  0  0  0  0  0  0  0  0
   36.2830   20.2130   34.6680 H   0  0  0  0  0  0  0  0  0  0  0  0
   37.0020   26.9640   34.3490 C   0  0  0  0  0  0  0  0  0  0  0  0
   36.5800   25.9590   34.6210 H   0  0  0  0  0  0  0  0  0  0  0  0
   36.4820   27.7910   34.8420 H   0  0  0  0  0  0  0  0  0  0  0  0
   38.4300   26.9540   34.8210 C   0  0  0  0  0  0  0  0  0  0  0  0
   38.5840   27.8090   35.4900 H   0  0  0  0  0  0  0  0  0  0  0  0
   39.1640   27.1080   33.9850 H   0  0  0  0  0  0  0  0  0  0  0  0
   38.7950   25.6850   35.5060 C   0  0  0  0  0  0  0  0  0  0  0  0
   39.9170   25.0080   35.0180 C   0  0  0  0  0  0  0  0  0  0  0  0
   40.3280   23.8270   35.5890 C   0  0  0  0  0  0  0  0  0  0  0  0
   39.6500   23.3210   36.6230 N   0  0  0  0  0  0  0  0  0  0  0  0
   38.5590   24.0030   37.0790 C   0  0  0  0  0  0  0  0  0  0  0  0
   38.1290   25.1590   36.5440 N   0  0  0  0  0  0  0  0  0  0  0  0
   40.5170   25.3480   34.1900 H   0  0  0  0  0  0  0  0  0  0  0  0
   41.1980   23.2610   35.2430 H   0  0  0  0  0  0  0  0  0  0  0  0
   37.8220   23.4120   38.2340 C   0  0  0  0  0  0  0  0  0  0  0  0
   37.4680   24.2050   38.9240 H   0  0  0  0  0  0  0  0  0  0  0  0
   37.0460   22.6890   37.9400 H   0  0  0  0  0  0  0  0  0  0  0  0
   38.8000   22.6760   38.9410 O   0  0  0  0  0  0  0  0  0  0  0  0
   38.6330   22.7860   39.9300 H   0  0  0  0  0  0  0  0  0  0  0  0
  1 21  1  0  0  0  0
  2  3  2  0  0  0  0
  2  7  1  0  0  0  0
  3  4  1  0  0  0  0
  4 12  1  0  0  0  0
  4  5  2  0  0  0  0
  6  5  1  0  0  0  0
  6  1  1  0  0  0  0
  7  6  2  0  0  0  0
  8  2  1  0  0  0  0
  9  3  1  0  0  0  0
 11 16  1  0  0  0  0
 11 10  1  0  0  0  0
 12 11  2  0  0  0  0
 13 14  2  0  0  0  0
 13 12  1  0  0  0  0
 14 15  1  0  0  0  0
 15 19  1  0  0  0  0
 15 16  2  0  0  0  0
 16 20  1  0  0  0  0
 17 13  1  0  0  0  0
 18 14  1  0  0  0  0
 21 22  1  0  0  0  0
 21 24  1  0  0  0  0
 21 23  1  0  0  0  0
 24 25  1  0  0  0  0
 24 27  1  0  0  0  0
 26 24  1  0  0  0  0
 27 32  1  0  0  0  0
 28 27  2  0  0  0  0
 28 29  1  0  0  0  0
 29 30  2  0  0  0  0
 30 31  1  0  0  0  0
 31 35  1  0  0  0  0
 32 31  2  0  0  0  0
 33 28  1  0  0  0  0
 34 29  1  0  0  0  0
 35 36  1  0  0  0  0
 35 38  1  0  0  0  0
 37 35  1  0  0  0  0
 38 39  1  0  0  0  0
M  END
>  <minimizedAffinity>
-5.68015862

$$$$

 OpenBabel03272509593D

 39 41  0  0  0  0  0  0  0  0999 V2000
   36.8430   25.2530   32.1560 O   0  0  0  0  0  0  0  0  0  0  0  0
   37.3550   27.5700   34.8730 C   0  0  0  0  0  0  0  0  0  0  0  0
   38.0280   26.7360   35.7870 C   0  0  0  0  0  0  0  0  0  0  0  0
   38.2670   25.4120   35.4080 C   0  0  0  0  0  0  0  0  0  0  0  0
   37.8150   25.0670   34.1730 N   0  0  0  0  0  0  0  0  0  0  0  0
   37.1780   25.8650   33.3150 C   0  0  0  0  0  0  0  0  0  0  0  0
   36.9530   27.1450   33.6930 N   0  0  0  0  0  0  0  0  0  0  0  0
   37.1890   28.6020   35.2130 H   0  0  0  0  0  0  0  0  0  0  0  0
   38.3830   27.0290   36.7710 H   0  0  0  0  0  0  0  0  0  0  0  0
   37.5290   24.4260   38.0250 F   0  0  0  0  0  0  0  0  0  0  0  0
   38.6110   23.9510   37.4210 C   0  0  0  0  0  0  0  0  0  0  0  0
   38.9390   24.4170   36.2090 C   0  0  0  0  0  0  0  0  0  0  0  0
   40.0940   23.8510   35.6600 C   0  0  0  0  0  0  0  0  0  0  0  0
   40.8270   22.8990   36.3110 C   0  0  0  0  0  0  0  0  0  0  0  0
   40.4570   22.4390   37.5640 C   0  0  0  0  0  0  0  0  0  0  0  0
   39.3250   22.9920   38.1070 C   0  0  0  0  0  0  0  0  0  0  0  0
   40.4590   24.1500   34.6840 H   0  0  0  0  0  0  0  0  0  0  0  0
   41.7170   22.4780   35.8600 H   0  0  0  0  0  0  0  0  0  0  0  0
   41.0700   21.6860   38.0370 H   0  0  0  0  0  0  0  0  0  0  0  0
   39.0220   22.6470   39.0790 H   0  0  0  0  0  0  0  0  0  0  0  0
   37.5400   24.0900   31.7620 C   0  0  0  0  0  0  0  0  0  0  0  0
   37.8470   23.5280   32.6850 H   0  0  0  0  0  0  0  0  0  0  0  0
   38.3890   24.3610   31.1270 H   0  0  0  0  0  0  0  0  0  0  0  0
   36.6480   23.1580   30.9880 C   0  0  0  0  0  0  0  0  0  0  0  0
   37.1770   22.8400   30.0800 H   0  0  0  0  0  0  0  0  0  0  0  0
   35.7160   23.6600   30.6160 H   0  0  0  0  0  0  0  0  0  0  0  0
   36.2300   21.9750   31.7870 C   0  0  0  0  0  0  0  0  0  0  0  0
   35.8480   20.8360   31.0690 C   0  0  0  0  0  0  0  0  0  0  0  0
   35.4460   19.6970   31.7250 C   0  0  0  0  0  0  0  0  0  0  0  0
   35.4200   19.6750   33.0590 N   0  0  0  0  0  0  0  0  0  0  0  0
   35.7970   20.8000   33.7340 C   0  0  0  0  0  0  0  0  0  0  0  0
   36.1950   21.9320   33.1260 N   0  0  0  0  0  0  0  0  0  0  0  0
   35.8410   20.7720   29.9940 H   0  0  0  0  0  0  0  0  0  0  0  0
   35.1390   18.7820   31.2080 H   0  0  0  0  0  0  0  0  0  0  0  0
   35.7570   20.7460   35.2240 C   0  0  0  0  0  0  0  0  0  0  0  0
   34.8650   21.2760   35.6150 H   0  0  0  0  0  0  0  0  0  0  0  0
   35.8980   19.7340   35.6340 H   0  0  0  0  0  0  0  0  0  0  0  0
   36.8800   21.4980   35.6380 O   0  0  0  0  0  0  0  0  0  0  0  0
   36.6260   22.0320   36.4560 H   0  0  0  0  0  0  0  0  0  0  0  0
  1  6  1  0  0  0  0
  2  8  1  0  0  0  0
  2  3  1  0  0  0  0
  3  9  1  0  0  0  0
  4  3  2  0  0  0  0
  4 12  1  0  0  0  0
  5  4  1  0  0  0  0
  6  7  1  0  0  0  0
  6  5  2  0  0  0  0
  7  2  2  0  0  0  0
 11 10  1  0  0  0  0
 11 16  1  0  0  0  0
 12 11  2  0  0  0  0
 13 12  1  0  0  0  0
 13 14  2  0  0  0  0
 14 15  1  0  0  0  0
 15 19  1  0  0  0  0
 15 16  2  0  0  0  0
 16 20  1  0  0  0  0
 17 13  1  0  0  0  0
 18 14  1  0  0  0  0
 21  1  1  0  0  0  0
 21 22  1  0  0  0  0
 23 21  1  0  0  0  0
 24 21  1  0  0  0  0
 24 27  1  0  0  0  0
 25 24  1  0  0  0  0
 26 24  1  0  0  0  0
 27 32  1  0  0  0  0
 28 29  1  0  0  0  0
 28 27  2  0  0  0  0
 29 30  2  0  0  0  0
 30 31  1  0  0  0  0
 31 35  1  0  0  0  0
 32 31  2  0  0  0  0
 33 28  1  0  0  0  0
 34 29  1  0  0  0  0
 35 36  1  0  0  0  0
 35 37  1  0  0  0  0
 35 38  1  0  0  0  0
 38 39  1  0  0  0  0
M  END
>  <minimizedAffinity>
-5.63882351

$$$$

 OpenBabel03272509593D

 39 41  0  0  0  0  0  0  0  0999 V2000
   35.8270   22.3940   31.6960 O   0  0  0  0  0  0  0  0  0  0  0  0
   35.2030   25.8600   30.9170 C   0  0  0  0  0  0  0  0  0  0  0  0
   36.1800   26.4760   31.7230 C   0  0  0  0  0  0  0  0  0  0  0  0
   37.0030   25.6500   32.4950 C   0  0  0  0  0  0  0  0  0  0  0  0
   36.7660   24.3160   32.3790 N   0  0  0  0  0  0  0  0  0  0  0  0
   35.8370   23.7440   31.6120 C   0  0  0  0  0  0  0  0  0  0  0  0
   35.0460   24.5530   30.8710 N   0  0  0  0  0  0  0  0  0  0  0  0
   34.5790   26.5480   30.3280 H   0  0  0  0  0  0  0  0  0  0  0  0
   36.3560   27.5450   31.8030 H   0  0  0  0  0  0  0  0  0  0  0  0
   36.8140   26.3510   35.2940 F   0  0  0  0  0  0  0  0  0  0  0  0
   37.9830   26.4280   34.6720 C   0  0  0  0  0  0  0  0  0  0  0  0
   38.0550   26.1000   33.3750 C   0  0  0  0  0  0  0  0  0  0  0  0
   39.3310   26.2130   32.8150 C   0  0  0  0  0  0  0  0  0  0  0  0
   40.4160   26.6270   33.5350 C   0  0  0  0  0  0  0  0  0  0  0  0
   40.3050   26.9590   34.8760 C   0  0  0  0  0  0  0  0  0  0  0  0
   39.0550   26.8490   35.4300 C   0  0  0  0  0  0  0  0  0  0  0  0
   39.5120   25.9760   31.7730 H   0  0  0  0  0  0  0  0  0  0  0  0
   41.3920   26.7060   33.0740 H   0  0  0  0  0  0  0  0  0  0  0  0
   41.1920   27.2810   35.4010 H   0  0  0  0  0  0  0  0  0  0  0  0
   38.9490   27.1010   36.4700 H   0  0  0  0  0  0  0  0  0  0  0  0
   37.0080   21.7140   32.0640 C   0  0  0  0  0  0  0  0  0  0  0  0
   37.8610   22.4460   32.0470 H   0  0  0  0  0  0  0  0  0  0  0  0
   37.1690   20.8600   31.3990 H   0  0  0  0  0  0  0  0  0  0  0  0
   36.9270   21.2070   33.4770 C   0  0  0  0  0  0  0  0  0  0  0  0
   37.1740   20.1380   33.4800 H   0  0  0  0  0  0  0  0  0  0  0  0
   35.8870   21.2610   33.8970 H   0  0  0  0  0  0  0  0  0  0  0  0
   37.8220   21.9510   34.4020 C   0  0  0  0  0  0  0  0  0  0  0  0
   39.0920   22.2800   33.9180 C   0  0  0  0  0  0  0  0  0  0  0  0
   39.9860   22.9680   34.7040 C   0  0  0  0  0  0  0  0  0  0  0  0
   39.6400   23.3260   35.9420 N   0  0  0  0  0  0  0  0  0  0  0  0
   38.3940   22.9910   36.3900 C   0  0  0  0  0  0  0  0  0  0  0  0
   37.4950   22.3190   35.6490 N   0  0  0  0  0  0  0  0  0  0  0  0
   39.4480   22.0300   32.9320 H   0  0  0  0  0  0  0  0  0  0  0  0
   40.9900   23.2480   34.3700 H   0  0  0  0  0  0  0  0  0  0  0  0
   38.0360   23.4040   37.7780 C   0  0  0  0  0  0  0  0  0  0  0  0
   38.2420   24.4810   37.9360 H   0  0  0  0  0  0  0  0  0  0  0  0
   37.0290   23.0850   38.0890 H   0  0  0  0  0  0  0  0  0  0  0  0
   38.9440   22.7010   38.6030 O   0  0  0  0  0  0  0  0  0  0  0  0
   39.2260   23.3050   39.3600 H   0  0  0  0  0  0  0  0  0  0  0  0
  1 21  1  0  0  0  0
  2  3  1  0  0  0  0
  3  9  1  0  0  0  0
  3  4  2  0  0  0  0
  4 12  1  0  0  0  0
  5  4  1  0  0  0  0
  6  1  1  0  0  0  0
  6  5  2  0  0  0  0
  7  2  2  0  0  0  0
  7  6  1  0  0  0  0
  8  2  1  0  0  0  0
 11 10  1  0  0  0  0
 11 16  1  0  0  0  0
 12 11  2  0  0  0  0
 13 12  1  0  0  0  0
 13 14  2  0  0  0  0
 14 15  1  0  0  0  0
 15 19  1  0  0  0  0
 15 16  2  0  0  0  0
 16 20  1  0  0  0  0
 17 13  1  0  0  0  0
 18 14  1  0  0  0  0
 21 24  1  0  0  0  0
 22 21  1  0  0  0  0
 23 21  1  0  0  0  0
 24 25  1  0  0  0  0
 24 26  1  0  0  0  0
 24 27  1  0  0  0  0
 27 32  1  0  0  0  0
 28 27  2  0  0  0  0
 28 29  1  0  0  0  0
 29 30  2  0  0  0  0
 30 31  1  0  0  0  0
 31 35  1  0  0  0  0
 32 31  2  0  0  0  0
 33 28  1  0  0  0  0
 34 29  1  0  0  0  0
 35 36  1  0  0  0  0
 35 37  1  0  0  0  0
 35 38  1  0  0  0  0
 38 39  1  0  0  0  0
M  END
>  <minimizedAffinity>
-5.5951395

$$$$

 OpenBabel03272509593D

 39 41  0  0  0  0  0  0  0  0999 V2000
   37.5230   26.4920   33.3000 O   0  0  0  0  0  0  0  0  0  0  0  0
   35.1080   25.4910   30.8130 C   0  0  0  0  0  0  0  0  0  0  0  0
   35.3330   24.1020   30.7930 C   0  0  0  0  0  0  0  0  0  0  0  0
   36.3140   23.5880   31.6470 C   0  0  0  0  0  0  0  0  0  0  0  0
   36.9560   24.5050   32.4190 N   0  0  0  0  0  0  0  0  0  0  0  0
   36.7340   25.8200   32.4290 C   0  0  0  0  0  0  0  0  0  0  0  0
   35.7830   26.3050   31.5990 N   0  0  0  0  0  0  0  0  0  0  0  0
   34.3280   25.8510   30.1270 H   0  0  0  0  0  0  0  0  0  0  0  0
   34.8100   23.3820   30.1690 H   0  0  0  0  0  0  0  0  0  0  0  0
   34.7940   21.4300   32.8300 F   0  0  0  0  0  0  0  0  0  0  0  0
   35.9890   21.1870   32.3070 C   0  0  0  0  0  0  0  0  0  0  0  0
   36.6810   22.1960   31.7630 C   0  0  0  0  0  0  0  0  0  0  0  0
   37.9260   21.8340   31.2390 C   0  0  0  0  0  0  0  0  0  0  0  0
   38.3970   20.5520   31.2820 C   0  0  0  0  0  0  0  0  0  0  0  0
   37.6540   19.5320   31.8530 C   0  0  0  0  0  0  0  0  0  0  0  0
   36.4320   19.8830   32.3670 C   0  0  0  0  0  0  0  0  0  0  0  0
   38.5760   22.5670   30.7740 H   0  0  0  0  0  0  0  0  0  0  0  0
   39.3650   20.3020   30.8680 H   0  0  0  0  0  0  0  0  0  0  0  0
   38.0700   18.5360   31.8620 H   0  0  0  0  0  0  0  0  0  0  0  0
   35.8400   19.1040   32.8150 H   0  0  0  0  0  0  0  0  0  0  0  0
   38.3850   25.7690   34.1530 C   0  0  0  0  0  0  0  0  0  0  0  0
   39.4000   26.2480   34.1230 H   0  0  0  0  0  0  0  0  0  0  0  0
   38.4040   24.7150   33.8570 H   0  0  0  0  0  0  0  0  0  0  0  0
   37.9300   25.8520   35.5840 C   0  0  0  0  0  0  0  0  0  0  0  0
   36.8340   25.8020   35.6060 H   0  0  0  0  0  0  0  0  0  0  0  0
   38.1810   26.8370   36.0610 H   0  0  0  0  0  0  0  0  0  0  0  0
   38.5180   24.7810   36.4320 C   0  0  0  0  0  0  0  0  0  0  0  0
   37.9480   24.5980   37.6960 C   0  0  0  0  0  0  0  0  0  0  0  0
   38.4270   23.6320   38.5480 C   0  0  0  0  0  0  0  0  0  0  0  0
   39.4460   22.8590   38.1660 N   0  0  0  0  0  0  0  0  0  0  0  0
   39.9830   23.0590   36.9270 C   0  0  0  0  0  0  0  0  0  0  0  0
   39.5400   23.9940   36.0680 N   0  0  0  0  0  0  0  0  0  0  0  0
   37.1250   25.1790   38.0800 H   0  0  0  0  0  0  0  0  0  0  0  0
   38.0150   23.4510   39.5460 H   0  0  0  0  0  0  0  0  0  0  0  0
   41.1210   22.1800   36.5290 C   0  0  0  0  0  0  0  0  0  0  0  0
   40.9800   21.7940   35.4990 H   0  0  0  0  0  0  0  0  0  0  0  0
   42.1100   22.6260   36.7140 H   0  0  0  0  0  0  0  0  0  0  0  0
   41.0260   21.0630   37.3890 O   0  0  0  0  0  0  0  0  0  0  0  0
   41.2550   20.2320   36.8650 H   0  0  0  0  0  0  0  0  0  0  0  0
  1 21  1  0  0  0  0
  2  7  1  0  0  0  0
  3  2  2  0  0  0  0
  3  4  1  0  0  0  0
  4 12  1  0  0  0  0
  4  5  2  0  0  0  0
  5  6  1  0  0  0  0
  6  1  1  0  0  0  0
  7  6  2  0  0  0  0
  8  2  1  0  0  0  0
  9  3  1  0  0  0  0
 11 16  1  0  0  0  0
 11 10  1  0  0  0  0
 12 11  2  0  0  0  0
 13 14  2  0  0  0  0
 13 12  1  0  0  0  0
 14 15  1  0  0  0  0
 15 19  1  0  0  0  0
 15 16  2  0  0  0  0
 16 20  1  0  0  0  0
 17 13  1  0  0  0  0
 18 14  1  0  0  0  0
 21 24  1  0  0  0  0
 22 21  1  0  0  0  0
 23 21  1  0  0  0  0
 24 25  1  0  0  0  0
 24 26  1  0  0  0  0
 24 27  1  0  0  0  0
 27 28  1  0  0  0  0
 28 33  1  0  0  0  0
 28 29  2  0  0  0  0
 29 34  1  0  0  0  0
 30 29  1  0  0  0  0
 31 30  2  0  0  0  0
 32 27  2  0  0  0  0
 32 31  1  0  0  0  0
 35 37  1  0  0  0  0
 35 31  1  0  0  0  0
 35 38  1  0  0  0  0
 36 35  1  0  0  0  0
 39 38  1  0  0  0  0
M  END
>  <minimizedAffinity>
-5.44490576

$$$$
