
 OpenBabel03272505333D

 28 29  0  0  1  0  0  0  0  0999 V2000
   37.3210   30.9870   49.5250 C   0  0  0  0  0  0  0  0  0  0  0  0
   37.4590   32.2680   50.0520 C   0  0  0  0  0  0  0  0  0  0  0  0
   38.0550   33.2610   49.2490 C   0  0  0  0  0  0  0  0  0  0  0  0
   38.4580   32.8940   47.9970 N   0  0  0  0  0  0  0  0  0  0  0  0
   38.3100   31.6590   47.5250 C   0  0  0  0  0  0  0  0  0  0  0  0
   37.7440   30.7010   48.2760 N   0  0  0  0  0  0  0  0  0  0  0  0
   38.7680   31.3930   46.2060 N   0  0  0  0  0  0  0  0  0  0  0  0
   40.1270   30.9370   45.9950 C   0  0  0  0  0  0  0  0  0  0  0  0
   40.7670   31.6340   44.8170 C   0  0  0  0  0  0  0  0  0  0  0  0
   39.9180   31.6700   43.6690 N   0  0  0  0  0  0  0  0  0  0  0  0
   38.6440   31.0470   43.8390 C   0  0  0  0  0  0  0  0  0  0  0  0
   37.8940   31.5690   45.0460 C   0  0  2  0  0  0  0  0  0  0  0  0
   37.1210   32.4890   51.0450 H   0  0  0  0  0  0  0  0  0  0  0  0
   38.1840   34.2720   49.6180 H   0  0  0  0  0  0  0  0  0  0  0  0
   40.7440   31.0760   46.8930 H   0  0  0  0  0  0  0  0  0  0  0  0
   40.0910   29.8430   45.7650 H   0  0  0  0  0  0  0  0  0  0  0  0
   41.7610   31.1990   44.6480 H   0  0  0  0  0  0  0  0  0  0  0  0
   40.9360   32.6940   45.1390 H   0  0  0  0  0  0  0  0  0  0  0  0
   40.4140   31.1590   42.9000 H   0  0  0  0  0  0  0  0  0  0  0  0
   38.6730   29.9450   43.9070 H   0  0  0  0  0  0  0  0  0  0  0  0
   38.0230   31.3090   42.9460 H   0  0  0  0  0  0  0  0  0  0  0  0
   37.0150   30.9240   45.1930 H   0  0  0  0  0  0  0  0  0  0  0  0
   36.6900   29.9320   50.3720 C   0  0  0  0  0  0  0  0  0  0  0  0
   35.2980   30.0860   50.3510 F   0  0  0  0  0  0  0  0  0  0  0  0
   37.1210   28.7230   49.9350 F   0  0  0  0  0  0  0  0  0  0  0  0
   37.0800   30.1790   51.6860 F   0  0  0  0  0  0  0  0  0  0  0  0
   37.5750   32.9080   44.8710 O   0  0  0  0  0  0  0  0  0  0  0  0
   37.5860   33.3650   45.7610 H   0  0  0  0  0  0  0  0  0  0  0  0
  1  2  1  0  0  0  0
  1 23  1  0  0  0  0
  2 13  1  0  0  0  0
  3 14  1  0  0  0  0
  3  2  2  0  0  0  0
  4  3  1  0  0  0  0
  5  4  2  0  0  0  0
  5  6  1  0  0  0  0
  6  1  2  0  0  0  0
  7  5  1  0  0  0  0
  8  7  1  0  0  0  0
  8 15  1  0  0  0  0
  9 18  1  0  0  0  0
  9  8  1  0  0  0  0
 10 11  1  0  0  0  0
 10  9  1  0  0  0  0
 11 20  1  0  0  0  0
 11 12  1  0  0  0  0
 12 22  1  1  0  0  0
 12  7  1  0  0  0  0
 16  8  1  0  0  0  0
 17  9  1  0  0  0  0
 19 10  1  0  0  0  0
 21 11  1  0  0  0  0
 23 26  1  0  0  0  0
 24 23  1  0  0  0  0
 25 23  1  0  0  0  0
 27 12  1  0  0  0  0
 27 28  1  0  0  0  0
M  END
>  <minimizedAffinity>
-6.20202637

>  <minimizedRMSD>
0.85438323

$$$$
