
 OpenBabel03272505353D

 28 29  0  0  1  0  0  0  0  0999 V2000
   37.3170   25.7210   33.2230 C   0  0  0  0  0  0  0  0  0  0  0  0
   37.0120   24.7260   32.3010 C   0  0  0  0  0  0  0  0  0  0  0  0
   37.3020   23.3890   32.6380 C   0  0  0  0  0  0  0  0  0  0  0  0
   37.8690   23.1610   33.8610 N   0  0  0  0  0  0  0  0  0  0  0  0
   38.1480   24.1390   34.7190 C   0  0  0  0  0  0  0  0  0  0  0  0
   37.8770   25.4170   34.4140 N   0  0  0  0  0  0  0  0  0  0  0  0
   38.7380   23.7820   35.9620 N   0  0  0  0  0  0  0  0  0  0  0  0
   40.1810   23.7340   36.0850 C   0  0  0  0  0  0  0  0  0  0  0  0
   40.6280   22.5160   36.8600 C   0  0  0  0  0  0  0  0  0  0  0  0
   39.8750   22.3170   38.0580 N   0  0  0  0  0  0  0  0  0  0  0  0
   38.8590   23.2910   38.3030 C   0  0  0  0  0  0  0  0  0  0  0  0
   37.9180   23.4600   37.1300 C   0  0  2  0  0  0  0  0  0  0  0  0
   36.5670   24.9730   31.3580 H   0  0  0  0  0  0  0  0  0  0  0  0
   37.0820   22.5800   31.9510 H   0  0  0  0  0  0  0  0  0  0  0  0
   40.6720   23.7530   35.1030 H   0  0  0  0  0  0  0  0  0  0  0  0
   40.5070   24.6390   36.6550 H   0  0  0  0  0  0  0  0  0  0  0  0
   41.7170   22.5660   36.9970 H   0  0  0  0  0  0  0  0  0  0  0  0
   40.4330   21.6360   36.1940 H   0  0  0  0  0  0  0  0  0  0  0  0
   40.5490   22.3620   38.8600 H   0  0  0  0  0  0  0  0  0  0  0  0
   39.2340   24.2900   38.5860 H   0  0  0  0  0  0  0  0  0  0  0  0
   38.2360   22.9150   39.1530 H   0  0  0  0  0  0  0  0  0  0  0  0
   37.2840   24.3340   37.3400 H   0  0  0  0  0  0  0  0  0  0  0  0
   37.0110   27.1400   32.8700 C   0  0  0  0  0  0  0  0  0  0  0  0
   38.1490   27.7390   32.3160 F   0  0  0  0  0  0  0  0  0  0  0  0
   35.9270   27.1490   32.0570 F   0  0  0  0  0  0  0  0  0  0  0  0
   36.7700   27.8120   34.0660 F   0  0  0  0  0  0  0  0  0  0  0  0
   37.1980   22.2930   36.9180 O   0  0  0  0  0  0  0  0  0  0  0  0
   37.0140   22.1960   35.9390 H   0  0  0  0  0  0  0  0  0  0  0  0
  1  6  1  0  0  0  0
  2  3  1  0  0  0  0
  2  1  2  0  0  0  0
  3  4  2  0  0  0  0
  4  5  1  0  0  0  0
  5  7  1  0  0  0  0
  6  5  2  0  0  0  0
  7  8  1  0  0  0  0
  7 12  1  0  0  0  0
  8 16  1  0  0  0  0
  8  9  1  0  0  0  0
  9 17  1  0  0  0  0
  9 10  1  0  0  0  0
 10 11  1  0  0  0  0
 10 19  1  0  0  0  0
 11 20  1  0  0  0  0
 11 21  1  0  0  0  0
 12 22  1  1  0  0  0
 12 11  1  0  0  0  0
 13  2  1  0  0  0  0
 14  3  1  0  0  0  0
 15  8  1  0  0  0  0
 18  9  1  0  0  0  0
 23  1  1  0  0  0  0
 23 26  1  0  0  0  0
 24 23  1  0  0  0  0
 25 23  1  0  0  0  0
 27 12  1  0  0  0  0
 28 27  1  0  0  0  0
M  END
>  <minimizedAffinity>
-5.32361507

$$$$

 OpenBabel03272505353D

 28 29  0  0  1  0  0  0  0  0999 V2000
   37.4710   23.8310   32.5620 C   0  0  0  0  0  0  0  0  0  0  0  0
   37.3000   22.5350   32.0880 C   0  0  0  0  0  0  0  0  0  0  0  0
   37.5440   21.4620   32.9690 C   0  0  0  0  0  0  0  0  0  0  0  0
   37.9350   21.7740   34.2410 N   0  0  0  0  0  0  0  0  0  0  0  0
   38.0890   23.0270   34.6600 C   0  0  0  0  0  0  0  0  0  0  0  0
   37.8590   24.0600   33.8350 N   0  0  0  0  0  0  0  0  0  0  0  0
   38.5000   23.2310   36.0060 N   0  0  0  0  0  0  0  0  0  0  0  0
   39.9120   23.3210   36.3200 C   0  0  0  0  0  0  0  0  0  0  0  0
   40.2510   22.5410   37.5690 C   0  0  0  0  0  0  0  0  0  0  0  0
   39.3380   22.7910   38.6400 N   0  0  0  0  0  0  0  0  0  0  0  0
   38.2950   23.7210   38.3410 C   0  0  0  0  0  0  0  0  0  0  0  0
   37.5260   23.3530   37.0900 C   0  0  2  0  0  0  0  0  0  0  0  0
   36.9900   22.3590   31.0770 H   0  0  0  0  0  0  0  0  0  0  0  0
   37.4250   20.4350   32.6440 H   0  0  0  0  0  0  0  0  0  0  0  0
   40.5350   22.9760   35.4840 H   0  0  0  0  0  0  0  0  0  0  0  0
   40.1530   24.3960   36.5130 H   0  0  0  0  0  0  0  0  0  0  0  0
   41.3090   22.7060   37.8110 H   0  0  0  0  0  0  0  0  0  0  0  0
   40.1530   21.4590   37.2950 H   0  0  0  0  0  0  0  0  0  0  0  0
   39.8940   23.1920   39.4340 H   0  0  0  0  0  0  0  0  0  0  0  0
   38.6240   24.7700   38.2430 H   0  0  0  0  0  0  0  0  0  0  0  0
   37.5600   23.6790   39.1840 H   0  0  0  0  0  0  0  0  0  0  0  0
   36.8660   24.1990   36.8480 H   0  0  0  0  0  0  0  0  0  0  0  0
   37.2120   24.9710   31.6320 C   0  0  0  0  0  0  0  0  0  0  0  0
   38.3120   25.8390   31.6400 F   0  0  0  0  0  0  0  0  0  0  0  0
   36.9150   24.4630   30.4110 F   0  0  0  0  0  0  0  0  0  0  0  0
   36.1510   25.6970   32.1660 F   0  0  0  0  0  0  0  0  0  0  0  0
   36.8470   22.1580   37.2770 O   0  0  0  0  0  0  0  0  0  0  0  0
   36.8020   21.6680   36.4050 H   0  0  0  0  0  0  0  0  0  0  0  0
  1  6  1  0  0  0  0
  2  1  2  0  0  0  0
  2  3  1  0  0  0  0
  3  4  2  0  0  0  0
  4  5  1  0  0  0  0
  5  7  1  0  0  0  0
  6  5  2  0  0  0  0
  7  8  1  0  0  0  0
  7 12  1  0  0  0  0
  8 16  1  0  0  0  0
  8  9  1  0  0  0  0
  9 17  1  0  0  0  0
  9 10  1  0  0  0  0
 10 19  1  0  0  0  0
 11 10  1  0  0  0  0
 11 21  1  0  0  0  0
 12 22  1  6  0  0  0
 12 27  1  0  0  0  0
 12 11  1  0  0  0  0
 13  2  1  0  0  0  0
 14  3  1  0  0  0  0
 15  8  1  0  0  0  0
 18  9  1  0  0  0  0
 20 11  1  0  0  0  0
 23 24  1  0  0  0  0
 23 26  1  0  0  0  0
 23  1  1  0  0  0  0
 25 23  1  0  0  0  0
 28 27  1  0  0  0  0
M  END
>  <minimizedAffinity>
-5.30169344

$$$$

 OpenBabel03272505353D

 28 29  0  0  1  0  0  0  0  0999 V2000
   38.8270   23.1330   37.2540 C   0  0  0  0  0  0  0  0  0  0  0  0
   40.1310   22.6490   37.2160 C   0  0  0  0  0  0  0  0  0  0  0  0
   40.6200   22.1370   35.9980 C   0  0  0  0  0  0  0  0  0  0  0  0
   39.7710   22.1530   34.9270 N   0  0  0  0  0  0  0  0  0  0  0  0
   38.5290   22.6230   35.0000 C   0  0  0  0  0  0  0  0  0  0  0  0
   38.0470   23.1150   36.1520 N   0  0  0  0  0  0  0  0  0  0  0  0
   37.7360   22.5880   33.8200 N   0  0  0  0  0  0  0  0  0  0  0  0
   36.9100   21.4300   33.5440 C   0  0  0  0  0  0  0  0  0  0  0  0
   36.9940   21.0260   32.0900 C   0  0  0  0  0  0  0  0  0  0  0  0
   36.8620   22.1350   31.2000 N   0  0  0  0  0  0  0  0  0  0  0  0
   36.6710   23.4010   31.8350 C   0  0  0  0  0  0  0  0  0  0  0  0
   37.7330   23.7010   32.8710 C   0  0  2  0  0  0  0  0  0  0  0  0
   40.7450   22.6660   38.0940 H   0  0  0  0  0  0  0  0  0  0  0  0
   41.6290   21.7490   35.9210 H   0  0  0  0  0  0  0  0  0  0  0  0
   37.1780   20.5800   34.1850 H   0  0  0  0  0  0  0  0  0  0  0  0
   35.8480   21.7070   33.7590 H   0  0  0  0  0  0  0  0  0  0  0  0
   36.2930   20.2000   31.9130 H   0  0  0  0  0  0  0  0  0  0  0  0
   38.0220   20.6040   31.9450 H   0  0  0  0  0  0  0  0  0  0  0  0
   36.0180   21.9560   30.6040 H   0  0  0  0  0  0  0  0  0  0  0  0
   35.6830   23.5360   32.3110 H   0  0  0  0  0  0  0  0  0  0  0  0
   36.7710   24.1880   31.0460 H   0  0  0  0  0  0  0  0  0  0  0  0
   37.4160   24.6010   33.4170 H   0  0  0  0  0  0  0  0  0  0  0  0
   38.3050   23.6760   38.5430 C   0  0  0  0  0  0  0  0  0  0  0  0
   37.9240   25.0130   38.3660 F   0  0  0  0  0  0  0  0  0  0  0  0
   37.3060   22.8670   38.9710 F   0  0  0  0  0  0  0  0  0  0  0  0
   39.3730   23.7010   39.4350 F   0  0  0  0  0  0  0  0  0  0  0  0
   38.9740   23.8310   32.2630 O   0  0  0  0  0  0  0  0  0  0  0  0
   39.6810   23.5060   32.8920 H   0  0  0  0  0  0  0  0  0  0  0  0
  1 23  1  0  0  0  0
  2  1  1  0  0  0  0
  2 13  1  0  0  0  0
  3  2  2  0  0  0  0
  4  5  2  0  0  0  0
  4  3  1  0  0  0  0
  5  6  1  0  0  0  0
  6  1  2  0  0  0  0
  7  5  1  0  0  0  0
  8 16  1  0  0  0  0
  8  7  1  0  0  0  0
  8 15  1  0  0  0  0
  9  8  1  0  0  0  0
 10 11  1  0  0  0  0
 10  9  1  0  0  0  0
 11 20  1  0  0  0  0
 11 12  1  0  0  0  0
 12 22  1  1  0  0  0
 12  7  1  0  0  0  0
 14  3  1  0  0  0  0
 17  9  1  0  0  0  0
 18  9  1  0  0  0  0
 19 10  1  0  0  0  0
 21 11  1  0  0  0  0
 23 25  1  0  0  0  0
 23 26  1  0  0  0  0
 24 23  1  0  0  0  0
 27 12  1  0  0  0  0
 27 28  1  0  0  0  0
M  END
>  <minimizedAffinity>
-5.04225159

$$$$

 OpenBabel03272505353D

 28 29  0  0  1  0  0  0  0  0999 V2000
   38.1610   25.0970   36.3990 C   0  0  0  0  0  0  0  0  0  0  0  0
   38.3070   26.4690   36.5790 C   0  0  0  0  0  0  0  0  0  0  0  0
   38.3540   27.2920   35.4360 C   0  0  0  0  0  0  0  0  0  0  0  0
   38.2510   26.6800   34.2190 N   0  0  0  0  0  0  0  0  0  0  0  0
   38.1130   25.3640   34.0840 C   0  0  0  0  0  0  0  0  0  0  0  0
   38.0650   24.5650   35.1620 N   0  0  0  0  0  0  0  0  0  0  0  0
   38.0160   24.8370   32.7670 N   0  0  0  0  0  0  0  0  0  0  0  0
   39.2170   24.4330   32.0650 C   0  0  0  0  0  0  0  0  0  0  0  0
   39.1930   24.8860   30.6240 C   0  0  0  0  0  0  0  0  0  0  0  0
   37.9490   24.6100   29.9780 N   0  0  0  0  0  0  0  0  0  0  0  0
   36.9740   23.9610   30.7970 C   0  0  0  0  0  0  0  0  0  0  0  0
   36.7230   24.6930   32.0980 C   0  0  2  0  0  0  0  0  0  0  0  0
   38.3820   26.8860   37.5630 H   0  0  0  0  0  0  0  0  0  0  0  0
   38.4660   28.3670   35.5270 H   0  0  0  0  0  0  0  0  0  0  0  0
   40.1220   24.8090   32.5610 H   0  0  0  0  0  0  0  0  0  0  0  0
   39.2570   23.3150   32.0700 H   0  0  0  0  0  0  0  0  0  0  0  0
   40.0810   24.4880   30.1150 H   0  0  0  0  0  0  0  0  0  0  0  0
   39.3150   26.0000   30.6480 H   0  0  0  0  0  0  0  0  0  0  0  0
   38.1530   23.9720   29.1720 H   0  0  0  0  0  0  0  0  0  0  0  0
   37.1980   22.9070   31.0370 H   0  0  0  0  0  0  0  0  0  0  0  0
   36.0050   23.9770   30.2370 H   0  0  0  0  0  0  0  0  0  0  0  0
   36.0960   24.0440   32.7260 H   0  0  0  0  0  0  0  0  0  0  0  0
   38.1110   24.2210   37.6070 C   0  0  0  0  0  0  0  0  0  0  0  0
   38.0030   25.0160   38.7560 F   0  0  0  0  0  0  0  0  0  0  0  0
   37.0970   23.3360   37.4470 F   0  0  0  0  0  0  0  0  0  0  0  0
   39.3470   23.5860   37.6990 F   0  0  0  0  0  0  0  0  0  0  0  0
   36.1570   25.9360   31.8500 O   0  0  0  0  0  0  0  0  0  0  0  0
   36.4670   26.5810   32.5490 H   0  0  0  0  0  0  0  0  0  0  0  0
  1  2  1  0  0  0  0
  1 23  1  0  0  0  0
  2 13  1  0  0  0  0
  3 14  1  0  0  0  0
  3  2  2  0  0  0  0
  4  3  1  0  0  0  0
  5  4  2  0  0  0  0
  5  6  1  0  0  0  0
  6  1  2  0  0  0  0
  7  5  1  0  0  0  0
  8 16  1  0  0  0  0
  8 15  1  0  0  0  0
  8  7  1  0  0  0  0
  9 18  1  0  0  0  0
  9  8  1  0  0  0  0
 10  9  1  0  0  0  0
 10 11  1  0  0  0  0
 11 20  1  0  0  0  0
 11 12  1  0  0  0  0
 12 22  1  1  0  0  0
 12  7  1  0  0  0  0
 17  9  1  0  0  0  0
 19 10  1  0  0  0  0
 21 11  1  0  0  0  0
 23 26  1  0  0  0  0
 23 24  1  0  0  0  0
 25 23  1  0  0  0  0
 27 12  1  0  0  0  0
 27 28  1  0  0  0  0
M  END
>  <minimizedAffinity>
-4.9927597

$$$$

 OpenBabel03272505353D

 28 29  0  0  1  0  0  0  0  0999 V2000
   38.1470   24.0070   36.9050 C   0  0  0  0  0  0  0  0  0  0  0  0
   38.1260   25.3230   36.4550 C   0  0  0  0  0  0  0  0  0  0  0  0
   38.1300   25.5550   35.0650 C   0  0  0  0  0  0  0  0  0  0  0  0
   38.1540   24.4600   34.2480 N   0  0  0  0  0  0  0  0  0  0  0  0
   38.1730   23.2140   34.7140 C   0  0  0  0  0  0  0  0  0  0  0  0
   38.1690   22.9750   36.0350 N   0  0  0  0  0  0  0  0  0  0  0  0
   38.1970   22.1520   33.7690 N   0  0  0  0  0  0  0  0  0  0  0  0
   39.4680   21.6290   33.3080 C   0  0  0  0  0  0  0  0  0  0  0  0
   39.4580   21.3920   31.8150 C   0  0  0  0  0  0  0  0  0  0  0  0
   38.2840   20.7080   31.3730 N   0  0  0  0  0  0  0  0  0  0  0  0
   37.3530   20.3740   32.4040 C   0  0  0  0  0  0  0  0  0  0  0  0
   36.9610   21.5690   33.2470 C   0  0  2  0  0  0  0  0  0  0  0  0
   38.1080   26.1380   37.1500 H   0  0  0  0  0  0  0  0  0  0  0  0
   38.1150   26.5630   34.6670 H   0  0  0  0  0  0  0  0  0  0  0  0
   40.3000   22.2940   33.5750 H   0  0  0  0  0  0  0  0  0  0  0  0
   39.6350   20.6430   33.8080 H   0  0  0  0  0  0  0  0  0  0  0  0
   40.4070   20.9220   31.5270 H   0  0  0  0  0  0  0  0  0  0  0  0
   39.4500   22.4070   31.3410 H   0  0  0  0  0  0  0  0  0  0  0  0
   38.5960   19.8090   30.9320 H   0  0  0  0  0  0  0  0  0  0  0  0
   37.6860   19.5710   33.0850 H   0  0  0  0  0  0  0  0  0  0  0  0
   36.4160   20.0210   31.9050 H   0  0  0  0  0  0  0  0  0  0  0  0
   36.3850   21.1920   34.1040 H   0  0  0  0  0  0  0  0  0  0  0  0
   38.1420   23.7570   38.3770 C   0  0  0  0  0  0  0  0  0  0  0  0
   37.9340   24.9650   39.0550 F   0  0  0  0  0  0  0  0  0  0  0  0
   37.2140   22.8050   38.6430 F   0  0  0  0  0  0  0  0  0  0  0  0
   39.4260   23.3430   38.7220 F   0  0  0  0  0  0  0  0  0  0  0  0
   36.2690   22.4940   32.4780 O   0  0  0  0  0  0  0  0  0  0  0  0
   36.4700   23.4140   32.8140 H   0  0  0  0  0  0  0  0  0  0  0  0
  1 23  1  0  0  0  0
  2  1  1  0  0  0  0
  2 13  1  0  0  0  0
  3  2  2  0  0  0  0
  4  5  2  0  0  0  0
  4  3  1  0  0  0  0
  5  6  1  0  0  0  0
  6  1  2  0  0  0  0
  7  5  1  0  0  0  0
  8 15  1  0  0  0  0
  8  7  1  0  0  0  0
  8 16  1  0  0  0  0
  9  8  1  0  0  0  0
 10  9  1  0  0  0  0
 10 11  1  0  0  0  0
 11 20  1  0  0  0  0
 11 12  1  0  0  0  0
 12  7  1  0  0  0  0
 12 22  1  1  0  0  0
 14  3  1  0  0  0  0
 17  9  1  0  0  0  0
 18  9  1  0  0  0  0
 19 10  1  0  0  0  0
 21 11  1  0  0  0  0
 23 25  1  0  0  0  0
 23 26  1  0  0  0  0
 23 24  1  0  0  0  0
 27 28  1  0  0  0  0
 27 12  1  0  0  0  0
M  END
>  <minimizedAffinity>
-4.97021246

$$$$

 OpenBabel03272505353D

 28 29  0  0  1  0  0  0  0  0999 V2000
   38.8540   23.7620   36.5180 C   0  0  0  0  0  0  0  0  0  0  0  0
   40.2000   23.4910   36.2950 C   0  0  0  0  0  0  0  0  0  0  0  0
   40.6850   23.5520   34.9730 C   0  0  0  0  0  0  0  0  0  0  0  0
   39.7900   23.8770   33.9930 N   0  0  0  0  0  0  0  0  0  0  0  0
   38.5080   24.1310   34.2430 C   0  0  0  0  0  0  0  0  0  0  0  0
   38.0300   24.0780   35.4970 N   0  0  0  0  0  0  0  0  0  0  0  0
   37.6700   24.4580   33.1430 N   0  0  0  0  0  0  0  0  0  0  0  0
   36.9640   23.4060   32.4390 C   0  0  0  0  0  0  0  0  0  0  0  0
   37.0240   23.6070   30.9430 C   0  0  0  0  0  0  0  0  0  0  0  0
   36.7280   24.9500   30.5540 N   0  0  0  0  0  0  0  0  0  0  0  0
   36.4290   25.8400   31.6310 C   0  0  0  0  0  0  0  0  0  0  0  0
   37.4990   25.8420   32.7010 C   0  0  2  0  0  0  0  0  0  0  0  0
   40.8500   23.2420   37.1110 H   0  0  0  0  0  0  0  0  0  0  0  0
   41.7260   23.3480   34.7510 H   0  0  0  0  0  0  0  0  0  0  0  0
   37.3540   22.4130   32.6990 H   0  0  0  0  0  0  0  0  0  0  0  0
   35.8890   23.4490   32.7460 H   0  0  0  0  0  0  0  0  0  0  0  0
   36.4110   22.8360   30.4590 H   0  0  0  0  0  0  0  0  0  0  0  0
   38.0850   23.4010   30.6450 H   0  0  0  0  0  0  0  0  0  0  0  0
   35.8820   24.9150   29.9350 H   0  0  0  0  0  0  0  0  0  0  0  0
   35.4560   25.6610   32.1220 H   0  0  0  0  0  0  0  0  0  0  0  0
   36.4050   26.8760   31.2100 H   0  0  0  0  0  0  0  0  0  0  0  0
   37.1110   26.4170   33.5550 H   0  0  0  0  0  0  0  0  0  0  0  0
   38.3360   23.7000   37.9180 C   0  0  0  0  0  0  0  0  0  0  0  0
   38.0540   24.9950   38.3690 F   0  0  0  0  0  0  0  0  0  0  0  0
   37.2720   22.8600   37.9390 F   0  0  0  0  0  0  0  0  0  0  0  0
   39.3800   23.2380   38.7160 F   0  0  0  0  0  0  0  0  0  0  0  0
   38.6880   26.3440   32.1920 O   0  0  0  0  0  0  0  0  0  0  0  0
   39.4550   25.8890   32.6440 H   0  0  0  0  0  0  0  0  0  0  0  0
  1 23  1  0  0  0  0
  2  1  1  0  0  0  0
  2 13  1  0  0  0  0
  3  2  2  0  0  0  0
  4  5  2  0  0  0  0
  4  3  1  0  0  0  0
  5  6  1  0  0  0  0
  6  1  2  0  0  0  0
  7  5  1  0  0  0  0
  8 15  1  0  0  0  0
  8 16  1  0  0  0  0
  8  7  1  0  0  0  0
  9  8  1  0  0  0  0
 10  9  1  0  0  0  0
 10 11  1  0  0  0  0
 11 20  1  0  0  0  0
 11 12  1  0  0  0  0
 12  7  1  0  0  0  0
 12 22  1  1  0  0  0
 14  3  1  0  0  0  0
 17  9  1  0  0  0  0
 18  9  1  0  0  0  0
 19 10  1  0  0  0  0
 21 11  1  0  0  0  0
 23 25  1  0  0  0  0
 23 24  1  0  0  0  0
 23 26  1  0  0  0  0
 27 28  1  0  0  0  0
 27 12  1  0  0  0  0
M  END
>  <minimizedAffinity>
-4.93450832

$$$$

 OpenBabel03272505353D

 28 29  0  0  1  0  0  0  0  0999 V2000
   37.1380   24.4540   32.4010 C   0  0  0  0  0  0  0  0  0  0  0  0
   37.2450   25.8400   32.4700 C   0  0  0  0  0  0  0  0  0  0  0  0
   37.8510   26.4090   33.6070 C   0  0  0  0  0  0  0  0  0  0  0  0
   38.2960   25.5510   34.5740 N   0  0  0  0  0  0  0  0  0  0  0  0
   38.1760   24.2300   34.4760 C   0  0  0  0  0  0  0  0  0  0  0  0
   37.6030   23.6710   33.3980 N   0  0  0  0  0  0  0  0  0  0  0  0
   38.6760   23.4370   35.5440 N   0  0  0  0  0  0  0  0  0  0  0  0
   37.8040   23.0850   36.6470 C   0  0  0  0  0  0  0  0  0  0  0  0
   38.5090   23.2250   37.9750 C   0  0  0  0  0  0  0  0  0  0  0  0
   39.8110   22.6360   37.9740 N   0  0  0  0  0  0  0  0  0  0  0  0
   40.1990   22.0280   36.7410 C   0  0  0  0  0  0  0  0  0  0  0  0
   40.0600   22.9640   35.5590 C   0  0  2  0  0  0  0  0  0  0  0  0
   36.8750   26.4560   31.6750 H   0  0  0  0  0  0  0  0  0  0  0  0
   37.9560   27.4830   33.7050 H   0  0  0  0  0  0  0  0  0  0  0  0
   36.8860   23.6880   36.6450 H   0  0  0  0  0  0  0  0  0  0  0  0
   37.5150   22.0110   36.5260 H   0  0  0  0  0  0  0  0  0  0  0  0
   37.8390   22.8710   38.7690 H   0  0  0  0  0  0  0  0  0  0  0  0
   38.6430   24.3250   38.1410 H   0  0  0  0  0  0  0  0  0  0  0  0
   39.8130   21.8850   38.7050 H   0  0  0  0  0  0  0  0  0  0  0  0
   39.6650   21.0920   36.4990 H   0  0  0  0  0  0  0  0  0  0  0  0
   41.2870   21.7810   36.8190 H   0  0  0  0  0  0  0  0  0  0  0  0
   40.2160   22.3690   34.6470 H   0  0  0  0  0  0  0  0  0  0  0  0
   36.4970   23.8470   31.1970 C   0  0  0  0  0  0  0  0  0  0  0  0
   36.2480   22.4890   31.4360 F   0  0  0  0  0  0  0  0  0  0  0  0
   35.3900   24.5690   30.8960 F   0  0  0  0  0  0  0  0  0  0  0  0
   37.4390   23.8870   30.1730 F   0  0  0  0  0  0  0  0  0  0  0  0
   40.9420   24.0280   35.6820 O   0  0  0  0  0  0  0  0  0  0  0  0
   40.5300   24.8420   35.2710 H   0  0  0  0  0  0  0  0  0  0  0  0
  1  2  2  0  0  0  0
  1  6  1  0  0  0  0
  2  3  1  0  0  0  0
  3 14  1  0  0  0  0
  3  4  2  0  0  0  0
  5  4  1  0  0  0  0
  5  7  1  0  0  0  0
  6  5  2  0  0  0  0
  7 12  1  0  0  0  0
  7  8  1  0  0  0  0
  8  9  1  0  0  0  0
  9 18  1  0  0  0  0
  9 17  1  0  0  0  0
 10  9  1  0  0  0  0
 10 19  1  0  0  0  0
 11 21  1  0  0  0  0
 11 10  1  0  0  0  0
 12 22  1  6  0  0  0
 12 27  1  0  0  0  0
 12 11  1  0  0  0  0
 13  2  1  0  0  0  0
 15  8  1  0  0  0  0
 16  8  1  0  0  0  0
 20 11  1  0  0  0  0
 23 24  1  0  0  0  0
 23  1  1  0  0  0  0
 25 23  1  0  0  0  0
 26 23  1  0  0  0  0
 28 27  1  0  0  0  0
M  END
>  <minimizedAffinity>
-4.86628199

$$$$

 OpenBabel03272505353D

 28 29  0  0  1  0  0  0  0  0999 V2000
   38.1570   23.5510   36.6880 C   0  0  0  0  0  0  0  0  0  0  0  0
   37.9190   22.2780   36.1820 C   0  0  0  0  0  0  0  0  0  0  0  0
   37.8110   22.1220   34.7850 C   0  0  0  0  0  0  0  0  0  0  0  0
   37.9490   23.2450   34.0180 N   0  0  0  0  0  0  0  0  0  0  0  0
   38.1770   24.4480   34.5370 C   0  0  0  0  0  0  0  0  0  0  0  0
   38.2830   24.6140   35.8650 N   0  0  0  0  0  0  0  0  0  0  0  0
   38.3020   25.5440   33.6410 N   0  0  0  0  0  0  0  0  0  0  0  0
   37.1280   26.3090   33.2710 C   0  0  0  0  0  0  0  0  0  0  0  0
   37.1130   26.6170   31.7920 C   0  0  0  0  0  0  0  0  0  0  0  0
   38.3700   27.1020   31.3160 N   0  0  0  0  0  0  0  0  0  0  0  0
   39.3920   27.2110   32.3100 C   0  0  0  0  0  0  0  0  0  0  0  0
   39.5980   25.9230   33.0790 C   0  0  2  0  0  0  0  0  0  0  0  0
   37.8210   21.4380   36.8400 H   0  0  0  0  0  0  0  0  0  0  0  0
   37.6260   21.1490   34.3450 H   0  0  0  0  0  0  0  0  0  0  0  0
   36.2020   25.7910   33.5540 H   0  0  0  0  0  0  0  0  0  0  0  0
   37.1640   27.2820   33.8210 H   0  0  0  0  0  0  0  0  0  0  0  0
   36.2530   27.2630   31.5750 H   0  0  0  0  0  0  0  0  0  0  0  0
   36.9160   25.6430   31.2740 H   0  0  0  0  0  0  0  0  0  0  0  0
   38.2070   28.0630   30.9320 H   0  0  0  0  0  0  0  0  0  0  0  0
   39.2410   28.0240   33.0410 H   0  0  0  0  0  0  0  0  0  0  0  0
   40.3540   27.4160   31.7770 H   0  0  0  0  0  0  0  0  0  0  0  0
   40.2720   26.1460   33.9190 H   0  0  0  0  0  0  0  0  0  0  0  0
   38.2730   23.7210   38.1670 C   0  0  0  0  0  0  0  0  0  0  0  0
   39.5270   23.2630   38.5930 F   0  0  0  0  0  0  0  0  0  0  0  0
   38.0270   25.0190   38.4660 F   0  0  0  0  0  0  0  0  0  0  0  0
   37.3400   22.8660   38.7470 F   0  0  0  0  0  0  0  0  0  0  0  0
   40.0770   24.9310   32.2350 O   0  0  0  0  0  0  0  0  0  0  0  0
   39.7280   24.0450   32.5430 H   0  0  0  0  0  0  0  0  0  0  0  0
  1 23  1  0  0  0  0
  2  1  1  0  0  0  0
  2 13  1  0  0  0  0
  3  2  2  0  0  0  0
  4  5  2  0  0  0  0
  4  3  1  0  0  0  0
  5  6  1  0  0  0  0
  6  1  2  0  0  0  0
  7  5  1  0  0  0  0
  8 15  1  0  0  0  0
  8  7  1  0  0  0  0
  8 16  1  0  0  0  0
  9  8  1  0  0  0  0
 10  9  1  0  0  0  0
 10 11  1  0  0  0  0
 11 20  1  0  0  0  0
 11 12  1  0  0  0  0
 12  7  1  0  0  0  0
 12 22  1  1  0  0  0
 14  3  1  0  0  0  0
 17  9  1  0  0  0  0
 18  9  1  0  0  0  0
 19 10  1  0  0  0  0
 21 11  1  0  0  0  0
 23 25  1  0  0  0  0
 23 24  1  0  0  0  0
 23 26  1  0  0  0  0
 27 28  1  0  0  0  0
 27 12  1  0  0  0  0
M  END
>  <minimizedAffinity>
-4.7942276

$$$$

 OpenBabel03272505353D

 28 29  0  0  1  0  0  0  0  0999 V2000
   36.0700   23.4580   31.7760 C   0  0  0  0  0  0  0  0  0  0  0  0
   35.3630   24.3640   30.9910 C   0  0  0  0  0  0  0  0  0  0  0  0
   35.5910   25.7400   31.1880 C   0  0  0  0  0  0  0  0  0  0  0  0
   36.4990   26.0930   32.1460 N   0  0  0  0  0  0  0  0  0  0  0  0
   37.1570   25.2000   32.8790 C   0  0  0  0  0  0  0  0  0  0  0  0
   36.9530   23.8850   32.7040 N   0  0  0  0  0  0  0  0  0  0  0  0
   38.0790   25.6840   33.8460 N   0  0  0  0  0  0  0  0  0  0  0  0
   37.6290   25.9470   35.1990 C   0  0  0  0  0  0  0  0  0  0  0  0
   38.1950   27.2450   35.7270 C   0  0  0  0  0  0  0  0  0  0  0  0
   39.5960   27.3770   35.4800 N   0  0  0  0  0  0  0  0  0  0  0  0
   40.1970   26.2750   34.7960 C   0  0  0  0  0  0  0  0  0  0  0  0
   39.4810   25.9270   33.5090 C   0  0  2  0  0  0  0  0  0  0  0  0
   34.6640   24.0190   30.2560 H   0  0  0  0  0  0  0  0  0  0  0  0
   35.0630   26.4820   30.6000 H   0  0  0  0  0  0  0  0  0  0  0  0
   36.5330   25.9630   35.2650 H   0  0  0  0  0  0  0  0  0  0  0  0
   38.0050   25.1200   35.8520 H   0  0  0  0  0  0  0  0  0  0  0  0
   37.8950   27.3590   36.7770 H   0  0  0  0  0  0  0  0  0  0  0  0
   37.6790   28.0610   35.1590 H   0  0  0  0  0  0  0  0  0  0  0  0
   40.0690   27.4600   36.4120 H   0  0  0  0  0  0  0  0  0  0  0  0
   40.2880   25.3530   35.3960 H   0  0  0  0  0  0  0  0  0  0  0  0
   41.2310   26.5870   34.5060 H   0  0  0  0  0  0  0  0  0  0  0  0
   39.9020   24.9780   33.1440 H   0  0  0  0  0  0  0  0  0  0  0  0
   35.8320   21.9980   31.5710 C   0  0  0  0  0  0  0  0  0  0  0  0
   37.0570   21.3520   31.3580 F   0  0  0  0  0  0  0  0  0  0  0  0
   35.1340   21.5280   32.6330 F   0  0  0  0  0  0  0  0  0  0  0  0
   35.1210   21.8670   30.3810 F   0  0  0  0  0  0  0  0  0  0  0  0
   39.5940   26.9680   32.5980 O   0  0  0  0  0  0  0  0  0  0  0  0
   38.7680   27.0010   32.0360 H   0  0  0  0  0  0  0  0  0  0  0  0
  1  6  1  0  0  0  0
  2  3  1  0  0  0  0
  2  1  2  0  0  0  0
  3  4  2  0  0  0  0
  4  5  1  0  0  0  0
  5  7  1  0  0  0  0
  6  5  2  0  0  0  0
  7  8  1  0  0  0  0
  8 15  1  0  0  0  0
  8  9  1  0  0  0  0
  8 16  1  0  0  0  0
  9 17  1  0  0  0  0
 10  9  1  0  0  0  0
 10 19  1  0  0  0  0
 11 20  1  0  0  0  0
 11 10  1  0  0  0  0
 12 22  1  6  0  0  0
 12  7  1  0  0  0  0
 12 11  1  0  0  0  0
 13  2  1  0  0  0  0
 14  3  1  0  0  0  0
 18  9  1  0  0  0  0
 21 11  1  0  0  0  0
 23  1  1  0  0  0  0
 23 25  1  0  0  0  0
 24 23  1  0  0  0  0
 26 23  1  0  0  0  0
 27 12  1  0  0  0  0
 28 27  1  0  0  0  0
M  END
>  <minimizedAffinity>
-4.70393324

$$$$
