
 OpenBabel03272509033D

 26 27  0  0  0  0  0  0  0  0999 V2000
   33.2900   27.4090   47.9280 C   0  0  0  0  0  0  0  0  0  0  0  0
   32.6840   26.9970   48.7560 H   0  0  0  0  0  0  0  0  0  0  0  0
   32.6460   28.1370   47.3600 H   0  0  0  0  0  0  0  0  0  0  0  0
   33.7260   26.3430   46.9860 C   0  0  0  0  0  0  0  0  0  0  0  0
   33.9790   25.0420   47.3320 C   0  0  0  0  0  0  0  0  0  0  0  0
   34.3800   24.1180   46.3920 C   0  0  0  0  0  0  0  0  0  0  0  0
   34.5420   24.4720   45.0570 C   0  0  0  0  0  0  0  0  0  0  0  0
   34.2950   25.7620   44.6900 C   0  0  0  0  0  0  0  0  0  0  0  0
   33.8960   26.6680   45.6460 C   0  0  0  0  0  0  0  0  0  0  0  0
   33.8430   24.7920   48.3950 H   0  0  0  0  0  0  0  0  0  0  0  0
   34.5660   23.1110   46.7130 H   0  0  0  0  0  0  0  0  0  0  0  0
   34.8580   23.7060   44.3630 H   0  0  0  0  0  0  0  0  0  0  0  0
   34.4160   26.0630   43.6390 H   0  0  0  0  0  0  0  0  0  0  0  0
   33.7070   27.6870   45.3230 H   0  0  0  0  0  0  0  0  0  0  0  0
   34.7620   28.3460   49.7080 C   0  0  0  0  0  0  0  0  0  0  0  0
   34.4180   28.1830   48.4660 C   0  0  0  0  0  0  0  0  0  0  0  0
   37.3370   30.2600   51.4700 C   0  0  0  0  0  0  0  0  0  0  0  0
   38.1470   30.7010   50.4010 C   0  0  0  0  0  0  0  0  0  0  0  0
   37.7660   30.3140   49.0800 C   0  0  0  0  0  0  0  0  0  0  0  0
   36.6550   29.5500   48.9500 N   0  0  0  0  0  0  0  0  0  0  0  0
   35.9210   29.1580   50.0020 C   0  0  0  0  0  0  0  0  0  0  0  0
   36.2620   29.5100   51.2390 N   0  0  0  0  0  0  0  0  0  0  0  0
   37.6770   30.5840   52.4330 H   0  0  0  0  0  0  0  0  0  0  0  0
   39.0390   31.3110   50.4690 H   0  0  0  0  0  0  0  0  0  0  0  0
   38.4980   30.7000   47.9670 O   0  0  0  0  0  0  0  0  0  0  0  0
   39.2940   31.3460   48.0690 H   0  0  0  0  0  0  0  0  0  0  0  0
  1 16  1  0  0  0  0
  1  2  1  0  0  0  0
  3  1  1  0  0  0  0
  4  5  1  0  0  0  0
  4  1  1  0  0  0  0
  5 10  1  0  0  0  0
  6 11  1  0  0  0  0
  6  5  2  0  0  0  0
  7  6  1  0  0  0  0
  8  7  2  0  0  0  0
  8  9  1  0  0  0  0
  9  4  2  0  0  0  0
 12  7  1  0  0  0  0
 13  8  1  0  0  0  0
 14  9  1  0  0  0  0
 15 21  1  0  0  0  0
 16 15  2  0  0  0  0
 17 23  1  0  0  0  0
 18 24  1  0  0  0  0
 18 17  2  0  0  0  0
 19 18  1  0  0  0  0
 20 19  2  0  0  0  0
 20 21  1  0  0  0  0
 21 22  2  0  0  0  0
 22 17  1  0  0  0  0
 25 26  1  0  0  0  0
 25 19  1  0  0  0  0
M  END
>  <minimizedAffinity>
-5.06662083

>  <minimizedRMSD>
0.124188669

$$$$
