
 OpenBabel03272510133D

 34 36  0  0  0  0  0  0  0  0999 V2000
   33.9550   28.8220   48.3650 C   0  0  0  0  0  0  0  0  0  0  0  0
   34.6490   28.2950   49.3930 C   0  0  0  0  0  0  0  0  0  0  0  0
   35.8370   28.7990   49.8790 C   0  0  0  0  0  0  0  0  0  0  0  0
   36.3860   29.9100   49.3080 C   0  0  0  0  0  0  0  0  0  0  0  0
   35.6760   30.4660   48.2440 C   0  0  0  0  0  0  0  0  0  0  0  0
   34.5260   29.9290   47.8180 N   0  0  0  0  0  0  0  0  0  0  0  0
   34.2890   27.4090   49.9080 H   0  0  0  0  0  0  0  0  0  0  0  0
   36.3950   28.3730   50.7070 H   0  0  0  0  0  0  0  0  0  0  0  0
   36.0530   31.3520   47.7420 H   0  0  0  0  0  0  0  0  0  0  0  0
   31.9170   27.4010   48.5510 C   0  0  0  0  0  0  0  0  0  0  0  0
   32.7360   28.2900   47.8460 C   0  0  0  0  0  0  0  0  0  0  0  0
   32.3240   28.6360   46.5770 C   0  0  0  0  0  0  0  0  0  0  0  0
   31.1680   28.1170   46.0640 N   0  0  0  0  0  0  0  0  0  0  0  0
   30.4150   27.2590   46.7930 C   0  0  0  0  0  0  0  0  0  0  0  0
   30.7740   26.8890   48.0410 N   0  0  0  0  0  0  0  0  0  0  0  0
   32.2020   27.1020   49.5500 H   0  0  0  0  0  0  0  0  0  0  0  0
   32.9280   29.3250   45.9890 H   0  0  0  0  0  0  0  0  0  0  0  0
   29.5030   26.8650   46.3580 H   0  0  0  0  0  0  0  0  0  0  0  0
   37.5750   30.5500   49.6690 O   0  0  0  0  0  0  0  0  0  0  0  0
   38.2290   31.4100   48.8100 C   0  0  0  0  0  0  0  0  0  0  0  0
   38.4200   32.6720   49.3380 C   0  0  0  0  0  0  0  0  0  0  0  0
   39.0880   33.4280   48.3670 C   0  0  0  0  0  0  0  0  0  0  0  0
   39.2730   32.6110   47.3080 N   0  0  0  0  0  0  0  0  0  0  0  0
   38.7720   31.4370   47.5700 N   0  0  0  0  0  0  0  0  0  0  0  0
   38.1930   33.1960   50.2670 H   0  0  0  0  0  0  0  0  0  0  0  0
   39.4280   34.4680   48.3780 H   0  0  0  0  0  0  0  0  0  0  0  0
   39.9300   32.9830   46.0720 C   0  0  0  0  0  0  0  0  0  0  0  0
   39.2570   33.4700   45.3530 H   0  0  0  0  0  0  0  0  0  0  0  0
   40.7800   33.6480   46.3700 H   0  0  0  0  0  0  0  0  0  0  0  0
   40.5690   31.7190   45.5160 C   0  0  0  0  0  0  0  0  0  0  0  0
   39.8590   30.8780   45.7580 H   0  0  0  0  0  0  0  0  0  0  0  0
   41.5380   31.5790   46.0110 H   0  0  0  0  0  0  0  0  0  0  0  0
   40.6270   31.7500   44.1270 O   0  0  0  0  0  0  0  0  0  0  0  0
   40.8400   30.8340   43.8120 H   0  0  0  0  0  0  0  0  0  0  0  0
  1  2  1  0  0  0  0
  2  3  2  0  0  0  0
  2  7  1  0  0  0  0
  3  8  1  0  0  0  0
  4 19  1  0  0  0  0
  4  3  1  0  0  0  0
  5  4  2  0  0  0  0
  6  5  1  0  0  0  0
  6  1  2  0  0  0  0
  9  5  1  0  0  0  0
 10 16  1  0  0  0  0
 11  1  1  0  0  0  0
 11 10  2  0  0  0  0
 12 11  1  0  0  0  0
 13 12  2  0  0  0  0
 13 14  1  0  0  0  0
 14 15  2  0  0  0  0
 15 10  1  0  0  0  0
 17 12  1  0  0  0  0
 18 14  1  0  0  0  0
 20 21  1  0  0  0  0
 20 19  1  0  0  0  0
 21 25  1  0  0  0  0
 22 26  1  0  0  0  0
 22 21  2  0  0  0  0
 23 24  1  0  0  0  0
 23 22  1  0  0  0  0
 24 20  2  0  0  0  0
 27 29  1  0  0  0  0
 27 23  1  0  0  0  0
 28 27  1  0  0  0  0
 30 31  1  0  0  0  0
 30 32  1  0  0  0  0
 30 27  1  0  0  0  0
 33 30  1  0  0  0  0
 34 33  1  0  0  0  0
M  END
>  <minimizedAffinity>
-5.4499321

>  <minimizedRMSD>
0.28369236

$$$$
