
 OpenBabel03272500493D

 32 35  0  0  1  0  0  0  0  0999 V2000
   37.6860   27.2670   31.7110 C   0  0  0  0  0  0  0  0  0  0  0  0
   36.7550   26.2360   31.8250 C   0  0  0  0  0  0  0  0  0  0  0  0
   37.0300   25.5500   33.0200 C   0  0  0  0  0  0  0  0  0  0  0  0
   38.0830   26.1590   33.5820 N   0  0  0  0  0  0  0  0  0  0  0  0
   38.4230   27.1410   32.7900 N   0  0  0  0  0  0  0  0  0  0  0  0
   35.9330   25.9250   31.1830 H   0  0  0  0  0  0  0  0  0  0  0  0
   36.5050   24.6910   33.4270 H   0  0  0  0  0  0  0  0  0  0  0  0
   36.9520   29.3700   30.5710 C   0  0  0  0  0  0  0  0  0  0  0  0
   37.7150   28.1860   30.6100 C   0  0  0  0  0  0  0  0  0  0  0  0
   38.5110   27.9420   29.5180 C   0  0  0  0  0  0  0  0  0  0  0  0
   38.5350   28.8180   28.4760 N   0  0  0  0  0  0  0  0  0  0  0  0
   37.7790   29.9400   28.4940 C   0  0  0  0  0  0  0  0  0  0  0  0
   36.9660   30.2270   29.5650 N   0  0  0  0  0  0  0  0  0  0  0  0
   36.3300   29.5390   31.4500 H   0  0  0  0  0  0  0  0  0  0  0  0
   39.1510   27.0600   29.4250 H   0  0  0  0  0  0  0  0  0  0  0  0
   37.7660   30.6670   27.6830 H   0  0  0  0  0  0  0  0  0  0  0  0
   38.7270   25.8000   34.8330 C   0  0  1  0  0  0  0  0  0  0  0  0
   38.4120   26.7300   36.0570 C   0  0  0  0  0  0  0  0  0  0  0  0
   37.9050   25.3370   35.9660 C   0  0  2  0  0  0  0  0  0  0  0  0
   39.7740   25.4820   34.7210 H   0  0  0  0  0  0  0  0  0  0  0  0
   39.2960   26.9660   36.6850 H   0  0  0  0  0  0  0  0  0  0  0  0
   37.7670   27.5900   35.8460 H   0  0  0  0  0  0  0  0  0  0  0  0
   36.8420   25.2170   35.7640 H   0  0  0  0  0  0  0  0  0  0  0  0
   38.4600   24.2880   36.8890 C   0  0  0  0  0  0  0  0  0  0  0  0
   37.9360   24.0350   38.1680 C   0  0  0  0  0  0  0  0  0  0  0  0
   38.6800   23.0360   38.7120 N   0  0  0  0  0  0  0  0  0  0  0  0
   39.6340   22.6770   37.8100 C   0  0  0  0  0  0  0  0  0  0  0  0
   39.5020   23.4420   36.6920 N   0  0  0  0  0  0  0  0  0  0  0  0
   37.1060   24.5030   38.6800 H   0  0  0  0  0  0  0  0  0  0  0  0
   38.6110   22.5580   39.6530 H   0  0  0  0  0  0  0  0  0  0  0  0
   40.6420   21.7240   37.8550 O   0  0  0  0  0  0  0  0  0  0  0  0
   40.4610   20.8860   38.3730 H   0  0  0  0  0  0  0  0  0  0  0  0
  1  2  1  0  0  0  0
  1  5  2  0  0  0  0
  2  3  2  0  0  0  0
  3  7  1  0  0  0  0
  3  4  1  0  0  0  0
  4 17  1  0  0  0  0
  5  4  1  0  0  0  0
  6  2  1  0  0  0  0
  8  9  1  0  0  0  0
  8 14  1  0  0  0  0
  9  1  1  0  0  0  0
 10  9  2  0  0  0  0
 11 12  2  0  0  0  0
 11 10  1  0  0  0  0
 12 13  1  0  0  0  0
 13  8  2  0  0  0  0
 15 10  1  0  0  0  0
 16 12  1  0  0  0  0
 17 20  1  6  0  0  0
 17 19  1  0  0  0  0
 17 18  1  0  0  0  0
 18 21  1  0  0  0  0
 19 23  1  6  0  0  0
 19 18  1  0  0  0  0
 19 24  1  0  0  0  0
 22 18  1  0  0  0  0
 24 25  2  0  0  0  0
 25 29  1  0  0  0  0
 25 26  1  0  0  0  0
 26 30  1  0  0  0  0
 27 31  1  0  0  0  0
 27 26  1  0  0  0  0
 28 24  1  0  0  0  0
 28 27  2  0  0  0  0
 31 32  1  0  0  0  0
M  END
>  <minimizedAffinity>
-5.72857761

$$$$

 OpenBabel03272500493D

 32 35  0  0  1  0  0  0  0  0999 V2000
   36.2360   28.5640   32.4820 C   0  0  0  0  0  0  0  0  0  0  0  0
   37.2200   28.3140   31.5260 C   0  0  0  0  0  0  0  0  0  0  0  0
   38.1860   27.4860   32.1210 C   0  0  0  0  0  0  0  0  0  0  0  0
   37.7810   27.2610   33.3790 N   0  0  0  0  0  0  0  0  0  0  0  0
   36.6530   27.9030   33.5360 N   0  0  0  0  0  0  0  0  0  0  0  0
   37.3290   28.6390   30.4930 H   0  0  0  0  0  0  0  0  0  0  0  0
   39.0920   27.0930   31.6700 H   0  0  0  0  0  0  0  0  0  0  0  0
   35.0900   30.4820   31.3570 C   0  0  0  0  0  0  0  0  0  0  0  0
   35.0820   29.3780   32.2320 C   0  0  0  0  0  0  0  0  0  0  0  0
   33.8890   29.1060   32.8530 C   0  0  0  0  0  0  0  0  0  0  0  0
   32.7960   29.8810   32.6120 N   0  0  0  0  0  0  0  0  0  0  0  0
   32.8630   30.9310   31.7600 C   0  0  0  0  0  0  0  0  0  0  0  0
   34.0360   31.2430   31.1140 N   0  0  0  0  0  0  0  0  0  0  0  0
   36.0490   30.6750   30.8760 H   0  0  0  0  0  0  0  0  0  0  0  0
   33.7500   28.2780   33.5550 H   0  0  0  0  0  0  0  0  0  0  0  0
   32.0160   31.5780   31.5370 H   0  0  0  0  0  0  0  0  0  0  0  0
   38.4600   26.4570   34.3790 C   0  0  1  0  0  0  0  0  0  0  0  0
   38.8470   27.1990   35.7060 C   0  0  0  0  0  0  0  0  0  0  0  0
   37.7840   26.1630   35.6550 C   0  0  2  0  0  0  0  0  0  0  0  0
   39.2180   25.7750   33.9640 H   0  0  0  0  0  0  0  0  0  0  0  0
   39.8580   26.9470   36.0870 H   0  0  0  0  0  0  0  0  0  0  0  0
   38.6050   28.2670   35.7410 H   0  0  0  0  0  0  0  0  0  0  0  0
   36.7570   26.5140   35.7410 H   0  0  0  0  0  0  0  0  0  0  0  0
   38.0180   24.8320   36.3150 C   0  0  0  0  0  0  0  0  0  0  0  0
   38.1840   23.6370   35.5950 C   0  0  0  0  0  0  0  0  0  0  0  0
   38.3690   22.6460   36.5070 N   0  0  0  0  0  0  0  0  0  0  0  0
   38.3210   23.1980   37.7500 C   0  0  0  0  0  0  0  0  0  0  0  0
   38.1060   24.5370   37.6360 N   0  0  0  0  0  0  0  0  0  0  0  0
   38.1780   23.4670   34.5270 H   0  0  0  0  0  0  0  0  0  0  0  0
   38.5290   21.6090   36.3770 H   0  0  0  0  0  0  0  0  0  0  0  0
   38.4470   22.6450   39.0170 O   0  0  0  0  0  0  0  0  0  0  0  0
   39.0590   21.8580   39.1180 H   0  0  0  0  0  0  0  0  0  0  0  0
  1  5  2  0  0  0  0
  2  3  2  0  0  0  0
  2  1  1  0  0  0  0
  3  4  1  0  0  0  0
  4  5  1  0  0  0  0
  4 17  1  0  0  0  0
  6  2  1  0  0  0  0
  7  3  1  0  0  0  0
  8  9  1  0  0  0  0
  9  1  1  0  0  0  0
  9 10  2  0  0  0  0
 10 15  1  0  0  0  0
 11 10  1  0  0  0  0
 12 11  2  0  0  0  0
 13  8  2  0  0  0  0
 13 12  1  0  0  0  0
 14  8  1  0  0  0  0
 16 12  1  0  0  0  0
 17 20  1  6  0  0  0
 17 19  1  0  0  0  0
 17 18  1  0  0  0  0
 18 22  1  0  0  0  0
 18 21  1  0  0  0  0
 19 18  1  0  0  0  0
 19 23  1  1  0  0  0
 19 24  1  0  0  0  0
 24 28  1  0  0  0  0
 25 24  2  0  0  0  0
 25 26  1  0  0  0  0
 26 27  1  0  0  0  0
 27 31  1  0  0  0  0
 28 27  2  0  0  0  0
 29 25  1  0  0  0  0
 30 26  1  0  0  0  0
 31 32  1  0  0  0  0
M  END
>  <minimizedAffinity>
-5.64363146

$$$$

 OpenBabel03272500493D

 32 35  0  0  1  0  0  0  0  0999 V2000
   35.9200   29.3830   34.2770 C   0  0  0  0  0  0  0  0  0  0  0  0
   35.9260   28.9970   32.9380 C   0  0  0  0  0  0  0  0  0  0  0  0
   36.5970   27.7660   32.8570 C   0  0  0  0  0  0  0  0  0  0  0  0
   36.9700   27.4450   34.1040 N   0  0  0  0  0  0  0  0  0  0  0  0
   36.5560   28.4080   34.8840 N   0  0  0  0  0  0  0  0  0  0  0  0
   35.5240   29.4690   32.0430 H   0  0  0  0  0  0  0  0  0  0  0  0
   36.7900   27.1720   31.9690 H   0  0  0  0  0  0  0  0  0  0  0  0
   35.7820   31.3070   35.8700 C   0  0  0  0  0  0  0  0  0  0  0  0
   35.3170   30.5970   34.7460 C   0  0  0  0  0  0  0  0  0  0  0  0
   34.2310   31.1320   34.0990 C   0  0  0  0  0  0  0  0  0  0  0  0
   33.6630   32.2860   34.5470 N   0  0  0  0  0  0  0  0  0  0  0  0
   34.1530   32.9240   35.6350 C   0  0  0  0  0  0  0  0  0  0  0  0
   35.2390   32.4270   36.3160 N   0  0  0  0  0  0  0  0  0  0  0  0
   36.6450   30.8610   36.3650 H   0  0  0  0  0  0  0  0  0  0  0  0
   33.7740   30.6790   33.2140 H   0  0  0  0  0  0  0  0  0  0  0  0
   33.7310   33.8480   36.0290 H   0  0  0  0  0  0  0  0  0  0  0  0
   37.6950   26.2560   34.5150 C   0  0  1  0  0  0  0  0  0  0  0  0
   39.1890   26.4770   34.9380 C   0  0  0  0  0  0  0  0  0  0  0  0
   38.1300   26.1200   35.9160 C   0  0  2  0  0  0  0  0  0  0  0  0
   37.4920   25.3720   33.8920 H   0  0  0  0  0  0  0  0  0  0  0  0
   39.8870   25.7030   34.5580 H   0  0  0  0  0  0  0  0  0  0  0  0
   39.5620   27.5040   34.8470 H   0  0  0  0  0  0  0  0  0  0  0  0
   37.8060   26.9080   36.5940 H   0  0  0  0  0  0  0  0  0  0  0  0
   38.1390   24.7550   36.5480 C   0  0  0  0  0  0  0  0  0  0  0  0
   38.1540   23.5640   35.8020 C   0  0  0  0  0  0  0  0  0  0  0  0
   38.1540   22.5370   36.6920 N   0  0  0  0  0  0  0  0  0  0  0  0
   38.1400   23.0630   37.9480 C   0  0  0  0  0  0  0  0  0  0  0  0
   38.1300   24.4220   37.8620 N   0  0  0  0  0  0  0  0  0  0  0  0
   38.1650   23.4200   34.7300 H   0  0  0  0  0  0  0  0  0  0  0  0
   38.1630   21.4910   36.5400 H   0  0  0  0  0  0  0  0  0  0  0  0
   38.1330   22.4700   39.2030 O   0  0  0  0  0  0  0  0  0  0  0  0
   38.6170   21.5990   39.3040 H   0  0  0  0  0  0  0  0  0  0  0  0
  1  9  1  0  0  0  0
  1  5  2  0  0  0  0
  2  1  1  0  0  0  0
  3  2  2  0  0  0  0
  3  4  1  0  0  0  0
  4 17  1  0  0  0  0
  4  5  1  0  0  0  0
  6  2  1  0  0  0  0
  7  3  1  0  0  0  0
  8 13  1  0  0  0  0
  8 14  1  0  0  0  0
  9  8  2  0  0  0  0
 10 11  2  0  0  0  0
 10  9  1  0  0  0  0
 11 12  1  0  0  0  0
 12 16  1  0  0  0  0
 12 13  2  0  0  0  0
 15 10  1  0  0  0  0
 17 20  1  6  0  0  0
 17 18  1  0  0  0  0
 17 19  1  0  0  0  0
 18 19  1  0  0  0  0
 19 24  1  0  0  0  0
 19 23  1  1  0  0  0
 21 18  1  0  0  0  0
 22 18  1  0  0  0  0
 24 28  1  0  0  0  0
 25 24  2  0  0  0  0
 25 26  1  0  0  0  0
 26 27  1  0  0  0  0
 27 31  1  0  0  0  0
 28 27  2  0  0  0  0
 29 25  1  0  0  0  0
 30 26  1  0  0  0  0
 31 32  1  0  0  0  0
M  END
>  <minimizedAffinity>
-5.63391972

$$$$

 OpenBabel03272500493D

 32 35  0  0  1  0  0  0  0  0999 V2000
   35.8960   28.8850   33.9530 C   0  0  0  0  0  0  0  0  0  0  0  0
   36.2260   28.5970   32.6290 C   0  0  0  0  0  0  0  0  0  0  0  0
   37.1370   27.5280   32.6450 C   0  0  0  0  0  0  0  0  0  0  0  0
   37.3320   27.2050   33.9310 N   0  0  0  0  0  0  0  0  0  0  0  0
   36.5950   28.0150   34.6440 N   0  0  0  0  0  0  0  0  0  0  0  0
   35.9070   29.0400   31.6880 H   0  0  0  0  0  0  0  0  0  0  0  0
   37.6050   27.0430   31.7940 H   0  0  0  0  0  0  0  0  0  0  0  0
   33.6540   29.9920   33.8690 C   0  0  0  0  0  0  0  0  0  0  0  0
   34.9830   29.9260   34.3300 C   0  0  0  0  0  0  0  0  0  0  0  0
   35.3800   30.9280   35.1800 C   0  0  0  0  0  0  0  0  0  0  0  0
   34.5090   31.9130   35.5350 N   0  0  0  0  0  0  0  0  0  0  0  0
   33.2420   31.9250   35.0590 C   0  0  0  0  0  0  0  0  0  0  0  0
   32.7990   30.9430   34.2050 N   0  0  0  0  0  0  0  0  0  0  0  0
   33.3650   29.1840   33.1960 H   0  0  0  0  0  0  0  0  0  0  0  0
   36.3850   30.9920   35.6080 H   0  0  0  0  0  0  0  0  0  0  0  0
   32.5130   32.6920   35.3150 H   0  0  0  0  0  0  0  0  0  0  0  0
   38.1960   26.1550   34.4410 C   0  0  1  0  0  0  0  0  0  0  0  0
   39.5160   26.6340   35.1410 C   0  0  0  0  0  0  0  0  0  0  0  0
   38.3930   26.0200   35.8950 C   0  0  2  0  0  0  0  0  0  0  0  0
   38.2890   25.2880   33.7690 H   0  0  0  0  0  0  0  0  0  0  0  0
   40.4110   26.0330   34.8780 H   0  0  0  0  0  0  0  0  0  0  0  0
   39.6850   27.7170   35.1450 H   0  0  0  0  0  0  0  0  0  0  0  0
   37.8020   26.6880   36.5200 H   0  0  0  0  0  0  0  0  0  0  0  0
   38.5640   24.6460   36.4830 C   0  0  0  0  0  0  0  0  0  0  0  0
   37.6300   24.0630   37.3570 C   0  0  0  0  0  0  0  0  0  0  0  0
   38.1070   22.8340   37.6860 N   0  0  0  0  0  0  0  0  0  0  0  0
   39.2940   22.6530   37.0450 C   0  0  0  0  0  0  0  0  0  0  0  0
   39.5770   23.7620   36.3070 N   0  0  0  0  0  0  0  0  0  0  0  0
   36.6960   24.4570   37.7320 H   0  0  0  0  0  0  0  0  0  0  0  0
   37.7080   22.0840   38.3150 H   0  0  0  0  0  0  0  0  0  0  0  0
   40.1910   21.5930   37.0320 O   0  0  0  0  0  0  0  0  0  0  0  0
   39.8130   20.6690   37.1210 H   0  0  0  0  0  0  0  0  0  0  0  0
  1  9  1  0  0  0  0
  1  5  2  0  0  0  0
  2  3  2  0  0  0  0
  2  1  1  0  0  0  0
  3  4  1  0  0  0  0
  4 17  1  0  0  0  0
  4  5  1  0  0  0  0
  6  2  1  0  0  0  0
  7  3  1  0  0  0  0
  8 13  2  0  0  0  0
  8  9  1  0  0  0  0
  9 10  2  0  0  0  0
 10 11  1  0  0  0  0
 10 15  1  0  0  0  0
 12 16  1  0  0  0  0
 12 11  2  0  0  0  0
 13 12  1  0  0  0  0
 14  8  1  0  0  0  0
 17 20  1  6  0  0  0
 17 18  1  0  0  0  0
 17 19  1  0  0  0  0
 18 22  1  0  0  0  0
 18 19  1  0  0  0  0
 19 24  1  0  0  0  0
 19 23  1  1  0  0  0
 21 18  1  0  0  0  0
 24 25  2  0  0  0  0
 25 26  1  0  0  0  0
 25 29  1  0  0  0  0
 26 30  1  0  0  0  0
 27 26  1  0  0  0  0
 28 24  1  0  0  0  0
 28 27  2  0  0  0  0
 31 27  1  0  0  0  0
 31 32  1  0  0  0  0
M  END
>  <minimizedAffinity>
-5.42805529

$$$$

 OpenBabel03272500493D

 32 35  0  0  1  0  0  0  0  0999 V2000
   39.6460   23.3260   36.4350 C   0  0  0  0  0  0  0  0  0  0  0  0
   38.7660   23.3760   37.5160 C   0  0  0  0  0  0  0  0  0  0  0  0
   37.8570   24.4190   37.2710 C   0  0  0  0  0  0  0  0  0  0  0  0
   38.1930   24.9570   36.0910 N   0  0  0  0  0  0  0  0  0  0  0  0
   39.2290   24.2920   35.6510 N   0  0  0  0  0  0  0  0  0  0  0  0
   38.6970   22.7820   38.4250 H   0  0  0  0  0  0  0  0  0  0  0  0
   37.0350   24.7430   37.9020 H   0  0  0  0  0  0  0  0  0  0  0  0
   41.3290   22.0300   35.1140 C   0  0  0  0  0  0  0  0  0  0  0  0
   40.7180   22.3780   36.3340 C   0  0  0  0  0  0  0  0  0  0  0  0
   41.2060   21.7550   37.4550 C   0  0  0  0  0  0  0  0  0  0  0  0
   42.2250   20.8570   37.3540 N   0  0  0  0  0  0  0  0  0  0  0  0
   42.7730   20.5610   36.1520 C   0  0  0  0  0  0  0  0  0  0  0  0
   42.3170   21.1600   35.0010 N   0  0  0  0  0  0  0  0  0  0  0  0
   40.9220   22.5400   34.2400 H   0  0  0  0  0  0  0  0  0  0  0  0
   40.8190   21.9370   38.4620 H   0  0  0  0  0  0  0  0  0  0  0  0
   43.5870   19.8500   36.0240 H   0  0  0  0  0  0  0  0  0  0  0  0
   37.5360   26.0660   35.4240 C   0  0  1  0  0  0  0  0  0  0  0  0
   38.2180   27.4690   35.5950 C   0  0  0  0  0  0  0  0  0  0  0  0
   38.2120   26.7410   34.3010 C   0  0  2  0  0  0  0  0  0  0  0  0
   36.4380   26.0470   35.5010 H   0  0  0  0  0  0  0  0  0  0  0  0
   37.5050   28.3000   35.7750 H   0  0  0  0  0  0  0  0  0  0  0  0
   39.1060   27.4910   36.2360 H   0  0  0  0  0  0  0  0  0  0  0  0
   39.1560   26.3040   33.9820 H   0  0  0  0  0  0  0  0  0  0  0  0
   37.3820   27.2670   33.1620 C   0  0  0  0  0  0  0  0  0  0  0  0
   36.3620   28.2190   33.3300 C   0  0  0  0  0  0  0  0  0  0  0  0
   35.8310   28.4540   32.1010 N   0  0  0  0  0  0  0  0  0  0  0  0
   36.4920   27.6800   31.1970 C   0  0  0  0  0  0  0  0  0  0  0  0
   37.4430   26.9510   31.8440 N   0  0  0  0  0  0  0  0  0  0  0  0
   36.0170   28.7100   34.2290 H   0  0  0  0  0  0  0  0  0  0  0  0
   35.0500   29.0980   31.7980 H   0  0  0  0  0  0  0  0  0  0  0  0
   36.3520   27.5310   29.8240 O   0  0  0  0  0  0  0  0  0  0  0  0
   36.0670   28.3360   29.3000 H   0  0  0  0  0  0  0  0  0  0  0  0
  1  2  1  0  0  0  0
  2  6  1  0  0  0  0
  3  2  2  0  0  0  0
  3  7  1  0  0  0  0
  4  3  1  0  0  0  0
  5  4  1  0  0  0  0
  5  1  2  0  0  0  0
  8  9  1  0  0  0  0
  9  1  1  0  0  0  0
  9 10  2  0  0  0  0
 10 15  1  0  0  0  0
 11 10  1  0  0  0  0
 12 11  2  0  0  0  0
 13  8  2  0  0  0  0
 13 12  1  0  0  0  0
 14  8  1  0  0  0  0
 16 12  1  0  0  0  0
 17 20  1  6  0  0  0
 17 18  1  0  0  0  0
 17  4  1  0  0  0  0
 18 21  1  0  0  0  0
 18 22  1  0  0  0  0
 19 23  1  6  0  0  0
 19 17  1  0  0  0  0
 19 18  1  0  0  0  0
 24 25  2  0  0  0  0
 24 19  1  0  0  0  0
 25 29  1  0  0  0  0
 26 25  1  0  0  0  0
 27 28  2  0  0  0  0
 27 26  1  0  0  0  0
 28 24  1  0  0  0  0
 30 26  1  0  0  0  0
 31 27  1  0  0  0  0
 32 31  1  0  0  0  0
M  END
>  <minimizedAffinity>
-5.41668415

$$$$

 OpenBabel03272500493D

 32 35  0  0  1  0  0  0  0  0999 V2000
   37.2830   27.5050   32.7150 C   0  0  0  0  0  0  0  0  0  0  0  0
   38.6150   27.3300   32.3420 C   0  0  0  0  0  0  0  0  0  0  0  0
   39.1000   26.2030   33.0260 C   0  0  0  0  0  0  0  0  0  0  0  0
   38.0880   25.7370   33.7710 N   0  0  0  0  0  0  0  0  0  0  0  0
   37.0650   26.5210   33.5560 N   0  0  0  0  0  0  0  0  0  0  0  0
   39.2600   27.8890   31.6660 H   0  0  0  0  0  0  0  0  0  0  0  0
   40.0970   25.7750   32.9760 H   0  0  0  0  0  0  0  0  0  0  0  0
   36.8510   29.4270   31.1730 C   0  0  0  0  0  0  0  0  0  0  0  0
   36.4550   28.5640   32.2140 C   0  0  0  0  0  0  0  0  0  0  0  0
   35.2090   28.7850   32.7440 C   0  0  0  0  0  0  0  0  0  0  0  0
   34.4270   29.7920   32.2630 N   0  0  0  0  0  0  0  0  0  0  0  0
   34.8610   30.5900   31.2600 C   0  0  0  0  0  0  0  0  0  0  0  0
   36.1020   30.4070   30.6980 N   0  0  0  0  0  0  0  0  0  0  0  0
   37.8440   29.2280   30.7700 H   0  0  0  0  0  0  0  0  0  0  0  0
   34.7840   28.1870   33.5540 H   0  0  0  0  0  0  0  0  0  0  0  0
   34.2710   31.4060   30.8460 H   0  0  0  0  0  0  0  0  0  0  0  0
   38.1180   24.5810   34.6490 C   0  0  1  0  0  0  0  0  0  0  0  0
   38.1270   23.1820   33.9400 C   0  0  0  0  0  0  0  0  0  0  0  0
   39.3080   23.7130   34.6660 C   0  0  2  0  0  0  0  0  0  0  0  0
   37.4670   24.6750   35.5320 H   0  0  0  0  0  0  0  0  0  0  0  0
   37.4660   22.4290   34.4170 H   0  0  0  0  0  0  0  0  0  0  0  0
   38.0690   23.2040   32.8460 H   0  0  0  0  0  0  0  0  0  0  0  0
   40.1470   24.0440   34.0570 H   0  0  0  0  0  0  0  0  0  0  0  0
   39.7260   23.0740   35.9620 C   0  0  0  0  0  0  0  0  0  0  0  0
   39.1100   23.3590   37.1930 C   0  0  0  0  0  0  0  0  0  0  0  0
   39.7410   22.6110   38.1360 N   0  0  0  0  0  0  0  0  0  0  0  0
   40.7150   21.8860   37.5220 C   0  0  0  0  0  0  0  0  0  0  0  0
   40.7090   22.1670   36.1890 N   0  0  0  0  0  0  0  0  0  0  0  0
   38.2910   24.0280   37.4170 H   0  0  0  0  0  0  0  0  0  0  0  0
   39.5810   22.5350   39.1780 H   0  0  0  0  0  0  0  0  0  0  0  0
   41.6430   20.9750   38.0100 O   0  0  0  0  0  0  0  0  0  0  0  0
   41.3670   20.4110   38.7900 H   0  0  0  0  0  0  0  0  0  0  0  0
  1  5  2  0  0  0  0
  2  1  1  0  0  0  0
  2  3  2  0  0  0  0
  3  4  1  0  0  0  0
  4 17  1  0  0  0  0
  5  4  1  0  0  0  0
  6  2  1  0  0  0  0
  7  3  1  0  0  0  0
  8  9  1  0  0  0  0
  9  1  1  0  0  0  0
  9 10  2  0  0  0  0
 10 15  1  0  0  0  0
 11 10  1  0  0  0  0
 12 11  2  0  0  0  0
 13  8  2  0  0  0  0
 13 12  1  0  0  0  0
 14  8  1  0  0  0  0
 16 12  1  0  0  0  0
 17 19  1  0  0  0  0
 17 20  1  1  0  0  0
 18 21  1  0  0  0  0
 18 17  1  0  0  0  0
 18 19  1  0  0  0  0
 19 23  1  6  0  0  0
 19 24  1  0  0  0  0
 22 18  1  0  0  0  0
 24 28  1  0  0  0  0
 24 25  2  0  0  0  0
 25 29  1  0  0  0  0
 25 26  1  0  0  0  0
 26 30  1  0  0  0  0
 27 31  1  0  0  0  0
 27 26  1  0  0  0  0
 28 27  2  0  0  0  0
 31 32  1  0  0  0  0
M  END
>  <minimizedAffinity>
-5.20199108

$$$$

 OpenBabel03272500493D

 32 35  0  0  1  0  0  0  0  0999 V2000
   38.3000   25.5900   35.1660 C   0  0  0  0  0  0  0  0  0  0  0  0
   37.7280   26.7810   35.6090 C   0  0  0  0  0  0  0  0  0  0  0  0
   37.3230   27.5020   34.4740 C   0  0  0  0  0  0  0  0  0  0  0  0
   37.6460   26.7590   33.4070 N   0  0  0  0  0  0  0  0  0  0  0  0
   38.2050   25.6680   33.8590 N   0  0  0  0  0  0  0  0  0  0  0  0
   37.5700   27.1840   36.6080 H   0  0  0  0  0  0  0  0  0  0  0  0
   36.8400   28.4740   34.4430 H   0  0  0  0  0  0  0  0  0  0  0  0
   39.9750   23.8260   35.7520 C   0  0  0  0  0  0  0  0  0  0  0  0
   38.8310   24.5920   36.0500 C   0  0  0  0  0  0  0  0  0  0  0  0
   38.2270   24.3360   37.2560 C   0  0  0  0  0  0  0  0  0  0  0  0
   38.7360   23.3890   38.0920 N   0  0  0  0  0  0  0  0  0  0  0  0
   39.8400   22.6830   37.7520 C   0  0  0  0  0  0  0  0  0  0  0  0
   40.4780   22.9040   36.5540 N   0  0  0  0  0  0  0  0  0  0  0  0
   40.4340   24.0500   34.7890 H   0  0  0  0  0  0  0  0  0  0  0  0
   37.3330   24.8610   37.6050 H   0  0  0  0  0  0  0  0  0  0  0  0
   40.2800   21.9160   38.3870 H   0  0  0  0  0  0  0  0  0  0  0  0
   37.4200   27.0960   32.0130 C   0  0  1  0  0  0  0  0  0  0  0  0
   35.9660   26.8520   31.4770 C   0  0  0  0  0  0  0  0  0  0  0  0
   36.5230   28.2150   31.6740 C   0  0  2  0  0  0  0  0  0  0  0  0
   38.2410   26.7990   31.3430 H   0  0  0  0  0  0  0  0  0  0  0  0
   35.9260   26.4030   30.4640 H   0  0  0  0  0  0  0  0  0  0  0  0
   35.2630   26.4120   32.1940 H   0  0  0  0  0  0  0  0  0  0  0  0
   36.1330   28.7850   32.5160 H   0  0  0  0  0  0  0  0  0  0  0  0
   36.8380   29.0630   30.4730 C   0  0  0  0  0  0  0  0  0  0  0  0
   36.3740   30.3810   30.3200 C   0  0  0  0  0  0  0  0  0  0  0  0
   36.8450   30.8320   29.1270 N   0  0  0  0  0  0  0  0  0  0  0  0
   37.5750   29.8370   28.5540 C   0  0  0  0  0  0  0  0  0  0  0  0
   37.5730   28.7510   29.3760 N   0  0  0  0  0  0  0  0  0  0  0  0
   35.7610   30.9790   30.9800 H   0  0  0  0  0  0  0  0  0  0  0  0
   36.7230   31.7650   28.6450 H   0  0  0  0  0  0  0  0  0  0  0  0
   38.2670   29.7660   27.3530 O   0  0  0  0  0  0  0  0  0  0  0  0
   38.6860   30.6100   27.0120 H   0  0  0  0  0  0  0  0  0  0  0  0
  1  2  1  0  0  0  0
  1  9  1  0  0  0  0
  2  6  1  0  0  0  0
  3  2  2  0  0  0  0
  4  5  1  0  0  0  0
  4  3  1  0  0  0  0
  5  1  2  0  0  0  0
  7  3  1  0  0  0  0
  8  9  2  0  0  0  0
  8 13  1  0  0  0  0
  9 10  1  0  0  0  0
 10 15  1  0  0  0  0
 10 11  2  0  0  0  0
 12 11  1  0  0  0  0
 12 16  1  0  0  0  0
 13 12  2  0  0  0  0
 14  8  1  0  0  0  0
 17 20  1  6  0  0  0
 17  4  1  0  0  0  0
 18 19  1  0  0  0  0
 18 17  1  0  0  0  0
 18 22  1  0  0  0  0
 19 17  1  0  0  0  0
 19 23  1  1  0  0  0
 21 18  1  0  0  0  0
 24 19  1  0  0  0  0
 25 24  2  0  0  0  0
 25 29  1  0  0  0  0
 26 25  1  0  0  0  0
 27 26  1  0  0  0  0
 27 28  2  0  0  0  0
 28 24  1  0  0  0  0
 30 26  1  0  0  0  0
 31 27  1  0  0  0  0
 32 31  1  0  0  0  0
M  END
>  <minimizedAffinity>
-5.00279713

$$$$

 OpenBabel03272500493D

 32 35  0  0  1  0  0  0  0  0999 V2000
   36.4490   27.5030   32.1620 C   0  0  0  0  0  0  0  0  0  0  0  0
   37.2960   27.0390   33.1670 C   0  0  0  0  0  0  0  0  0  0  0  0
   37.2530   25.6350   33.1400 C   0  0  0  0  0  0  0  0  0  0  0  0
   36.4110   25.2930   32.1550 N   0  0  0  0  0  0  0  0  0  0  0  0
   35.9760   26.4040   31.6230 N   0  0  0  0  0  0  0  0  0  0  0  0
   37.9190   27.5610   33.8920 H   0  0  0  0  0  0  0  0  0  0  0  0
   37.7880   24.9430   33.7830 H   0  0  0  0  0  0  0  0  0  0  0  0
   36.5540   29.4970   30.6540 C   0  0  0  0  0  0  0  0  0  0  0  0
   36.2380   28.8960   31.8880 C   0  0  0  0  0  0  0  0  0  0  0  0
   35.7040   29.7220   32.8460 C   0  0  0  0  0  0  0  0  0  0  0  0
   35.5050   31.0430   32.5800 N   0  0  0  0  0  0  0  0  0  0  0  0
   35.8290   31.5650   31.3750 C   0  0  0  0  0  0  0  0  0  0  0  0
   36.3670   30.7770   30.3850 N   0  0  0  0  0  0  0  0  0  0  0  0
   36.9760   28.8190   29.9130 H   0  0  0  0  0  0  0  0  0  0  0  0
   35.4160   29.3790   33.8440 H   0  0  0  0  0  0  0  0  0  0  0  0
   35.6880   32.6150   31.1190 H   0  0  0  0  0  0  0  0  0  0  0  0
   36.0490   23.9460   31.7520 C   0  0  1  0  0  0  0  0  0  0  0  0
   37.0750   23.2120   30.8190 C   0  0  0  0  0  0  0  0  0  0  0  0
   36.8510   22.8050   32.2300 C   0  0  2  0  0  0  0  0  0  0  0  0
   34.9860   23.8280   31.4930 H   0  0  0  0  0  0  0  0  0  0  0  0
   36.6060   22.6430   29.9900 H   0  0  0  0  0  0  0  0  0  0  0  0
   37.9530   23.7980   30.5240 H   0  0  0  0  0  0  0  0  0  0  0  0
   37.6420   23.0440   32.9380 H   0  0  0  0  0  0  0  0  0  0  0  0
   36.1610   21.5010   32.5210 C   0  0  0  0  0  0  0  0  0  0  0  0
   36.0940   20.9370   33.8070 C   0  0  0  0  0  0  0  0  0  0  0  0
   35.4070   19.7700   33.6940 N   0  0  0  0  0  0  0  0  0  0  0  0
   35.0570   19.6070   32.3890 C   0  0  0  0  0  0  0  0  0  0  0  0
   35.5170   20.6660   31.6680 N   0  0  0  0  0  0  0  0  0  0  0  0
   36.4880   21.3060   34.7440 H   0  0  0  0  0  0  0  0  0  0  0  0
   35.1420   19.0520   34.4230 H   0  0  0  0  0  0  0  0  0  0  0  0
   34.3570   18.6030   31.7330 O   0  0  0  0  0  0  0  0  0  0  0  0
   33.6330   18.1370   32.2450 H   0  0  0  0  0  0  0  0  0  0  0  0
  1  2  1  0  0  0  0
  2  6  1  0  0  0  0
  3  2  2  0  0  0  0
  3  7  1  0  0  0  0
  4  3  1  0  0  0  0
  5  4  1  0  0  0  0
  5  1  2  0  0  0  0
  8  9  1  0  0  0  0
  9  1  1  0  0  0  0
  9 10  2  0  0  0  0
 10 15  1  0  0  0  0
 11 10  1  0  0  0  0
 12 11  2  0  0  0  0
 13  8  2  0  0  0  0
 13 12  1  0  0  0  0
 14  8  1  0  0  0  0
 16 12  1  0  0  0  0
 17 20  1  6  0  0  0
 17  4  1  0  0  0  0
 17 19  1  0  0  0  0
 18 17  1  0  0  0  0
 18 19  1  0  0  0  0
 19 24  1  0  0  0  0
 19 23  1  1  0  0  0
 21 18  1  0  0  0  0
 22 18  1  0  0  0  0
 24 25  2  0  0  0  0
 25 29  1  0  0  0  0
 26 25  1  0  0  0  0
 26 30  1  0  0  0  0
 27 26  1  0  0  0  0
 28 27  2  0  0  0  0
 28 24  1  0  0  0  0
 31 32  1  0  0  0  0
 31 27  1  0  0  0  0
M  END
>  <minimizedAffinity>
-4.97923851

$$$$

 OpenBabel03272500493D

 32 35  0  0  1  0  0  0  0  0999 V2000
   35.3360   30.1290   33.8580 C   0  0  0  0  0  0  0  0  0  0  0  0
   35.6900   30.8540   32.7200 C   0  0  0  0  0  0  0  0  0  0  0  0
   36.2270   29.9470   31.7930 C   0  0  0  0  0  0  0  0  0  0  0  0
   36.1890   28.7370   32.3670 N   0  0  0  0  0  0  0  0  0  0  0  0
   35.6670   28.8960   33.5550 N   0  0  0  0  0  0  0  0  0  0  0  0
   35.6140   31.9130   32.4810 H   0  0  0  0  0  0  0  0  0  0  0  0
   36.6070   30.1610   30.7980 H   0  0  0  0  0  0  0  0  0  0  0  0
   35.4720   31.5360   35.9220 C   0  0  0  0  0  0  0  0  0  0  0  0
   34.7510   30.7260   35.0230 C   0  0  0  0  0  0  0  0  0  0  0  0
   33.4250   30.5260   35.3190 C   0  0  0  0  0  0  0  0  0  0  0  0
   32.8740   31.0960   36.4260 N   0  0  0  0  0  0  0  0  0  0  0  0
   33.6180   31.8660   37.2540 C   0  0  0  0  0  0  0  0  0  0  0  0
   34.9500   32.0940   37.0000 N   0  0  0  0  0  0  0  0  0  0  0  0
   36.5220   31.6790   35.6640 H   0  0  0  0  0  0  0  0  0  0  0  0
   32.7560   29.9190   34.7020 H   0  0  0  0  0  0  0  0  0  0  0  0
   33.2200   32.3400   38.1500 H   0  0  0  0  0  0  0  0  0  0  0  0
   36.6390   27.4850   31.7860 C   0  0  1  0  0  0  0  0  0  0  0  0
   38.1200   27.0760   32.1030 C   0  0  0  0  0  0  0  0  0  0  0  0
   36.9560   26.3470   32.6690 C   0  0  2  0  0  0  0  0  0  0  0  0
   36.3020   27.3270   30.7500 H   0  0  0  0  0  0  0  0  0  0  0  0
   38.6720   26.6630   31.2330 H   0  0  0  0  0  0  0  0  0  0  0  0
   38.6930   27.7930   32.7010 H   0  0  0  0  0  0  0  0  0  0  0  0
   36.7540   26.4960   33.7280 H   0  0  0  0  0  0  0  0  0  0  0  0
   36.6570   24.9520   32.1940 C   0  0  0  0  0  0  0  0  0  0  0  0
   35.6510   24.6570   31.2580 C   0  0  0  0  0  0  0  0  0  0  0  0
   35.6640   23.3100   31.0720 N   0  0  0  0  0  0  0  0  0  0  0  0
   36.6390   22.7810   31.8600 C   0  0  0  0  0  0  0  0  0  0  0  0
   37.2500   23.7840   32.5490 N   0  0  0  0  0  0  0  0  0  0  0  0
   34.9670   25.3200   30.7470 H   0  0  0  0  0  0  0  0  0  0  0  0
   35.0690   22.6940   30.4530 H   0  0  0  0  0  0  0  0  0  0  0  0
   37.0700   21.4760   32.0540 O   0  0  0  0  0  0  0  0  0  0  0  0
   37.0170   20.8530   31.2710 H   0  0  0  0  0  0  0  0  0  0  0  0
  1  9  1  0  0  0  0
  2  1  1  0  0  0  0
  3  4  1  0  0  0  0
  3  2  2  0  0  0  0
  4  5  1  0  0  0  0
  5  1  2  0  0  0  0
  6  2  1  0  0  0  0
  7  3  1  0  0  0  0
  8 13  1  0  0  0  0
  9 10  1  0  0  0  0
  9  8  2  0  0  0  0
 10 11  2  0  0  0  0
 11 12  1  0  0  0  0
 12 16  1  0  0  0  0
 13 12  2  0  0  0  0
 14  8  1  0  0  0  0
 15 10  1  0  0  0  0
 17 20  1  6  0  0  0
 17 18  1  0  0  0  0
 17  4  1  0  0  0  0
 17 19  1  0  0  0  0
 18 19  1  0  0  0  0
 18 22  1  0  0  0  0
 19 23  1  1  0  0  0
 21 18  1  0  0  0  0
 24 28  1  0  0  0  0
 24 19  1  0  0  0  0
 25 24  2  0  0  0  0
 26 25  1  0  0  0  0
 26 27  1  0  0  0  0
 27 31  1  0  0  0  0
 27 28  2  0  0  0  0
 29 25  1  0  0  0  0
 30 26  1  0  0  0  0
 32 31  1  0  0  0  0
M  END
>  <minimizedAffinity>
-4.79035521

$$$$
