REMARK  Name = 
REMARK  2 active torsions:
REMARK  status: ('A' for Active; 'I' for Inactive)
REMARK    1  A    between atoms: C_5  and  C_7
REMARK    2  A    between atoms: C_12  and  O_20
REMARK                            x       y       z     vdW  Elec       q    Type
REMARK                         _______ _______ _______ _____ _____    ______ ____
ROOT
ATOM      1  C   UNL     1      36.086  30.135  48.590  0.00  0.00    +0.000 A 
ATOM      2  C   UNL     1      35.282  29.956  47.504  0.00  0.00    +0.000 A 
ATOM      3  C   UNL     1      34.298  28.977  47.506  0.00  0.00    +0.000 A 
ATOM      4  C   UNL     1      34.153  28.194  48.626  0.00  0.00    +0.000 A 
ATOM      5  C   UNL     1      34.959  28.356  49.745  0.00  0.00    +0.000 A 
ATOM      6  C   UNL     1      35.951  29.344  49.743  0.00  0.00    +0.000 A 
ATOM      7  H   UNL     1      35.391  30.572  46.615  0.00  0.00    +0.000 HD
ATOM      8  H   UNL     1      33.639  28.790  46.685  0.00  0.00    +0.000 HD
ATOM      9  H   UNL     1      33.400  27.426  48.660  0.00  0.00    +0.000 HD
ATOM     10  H   UNL     1      34.853  27.746  50.630  0.00  0.00    +0.000 HD
ENDROOT
BRANCH   1  15
ATOM     11  C   UNL     1      38.015  33.103  49.480  0.00  0.00    +0.000 A 
ATOM     12  C   UNL     1      38.974  33.205  48.475  0.00  0.00    +0.000 A 
ATOM     13  C   UNL     1      38.949  32.223  47.469  0.00  0.00    +0.000 A 
ATOM     14  N   UNL     1      38.010  31.234  47.516  0.00  0.00    +0.000 NA
ATOM     15  C   UNL     1      37.098  31.182  48.519  0.00  0.00    +0.000 A 
ATOM     16  N   UNL     1      37.109  32.127  49.502  0.00  0.00    +0.000 NA
ATOM     17  H   UNL     1      37.996  33.835  50.273  0.00  0.00    +0.000 HD
ATOM     18  H   UNL     1      39.703  33.991  48.457  0.00  0.00    +0.000 HD
ATOM     19  H   UNL     1      39.666  32.237  46.652  0.00  0.00    +0.000 HD
ENDBRANCH   1  15
BRANCH   6  20
ATOM     20  O   UNL     1      36.768  29.534  50.832  0.00  0.00    +0.000 OA
ATOM     21  H   UNL     1      37.596  30.141  50.802  0.00  0.00    +0.000 HD
ENDBRANCH   6  20
TORSDOF 2
