REMARK  Name = 
REMARK  3 active torsions:
REMARK  status: ('A' for Active; 'I' for Inactive)
REMARK    1  A    between atoms: C_1  and  C_7
REMARK    2  A    between atoms: C_6  and  N_15
REMARK    3  A    between atoms: C_13  and  O_30
REMARK                            x       y       z     vdW  Elec       q    Type
REMARK                         _______ _______ _______ _____ _____    ______ ____
ROOT
ATOM      1  C   UNL     1      36.080  30.686  49.066  0.00  0.00    +0.000 C 
ATOM      2  C   UNL     1      37.017  31.643  49.740  0.00  0.00    +0.000 C 
ATOM      3  C   UNL     1      38.043  30.949  50.608  0.00  0.00    +0.000 C 
ATOM      4  C   UNL     1      37.360  30.064  51.648  0.00  0.00    +0.000 C 
ATOM      5  C   UNL     1      36.109  29.387  51.148  0.00  0.00    +0.000 C 
ATOM      6  C   UNL     1      36.196  29.303  49.611  0.00  0.00    +0.000 C 
ATOM      7  H   UNL     1      34.996  30.976  49.168  0.00  0.00    +0.000 HD
ATOM      8  H   UNL     1      36.362  32.194  50.498  0.00  0.00    +0.000 HD
ATOM      9  H   UNL     1      37.450  32.418  49.140  0.00  0.00    +0.000 HD
ATOM     10  H   UNL     1      38.791  30.371  50.059  0.00  0.00    +0.000 HD
ATOM     11  H   UNL     1      38.566  31.743  51.175  0.00  0.00    +0.000 HD
ATOM     12  H   UNL     1      37.173  30.605  52.589  0.00  0.00    +0.000 HD
ATOM     13  H   UNL     1      38.086  29.253  51.901  0.00  0.00    +0.000 HD
ATOM     14  H   UNL     1      35.231  29.997  51.440  0.00  0.00    +0.000 HD
ATOM     15  H   UNL     1      35.997  28.386  51.569  0.00  0.00    +0.000 HD
ATOM     16  H   UNL     1      37.182  28.918  49.508  0.00  0.00    +0.000 HD
ENDROOT
BRANCH   1  17
ATOM     17  C   UNL     1      36.322  30.648  47.600  0.00  0.00    +0.000 A 
ATOM     18  C   UNL     1      37.583  31.109  47.179  0.00  0.00    +0.000 A 
ATOM     19  C   UNL     1      37.831  31.076  45.802  0.00  0.00    +0.000 A 
ATOM     20  N   UNL     1      36.849  30.604  44.958  0.00  0.00    +0.000 NA
ATOM     21  C   UNL     1      35.636  30.166  45.425  0.00  0.00    +0.000 A 
ATOM     22  N   UNL     1      35.395  30.197  46.747  0.00  0.00    +0.000 NA
ATOM     23  H   UNL     1      38.425  31.487  47.726  0.00  0.00    +0.000 HD
ATOM     24  H   UNL     1      38.745  31.396  45.334  0.00  0.00    +0.000 HD
ATOM     25  H   UNL     1      34.916  29.810  44.717  0.00  0.00    +0.000 HD
ENDBRANCH   1  17
BRANCH   6  28
ATOM     26  C   UNL     1      33.936  28.200  49.236  0.00  0.00    +0.000 C 
ATOM     27  O   UNL     1      33.120  28.858  49.945  0.00  0.00    +0.000 OA
ATOM     28  N   UNL     1      35.333  28.348  49.015  0.00  0.00    +0.000 N 
ATOM     29  H   UNL     1      35.716  27.634  48.312  0.00  0.00    +0.000 HD
BRANCH  26  30
ATOM     30  O   UNL     1      33.195  27.191  48.626  0.00  0.00    +0.000 OA
ATOM     31  H   UNL     1      33.000  27.085  47.658  0.00  0.00    +0.000 HD
ENDBRANCH  26  30
ENDBRANCH   6  28
TORSDOF 3
