
 OpenBabel03272503243D

 31 33  0  0  1  0  0  0  0  0999 V2000
   36.3480   29.8890   49.3030 N   0  0  0  0  0  0  0  0  0  0  0  0
   36.8470   31.2510   49.1980 C   0  0  1  0  0  0  0  0  0  0  0  0
   37.5220   31.4110   50.5560 C   0  0  0  0  0  0  0  0  0  0  0  0
   37.1930   30.1630   51.3640 C   0  0  0  0  0  0  0  0  0  0  0  0
   37.1370   29.1370   50.2520 C   0  0  0  0  0  0  0  0  0  0  0  0
   36.0010   31.9700   49.1320 H   0  0  0  0  0  0  0  0  0  0  0  0
   37.0630   32.2550   51.1070 H   0  0  0  0  0  0  0  0  0  0  0  0
   38.6060   31.5750   50.4570 H   0  0  0  0  0  0  0  0  0  0  0  0
   38.0650   29.9240   52.0000 H   0  0  0  0  0  0  0  0  0  0  0  0
   36.2370   30.2500   51.8930 H   0  0  0  0  0  0  0  0  0  0  0  0
   38.1440   28.9040   49.9050 H   0  0  0  0  0  0  0  0  0  0  0  0
   36.5870   28.2310   50.5730 H   0  0  0  0  0  0  0  0  0  0  0  0
   37.8050   31.4290   48.0960 C   0  0  0  0  0  0  0  0  0  0  0  0
   38.8910   31.8960   48.3560 O   0  0  0  0  0  0  0  0  0  0  0  0
   38.0040   31.2660   46.6940 N   0  0  0  0  0  0  0  0  0  0  0  0
   39.4450   31.4050   46.5390 C   0  0  0  0  0  3  0  0  0  0  0  0
   39.9250   30.5540   47.0230 H   0  0  0  0  0  0  0  0  0  0  0  0
   39.6910   31.3300   45.0360 C   0  0  0  0  0  3  0  0  0  0  0  0
   40.7890   31.4940   44.9120 H   0  0  0  0  0  0  0  0  0  0  0  0
   38.9680   32.3280   44.4160 O   0  0  0  0  0  0  0  0  0  0  0  0
   37.6170   32.0760   44.4770 C   0  0  0  0  0  2  0  0  0  0  0  0
   37.2300   31.0200   45.4910 C   0  0  0  0  0  2  0  0  0  0  0  0
   35.2370   29.3820   48.5720 C   0  0  0  0  0  0  0  0  0  0  0  0
   34.5850   30.2430   47.6770 C   0  0  0  0  0  0  0  0  0  0  0  0
   33.4940   29.7940   46.9390 C   0  0  0  0  0  0  0  0  0  0  0  0
   33.1170   28.4750   47.1520 N   0  0  0  0  0  0  0  0  0  0  0  0
   33.7570   27.6830   48.0100 C   0  0  0  0  0  0  0  0  0  0  0  0
   34.8240   28.1340   48.7260 N   0  0  0  0  0  0  0  0  0  0  0  0
   34.8780   31.2740   47.5090 H   0  0  0  0  0  0  0  0  0  0  0  0
   32.9850   30.4500   46.2470 H   0  0  0  0  0  0  0  0  0  0  0  0
   33.4110   26.6850   48.1200 H   0  0  0  0  0  0  0  0  0  0  0  0
  1  5  1  0  0  0  0
  2  6  1  6  0  0  0
  2  1  1  0  0  0  0
  2  3  1  0  0  0  0
  3  7  1  0  0  0  0
  3  4  1  0  0  0  0
  4 10  1  0  0  0  0
  4  9  1  0  0  0  0
  5 12  1  0  0  0  0
  5  4  1  0  0  0  0
  8  3  1  0  0  0  0
 11  5  1  0  0  0  0
 13 14  2  0  0  0  0
 13  2  1  0  0  0  0
 15 13  1  0  0  0  0
 16 15  1  0  0  0  0
 16 17  1  0  0  0  0
 18 16  1  0  0  0  0
 19 18  1  0  0  0  0
 20 21  1  0  0  0  0
 20 18  1  0  0  0  0
 21 22  1  0  0  0  0
 22 15  1  0  0  0  0
 23 28  1  0  0  0  0
 23  1  1  0  0  0  0
 24 23  2  0  0  0  0
 25 26  2  0  0  0  0
 25 24  1  0  0  0  0
 26 27  1  0  0  0  0
 27 31  1  0  0  0  0
 27 28  2  0  0  0  0
 29 24  1  0  0  0  0
 30 25  1  0  0  0  0
M  END
>  <minimizedAffinity>
-5.58404589

>  <minimizedRMSD>
1.35255599

$$$$
