
 OpenBabel03272507303D

 28 30  0  0  0  0  0  0  0  0999 V2000
   35.9890   30.4920   49.3040 C   0  0  0  0  0  0  0  0  0  0  0  0
   36.8640   30.6470   50.3220 C   0  0  0  0  0  0  0  0  0  0  0  0
   37.9940   31.3100   49.8340 C   0  0  0  0  0  0  0  0  0  0  0  0
   37.7200   31.5260   48.4850 C   0  0  0  0  0  0  0  0  0  0  0  0
   36.5500   31.0240   48.2680 O   0  0  0  0  0  0  0  0  0  0  0  0
   36.8450   30.3700   51.3680 H   0  0  0  0  0  0  0  0  0  0  0  0
   38.9020   31.6100   50.3470 H   0  0  0  0  0  0  0  0  0  0  0  0
   38.6150   32.1970   47.5260 C   0  0  0  0  0  0  0  0  0  0  0  0
   39.2860   33.2040   47.9310 O   0  0  0  0  0  0  0  0  0  0  0  0
   38.6750   31.6750   46.2030 N   0  0  0  0  0  0  0  0  0  0  0  0
   39.3850   30.4460   45.8850 C   0  0  0  0  0  0  0  0  0  0  0  0
   38.8390   29.5460   46.2080 H   0  0  0  0  0  0  0  0  0  0  0  0
   39.5230   30.3760   44.3600 C   0  0  0  0  0  0  0  0  0  0  0  0
   39.9700   29.4220   44.0720 H   0  0  0  0  0  0  0  0  0  0  0  0
   38.2280   30.4430   43.8670 O   0  0  0  0  0  0  0  0  0  0  0  0
   37.8660   31.7690   43.8680 C   0  0  0  0  0  0  0  0  0  0  0  0
   37.9750   32.4620   45.1860 C   0  0  0  0  0  0  0  0  0  0  0  0
   34.7020   29.8400   49.4570 C   0  0  0  0  0  0  0  0  0  0  0  0
   34.1050   29.9400   50.5320 O   0  0  0  0  0  0  0  0  0  0  0  0
   34.1960   29.0990   48.3040 C   0  0  0  0  0  0  0  0  0  0  0  0
   34.2400   27.7100   48.3910 C   0  0  0  0  0  0  0  0  0  0  0  0
   33.7620   26.9840   47.3020 C   0  0  0  0  0  0  0  0  0  0  0  0
   33.2830   27.6510   46.2200 N   0  0  0  0  0  0  0  0  0  0  0  0
   33.2560   29.0040   46.1730 C   0  0  0  0  0  0  0  0  0  0  0  0
   33.7090   29.7100   47.2060 N   0  0  0  0  0  0  0  0  0  0  0  0
   34.6080   27.1240   49.2160 H   0  0  0  0  0  0  0  0  0  0  0  0
   33.7570   25.9040   47.2800 H   0  0  0  0  0  0  0  0  0  0  0  0
   32.8790   29.5660   45.3260 H   0  0  0  0  0  0  0  0  0  0  0  0
  1 18  1  0  0  0  0
  1  2  2  0  0  0  0
  2  6  1  0  0  0  0
  3  2  1  0  0  0  0
  3  7  1  0  0  0  0
  4  3  2  0  0  0  0
  5  4  1  0  0  0  0
  5  1  1  0  0  0  0
  8  9  2  0  0  0  0
  8  4  1  0  0  0  0
 10  8  1  0  0  0  0
 11 10  1  0  0  0  0
 11 12  1  0  0  0  0
 13 11  1  0  0  0  0
 14 13  1  0  0  0  0
 15 16  1  0  0  0  0
 15 13  1  0  0  0  0
 16 17  1  0  0  0  0
 17 10  1  0  0  0  0
 18 19  2  0  0  0  0
 20 21  1  0  0  0  0
 20 18  1  0  0  0  0
 21 26  1  0  0  0  0
 22 21  2  0  0  0  0
 23 22  1  0  0  0  0
 24 23  2  0  0  0  0
 24 25  1  0  0  0  0
 25 20  2  0  0  0  0
 27 22  1  0  0  0  0
 28 24  1  0  0  0  0
M  END
>  <minimizedAffinity>
-5.51333237

>  <minimizedRMSD>
5.78724861

$$$$
