
 OpenBabel03272507303D

 28 30  0  0  0  0  0  0  0  0999 V2000
   35.7840   29.1660   49.8040 C   0  0  0  0  0  0  0  0  0  0  0  0
   34.8020   29.7870   50.4960 C   0  0  0  0  0  0  0  0  0  0  0  0
   33.5730   29.2740   50.0710 C   0  0  0  0  0  0  0  0  0  0  0  0
   33.9020   28.3280   49.1020 C   0  0  0  0  0  0  0  0  0  0  0  0
   35.1900   28.3330   49.0140 O   0  0  0  0  0  0  0  0  0  0  0  0
   34.8020   30.5520   51.2610 H   0  0  0  0  0  0  0  0  0  0  0  0
   32.5660   29.5230   50.3920 H   0  0  0  0  0  0  0  0  0  0  0  0
   32.9390   27.5060   48.3480 C   0  0  0  0  0  0  0  0  0  0  0  0
   31.7270   27.4820   48.7440 O   0  0  0  0  0  0  0  0  0  0  0  0
   33.4270   26.7870   47.2210 N   0  0  0  0  0  0  0  0  0  0  0  0
   33.6470   25.3490   47.2550 C   0  0  0  0  0  3  0  0  0  0  0  0
   32.7080   24.7750   47.2080 H   0  0  0  0  0  0  0  0  0  0  0  0
   34.4740   24.9810   46.0160 C   0  0  0  0  0  3  0  0  0  0  0  0
   34.5840   23.8960   45.9550 H   0  0  0  0  0  0  0  0  0  0  0  0
   33.7330   25.4290   44.9310 O   0  0  0  0  0  0  0  0  0  0  0  0
   33.9770   26.7780   44.8100 C   0  0  0  0  0  2  0  0  0  0  0  0
   33.6900   27.5920   46.0280 C   0  0  0  0  0  2  0  0  0  0  0  0
   37.1920   29.4560   49.9920 C   0  0  0  0  0  0  0  0  0  0  0  0
   37.8310   28.8080   50.8260 O   0  0  0  0  0  0  0  0  0  0  0  0
   37.7650   30.5150   49.1630 C   0  0  0  0  0  0  0  0  0  0  0  0
   38.1370   31.6840   49.8210 C   0  0  0  0  0  0  0  0  0  0  0  0
   38.6860   32.7070   49.0500 C   0  0  0  0  0  0  0  0  0  0  0  0
   38.8290   32.5230   47.7110 N   0  0  0  0  0  0  0  0  0  0  0  0
   38.4550   31.3700   47.1080 C   0  0  0  0  0  0  0  0  0  0  0  0
   37.9300   30.3850   47.8320 N   0  0  0  0  0  0  0  0  0  0  0  0
   38.0490   31.8920   50.8740 H   0  0  0  0  0  0  0  0  0  0  0  0
   39.0030   33.6490   49.4730 H   0  0  0  0  0  0  0  0  0  0  0  0
   38.5570   31.1910   46.0430 H   0  0  0  0  0  0  0  0  0  0  0  0
  1 18  1  0  0  0  0
  1  2  2  0  0  0  0
  2  6  1  0  0  0  0
  3  7  1  0  0  0  0
  3  2  1  0  0  0  0
  4  3  2  0  0  0  0
  5  4  1  0  0  0  0
  5  1  1  0  0  0  0
  8  9  2  0  0  0  0
  8  4  1  0  0  0  0
 10 11  1  0  0  0  0
 10  8  1  0  0  0  0
 12 11  1  0  0  0  0
 13 11  1  0  0  0  0
 14 13  1  0  0  0  0
 15 13  1  0  0  0  0
 16 15  1  0  0  0  0
 16 17  1  0  0  0  0
 17 10  1  0  0  0  0
 18 19  2  0  0  0  0
 20 21  1  0  0  0  0
 20 18  1  0  0  0  0
 21 26  1  0  0  0  0
 22 27  1  0  0  0  0
 22 21  2  0  0  0  0
 23 22  1  0  0  0  0
 24 23  2  0  0  0  0
 24 25  1  0  0  0  0
 25 20  2  0  0  0  0
 28 24  1  0  0  0  0
M  END
>  <minimizedAffinity>
-5.234653

>  <minimizedRMSD>
1.23111308

$$$$
