REMARK  Name = 
REMARK  2 active torsions:
REMARK  status: ('A' for Active; 'I' for Inactive)
REMARK    1  A    between atoms: C_3  and  C_10
REMARK    2  A    between atoms: C_8  and  C_15
REMARK                            x       y       z     vdW  Elec       q    Type
REMARK                         _______ _______ _______ _____ _____    ______ ____
ROOT
ATOM      1 CL   UNL     1      36.750  31.795  50.235  0.00  0.00    +0.000 Cl
ATOM      2  C   UNL     1      37.395  31.734  48.626  0.00  0.00    +0.000 A 
ATOM      3  C   UNL     1      36.737  30.856  47.814  0.00  0.00    +0.000 A 
ATOM      4  C   UNL     1      37.175  30.725  46.477  0.00  0.00    +0.000 A 
ATOM      5  C   UNL     1      38.235  31.460  46.002  0.00  0.00    +0.000 A 
ATOM      6  C   UNL     1      38.870  32.333  46.851  0.00  0.00    +0.000 A 
ATOM      7 CL   UNL     1      40.219  33.280  46.273  0.00  0.00    +0.000 Cl
ATOM      8  C   UNL     1      38.444  32.458  48.146  0.00  0.00    +0.000 A 
ATOM      9  H   UNL     1      36.730  30.065  45.755  0.00  0.00    +0.000 HD
ATOM     10  H   UNL     1      38.602  31.390  44.987  0.00  0.00    +0.000 HD
ENDROOT
BRANCH   8  11
ATOM     11  C   UNL     1      39.094  33.371  49.084  0.00  0.00    +0.000 C 
ATOM     12  O   UNL     1      39.366  34.587  48.938  0.00  0.00    +0.000 OA
ATOM     13  N   UNL     1      39.595  33.136  50.411  0.00  0.00    +0.000 N 
ATOM     14  C   UNL     1      40.704  34.052  50.600  0.00  0.00    +0.000 C 
ATOM     15  H   UNL     1      41.541  33.696  49.966  0.00  0.00    +0.000 HD
ATOM     16  C   UNL     1      41.134  33.951  52.046  0.00  0.00    +0.000 C 
ATOM     17  H   UNL     1      41.904  34.695  52.281  0.00  0.00    +0.000 HD
ATOM     18  O   UNL     1      41.544  32.658  52.333  0.00  0.00    +0.000 OA
ATOM     19  C   UNL     1      40.642  31.697  51.969  0.00  0.00    +0.000 C 
ATOM     20  C   UNL     1      39.284  32.261  51.538  0.00  0.00    +0.000 C 
ENDBRANCH   8  11
BRANCH   3  22
ATOM     21  C   UNL     1      35.774  28.990  49.112  0.00  0.00    +0.000 A 
ATOM     22  C   UNL     1      35.595  29.973  48.095  0.00  0.00    +0.000 A 
ATOM     23  C   UNL     1      34.375  30.021  47.454  0.00  0.00    +0.000 A 
ATOM     24  N   UNL     1      33.413  29.134  47.826  0.00  0.00    +0.000 NA
ATOM     25  C   UNL     1      33.610  28.219  48.788  0.00  0.00    +0.000 A 
ATOM     26  N   UNL     1      34.796  28.144  49.436  0.00  0.00    +0.000 NA
ATOM     27  H   UNL     1      36.738  28.931  49.638  0.00  0.00    +0.000 HD
ATOM     28  H   UNL     1      34.255  30.771  46.685  0.00  0.00    +0.000 HD
ATOM     29  H   UNL     1      32.772  27.555  49.008  0.00  0.00    +0.000 HD
ENDBRANCH   3  22
TORSDOF 2
