
 OpenBabel03272507273D

 38 40  0  0  1  0  0  0  0  0999 V2000
   36.7940   29.7580   49.4940 C   0  0  0  0  0  0  0  0  0  0  0  0
   37.7540   30.4770   48.7530 C   0  0  0  0  0  0  0  0  0  0  0  0
   37.4400   30.8020   47.4270 C   0  0  0  0  0  0  0  0  0  0  0  0
   36.2580   30.4150   46.9410 N   0  0  0  0  0  0  0  0  0  0  0  0
   35.3620   29.7270   47.6760 C   0  0  0  0  0  0  0  0  0  0  0  0
   35.6340   29.4030   48.9420 N   0  0  0  0  0  0  0  0  0  0  0  0
   38.3600   31.5200   46.6370 N   0  0  0  0  0  0  0  0  0  0  0  0
   39.3470   32.4830   47.1380 C   0  0  0  0  0  0  0  0  0  0  0  0
   39.9440   33.1480   45.9500 C   0  0  0  0  0  0  0  0  0  0  0  0
   38.9580   32.8830   44.8880 C   0  0  0  0  0  0  0  0  0  0  0  0
   38.5390   31.4740   45.2180 C   0  0  2  0  0  0  0  0  0  0  0  0
   37.0370   29.5070   50.5160 H   0  0  0  0  0  0  0  0  0  0  0  0
   38.6980   30.7620   49.2100 H   0  0  0  0  0  0  0  0  0  0  0  0
   34.4360   29.4680   47.1740 H   0  0  0  0  0  0  0  0  0  0  0  0
   40.0770   31.9420   47.7840 H   0  0  0  0  0  0  0  0  0  0  0  0
   38.7470   33.2120   47.7210 H   0  0  0  0  0  0  0  0  0  0  0  0
   40.0490   34.2450   46.2010 H   0  0  0  0  0  0  0  0  0  0  0  0
   40.9870   32.8450   45.7060 H   0  0  0  0  0  0  0  0  0  0  0  0
   38.1040   33.5810   44.9810 H   0  0  0  0  0  0  0  0  0  0  0  0
   39.4210   32.9580   43.8790 H   0  0  0  0  0  0  0  0  0  0  0  0
   37.3920   30.9970   44.3860 C   0  0  0  0  0  0  0  0  0  0  0  0
   36.2480   31.5510   44.9440 F   0  0  0  0  0  0  0  0  0  0  0  0
   37.2100   29.6490   44.3410 F   0  0  0  0  0  0  0  0  0  0  0  0
   37.5440   31.5840   43.1360 F   0  0  0  0  0  0  0  0  0  0  0  0
   39.6900   30.5640   44.9800 C   0  0  0  0  0  0  0  0  0  0  0  0
   39.3130   29.5490   45.2210 H   0  0  0  0  0  0  0  0  0  0  0  0
   40.4370   30.7650   45.8040 H   0  0  0  0  0  0  0  0  0  0  0  0
   40.2300   30.9380   43.9250 O   0  0  0  0  0  0  0  0  0  0  0  0
   40.4210   30.4510   42.6740 C   0  0  0  0  0  0  0  0  0  0  0  0
   40.3560   31.4080   41.8640 O   0  0  0  0  0  0  0  0  0  0  0  0
   40.6650   29.3830   41.7910 N   0  0  0  0  0  0  0  0  0  0  0  0
   39.5170   28.6860   41.2530 C   0  0  0  0  0  3  0  0  0  0  0  0
   39.6840   27.5710   41.3690 H   0  0  0  0  0  0  0  0  0  0  0  0
   39.5450   28.9170   39.7380 C   0  0  0  0  0  3  0  0  0  0  0  0
   38.6490   28.4890   39.2890 H   0  0  0  0  0  0  0  0  0  0  0  0
   40.6970   28.3260   39.2530 O   0  0  0  0  0  0  0  0  0  0  0  0
   41.8230   28.9800   39.7560 C   0  0  0  0  0  2  0  0  0  0  0  0
   41.8870   28.7820   41.2560 C   0  0  0  0  0  2  0  0  0  0  0  0
  1 12  1  0  0  0  0
  2 13  1  0  0  0  0
  2  1  2  0  0  0  0
  3  2  1  0  0  0  0
  4  3  2  0  0  0  0
  4  5  1  0  0  0  0
  5  6  2  0  0  0  0
  6  1  1  0  0  0  0
  7  8  1  0  0  0  0
  7  3  1  0  0  0  0
  8 16  1  0  0  0  0
  8 15  1  0  0  0  0
  9 17  1  0  0  0  0
  9  8  1  0  0  0  0
 10 19  1  0  0  0  0
 10 11  1  0  0  0  0
 10  9  1  0  0  0  0
 11 21  1  6  0  0  0
 11  7  1  0  0  0  0
 14  5  1  0  0  0  0
 18  9  1  0  0  0  0
 20 10  1  0  0  0  0
 21 22  1  0  0  0  0
 23 21  1  0  0  0  0
 24 21  1  0  0  0  0
 25 11  1  0  0  0  0
 25 26  1  0  0  0  0
 25 27  1  0  0  0  0
 28 25  1  0  0  0  0
 29 28  1  0  0  0  0
 30 29  2  0  0  0  0
 31 29  1  0  0  0  0
 32 33  1  0  0  0  0
 32 31  1  0  0  0  0
 34 32  1  0  0  0  0
 35 34  1  0  0  0  0
 36 34  1  0  0  0  0
 36 37  1  0  0  0  0
 37 38  1  0  0  0  0
 38 31  1  0  0  0  0
M  END
>  <minimizedAffinity>
-5.120646

>  <minimizedRMSD>
0.952022433

$$$$
