
 OpenBabel03272507273D

 38 40  0  0  1  0  0  0  0  0999 V2000
   36.9480   29.3440   50.3010 C   0  0  0  0  0  0  0  0  0  0  0  0
   37.7560   30.0700   49.4020 C   0  0  0  0  0  0  0  0  0  0  0  0
   37.2110   30.3890   48.1520 C   0  0  0  0  0  0  0  0  0  0  0  0
   35.9650   29.9920   47.8820 N   0  0  0  0  0  0  0  0  0  0  0  0
   35.2180   29.2990   48.7630 C   0  0  0  0  0  0  0  0  0  0  0  0
   35.7110   28.9800   49.9620 N   0  0  0  0  0  0  0  0  0  0  0  0
   37.9720   31.1120   47.2120 N   0  0  0  0  0  0  0  0  0  0  0  0
   39.0240   32.0850   47.5310 C   0  0  0  0  0  0  0  0  0  0  0  0
   39.3970   32.7520   46.2560 C   0  0  0  0  0  0  0  0  0  0  0  0
   38.2420   32.4770   45.3840 C   0  0  0  0  0  0  0  0  0  0  0  0
   37.8980   31.0660   45.7840 C   0  0  2  0  0  0  0  0  0  0  0  0
   37.3680   29.0970   51.2650 H   0  0  0  0  0  0  0  0  0  0  0  0
   38.7640   30.3630   49.6860 H   0  0  0  0  0  0  0  0  0  0  0  0
   34.2200   29.0310   48.4320 H   0  0  0  0  0  0  0  0  0  0  0  0
   39.8610   31.5510   48.0390 H   0  0  0  0  0  0  0  0  0  0  0  0
   38.5300   32.8100   48.2100 H   0  0  0  0  0  0  0  0  0  0  0  0
   39.5360   33.8500   46.4840 H   0  0  0  0  0  0  0  0  0  0  0  0
   40.3830   32.4570   45.8320 H   0  0  0  0  0  0  0  0  0  0  0  0
   37.4120   33.1690   45.6260 H   0  0  0  0  0  0  0  0  0  0  0  0
   38.5200   32.5540   44.3100 H   0  0  0  0  0  0  0  0  0  0  0  0
   36.6270   30.5780   45.1670 C   0  0  0  0  0  0  0  0  0  0  0  0
   35.6000   31.0110   45.9960 F   0  0  0  0  0  0  0  0  0  0  0  0
   36.5060   29.2280   45.0410 F   0  0  0  0  0  0  0  0  0  0  0  0
   36.4830   31.2670   43.9690 F   0  0  0  0  0  0  0  0  0  0  0  0
   38.9970   30.1640   45.3480 C   0  0  0  0  0  0  0  0  0  0  0  0
   38.8220   29.2100   45.8870 H   0  0  0  0  0  0  0  0  0  0  0  0
   39.9460   30.5580   45.8190 H   0  0  0  0  0  0  0  0  0  0  0  0
   39.1270   30.3250   44.1220 O   0  0  0  0  0  0  0  0  0  0  0  0
   39.4450   29.5670   43.0430 C   0  0  0  0  0  0  0  0  0  0  0  0
   38.4720   29.5810   42.2500 O   0  0  0  0  0  0  0  0  0  0  0  0
   40.3410   28.7440   42.3350 N   0  0  0  0  0  0  0  0  0  0  0  0
   39.9140   27.3950   42.0340 C   0  0  0  0  0  3  0  0  0  0  0  0
   40.7440   26.6800   42.3200 H   0  0  0  0  0  0  0  0  0  0  0  0
   39.8440   27.2980   40.5060 C   0  0  0  0  0  3  0  0  0  0  0  0
   39.4380   26.3290   40.2220 H   0  0  0  0  0  0  0  0  0  0  0  0
   41.1260   27.4830   40.0220 O   0  0  0  0  0  0  0  0  0  0  0  0
   41.5650   28.7780   40.3000 C   0  0  0  0  0  2  0  0  0  0  0  0
   41.6870   28.9540   41.8000 C   0  0  0  0  0  2  0  0  0  0  0  0
  1 12  1  0  0  0  0
  2 13  1  0  0  0  0
  2  1  2  0  0  0  0
  3  2  1  0  0  0  0
  4  3  2  0  0  0  0
  4  5  1  0  0  0  0
  5  6  2  0  0  0  0
  6  1  1  0  0  0  0
  7  8  1  0  0  0  0
  7  3  1  0  0  0  0
  8 15  1  0  0  0  0
  8 16  1  0  0  0  0
  9 17  1  0  0  0  0
  9  8  1  0  0  0  0
 10 19  1  0  0  0  0
 10 11  1  0  0  0  0
 10  9  1  0  0  0  0
 11 21  1  6  0  0  0
 11  7  1  0  0  0  0
 14  5  1  0  0  0  0
 18  9  1  0  0  0  0
 20 10  1  0  0  0  0
 21 22  1  0  0  0  0
 23 21  1  0  0  0  0
 24 21  1  0  0  0  0
 25 11  1  0  0  0  0
 25 27  1  0  0  0  0
 25 26  1  0  0  0  0
 28 25  1  0  0  0  0
 29 28  1  0  0  0  0
 30 29  2  0  0  0  0
 31 29  1  0  0  0  0
 32 33  1  0  0  0  0
 32 31  1  0  0  0  0
 34 32  1  0  0  0  0
 35 34  1  0  0  0  0
 36 37  1  0  0  0  0
 36 34  1  0  0  0  0
 37 38  1  0  0  0  0
 38 31  1  0  0  0  0
M  END
>  <minimizedAffinity>
-5.18944883

>  <minimizedRMSD>
1.60920119

$$$$
