
 OpenBabel03272503243D

 31 33  0  0  1  0  0  0  0  0999 V2000
   36.2400   29.8660   49.3760 N   0  0  0  0  0  0  0  0  0  0  0  0
   36.6330   31.2500   49.5880 C   0  0  1  0  0  0  0  0  0  0  0  0
   37.2460   31.1590   50.9820 C   0  0  0  0  0  0  0  0  0  0  0  0
   36.9890   29.7460   51.4880 C   0  0  0  0  0  0  0  0  0  0  0  0
   37.0540   28.9840   50.1820 C   0  0  0  0  0  0  0  0  0  0  0  0
   35.7360   31.9050   49.6340 H   0  0  0  0  0  0  0  0  0  0  0  0
   36.7020   31.8300   51.6760 H   0  0  0  0  0  0  0  0  0  0  0  0
   38.3160   31.4160   50.9760 H   0  0  0  0  0  0  0  0  0  0  0  0
   37.8540   29.4370   52.1030 H   0  0  0  0  0  0  0  0  0  0  0  0
   36.0110   29.6500   51.9740 H   0  0  0  0  0  0  0  0  0  0  0  0
   38.0870   28.9020   49.8460 H   0  0  0  0  0  0  0  0  0  0  0  0
   36.5660   27.9940   50.2750 H   0  0  0  0  0  0  0  0  0  0  0  0
   37.6120   31.7280   48.6000 C   0  0  0  0  0  0  0  0  0  0  0  0
   38.3910   32.5900   48.9410 O   0  0  0  0  0  0  0  0  0  0  0  0
   38.0700   31.5840   47.2580 N   0  0  0  0  0  0  0  0  0  0  0  0
   39.1540   32.5510   47.1660 C   0  0  0  0  0  3  0  0  0  0  0  0
   39.9680   32.2160   47.8100 H   0  0  0  0  0  0  0  0  0  0  0  0
   39.6140   32.4950   45.7130 C   0  0  0  0  0  3  0  0  0  0  0  0
   40.4070   33.2780   45.6280 H   0  0  0  0  0  0  0  0  0  0  0  0
   38.5400   32.7860   44.8970 O   0  0  0  0  0  0  0  0  0  0  0  0
   37.6090   31.7760   44.9190 C   0  0  0  0  0  2  0  0  0  0  0  0
   37.7770   30.8060   46.0680 C   0  0  0  0  0  2  0  0  0  0  0  0
   35.1990   29.4510   48.4980 C   0  0  0  0  0  0  0  0  0  0  0  0
   34.5960   30.4210   47.6830 C   0  0  0  0  0  0  0  0  0  0  0  0
   33.5740   30.0660   46.8080 C   0  0  0  0  0  0  0  0  0  0  0  0
   33.2140   28.7260   46.8060 N   0  0  0  0  0  0  0  0  0  0  0  0
   33.8050   27.8300   47.5930 C   0  0  0  0  0  0  0  0  0  0  0  0
   34.8060   28.1890   48.4460 N   0  0  0  0  0  0  0  0  0  0  0  0
   34.8770   31.4700   47.6830 H   0  0  0  0  0  0  0  0  0  0  0  0
   33.1040   30.8060   46.1760 H   0  0  0  0  0  0  0  0  0  0  0  0
   33.4750   26.8220   47.5370 H   0  0  0  0  0  0  0  0  0  0  0  0
  1  2  1  0  0  0  0
  1  5  1  0  0  0  0
  2  6  1  1  0  0  0
  2  3  1  0  0  0  0
  3  4  1  0  0  0  0
  3  7  1  0  0  0  0
  4 10  1  0  0  0  0
  4  9  1  0  0  0  0
  5 12  1  0  0  0  0
  5  4  1  0  0  0  0
  8  3  1  0  0  0  0
 11  5  1  0  0  0  0
 13 14  2  0  0  0  0
 13  2  1  0  0  0  0
 15 13  1  0  0  0  0
 16 15  1  0  0  0  0
 16 17  1  0  0  0  0
 18 16  1  0  0  0  0
 19 18  1  0  0  0  0
 20 21  1  0  0  0  0
 20 18  1  0  0  0  0
 21 22  1  0  0  0  0
 22 15  1  0  0  0  0
 23  1  1  0  0  0  0
 24 23  2  0  0  0  0
 25 24  1  0  0  0  0
 26 25  2  0  0  0  0
 26 27  1  0  0  0  0
 27 28  2  0  0  0  0
 28 23  1  0  0  0  0
 29 24  1  0  0  0  0
 30 25  1  0  0  0  0
 31 27  1  0  0  0  0
M  END
>  <minimizedAffinity>
-5.61345959

>  <minimizedRMSD>
1.73820531

$$$$
