
     RDKit          3D

 44 46  0  0  0  0  0  0  0  0999 V2000
   36.6838   29.9087   49.0410 C   0  0  0  0  0  0  0  0  0  0  0  0
   37.7037   30.5839   48.3398 C   0  0  0  0  0  0  0  0  0  0  0  0
   37.4712   30.8944   46.9937 C   0  0  0  0  0  0  0  0  0  0  0  0
   36.3043   30.5361   46.4527 N   0  0  0  0  0  0  0  0  0  0  0  0
   35.3490   29.8911   47.1499 C   0  0  0  0  0  0  0  0  0  0  0  0
   35.5434   29.5825   48.4344 N   0  0  0  0  0  0  0  0  0  0  0  0
   38.4553   31.5675   46.2420 N   0  0  0  0  0  0  0  0  0  0  0  0
   39.4447   32.5078   46.7786 C   0  0  0  0  0  0  0  0  0  0  0  0
   40.1254   33.1314   45.6129 C   0  0  0  0  0  0  0  0  0  0  0  0
   39.1877   32.8779   44.5055 C   0  0  0  0  0  0  0  0  0  0  0  0
   38.7055   31.4903   44.8355 C   0  0  2  0  0  0  0  0  0  0  0  0
   37.5899   31.0342   43.9520 C   0  0  0  0  0  0  0  0  0  0  0  0
   36.4659   31.7500   44.3431 F   0  0  0  0  0  0  0  0  0  0  0  0
   37.2746   29.7115   44.0253 F   0  0  0  0  0  0  0  0  0  0  0  0
   37.9042   31.4651   42.6690 F   0  0  0  0  0  0  0  0  0  0  0  0
   39.8377   30.5391   44.6746 C   0  0  0  0  0  0  0  0  0  0  0  0
   40.3444   30.7704   43.5632 O   0  0  0  0  0  0  0  0  0  0  0  0
   40.8979   30.0570   42.5513 C   0  0  0  0  0  0  0  0  0  0  0  0
   40.6504   30.6469   41.4705 O   0  0  0  0  0  0  0  0  0  0  0  0
   36.8644   29.6699   50.0786 H   0  0  0  0  0  0  0  0  0  0  0  0
   38.6322   30.8469   48.8422 H   0  0  0  0  0  0  0  0  0  0  0  0
   34.4429   29.6516   46.6043 H   0  0  0  0  0  0  0  0  0  0  0  0
   40.1224   31.9558   47.4725 H   0  0  0  0  0  0  0  0  0  0  0  0
   38.8388   33.2658   47.3167 H   0  0  0  0  0  0  0  0  0  0  0  0
   40.2527   34.2292   45.8512 H   0  0  0  0  0  0  0  0  0  0  0  0
   41.1685   32.7906   45.4301 H   0  0  0  0  0  0  0  0  0  0  0  0
   38.3544   33.6047   44.5410 H   0  0  0  0  0  0  0  0  0  0  0  0
   39.7062   32.9197   43.5210 H   0  0  0  0  0  0  0  0  0  0  0  0
   39.4578   29.5683   45.0544 H   0  0  0  0  0  0  0  0  0  0  0  0
   40.6162   30.8301   45.4408 H   0  0  0  0  0  0  0  0  0  0  0  0
   41.6348   28.9555   42.0783 N   0  0  0  0  0  0  0  0  0  0  0  0
   42.1207   28.0062   43.0558 C   0  0  1  0  0  0  0  0  0  0  0  0
   43.2154   27.8028   42.8495 H   0  0  0  0  0  0  0  0  0  0  0  0
   41.4248   26.6766   42.7465 C   0  0  1  0  0  0  0  0  0  0  0  0
   41.6836   25.9450   43.5099 H   0  0  0  0  0  0  0  0  0  0  0  0
   41.8392   26.2777   41.4886 O   0  0  0  0  0  0  0  0  0  0  0  0
   41.3833   27.1770   40.5233 C   0  0  0  0  0  0  0  0  0  0  0  0
   42.0449   28.5224   40.7411 C   0  0  0  0  0  0  0  0  0  0  0  0
   41.9647   28.3109   44.0902 H   0  0  0  0  0  0  0  0  0  0  0  0
   40.3234   26.8296   42.7206 H   0  0  0  0  0  0  0  0  0  0  0  0
   41.5920   26.7657   39.5166 H   0  0  0  0  0  0  0  0  0  0  0  0
   40.2911   27.2984   40.6952 H   0  0  0  0  0  0  0  0  0  0  0  0
   43.1546   28.3832   40.7426 H   0  0  0  0  0  0  0  0  0  0  0  0
   41.7404   29.2194   39.9491 H   0  0  0  0  0  0  0  0  0  0  0  0
  2  1  2  0
  3  2  1  0
  4  3  2  0
  4  5  1  0
  5  6  2  0
  6  1  1  0
  7  8  1  0
  7  3  1  0
  9  8  1  0
 10 11  1  0
 10  9  1  0
 11 12  1  6
 11  7  1  0
 12 14  1  0
 12 13  1  0
 15 12  1  0
 16 11  1  0
 17 16  1  0
 18 17  1  0
 19 18  2  0
  1 20  1  0
  2 21  1  0
  5 22  1  0
  8 23  1  0
  8 24  1  0
  9 25  1  0
  9 26  1  0
 10 27  1  0
 10 28  1  0
 16 29  1  0
 16 30  1  0
 31 32  1  0
 32 33  1  1
 32 34  1  0
 34 35  1  1
 34 36  1  0
 36 37  1  0
 37 38  1  0
 38 31  1  0
 32 39  1  0
 34 40  1  0
 37 41  1  0
 37 42  1  0
 38 43  1  0
 38 44  1  0
 18 31  1  0
M  ISO  8  20  14  21  14  22  14  23  13  24  13  25  13  26  13  27  13
M  ISO  5  28  13  29   8  30   8  33   8  35  15
M  END
>  <DihAtoms>  (1) 
16,17,30,31

>  <DihDeg>  (1) 
179.98215057374318

$$$$
