
 OpenBabel03272503243D

 31 33  0  0  1  0  0  0  0  0999 V2000
   36.3160   29.8550   49.3890 N   0  0  0  0  0  0  0  0  0  0  0  0
   36.8080   31.2230   49.3630 C   0  0  1  0  0  0  0  0  0  0  0  0
   37.4500   31.3190   50.7440 C   0  0  0  0  0  0  0  0  0  0  0  0
   37.1110   30.0300   51.4810 C   0  0  0  0  0  0  0  0  0  0  0  0
   37.0890   29.0610   50.3180 C   0  0  0  0  0  0  0  0  0  0  0  0
   35.9590   31.9400   49.3130 H   0  0  0  0  0  0  0  0  0  0  0  0
   36.9720   32.1310   51.3250 H   0  0  0  0  0  0  0  0  0  0  0  0
   38.5350   31.4940   50.6790 H   0  0  0  0  0  0  0  0  0  0  0  0
   37.9690   29.7640   52.1250 H   0  0  0  0  0  0  0  0  0  0  0  0
   36.1420   30.0860   51.9900 H   0  0  0  0  0  0  0  0  0  0  0  0
   38.1050   28.8510   49.9840 H   0  0  0  0  0  0  0  0  0  0  0  0
   36.5370   28.1370   50.5800 H   0  0  0  0  0  0  0  0  0  0  0  0
   37.7910   31.4610   48.2950 C   0  0  0  0  0  0  0  0  0  0  0  0
   38.8750   31.9030   48.6070 O   0  0  0  0  0  0  0  0  0  0  0  0
   38.0190   31.3840   46.8910 N   0  0  0  0  0  0  0  0  0  0  0  0
   38.9560   32.4690   46.6400 C   0  0  0  0  0  3  0  0  0  0  0  0
   39.9020   32.2230   47.1240 H   0  0  0  0  0  0  0  0  0  0  0  0
   39.1560   32.4790   45.1280 C   0  0  0  0  0  3  0  0  0  0  0  0
   39.8300   33.3490   44.9290 H   0  0  0  0  0  0  0  0  0  0  0  0
   37.9300   32.6530   44.5190 O   0  0  0  0  0  0  0  0  0  0  0  0
   37.1350   31.5420   44.6750 C   0  0  0  0  0  2  0  0  0  0  0  0
   37.6090   30.5870   45.7480 C   0  0  0  0  0  2  0  0  0  0  0  0
   35.2260   29.3780   48.6070 C   0  0  0  0  0  0  0  0  0  0  0  0
   34.6250   30.2640   47.7010 C   0  0  0  0  0  0  0  0  0  0  0  0
   33.5570   29.8460   46.9130 C   0  0  0  0  0  0  0  0  0  0  0  0
   33.1500   28.5300   47.0910 N   0  0  0  0  0  0  0  0  0  0  0  0
   33.7410   27.7150   47.9610 C   0  0  0  0  0  0  0  0  0  0  0  0
   34.7870   28.1360   48.7260 N   0  0  0  0  0  0  0  0  0  0  0  0
   34.9430   31.2920   47.5600 H   0  0  0  0  0  0  0  0  0  0  0  0
   33.0880   30.5210   46.2110 H   0  0  0  0  0  0  0  0  0  0  0  0
   33.3740   26.7210   48.0420 H   0  0  0  0  0  0  0  0  0  0  0  0
  1  5  1  0  0  0  0
  2  6  1  6  0  0  0
  2  1  1  0  0  0  0
  2  3  1  0  0  0  0
  3  7  1  0  0  0  0
  3  4  1  0  0  0  0
  4 10  1  0  0  0  0
  4  9  1  0  0  0  0
  5 12  1  0  0  0  0
  5  4  1  0  0  0  0
  8  3  1  0  0  0  0
 11  5  1  0  0  0  0
 13 14  2  0  0  0  0
 13  2  1  0  0  0  0
 15 13  1  0  0  0  0
 16 15  1  0  0  0  0
 16 17  1  0  0  0  0
 18 16  1  0  0  0  0
 19 18  1  0  0  0  0
 20 21  1  0  0  0  0
 20 18  1  0  0  0  0
 21 22  1  0  0  0  0
 22 15  1  0  0  0  0
 23 28  1  0  0  0  0
 23  1  1  0  0  0  0
 24 23  2  0  0  0  0
 25 26  2  0  0  0  0
 25 24  1  0  0  0  0
 26 27  1  0  0  0  0
 27 31  1  0  0  0  0
 27 28  2  0  0  0  0
 29 24  1  0  0  0  0
 30 25  1  0  0  0  0
M  END
>  <minimizedAffinity>
-5.57149982

>  <minimizedRMSD>
1.60915029

$$$$
