
 OpenBabel03272503253D

 31 33  0  0  1  0  0  0  0  0999 V2000
   39.1850   25.2990   34.6560 N   0  0  0  0  0  0  0  0  0  0  0  0
   38.0570   25.9380   33.9970 C   0  0  1  0  0  0  0  0  0  0  0  0
   38.7690   27.0510   33.2340 C   0  0  0  0  0  0  0  0  0  0  0  0
   40.2280   27.0260   33.6710 C   0  0  0  0  0  0  0  0  0  0  0  0
   40.4030   25.5420   33.9160 C   0  0  0  0  0  0  0  0  0  0  0  0
   37.3780   26.3980   34.7490 H   0  0  0  0  0  0  0  0  0  0  0  0
   38.3770   28.0360   33.5530 H   0  0  0  0  0  0  0  0  0  0  0  0
   38.6540   26.9390   32.1450 H   0  0  0  0  0  0  0  0  0  0  0  0
   40.8530   27.3010   32.8030 H   0  0  0  0  0  0  0  0  0  0  0  0
   40.3990   27.6160   34.5790 H   0  0  0  0  0  0  0  0  0  0  0  0
   40.4580   25.0090   32.9660 H   0  0  0  0  0  0  0  0  0  0  0  0
   41.2840   25.3450   34.5560 H   0  0  0  0  0  0  0  0  0  0  0  0
   37.3370   25.0370   33.0860 C   0  0  0  0  0  0  0  0  0  0  0  0
   36.5150   25.5200   32.3380 O   0  0  0  0  0  0  0  0  0  0  0  0
   37.1840   23.6800   32.6770 N   0  0  0  0  0  0  0  0  0  0  0  0
   36.1570   23.7510   31.6480 C   0  0  0  0  0  3  0  0  0  0  0  0
   36.5660   24.2890   30.7930 H   0  0  0  0  0  0  0  0  0  0  0  0
   35.8970   22.3020   31.2470 C   0  0  0  0  0  3  0  0  0  0  0  0
   35.0680   22.3510   30.4990 H   0  0  0  0  0  0  0  0  0  0  0  0
   35.5120   21.5950   32.3670 O   0  0  0  0  0  0  0  0  0  0  0  0
   36.5590   21.4420   33.2450 C   0  0  0  0  0  2  0  0  0  0  0  0
   37.7260   22.3680   32.9800 C   0  0  0  0  0  2  0  0  0  0  0  0
   39.0910   24.5450   35.8600 C   0  0  0  0  0  0  0  0  0  0  0  0
   38.0980   24.9000   36.7860 C   0  0  0  0  0  0  0  0  0  0  0  0
   37.9650   24.1930   37.9770 C   0  0  0  0  0  0  0  0  0  0  0  0
   38.8600   23.1500   38.1680 N   0  0  0  0  0  0  0  0  0  0  0  0
   39.7920   22.8390   37.2700 C   0  0  0  0  0  0  0  0  0  0  0  0
   39.9120   23.5370   36.1060 N   0  0  0  0  0  0  0  0  0  0  0  0
   37.3970   25.7150   36.6380 H   0  0  0  0  0  0  0  0  0  0  0  0
   37.2030   24.4590   38.6970 H   0  0  0  0  0  0  0  0  0  0  0  0
   40.4420   22.0270   37.4850 H   0  0  0  0  0  0  0  0  0  0  0  0
  1 23  1  0  0  0  0
  2  1  1  0  0  0  0
  2  6  1  1  0  0  0
  3  7  1  0  0  0  0
  3  4  1  0  0  0  0
  3  2  1  0  0  0  0
  4  5  1  0  0  0  0
  4 10  1  0  0  0  0
  5 12  1  0  0  0  0
  5  1  1  0  0  0  0
  8  3  1  0  0  0  0
  9  4  1  0  0  0  0
 11  5  1  0  0  0  0
 13  2  1  0  0  0  0
 14 13  2  0  0  0  0
 15 22  1  0  0  0  0
 15 13  1  0  0  0  0
 16 15  1  0  0  0  0
 17 16  1  0  0  0  0
 18 16  1  0  0  0  0
 18 20  1  0  0  0  0
 19 18  1  0  0  0  0
 20 21  1  0  0  0  0
 22 21  1  0  0  0  0
 23 28  2  0  0  0  0
 23 24  1  0  0  0  0
 24 25  2  0  0  0  0
 25 26  1  0  0  0  0
 25 30  1  0  0  0  0
 27 31  1  0  0  0  0
 27 26  2  0  0  0  0
 28 27  1  0  0  0  0
 29 24  1  0  0  0  0
M  END
>  <minimizedAffinity>
-4.96447992

$$$$

 OpenBabel03272503253D

 31 33  0  0  1  0  0  0  0  0999 V2000
   37.5780   25.0620   32.7950 N   0  0  0  0  0  0  0  0  0  0  0  0
   38.7070   25.3340   33.6710 C   0  0  1  0  0  0  0  0  0  0  0  0
   38.8390   26.8440   33.5020 C   0  0  0  0  0  0  0  0  0  0  0  0
   37.8600   27.2560   32.4110 C   0  0  0  0  0  0  0  0  0  0  0  0
   36.7590   26.2450   32.6520 C   0  0  0  0  0  0  0  0  0  0  0  0
   39.6280   24.8480   33.2780 H   0  0  0  0  0  0  0  0  0  0  0  0
   39.8460   27.0920   33.1120 H   0  0  0  0  0  0  0  0  0  0  0  0
   38.6640   27.3780   34.4490 H   0  0  0  0  0  0  0  0  0  0  0  0
   37.4620   28.2550   32.6640 H   0  0  0  0  0  0  0  0  0  0  0  0
   38.2930   27.1630   31.4080 H   0  0  0  0  0  0  0  0  0  0  0  0
   36.1980   26.5070   33.5480 H   0  0  0  0  0  0  0  0  0  0  0  0
   36.1050   26.1500   31.7630 H   0  0  0  0  0  0  0  0  0  0  0  0
   38.4500   24.9690   35.0720 C   0  0  0  0  0  0  0  0  0  0  0  0
   37.9460   25.8010   35.7940 O   0  0  0  0  0  0  0  0  0  0  0  0
   38.5650   23.9290   36.0400 N   0  0  0  0  0  0  0  0  0  0  0  0
   38.0170   24.5300   37.2470 C   0  0  0  0  0  3  0  0  0  0  0  0
   36.9500   24.6950   37.0940 H   0  0  0  0  0  0  0  0  0  0  0  0
   38.2070   23.4770   38.3360 C   0  0  0  0  0  3  0  0  0  0  0  0
   37.8390   23.9590   39.2740 H   0  0  0  0  0  0  0  0  0  0  0  0
   39.5490   23.1730   38.4270 O   0  0  0  0  0  0  0  0  0  0  0  0
   39.9820   22.4880   37.3170 C   0  0  0  0  0  2  0  0  0  0  0  0
   39.0370   22.5600   36.1390 C   0  0  0  0  0  2  0  0  0  0  0  0
   37.3270   23.8070   32.1730 C   0  0  0  0  0  0  0  0  0  0  0  0
   36.0250   23.5400   31.7240 C   0  0  0  0  0  0  0  0  0  0  0  0
   35.7290   22.3270   31.1090 C   0  0  0  0  0  0  0  0  0  0  0  0
   36.7870   21.4370   30.9800 N   0  0  0  0  0  0  0  0  0  0  0  0
   38.0120   21.7210   31.4180 C   0  0  0  0  0  0  0  0  0  0  0  0
   38.2890   22.9120   32.0180 N   0  0  0  0  0  0  0  0  0  0  0  0
   35.1970   24.2350   31.8240 H   0  0  0  0  0  0  0  0  0  0  0  0
   34.7290   22.1120   30.7600 H   0  0  0  0  0  0  0  0  0  0  0  0
   38.7710   20.9900   31.2850 H   0  0  0  0  0  0  0  0  0  0  0  0
  1  2  1  0  0  0  0
  2  6  1  6  0  0  0
  2 13  1  0  0  0  0
  3  2  1  0  0  0  0
  3  8  1  0  0  0  0
  4  5  1  0  0  0  0
  4  9  1  0  0  0  0
  4  3  1  0  0  0  0
  5  1  1  0  0  0  0
  5 11  1  0  0  0  0
  7  3  1  0  0  0  0
 10  4  1  0  0  0  0
 12  5  1  0  0  0  0
 13 14  2  0  0  0  0
 13 15  1  0  0  0  0
 15 22  1  0  0  0  0
 15 16  1  0  0  0  0
 16 18  1  0  0  0  0
 17 16  1  0  0  0  0
 18 20  1  0  0  0  0
 18 19  1  0  0  0  0
 21 20  1  0  0  0  0
 22 21  1  0  0  0  0
 23  1  1  0  0  0  0
 24 29  1  0  0  0  0
 24 23  2  0  0  0  0
 25 24  1  0  0  0  0
 26 25  2  0  0  0  0
 26 27  1  0  0  0  0
 27 28  2  0  0  0  0
 28 23  1  0  0  0  0
 30 25  1  0  0  0  0
 31 27  1  0  0  0  0
M  END
>  <minimizedAffinity>
-4.90931797

$$$$

 OpenBabel03272503253D

 31 33  0  0  1  0  0  0  0  0999 V2000
   36.8690   21.4640   33.6690 N   0  0  0  0  0  0  0  0  0  0  0  0
   36.8710   21.6370   32.2250 C   0  0  1  0  0  0  0  0  0  0  0  0
   35.9580   20.4900   31.8020 C   0  0  0  0  0  0  0  0  0  0  0  0
   35.6580   19.6770   33.0550 C   0  0  0  0  0  0  0  0  0  0  0  0
   35.6680   20.7800   34.0920 C   0  0  0  0  0  0  0  0  0  0  0  0
   37.8880   21.4550   31.8130 H   0  0  0  0  0  0  0  0  0  0  0  0
   36.5040   19.8050   31.1240 H   0  0  0  0  0  0  0  0  0  0  0  0
   35.0450   20.8550   31.3080 H   0  0  0  0  0  0  0  0  0  0  0  0
   34.6240   19.2950   32.9790 H   0  0  0  0  0  0  0  0  0  0  0  0
   36.4240   18.9190   33.2520 H   0  0  0  0  0  0  0  0  0  0  0  0
   34.7630   21.3820   34.0090 H   0  0  0  0  0  0  0  0  0  0  0  0
   35.8020   20.3670   35.1110 H   0  0  0  0  0  0  0  0  0  0  0  0
   36.3320   22.9380   31.8010 C   0  0  0  0  0  0  0  0  0  0  0  0
   35.4560   22.9460   30.9640 O   0  0  0  0  0  0  0  0  0  0  0  0
   36.4280   24.3480   31.9820 N   0  0  0  0  0  0  0  0  0  0  0  0
   35.4330   24.8760   31.0590 C   0  0  0  0  0  3  0  0  0  0  0  0
   34.4460   24.5830   31.4170 H   0  0  0  0  0  0  0  0  0  0  0  0
   35.5680   26.3930   31.1560 C   0  0  0  0  0  3  0  0  0  0  0  0
   34.8460   26.7970   30.4060 H   0  0  0  0  0  0  0  0  0  0  0  0
   36.8630   26.7430   30.8350 O   0  0  0  0  0  0  0  0  0  0  0  0
   37.7460   26.3360   31.8080 C   0  0  0  0  0  2  0  0  0  0  0  0
   37.1790   25.3110   32.7660 C   0  0  0  0  0  2  0  0  0  0  0  0
   37.9100   21.9080   34.5330 C   0  0  0  0  0  0  0  0  0  0  0  0
   39.2190   21.9390   34.0290 C   0  0  0  0  0  0  0  0  0  0  0  0
   40.2720   22.3660   34.8330 C   0  0  0  0  0  0  0  0  0  0  0  0
   39.9340   22.7440   36.1250 N   0  0  0  0  0  0  0  0  0  0  0  0
   38.6810   22.7020   36.5740 C   0  0  0  0  0  0  0  0  0  0  0  0
   37.6590   22.2830   35.7760 N   0  0  0  0  0  0  0  0  0  0  0  0
   39.4850   21.6450   33.0180 H   0  0  0  0  0  0  0  0  0  0  0  0
   41.2830   22.3940   34.4530 H   0  0  0  0  0  0  0  0  0  0  0  0
   38.4990   23.0060   37.5750 H   0  0  0  0  0  0  0  0  0  0  0  0
  1  5  1  0  0  0  0
  1 23  1  0  0  0  0
  2  6  1  6  0  0  0
  2  1  1  0  0  0  0
  3  2  1  0  0  0  0
  3  4  1  0  0  0  0
  4 10  1  0  0  0  0
  4  5  1  0  0  0  0
  5 12  1  0  0  0  0
  7  3  1  0  0  0  0
  8  3  1  0  0  0  0
  9  4  1  0  0  0  0
 11  5  1  0  0  0  0
 13 15  1  0  0  0  0
 13  2  1  0  0  0  0
 14 13  2  0  0  0  0
 15 22  1  0  0  0  0
 16 18  1  0  0  0  0
 16 17  1  0  0  0  0
 16 15  1  0  0  0  0
 19 18  1  0  0  0  0
 20 18  1  0  0  0  0
 20 21  1  0  0  0  0
 21 22  1  0  0  0  0
 23 28  1  0  0  0  0
 24 23  2  0  0  0  0
 24 25  1  0  0  0  0
 25 26  2  0  0  0  0
 26 27  1  0  0  0  0
 27 31  1  0  0  0  0
 28 27  2  0  0  0  0
 29 24  1  0  0  0  0
 30 25  1  0  0  0  0
M  END
>  <minimizedAffinity>
-4.88669395

$$$$

 OpenBabel03272503253D

 31 33  0  0  1  0  0  0  0  0999 V2000
   38.1040   24.1470   35.2160 N   0  0  0  0  0  0  0  0  0  0  0  0
   38.5150   22.8560   34.6880 C   0  0  1  0  0  0  0  0  0  0  0  0
   39.1390   22.2270   35.9300 C   0  0  0  0  0  0  0  0  0  0  0  0
   39.1610   23.3030   37.0080 C   0  0  0  0  0  0  0  0  0  0  0  0
   37.9030   24.0630   36.6450 C   0  0  0  0  0  0  0  0  0  0  0  0
   39.3070   22.9860   33.9170 H   0  0  0  0  0  0  0  0  0  0  0  0
   40.2000   21.9790   35.7330 H   0  0  0  0  0  0  0  0  0  0  0  0
   38.5970   21.3240   36.2480 H   0  0  0  0  0  0  0  0  0  0  0  0
   38.9910   22.8160   37.9850 H   0  0  0  0  0  0  0  0  0  0  0  0
   40.0560   23.9340   36.9470 H   0  0  0  0  0  0  0  0  0  0  0  0
   37.0220   23.4910   36.9370 H   0  0  0  0  0  0  0  0  0  0  0  0
   37.9080   25.0770   37.0910 H   0  0  0  0  0  0  0  0  0  0  0  0
   37.3890   22.0540   34.1870 C   0  0  0  0  0  0  0  0  0  0  0  0
   36.8030   21.3420   34.9730 O   0  0  0  0  0  0  0  0  0  0  0  0
   36.6210   21.7260   33.0320 N   0  0  0  0  0  0  0  0  0  0  0  0
   35.6500   20.7650   33.5340 C   0  0  0  0  0  3  0  0  0  0  0  0
   34.9770   21.2830   34.2180 H   0  0  0  0  0  0  0  0  0  0  0  0
   34.8630   20.3180   32.3050 C   0  0  0  0  0  3  0  0  0  0  0  0
   34.1570   19.5380   32.6790 H   0  0  0  0  0  0  0  0  0  0  0  0
   35.7440   19.7890   31.3840 O   0  0  0  0  0  0  0  0  0  0  0  0
   36.5470   20.7650   30.8440 C   0  0  0  0  0  2  0  0  0  0  0  0
   36.5500   22.0620   31.6220 C   0  0  0  0  0  2  0  0  0  0  0  0
   37.9300   25.3190   34.4280 C   0  0  0  0  0  0  0  0  0  0  0  0
   37.2730   26.4150   35.0080 C   0  0  0  0  0  0  0  0  0  0  0  0
   37.0790   27.5840   34.2790 C   0  0  0  0  0  0  0  0  0  0  0  0
   37.5680   27.5780   32.9800 N   0  0  0  0  0  0  0  0  0  0  0  0
   38.1870   26.5210   32.4580 C   0  0  0  0  0  0  0  0  0  0  0  0
   38.3720   25.3820   33.1830 N   0  0  0  0  0  0  0  0  0  0  0  0
   36.8900   26.4210   36.0240 H   0  0  0  0  0  0  0  0  0  0  0  0
   36.5750   28.4340   34.7180 H   0  0  0  0  0  0  0  0  0  0  0  0
   38.5340   26.5900   31.4570 H   0  0  0  0  0  0  0  0  0  0  0  0
  1  5  1  0  0  0  0
  2  6  1  6  0  0  0
  2  1  1  0  0  0  0
  2  3  1  0  0  0  0
  3  8  1  0  0  0  0
  3  4  1  0  0  0  0
  4  9  1  0  0  0  0
  5 11  1  0  0  0  0
  5  4  1  0  0  0  0
  5 12  1  0  0  0  0
  7  3  1  0  0  0  0
 10  4  1  0  0  0  0
 13  2  1  0  0  0  0
 13 14  2  0  0  0  0
 15 16  1  0  0  0  0
 15 13  1  0  0  0  0
 16 17  1  0  0  0  0
 18 19  1  0  0  0  0
 18 16  1  0  0  0  0
 20 18  1  0  0  0  0
 21 20  1  0  0  0  0
 21 22  1  0  0  0  0
 22 15  1  0  0  0  0
 23 24  1  0  0  0  0
 23  1  1  0  0  0  0
 24 29  1  0  0  0  0
 25 30  1  0  0  0  0
 25 24  2  0  0  0  0
 26 25  1  0  0  0  0
 27 26  2  0  0  0  0
 27 28  1  0  0  0  0
 28 23  2  0  0  0  0
 31 27  1  0  0  0  0
M  END
>  <minimizedAffinity>
-4.79689407

$$$$

 OpenBabel03272503253D

 31 33  0  0  1  0  0  0  0  0999 V2000
   38.3100   26.5770   33.5250 N   0  0  0  0  0  0  0  0  0  0  0  0
   38.2490   25.1370   33.7190 C   0  0  1  0  0  0  0  0  0  0  0  0
   39.5920   24.7150   33.1300 C   0  0  0  0  0  0  0  0  0  0  0  0
   40.2140   25.9590   32.5090 C   0  0  0  0  0  0  0  0  0  0  0  0
   39.6850   27.0170   33.4550 C   0  0  0  0  0  0  0  0  0  0  0  0
   37.4340   24.6960   33.1040 H   0  0  0  0  0  0  0  0  0  0  0  0
   39.4300   24.0100   32.2910 H   0  0  0  0  0  0  0  0  0  0  0  0
   40.2430   24.2520   33.8870 H   0  0  0  0  0  0  0  0  0  0  0  0
   41.3090   25.9020   32.6450 H   0  0  0  0  0  0  0  0  0  0  0  0
   39.8770   26.1220   31.4790 H   0  0  0  0  0  0  0  0  0  0  0  0
   40.2150   26.9690   34.4060 H   0  0  0  0  0  0  0  0  0  0  0  0
   39.7410   28.0240   32.9970 H   0  0  0  0  0  0  0  0  0  0  0  0
   38.1380   24.7520   35.1340 C   0  0  0  0  0  0  0  0  0  0  0  0
   37.5830   25.5170   35.8910 O   0  0  0  0  0  0  0  0  0  0  0  0
   38.4520   23.7410   36.0890 N   0  0  0  0  0  0  0  0  0  0  0  0
   37.9160   24.2750   37.3330 C   0  0  0  0  0  3  0  0  0  0  0  0
   36.8290   24.3010   37.2540 H   0  0  0  0  0  0  0  0  0  0  0  0
   38.3130   23.2610   38.4030 C   0  0  0  0  0  3  0  0  0  0  0  0
   37.9530   23.6990   39.3660 H   0  0  0  0  0  0  0  0  0  0  0  0
   39.6870   23.1320   38.4000 O   0  0  0  0  0  0  0  0  0  0  0  0
   40.1260   22.5000   37.2610 C   0  0  0  0  0  2  0  0  0  0  0  0
   39.1000   22.4440   36.1510 C   0  0  0  0  0  2  0  0  0  0  0  0
   37.1690   27.4220   33.4180 C   0  0  0  0  0  0  0  0  0  0  0  0
   36.4830   27.4550   32.1950 C   0  0  0  0  0  0  0  0  0  0  0  0
   35.3610   28.2640   32.0400 C   0  0  0  0  0  0  0  0  0  0  0  0
   34.9920   29.0090   33.1520 N   0  0  0  0  0  0  0  0  0  0  0  0
   35.6660   28.9560   34.2990 C   0  0  0  0  0  0  0  0  0  0  0  0
   36.7620   28.1590   34.4380 N   0  0  0  0  0  0  0  0  0  0  0  0
   36.7700   26.8720   31.3250 H   0  0  0  0  0  0  0  0  0  0  0  0
   34.8250   28.2960   31.1020 H   0  0  0  0  0  0  0  0  0  0  0  0
   35.3230   29.5550   35.1060 H   0  0  0  0  0  0  0  0  0  0  0  0
  1  2  1  0  0  0  0
  2  6  1  6  0  0  0
  2 13  1  0  0  0  0
  3  2  1  0  0  0  0
  3  8  1  0  0  0  0
  4  9  1  0  0  0  0
  4  3  1  0  0  0  0
  4  5  1  0  0  0  0
  5  1  1  0  0  0  0
  5 11  1  0  0  0  0
  7  3  1  0  0  0  0
 10  4  1  0  0  0  0
 12  5  1  0  0  0  0
 13 14  2  0  0  0  0
 13 15  1  0  0  0  0
 15 22  1  0  0  0  0
 15 16  1  0  0  0  0
 16 18  1  0  0  0  0
 17 16  1  0  0  0  0
 18 19  1  0  0  0  0
 20 18  1  0  0  0  0
 21 20  1  0  0  0  0
 22 21  1  0  0  0  0
 23  1  1  0  0  0  0
 23 28  1  0  0  0  0
 24 23  2  0  0  0  0
 25 24  1  0  0  0  0
 25 26  2  0  0  0  0
 26 27  1  0  0  0  0
 27 28  2  0  0  0  0
 27 31  1  0  0  0  0
 29 24  1  0  0  0  0
 30 25  1  0  0  0  0
M  END
>  <minimizedAffinity>
-4.72806978

$$$$

 OpenBabel03272503253D

 31 33  0  0  1  0  0  0  0  0999 V2000
   37.7740   26.2880   33.6910 N   0  0  0  0  0  0  0  0  0  0  0  0
   36.9530   27.1480   34.5290 C   0  0  1  0  0  0  0  0  0  0  0  0
   37.9980   27.6630   35.5140 C   0  0  0  0  0  0  0  0  0  0  0  0
   39.2880   26.9070   35.2270 C   0  0  0  0  0  0  0  0  0  0  0  0
   39.1540   26.7170   33.7320 C   0  0  0  0  0  0  0  0  0  0  0  0
   36.2030   26.5450   35.0860 H   0  0  0  0  0  0  0  0  0  0  0  0
   37.7100   27.3840   36.5470 H   0  0  0  0  0  0  0  0  0  0  0  0
   38.1240   28.7540   35.4430 H   0  0  0  0  0  0  0  0  0  0  0  0
   40.1370   27.5930   35.4060 H   0  0  0  0  0  0  0  0  0  0  0  0
   39.3380   25.9520   35.7630 H   0  0  0  0  0  0  0  0  0  0  0  0
   39.3420   27.6580   33.2150 H   0  0  0  0  0  0  0  0  0  0  0  0
   39.8160   25.9050   33.3730 H   0  0  0  0  0  0  0  0  0  0  0  0
   36.3280   28.2500   33.7830 C   0  0  0  0  0  0  0  0  0  0  0  0
   36.8420   28.5990   32.7430 O   0  0  0  0  0  0  0  0  0  0  0  0
   35.2510   29.1850   33.7800 N   0  0  0  0  0  0  0  0  0  0  0  0
   35.4650   29.9410   32.5550 C   0  0  0  0  0  3  0  0  0  0  0  0
   35.3000   29.2740   31.7080 H   0  0  0  0  0  0  0  0  0  0  0  0
   34.3820   31.0170   32.5590 C   0  0  0  0  0  3  0  0  0  0  0  0
   34.5810   31.6330   31.6490 H   0  0  0  0  0  0  0  0  0  0  0  0
   34.5130   31.7710   33.7070 O   0  0  0  0  0  0  0  0  0  0  0  0
   34.1700   31.0450   34.8230 C   0  0  0  0  0  2  0  0  0  0  0  0
   34.1050   29.5510   34.5920 C   0  0  0  0  0  2  0  0  0  0  0  0
   37.2770   25.1830   32.9430 C   0  0  0  0  0  0  0  0  0  0  0  0
   37.8130   23.9130   33.2050 C   0  0  0  0  0  0  0  0  0  0  0  0
   37.3600   22.8010   32.5020 C   0  0  0  0  0  0  0  0  0  0  0  0
   36.3740   23.0420   31.5550 N   0  0  0  0  0  0  0  0  0  0  0  0
   35.8870   24.2600   31.3300 C   0  0  0  0  0  0  0  0  0  0  0  0
   36.3370   25.3410   32.0260 N   0  0  0  0  0  0  0  0  0  0  0  0
   38.5840   23.7230   33.9450 H   0  0  0  0  0  0  0  0  0  0  0  0
   37.7670   21.8190   32.6960 H   0  0  0  0  0  0  0  0  0  0  0  0
   35.1330   24.3660   30.5890 H   0  0  0  0  0  0  0  0  0  0  0  0
  1  5  1  0  0  0  0
  1  2  1  0  0  0  0
  2  6  1  1  0  0  0
  2  3  1  0  0  0  0
  3  7  1  0  0  0  0
  4  9  1  0  0  0  0
  4  3  1  0  0  0  0
  4 10  1  0  0  0  0
  5  4  1  0  0  0  0
  8  3  1  0  0  0  0
 11  5  1  0  0  0  0
 12  5  1  0  0  0  0
 13  2  1  0  0  0  0
 14 13  2  0  0  0  0
 15 13  1  0  0  0  0
 15 22  1  0  0  0  0
 16 18  1  0  0  0  0
 16 15  1  0  0  0  0
 17 16  1  0  0  0  0
 18 20  1  0  0  0  0
 19 18  1  0  0  0  0
 20 21  1  0  0  0  0
 22 21  1  0  0  0  0
 23 24  1  0  0  0  0
 23  1  1  0  0  0  0
 24 29  1  0  0  0  0
 25 30  1  0  0  0  0
 25 24  2  0  0  0  0
 26 25  1  0  0  0  0
 27 26  2  0  0  0  0
 27 28  1  0  0  0  0
 28 23  2  0  0  0  0
 31 27  1  0  0  0  0
M  END
>  <minimizedAffinity>
-4.60831499

$$$$

 OpenBabel03272503253D

 31 33  0  0  1  0  0  0  0  0999 V2000
   38.7490   23.9590   35.9020 N   0  0  0  0  0  0  0  0  0  0  0  0
   39.8960   23.2150   35.4080 C   0  0  1  0  0  0  0  0  0  0  0  0
   40.3200   22.4750   36.6730 C   0  0  0  0  0  0  0  0  0  0  0  0
   39.4560   23.0070   37.8080 C   0  0  0  0  0  0  0  0  0  0  0  0
   38.1770   23.2950   37.0510 C   0  0  0  0  0  0  0  0  0  0  0  0
   40.7110   23.9100   35.1090 H   0  0  0  0  0  0  0  0  0  0  0  0
   41.3610   22.7470   36.9360 H   0  0  0  0  0  0  0  0  0  0  0  0
   40.2370   21.3840   36.5560 H   0  0  0  0  0  0  0  0  0  0  0  0
   39.2540   22.1760   38.5070 H   0  0  0  0  0  0  0  0  0  0  0  0
   39.8780   23.9110   38.2630 H   0  0  0  0  0  0  0  0  0  0  0  0
   37.6630   22.3630   36.8140 H   0  0  0  0  0  0  0  0  0  0  0  0
   37.5300   23.9960   37.6140 H   0  0  0  0  0  0  0  0  0  0  0  0
   39.5510   22.2780   34.3270 C   0  0  0  0  0  0  0  0  0  0  0  0
   40.4540   21.8120   33.6680 O   0  0  0  0  0  0  0  0  0  0  0  0
   38.4760   21.6250   33.6570 N   0  0  0  0  0  0  0  0  0  0  0  0
   39.1460   20.8380   32.6320 C   0  0  0  0  0  3  0  0  0  0  0  0
   39.7260   20.0570   33.1250 H   0  0  0  0  0  0  0  0  0  0  0  0
   38.0200   20.1910   31.8300 C   0  0  0  0  0  3  0  0  0  0  0  0
   38.5320   19.6340   31.0080 H   0  0  0  0  0  0  0  0  0  0  0  0
   37.2100   21.1860   31.3240 O   0  0  0  0  0  0  0  0  0  0  0  0
   36.5000   21.8080   32.3240 C   0  0  0  0  0  2  0  0  0  0  0  0
   37.0290   21.5390   33.7160 C   0  0  0  0  0  2  0  0  0  0  0  0
   38.2700   25.1710   35.3290 C   0  0  0  0  0  0  0  0  0  0  0  0
   38.3790   26.3490   36.0830 C   0  0  0  0  0  0  0  0  0  0  0  0
   37.9260   27.5590   35.5670 C   0  0  0  0  0  0  0  0  0  0  0  0
   37.3770   27.5070   34.2930 N   0  0  0  0  0  0  0  0  0  0  0  0
   37.2860   26.3730   33.6030 C   0  0  0  0  0  0  0  0  0  0  0  0
   37.7340   25.1940   34.1190 N   0  0  0  0  0  0  0  0  0  0  0  0
   38.8090   26.3900   37.0790 H   0  0  0  0  0  0  0  0  0  0  0  0
   38.0070   28.4710   36.1400 H   0  0  0  0  0  0  0  0  0  0  0  0
   36.8530   26.4110   32.6340 H   0  0  0  0  0  0  0  0  0  0  0  0
  1  5  1  0  0  0  0
  2  6  1  6  0  0  0
  2  1  1  0  0  0  0
  2  3  1  0  0  0  0
  3  7  1  0  0  0  0
  3  4  1  0  0  0  0
  4 10  1  0  0  0  0
  4  9  1  0  0  0  0
  5 12  1  0  0  0  0
  5  4  1  0  0  0  0
  8  3  1  0  0  0  0
 11  5  1  0  0  0  0
 13  2  1  0  0  0  0
 14 13  2  0  0  0  0
 15 22  1  0  0  0  0
 15 13  1  0  0  0  0
 16 17  1  0  0  0  0
 16 15  1  0  0  0  0
 18 16  1  0  0  0  0
 19 18  1  0  0  0  0
 20 18  1  0  0  0  0
 20 21  1  0  0  0  0
 21 22  1  0  0  0  0
 23  1  1  0  0  0  0
 23 24  1  0  0  0  0
 24 29  1  0  0  0  0
 25 24  2  0  0  0  0
 25 30  1  0  0  0  0
 26 25  1  0  0  0  0
 27 28  1  0  0  0  0
 27 26  2  0  0  0  0
 28 23  2  0  0  0  0
 31 27  1  0  0  0  0
M  END
>  <minimizedAffinity>
-4.60095072

$$$$

 OpenBabel03272503253D

 31 33  0  0  1  0  0  0  0  0999 V2000
   37.0270   27.3050   33.3370 N   0  0  0  0  0  0  0  0  0  0  0  0
   37.8400   26.2280   32.7950 C   0  0  1  0  0  0  0  0  0  0  0  0
   38.6870   25.8720   34.0130 C   0  0  0  0  0  0  0  0  0  0  0  0
   38.3740   26.9060   35.0870 C   0  0  0  0  0  0  0  0  0  0  0  0
   36.9190   27.1790   34.7730 C   0  0  0  0  0  0  0  0  0  0  0  0
   38.5090   26.6110   31.9940 H   0  0  0  0  0  0  0  0  0  0  0  0
   39.7610   26.0020   33.7750 H   0  0  0  0  0  0  0  0  0  0  0  0
   38.5020   24.8420   34.3540 H   0  0  0  0  0  0  0  0  0  0  0  0
   38.4190   26.4050   36.0710 H   0  0  0  0  0  0  0  0  0  0  0  0
   38.9930   27.8050   34.9900 H   0  0  0  0  0  0  0  0  0  0  0  0
   36.3010   26.3420   35.0990 H   0  0  0  0  0  0  0  0  0  0  0  0
   36.5890   28.1390   35.2160 H   0  0  0  0  0  0  0  0  0  0  0  0
   37.0430   25.0780   32.3400 C   0  0  0  0  0  0  0  0  0  0  0  0
   35.9860   25.3000   31.7920 O   0  0  0  0  0  0  0  0  0  0  0  0
   36.9910   23.6560   32.2760 N   0  0  0  0  0  0  0  0  0  0  0  0
   35.7240   23.3940   31.6090 C   0  0  0  0  0  3  0  0  0  0  0  0
   35.7990   23.7490   30.5810 H   0  0  0  0  0  0  0  0  0  0  0  0
   35.5870   21.8740   31.6010 C   0  0  0  0  0  3  0  0  0  0  0  0
   34.5880   21.6750   31.1410 H   0  0  0  0  0  0  0  0  0  0  0  0
   35.6330   21.4190   32.9020 O   0  0  0  0  0  0  0  0  0  0  0  0
   36.8900   21.5680   33.4390 C   0  0  0  0  0  2  0  0  0  0  0  0
   37.7870   22.5030   32.6580 C   0  0  0  0  0  2  0  0  0  0  0  0
   36.4310   28.3330   32.5540 C   0  0  0  0  0  0  0  0  0  0  0  0
   37.0880   28.7380   31.3830 C   0  0  0  0  0  0  0  0  0  0  0  0
   36.5450   29.7390   30.5830 C   0  0  0  0  0  0  0  0  0  0  0  0
   35.3460   30.2830   31.0210 N   0  0  0  0  0  0  0  0  0  0  0  0
   34.7470   29.8770   32.1390 C   0  0  0  0  0  0  0  0  0  0  0  0
   35.2880   28.8950   32.9130 N   0  0  0  0  0  0  0  0  0  0  0  0
   38.0250   28.3130   31.0380 H   0  0  0  0  0  0  0  0  0  0  0  0
   37.0440   30.0580   29.6780 H   0  0  0  0  0  0  0  0  0  0  0  0
   33.8310   30.3410   32.4110 H   0  0  0  0  0  0  0  0  0  0  0  0
  1  5  1  0  0  0  0
  2  6  1  6  0  0  0
  2  1  1  0  0  0  0
  2  3  1  0  0  0  0
  3  8  1  0  0  0  0
  3  4  1  0  0  0  0
  4  9  1  0  0  0  0
  5  4  1  0  0  0  0
  5 11  1  0  0  0  0
  5 12  1  0  0  0  0
  7  3  1  0  0  0  0
 10  4  1  0  0  0  0
 13  2  1  0  0  0  0
 14 13  2  0  0  0  0
 15 13  1  0  0  0  0
 15 22  1  0  0  0  0
 16 15  1  0  0  0  0
 17 16  1  0  0  0  0
 18 16  1  0  0  0  0
 18 20  1  0  0  0  0
 19 18  1  0  0  0  0
 20 21  1  0  0  0  0
 22 21  1  0  0  0  0
 23 28  1  0  0  0  0
 23  1  1  0  0  0  0
 24 23  2  0  0  0  0
 25 26  2  0  0  0  0
 25 24  1  0  0  0  0
 26 27  1  0  0  0  0
 27 31  1  0  0  0  0
 27 28  2  0  0  0  0
 29 24  1  0  0  0  0
 30 25  1  0  0  0  0
M  END
>  <minimizedAffinity>
-4.59007406

$$$$

 OpenBabel03272503253D

 31 33  0  0  1  0  0  0  0  0999 V2000
   38.5340   27.0200   33.4720 N   0  0  0  0  0  0  0  0  0  0  0  0
   39.1860   27.0120   34.7720 C   0  0  1  0  0  0  0  0  0  0  0  0
   38.0610   27.5410   35.6560 C   0  0  0  0  0  0  0  0  0  0  0  0
   36.9240   27.9510   34.7290 C   0  0  0  0  0  0  0  0  0  0  0  0
   37.1000   26.9250   33.6290 C   0  0  0  0  0  0  0  0  0  0  0  0
   40.0270   27.7400   34.7890 H   0  0  0  0  0  0  0  0  0  0  0  0
   38.3850   28.4710   36.1620 H   0  0  0  0  0  0  0  0  0  0  0  0
   37.7460   26.7990   36.4060 H   0  0  0  0  0  0  0  0  0  0  0  0
   35.9680   27.7370   35.2400 H   0  0  0  0  0  0  0  0  0  0  0  0
   37.0390   28.9760   34.3590 H   0  0  0  0  0  0  0  0  0  0  0  0
   36.7550   25.9490   33.9680 H   0  0  0  0  0  0  0  0  0  0  0  0
   36.5930   27.2480   32.6990 H   0  0  0  0  0  0  0  0  0  0  0  0
   39.6150   25.6700   35.1930 C   0  0  0  0  0  0  0  0  0  0  0  0
   40.7300   25.3070   34.8900 O   0  0  0  0  0  0  0  0  0  0  0  0
   39.2150   24.4870   35.8800 N   0  0  0  0  0  0  0  0  0  0  0  0
   40.3820   23.6230   35.7720 C   0  0  0  0  0  3  0  0  0  0  0  0
   41.1890   24.0650   36.3570 H   0  0  0  0  0  0  0  0  0  0  0  0
   39.9620   22.3060   36.4190 C   0  0  0  0  0  3  0  0  0  0  0  0
   40.8370   21.6240   36.2850 H   0  0  0  0  0  0  0  0  0  0  0  0
   38.8520   21.8240   35.7570 O   0  0  0  0  0  0  0  0  0  0  0  0
   37.7460   22.6030   36.0030 C   0  0  0  0  0  2  0  0  0  0  0  0
   38.0660   23.9590   36.5930 C   0  0  0  0  0  2  0  0  0  0  0  0
   39.2220   27.1110   32.2290 C   0  0  0  0  0  0  0  0  0  0  0  0
   38.4720   26.9950   31.0490 C   0  0  0  0  0  0  0  0  0  0  0  0
   39.0980   27.0770   29.8090 C   0  0  0  0  0  0  0  0  0  0  0  0
   40.4720   27.2750   29.8330 N   0  0  0  0  0  0  0  0  0  0  0  0
   41.1540   27.3800   30.9710 C   0  0  0  0  0  0  0  0  0  0  0  0
   40.5300   27.2990   32.1800 N   0  0  0  0  0  0  0  0  0  0  0  0
   37.3980   26.8410   31.0280 H   0  0  0  0  0  0  0  0  0  0  0  0
   38.5290   26.9900   28.8940 H   0  0  0  0  0  0  0  0  0  0  0  0
   42.2040   27.5300   30.9110 H   0  0  0  0  0  0  0  0  0  0  0  0
  1  5  1  0  0  0  0
  1  2  1  0  0  0  0
  2  6  1  1  0  0  0
  2 13  1  0  0  0  0
  2  3  1  0  0  0  0
  3  7  1  0  0  0  0
  3  8  1  0  0  0  0
  4  9  1  0  0  0  0
  4  3  1  0  0  0  0
  5 11  1  0  0  0  0
  5  4  1  0  0  0  0
 10  4  1  0  0  0  0
 12  5  1  0  0  0  0
 13 15  1  0  0  0  0
 14 13  2  0  0  0  0
 15 22  1  0  0  0  0
 16 15  1  0  0  0  0
 16 17  1  0  0  0  0
 16 18  1  0  0  0  0
 19 18  1  0  0  0  0
 20 21  1  0  0  0  0
 20 18  1  0  0  0  0
 21 22  1  0  0  0  0
 23  1  1  0  0  0  0
 24 23  2  0  0  0  0
 25 26  2  0  0  0  0
 25 24  1  0  0  0  0
 26 27  1  0  0  0  0
 27 28  2  0  0  0  0
 28 23  1  0  0  0  0
 29 24  1  0  0  0  0
 30 25  1  0  0  0  0
 31 27  1  0  0  0  0
M  END
>  <minimizedAffinity>
-4.58128262

$$$$
