
 OpenBabel03272507323D

 35 38  0  0  1  0  0  0  0  0999 V2000
   35.9010   29.2160   49.8450 C   0  0  0  0  0  0  0  0  0  0  0  0
   34.9470   29.6990   50.7110 C   0  0  0  0  0  0  0  0  0  0  0  0
   33.7040   29.2120   50.2810 C   0  0  0  0  0  0  0  0  0  0  0  0
   33.9920   28.4540   49.1670 C   0  0  0  0  0  0  0  0  0  0  0  0
   35.2840   28.4830   48.9470 O   0  0  0  0  0  0  0  0  0  0  0  0
   35.0290   30.3400   51.5890 H   0  0  0  0  0  0  0  0  0  0  0  0
   32.7400   29.4140   50.7560 H   0  0  0  0  0  0  0  0  0  0  0  0
   37.3110   29.5260   49.9970 C   0  0  0  0  0  0  0  0  0  0  0  0
   37.9890   28.8850   50.8170 O   0  0  0  0  0  0  0  0  0  0  0  0
   37.8420   30.5760   49.1730 C   0  0  0  0  0  0  0  0  0  0  0  0
   38.1840   31.7600   49.8070 C   0  0  0  0  0  0  0  0  0  0  0  0
   38.7020   32.8060   49.0350 C   0  0  0  0  0  0  0  0  0  0  0  0
   38.8420   32.5980   47.6840 N   0  0  0  0  0  0  0  0  0  0  0  0
   38.5020   31.4430   47.1070 C   0  0  0  0  0  0  0  0  0  0  0  0
   38.0050   30.4350   47.8400 N   0  0  0  0  0  0  0  0  0  0  0  0
   38.0970   31.9830   50.8580 H   0  0  0  0  0  0  0  0  0  0  0  0
   38.9820   33.7510   49.4930 H   0  0  0  0  0  0  0  0  0  0  0  0
   38.6420   31.3520   46.0280 H   0  0  0  0  0  0  0  0  0  0  0  0
   33.0070   27.7270   48.3560 C   0  0  0  0  0  0  0  0  0  0  0  0
   31.7970   27.6960   48.7590 O   0  0  0  0  0  0  0  0  0  0  0  0
   33.4370   27.0390   47.0920 C   0  0  1  0  0  0  0  0  0  0  0  0
   33.7310   25.5270   47.3620 C   0  0  0  0  0  0  0  0  0  0  0  0
   32.5990   25.9860   46.5180 C   0  0  2  0  0  0  0  0  0  0  0  0
   34.3790   27.4560   46.6870 H   0  0  0  0  0  0  0  0  0  0  0  0
   33.5290   25.1430   48.3770 H   0  0  0  0  0  0  0  0  0  0  0  0
   34.6050   25.0670   46.9030 H   0  0  0  0  0  0  0  0  0  0  0  0
   31.6030   25.8970   47.0050 H   0  0  0  0  0  0  0  0  0  0  0  0
   32.5320   25.7660   45.1160 N   0  0  1  0  0  0  0  0  0  0  0  0
   33.2180   26.6850   44.2730 C   0  0  0  0  0  3  0  0  0  0  0  0
   34.2320   26.2580   44.0150 H   0  0  0  0  0  0  0  0  0  0  0  0
   32.4630   26.7070   42.9570 C   0  0  0  0  0  3  0  0  0  0  0  0
   32.9830   27.3000   42.1790 H   0  0  0  0  0  0  0  0  0  0  0  0
   32.1370   25.4190   42.5800 O   0  0  0  0  0  0  0  0  0  0  0  0
   32.9070   24.4470   43.1800 C   0  0  0  0  0  2  0  0  0  0  0  0
   32.7710   24.4260   44.6890 C   0  0  0  0  0  2  0  0  0  0  0  0
  1  8  1  0  0  0  0
  1  2  2  0  0  0  0
  2  6  1  0  0  0  0
  3  2  1  0  0  0  0
  3  7  1  0  0  0  0
  4  3  2  0  0  0  0
  5  4  1  0  0  0  0
  5  1  1  0  0  0  0
  8  9  2  0  0  0  0
 10 11  1  0  0  0  0
 10  8  1  0  0  0  0
 11 16  1  0  0  0  0
 12 17  1  0  0  0  0
 12 11  2  0  0  0  0
 13 12  1  0  0  0  0
 14 13  2  0  0  0  0
 14 15  1  0  0  0  0
 15 10  2  0  0  0  0
 18 14  1  0  0  0  0
 19 20  2  0  0  0  0
 19  4  1  0  0  0  0
 21 24  1  6  0  0  0
 21 22  1  0  0  0  0
 21 19  1  0  0  0  0
 22 25  1  0  0  0  0
 23 27  1  1  0  0  0
 23 21  1  0  0  0  0
 23 22  1  0  0  0  0
 26 22  1  0  0  0  0
 28 35  1  1  0  0  0
 28 23  1  0  0  0  0
 29 28  1  0  0  0  0
 30 29  1  0  0  0  0
 31 29  1  0  0  0  0
 32 31  1  0  0  0  0
 33 31  1  0  0  0  0
 33 34  1  0  0  0  0
 34 35  1  0  0  0  0
M  END
>  <minimizedAffinity>
-4.82422113

>  <minimizedRMSD>
0.325820297

$$$$
