
 OpenBabel03272507323D

 35 38  0  0  1  0  0  0  0  0999 V2000
   35.8970   29.2160   49.8450 C   0  0  0  0  0  0  0  0  0  0  0  0
   34.9490   29.7100   50.7130 C   0  0  0  0  0  0  0  0  0  0  0  0
   33.7020   29.2260   50.2910 C   0  0  0  0  0  0  0  0  0  0  0  0
   33.9810   28.4610   49.1800 C   0  0  0  0  0  0  0  0  0  0  0  0
   35.2720   28.4820   48.9540 O   0  0  0  0  0  0  0  0  0  0  0  0
   35.0390   30.3550   51.5860 H   0  0  0  0  0  0  0  0  0  0  0  0
   32.7410   29.4370   50.7700 H   0  0  0  0  0  0  0  0  0  0  0  0
   37.3100   29.5200   49.9890 C   0  0  0  0  0  0  0  0  0  0  0  0
   37.9900   28.8730   50.8010 O   0  0  0  0  0  0  0  0  0  0  0  0
   37.8390   30.5710   49.1660 C   0  0  0  0  0  0  0  0  0  0  0  0
   38.1810   31.7550   49.8010 C   0  0  0  0  0  0  0  0  0  0  0  0
   38.6980   32.8020   49.0310 C   0  0  0  0  0  0  0  0  0  0  0  0
   38.8370   32.5960   47.6790 N   0  0  0  0  0  0  0  0  0  0  0  0
   38.4960   31.4420   47.1010 C   0  0  0  0  0  0  0  0  0  0  0  0
   38.0000   30.4330   47.8320 N   0  0  0  0  0  0  0  0  0  0  0  0
   38.0960   31.9760   50.8520 H   0  0  0  0  0  0  0  0  0  0  0  0
   38.9790   33.7470   49.4900 H   0  0  0  0  0  0  0  0  0  0  0  0
   38.6350   31.3530   46.0210 H   0  0  0  0  0  0  0  0  0  0  0  0
   32.9890   27.7350   48.3780 C   0  0  0  0  0  0  0  0  0  0  0  0
   31.7840   27.6920   48.7980 O   0  0  0  0  0  0  0  0  0  0  0  0
   33.4040   27.0610   47.1020 C   0  0  1  0  0  0  0  0  0  0  0  0
   33.7340   25.5540   47.3590 C   0  0  0  0  0  0  0  0  0  0  0  0
   32.5740   25.9920   46.5420 C   0  0  2  0  0  0  0  0  0  0  0  0
   34.3280   27.4980   46.6780 H   0  0  0  0  0  0  0  0  0  0  0  0
   33.5620   25.1620   48.3770 H   0  0  0  0  0  0  0  0  0  0  0  0
   34.6070   25.1130   46.8780 H   0  0  0  0  0  0  0  0  0  0  0  0
   31.5910   25.8810   47.0510 H   0  0  0  0  0  0  0  0  0  0  0  0
   32.4800   25.7770   45.1410 N   0  0  1  0  0  0  0  0  0  0  0  0
   31.3160   25.1190   44.6550 C   0  0  0  0  0  3  0  0  0  0  0  0
   30.5740   25.8980   44.3080 H   0  0  0  0  0  0  0  0  0  0  0  0
   31.7280   24.3890   43.3900 C   0  0  0  0  0  3  0  0  0  0  0  0
   30.8670   23.9420   42.8580 H   0  0  0  0  0  0  0  0  0  0  0  0
   32.5260   25.2080   42.6150 O   0  0  0  0  0  0  0  0  0  0  0  0
   32.3970   26.5500   42.9000 C   0  0  0  0  0  2  0  0  0  0  0  0
   32.7970   26.8980   44.3200 C   0  0  0  0  0  2  0  0  0  0  0  0
  1  8  1  0  0  0  0
  1  2  2  0  0  0  0
  2  6  1  0  0  0  0
  3  2  1  0  0  0  0
  3  7  1  0  0  0  0
  4  3  2  0  0  0  0
  5  4  1  0  0  0  0
  5  1  1  0  0  0  0
  8  9  2  0  0  0  0
 10 11  1  0  0  0  0
 10  8  1  0  0  0  0
 11 16  1  0  0  0  0
 12 17  1  0  0  0  0
 12 11  2  0  0  0  0
 13 12  1  0  0  0  0
 14 13  2  0  0  0  0
 14 15  1  0  0  0  0
 15 10  2  0  0  0  0
 18 14  1  0  0  0  0
 19 20  2  0  0  0  0
 19  4  1  0  0  0  0
 21 24  1  6  0  0  0
 21 22  1  0  0  0  0
 21 19  1  0  0  0  0
 22 25  1  0  0  0  0
 23 27  1  1  0  0  0
 23 21  1  0  0  0  0
 23 22  1  0  0  0  0
 26 22  1  0  0  0  0
 28 35  1  6  0  0  0
 28 23  1  0  0  0  0
 29 28  1  0  0  0  0
 30 29  1  0  0  0  0
 31 29  1  0  0  0  0
 32 31  1  0  0  0  0
 33 34  1  0  0  0  0
 33 31  1  0  0  0  0
 34 35  1  0  0  0  0
M  END
>  <minimizedAffinity>
-4.84661865

>  <minimizedRMSD>
0.377518266

$$$$
