
 OpenBabel03262522173D

 44 47  0  0  1  0  0  0  0  0999 V2000
   42.3360   25.7770   34.9130 C   0  0  0  0  0  0  0  0  0  0  0  0
   43.3650   26.0940   35.1220 H   0  0  0  0  0  0  0  0  0  0  0  0
   41.7020   25.8790   35.8170 H   0  0  0  0  0  0  0  0  0  0  0  0
   41.8530   22.3390   35.6390 C   0  0  1  0  0  0  0  0  0  0  0  0
   41.2120   23.5680   35.0150 C   0  0  0  0  0  0  0  0  0  0  0  0
   42.4070   24.3180   34.5220 C   0  0  2  0  0  0  0  0  0  0  0  0
   43.5310   23.7010   34.9960 O   0  0  0  0  0  0  0  0  0  0  0  0
   43.1700   22.9440   36.1000 C   0  0  0  0  0  0  0  0  0  0  0  0
   42.0640   21.5850   34.8690 H   0  0  0  0  0  0  0  0  0  0  0  0
   40.5020   23.2720   34.2280 H   0  0  0  0  0  0  0  0  0  0  0  0
   40.7410   24.1490   35.8140 H   0  0  0  0  0  0  0  0  0  0  0  0
   42.4030   24.2960   33.4090 H   0  0  0  0  0  0  0  0  0  0  0  0
   43.8720   22.1290   36.2810 H   0  0  0  0  0  0  0  0  0  0  0  0
   42.9860   23.5480   37.0060 H   0  0  0  0  0  0  0  0  0  0  0  0
   41.1040   21.8550   36.6950 O   0  0  0  0  0  0  0  0  0  0  0  0
   39.0540   21.6830   38.2820 H   0  0  0  0  0  0  0  0  0  0  0  0
   39.5480   22.5970   38.1510 N   0  0  0  0  0  0  0  0  0  0  0  0
   39.9530   22.6420   36.7360 C   0  0  2  0  0  3  0  0  0  0  0  0
   38.7960   22.0650   35.9650 C   0  0  0  0  0  3  0  0  0  0  0  0
   38.5100   21.0860   36.4090 H   0  0  0  0  0  0  0  0  0  0  0  0
   37.7610   22.9910   36.0790 O   0  0  0  0  0  0  0  0  0  0  0  0
   37.3980   23.2840   37.3700 C   0  0  0  0  0  2  0  0  0  0  0  0
   38.5350   23.6240   38.2900 C   0  0  0  0  0  2  0  0  0  0  0  0
   41.5420   26.6720   33.5560 S   0  0  0  0  0  0  0  0  0  0  0  0
   37.5910   27.1270   33.4320 C   0  0  0  0  0  0  0  0  0  0  0  0
   37.2230   27.2400   34.7840 C   0  0  0  0  0  0  0  0  0  0  0  0
   38.1650   27.1820   35.7830 C   0  0  0  0  0  0  0  0  0  0  0  0
   39.4710   27.0080   35.3850 C   0  0  0  0  0  0  0  0  0  0  0  0
   39.8070   26.9010   34.0700 C   0  0  0  0  0  0  0  0  0  0  0  0
   38.8850   26.9570   33.0760 N   0  0  0  0  0  0  0  0  0  0  0  0
   36.1980   27.3740   35.0630 H   0  0  0  0  0  0  0  0  0  0  0  0
   37.9370   27.2630   36.8330 H   0  0  0  0  0  0  0  0  0  0  0  0
   40.2950   26.9490   36.1020 H   0  0  0  0  0  0  0  0  0  0  0  0
   36.5490   27.1980   32.4460 C   0  0  0  0  0  0  0  0  0  0  0  0
   36.1100   26.1760   31.9090 O   0  0  0  0  0  0  0  0  0  0  0  0
   36.5760   29.1910   30.9980 C   0  0  0  0  0  0  0  0  0  0  0  0
   35.9530   28.4720   32.0260 C   0  0  0  0  0  0  0  0  0  0  0  0
   34.7870   28.9890   32.6170 C   0  0  0  0  0  0  0  0  0  0  0  0
   34.3030   30.1870   32.1580 N   0  0  0  0  0  0  0  0  0  0  0  0
   34.9250   30.8530   31.1690 C   0  0  0  0  0  0  0  0  0  0  0  0
   36.0240   30.3680   30.6100 N   0  0  0  0  0  0  0  0  0  0  0  0
   37.4820   28.8400   30.5030 H   0  0  0  0  0  0  0  0  0  0  0  0
   34.3700   28.3890   33.3900 H   0  0  0  0  0  0  0  0  0  0  0  0
   34.4690   31.7940   30.8730 H   0  0  0  0  0  0  0  0  0  0  0  0
  1  2  1  0  0  0  0
  1  3  1  0  0  0  0
  4  9  1  6  0  0  0
  4  8  1  0  0  0  0
  4 15  1  0  0  0  0
  5  4  1  0  0  0  0
  5 11  1  0  0  0  0
  6 12  1  6  0  0  0
  6  1  1  0  0  0  0
  6  7  1  0  0  0  0
  6  5  1  0  0  0  0
  7  8  1  0  0  0  0
  8 13  1  0  0  0  0
  8 14  1  0  0  0  0
 10  5  1  0  0  0  0
 17 16  1  0  0  0  0
 17 23  1  0  0  0  0
 18 15  1  1  0  0  0
 18 17  1  0  0  0  0
 19 21  1  0  0  0  0
 19 20  1  0  0  0  0
 19 18  1  0  0  0  0
 21 22  1  0  0  0  0
 22 23  1  0  0  0  0
 24 29  1  0  0  0  0
 24  1  1  0  0  0  0
 25 26  1  0  0  0  0
 26 31  1  0  0  0  0
 26 27  2  0  0  0  0
 27 32  1  0  0  0  0
 28 27  1  0  0  0  0
 28 33  1  0  0  0  0
 29 28  2  0  0  0  0
 30 25  2  0  0  0  0
 30 29  1  0  0  0  0
 34 25  1  0  0  0  0
 35 34  2  0  0  0  0
 36 37  1  0  0  0  0
 37 34  1  0  0  0  0
 37 38  2  0  0  0  0
 38 43  1  0  0  0  0
 39 38  1  0  0  0  0
 40 39  2  0  0  0  0
 41 36  2  0  0  0  0
 41 40  1  0  0  0  0
 42 36  1  0  0  0  0
 44 40  1  0  0  0  0
M  END
>  <minimizedAffinity>
-5.91208839

$$$$

 OpenBabel03262522173D

 44 47  0  0  1  0  0  0  0  0999 V2000
   40.1900   26.6390   34.9380 C   0  0  0  0  0  0  0  0  0  0  0  0
   40.2620   27.4610   34.2160 H   0  0  0  0  0  0  0  0  0  0  0  0
   40.7760   26.8650   35.8520 H   0  0  0  0  0  0  0  0  0  0  0  0
   41.0210   23.1900   34.9210 C   0  0  1  0  0  0  0  0  0  0  0  0
   39.9580   24.2030   34.5270 C   0  0  0  0  0  0  0  0  0  0  0  0
   40.7820   25.4220   34.2620 C   0  0  2  0  0  0  0  0  0  0  0  0
   42.0660   25.1720   34.6600 O   0  0  0  0  0  0  0  0  0  0  0  0
   42.0350   24.1220   35.5650 C   0  0  0  0  0  0  0  0  0  0  0  0
   41.4750   22.7440   34.0250 H   0  0  0  0  0  0  0  0  0  0  0  0
   39.3860   23.8410   33.6600 H   0  0  0  0  0  0  0  0  0  0  0  0
   39.3270   24.3920   35.4010 H   0  0  0  0  0  0  0  0  0  0  0  0
   40.7580   25.6330   33.1690 H   0  0  0  0  0  0  0  0  0  0  0  0
   42.9920   23.6000   35.6140 H   0  0  0  0  0  0  0  0  0  0  0  0
   41.6660   24.4140   36.5640 H   0  0  0  0  0  0  0  0  0  0  0  0
   40.5290   22.2580   35.8140 O   0  0  0  0  0  0  0  0  0  0  0  0
   39.4300   21.6100   38.0770 H   0  0  0  0  0  0  0  0  0  0  0  0
   39.7960   22.5790   37.9230 N   0  0  0  0  0  0  0  0  0  0  0  0
   39.5110   22.9040   36.5160 C   0  0  2  0  0  3  0  0  0  0  0  0
   38.1390   22.3490   36.2420 C   0  0  0  0  0  3  0  0  0  0  0  0
   38.1020   21.2850   36.5640 H   0  0  0  0  0  0  0  0  0  0  0  0
   37.2550   23.1310   36.9840 O   0  0  0  0  0  0  0  0  0  0  0  0
   37.5170   23.1640   38.3310 C   0  0  0  0  0  2  0  0  0  0  0  0
   38.9420   23.4580   38.6970 C   0  0  0  0  0  2  0  0  0  0  0  0
   38.5000   26.2260   35.4320 S   0  0  0  0  0  0  0  0  0  0  0  0
   36.2800   26.0760   32.1330 C   0  0  0  0  0  0  0  0  0  0  0  0
   35.8820   27.4090   31.9360 C   0  0  0  0  0  0  0  0  0  0  0  0
   36.2740   28.4020   32.7990 C   0  0  0  0  0  0  0  0  0  0  0  0
   37.0700   28.0190   33.8550 C   0  0  0  0  0  0  0  0  0  0  0  0
   37.4450   26.7220   34.0290 C   0  0  0  0  0  0  0  0  0  0  0  0
   37.0630   25.7330   33.1820 N   0  0  0  0  0  0  0  0  0  0  0  0
   35.2610   27.6770   31.1050 H   0  0  0  0  0  0  0  0  0  0  0  0
   35.9970   29.4390   32.6940 H   0  0  0  0  0  0  0  0  0  0  0  0
   37.4350   28.7330   34.5990 H   0  0  0  0  0  0  0  0  0  0  0  0
   35.8290   25.0940   31.1860 C   0  0  0  0  0  0  0  0  0  0  0  0
   34.8290   25.2930   30.4900 O   0  0  0  0  0  0  0  0  0  0  0  0
   37.8070   23.8300   30.4370 C   0  0  0  0  0  0  0  0  0  0  0  0
   36.5230   23.8140   30.9940 C   0  0  0  0  0  0  0  0  0  0  0  0
   35.9430   22.5830   31.3500 C   0  0  0  0  0  0  0  0  0  0  0  0
   36.6660   21.4390   31.1340 N   0  0  0  0  0  0  0  0  0  0  0  0
   37.8990   21.4890   30.5960 C   0  0  0  0  0  0  0  0  0  0  0  0
   38.4470   22.6480   30.2610 N   0  0  0  0  0  0  0  0  0  0  0  0
   38.3070   24.7530   30.1420 H   0  0  0  0  0  0  0  0  0  0  0  0
   34.9670   22.6500   31.7670 H   0  0  0  0  0  0  0  0  0  0  0  0
   38.3950   20.5310   30.4620 H   0  0  0  0  0  0  0  0  0  0  0  0
  1 24  1  0  0  0  0
  1  3  1  0  0  0  0
  2  1  1  0  0  0  0
  4  9  1  6  0  0  0
  4  8  1  0  0  0  0
  4 15  1  0  0  0  0
  5  4  1  0  0  0  0
  5 11  1  0  0  0  0
  6 12  1  6  0  0  0
  6  5  1  0  0  0  0
  6  7  1  0  0  0  0
  6  1  1  0  0  0  0
  7  8  1  0  0  0  0
  8 13  1  0  0  0  0
  8 14  1  0  0  0  0
 10  5  1  0  0  0  0
 17 16  1  0  0  0  0
 17 23  1  0  0  0  0
 18 15  1  6  0  0  0
 18 17  1  0  0  0  0
 19 18  1  0  0  0  0
 19 20  1  0  0  0  0
 19 21  1  0  0  0  0
 21 22  1  0  0  0  0
 22 23  1  0  0  0  0
 25 30  1  0  0  0  0
 26 25  2  0  0  0  0
 26 27  1  0  0  0  0
 27 28  2  0  0  0  0
 28 29  1  0  0  0  0
 28 33  1  0  0  0  0
 29 24  1  0  0  0  0
 30 29  2  0  0  0  0
 31 26  1  0  0  0  0
 32 27  1  0  0  0  0
 34 25  1  0  0  0  0
 35 34  2  0  0  0  0
 36 37  1  0  0  0  0
 37 34  1  0  0  0  0
 37 38  2  0  0  0  0
 38 43  1  0  0  0  0
 39 38  1  0  0  0  0
 40 39  2  0  0  0  0
 41 36  2  0  0  0  0
 41 40  1  0  0  0  0
 42 36  1  0  0  0  0
 44 40  1  0  0  0  0
M  END
>  <minimizedAffinity>
-5.72062063

$$$$

 OpenBabel03262522173D

 44 47  0  0  1  0  0  0  0  0999 V2000
   40.2900   26.6000   34.9590 C   0  0  0  0  0  0  0  0  0  0  0  0
   40.3550   27.4240   34.2380 H   0  0  0  0  0  0  0  0  0  0  0  0
   40.9040   26.8120   35.8570 H   0  0  0  0  0  0  0  0  0  0  0  0
   40.9870   23.1220   34.8670 C   0  0  1  0  0  0  0  0  0  0  0  0
   39.9700   24.1850   34.4840 C   0  0  0  0  0  0  0  0  0  0  0  0
   40.8440   25.3770   34.2610 C   0  0  2  0  0  0  0  0  0  0  0  0
   42.1110   25.0680   34.6690 O   0  0  0  0  0  0  0  0  0  0  0  0
   42.0270   23.9980   35.5480 C   0  0  0  0  0  0  0  0  0  0  0  0
   41.4350   22.6810   33.9670 H   0  0  0  0  0  0  0  0  0  0  0  0
   39.3960   23.8670   33.6010 H   0  0  0  0  0  0  0  0  0  0  0  0
   39.3340   24.3780   35.3550 H   0  0  0  0  0  0  0  0  0  0  0  0
   40.8430   25.6150   33.1730 H   0  0  0  0  0  0  0  0  0  0  0  0
   42.9620   23.4380   35.5960 H   0  0  0  0  0  0  0  0  0  0  0  0
   41.6560   24.2800   36.5480 H   0  0  0  0  0  0  0  0  0  0  0  0
   40.4460   22.1880   35.7300 O   0  0  0  0  0  0  0  0  0  0  0  0
   39.3720   21.5570   38.0100 H   0  0  0  0  0  0  0  0  0  0  0  0
   39.7760   22.5120   37.8600 N   0  0  0  0  0  0  0  0  0  0  0  0
   39.4730   22.8670   36.4640 C   0  0  2  0  0  3  0  0  0  0  0  0
   38.0730   22.3740   36.2150 C   0  0  0  0  0  3  0  0  0  0  0  0
   37.9970   21.3080   36.5250 H   0  0  0  0  0  0  0  0  0  0  0  0
   37.2400   23.1830   36.9870 O   0  0  0  0  0  0  0  0  0  0  0  0
   37.5330   23.1860   38.3280 C   0  0  0  0  0  2  0  0  0  0  0  0
   38.9780   23.4160   38.6650 C   0  0  0  0  0  2  0  0  0  0  0  0
   38.6080   26.2100   35.4970 S   0  0  0  0  0  0  0  0  0  0  0  0
   35.9260   28.6370   33.8370 C   0  0  0  0  0  0  0  0  0  0  0  0
   35.8640   28.2050   32.5010 C   0  0  0  0  0  0  0  0  0  0  0  0
   36.6360   27.1600   32.0560 C   0  0  0  0  0  0  0  0  0  0  0  0
   37.4630   26.5690   32.9850 C   0  0  0  0  0  0  0  0  0  0  0  0
   37.5080   27.0020   34.2750 C   0  0  0  0  0  0  0  0  0  0  0  0
   36.7500   28.0330   34.7240 N   0  0  0  0  0  0  0  0  0  0  0  0
   35.2110   28.6850   31.8000 H   0  0  0  0  0  0  0  0  0  0  0  0
   36.6270   26.7890   31.0440 H   0  0  0  0  0  0  0  0  0  0  0  0
   38.1170   25.7300   32.7320 H   0  0  0  0  0  0  0  0  0  0  0  0
   35.0880   29.7370   34.2260 C   0  0  0  0  0  0  0  0  0  0  0  0
   33.8870   29.5700   34.4590 O   0  0  0  0  0  0  0  0  0  0  0  0
   35.9790   31.5460   35.6420 C   0  0  0  0  0  0  0  0  0  0  0  0
   35.6040   31.1040   34.3670 C   0  0  0  0  0  0  0  0  0  0  0  0
   35.7340   31.9760   33.2720 C   0  0  0  0  0  0  0  0  0  0  0  0
   36.2260   33.2350   33.5000 N   0  0  0  0  0  0  0  0  0  0  0  0
   36.5780   33.6280   34.7380 C   0  0  0  0  0  0  0  0  0  0  0  0
   36.4560   32.8080   35.7710 N   0  0  0  0  0  0  0  0  0  0  0  0
   35.9010   30.9140   36.5270 H   0  0  0  0  0  0  0  0  0  0  0  0
   35.4300   31.5720   32.3360 H   0  0  0  0  0  0  0  0  0  0  0  0
   36.9570   34.6440   34.8210 H   0  0  0  0  0  0  0  0  0  0  0  0
  1 24  1  0  0  0  0
  1  3  1  0  0  0  0
  2  1  1  0  0  0  0
  4  9  1  6  0  0  0
  4  8  1  0  0  0  0
  4 15  1  0  0  0  0
  5  4  1  0  0  0  0
  5 11  1  0  0  0  0
  6 12  1  6  0  0  0
  6  5  1  0  0  0  0
  6  7  1  0  0  0  0
  6  1  1  0  0  0  0
  7  8  1  0  0  0  0
  8 13  1  0  0  0  0
  8 14  1  0  0  0  0
 10  5  1  0  0  0  0
 17 16  1  0  0  0  0
 17 23  1  0  0  0  0
 18 15  1  6  0  0  0
 18 17  1  0  0  0  0
 19 18  1  0  0  0  0
 19 20  1  0  0  0  0
 19 21  1  0  0  0  0
 21 22  1  0  0  0  0
 22 23  1  0  0  0  0
 25 34  1  0  0  0  0
 25 30  1  0  0  0  0
 26 25  2  0  0  0  0
 27 26  1  0  0  0  0
 27 28  2  0  0  0  0
 28 29  1  0  0  0  0
 29 30  2  0  0  0  0
 29 24  1  0  0  0  0
 31 26  1  0  0  0  0
 32 27  1  0  0  0  0
 33 28  1  0  0  0  0
 34 37  1  0  0  0  0
 34 35  2  0  0  0  0
 36 41  1  0  0  0  0
 36 42  1  0  0  0  0
 37 36  2  0  0  0  0
 38 39  2  0  0  0  0
 38 37  1  0  0  0  0
 39 40  1  0  0  0  0
 40 44  1  0  0  0  0
 40 41  2  0  0  0  0
 43 38  1  0  0  0  0
M  END
>  <minimizedAffinity>
-5.57420826

$$$$

 OpenBabel03262522173D

 44 47  0  0  1  0  0  0  0  0999 V2000
   37.0010   27.3770   30.7900 C   0  0  0  0  0  0  0  0  0  0  0  0
   38.0070   26.9740   30.9610 H   0  0  0  0  0  0  0  0  0  0  0  0
   36.8920   27.7340   29.7460 H   0  0  0  0  0  0  0  0  0  0  0  0
   35.0840   30.0340   32.1490 C   0  0  1  0  0  0  0  0  0  0  0  0
   35.4760   28.5770   32.3350 C   0  0  0  0  0  0  0  0  0  0  0  0
   36.8430   28.5500   31.7320 C   0  0  2  0  0  0  0  0  0  0  0  0
   37.0700   29.7500   31.1190 O   0  0  0  0  0  0  0  0  0  0  0  0
   35.8400   30.3400   30.8660 C   0  0  0  0  0  0  0  0  0  0  0  0
   35.5020   30.6490   32.9580 H   0  0  0  0  0  0  0  0  0  0  0  0
   35.4410   28.3040   33.4010 H   0  0  0  0  0  0  0  0  0  0  0  0
   34.8110   27.9640   31.7190 H   0  0  0  0  0  0  0  0  0  0  0  0
   37.5850   28.3940   32.5470 H   0  0  0  0  0  0  0  0  0  0  0  0
   35.9220   31.4240   30.7700 H   0  0  0  0  0  0  0  0  0  0  0  0
   35.3010   29.8840   30.0180 H   0  0  0  0  0  0  0  0  0  0  0  0
   33.7180   30.1780   31.9960 O   0  0  0  0  0  0  0  0  0  0  0  0
   31.2430   30.2190   32.7830 H   0  0  0  0  0  0  0  0  0  0  0  0
   31.7650   29.3130   32.7220 N   0  0  0  0  0  0  0  0  0  0  0  0
   33.1460   29.6100   33.1350 C   0  0  2  0  0  3  0  0  0  0  0  0
   33.0270   30.5650   34.2920 C   0  0  0  0  0  3  0  0  0  0  0  0
   32.3600   31.4090   34.0060 H   0  0  0  0  0  0  0  0  0  0  0  0
   32.4820   29.8270   35.3420 O   0  0  0  0  0  0  0  0  0  0  0  0
   31.2750   29.2390   35.0590 C   0  0  0  0  0  2  0  0  0  0  0  0
   31.2270   28.4690   33.7710 C   0  0  0  0  0  2  0  0  0  0  0  0
   35.6620   26.2100   31.1350 S   0  0  0  0  0  0  0  0  0  0  0  0
   38.0450   24.0550   33.4830 C   0  0  0  0  0  0  0  0  0  0  0  0
   37.6480   22.7300   33.2380 C   0  0  0  0  0  0  0  0  0  0  0  0
   36.6410   22.4430   32.3490 C   0  0  0  0  0  0  0  0  0  0  0  0
   36.0520   23.5170   31.7210 C   0  0  0  0  0  0  0  0  0  0  0  0
   36.4510   24.7950   31.9730 C   0  0  0  0  0  0  0  0  0  0  0  0
   37.4440   25.0890   32.8490 N   0  0  0  0  0  0  0  0  0  0  0  0
   38.1250   21.9130   33.7420 H   0  0  0  0  0  0  0  0  0  0  0  0
   36.2990   21.4450   32.1240 H   0  0  0  0  0  0  0  0  0  0  0  0
   35.2410   23.3960   30.9970 H   0  0  0  0  0  0  0  0  0  0  0  0
   39.1060   24.2740   34.4270 C   0  0  0  0  0  0  0  0  0  0  0  0
   40.1880   24.7480   34.0690 O   0  0  0  0  0  0  0  0  0  0  0  0
   37.8890   24.5050   36.5570 C   0  0  0  0  0  0  0  0  0  0  0  0
   38.9650   23.9510   35.8530 C   0  0  0  0  0  0  0  0  0  0  0  0
   39.8680   23.1100   36.5260 C   0  0  0  0  0  0  0  0  0  0  0  0
   39.6560   22.8660   37.8580 N   0  0  0  0  0  0  0  0  0  0  0  0
   38.6120   23.4140   38.5060 C   0  0  0  0  0  0  0  0  0  0  0  0
   37.7600   24.2060   37.8730 N   0  0  0  0  0  0  0  0  0  0  0  0
   37.1580   25.1640   36.0880 H   0  0  0  0  0  0  0  0  0  0  0  0
   40.6590   22.7270   35.9270 H   0  0  0  0  0  0  0  0  0  0  0  0
   38.5260   23.1630   39.5610 H   0  0  0  0  0  0  0  0  0  0  0  0
  1  2  1  0  0  0  0
  1 24  1  0  0  0  0
  1  6  1  0  0  0  0
  3  1  1  0  0  0  0
  4  5  1  0  0  0  0
  4  9  1  1  0  0  0
  5 10  1  0  0  0  0
  6  5  1  0  0  0  0
  6 12  1  1  0  0  0
  7  6  1  0  0  0  0
  8  7  1  0  0  0  0
  8  4  1  0  0  0  0
 11  5  1  0  0  0  0
 13  8  1  0  0  0  0
 14  8  1  0  0  0  0
 15  4  1  0  0  0  0
 17 16  1  0  0  0  0
 17 18  1  0  0  0  0
 17 23  1  0  0  0  0
 18 15  1  6  0  0  0
 18 19  1  0  0  0  0
 19 21  1  0  0  0  0
 20 19  1  0  0  0  0
 22 21  1  0  0  0  0
 23 22  1  0  0  0  0
 24 29  1  0  0  0  0
 25 34  1  0  0  0  0
 26 25  1  0  0  0  0
 26 31  1  0  0  0  0
 27 26  2  0  0  0  0
 28 29  2  0  0  0  0
 28 27  1  0  0  0  0
 29 30  1  0  0  0  0
 30 25  2  0  0  0  0
 32 27  1  0  0  0  0
 33 28  1  0  0  0  0
 34 37  1  0  0  0  0
 35 34  2  0  0  0  0
 36 41  1  0  0  0  0
 37 38  1  0  0  0  0
 37 36  2  0  0  0  0
 38 39  2  0  0  0  0
 39 40  1  0  0  0  0
 40 44  1  0  0  0  0
 41 40  2  0  0  0  0
 42 36  1  0  0  0  0
 43 38  1  0  0  0  0
M  END
>  <minimizedAffinity>
-5.56240559

$$$$

 OpenBabel03262522173D

 44 47  0  0  1  0  0  0  0  0999 V2000
   40.0640   26.6760   34.9340 C   0  0  0  0  0  0  0  0  0  0  0  0
   40.3050   27.5530   34.3200 H   0  0  0  0  0  0  0  0  0  0  0  0
   40.5010   26.7720   35.9480 H   0  0  0  0  0  0  0  0  0  0  0  0
   40.8350   23.2170   34.7920 C   0  0  1  0  0  0  0  0  0  0  0  0
   39.8240   24.2710   34.3730 C   0  0  0  0  0  0  0  0  0  0  0  0
   40.6860   25.4840   34.2400 C   0  0  2  0  0  0  0  0  0  0  0  0
   41.9300   25.1870   34.7210 O   0  0  0  0  0  0  0  0  0  0  0  0
   41.8110   24.0910   35.5630 C   0  0  0  0  0  0  0  0  0  0  0  0
   41.3500   22.8090   33.9110 H   0  0  0  0  0  0  0  0  0  0  0  0
   39.3150   23.9680   33.4450 H   0  0  0  0  0  0  0  0  0  0  0  0
   39.1290   24.4270   35.2040 H   0  0  0  0  0  0  0  0  0  0  0  0
   40.7520   25.7550   33.1620 H   0  0  0  0  0  0  0  0  0  0  0  0
   42.7520   23.5470   35.6570 H   0  0  0  0  0  0  0  0  0  0  0  0
   41.3700   24.3370   36.5440 H   0  0  0  0  0  0  0  0  0  0  0  0
   40.2580   22.2480   35.5910 O   0  0  0  0  0  0  0  0  0  0  0  0
   39.2920   21.5240   37.8910 H   0  0  0  0  0  0  0  0  0  0  0  0
   39.7350   22.4660   37.7750 N   0  0  0  0  0  0  0  0  0  0  0  0
   39.3670   22.9250   36.4250 C   0  0  2  0  0  3  0  0  0  0  0  0
   37.9310   22.5170   36.2350 C   0  0  0  0  0  3  0  0  0  0  0  0
   37.8190   21.4380   36.4830 H   0  0  0  0  0  0  0  0  0  0  0  0
   37.1890   23.3130   37.1060 O   0  0  0  0  0  0  0  0  0  0  0  0
   37.5620   23.2160   38.4230 C   0  0  0  0  0  2  0  0  0  0  0  0
   39.0340   23.3530   38.6820 C   0  0  0  0  0  2  0  0  0  0  0  0
   38.2930   26.3490   35.1040 S   0  0  0  0  0  0  0  0  0  0  0  0
   35.8850   29.0720   33.4870 C   0  0  0  0  0  0  0  0  0  0  0  0
   36.2370   29.0670   32.1260 C   0  0  0  0  0  0  0  0  0  0  0  0
   37.2200   28.2340   31.6510 C   0  0  0  0  0  0  0  0  0  0  0  0
   37.8320   27.4170   32.5750 C   0  0  0  0  0  0  0  0  0  0  0  0
   37.4760   27.4370   33.8890 C   0  0  0  0  0  0  0  0  0  0  0  0
   36.5060   28.2560   34.3690 N   0  0  0  0  0  0  0  0  0  0  0  0
   35.7440   29.7150   31.4300 H   0  0  0  0  0  0  0  0  0  0  0  0
   37.5290   28.1900   30.6190 H   0  0  0  0  0  0  0  0  0  0  0  0
   38.6270   26.7180   32.2990 H   0  0  0  0  0  0  0  0  0  0  0  0
   34.8460   29.9720   33.9070 C   0  0  0  0  0  0  0  0  0  0  0  0
   35.0800   31.1680   34.1020 O   0  0  0  0  0  0  0  0  0  0  0  0
   32.6970   29.1670   33.0080 C   0  0  0  0  0  0  0  0  0  0  0  0
   33.4640   29.5260   34.1240 C   0  0  0  0  0  0  0  0  0  0  0  0
   32.8900   29.4490   35.4050 C   0  0  0  0  0  0  0  0  0  0  0  0
   31.5920   29.0210   35.5100 N   0  0  0  0  0  0  0  0  0  0  0  0
   30.8830   28.6820   34.4180 C   0  0  0  0  0  0  0  0  0  0  0  0
   31.4210   28.7550   33.2100 N   0  0  0  0  0  0  0  0  0  0  0  0
   33.0880   29.2070   31.9910 H   0  0  0  0  0  0  0  0  0  0  0  0
   33.5320   29.7370   36.2030 H   0  0  0  0  0  0  0  0  0  0  0  0
   29.8620   28.3550   34.6000 H   0  0  0  0  0  0  0  0  0  0  0  0
  1 24  1  0  0  0  0
  1  3  1  0  0  0  0
  2  1  1  0  0  0  0
  4  9  1  6  0  0  0
  4  8  1  0  0  0  0
  4 15  1  0  0  0  0
  5  4  1  0  0  0  0
  5 11  1  0  0  0  0
  6 12  1  6  0  0  0
  6  5  1  0  0  0  0
  6  7  1  0  0  0  0
  6  1  1  0  0  0  0
  7  8  1  0  0  0  0
  8 13  1  0  0  0  0
  8 14  1  0  0  0  0
 10  5  1  0  0  0  0
 17 16  1  0  0  0  0
 17 23  1  0  0  0  0
 18 15  1  6  0  0  0
 18 17  1  0  0  0  0
 19 18  1  0  0  0  0
 19 20  1  0  0  0  0
 19 21  1  0  0  0  0
 21 22  1  0  0  0  0
 22 23  1  0  0  0  0
 25 34  1  0  0  0  0
 25 30  1  0  0  0  0
 26 25  2  0  0  0  0
 27 26  1  0  0  0  0
 27 28  2  0  0  0  0
 28 29  1  0  0  0  0
 29 30  2  0  0  0  0
 29 24  1  0  0  0  0
 31 26  1  0  0  0  0
 32 27  1  0  0  0  0
 33 28  1  0  0  0  0
 34 35  2  0  0  0  0
 34 37  1  0  0  0  0
 36 41  2  0  0  0  0
 36 37  1  0  0  0  0
 37 38  2  0  0  0  0
 38 39  1  0  0  0  0
 38 43  1  0  0  0  0
 40 44  1  0  0  0  0
 40 39  2  0  0  0  0
 41 40  1  0  0  0  0
 42 36  1  0  0  0  0
M  END
>  <minimizedAffinity>
-5.52645588

$$$$

 OpenBabel03262522173D

 44 47  0  0  1  0  0  0  0  0999 V2000
   37.0490   27.0780   30.7650 C   0  0  0  0  0  0  0  0  0  0  0  0
   37.9850   26.5120   30.6850 H   0  0  0  0  0  0  0  0  0  0  0  0
   36.7610   27.5040   29.7820 H   0  0  0  0  0  0  0  0  0  0  0  0
   35.9260   29.4730   33.1290 C   0  0  1  0  0  0  0  0  0  0  0  0
   36.4860   28.0680   32.9690 C   0  0  0  0  0  0  0  0  0  0  0  0
   37.3140   28.2100   31.7330 C   0  0  2  0  0  0  0  0  0  0  0  0
   37.0690   29.4380   31.1850 O   0  0  0  0  0  0  0  0  0  0  0  0
   35.8480   29.8840   31.6670 C   0  0  0  0  0  0  0  0  0  0  0  0
   36.6550   30.1190   33.6370 H   0  0  0  0  0  0  0  0  0  0  0  0
   37.0520   27.7760   33.8670 H   0  0  0  0  0  0  0  0  0  0  0  0
   35.6530   27.3920   32.7550 H   0  0  0  0  0  0  0  0  0  0  0  0
   38.3880   28.1290   32.0160 H   0  0  0  0  0  0  0  0  0  0  0  0
   35.7670   30.9720   31.6260 H   0  0  0  0  0  0  0  0  0  0  0  0
   34.9820   29.3820   31.2030 H   0  0  0  0  0  0  0  0  0  0  0  0
   34.6840   29.4580   33.7350 O   0  0  0  0  0  0  0  0  0  0  0  0
   35.6600   29.8840   36.1040 H   0  0  0  0  0  0  0  0  0  0  0  0
   35.8590   30.5500   35.3210 N   0  0  0  0  0  0  0  0  0  0  0  0
   34.6280   30.6120   34.5160 C   0  0  2  0  0  3  0  0  0  0  0  0
   33.4960   30.6180   35.5080 C   0  0  0  0  0  3  0  0  0  0  0  0
   33.6270   29.7750   36.2210 H   0  0  0  0  0  0  0  0  0  0  0  0
   33.5670   31.8470   36.1620 O   0  0  0  0  0  0  0  0  0  0  0  0
   34.7680   32.0940   36.7800 C   0  0  0  0  0  2  0  0  0  0  0  0
   35.9820   31.8590   35.9300 C   0  0  0  0  0  2  0  0  0  0  0  0
   35.6520   26.1240   31.4040 S   0  0  0  0  0  0  0  0  0  0  0  0
   37.9760   23.4530   33.2190 C   0  0  0  0  0  0  0  0  0  0  0  0
   37.4380   22.2170   32.8250 C   0  0  0  0  0  0  0  0  0  0  0  0
   36.3470   22.1500   31.9920 C   0  0  0  0  0  0  0  0  0  0  0  0
   35.8210   23.3510   31.5730 C   0  0  0  0  0  0  0  0  0  0  0  0
   36.3580   24.5390   31.9670 C   0  0  0  0  0  0  0  0  0  0  0  0
   37.4340   24.6160   32.7890 N   0  0  0  0  0  0  0  0  0  0  0  0
   37.8690   21.2980   33.1680 H   0  0  0  0  0  0  0  0  0  0  0  0
   35.8960   21.2290   31.6600 H   0  0  0  0  0  0  0  0  0  0  0  0
   34.9540   23.4070   30.9100 H   0  0  0  0  0  0  0  0  0  0  0  0
   39.1170   23.4400   34.0920 C   0  0  0  0  0  0  0  0  0  0  0  0
   40.2660   23.4560   33.6390 O   0  0  0  0  0  0  0  0  0  0  0  0
   37.8440   23.9790   36.1320 C   0  0  0  0  0  0  0  0  0  0  0  0
   38.9850   23.4090   35.5540 C   0  0  0  0  0  0  0  0  0  0  0  0
   39.9600   22.8290   36.3860 C   0  0  0  0  0  0  0  0  0  0  0  0
   39.7500   22.8470   37.7400 N   0  0  0  0  0  0  0  0  0  0  0  0
   38.6420   23.4030   38.2630 C   0  0  0  0  0  0  0  0  0  0  0  0
   37.7230   23.9500   37.4820 N   0  0  0  0  0  0  0  0  0  0  0  0
   37.0560   24.4430   35.5380 H   0  0  0  0  0  0  0  0  0  0  0  0
   40.7970   22.4160   35.8770 H   0  0  0  0  0  0  0  0  0  0  0  0
   38.5640   23.3690   39.3480 H   0  0  0  0  0  0  0  0  0  0  0  0
  1 24  1  0  0  0  0
  1  6  1  0  0  0  0
  2  1  1  0  0  0  0
  3  1  1  0  0  0  0
  4  9  1  1  0  0  0
  4 15  1  0  0  0  0
  5  4  1  0  0  0  0
  5 10  1  0  0  0  0
  6 12  1  1  0  0  0
  6  5  1  0  0  0  0
  7  8  1  0  0  0  0
  7  6  1  0  0  0  0
  8  4  1  0  0  0  0
 11  5  1  0  0  0  0
 13  8  1  0  0  0  0
 14  8  1  0  0  0  0
 17 23  1  0  0  0  0
 17 16  1  0  0  0  0
 18 15  1  6  0  0  0
 18 17  1  0  0  0  0
 18 19  1  0  0  0  0
 19 21  1  0  0  0  0
 19 20  1  0  0  0  0
 21 22  1  0  0  0  0
 23 22  1  0  0  0  0
 24 29  1  0  0  0  0
 25 34  1  0  0  0  0
 26 31  1  0  0  0  0
 26 25  1  0  0  0  0
 27 26  2  0  0  0  0
 28 29  2  0  0  0  0
 28 27  1  0  0  0  0
 29 30  1  0  0  0  0
 30 25  2  0  0  0  0
 32 27  1  0  0  0  0
 33 28  1  0  0  0  0
 34 37  1  0  0  0  0
 35 34  2  0  0  0  0
 36 41  1  0  0  0  0
 37 36  2  0  0  0  0
 37 38  1  0  0  0  0
 38 39  2  0  0  0  0
 39 40  1  0  0  0  0
 40 44  1  0  0  0  0
 41 40  2  0  0  0  0
 42 36  1  0  0  0  0
 43 38  1  0  0  0  0
M  END
>  <minimizedAffinity>
-5.50091124

$$$$

 OpenBabel03262522173D

 44 47  0  0  1  0  0  0  0  0999 V2000
   38.1990   25.8990   31.0090 C   0  0  0  0  0  0  0  0  0  0  0  0
   38.3400   26.5410   30.1310 H   0  0  0  0  0  0  0  0  0  0  0  0
   39.1040   25.9020   31.6480 H   0  0  0  0  0  0  0  0  0  0  0  0
   37.0610   22.5660   31.4350 C   0  0  1  0  0  0  0  0  0  0  0  0
   36.6630   23.9520   30.9520 C   0  0  0  0  0  0  0  0  0  0  0  0
   37.9720   24.4990   30.4830 C   0  0  2  0  0  0  0  0  0  0  0  0
   38.9620   23.6320   30.8520 O   0  0  0  0  0  0  0  0  0  0  0  0
   38.4810   22.8550   31.8960 C   0  0  0  0  0  0  0  0  0  0  0  0
   37.1020   21.8650   30.5900 H   0  0  0  0  0  0  0  0  0  0  0  0
   35.8910   23.8790   30.1710 H   0  0  0  0  0  0  0  0  0  0  0  0
   36.3330   24.5330   31.8200 H   0  0  0  0  0  0  0  0  0  0  0  0
   37.9390   24.5870   29.3730 H   0  0  0  0  0  0  0  0  0  0  0  0
   39.0120   21.9050   31.9730 H   0  0  0  0  0  0  0  0  0  0  0  0
   38.4400   23.3910   32.8600 H   0  0  0  0  0  0  0  0  0  0  0  0
   36.2530   22.1370   32.4710 O   0  0  0  0  0  0  0  0  0  0  0  0
   34.8620   20.4430   31.0770 H   0  0  0  0  0  0  0  0  0  0  0  0
   35.9080   20.3890   31.0860 N   0  0  0  0  0  0  0  0  0  0  0  0
   36.3220   20.7440   32.4540 C   0  0  2  0  0  3  0  0  0  0  0  0
   35.3250   20.0770   33.3640 C   0  0  0  0  0  3  0  0  0  0  0  0
   34.2950   20.3350   33.0320 H   0  0  0  0  0  0  0  0  0  0  0  0
   35.5620   18.7080   33.2530 O   0  0  0  0  0  0  0  0  0  0  0  0
   35.4720   18.2160   31.9750 C   0  0  0  0  0  2  0  0  0  0  0  0
   36.2390   18.9860   30.9400 C   0  0  0  0  0  2  0  0  0  0  0  0
   36.7750   26.3390   32.0330 S   0  0  0  0  0  0  0  0  0  0  0  0
   38.0310   25.1610   35.6200 C   0  0  0  0  0  0  0  0  0  0  0  0
   38.3160   26.3640   36.2880 C   0  0  0  0  0  0  0  0  0  0  0  0
   38.1360   27.5780   35.6720 C   0  0  0  0  0  0  0  0  0  0  0  0
   37.6670   27.5460   34.3780 C   0  0  0  0  0  0  0  0  0  0  0  0
   37.3970   26.3690   33.7480 C   0  0  0  0  0  0  0  0  0  0  0  0
   37.5710   25.1650   34.3480 N   0  0  0  0  0  0  0  0  0  0  0  0
   38.6810   26.3580   37.2950 H   0  0  0  0  0  0  0  0  0  0  0  0
   38.3390   28.5290   36.1380 H   0  0  0  0  0  0  0  0  0  0  0  0
   37.4900   28.4570   33.7990 H   0  0  0  0  0  0  0  0  0  0  0  0
   38.2460   23.9320   36.3320 C   0  0  0  0  0  0  0  0  0  0  0  0
   37.3200   23.3720   36.9280 O   0  0  0  0  0  0  0  0  0  0  0  0
   40.3820   23.3340   35.2590 C   0  0  0  0  0  0  0  0  0  0  0  0
   39.5600   23.2790   36.3920 C   0  0  0  0  0  0  0  0  0  0  0  0
   40.0150   22.6060   37.5390 C   0  0  0  0  0  0  0  0  0  0  0  0
   41.2570   22.0270   37.5020 N   0  0  0  0  0  0  0  0  0  0  0  0
   42.0220   22.0990   36.3970 C   0  0  0  0  0  0  0  0  0  0  0  0
   41.5950   22.7320   35.3150 N   0  0  0  0  0  0  0  0  0  0  0  0
   40.0820   23.8410   34.3410 H   0  0  0  0  0  0  0  0  0  0  0  0
   39.3370   22.6060   38.3590 H   0  0  0  0  0  0  0  0  0  0  0  0
   42.9910   21.6090   36.4610 H   0  0  0  0  0  0  0  0  0  0  0  0
  1  3  1  0  0  0  0
  1 24  1  0  0  0  0
  2  1  1  0  0  0  0
  4  9  1  6  0  0  0
  4  8  1  0  0  0  0
  4 15  1  0  0  0  0
  5  4  1  0  0  0  0
  5 11  1  0  0  0  0
  6 12  1  6  0  0  0
  6  7  1  0  0  0  0
  6  5  1  0  0  0  0
  6  1  1  0  0  0  0
  7  8  1  0  0  0  0
  8 13  1  0  0  0  0
  8 14  1  0  0  0  0
 10  5  1  0  0  0  0
 16 17  1  0  0  0  0
 17 18  1  0  0  0  0
 18 15  1  6  0  0  0
 18 19  1  0  0  0  0
 20 19  1  0  0  0  0
 21 19  1  0  0  0  0
 22 21  1  0  0  0  0
 23 17  1  0  0  0  0
 23 22  1  0  0  0  0
 24 29  1  0  0  0  0
 25 26  1  0  0  0  0
 25 34  1  0  0  0  0
 26 31  1  0  0  0  0
 27 32  1  0  0  0  0
 27 26  2  0  0  0  0
 28 27  1  0  0  0  0
 29 30  1  0  0  0  0
 29 28  2  0  0  0  0
 30 25  2  0  0  0  0
 33 28  1  0  0  0  0
 34 37  1  0  0  0  0
 34 35  2  0  0  0  0
 36 41  2  0  0  0  0
 36 37  1  0  0  0  0
 37 38  2  0  0  0  0
 38 43  1  0  0  0  0
 39 38  1  0  0  0  0
 40 44  1  0  0  0  0
 40 39  2  0  0  0  0
 41 40  1  0  0  0  0
 42 36  1  0  0  0  0
M  END
>  <minimizedAffinity>
-5.49445009

$$$$

 OpenBabel03262522173D

 44 47  0  0  1  0  0  0  0  0999 V2000
   38.2520   22.4600   30.8840 C   0  0  0  0  0  0  0  0  0  0  0  0
   38.9090   22.7520   31.7120 H   0  0  0  0  0  0  0  0  0  0  0  0
   38.8380   22.0130   30.0550 H   0  0  0  0  0  0  0  0  0  0  0  0
   37.3400   25.8600   31.3230 C   0  0  1  0  0  0  0  0  0  0  0  0
   38.4010   24.9330   30.7510 C   0  0  0  0  0  0  0  0  0  0  0  0
   37.5920   23.7290   30.3920 C   0  0  2  0  0  0  0  0  0  0  0  0
   36.3290   23.8910   30.8890 O   0  0  0  0  0  0  0  0  0  0  0  0
   36.3900   24.8280   31.9100 C   0  0  0  0  0  0  0  0  0  0  0  0
   36.8230   26.3930   30.5140 H   0  0  0  0  0  0  0  0  0  0  0  0
   38.9110   25.4110   29.9010 H   0  0  0  0  0  0  0  0  0  0  0  0
   39.0880   24.6620   31.5590 H   0  0  0  0  0  0  0  0  0  0  0  0
   37.5540   23.6470   29.2820 H   0  0  0  0  0  0  0  0  0  0  0  0
   35.4260   25.3120   32.0750 H   0  0  0  0  0  0  0  0  0  0  0  0
   36.8260   24.4330   32.8440 H   0  0  0  0  0  0  0  0  0  0  0  0
   37.8640   26.6960   32.2900 O   0  0  0  0  0  0  0  0  0  0  0  0
   35.4690   27.4800   32.9210 H   0  0  0  0  0  0  0  0  0  0  0  0
   36.3040   28.0480   33.2000 N   0  0  0  0  0  0  0  0  0  0  0  0
   37.2610   27.9380   32.0860 C   0  0  2  0  0  3  0  0  0  0  0  0
   36.4340   28.0110   30.8310 C   0  0  0  0  0  3  0  0  0  0  0  0
   35.6010   27.2760   30.8960 H   0  0  0  0  0  0  0  0  0  0  0  0
   35.9490   29.3160   30.7680 O   0  0  0  0  0  0  0  0  0  0  0  0
   35.2220   29.7070   31.8650 C   0  0  0  0  0  2  0  0  0  0  0  0
   35.8680   29.4310   33.1910 C   0  0  0  0  0  2  0  0  0  0  0  0
   36.9410   21.3010   31.3440 S   0  0  0  0  0  0  0  0  0  0  0  0
   37.7190   22.2030   35.1410 C   0  0  0  0  0  0  0  0  0  0  0  0
   36.7090   21.5390   35.8580 C   0  0  0  0  0  0  0  0  0  0  0  0
   35.7540   20.7920   35.2120 C   0  0  0  0  0  0  0  0  0  0  0  0
   35.8450   20.7350   33.8390 C   0  0  0  0  0  0  0  0  0  0  0  0
   36.8320   21.3850   33.1630 C   0  0  0  0  0  0  0  0  0  0  0  0
   37.7790   22.1260   33.7920 N   0  0  0  0  0  0  0  0  0  0  0  0
   36.6640   21.6030   36.9260 H   0  0  0  0  0  0  0  0  0  0  0  0
   34.9590   20.2640   35.7130 H   0  0  0  0  0  0  0  0  0  0  0  0
   35.1340   20.1680   33.2320 H   0  0  0  0  0  0  0  0  0  0  0  0
   38.6810   22.9640   35.8880 C   0  0  0  0  0  0  0  0  0  0  0  0
   39.3850   22.4300   36.7500 O   0  0  0  0  0  0  0  0  0  0  0  0
   37.8320   25.2750   35.9870 C   0  0  0  0  0  0  0  0  0  0  0  0
   38.8810   24.4030   35.6720 C   0  0  0  0  0  0  0  0  0  0  0  0
   40.0820   24.9280   35.1640 C   0  0  0  0  0  0  0  0  0  0  0  0
   40.1770   26.2850   34.9960 N   0  0  0  0  0  0  0  0  0  0  0  0
   39.1500   27.0960   35.3090 C   0  0  0  0  0  0  0  0  0  0  0  0
   38.0180   26.6040   35.7880 N   0  0  0  0  0  0  0  0  0  0  0  0
   36.8780   24.9260   36.3840 H   0  0  0  0  0  0  0  0  0  0  0  0
   40.8330   24.2060   34.9480 H   0  0  0  0  0  0  0  0  0  0  0  0
   39.3180   28.1570   35.1410 H   0  0  0  0  0  0  0  0  0  0  0  0
  1 24  1  0  0  0  0
  1  2  1  0  0  0  0
  3  1  1  0  0  0  0
  4  9  1  6  0  0  0
  4  8  1  0  0  0  0
  4 15  1  0  0  0  0
  5  4  1  0  0  0  0
  5 11  1  0  0  0  0
  6 12  1  6  0  0  0
  6  5  1  0  0  0  0
  6  1  1  0  0  0  0
  6  7  1  0  0  0  0
  7  8  1  0  0  0  0
  8 13  1  0  0  0  0
  8 14  1  0  0  0  0
 10  5  1  0  0  0  0
 16 17  1  0  0  0  0
 18 15  1  1  0  0  0
 18 17  1  0  0  0  0
 19 20  1  0  0  0  0
 19 18  1  0  0  0  0
 21 19  1  0  0  0  0
 21 22  1  0  0  0  0
 22 23  1  0  0  0  0
 23 17  1  0  0  0  0
 24 29  1  0  0  0  0
 25 26  1  0  0  0  0
 25 34  1  0  0  0  0
 26 31  1  0  0  0  0
 27 32  1  0  0  0  0
 27 26  2  0  0  0  0
 28 27  1  0  0  0  0
 29 30  1  0  0  0  0
 29 28  2  0  0  0  0
 30 25  2  0  0  0  0
 33 28  1  0  0  0  0
 34 35  2  0  0  0  0
 36 42  1  0  0  0  0
 37 34  1  0  0  0  0
 37 36  2  0  0  0  0
 38 37  1  0  0  0  0
 39 38  2  0  0  0  0
 39 40  1  0  0  0  0
 40 41  2  0  0  0  0
 41 36  1  0  0  0  0
 43 38  1  0  0  0  0
 44 40  1  0  0  0  0
M  END
>  <minimizedAffinity>
-5.47610664

$$$$

 OpenBabel03262522173D

 44 47  0  0  1  0  0  0  0  0999 V2000
   36.5070   28.8750   30.9260 C   0  0  0  0  0  0  0  0  0  0  0  0
   37.5880   29.0460   30.8510 H   0  0  0  0  0  0  0  0  0  0  0  0
   36.0060   29.0890   29.9600 H   0  0  0  0  0  0  0  0  0  0  0  0
   33.8710   30.2280   32.8770 C   0  0  1  0  0  0  0  0  0  0  0  0
   34.9790   29.1870   32.8560 C   0  0  0  0  0  0  0  0  0  0  0  0
   35.9930   29.8390   31.9720 C   0  0  2  0  0  0  0  0  0  0  0  0
   35.4340   30.9600   31.4240 O   0  0  0  0  0  0  0  0  0  0  0  0
   34.0550   30.8250   31.4900 C   0  0  0  0  0  0  0  0  0  0  0  0
   34.0890   31.0030   33.6240 H   0  0  0  0  0  0  0  0  0  0  0  0
   35.3300   28.9790   33.8770 H   0  0  0  0  0  0  0  0  0  0  0  0
   34.5980   28.2950   32.3490 H   0  0  0  0  0  0  0  0  0  0  0  0
   36.8730   30.1190   32.5930 H   0  0  0  0  0  0  0  0  0  0  0  0
   33.5510   31.7920   31.4680 H   0  0  0  0  0  0  0  0  0  0  0  0
   33.6460   30.1230   30.7440 H   0  0  0  0  0  0  0  0  0  0  0  0
   32.6280   29.6450   33.0330 O   0  0  0  0  0  0  0  0  0  0  0  0
   30.4980   29.5040   34.5130 H   0  0  0  0  0  0  0  0  0  0  0  0
   31.1900   28.7170   34.5030 N   0  0  0  0  0  0  0  0  0  0  0  0
   32.5170   29.3440   34.3910 C   0  0  2  0  0  3  0  0  0  0  0  0
   32.4680   30.5590   35.2780 C   0  0  0  0  0  3  0  0  0  0  0  0
   31.5680   31.1630   35.0260 H   0  0  0  0  0  0  0  0  0  0  0  0
   32.4010   30.0760   36.5840 O   0  0  0  0  0  0  0  0  0  0  0  0
   31.3400   29.2410   36.8290 C   0  0  0  0  0  2  0  0  0  0  0  0
   31.1550   28.1350   35.8300 C   0  0  0  0  0  2  0  0  0  0  0  0
   36.0500   27.2040   31.4470 S   0  0  0  0  0  0  0  0  0  0  0  0
   38.3020   24.9550   33.8350 C   0  0  0  0  0  0  0  0  0  0  0  0
   39.5090   25.6680   33.9290 C   0  0  0  0  0  0  0  0  0  0  0  0
   39.6820   26.8610   33.2700 C   0  0  0  0  0  0  0  0  0  0  0  0
   38.6160   27.3080   32.5210 C   0  0  0  0  0  0  0  0  0  0  0  0
   37.4550   26.6010   32.4420 C   0  0  0  0  0  0  0  0  0  0  0  0
   37.2740   25.4230   33.0900 N   0  0  0  0  0  0  0  0  0  0  0  0
   40.3210   25.2950   34.5190 H   0  0  0  0  0  0  0  0  0  0  0  0
   40.5850   27.4470   33.3080 H   0  0  0  0  0  0  0  0  0  0  0  0
   38.6530   28.2450   31.9580 H   0  0  0  0  0  0  0  0  0  0  0  0
   38.1980   23.7150   34.5550 C   0  0  0  0  0  0  0  0  0  0  0  0
   37.8740   22.6710   33.9810 O   0  0  0  0  0  0  0  0  0  0  0  0
   37.6260   24.3080   36.8770 C   0  0  0  0  0  0  0  0  0  0  0  0
   38.4680   23.6210   35.9950 C   0  0  0  0  0  0  0  0  0  0  0  0
   39.5370   22.8680   36.5120 C   0  0  0  0  0  0  0  0  0  0  0  0
   39.7110   22.8370   37.8710 N   0  0  0  0  0  0  0  0  0  0  0  0
   38.8830   23.5090   38.6910 C   0  0  0  0  0  0  0  0  0  0  0  0
   37.8760   24.2200   38.2070 N   0  0  0  0  0  0  0  0  0  0  0  0
   36.7820   24.9080   36.5340 H   0  0  0  0  0  0  0  0  0  0  0  0
   40.1330   22.3740   35.7830 H   0  0  0  0  0  0  0  0  0  0  0  0
   39.1010   23.4260   39.7540 H   0  0  0  0  0  0  0  0  0  0  0  0
  1 24  1  0  0  0  0
  1  6  1  0  0  0  0
  2  1  1  0  0  0  0
  3  1  1  0  0  0  0
  4 15  1  0  0  0  0
  4  9  1  1  0  0  0
  5  4  1  0  0  0  0
  5 10  1  0  0  0  0
  6 12  1  1  0  0  0
  6  5  1  0  0  0  0
  7  8  1  0  0  0  0
  7  6  1  0  0  0  0
  8  4  1  0  0  0  0
 11  5  1  0  0  0  0
 13  8  1  0  0  0  0
 14  8  1  0  0  0  0
 17 16  1  0  0  0  0
 17 23  1  0  0  0  0
 18 15  1  6  0  0  0
 18 17  1  0  0  0  0
 18 19  1  0  0  0  0
 19 21  1  0  0  0  0
 20 19  1  0  0  0  0
 21 22  1  0  0  0  0
 23 22  1  0  0  0  0
 24 29  1  0  0  0  0
 25 26  1  0  0  0  0
 25 34  1  0  0  0  0
 26 31  1  0  0  0  0
 27 32  1  0  0  0  0
 27 26  2  0  0  0  0
 28 27  1  0  0  0  0
 29 28  2  0  0  0  0
 29 30  1  0  0  0  0
 30 25  2  0  0  0  0
 33 28  1  0  0  0  0
 34 37  1  0  0  0  0
 35 34  2  0  0  0  0
 36 41  1  0  0  0  0
 37 38  1  0  0  0  0
 37 36  2  0  0  0  0
 38 39  2  0  0  0  0
 39 40  1  0  0  0  0
 40 44  1  0  0  0  0
 41 40  2  0  0  0  0
 42 36  1  0  0  0  0
 43 38  1  0  0  0  0
M  END
>  <minimizedAffinity>
-5.35404491

$$$$
