
 OpenBabel03272507323D

 35 38  0  0  1  0  0  0  0  0999 V2000
   35.9050   29.2210   49.8530 C   0  0  0  0  0  0  0  0  0  0  0  0
   34.9520   29.7110   50.7170 C   0  0  0  0  0  0  0  0  0  0  0  0
   33.7080   29.2220   50.2910 C   0  0  0  0  0  0  0  0  0  0  0  0
   33.9940   28.4570   49.1810 C   0  0  0  0  0  0  0  0  0  0  0  0
   35.2860   28.4840   48.9590 O   0  0  0  0  0  0  0  0  0  0  0  0
   35.0350   30.3560   51.5910 H   0  0  0  0  0  0  0  0  0  0  0  0
   32.7450   29.4280   50.7660 H   0  0  0  0  0  0  0  0  0  0  0  0
   37.3150   29.5310   50.0010 C   0  0  0  0  0  0  0  0  0  0  0  0
   37.9940   28.8910   50.8200 O   0  0  0  0  0  0  0  0  0  0  0  0
   37.8450   30.5790   49.1750 C   0  0  0  0  0  0  0  0  0  0  0  0
   38.1890   31.7640   49.8060 C   0  0  0  0  0  0  0  0  0  0  0  0
   38.7060   32.8090   49.0310 C   0  0  0  0  0  0  0  0  0  0  0  0
   38.8430   32.5980   47.6800 N   0  0  0  0  0  0  0  0  0  0  0  0
   38.5010   31.4420   47.1060 C   0  0  0  0  0  0  0  0  0  0  0  0
   38.0050   30.4360   47.8410 N   0  0  0  0  0  0  0  0  0  0  0  0
   38.1040   31.9880   50.8560 H   0  0  0  0  0  0  0  0  0  0  0  0
   38.9880   33.7540   49.4870 H   0  0  0  0  0  0  0  0  0  0  0  0
   38.6400   31.3500   46.0260 H   0  0  0  0  0  0  0  0  0  0  0  0
   33.0080   27.7270   48.3750 C   0  0  0  0  0  0  0  0  0  0  0  0
   31.7960   27.7060   48.7740 O   0  0  0  0  0  0  0  0  0  0  0  0
   33.4380   27.0230   47.1200 C   0  0  1  0  0  0  0  0  0  0  0  0
   33.7140   25.5100   47.4060 C   0  0  0  0  0  0  0  0  0  0  0  0
   32.5920   25.9730   46.5510 C   0  0  2  0  0  0  0  0  0  0  0  0
   34.3860   27.4260   46.7170 H   0  0  0  0  0  0  0  0  0  0  0  0
   33.5020   25.1380   48.4230 H   0  0  0  0  0  0  0  0  0  0  0  0
   34.5860   25.0370   46.9560 H   0  0  0  0  0  0  0  0  0  0  0  0
   31.5920   25.8990   47.0330 H   0  0  0  0  0  0  0  0  0  0  0  0
   32.5300   25.7410   45.1510 N   0  0  1  0  0  0  0  0  0  0  0  0
   33.7510   25.8050   44.4210 C   0  0  0  0  0  3  0  0  0  0  0  0
   34.1600   24.7580   44.3000 H   0  0  0  0  0  0  0  0  0  0  0  0
   33.3890   26.2420   43.0140 C   0  0  0  0  0  3  0  0  0  0  0  0
   34.2530   26.2050   42.3220 H   0  0  0  0  0  0  0  0  0  0  0  0
   32.2720   25.5540   42.5800 O   0  0  0  0  0  0  0  0  0  0  0  0
   32.0310   24.3850   43.2690 C   0  0  0  0  0  2  0  0  0  0  0  0
   31.7680   24.6070   44.7460 C   0  0  0  0  0  2  0  0  0  0  0  0
  1  8  1  0  0  0  0
  1  2  2  0  0  0  0
  2  6  1  0  0  0  0
  3  2  1  0  0  0  0
  3  7  1  0  0  0  0
  4  3  2  0  0  0  0
  5  4  1  0  0  0  0
  5  1  1  0  0  0  0
  8  9  2  0  0  0  0
 10 11  1  0  0  0  0
 10  8  1  0  0  0  0
 11 16  1  0  0  0  0
 12 17  1  0  0  0  0
 12 11  2  0  0  0  0
 13 12  1  0  0  0  0
 14 13  2  0  0  0  0
 14 15  1  0  0  0  0
 15 10  2  0  0  0  0
 18 14  1  0  0  0  0
 19 20  2  0  0  0  0
 19  4  1  0  0  0  0
 21 24  1  6  0  0  0
 21 22  1  0  0  0  0
 21 19  1  0  0  0  0
 22 25  1  0  0  0  0
 23 27  1  1  0  0  0
 23 21  1  0  0  0  0
 23 22  1  0  0  0  0
 26 22  1  0  0  0  0
 28 35  1  1  0  0  0
 28 23  1  0  0  0  0
 29 28  1  0  0  0  0
 30 29  1  0  0  0  0
 31 29  1  0  0  0  0
 32 31  1  0  0  0  0
 33 31  1  0  0  0  0
 33 34  1  0  0  0  0
 34 35  1  0  0  0  0
M  END
>  <minimizedAffinity>
-4.84346581

>  <minimizedRMSD>
0.501877964

$$$$
