
 OpenBabel03272507323D

 35 38  0  0  1  0  0  0  0  0999 V2000
   35.8060   29.1270   49.7970 C   0  0  0  0  0  0  0  0  0  0  0  0
   34.7890   29.6490   50.5630 C   0  0  0  0  0  0  0  0  0  0  0  0
   33.5850   29.1110   50.0850 C   0  0  0  0  0  0  0  0  0  0  0  0
   33.9580   28.2870   49.0460 C   0  0  0  0  0  0  0  0  0  0  0  0
   35.2610   28.3260   48.9110 O   0  0  0  0  0  0  0  0  0  0  0  0
   34.8020   30.3470   51.4000 H   0  0  0  0  0  0  0  0  0  0  0  0
   32.5880   29.3270   50.4800 H   0  0  0  0  0  0  0  0  0  0  0  0
   37.1980   29.4720   50.0210 C   0  0  0  0  0  0  0  0  0  0  0  0
   37.8420   28.8620   50.8900 O   0  0  0  0  0  0  0  0  0  0  0  0
   37.7510   30.5180   49.2070 C   0  0  0  0  0  0  0  0  0  0  0  0
   38.0940   31.6980   49.8480 C   0  0  0  0  0  0  0  0  0  0  0  0
   38.6340   32.7400   49.0860 C   0  0  0  0  0  0  0  0  0  0  0  0
   38.7930   32.5320   47.7360 N   0  0  0  0  0  0  0  0  0  0  0  0
   38.4510   31.3820   47.1530 C   0  0  0  0  0  0  0  0  0  0  0  0
   37.9330   30.3780   47.8760 N   0  0  0  0  0  0  0  0  0  0  0  0
   37.9940   31.9200   50.8970 H   0  0  0  0  0  0  0  0  0  0  0  0
   38.9170   33.6820   49.5500 H   0  0  0  0  0  0  0  0  0  0  0  0
   38.6070   31.2910   46.0750 H   0  0  0  0  0  0  0  0  0  0  0  0
   33.0400   27.4910   48.2210 C   0  0  0  0  0  0  0  0  0  0  0  0
   31.8100   27.4440   48.5570 O   0  0  0  0  0  0  0  0  0  0  0  0
   33.5590   26.7520   47.0210 C   0  0  1  0  0  0  0  0  0  0  0  0
   33.7720   25.2390   47.3580 C   0  0  0  0  0  0  0  0  0  0  0  0
   32.7400   25.7100   46.4000 C   0  0  2  0  0  0  0  0  0  0  0  0
   34.5490   27.1250   46.6950 H   0  0  0  0  0  0  0  0  0  0  0  0
   33.4640   24.8930   48.3600 H   0  0  0  0  0  0  0  0  0  0  0  0
   34.6680   24.7370   46.9940 H   0  0  0  0  0  0  0  0  0  0  0  0
   31.7010   25.6680   46.7960 H   0  0  0  0  0  0  0  0  0  0  0  0
   32.7930   25.4510   45.0050 N   0  0  1  0  0  0  0  0  0  0  0  0
   33.6350   24.3900   44.5660 C   0  0  0  0  0  3  0  0  0  0  0  0
   33.0120   23.4570   44.4380 H   0  0  0  0  0  0  0  0  0  0  0  0
   34.0850   24.7490   43.1620 C   0  0  0  0  0  3  0  0  0  0  0  0
   34.6490   23.9300   42.6730 H   0  0  0  0  0  0  0  0  0  0  0  0
   33.0130   25.2270   42.4340 O   0  0  0  0  0  0  0  0  0  0  0  0
   31.7840   24.8640   42.9400 C   0  0  0  0  0  2  0  0  0  0  0  0
   31.5350   25.3940   44.3380 C   0  0  0  0  0  2  0  0  0  0  0  0
  1  8  1  0  0  0  0
  1  2  2  0  0  0  0
  2  6  1  0  0  0  0
  3  7  1  0  0  0  0
  3  2  1  0  0  0  0
  4  3  2  0  0  0  0
  5  4  1  0  0  0  0
  5  1  1  0  0  0  0
  8  9  2  0  0  0  0
 10 11  1  0  0  0  0
 10  8  1  0  0  0  0
 11 16  1  0  0  0  0
 12 17  1  0  0  0  0
 12 11  2  0  0  0  0
 13 12  1  0  0  0  0
 14 13  2  0  0  0  0
 14 15  1  0  0  0  0
 15 10  2  0  0  0  0
 18 14  1  0  0  0  0
 19 20  2  0  0  0  0
 19  4  1  0  0  0  0
 21 24  1  6  0  0  0
 21 22  1  0  0  0  0
 21 19  1  0  0  0  0
 22 25  1  0  0  0  0
 23 27  1  1  0  0  0
 23 21  1  0  0  0  0
 23 22  1  0  0  0  0
 26 22  1  0  0  0  0
 28 35  1  1  0  0  0
 28 23  1  0  0  0  0
 29 28  1  0  0  0  0
 30 29  1  0  0  0  0
 31 29  1  0  0  0  0
 32 31  1  0  0  0  0
 33 34  1  0  0  0  0
 33 31  1  0  0  0  0
 34 35  1  0  0  0  0
M  END
>  <minimizedAffinity>
-4.81717062

>  <minimizedRMSD>
0.125035182

$$$$
