
 OpenBabel03272507323D

 35 38  0  0  1  0  0  0  0  0999 V2000
   35.8970   29.2150   49.8460 C   0  0  0  0  0  0  0  0  0  0  0  0
   34.9490   29.7100   50.7120 C   0  0  0  0  0  0  0  0  0  0  0  0
   33.7020   29.2260   50.2900 C   0  0  0  0  0  0  0  0  0  0  0  0
   33.9810   28.4600   49.1800 C   0  0  0  0  0  0  0  0  0  0  0  0
   35.2730   28.4810   48.9550 O   0  0  0  0  0  0  0  0  0  0  0  0
   35.0380   30.3550   51.5850 H   0  0  0  0  0  0  0  0  0  0  0  0
   32.7410   29.4370   50.7680 H   0  0  0  0  0  0  0  0  0  0  0  0
   37.3090   29.5190   49.9900 C   0  0  0  0  0  0  0  0  0  0  0  0
   37.9900   28.8710   50.8020 O   0  0  0  0  0  0  0  0  0  0  0  0
   37.8390   30.5700   49.1670 C   0  0  0  0  0  0  0  0  0  0  0  0
   38.1840   31.7530   49.8030 C   0  0  0  0  0  0  0  0  0  0  0  0
   38.7010   32.8000   49.0320 C   0  0  0  0  0  0  0  0  0  0  0  0
   38.8380   32.5950   47.6800 N   0  0  0  0  0  0  0  0  0  0  0  0
   38.4950   31.4420   47.1020 C   0  0  0  0  0  0  0  0  0  0  0  0
   37.9990   30.4330   47.8330 N   0  0  0  0  0  0  0  0  0  0  0  0
   38.1000   31.9730   50.8540 H   0  0  0  0  0  0  0  0  0  0  0  0
   38.9840   33.7440   49.4920 H   0  0  0  0  0  0  0  0  0  0  0  0
   38.6330   31.3530   46.0220 H   0  0  0  0  0  0  0  0  0  0  0  0
   32.9890   27.7330   48.3780 C   0  0  0  0  0  0  0  0  0  0  0  0
   31.7850   27.6890   48.7980 O   0  0  0  0  0  0  0  0  0  0  0  0
   33.4040   27.0590   47.1020 C   0  0  1  0  0  0  0  0  0  0  0  0
   33.7360   25.5530   47.3590 C   0  0  0  0  0  0  0  0  0  0  0  0
   32.5760   25.9900   46.5420 C   0  0  2  0  0  0  0  0  0  0  0  0
   34.3280   27.4980   46.6770 H   0  0  0  0  0  0  0  0  0  0  0  0
   33.5660   25.1610   48.3770 H   0  0  0  0  0  0  0  0  0  0  0  0
   34.6100   25.1130   46.8780 H   0  0  0  0  0  0  0  0  0  0  0  0
   31.5930   25.8780   47.0520 H   0  0  0  0  0  0  0  0  0  0  0  0
   32.4810   25.7740   45.1420 N   0  0  1  0  0  0  0  0  0  0  0  0
   31.3150   25.1190   44.6550 C   0  0  0  0  0  3  0  0  0  0  0  0
   30.5750   25.8990   44.3080 H   0  0  0  0  0  0  0  0  0  0  0  0
   31.7270   24.3880   43.3910 C   0  0  0  0  0  3  0  0  0  0  0  0
   30.8640   23.9430   42.8580 H   0  0  0  0  0  0  0  0  0  0  0  0
   32.5270   25.2050   42.6150 O   0  0  0  0  0  0  0  0  0  0  0  0
   32.4020   26.5480   42.9000 C   0  0  0  0  0  2  0  0  0  0  0  0
   32.8000   26.8940   44.3200 C   0  0  0  0  0  2  0  0  0  0  0  0
  1  8  1  0  0  0  0
  1  2  2  0  0  0  0
  2  6  1  0  0  0  0
  3  2  1  0  0  0  0
  3  7  1  0  0  0  0
  4  3  2  0  0  0  0
  5  4  1  0  0  0  0
  5  1  1  0  0  0  0
  8  9  2  0  0  0  0
 10 11  1  0  0  0  0
 10  8  1  0  0  0  0
 11 16  1  0  0  0  0
 12 17  1  0  0  0  0
 12 11  2  0  0  0  0
 13 12  1  0  0  0  0
 14 13  2  0  0  0  0
 14 15  1  0  0  0  0
 15 10  2  0  0  0  0
 18 14  1  0  0  0  0
 19 20  2  0  0  0  0
 19  4  1  0  0  0  0
 21 24  1  6  0  0  0
 21 22  1  0  0  0  0
 21 19  1  0  0  0  0
 22 25  1  0  0  0  0
 23 27  1  1  0  0  0
 23 21  1  0  0  0  0
 23 22  1  0  0  0  0
 26 22  1  0  0  0  0
 28 35  1  6  0  0  0
 28 23  1  0  0  0  0
 29 28  1  0  0  0  0
 30 29  1  0  0  0  0
 31 29  1  0  0  0  0
 32 31  1  0  0  0  0
 33 34  1  0  0  0  0
 33 31  1  0  0  0  0
 34 35  1  0  0  0  0
M  END
>  <minimizedAffinity>
-4.8415885

>  <minimizedRMSD>
0.331088752

$$$$
