
 OpenBabel03262522143D

 44 47  0  0  1  0  0  0  0  0999 V2000
   39.5730   32.9550   44.1480 C   0  0  0  0  0  0  0  0  0  0  0  0
   38.5290   32.6910   44.3560 H   0  0  0  0  0  0  0  0  0  0  0  0
   39.6340   33.7270   43.3550 H   0  0  0  0  0  0  0  0  0  0  0  0
   39.4210   29.6540   42.8570 C   0  0  1  0  0  0  0  0  0  0  0  0
   39.5290   31.1220   42.4760 C   0  0  0  0  0  0  0  0  0  0  0  0
   40.2450   31.6910   43.6580 C   0  0  2  0  0  0  0  0  0  0  0  0
   40.3220   30.7280   44.6240 O   0  0  0  0  0  0  0  0  0  0  0  0
   39.3330   29.7890   44.3700 C   0  0  0  0  0  0  0  0  0  0  0  0
   40.3500   29.1250   42.6050 H   0  0  0  0  0  0  0  0  0  0  0  0
   40.0630   31.2320   41.5210 H   0  0  0  0  0  0  0  0  0  0  0  0
   38.5180   31.5410   42.4470 H   0  0  0  0  0  0  0  0  0  0  0  0
   41.2690   31.9900   43.3390 H   0  0  0  0  0  0  0  0  0  0  0  0
   39.5720   28.8190   44.8100 H   0  0  0  0  0  0  0  0  0  0  0  0
   38.3200   30.1330   44.6380 H   0  0  0  0  0  0  0  0  0  0  0  0
   38.2900   29.0710   42.3190 O   0  0  0  0  0  0  0  0  0  0  0  0
   38.2370   26.4740   42.2860 H   0  0  0  0  0  0  0  0  0  0  0  0
   37.8630   27.0220   41.4750 N   0  0  0  0  0  0  0  0  0  0  0  0
   38.7450   28.1930   41.3360 C   0  0  2  0  0  0  0  0  0  0  0  0
   40.1400   27.6820   41.5790 C   0  0  0  0  0  0  0  0  0  0  0  0
   40.1600   27.1070   42.5310 H   0  0  0  0  0  0  0  0  0  0  0  0
   40.4420   26.8640   40.4910 O   0  0  0  0  0  0  0  0  0  0  0  0
   39.5630   25.8290   40.2940 C   0  0  0  0  0  0  0  0  0  0  0  0
   38.1120   26.2160   40.2970 C   0  0  0  0  0  0  0  0  0  0  0  0
   40.4940   33.5430   45.5890 S   0  0  0  0  0  0  0  0  0  0  0  0
   37.7290   31.8790   47.9170 C   0  0  0  0  0  0  0  0  0  0  0  0
   37.8650   32.5590   49.1390 C   0  0  0  0  0  0  0  0  0  0  0  0
   38.8030   33.5490   49.3000 C   0  0  0  0  0  0  0  0  0  0  0  0
   39.5920   33.8310   48.2060 C   0  0  0  0  0  0  0  0  0  0  0  0
   39.4440   33.1610   47.0310 C   0  0  0  0  0  0  0  0  0  0  0  0
   38.5210   32.1810   46.8620 N   0  0  0  0  0  0  0  0  0  0  0  0
   37.2380   32.3170   49.9730 H   0  0  0  0  0  0  0  0  0  0  0  0
   38.9490   34.1010   50.2140 H   0  0  0  0  0  0  0  0  0  0  0  0
   40.3680   34.6010   48.2310 H   0  0  0  0  0  0  0  0  0  0  0  0
   36.7250   30.8560   47.8270 C   0  0  0  0  0  0  0  0  0  0  0  0
   36.3440   30.4310   46.7320 O   0  0  0  0  0  0  0  0  0  0  0  0
   36.9270   29.6300   49.9550 C   0  0  0  0  0  0  0  0  0  0  0  0
   36.1020   30.2630   49.0180 C   0  0  0  0  0  0  0  0  0  0  0  0
   34.7150   30.3110   49.2440 C   0  0  0  0  0  0  0  0  0  0  0  0
   34.2230   29.7300   50.3840 N   0  0  0  0  0  0  0  0  0  0  0  0
   35.0440   29.1300   51.2650 C   0  0  0  0  0  0  0  0  0  0  0  0
   36.3510   29.0840   51.0540 N   0  0  0  0  0  0  0  0  0  0  0  0
   38.0080   29.5620   49.8330 H   0  0  0  0  0  0  0  0  0  0  0  0
   34.1530   30.8070   48.4890 H   0  0  0  0  0  0  0  0  0  0  0  0
   34.5630   28.6970   52.1400 H   0  0  0  0  0  0  0  0  0  0  0  0
  1  2  1  0  0  0  0
  1 24  1  0  0  0  0
  3  1  1  0  0  0  0
  4  9  1  6  0  0  0
  4  8  1  0  0  0  0
  5  4  1  0  0  0  0
  5  6  1  0  0  0  0
  6 12  1  6  0  0  0
  6  1  1  0  0  0  0
  6  7  1  0  0  0  0
  8  7  1  0  0  0  0
  8 14  1  0  0  0  0
  8 13  1  0  0  0  0
 10  5  1  0  0  0  0
 11  5  1  0  0  0  0
 15  4  1  0  0  0  0
 17 16  1  0  0  0  0
 18 17  1  0  0  0  0
 18 19  1  0  0  0  0
 18 15  1  1  0  0  0
 19 20  1  0  0  0  0
 21 19  1  0  0  0  0
 22 23  1  0  0  0  0
 22 21  1  0  0  0  0
 23 17  1  0  0  0  0
 24 29  1  0  0  0  0
 25 26  1  0  0  0  0
 26 27  2  0  0  0  0
 26 31  1  0  0  0  0
 27 32  1  0  0  0  0
 28 33  1  0  0  0  0
 28 27  1  0  0  0  0
 29 28  2  0  0  0  0
 30 29  1  0  0  0  0
 30 25  2  0  0  0  0
 34 25  1  0  0  0  0
 34 37  1  0  0  0  0
 35 34  2  0  0  0  0
 36 41  1  0  0  0  0
 37 38  1  0  0  0  0
 37 36  2  0  0  0  0
 38 39  2  0  0  0  0
 39 40  1  0  0  0  0
 40 44  1  0  0  0  0
 41 40  2  0  0  0  0
 42 36  1  0  0  0  0
 43 38  1  0  0  0  0
M  END
>  <minimizedAffinity>
-5.41012049

>  <minimizedRMSD>
0.916116774

$$$$
