
 OpenBabel03272508463D

 39 43  0  0  0  0  0  0  0  0999 V2000
   35.6410   29.7470   49.6270 C   0  0  0  0  0  0  0  0  0  0  0  0
   36.6360   29.5870   50.5770 C   0  0  0  0  0  0  0  0  0  0  0  0
   37.7590   30.1360   49.9670 C   0  0  0  0  0  0  0  0  0  0  0  0
   37.4190   30.5860   48.7260 C   0  0  0  0  0  0  0  0  0  0  0  0
   36.1390   30.3330   48.5600 O   0  0  0  0  0  0  0  0  0  0  0  0
   36.5570   29.1400   51.5660 H   0  0  0  0  0  0  0  0  0  0  0  0
   38.7280   30.1850   50.4200 H   0  0  0  0  0  0  0  0  0  0  0  0
   38.8240   32.4720   48.0290 C   0  0  0  0  0  0  0  0  0  0  0  0
   38.2870   31.2300   47.7420 C   0  0  0  0  0  0  0  0  0  0  0  0
   38.5550   30.5890   46.5480 C   0  0  0  0  0  0  0  0  0  0  0  0
   39.3790   31.1900   45.6030 C   0  0  0  0  0  0  0  0  0  0  0  0
   39.8150   30.8220   44.3710 N   0  0  0  0  0  0  0  0  0  0  0  0
   40.5820   31.8040   43.9400 N   0  0  0  0  0  0  0  0  0  0  0  0
   40.6500   32.7910   44.8580 C   0  0  0  0  0  0  0  0  0  0  0  0
   39.8790   32.4190   45.9460 C   0  0  0  0  0  0  0  0  0  0  0  0
   39.6610   33.1140   47.1020 C   0  0  0  0  0  0  0  0  0  0  0  0
   38.5910   32.9470   48.9830 H   0  0  0  0  0  0  0  0  0  0  0  0
   38.1250   29.6180   46.3430 H   0  0  0  0  0  0  0  0  0  0  0  0
   39.5280   29.9060   43.9530 H   0  0  0  0  0  0  0  0  0  0  0  0
   41.2190   33.7040   44.7340 H   0  0  0  0  0  0  0  0  0  0  0  0
   40.0760   34.0670   47.3160 H   0  0  0  0  0  0  0  0  0  0  0  0
   34.2620   29.3220   49.8010 C   0  0  0  0  0  0  0  0  0  0  0  0
   33.6680   29.6270   50.8580 O   0  0  0  0  0  0  0  0  0  0  0  0
   31.8260   27.1790   48.1220 C   0  0  0  0  0  0  0  0  0  0  0  0
   32.3210   27.0910   46.8170 C   0  0  0  0  0  0  0  0  0  0  0  0
   33.4780   27.7610   46.5190 C   0  0  0  0  0  0  0  0  0  0  0  0
   34.1020   28.4750   47.4680 N   0  0  0  0  0  0  0  0  0  0  0  0
   33.6080   28.5540   48.7450 C   0  0  0  0  0  0  0  0  0  0  0  0
   32.4630   27.8980   49.0600 N   0  0  0  0  0  0  0  0  0  0  0  0
   30.9230   26.6910   48.4660 H   0  0  0  0  0  0  0  0  0  0  0  0
   31.7830   26.5110   46.1090 H   0  0  0  0  0  0  0  0  0  0  0  0
   34.0370   27.7150   45.2130 N   0  0  0  0  0  0  0  0  0  0  0  0
   33.9980   26.5380   44.3760 C   0  0  0  0  0  3  0  0  0  0  0  0
   33.9480   25.5880   44.9020 H   0  0  0  0  0  0  0  0  0  0  0  0
   35.2460   26.5660   43.4920 C   0  0  0  0  0  3  0  0  0  0  0  0
   35.3350   25.6170   42.9110 H   0  0  0  0  0  0  0  0  0  0  0  0
   35.2830   27.6790   42.6780 O   0  0  0  0  0  0  0  0  0  0  0  0
   34.5760   28.7640   43.1330 C   0  0  0  0  0  2  0  0  0  0  0  0
   34.6900   28.8750   44.6360 C   0  0  0  0  0  2  0  0  0  0  0  0
  1 22  1  0  0  0  0
  1  2  2  0  0  0  0
  2  6  1  0  0  0  0
  3  7  1  0  0  0  0
  3  2  1  0  0  0  0
  4  3  2  0  0  0  0
  5  4  1  0  0  0  0
  5  1  1  0  0  0  0
  8 17  1  0  0  0  0
  9  8  1  0  0  0  0
  9  4  1  0  0  0  0
 10  9  2  0  0  0  0
 11 15  2  0  0  0  0
 11 10  1  0  0  0  0
 12 11  1  0  0  0  0
 13 12  1  0  0  0  0
 13 14  2  0  0  0  0
 14 15  1  0  0  0  0
 15 16  1  0  0  0  0
 16 21  1  0  0  0  0
 16  8  2  0  0  0  0
 18 10  1  0  0  0  0
 19 12  1  0  0  0  0
 20 14  1  0  0  0  0
 22 23  2  0  0  0  0
 24 30  1  0  0  0  0
 24 29  1  0  0  0  0
 25 24  2  0  0  0  0
 26 25  1  0  0  0  0
 26 27  2  0  0  0  0
 27 28  1  0  0  0  0
 28 29  2  0  0  0  0
 28 22  1  0  0  0  0
 31 25  1  0  0  0  0
 32 26  1  0  0  0  0
 33 34  1  0  0  0  0
 33 32  1  0  0  0  0
 35 33  1  0  0  0  0
 36 35  1  0  0  0  0
 37 38  1  0  0  0  0
 37 35  1  0  0  0  0
 38 39  1  0  0  0  0
 39 32  1  0  0  0  0
M  END
>  <minimizedAffinity>
-6.44753838

>  <minimizedRMSD>
1.73643136

$$$$
