
 OpenBabel03272508473D

 39 43  0  0  0  0  0  0  0  0999 V2000
   35.5510   29.6030   49.6180 C   0  0  0  0  0  0  0  0  0  0  0  0
   36.5680   29.2980   50.5070 C   0  0  0  0  0  0  0  0  0  0  0  0
   37.6940   29.8660   49.9180 C   0  0  0  0  0  0  0  0  0  0  0  0
   37.3340   30.4650   48.7480 C   0  0  0  0  0  0  0  0  0  0  0  0
   36.0380   30.2840   48.6040 O   0  0  0  0  0  0  0  0  0  0  0  0
   36.5030   28.7480   51.4430 H   0  0  0  0  0  0  0  0  0  0  0  0
   38.6790   29.8250   50.3370 H   0  0  0  0  0  0  0  0  0  0  0  0
   38.7120   32.4090   48.1700 C   0  0  0  0  0  0  0  0  0  0  0  0
   38.1960   31.1780   47.8080 C   0  0  0  0  0  0  0  0  0  0  0  0
   38.4800   30.6120   46.5800 C   0  0  0  0  0  0  0  0  0  0  0  0
   39.2980   31.2790   45.6760 C   0  0  0  0  0  0  0  0  0  0  0  0
   39.7470   30.9900   44.4280 N   0  0  0  0  0  0  0  0  0  0  0  0
   40.5000   32.0070   44.0580 N   0  0  0  0  0  0  0  0  0  0  0  0
   40.5480   32.9390   45.0330 C   0  0  0  0  0  0  0  0  0  0  0  0
   39.7780   32.4940   46.0930 C   0  0  0  0  0  0  0  0  0  0  0  0
   39.5430   33.1160   47.2860 C   0  0  0  0  0  0  0  0  0  0  0  0
   38.4670   32.8240   49.1480 H   0  0  0  0  0  0  0  0  0  0  0  0
   38.0660   29.6480   46.3160 H   0  0  0  0  0  0  0  0  0  0  0  0
   39.4760   30.0950   43.9550 H   0  0  0  0  0  0  0  0  0  0  0  0
   41.1030   33.8670   44.9660 H   0  0  0  0  0  0  0  0  0  0  0  0
   39.9430   34.0620   47.5580 H   0  0  0  0  0  0  0  0  0  0  0  0
   34.1610   29.2180   49.7970 C   0  0  0  0  0  0  0  0  0  0  0  0
   33.5690   29.5690   50.8410 O   0  0  0  0  0  0  0  0  0  0  0  0
   31.6480   27.1400   48.1490 C   0  0  0  0  0  0  0  0  0  0  0  0
   32.1760   26.9530   46.8680 C   0  0  0  0  0  0  0  0  0  0  0  0
   33.3810   27.5350   46.5750 C   0  0  0  0  0  0  0  0  0  0  0  0
   34.0190   28.2590   47.5070 N   0  0  0  0  0  0  0  0  0  0  0  0
   33.4920   28.4360   48.7600 C   0  0  0  0  0  0  0  0  0  0  0  0
   32.3000   27.8680   49.0700 N   0  0  0  0  0  0  0  0  0  0  0  0
   30.7070   26.7270   48.4870 H   0  0  0  0  0  0  0  0  0  0  0  0
   31.6260   26.3700   46.1730 H   0  0  0  0  0  0  0  0  0  0  0  0
   33.9760   27.3860   45.2920 N   0  0  0  0  0  0  0  0  0  0  0  0
   34.5710   28.4820   44.5640 C   0  0  0  0  0  3  0  0  0  0  0  0
   34.1730   29.4690   44.7890 H   0  0  0  0  0  0  0  0  0  0  0  0
   34.3960   28.1880   43.0730 C   0  0  0  0  0  3  0  0  0  0  0  0
   34.7250   29.0610   42.4610 H   0  0  0  0  0  0  0  0  0  0  0  0
   35.0240   27.0190   42.6940 O   0  0  0  0  0  0  0  0  0  0  0  0
   35.2050   26.1000   43.6960 C   0  0  0  0  0  2  0  0  0  0  0  0
   34.0170   26.0960   44.6310 C   0  0  0  0  0  2  0  0  0  0  0  0
  1 22  1  0  0  0  0
  1  2  2  0  0  0  0
  2  6  1  0  0  0  0
  3  7  1  0  0  0  0
  3  2  1  0  0  0  0
  4  3  2  0  0  0  0
  5  4  1  0  0  0  0
  5  1  1  0  0  0  0
  8 17  1  0  0  0  0
  9  8  1  0  0  0  0
  9  4  1  0  0  0  0
 10  9  2  0  0  0  0
 11 15  2  0  0  0  0
 11 10  1  0  0  0  0
 12 11  1  0  0  0  0
 13 12  1  0  0  0  0
 13 14  2  0  0  0  0
 14 15  1  0  0  0  0
 15 16  1  0  0  0  0
 16 21  1  0  0  0  0
 16  8  2  0  0  0  0
 18 10  1  0  0  0  0
 19 12  1  0  0  0  0
 20 14  1  0  0  0  0
 22 23  2  0  0  0  0
 24 30  1  0  0  0  0
 24 29  1  0  0  0  0
 25 24  2  0  0  0  0
 26 25  1  0  0  0  0
 26 27  2  0  0  0  0
 27 28  1  0  0  0  0
 28 29  2  0  0  0  0
 28 22  1  0  0  0  0
 31 25  1  0  0  0  0
 32 26  1  0  0  0  0
 33 34  1  0  0  0  0
 33 32  1  0  0  0  0
 35 33  1  0  0  0  0
 36 35  1  0  0  0  0
 37 35  1  0  0  0  0
 37 38  1  0  0  0  0
 38 39  1  0  0  0  0
 39 32  1  0  0  0  0
M  END
>  <minimizedAffinity>
-6.40392447

>  <minimizedRMSD>
1.53176486

$$$$
