
 OpenBabel03272508463D

 39 43  0  0  0  0  0  0  0  0999 V2000
   35.6610   29.7820   49.6380 C   0  0  0  0  0  0  0  0  0  0  0  0
   36.6510   29.6570   50.5990 C   0  0  0  0  0  0  0  0  0  0  0  0
   37.7710   30.2080   49.9840 C   0  0  0  0  0  0  0  0  0  0  0  0
   37.4340   30.6260   48.7300 C   0  0  0  0  0  0  0  0  0  0  0  0
   36.1580   30.3510   48.5620 O   0  0  0  0  0  0  0  0  0  0  0  0
   36.5710   29.2310   51.5970 H   0  0  0  0  0  0  0  0  0  0  0  0
   38.7360   30.2790   50.4420 H   0  0  0  0  0  0  0  0  0  0  0  0
   38.8400   32.5020   48.0130 C   0  0  0  0  0  0  0  0  0  0  0  0
   38.3010   31.2590   47.7390 C   0  0  0  0  0  0  0  0  0  0  0  0
   38.5640   30.6060   46.5500 C   0  0  0  0  0  0  0  0  0  0  0  0
   39.3860   31.1970   45.5960 C   0  0  0  0  0  0  0  0  0  0  0  0
   39.8180   30.8170   44.3670 N   0  0  0  0  0  0  0  0  0  0  0  0
   40.5860   31.7930   43.9240 N   0  0  0  0  0  0  0  0  0  0  0  0
   40.6580   32.7880   44.8330 C   0  0  0  0  0  0  0  0  0  0  0  0
   39.8890   32.4290   45.9270 C   0  0  0  0  0  0  0  0  0  0  0  0
   39.6750   33.1340   47.0770 C   0  0  0  0  0  0  0  0  0  0  0  0
   38.6100   32.9860   48.9630 H   0  0  0  0  0  0  0  0  0  0  0  0
   38.1320   29.6340   46.3540 H   0  0  0  0  0  0  0  0  0  0  0  0
   39.5280   29.8970   43.9580 H   0  0  0  0  0  0  0  0  0  0  0  0
   41.2280   33.6990   44.7000 H   0  0  0  0  0  0  0  0  0  0  0  0
   40.0930   34.0880   47.2820 H   0  0  0  0  0  0  0  0  0  0  0  0
   34.2860   29.3430   49.8120 C   0  0  0  0  0  0  0  0  0  0  0  0
   33.6940   29.6290   50.8760 O   0  0  0  0  0  0  0  0  0  0  0  0
   31.8590   27.2040   48.1140 C   0  0  0  0  0  0  0  0  0  0  0  0
   32.3510   27.1360   46.8070 C   0  0  0  0  0  0  0  0  0  0  0  0
   33.5030   27.8170   46.5130 C   0  0  0  0  0  0  0  0  0  0  0  0
   34.1250   28.5240   47.4700 N   0  0  0  0  0  0  0  0  0  0  0  0
   33.6340   28.5840   48.7490 C   0  0  0  0  0  0  0  0  0  0  0  0
   32.4940   27.9160   49.0590 N   0  0  0  0  0  0  0  0  0  0  0  0
   30.9610   26.7070   48.4550 H   0  0  0  0  0  0  0  0  0  0  0  0
   31.8160   26.5610   46.0940 H   0  0  0  0  0  0  0  0  0  0  0  0
   34.0590   27.7910   45.2060 N   0  0  0  0  0  0  0  0  0  0  0  0
   34.0030   26.6320   44.3450 C   0  0  0  0  0  3  0  0  0  0  0  0
   33.9390   25.6720   44.8520 H   0  0  0  0  0  0  0  0  0  0  0  0
   35.2490   26.6620   43.4570 C   0  0  0  0  0  3  0  0  0  0  0  0
   35.3230   25.7240   42.8580 H   0  0  0  0  0  0  0  0  0  0  0  0
   35.2990   27.7920   42.6670 O   0  0  0  0  0  0  0  0  0  0  0  0
   34.6070   28.8750   43.1460 C   0  0  0  0  0  2  0  0  0  0  0  0
   34.7260   28.9530   44.6520 C   0  0  0  0  0  2  0  0  0  0  0  0
  1 22  1  0  0  0  0
  1  2  2  0  0  0  0
  2  6  1  0  0  0  0
  3  7  1  0  0  0  0
  3  2  1  0  0  0  0
  4  3  2  0  0  0  0
  5  4  1  0  0  0  0
  5  1  1  0  0  0  0
  8 17  1  0  0  0  0
  9  8  1  0  0  0  0
  9  4  1  0  0  0  0
 10  9  2  0  0  0  0
 11 15  2  0  0  0  0
 11 10  1  0  0  0  0
 12 11  1  0  0  0  0
 13 12  1  0  0  0  0
 13 14  2  0  0  0  0
 14 15  1  0  0  0  0
 15 16  1  0  0  0  0
 16 21  1  0  0  0  0
 16  8  2  0  0  0  0
 18 10  1  0  0  0  0
 19 12  1  0  0  0  0
 20 14  1  0  0  0  0
 22 23  2  0  0  0  0
 24 30  1  0  0  0  0
 24 29  1  0  0  0  0
 25 24  2  0  0  0  0
 26 25  1  0  0  0  0
 26 27  2  0  0  0  0
 27 28  1  0  0  0  0
 28 29  2  0  0  0  0
 28 22  1  0  0  0  0
 31 25  1  0  0  0  0
 32 26  1  0  0  0  0
 33 34  1  0  0  0  0
 33 32  1  0  0  0  0
 35 33  1  0  0  0  0
 36 35  1  0  0  0  0
 37 38  1  0  0  0  0
 37 35  1  0  0  0  0
 38 39  1  0  0  0  0
 39 32  1  0  0  0  0
M  END
>  <minimizedAffinity>
-6.47605324

>  <minimizedRMSD>
1.81135082

$$$$
