
 OpenBabel03272507593D

 38 41  0  0  1  0  0  0  0  0999 V2000
   36.9090   31.2660   48.5690 C   0  0  0  0  0  0  0  0  0  0  0  0
   37.1350   32.1880   49.5820 C   0  0  0  0  0  0  0  0  0  0  0  0
   38.0720   33.2030   49.3610 C   0  0  0  0  0  0  0  0  0  0  0  0
   38.7560   33.2850   48.1590 C   0  0  0  0  0  0  0  0  0  0  0  0
   38.5010   32.3480   47.1760 C   0  0  0  0  0  0  0  0  0  0  0  0
   37.6000   31.3910   47.4190 N   0  0  0  0  0  0  0  0  0  0  0  0
   36.7270   32.3380   50.5720 H   0  0  0  0  0  0  0  0  0  0  0  0
   38.3600   33.9900   50.0410 H   0  0  0  0  0  0  0  0  0  0  0  0
   39.4920   34.0320   47.9070 H   0  0  0  0  0  0  0  0  0  0  0  0
   35.1700   28.4810   50.3890 C   0  0  0  0  0  0  0  0  0  0  0  0
   36.1560   29.4500   50.0420 C   0  0  0  0  0  0  0  0  0  0  0  0
   35.9280   30.2810   48.9410 C   0  0  0  0  0  0  0  0  0  0  0  0
   34.7600   30.1090   48.2590 N   0  0  0  0  0  0  0  0  0  0  0  0
   33.8420   29.1700   48.6230 C   0  0  0  0  0  0  0  0  0  0  0  0
   34.0440   28.3680   49.6730 N   0  0  0  0  0  0  0  0  0  0  0  0
   32.7150   29.1920   47.7520 N   0  0  0  0  0  0  0  0  0  0  0  0
   35.3330   27.8320   51.2370 H   0  0  0  0  0  0  0  0  0  0  0  0
   31.8100   29.1580   48.2850 H   0  0  0  0  0  0  0  0  0  0  0  0
   32.8260   29.2390   46.7050 H   0  0  0  0  0  0  0  0  0  0  0  0
   37.3810   29.5260   50.8690 C   0  0  0  0  0  0  0  0  0  0  0  0
   38.5070   29.8130   50.0870 F   0  0  0  0  0  0  0  0  0  0  0  0
   37.2560   30.5040   51.7910 F   0  0  0  0  0  0  0  0  0  0  0  0
   37.6680   28.3370   51.5360 F   0  0  0  0  0  0  0  0  0  0  0  0
   39.1670   32.3640   45.8820 C   0  0  0  0  0  0  0  0  0  0  0  0
   40.4860   32.6780   45.6440 C   0  0  0  0  0  0  0  0  0  0  0  0
   40.7510   32.5780   44.2860 C   0  0  0  0  0  0  0  0  0  0  0  0
   39.5650   32.2020   43.7440 N   0  0  0  0  0  0  0  0  0  0  0  0
   38.6410   32.0770   44.6790 N   0  0  0  0  0  0  0  0  0  0  0  0
   41.2450   32.9660   46.3700 H   0  0  0  0  0  0  0  0  0  0  0  0
   41.6480   32.7440   43.7330 H   0  0  0  0  0  0  0  0  0  0  0  0
   37.7250   31.2370   41.2100 H   0  0  0  0  0  0  0  0  0  0  0  0
   38.0920   31.1970   42.1630 N   0  0  0  0  0  0  0  0  0  0  0  0
   39.3060   31.9620   42.3520 C   0  0  2  0  0  0  0  0  0  0  0  0
   40.4220   31.2280   41.6620 C   0  0  0  0  0  0  0  0  0  0  0  0
   40.1980   31.2270   40.5700 H   0  0  0  0  0  0  0  0  0  0  0  0
   40.5420   29.9120   42.0370 O   0  0  0  0  0  0  0  0  0  0  0  0
   39.6340   29.4680   42.9760 C   0  0  0  0  0  0  0  0  0  0  0  0
   38.2140   29.8830   42.7420 C   0  0  0  0  0  0  0  0  0  0  0  0
  1 12  1  0  0  0  0
  1  2  1  0  0  0  0
  2  7  1  0  0  0  0
  3  2  2  0  0  0  0
  3  8  1  0  0  0  0
  4  3  1  0  0  0  0
  5  6  1  0  0  0  0
  5  4  2  0  0  0  0
  6  1  2  0  0  0  0
  9  4  1  0  0  0  0
 10 17  1  0  0  0  0
 11 10  1  0  0  0  0
 11 20  1  0  0  0  0
 12 11  2  0  0  0  0
 13 14  2  0  0  0  0
 13 12  1  0  0  0  0
 14 15  1  0  0  0  0
 15 10  2  0  0  0  0
 16 18  1  0  0  0  0
 16 14  1  0  0  0  0
 19 16  1  0  0  0  0
 20 23  1  0  0  0  0
 20 22  1  0  0  0  0
 21 20  1  0  0  0  0
 24  5  1  0  0  0  0
 25 24  1  0  0  0  0
 25 29  1  0  0  0  0
 26 25  2  0  0  0  0
 27 26  1  0  0  0  0
 27 28  1  0  0  0  0
 28 24  2  0  0  0  0
 30 26  1  0  0  0  0
 31 32  1  0  0  0  0
 32 33  1  0  0  0  0
 32 38  1  0  0  0  0
 33 27  1  1  0  0  0
 34 36  1  0  0  0  0
 34 33  1  0  0  0  0
 35 34  1  0  0  0  0
 36 37  1  0  0  0  0
 38 37  1  0  0  0  0
M  END
>  <minimizedAffinity>
-7.25984335

>  <minimizedRMSD>
2.55998564

$$$$
