
 OpenBabel03272508463D

 39 43  0  0  0  0  0  0  0  0999 V2000
   35.6110   29.7490   49.6570 C   0  0  0  0  0  0  0  0  0  0  0  0
   36.5790   29.6650   50.6440 C   0  0  0  0  0  0  0  0  0  0  0  0
   37.7110   30.1970   50.0330 C   0  0  0  0  0  0  0  0  0  0  0  0
   37.4010   30.5640   48.7570 C   0  0  0  0  0  0  0  0  0  0  0  0
   36.1300   30.2780   48.5710 O   0  0  0  0  0  0  0  0  0  0  0  0
   36.4790   29.2780   51.6560 H   0  0  0  0  0  0  0  0  0  0  0  0
   38.6660   30.2900   50.5100 H   0  0  0  0  0  0  0  0  0  0  0  0
   38.7690   32.4410   47.9710 C   0  0  0  0  0  0  0  0  0  0  0  0
   38.2870   31.1620   47.7610 C   0  0  0  0  0  0  0  0  0  0  0  0
   38.6270   30.4410   46.6320 C   0  0  0  0  0  0  0  0  0  0  0  0
   39.4680   30.9980   45.6760 C   0  0  0  0  0  0  0  0  0  0  0  0
   39.9690   30.5520   44.4950 N   0  0  0  0  0  0  0  0  0  0  0  0
   40.7190   31.5250   44.0180 N   0  0  0  0  0  0  0  0  0  0  0  0
   40.7150   32.5820   44.8580 C   0  0  0  0  0  0  0  0  0  0  0  0
   39.9120   32.2670   45.9410 C   0  0  0  0  0  0  0  0  0  0  0  0
   39.6220   33.0400   47.0290 C   0  0  0  0  0  0  0  0  0  0  0  0
   38.4800   32.9790   48.8750 H   0  0  0  0  0  0  0  0  0  0  0  0
   38.2390   29.4420   46.4870 H   0  0  0  0  0  0  0  0  0  0  0  0
   39.7310   29.5960   44.1390 H   0  0  0  0  0  0  0  0  0  0  0  0
   41.2570   33.5030   44.6860 H   0  0  0  0  0  0  0  0  0  0  0  0
   39.9950   34.0220   47.1850 H   0  0  0  0  0  0  0  0  0  0  0  0
   34.2340   29.3110   49.8170 C   0  0  0  0  0  0  0  0  0  0  0  0
   33.6300   29.6020   50.8730 O   0  0  0  0  0  0  0  0  0  0  0  0
   31.8180   27.1770   48.0970 C   0  0  0  0  0  0  0  0  0  0  0  0
   32.3320   27.0920   46.8000 C   0  0  0  0  0  0  0  0  0  0  0  0
   33.4950   27.7610   46.5200 C   0  0  0  0  0  0  0  0  0  0  0  0
   34.1060   28.4710   47.4810 N   0  0  0  0  0  0  0  0  0  0  0  0
   33.5940   28.5470   48.7500 C   0  0  0  0  0  0  0  0  0  0  0  0
   32.4430   27.8920   49.0470 N   0  0  0  0  0  0  0  0  0  0  0  0
   30.9100   26.6900   48.4270 H   0  0  0  0  0  0  0  0  0  0  0  0
   31.8040   26.5150   46.0830 H   0  0  0  0  0  0  0  0  0  0  0  0
   34.0730   27.7180   45.2220 N   0  0  0  0  0  0  0  0  0  0  0  0
   34.7080   28.8560   44.6010 C   0  0  0  0  0  0  0  0  0  0  0  0
   34.3540   29.8300   44.9280 H   0  0  0  0  0  0  0  0  0  0  0  0
   34.5090   28.7220   43.0890 C   0  0  0  0  0  0  0  0  0  0  0  0
   34.8710   29.6360   42.5650 H   0  0  0  0  0  0  0  0  0  0  0  0
   35.0830   27.5710   42.5880 O   0  0  0  0  0  0  0  0  0  0  0  0
   35.2330   26.5480   43.4890 C   0  0  0  0  0  0  0  0  0  0  0  0
   34.0530   26.5000   44.4350 C   0  0  0  0  0  0  0  0  0  0  0  0
  1 22  1  0  0  0  0
  1  2  2  0  0  0  0
  2  6  1  0  0  0  0
  3  7  1  0  0  0  0
  3  2  1  0  0  0  0
  4  3  2  0  0  0  0
  5  4  1  0  0  0  0
  5  1  1  0  0  0  0
  8 17  1  0  0  0  0
  9  8  1  0  0  0  0
  9  4  1  0  0  0  0
 10  9  2  0  0  0  0
 11 15  2  0  0  0  0
 11 10  1  0  0  0  0
 12 11  1  0  0  0  0
 13 12  1  0  0  0  0
 13 14  2  0  0  0  0
 14 15  1  0  0  0  0
 15 16  1  0  0  0  0
 16 21  1  0  0  0  0
 16  8  2  0  0  0  0
 18 10  1  0  0  0  0
 19 12  1  0  0  0  0
 20 14  1  0  0  0  0
 22 23  2  0  0  0  0
 24 30  1  0  0  0  0
 24 29  1  0  0  0  0
 25 24  2  0  0  0  0
 26 25  1  0  0  0  0
 26 27  2  0  0  0  0
 27 28  1  0  0  0  0
 28 29  2  0  0  0  0
 28 22  1  0  0  0  0
 31 25  1  0  0  0  0
 32 26  1  0  0  0  0
 33 34  1  0  0  0  0
 33 32  1  0  0  0  0
 35 33  1  0  0  0  0
 36 35  1  0  0  0  0
 37 35  1  0  0  0  0
 37 38  1  0  0  0  0
 38 39  1  0  0  0  0
 39 32  1  0  0  0  0
M  END
>  <minimizedAffinity>
-6.51696014

>  <minimizedRMSD>
1.71314681

$$$$
