
 OpenBabel03272508473D

 39 43  0  0  0  0  0  0  0  0999 V2000
   35.6860   30.1020   49.5540 C   0  0  0  0  0  0  0  0  0  0  0  0
   36.6990   30.1210   50.5000 C   0  0  0  0  0  0  0  0  0  0  0  0
   37.7410   30.7720   49.8470 C   0  0  0  0  0  0  0  0  0  0  0  0
   37.3400   31.1070   48.5870 C   0  0  0  0  0  0  0  0  0  0  0  0
   36.1010   30.6860   48.4510 O   0  0  0  0  0  0  0  0  0  0  0  0
   36.6830   29.7240   51.5130 H   0  0  0  0  0  0  0  0  0  0  0  0
   38.6990   30.9670   50.2840 H   0  0  0  0  0  0  0  0  0  0  0  0
   39.1190   32.6670   47.9440 C   0  0  0  0  0  0  0  0  0  0  0  0
   38.1150   31.7980   47.5590 C   0  0  0  0  0  0  0  0  0  0  0  0
   37.8300   31.5720   46.2260 C   0  0  0  0  0  0  0  0  0  0  0  0
   38.5590   32.2240   45.2370 C   0  0  0  0  0  0  0  0  0  0  0  0
   38.5170   32.2110   43.8800 N   0  0  0  0  0  0  0  0  0  0  0  0
   39.4590   33.0380   43.4710 N   0  0  0  0  0  0  0  0  0  0  0  0
   40.1030   33.5810   44.5250 C   0  0  0  0  0  0  0  0  0  0  0  0
   39.5400   33.0710   45.6820 C   0  0  0  0  0  0  0  0  0  0  0  0
   39.8790   33.3450   46.9770 C   0  0  0  0  0  0  0  0  0  0  0  0
   39.3150   32.8190   49.0060 H   0  0  0  0  0  0  0  0  0  0  0  0
   37.0410   30.8890   45.9450 H   0  0  0  0  0  0  0  0  0  0  0  0
   37.8230   31.6140   43.3720 H   0  0  0  0  0  0  0  0  0  0  0  0
   40.9170   34.2910   44.4460 H   0  0  0  0  0  0  0  0  0  0  0  0
   40.6520   34.0130   47.2670 H   0  0  0  0  0  0  0  0  0  0  0  0
   34.3730   29.5190   49.7690 C   0  0  0  0  0  0  0  0  0  0  0  0
   33.7930   29.7260   50.8580 O   0  0  0  0  0  0  0  0  0  0  0  0
   32.0890   27.2020   48.1060 C   0  0  0  0  0  0  0  0  0  0  0  0
   32.5670   27.1670   46.7930 C   0  0  0  0  0  0  0  0  0  0  0  0
   33.6620   27.9310   46.4830 C   0  0  0  0  0  0  0  0  0  0  0  0
   34.2420   28.6840   47.4300 N   0  0  0  0  0  0  0  0  0  0  0  0
   33.7650   28.7110   48.7150 C   0  0  0  0  0  0  0  0  0  0  0  0
   32.6820   27.9610   49.0420 N   0  0  0  0  0  0  0  0  0  0  0  0
   31.2350   26.6400   48.4600 H   0  0  0  0  0  0  0  0  0  0  0  0
   32.0670   26.5520   46.0880 H   0  0  0  0  0  0  0  0  0  0  0  0
   34.2000   27.9430   45.1680 N   0  0  0  0  0  0  0  0  0  0  0  0
   34.8490   29.0950   44.5890 C   0  0  0  0  0  3  0  0  0  0  0  0
   34.5320   30.0600   44.9790 H   0  0  0  0  0  0  0  0  0  0  0  0
   34.6030   29.0490   43.0800 C   0  0  0  0  0  3  0  0  0  0  0  0
   34.9760   29.9810   42.5940 H   0  0  0  0  0  0  0  0  0  0  0  0
   35.1300   27.9130   42.5000 O   0  0  0  0  0  0  0  0  0  0  0  0
   35.2760   26.8380   43.3410 C   0  0  0  0  0  2  0  0  0  0  0  0
   34.1230   26.7710   44.3170 C   0  0  0  0  0  2  0  0  0  0  0  0
  1 22  1  0  0  0  0
  1  2  2  0  0  0  0
  2  6  1  0  0  0  0
  3  7  1  0  0  0  0
  3  2  1  0  0  0  0
  4  3  2  0  0  0  0
  5  4  1  0  0  0  0
  5  1  1  0  0  0  0
  8 17  1  0  0  0  0
  9  8  1  0  0  0  0
  9  4  1  0  0  0  0
 10  9  2  0  0  0  0
 11 15  2  0  0  0  0
 11 10  1  0  0  0  0
 12 11  1  0  0  0  0
 13 12  1  0  0  0  0
 13 14  2  0  0  0  0
 14 15  1  0  0  0  0
 15 16  1  0  0  0  0
 16 21  1  0  0  0  0
 16  8  2  0  0  0  0
 18 10  1  0  0  0  0
 19 12  1  0  0  0  0
 20 14  1  0  0  0  0
 22 23  2  0  0  0  0
 24 30  1  0  0  0  0
 24 29  1  0  0  0  0
 25 24  2  0  0  0  0
 26 25  1  0  0  0  0
 26 27  2  0  0  0  0
 27 28  1  0  0  0  0
 28 29  2  0  0  0  0
 28 22  1  0  0  0  0
 31 25  1  0  0  0  0
 32 26  1  0  0  0  0
 33 34  1  0  0  0  0
 33 32  1  0  0  0  0
 35 33  1  0  0  0  0
 36 35  1  0  0  0  0
 37 35  1  0  0  0  0
 37 38  1  0  0  0  0
 38 39  1  0  0  0  0
 39 32  1  0  0  0  0
M  END
>  <minimizedAffinity>
-6.24187994

>  <minimizedRMSD>
2.0203371

$$$$
