
 OpenBabel03272508473D

 39 43  0  0  0  0  0  0  0  0999 V2000
   35.5120   29.5000   49.5590 C   0  0  0  0  0  0  0  0  0  0  0  0
   36.5690   29.0190   50.3140 C   0  0  0  0  0  0  0  0  0  0  0  0
   37.6880   29.5620   49.6890 C   0  0  0  0  0  0  0  0  0  0  0  0
   37.2850   30.3160   48.6270 C   0  0  0  0  0  0  0  0  0  0  0  0
   35.9710   30.2520   48.5830 O   0  0  0  0  0  0  0  0  0  0  0  0
   36.5340   28.3720   51.1880 H   0  0  0  0  0  0  0  0  0  0  0  0
   38.6960   29.3970   50.0090 H   0  0  0  0  0  0  0  0  0  0  0  0
   38.6220   32.2950   48.0750 C   0  0  0  0  0  0  0  0  0  0  0  0
   38.1250   31.0630   47.6940 C   0  0  0  0  0  0  0  0  0  0  0  0
   38.4080   30.5260   46.4520 C   0  0  0  0  0  0  0  0  0  0  0  0
   39.2060   31.2260   45.5550 C   0  0  0  0  0  0  0  0  0  0  0  0
   39.6480   30.9690   44.2970 N   0  0  0  0  0  0  0  0  0  0  0  0
   40.3790   32.0070   43.9410 N   0  0  0  0  0  0  0  0  0  0  0  0
   40.4190   32.9210   44.9330 C   0  0  0  0  0  0  0  0  0  0  0  0
   39.6670   32.4410   45.9910 C   0  0  0  0  0  0  0  0  0  0  0  0
   39.4320   33.0360   47.1980 C   0  0  0  0  0  0  0  0  0  0  0  0
   38.3780   32.6870   49.0640 H   0  0  0  0  0  0  0  0  0  0  0  0
   38.0100   29.5600   46.1730 H   0  0  0  0  0  0  0  0  0  0  0  0
   39.3890   30.0790   43.8090 H   0  0  0  0  0  0  0  0  0  0  0  0
   40.9570   33.8600   44.8800 H   0  0  0  0  0  0  0  0  0  0  0  0
   39.8170   33.9820   47.4850 H   0  0  0  0  0  0  0  0  0  0  0  0
   34.1130   29.2050   49.8230 C   0  0  0  0  0  0  0  0  0  0  0  0
   33.5450   29.7830   50.7750 O   0  0  0  0  0  0  0  0  0  0  0  0
   31.3960   27.1820   48.4530 C   0  0  0  0  0  0  0  0  0  0  0  0
   32.0160   26.4660   47.4240 C   0  0  0  0  0  0  0  0  0  0  0  0
   33.3520   26.6770   47.2050 C   0  0  0  0  0  0  0  0  0  0  0  0
   34.0260   27.5510   47.9680 N   0  0  0  0  0  0  0  0  0  0  0  0
   33.4080   28.2480   48.9740 C   0  0  0  0  0  0  0  0  0  0  0  0
   32.0860   28.0530   49.2080 N   0  0  0  0  0  0  0  0  0  0  0  0
   30.3500   27.0940   48.7130 H   0  0  0  0  0  0  0  0  0  0  0  0
   31.4310   25.7890   46.8550 H   0  0  0  0  0  0  0  0  0  0  0  0
   34.0450   25.9830   46.1760 N   0  0  0  0  0  0  0  0  0  0  0  0
   34.4450   26.6030   44.9340 C   0  0  0  0  0  3  0  0  0  0  0  0
   33.8350   27.4440   44.6100 H   0  0  0  0  0  0  0  0  0  0  0  0
   34.4300   25.5170   43.8570 C   0  0  0  0  0  3  0  0  0  0  0  0
   34.6100   25.9630   42.8500 H   0  0  0  0  0  0  0  0  0  0  0  0
   35.3110   24.4930   44.1370 O   0  0  0  0  0  0  0  0  0  0  0  0
   35.6160   24.3270   45.4640 C   0  0  0  0  0  2  0  0  0  0  0  0
   34.3970   24.5850   46.3230 C   0  0  0  0  0  2  0  0  0  0  0  0
  1 22  1  0  0  0  0
  1  2  2  0  0  0  0
  2  6  1  0  0  0  0
  3  7  1  0  0  0  0
  3  2  1  0  0  0  0
  4  3  2  0  0  0  0
  5  4  1  0  0  0  0
  5  1  1  0  0  0  0
  8 17  1  0  0  0  0
  9  8  1  0  0  0  0
  9  4  1  0  0  0  0
 10  9  2  0  0  0  0
 11 15  2  0  0  0  0
 11 10  1  0  0  0  0
 12 11  1  0  0  0  0
 13 12  1  0  0  0  0
 13 14  2  0  0  0  0
 14 15  1  0  0  0  0
 15 16  1  0  0  0  0
 16 21  1  0  0  0  0
 16  8  2  0  0  0  0
 18 10  1  0  0  0  0
 19 12  1  0  0  0  0
 20 14  1  0  0  0  0
 22 23  2  0  0  0  0
 24 30  1  0  0  0  0
 24 29  1  0  0  0  0
 25 24  2  0  0  0  0
 26 25  1  0  0  0  0
 26 27  2  0  0  0  0
 27 28  1  0  0  0  0
 28 29  2  0  0  0  0
 28 22  1  0  0  0  0
 31 25  1  0  0  0  0
 32 39  1  0  0  0  0
 32 26  1  0  0  0  0
 33 32  1  0  0  0  0
 34 33  1  0  0  0  0
 35 37  1  0  0  0  0
 35 33  1  0  0  0  0
 36 35  1  0  0  0  0
 37 38  1  0  0  0  0
 38 39  1  0  0  0  0
M  END
>  <minimizedAffinity>
-6.2073884

>  <minimizedRMSD>
0.725684166

$$$$
