
 OpenBabel03272507463D

 45 49  0  0  0  0  0  0  0  0999 V2000
   32.6020   28.2700   47.4410 N   0  0  0  0  0  0  0  0  0  0  0  0
   33.1340   27.8520   48.6920 C   0  0  0  0  0  0  0  0  0  0  0  0
   34.3120   28.6010   49.1930 C   0  0  0  0  0  0  0  0  0  0  0  0
   35.3130   28.9910   48.2000 C   0  0  0  0  0  0  0  0  0  0  0  0
   34.6760   29.3560   46.8480 C   0  0  0  0  0  0  0  0  0  0  0  0
   33.6840   28.2380   46.4950 C   0  0  0  0  0  0  0  0  0  0  0  0
   33.4060   26.7750   48.6360 H   0  0  0  0  0  0  0  0  0  0  0  0
   32.3110   27.9100   49.4520 H   0  0  0  0  0  0  0  0  0  0  0  0
   33.8350   29.5700   49.5600 H   0  0  0  0  0  0  0  0  0  0  0  0
   34.7240   28.1080   50.0800 H   0  0  0  0  0  0  0  0  0  0  0  0
   36.0140   28.1480   47.9670 H   0  0  0  0  0  0  0  0  0  0  0  0
   35.4220   29.3940   46.0560 H   0  0  0  0  0  0  0  0  0  0  0  0
   34.0920   30.2590   47.0300 H   0  0  0  0  0  0  0  0  0  0  0  0
   33.3120   28.4230   45.4550 H   0  0  0  0  0  0  0  0  0  0  0  0
   34.1970   27.2420   46.4520 H   0  0  0  0  0  0  0  0  0  0  0  0
   31.2590   28.6530   47.1310 C   0  0  0  0  0  0  0  0  0  0  0  0
   30.8550   29.3850   46.0180 C   0  0  0  0  0  0  0  0  0  0  0  0
   29.4860   29.6500   45.9040 C   0  0  0  0  0  0  0  0  0  0  0  0
   28.6360   29.1910   46.8650 N   0  0  0  0  0  0  0  0  0  0  0  0
   29.0730   28.5000   47.9070 C   0  0  0  0  0  0  0  0  0  0  0  0
   30.3640   28.2270   48.0510 N   0  0  0  0  0  0  0  0  0  0  0  0
   31.6340   29.6820   45.3400 H   0  0  0  0  0  0  0  0  0  0  0  0
   29.1860   30.2140   45.0420 H   0  0  0  0  0  0  0  0  0  0  0  0
   28.1020   28.0710   48.8470 N   0  0  0  0  0  0  0  0  0  0  0  0
   27.0520   28.9420   49.3400 C   0  0  0  0  0  3  0  0  0  0  0  0
   27.4600   29.9450   49.6020 H   0  0  0  0  0  0  0  0  0  0  0  0
   26.3700   28.3470   50.5520 C   0  0  0  0  0  3  0  0  0  0  0  0
   25.8290   29.1750   51.0560 H   0  0  0  0  0  0  0  0  0  0  0  0
   27.2310   27.7810   51.4510 O   0  0  0  0  0  0  0  0  0  0  0  0
   28.2190   26.9810   50.9430 C   0  0  0  0  0  2  0  0  0  0  0  0
   27.9670   26.7680   49.4660 C   0  0  0  0  0  2  0  0  0  0  0  0
   35.9330   30.7050   49.8400 C   0  0  0  0  0  0  0  0  0  0  0  0
   36.1270   30.1750   48.5750 C   0  0  0  0  0  0  0  0  0  0  0  0
   36.9970   30.6920   47.6540 C   0  0  0  0  0  0  0  0  0  0  0  0
   37.7270   31.8220   48.0210 C   0  0  0  0  0  0  0  0  0  0  0  0
   37.5390   32.3550   49.2730 C   0  0  0  0  0  0  0  0  0  0  0  0
   36.6540   31.8290   50.2120 C   0  0  0  0  0  0  0  0  0  0  0  0
   38.3560   33.4790   49.4460 O   0  0  0  0  0  0  0  0  0  0  0  0
   39.2930   33.4130   48.3770 C   0  0  0  0  0  0  0  0  0  0  0  0
   38.6810   32.6200   47.3890 O   0  0  0  0  0  0  0  0  0  0  0  0
   35.2900   30.3810   50.6460 H   0  0  0  0  0  0  0  0  0  0  0  0
   37.1190   30.2560   46.6940 H   0  0  0  0  0  0  0  0  0  0  0  0
   36.5560   32.3120   51.2000 H   0  0  0  0  0  0  0  0  0  0  0  0
   40.2080   32.8630   48.7330 H   0  0  0  0  0  0  0  0  0  0  0  0
   39.5670   34.4200   48.0210 H   0  0  0  0  0  0  0  0  0  0  0  0
  1  2  1  0  0  0  0
  2  3  1  0  0  0  0
  2  8  1  0  0  0  0
  3  9  1  0  0  0  0
  3 10  1  0  0  0  0
  4 33  1  0  0  0  0
  4  3  1  0  0  0  0
  5 13  1  0  0  0  0
  5  4  1  0  0  0  0
  6  5  1  0  0  0  0
  6  1  1  0  0  0  0
  7  2  1  0  0  0  0
 11  4  1  0  0  0  0
 12  5  1  0  0  0  0
 14  6  1  0  0  0  0
 15  6  1  0  0  0  0
 16  1  1  0  0  0  0
 16 21  1  0  0  0  0
 17 16  2  0  0  0  0
 18 17  1  0  0  0  0
 18 19  2  0  0  0  0
 19 20  1  0  0  0  0
 20 21  2  0  0  0  0
 20 24  1  0  0  0  0
 22 17  1  0  0  0  0
 23 18  1  0  0  0  0
 24 25  1  0  0  0  0
 24 31  1  0  0  0  0
 25 26  1  0  0  0  0
 25 27  1  0  0  0  0
 27 28  1  0  0  0  0
 27 29  1  0  0  0  0
 30 29  1  0  0  0  0
 31 30  1  0  0  0  0
 32 37  1  0  0  0  0
 32 41  1  0  0  0  0
 33 32  2  0  0  0  0
 34 35  2  0  0  0  0
 34 33  1  0  0  0  0
 35 36  1  0  0  0  0
 36 38  1  0  0  0  0
 36 37  2  0  0  0  0
 37 43  1  0  0  0  0
 39 44  1  0  0  0  0
 39 38  1  0  0  0  0
 40 35  1  0  0  0  0
 40 39  1  0  0  0  0
 42 34  1  0  0  0  0
 45 39  1  0  0  0  0
M  END
>  <minimizedAffinity>
-7.80521345

>  <minimizedRMSD>
0.327043295

$$$$
