REMARK  Name = 
REMARK  2 active torsions:
REMARK  status: ('A' for Active; 'I' for Inactive)
REMARK    1  A    between atoms: N_1  and  C_16
REMARK    2  A    between atoms: C_4  and  C_8
REMARK                            x       y       z     vdW  Elec       q    Type
REMARK                         _______ _______ _______ _____ _____    ______ ____
ROOT
ATOM      1  N   UNL     1      32.709  28.212  47.438  0.00  0.00    +0.000 N 
ATOM      2  C   UNL     1      33.305  27.759  48.647  0.00  0.00    +0.000 C 
ATOM      3  C   UNL     1      34.471  28.531  49.139  0.00  0.00    +0.000 C 
ATOM      4  C   UNL     1      35.417  29.007  48.130  0.00  0.00    +0.000 C 
ATOM      5  C   UNL     1      34.714  29.408  46.821  0.00  0.00    +0.000 C 
ATOM      6  C   UNL     1      33.753  28.268  46.452  0.00  0.00    +0.000 C 
ATOM      7  H   UNL     1      33.616  26.697  48.529  0.00  0.00    +0.000 HD
ATOM      8  H   UNL     1      32.510  27.748  49.439  0.00  0.00    +0.000 HD
ATOM      9  H   UNL     1      33.971  29.462  49.570  0.00  0.00    +0.000 HD
ATOM     10  H   UNL     1      34.936  28.015  49.986  0.00  0.00    +0.000 HD
ATOM     11  H   UNL     1      36.140  28.206  47.831  0.00  0.00    +0.000 HD
ATOM     12  H   UNL     1      35.427  29.514  46.005  0.00  0.00    +0.000 HD
ATOM     13  H   UNL     1      34.102  30.277  47.068  0.00  0.00    +0.000 HD
ATOM     14  H   UNL     1      33.335  28.486  45.437  0.00  0.00    +0.000 HD
ATOM     15  H   UNL     1      34.303  27.297  46.343  0.00  0.00    +0.000 HD
ENDROOT
BRANCH   1  16
ATOM     16  C   UNL     1      31.341  28.554  47.196  0.00  0.00    +0.000 A 
ATOM     17  C   UNL     1      30.871  29.367  46.168  0.00  0.00    +0.000 A 
ATOM     18  C   UNL     1      29.489  29.571  46.111  0.00  0.00    +0.000 A 
ATOM     19  N   UNL     1      28.688  28.979  47.042  0.00  0.00    +0.000 NA
ATOM     20  C   UNL     1      29.186  28.215  48.002  0.00  0.00    +0.000 A 
ATOM     21  N   UNL     1      30.493  27.996  48.090  0.00  0.00    +0.000 NA
ATOM     22  H   UNL     1      31.616  29.767  45.505  0.00  0.00    +0.000 HD
ATOM     23  H   UNL     1      29.138  30.199  45.314  0.00  0.00    +0.000 HD
ATOM     24  N   UNL     1      28.263  27.649  48.917  0.00  0.00    +0.000 N 
ATOM     25  C   UNL     1      27.186  28.414  49.515  0.00  0.00    +0.000 C 
ATOM     26  H   UNL     1      27.551  29.407  49.864  0.00  0.00    +0.000 HD
ATOM     27  C   UNL     1      26.566  27.672  50.679  0.00  0.00    +0.000 C 
ATOM     28  H   UNL     1      25.999  28.419  51.273  0.00  0.00    +0.000 HD
ATOM     29  O   UNL     1      27.478  27.068  51.500  0.00  0.00    +0.000 OA
ATOM     30  C   UNL     1      28.490  26.371  50.895  0.00  0.00    +0.000 C 
ATOM     31  C   UNL     1      28.209  26.288  49.410  0.00  0.00    +0.000 C 
ENDBRANCH   1  16
BRANCH   4  33
ATOM     32  C   UNL     1      35.942  30.741  49.783  0.00  0.00    +0.000 A 
ATOM     33  C   UNL     1      36.197  30.205  48.531  0.00  0.00    +0.000 A 
ATOM     34  C   UNL     1      37.099  30.728  47.644  0.00  0.00    +0.000 A 
ATOM     35  C   UNL     1      37.797  31.871  48.034  0.00  0.00    +0.000 A 
ATOM     36  C   UNL     1      37.548  32.409  49.273  0.00  0.00    +0.000 A 
ATOM     37  C   UNL     1      36.631  31.877  50.177  0.00  0.00    +0.000 A 
ATOM     38  O   UNL     1      38.342  33.546  49.473  0.00  0.00    +0.000 OA
ATOM     39  C   UNL     1      39.324  33.486  48.446  0.00  0.00    +0.000 C 
ATOM     40  O   UNL     1      38.766  32.678  47.438  0.00  0.00    +0.000 OA
ATOM     41  H   UNL     1      35.270  30.413  50.563  0.00  0.00    +0.000 HD
ATOM     42  H   UNL     1      37.268  30.288  46.694  0.00  0.00    +0.000 HD
ATOM     43  H   UNL     1      36.484  32.365  51.157  0.00  0.00    +0.000 HD
ATOM     44  H   UNL     1      40.231  32.951  48.844  0.00  0.00    +0.000 HD
ATOM     45  H   UNL     1      39.600  34.494  48.094  0.00  0.00    +0.000 HD
ENDBRANCH   4  33
TORSDOF 2
