REMARK  Name = 
REMARK  2 active torsions:
REMARK  status: ('A' for Active; 'I' for Inactive)
REMARK    1  A    between atoms: C_2  and  C_12
REMARK    2  A    between atoms: C_20  and  N_36
REMARK                            x       y       z     vdW  Elec       q    Type
REMARK                         _______ _______ _______ _____ _____    ______ ____
ROOT
ATOM      1  C   UNL     1      36.836  31.120  48.538  0.00  0.00    +0.000 A 
ATOM      2  N   UNL     1      36.794  32.009  49.565  0.00  0.00    +0.000 NA
ATOM      3  C   UNL     1      37.684  33.014  49.610  0.00  0.00    +0.000 A 
ATOM      4  N   UNL     1      38.660  33.221  48.677  0.00  0.00    +0.000 NA
ATOM      5  C   UNL     1      38.726  32.352  47.643  0.00  0.00    +0.000 A 
ATOM      6  C   UNL     1      39.676  32.462  46.639  0.00  0.00    +0.000 A 
ATOM      7  C   UNL     1      39.723  31.557  45.594  0.00  0.00    +0.000 A 
ATOM      8  C   UNL     1      38.791  30.514  45.559  0.00  0.00    +0.000 A 
ATOM      9  C   UNL     1      37.854  30.439  46.587  0.00  0.00    +0.000 A 
ATOM     10  C   UNL     1      37.818  31.336  47.609  0.00  0.00    +0.000 A 
ATOM     11  H   UNL     1      37.674  33.744  50.426  0.00  0.00    +0.000 HD
ATOM     12  H   UNL     1      40.343  33.300  46.767  0.00  0.00    +0.000 HD
ATOM     13  H   UNL     1      40.508  31.759  44.882  0.00  0.00    +0.000 HD
ATOM     14  H   UNL     1      39.002  29.933  44.674  0.00  0.00    +0.000 HD
ENDROOT
BRANCH   1  16
ATOM     15  C   UNL     1      35.843  28.922  49.377  0.00  0.00    +0.000 A 
ATOM     16  C   UNL     1      35.849  30.101  48.580  0.00  0.00    +0.000 A 
ATOM     17  C   UNL     1      34.764  30.322  47.702  0.00  0.00    +0.000 A 
ATOM     18  N   UNL     1      33.760  29.409  47.639  0.00  0.00    +0.000 NA
ATOM     19  C   UNL     1      33.806  28.300  48.417  0.00  0.00    +0.000 A 
ATOM     20  N   UNL     1      34.824  28.050  49.278  0.00  0.00    +0.000 NA
ATOM     21  N   UNL     1      32.731  27.343  48.269  0.00  0.00    +0.000 N 
ATOM     22  C   UNL     1      31.355  27.646  48.509  0.00  0.00    +0.000 C 
ATOM     23  C   UNL     1      30.625  26.424  48.043  0.00  0.00    +0.000 C 
ATOM     24  C   UNL     1      31.608  25.605  47.240  0.00  0.00    +0.000 C 
ATOM     25  C   UNL     1      32.914  25.939  47.846  0.00  0.00    +0.000 C 
ATOM     26  H   UNL     1      36.700  28.825  50.026  0.00  0.00    +0.000 HD
ATOM     27  H   UNL     1      34.669  31.170  47.069  0.00  0.00    +0.000 HD
ATOM     28  H   UNL     1      31.111  27.980  49.528  0.00  0.00    +0.000 HD
ATOM     29  H   UNL     1      31.089  28.466  47.792  0.00  0.00    +0.000 HD
ATOM     30  H   UNL     1      30.398  25.822  48.969  0.00  0.00    +0.000 HD
ATOM     31  H   UNL     1      29.690  26.639  47.492  0.00  0.00    +0.000 HD
ATOM     32  H   UNL     1      31.585  25.971  46.187  0.00  0.00    +0.000 HD
ATOM     33  H   UNL     1      31.355  24.525  47.225  0.00  0.00    +0.000 HD
ATOM     34  H   UNL     1      33.144  25.280  48.691  0.00  0.00    +0.000 HD
ATOM     35  H   UNL     1      33.759  25.916  47.129  0.00  0.00    +0.000 HD
ENDBRANCH   1  16
BRANCH   9  36
ATOM     36  N   UNL     1      37.159  29.263  46.217  0.00  0.00    +0.000 N 
ATOM     37  C   UNL     1      36.816  28.459  45.066  0.00  0.00    +0.000 C 
ATOM     38  H   UNL     1      37.157  28.895  44.110  0.00  0.00    +0.000 HD
ATOM     39  C   UNL     1      35.280  28.389  44.924  0.00  0.00    +0.000 C 
ATOM     40  H   UNL     1      35.102  28.004  43.899  0.00  0.00    +0.000 HD
ATOM     41  O   UNL     1      34.870  27.428  45.811  0.00  0.00    +0.000 OA
ATOM     42  C   UNL     1      35.770  27.299  46.840  0.00  0.00    +0.000 C 
ATOM     43  C   UNL     1      36.435  28.543  47.299  0.00  0.00    +0.000 C 
ENDBRANCH   9  36
TORSDOF 2
