
     RDKit          3D

 41 44  0  0  0  0  0  0  0  0999 V2000
   37.3135   29.3326   51.0263 Br  0  0  0  0  0  0  0  0  0  0  0  0
   35.9648   29.3263   49.6806 C   0  0  0  0  0  0  0  0  0  0  0  0
   35.9916   30.2641   48.6375 C   0  0  0  0  0  0  0  0  0  0  0  0
   34.9880   30.1995   47.7045 C   0  0  0  0  0  0  0  0  0  0  0  0
   33.9653   29.2635   47.7467 C   0  0  0  0  0  0  0  0  0  0  0  0
   33.9688   28.3633   48.7774 C   0  0  0  0  0  0  0  0  0  0  0  0
   34.9638   28.4067   49.7258 C   0  0  0  0  0  0  0  0  0  0  0  0
   37.9862   33.1996   49.4636 C   0  0  0  0  0  0  0  0  0  0  0  0
   39.0259   33.1701   48.4709 C   0  0  0  0  0  0  0  0  0  0  0  0
   39.0078   32.1426   47.5499 C   0  0  0  0  0  0  0  0  0  0  0  0
   38.0131   31.2020   47.6156 N   0  0  0  0  0  0  0  0  0  0  0  0
   37.0431   31.2534   48.5635 C   0  0  0  0  0  0  0  0  0  0  0  0
   37.0458   32.2559   49.4759 N   0  0  0  0  0  0  0  0  0  0  0  0
   32.9033   29.1966   46.7579 C   0  0  0  0  0  0  0  0  0  0  0  0
   32.2584   28.0470   46.3688 C   0  0  0  0  0  0  0  0  0  0  0  0
   31.2505   28.0297   45.4215 C   0  0  0  0  0  0  0  0  0  0  0  0
   30.8687   29.1847   44.8414 N   0  0  0  0  0  0  0  0  0  0  0  0
   31.4949   30.3049   45.2184 C   0  0  0  0  0  0  0  0  0  0  0  0
   32.4615   30.3057   46.1299 N   0  0  0  0  0  0  0  0  0  0  0  0
   34.9632   30.9020   46.8781 H   0  0  0  0  0  0  0  0  0  0  0  0
   33.1871   27.6144   48.8477 H   0  0  0  0  0  0  0  0  0  0  0  0
   34.9626   27.6923   50.5396 H   0  0  0  0  0  0  0  0  0  0  0  0
   37.9545   33.9830   50.2079 H   0  0  0  0  0  0  0  0  0  0  0  0
   39.7783   33.9477   48.4816 H   0  0  0  0  0  0  0  0  0  0  0  0
   39.7745   32.0854   46.7855 H   0  0  0  0  0  0  0  0  0  0  0  0
   32.5641   27.1071   46.8361 H   0  0  0  0  0  0  0  0  0  0  0  0
   30.7916   27.0696   45.1717 H   0  0  0  0  0  0  0  0  0  0  0  0
   31.1063   31.5313   44.6183 N   0  0  0  0  0  0  0  0  0  0  0  0
   30.0649   32.3821   45.1581 C   0  0  2  0  0  0  0  0  0  0  0  0
   30.5531   33.2971   45.5890 H   0  0  0  0  0  0  0  0  0  0  0  0
   29.0752   32.7809   44.0569 C   0  0  1  0  0  0  0  0  0  0  0  0
   28.3920   31.9365   43.8829 H   0  0  0  0  0  0  0  0  0  0  0  0
   29.7206   33.1777   42.9052 O   0  0  0  0  0  0  0  0  0  0  0  0
   30.5750   32.2157   42.4133 C   0  0  0  0  0  0  0  0  0  0  0  0
   31.7195   32.0424   43.4078 C   0  0  0  0  0  0  0  0  0  0  0  0
   29.5028   31.9008   45.9680 H   0  0  0  0  0  0  0  0  0  0  0  0
   28.5416   33.6775   44.4643 H   0  0  0  0  0  0  0  0  0  0  0  0
   30.9438   32.5425   41.4310 H   0  0  0  0  0  0  0  0  0  0  0  0
   30.0654   31.2367   42.3108 H   0  0  0  0  0  0  0  0  0  0  0  0
   32.4889   31.3654   43.0249 H   0  0  0  0  0  0  0  0  0  0  0  0
   32.1076   33.0584   43.6360 H   0  0  0  0  0  0  0  0  0  0  0  0
  2  7  2  0
  2  1  1  0
  3  2  1  0
  4  5  1  0
  4  3  2  0
  5  6  2  0
  6  7  1  0
  8 13  2  0
  9  8  1  0
 10 11  1  0
 10  9  2  0
 11 12  2  0
 12  3  1  0
 12 13  1  0
 14  5  1  0
 15 14  2  0
 16 15  1  0
 17 18  1  0
 17 16  2  0
 18 19  2  0
 19 14  1  0
  4 20  1  0
  6 21  1  0
  7 22  1  0
  8 23  1  0
  9 24  1  0
 10 25  1  0
 15 26  1  0
 16 27  1  0
 28 29  1  0
 29 30  1  1
 29 31  1  0
 31 32  1  6
 31 33  1  0
 33 34  1  0
 34 35  1  0
 35 28  1  0
 29 36  1  0
 31 37  1  0
 34 38  1  0
 34 39  1  0
 35 40  1  0
 35 41  1  0
 18 28  1  0
M  ISO  8  20  14  21  14  22  14  23  14  24  14  25  14  26  14  27  14
M  ISO  2  30   8  32  15
M  END
>  <DihAtoms>  (1) 
16,17,27,28

>  <DihDeg>  (1) 
0.00017336330211340417

$$$$
