
 OpenBabel03272506403D

 36 38  0  0  1  0  0  0  0  0999 V2000
   37.5760   27.9660   35.5610 O   0  0  0  0  0  0  0  0  0  0  0  0
   37.1130   27.8620   34.4110 C   0  0  0  0  0  0  0  0  0  0  0  0
   37.5440   26.8110   33.5110 C   0  0  2  0  0  0  0  0  0  0  0  0
   36.5310   27.0000   32.3360 C   0  0  0  0  0  0  0  0  0  0  0  0
   36.1820   28.4500   32.4170 C   0  0  0  0  0  0  0  0  0  0  0  0
   36.1310   28.7350   33.8460 N   0  0  0  0  0  0  0  0  0  0  0  0
   38.5340   26.9180   33.0390 H   0  0  0  0  0  0  0  0  0  0  0  0
   35.6700   26.3250   32.4580 H   0  0  0  0  0  0  0  0  0  0  0  0
   37.0510   26.8010   31.3790 H   0  0  0  0  0  0  0  0  0  0  0  0
   35.1560   28.5900   32.0220 H   0  0  0  0  0  0  0  0  0  0  0  0
   36.9280   29.0730   31.8880 H   0  0  0  0  0  0  0  0  0  0  0  0
   35.2680   29.6980   34.5150 C   0  0  0  0  0  0  0  0  0  0  0  0
   34.2540   29.5170   34.1060 H   0  0  0  0  0  0  0  0  0  0  0  0
   35.2390   29.4250   35.5890 H   0  0  0  0  0  0  0  0  0  0  0  0
   35.7220   31.0480   34.4300 N   0  0  0  0  0  0  0  0  0  0  0  0
   36.0610   31.5560   35.7430 C   0  0  0  0  0  3  0  0  0  0  0  0
   36.8140   30.9300   36.2700 H   0  0  0  0  0  0  0  0  0  0  0  0
   34.8490   31.7660   36.6260 C   0  0  0  0  0  3  0  0  0  0  0  0
   35.2470   32.2150   37.5680 H   0  0  0  0  0  0  0  0  0  0  0  0
   34.0780   32.7600   36.0130 O   0  0  0  0  0  0  0  0  0  0  0  0
   33.6440   32.3330   34.7550 C   0  0  0  0  0  2  0  0  0  0  0  0
   34.7690   31.9570   33.8430 C   0  0  0  0  0  2  0  0  0  0  0  0
   37.3070   25.4880   34.0090 O   0  0  0  0  0  0  0  0  0  0  0  0
   38.3600   24.8580   34.6690 C   0  0  0  0  0  0  0  0  0  0  0  0
   39.6270   25.0570   34.1500 C   0  0  0  0  0  0  0  0  0  0  0  0
   40.6960   24.4440   34.7830 C   0  0  0  0  0  0  0  0  0  0  0  0
   40.4570   23.6750   35.8810 N   0  0  0  0  0  0  0  0  0  0  0  0
   39.2190   23.4930   36.3700 C   0  0  0  0  0  0  0  0  0  0  0  0
   38.2050   24.0810   35.7630 N   0  0  0  0  0  0  0  0  0  0  0  0
   38.4040   23.3900   38.5940 C   0  0  0  0  0  0  0  0  0  0  0  0
   38.0530   24.6090   38.6240 O   0  0  0  0  0  0  0  0  0  0  0  0
   39.0090   22.6810   37.5200 N   0  0  0  0  0  0  0  0  0  0  0  0
   39.7950   25.6690   33.2780 H   0  0  0  0  0  0  0  0  0  0  0  0
   41.6980   24.5770   34.4050 H   0  0  0  0  0  0  0  0  0  0  0  0
   38.1760   22.9150   39.5400 H   0  0  0  0  0  0  0  0  0  0  0  0
   39.2590   21.6860   37.5940 H   0  0  0  0  0  0  0  0  0  0  0  0
  2  1  2  0  0  0  0
  3  7  1  6  0  0  0
  3 23  1  0  0  0  0
  3  2  1  0  0  0  0
  4  5  1  0  0  0  0
  4  8  1  0  0  0  0
  4  3  1  0  0  0  0
  5  6  1  0  0  0  0
  6  2  1  0  0  0  0
  6 12  1  0  0  0  0
  9  4  1  0  0  0  0
 10  5  1  0  0  0  0
 11  5  1  0  0  0  0
 12 14  1  0  0  0  0
 13 12  1  0  0  0  0
 15 12  1  0  0  0  0
 15 16  1  0  0  0  0
 16 17  1  0  0  0  0
 16 18  1  0  0  0  0
 18 19  1  0  0  0  0
 20 18  1  0  0  0  0
 21 20  1  0  0  0  0
 22 15  1  0  0  0  0
 22 21  1  0  0  0  0
 23 24  1  0  0  0  0
 24 29  1  0  0  0  0
 25 24  2  0  0  0  0
 25 26  1  0  0  0  0
 26 27  2  0  0  0  0
 27 28  1  0  0  0  0
 28 32  1  0  0  0  0
 29 28  2  0  0  0  0
 30 31  2  0  0  0  0
 30 35  1  0  0  0  0
 32 36  1  0  0  0  0
 32 30  1  0  0  0  0
 33 25  1  0  0  0  0
 34 26  1  0  0  0  0
M  END
>  <minimizedAffinity>
-5.32937241

$$$$

 OpenBabel03272506403D

 36 38  0  0  1  0  0  0  0  0999 V2000
   34.4040   25.2650   31.0590 O   0  0  0  0  0  0  0  0  0  0  0  0
   35.6310   25.0580   31.0450 C   0  0  0  0  0  0  0  0  0  0  0  0
   36.5860   26.1480   31.0510 C   0  0  2  0  0  0  0  0  0  0  0  0
   37.9230   25.3630   31.2440 C   0  0  0  0  0  0  0  0  0  0  0  0
   37.6220   24.0260   30.6490 C   0  0  0  0  0  0  0  0  0  0  0  0
   36.2370   23.7620   31.0200 N   0  0  0  0  0  0  0  0  0  0  0  0
   36.7290   26.7050   30.1110 H   0  0  0  0  0  0  0  0  0  0  0  0
   38.1970   25.3260   32.3090 H   0  0  0  0  0  0  0  0  0  0  0  0
   38.7180   25.8570   30.6520 H   0  0  0  0  0  0  0  0  0  0  0  0
   38.2450   23.2640   31.1570 H   0  0  0  0  0  0  0  0  0  0  0  0
   37.7710   24.0320   29.5520 H   0  0  0  0  0  0  0  0  0  0  0  0
   35.6370   22.4650   31.2950 C   0  0  0  0  0  0  0  0  0  0  0  0
   34.8410   22.6610   32.0410 H   0  0  0  0  0  0  0  0  0  0  0  0
   35.1370   22.1290   30.3650 H   0  0  0  0  0  0  0  0  0  0  0  0
   36.5750   21.4540   31.6630 N   0  0  0  0  0  0  0  0  0  0  0  0
   36.1370   20.1570   31.1930 C   0  0  0  0  0  3  0  0  0  0  0  0
   35.9560   20.1300   30.0960 H   0  0  0  0  0  0  0  0  0  0  0  0
   34.9230   19.6380   31.9340 C   0  0  0  0  0  3  0  0  0  0  0  0
   34.7400   18.6180   31.5190 H   0  0  0  0  0  0  0  0  0  0  0  0
   35.3170   19.4560   33.2640 O   0  0  0  0  0  0  0  0  0  0  0  0
   35.6990   20.6750   33.8310 C   0  0  0  0  0  2  0  0  0  0  0  0
   36.8050   21.3490   33.0820 C   0  0  0  0  0  2  0  0  0  0  0  0
   36.4790   27.0050   32.1940 O   0  0  0  0  0  0  0  0  0  0  0  0
   35.9370   28.2730   31.9910 C   0  0  0  0  0  0  0  0  0  0  0  0
   36.4130   28.9860   30.9050 C   0  0  0  0  0  0  0  0  0  0  0  0
   35.8950   30.2500   30.6760 C   0  0  0  0  0  0  0  0  0  0  0  0
   34.9450   30.7360   31.5220 N   0  0  0  0  0  0  0  0  0  0  0  0
   34.4960   30.0280   32.5730 C   0  0  0  0  0  0  0  0  0  0  0  0
   34.9930   28.8230   32.7850 N   0  0  0  0  0  0  0  0  0  0  0  0
   32.3230   29.7770   33.4880 C   0  0  0  0  0  0  0  0  0  0  0  0
   32.0840   28.6940   32.8720 O   0  0  0  0  0  0  0  0  0  0  0  0
   33.5030   30.5690   33.4360 N   0  0  0  0  0  0  0  0  0  0  0  0
   37.1660   28.5840   30.2460 H   0  0  0  0  0  0  0  0  0  0  0  0
   36.2440   30.8350   29.8380 H   0  0  0  0  0  0  0  0  0  0  0  0
   31.4730   30.0510   34.1010 H   0  0  0  0  0  0  0  0  0  0  0  0
   33.6010   31.4390   33.9770 H   0  0  0  0  0  0  0  0  0  0  0  0
  2  3  1  0  0  0  0
  2  1  2  0  0  0  0
  3  7  1  6  0  0  0
  3  4  1  0  0  0  0
  3 23  1  0  0  0  0
  4  8  1  0  0  0  0
  5  6  1  0  0  0  0
  5 10  1  0  0  0  0
  5  4  1  0  0  0  0
  6  2  1  0  0  0  0
  6 12  1  0  0  0  0
  9  4  1  0  0  0  0
 11  5  1  0  0  0  0
 12 15  1  0  0  0  0
 12 13  1  0  0  0  0
 14 12  1  0  0  0  0
 15 22  1  0  0  0  0
 16 15  1  0  0  0  0
 16 18  1  0  0  0  0
 17 16  1  0  0  0  0
 18 20  1  0  0  0  0
 19 18  1  0  0  0  0
 20 21  1  0  0  0  0
 22 21  1  0  0  0  0
 24 23  1  0  0  0  0
 24 29  1  0  0  0  0
 25 24  2  0  0  0  0
 26 25  1  0  0  0  0
 26 27  2  0  0  0  0
 27 28  1  0  0  0  0
 28 29  2  0  0  0  0
 28 32  1  0  0  0  0
 30 35  1  0  0  0  0
 31 30  2  0  0  0  0
 32 30  1  0  0  0  0
 32 36  1  0  0  0  0
 33 25  1  0  0  0  0
 34 26  1  0  0  0  0
M  END
>  <minimizedAffinity>
-5.15139437

$$$$

 OpenBabel03272506403D

 36 38  0  0  1  0  0  0  0  0999 V2000
   38.6240   25.2570   34.0990 O   0  0  0  0  0  0  0  0  0  0  0  0
   38.3180   24.6050   33.0850 C   0  0  0  0  0  0  0  0  0  0  0  0
   38.8400   23.2720   32.8520 C   0  0  2  0  0  0  0  0  0  0  0  0
   38.0010   22.8440   31.6070 C   0  0  0  0  0  0  0  0  0  0  0  0
   37.6800   24.1450   30.9470 C   0  0  0  0  0  0  0  0  0  0  0  0
   37.4430   25.0680   32.0520 N   0  0  0  0  0  0  0  0  0  0  0  0
   39.8880   23.1870   32.5200 H   0  0  0  0  0  0  0  0  0  0  0  0
   37.1140   22.2710   31.9180 H   0  0  0  0  0  0  0  0  0  0  0  0
   38.6400   22.2400   30.9340 H   0  0  0  0  0  0  0  0  0  0  0  0
   36.7210   24.0400   30.4020 H   0  0  0  0  0  0  0  0  0  0  0  0
   38.5060   24.4770   30.2900 H   0  0  0  0  0  0  0  0  0  0  0  0
   36.5220   26.1940   32.0680 C   0  0  0  0  0  0  0  0  0  0  0  0
   36.0050   26.1650   31.0880 H   0  0  0  0  0  0  0  0  0  0  0  0
   35.7600   25.9860   32.8450 H   0  0  0  0  0  0  0  0  0  0  0  0
   37.1320   27.4430   32.3930 N   0  0  0  0  0  0  0  0  0  0  0  0
   36.2240   28.2700   33.1590 C   0  0  0  0  0  3  0  0  0  0  0  0
   35.8550   27.7710   34.0820 H   0  0  0  0  0  0  0  0  0  0  0  0
   35.0560   28.7800   32.3410 C   0  0  0  0  0  3  0  0  0  0  0  0
   34.4830   29.4460   33.0300 H   0  0  0  0  0  0  0  0  0  0  0  0
   35.5950   29.6090   31.3520 O   0  0  0  0  0  0  0  0  0  0  0  0
   36.4430   28.8800   30.5140 C   0  0  0  0  0  2  0  0  0  0  0  0
   37.5600   28.2080   31.2480 C   0  0  0  0  0  2  0  0  0  0  0  0
   38.5050   22.3310   33.8790 O   0  0  0  0  0  0  0  0  0  0  0  0
   39.2620   22.3690   35.0490 C   0  0  0  0  0  0  0  0  0  0  0  0
   40.6260   22.1800   34.9130 C   0  0  0  0  0  0  0  0  0  0  0  0
   41.4070   22.2100   36.0570 C   0  0  0  0  0  0  0  0  0  0  0  0
   40.8040   22.4230   37.2600 N   0  0  0  0  0  0  0  0  0  0  0  0
   39.4770   22.6040   37.3720 C   0  0  0  0  0  0  0  0  0  0  0  0
   38.7390   22.5750   36.2770 N   0  0  0  0  0  0  0  0  0  0  0  0
   38.1960   24.0650   38.7300 C   0  0  0  0  0  0  0  0  0  0  0  0
   38.0690   24.9490   37.8280 O   0  0  0  0  0  0  0  0  0  0  0  0
   38.8830   22.8220   38.6460 N   0  0  0  0  0  0  0  0  0  0  0  0
   41.0840   22.0120   33.9520 H   0  0  0  0  0  0  0  0  0  0  0  0
   42.4740   22.0660   35.9890 H   0  0  0  0  0  0  0  0  0  0  0  0
   37.6890   24.3810   39.6330 H   0  0  0  0  0  0  0  0  0  0  0  0
   38.9300   22.1690   39.4400 H   0  0  0  0  0  0  0  0  0  0  0  0
  2  1  2  0  0  0  0
  3  7  1  6  0  0  0
  3  2  1  0  0  0  0
  3 23  1  0  0  0  0
  4  8  1  0  0  0  0
  4  3  1  0  0  0  0
  5  4  1  0  0  0  0
  5  6  1  0  0  0  0
  6 12  1  0  0  0  0
  6  2  1  0  0  0  0
  9  4  1  0  0  0  0
 10  5  1  0  0  0  0
 11  5  1  0  0  0  0
 12 15  1  0  0  0  0
 12 14  1  0  0  0  0
 13 12  1  0  0  0  0
 15 16  1  0  0  0  0
 16 17  1  0  0  0  0
 18 19  1  0  0  0  0
 18 16  1  0  0  0  0
 20 18  1  0  0  0  0
 21 22  1  0  0  0  0
 21 20  1  0  0  0  0
 22 15  1  0  0  0  0
 23 24  1  0  0  0  0
 24 29  1  0  0  0  0
 25 24  2  0  0  0  0
 25 26  1  0  0  0  0
 26 27  2  0  0  0  0
 27 28  1  0  0  0  0
 28 32  1  0  0  0  0
 29 28  2  0  0  0  0
 30 35  1  0  0  0  0
 31 30  2  0  0  0  0
 32 30  1  0  0  0  0
 32 36  1  0  0  0  0
 33 25  1  0  0  0  0
 34 26  1  0  0  0  0
M  END
>  <minimizedAffinity>
-5.08780909

$$$$

 OpenBabel03272506403D

 36 38  0  0  1  0  0  0  0  0999 V2000
   34.6490   25.2290   31.2710 O   0  0  0  0  0  0  0  0  0  0  0  0
   35.8550   24.9500   31.1500 C   0  0  0  0  0  0  0  0  0  0  0  0
   36.8800   25.9750   31.1870 C   0  0  2  0  0  0  0  0  0  0  0  0
   38.1710   25.0960   31.2110 C   0  0  0  0  0  0  0  0  0  0  0  0
   37.7430   23.8430   30.5190 C   0  0  0  0  0  0  0  0  0  0  0  0
   36.3710   23.6290   30.9630 N   0  0  0  0  0  0  0  0  0  0  0  0
   36.9970   26.6100   30.2940 H   0  0  0  0  0  0  0  0  0  0  0  0
   38.5120   24.9400   32.2460 H   0  0  0  0  0  0  0  0  0  0  0  0
   38.9570   25.5960   30.6110 H   0  0  0  0  0  0  0  0  0  0  0  0
   38.3450   22.9990   30.9090 H   0  0  0  0  0  0  0  0  0  0  0  0
   37.8200   23.9450   29.4190 H   0  0  0  0  0  0  0  0  0  0  0  0
   35.7050   22.3500   31.1600 C   0  0  0  0  0  0  0  0  0  0  0  0
   34.8640   22.5590   31.8510 H   0  0  0  0  0  0  0  0  0  0  0  0
   35.2620   22.0550   30.1880 H   0  0  0  0  0  0  0  0  0  0  0  0
   36.5750   21.2950   31.5690 N   0  0  0  0  0  0  0  0  0  0  0  0
   36.0500   20.0110   31.1550 C   0  0  0  0  0  3  0  0  0  0  0  0
   35.8610   19.9500   30.0610 H   0  0  0  0  0  0  0  0  0  0  0  0
   34.8070   19.6070   31.9210 C   0  0  0  0  0  3  0  0  0  0  0  0
   34.5540   18.5840   31.5500 H   0  0  0  0  0  0  0  0  0  0  0  0
   35.1950   19.4550   33.2560 O   0  0  0  0  0  0  0  0  0  0  0  0
   35.6600   20.6690   33.7700 C   0  0  0  0  0  2  0  0  0  0  0  0
   36.8050   21.2350   32.9910 C   0  0  0  0  0  2  0  0  0  0  0  0
   36.9070   26.7240   32.4080 O   0  0  0  0  0  0  0  0  0  0  0  0
   36.4580   28.0420   32.3570 C   0  0  0  0  0  0  0  0  0  0  0  0
   36.0830   28.6180   33.5590 C   0  0  0  0  0  0  0  0  0  0  0  0
   35.6310   29.9270   33.5430 C   0  0  0  0  0  0  0  0  0  0  0  0
   35.5750   30.5890   32.3540 N   0  0  0  0  0  0  0  0  0  0  0  0
   35.9420   30.0130   31.1970 C   0  0  0  0  0  0  0  0  0  0  0  0
   36.3730   28.7650   31.2200 N   0  0  0  0  0  0  0  0  0  0  0  0
   37.1280   30.8560   29.3250 C   0  0  0  0  0  0  0  0  0  0  0  0
   38.2500   30.4040   29.7100 O   0  0  0  0  0  0  0  0  0  0  0  0
   35.8680   30.7360   29.9740 N   0  0  0  0  0  0  0  0  0  0  0  0
   36.1350   28.0760   34.4900 H   0  0  0  0  0  0  0  0  0  0  0  0
   35.3300   30.4080   34.4620 H   0  0  0  0  0  0  0  0  0  0  0  0
   37.2420   31.3770   28.3830 H   0  0  0  0  0  0  0  0  0  0  0  0
   35.0090   31.1410   29.5790 H   0  0  0  0  0  0  0  0  0  0  0  0
  2  3  1  0  0  0  0
  2  1  2  0  0  0  0
  3  7  1  6  0  0  0
  3  4  1  0  0  0  0
  3 23  1  0  0  0  0
  4  8  1  0  0  0  0
  5 10  1  0  0  0  0
  5  6  1  0  0  0  0
  5  4  1  0  0  0  0
  6  2  1  0  0  0  0
  6 12  1  0  0  0  0
  9  4  1  0  0  0  0
 11  5  1  0  0  0  0
 12 15  1  0  0  0  0
 12 13  1  0  0  0  0
 14 12  1  0  0  0  0
 15 22  1  0  0  0  0
 16 15  1  0  0  0  0
 16 18  1  0  0  0  0
 17 16  1  0  0  0  0
 18 20  1  0  0  0  0
 19 18  1  0  0  0  0
 20 21  1  0  0  0  0
 22 21  1  0  0  0  0
 24 23  1  0  0  0  0
 24 25  1  0  0  0  0
 25 33  1  0  0  0  0
 26 25  2  0  0  0  0
 26 34  1  0  0  0  0
 27 26  1  0  0  0  0
 28 29  1  0  0  0  0
 28 27  2  0  0  0  0
 29 24  2  0  0  0  0
 30 31  2  0  0  0  0
 30 32  1  0  0  0  0
 32 28  1  0  0  0  0
 35 30  1  0  0  0  0
 36 32  1  0  0  0  0
M  END
>  <minimizedAffinity>
-5.04900694

$$$$

 OpenBabel03272506403D

 36 38  0  0  1  0  0  0  0  0999 V2000
   37.0150   26.9180   35.0400 O   0  0  0  0  0  0  0  0  0  0  0  0
   37.5320   26.9340   33.9080 C   0  0  0  0  0  0  0  0  0  0  0  0
   38.7390   26.1880   33.6120 C   0  0  2  0  0  0  0  0  0  0  0  0
   38.8230   26.3720   32.0640 C   0  0  0  0  0  0  0  0  0  0  0  0
   38.1230   27.6720   31.8360 C   0  0  0  0  0  0  0  0  0  0  0  0
   37.0200   27.6660   32.7910 N   0  0  0  0  0  0  0  0  0  0  0  0
   39.6920   26.5920   33.9890 H   0  0  0  0  0  0  0  0  0  0  0  0
   38.3580   25.5180   31.5490 H   0  0  0  0  0  0  0  0  0  0  0  0
   39.8870   26.4730   31.7720 H   0  0  0  0  0  0  0  0  0  0  0  0
   37.6740   27.6600   30.8230 H   0  0  0  0  0  0  0  0  0  0  0  0
   38.8070   28.5290   31.9860 H   0  0  0  0  0  0  0  0  0  0  0  0
   35.7110   28.2780   32.6180 C   0  0  0  0  0  0  0  0  0  0  0  0
   35.3780   27.9770   31.6040 H   0  0  0  0  0  0  0  0  0  0  0  0
   35.0240   27.7970   33.3430 H   0  0  0  0  0  0  0  0  0  0  0  0
   35.6840   29.6820   32.8710 N   0  0  0  0  0  0  0  0  0  0  0  0
   35.3010   29.9460   34.2420 C   0  0  0  0  0  3  0  0  0  0  0  0
   35.9550   29.4350   34.9820 H   0  0  0  0  0  0  0  0  0  0  0  0
   33.8480   29.6240   34.5220 C   0  0  0  0  0  3  0  0  0  0  0  0
   33.6790   29.9330   35.5820 H   0  0  0  0  0  0  0  0  0  0  0  0
   33.0890   30.4940   33.7330 O   0  0  0  0  0  0  0  0  0  0  0  0
   33.3420   30.2690   32.3770 C   0  0  0  0  0  2  0  0  0  0  0  0
   34.7860   30.4190   32.0170 C   0  0  0  0  0  2  0  0  0  0  0  0
   38.6130   24.7760   33.8220 O   0  0  0  0  0  0  0  0  0  0  0  0
   39.4080   24.2060   34.8140 C   0  0  0  0  0  0  0  0  0  0  0  0
   40.7760   24.2360   34.6080 C   0  0  0  0  0  0  0  0  0  0  0  0
   41.5960   23.6770   35.5750 C   0  0  0  0  0  0  0  0  0  0  0  0
   41.0250   23.1240   36.6810 N   0  0  0  0  0  0  0  0  0  0  0  0
   39.6940   23.1030   36.8630 C   0  0  0  0  0  0  0  0  0  0  0  0
   38.9190   23.6390   35.9370 N   0  0  0  0  0  0  0  0  0  0  0  0
   38.3630   23.4320   38.7980 C   0  0  0  0  0  0  0  0  0  0  0  0
   38.1400   24.6570   38.5540 O   0  0  0  0  0  0  0  0  0  0  0  0
   39.1340   22.5140   38.0310 N   0  0  0  0  0  0  0  0  0  0  0  0
   41.2090   24.6790   33.7250 H   0  0  0  0  0  0  0  0  0  0  0  0
   42.6670   23.6830   35.4470 H   0  0  0  0  0  0  0  0  0  0  0  0
   37.8690   23.1410   39.7170 H   0  0  0  0  0  0  0  0  0  0  0  0
   39.2570   21.5330   38.3150 H   0  0  0  0  0  0  0  0  0  0  0  0
  2  1  2  0  0  0  0
  3 23  1  0  0  0  0
  3  2  1  0  0  0  0
  3  7  1  1  0  0  0
  4  3  1  0  0  0  0
  5 11  1  0  0  0  0
  5  4  1  0  0  0  0
  5  6  1  0  0  0  0
  6  2  1  0  0  0  0
  8  4  1  0  0  0  0
  9  4  1  0  0  0  0
 10  5  1  0  0  0  0
 12  6  1  0  0  0  0
 12 15  1  0  0  0  0
 12 14  1  0  0  0  0
 13 12  1  0  0  0  0
 15 16  1  0  0  0  0
 16 18  1  0  0  0  0
 16 17  1  0  0  0  0
 18 19  1  0  0  0  0
 20 18  1  0  0  0  0
 21 20  1  0  0  0  0
 22 21  1  0  0  0  0
 22 15  1  0  0  0  0
 23 24  1  0  0  0  0
 24 29  1  0  0  0  0
 25 24  2  0  0  0  0
 25 26  1  0  0  0  0
 26 27  2  0  0  0  0
 27 28  1  0  0  0  0
 28 32  1  0  0  0  0
 29 28  2  0  0  0  0
 30 35  1  0  0  0  0
 31 30  2  0  0  0  0
 32 36  1  0  0  0  0
 32 30  1  0  0  0  0
 33 25  1  0  0  0  0
 34 26  1  0  0  0  0
M  END
>  <minimizedAffinity>
-5.04479456

$$$$

 OpenBabel03272506403D

 36 38  0  0  1  0  0  0  0  0999 V2000
   37.3900   26.6010   35.4440 O   0  0  0  0  0  0  0  0  0  0  0  0
   37.5040   26.0010   34.3600 C   0  0  0  0  0  0  0  0  0  0  0  0
   36.8910   26.5010   33.1460 C   0  0  2  0  0  0  0  0  0  0  0  0
   37.5060   25.5310   32.0880 C   0  0  0  0  0  0  0  0  0  0  0  0
   37.7820   24.2940   32.8780 C   0  0  0  0  0  0  0  0  0  0  0  0
   38.2290   24.7810   34.1770 N   0  0  0  0  0  0  0  0  0  0  0  0
   35.8010   26.3720   33.0360 H   0  0  0  0  0  0  0  0  0  0  0  0
   38.4020   25.9790   31.6310 H   0  0  0  0  0  0  0  0  0  0  0  0
   36.7430   25.3110   31.3160 H   0  0  0  0  0  0  0  0  0  0  0  0
   38.6390   23.7630   32.4180 H   0  0  0  0  0  0  0  0  0  0  0  0
   36.8800   23.6570   32.9540 H   0  0  0  0  0  0  0  0  0  0  0  0
   39.1940   24.1470   35.0640 C   0  0  0  0  0  0  0  0  0  0  0  0
   40.1220   24.0480   34.4660 H   0  0  0  0  0  0  0  0  0  0  0  0
   39.4090   24.8620   35.8830 H   0  0  0  0  0  0  0  0  0  0  0  0
   38.7300   22.9380   35.6630 N   0  0  0  0  0  0  0  0  0  0  0  0
   37.6810   23.2150   36.6230 C   0  0  0  0  0  3  0  0  0  0  0  0
   36.8280   23.7780   36.1840 H   0  0  0  0  0  0  0  0  0  0  0  0
   38.1870   23.9190   37.8640 C   0  0  0  0  0  3  0  0  0  0  0  0
   37.2980   24.0080   38.5340 H   0  0  0  0  0  0  0  0  0  0  0  0
   39.0650   23.0310   38.4950 O   0  0  0  0  0  0  0  0  0  0  0  0
   40.1550   22.7520   37.6650 C   0  0  0  0  0  2  0  0  0  0  0  0
   39.7540   22.1830   36.3410 C   0  0  0  0  0  2  0  0  0  0  0  0
   37.3360   27.8100   32.7690 O   0  0  0  0  0  0  0  0  0  0  0  0
   36.3630   28.7970   32.6250 C   0  0  0  0  0  0  0  0  0  0  0  0
   35.5050   28.9840   33.6940 C   0  0  0  0  0  0  0  0  0  0  0  0
   34.5250   29.9580   33.5830 C   0  0  0  0  0  0  0  0  0  0  0  0
   34.4480   30.6850   32.4340 N   0  0  0  0  0  0  0  0  0  0  0  0
   35.2900   30.4870   31.4060 C   0  0  0  0  0  0  0  0  0  0  0  0
   36.2210   29.5590   31.5190 N   0  0  0  0  0  0  0  0  0  0  0  0
   36.3560   32.0060   29.9300 C   0  0  0  0  0  0  0  0  0  0  0  0
   37.4390   32.0380   30.5900 O   0  0  0  0  0  0  0  0  0  0  0  0
   35.1760   31.2660   30.2200 N   0  0  0  0  0  0  0  0  0  0  0  0
   35.5820   28.3980   34.5960 H   0  0  0  0  0  0  0  0  0  0  0  0
   33.8390   30.1310   34.3980 H   0  0  0  0  0  0  0  0  0  0  0  0
   36.4320   32.6480   29.0610 H   0  0  0  0  0  0  0  0  0  0  0  0
   34.3430   31.3080   29.6180 H   0  0  0  0  0  0  0  0  0  0  0  0
  2  1  2  0  0  0  0
  3  7  1  1  0  0  0
  3  2  1  0  0  0  0
  4  5  1  0  0  0  0
  4  3  1  0  0  0  0
  5 11  1  0  0  0  0
  5  6  1  0  0  0  0
  6  2  1  0  0  0  0
  6 12  1  0  0  0  0
  8  4  1  0  0  0  0
  9  4  1  0  0  0  0
 10  5  1  0  0  0  0
 12 15  1  0  0  0  0
 12 14  1  0  0  0  0
 13 12  1  0  0  0  0
 15 22  1  0  0  0  0
 15 16  1  0  0  0  0
 16 18  1  0  0  0  0
 17 16  1  0  0  0  0
 18 20  1  0  0  0  0
 18 19  1  0  0  0  0
 21 20  1  0  0  0  0
 22 21  1  0  0  0  0
 23  3  1  0  0  0  0
 24 23  1  0  0  0  0
 24 25  1  0  0  0  0
 25 33  1  0  0  0  0
 26 25  2  0  0  0  0
 26 34  1  0  0  0  0
 27 26  1  0  0  0  0
 28 29  1  0  0  0  0
 28 27  2  0  0  0  0
 29 24  2  0  0  0  0
 30 32  1  0  0  0  0
 30 31  2  0  0  0  0
 32 28  1  0  0  0  0
 35 30  1  0  0  0  0
 36 32  1  0  0  0  0
M  END
>  <minimizedAffinity>
-5.00042534

$$$$

 OpenBabel03272506403D

 36 38  0  0  1  0  0  0  0  0999 V2000
   36.9230   28.4660   34.8920 O   0  0  0  0  0  0  0  0  0  0  0  0
   36.7320   28.0220   33.7450 C   0  0  0  0  0  0  0  0  0  0  0  0
   37.3920   26.8190   33.2760 C   0  0  2  0  0  0  0  0  0  0  0  0
   36.6600   26.5970   31.9150 C   0  0  0  0  0  0  0  0  0  0  0  0
   36.2470   27.9770   31.5210 C   0  0  0  0  0  0  0  0  0  0  0  0
   35.8680   28.6180   32.7740 N   0  0  0  0  0  0  0  0  0  0  0  0
   38.4580   26.8960   33.0060 H   0  0  0  0  0  0  0  0  0  0  0  0
   35.8200   25.8970   32.0390 H   0  0  0  0  0  0  0  0  0  0  0  0
   37.3880   26.2080   31.1760 H   0  0  0  0  0  0  0  0  0  0  0  0
   35.3300   27.9100   30.9020 H   0  0  0  0  0  0  0  0  0  0  0  0
   37.0680   28.5110   31.0050 H   0  0  0  0  0  0  0  0  0  0  0  0
   34.8410   29.6330   32.9620 C   0  0  0  0  0  0  0  0  0  0  0  0
   35.3770   30.5260   33.3420 H   0  0  0  0  0  0  0  0  0  0  0  0
   34.4460   29.8920   31.9600 H   0  0  0  0  0  0  0  0  0  0  0  0
   33.7370   29.2060   33.7590 N   0  0  0  0  0  0  0  0  0  0  0  0
   32.5270   29.1530   32.9660 C   0  0  0  0  0  3  0  0  0  0  0  0
   32.6240   28.5060   32.0670 H   0  0  0  0  0  0  0  0  0  0  0  0
   32.0200   30.5240   32.5690 C   0  0  0  0  0  3  0  0  0  0  0  0
   31.0620   30.3370   32.0270 H   0  0  0  0  0  0  0  0  0  0  0  0
   31.6770   31.1810   33.7560 O   0  0  0  0  0  0  0  0  0  0  0  0
   32.8040   31.3400   34.5670 C   0  0  0  0  0  2  0  0  0  0  0  0
   33.4740   30.0440   34.9020 C   0  0  0  0  0  2  0  0  0  0  0  0
   37.1010   25.6550   34.0600 O   0  0  0  0  0  0  0  0  0  0  0  0
   38.1770   25.0110   34.6680 C   0  0  0  0  0  0  0  0  0  0  0  0
   39.4270   25.2370   34.1200 C   0  0  0  0  0  0  0  0  0  0  0  0
   40.5180   24.6110   34.7000 C   0  0  0  0  0  0  0  0  0  0  0  0
   40.3160   23.8030   35.7780 N   0  0  0  0  0  0  0  0  0  0  0  0
   39.0940   23.5950   36.2950 C   0  0  0  0  0  0  0  0  0  0  0  0
   38.0590   24.1960   35.7370 N   0  0  0  0  0  0  0  0  0  0  0  0
   38.3430   23.4090   38.5360 C   0  0  0  0  0  0  0  0  0  0  0  0
   37.9850   24.6240   38.6190 O   0  0  0  0  0  0  0  0  0  0  0  0
   38.9230   22.7420   37.4220 N   0  0  0  0  0  0  0  0  0  0  0  0
   39.5660   25.8810   33.2650 H   0  0  0  0  0  0  0  0  0  0  0  0
   41.5080   24.7650   34.2990 H   0  0  0  0  0  0  0  0  0  0  0  0
   38.1460   22.9000   39.4720 H   0  0  0  0  0  0  0  0  0  0  0  0
   39.1810   21.7470   37.4540 H   0  0  0  0  0  0  0  0  0  0  0  0
  2  1  2  0  0  0  0
  3  7  1  6  0  0  0
  3  2  1  0  0  0  0
  3 23  1  0  0  0  0
  4  8  1  0  0  0  0
  4  3  1  0  0  0  0
  5  4  1  0  0  0  0
  5  6  1  0  0  0  0
  6 12  1  0  0  0  0
  6  2  1  0  0  0  0
  9  4  1  0  0  0  0
 10  5  1  0  0  0  0
 11  5  1  0  0  0  0
 12 13  1  0  0  0  0
 12 15  1  0  0  0  0
 14 12  1  0  0  0  0
 15 22  1  0  0  0  0
 16 15  1  0  0  0  0
 17 16  1  0  0  0  0
 18 16  1  0  0  0  0
 18 20  1  0  0  0  0
 19 18  1  0  0  0  0
 20 21  1  0  0  0  0
 21 22  1  0  0  0  0
 23 24  1  0  0  0  0
 24 29  1  0  0  0  0
 25 24  2  0  0  0  0
 25 26  1  0  0  0  0
 26 27  2  0  0  0  0
 27 28  1  0  0  0  0
 28 32  1  0  0  0  0
 29 28  2  0  0  0  0
 30 31  2  0  0  0  0
 30 35  1  0  0  0  0
 32 36  1  0  0  0  0
 32 30  1  0  0  0  0
 33 25  1  0  0  0  0
 34 26  1  0  0  0  0
M  END
>  <minimizedAffinity>
-4.94097805

$$$$

 OpenBabel03272506403D

 36 38  0  0  1  0  0  0  0  0999 V2000
   36.7640   27.8650   34.9460 O   0  0  0  0  0  0  0  0  0  0  0  0
   36.3070   28.3950   33.9180 C   0  0  0  0  0  0  0  0  0  0  0  0
   35.3340   29.4680   33.9840 C   0  0  2  0  0  0  0  0  0  0  0  0
   35.2710   29.8970   32.4830 C   0  0  0  0  0  0  0  0  0  0  0  0
   35.6370   28.6450   31.7550 C   0  0  0  0  0  0  0  0  0  0  0  0
   36.6670   28.0280   32.5830 N   0  0  0  0  0  0  0  0  0  0  0  0
   34.2960   29.1990   34.2370 H   0  0  0  0  0  0  0  0  0  0  0  0
   35.9530   30.7400   32.2950 H   0  0  0  0  0  0  0  0  0  0  0  0
   34.2280   30.1740   32.2340 H   0  0  0  0  0  0  0  0  0  0  0  0
   36.1160   28.9210   30.7950 H   0  0  0  0  0  0  0  0  0  0  0  0
   34.7570   27.9880   31.6160 H   0  0  0  0  0  0  0  0  0  0  0  0
   37.7910   27.2240   32.1250 C   0  0  0  0  0  0  0  0  0  0  0  0
   37.7920   27.3220   31.0210 H   0  0  0  0  0  0  0  0  0  0  0  0
   38.7160   27.7080   32.4970 H   0  0  0  0  0  0  0  0  0  0  0  0
   37.7870   25.8830   32.6130 N   0  0  0  0  0  0  0  0  0  0  0  0
   38.9170   25.1460   32.0880 C   0  0  0  0  0  3  0  0  0  0  0  0
   39.8930   25.6310   32.3090 H   0  0  0  0  0  0  0  0  0  0  0  0
   38.8010   24.8620   30.6050 C   0  0  0  0  0  3  0  0  0  0  0  0
   39.6940   24.2420   30.3540 H   0  0  0  0  0  0  0  0  0  0  0  0
   37.6880   24.0300   30.4460 O   0  0  0  0  0  0  0  0  0  0  0  0
   36.5260   24.6830   30.8670 C   0  0  0  0  0  2  0  0  0  0  0  0
   36.5940   25.1400   32.2900 C   0  0  0  0  0  2  0  0  0  0  0  0
   35.7960   30.6250   34.6920 O   0  0  0  0  0  0  0  0  0  0  0  0
   34.9300   31.1870   35.6280 C   0  0  0  0  0  0  0  0  0  0  0  0
   35.3810   32.3120   36.2960 C   0  0  0  0  0  0  0  0  0  0  0  0
   34.5450   32.8950   37.2340 C   0  0  0  0  0  0  0  0  0  0  0  0
   33.3210   32.3400   37.4590 N   0  0  0  0  0  0  0  0  0  0  0  0
   32.9010   31.2460   36.8010 C   0  0  0  0  0  0  0  0  0  0  0  0
   33.7030   30.6970   35.9070 N   0  0  0  0  0  0  0  0  0  0  0  0
   30.7820   30.6610   35.9130 C   0  0  0  0  0  0  0  0  0  0  0  0
   31.0580   31.0540   34.7380 O   0  0  0  0  0  0  0  0  0  0  0  0
   31.6160   30.6950   37.0640 N   0  0  0  0  0  0  0  0  0  0  0  0
   36.3540   32.7360   36.1030 H   0  0  0  0  0  0  0  0  0  0  0  0
   34.8640   33.7730   37.7730 H   0  0  0  0  0  0  0  0  0  0  0  0
   29.7730   30.2690   35.9450 H   0  0  0  0  0  0  0  0  0  0  0  0
   31.2980   30.3500   37.9800 H   0  0  0  0  0  0  0  0  0  0  0  0
  2  3  1  0  0  0  0
  2  1  2  0  0  0  0
  3  7  1  1  0  0  0
  3 23  1  0  0  0  0
  4  3  1  0  0  0  0
  5  4  1  0  0  0  0
  5  6  1  0  0  0  0
  6  2  1  0  0  0  0
  8  4  1  0  0  0  0
  9  4  1  0  0  0  0
 10  5  1  0  0  0  0
 11  5  1  0  0  0  0
 12 14  1  0  0  0  0
 12  6  1  0  0  0  0
 12 15  1  0  0  0  0
 13 12  1  0  0  0  0
 16 17  1  0  0  0  0
 16 15  1  0  0  0  0
 18 16  1  0  0  0  0
 19 18  1  0  0  0  0
 20 18  1  0  0  0  0
 20 21  1  0  0  0  0
 21 22  1  0  0  0  0
 22 15  1  0  0  0  0
 23 24  1  0  0  0  0
 24 29  2  0  0  0  0
 24 25  1  0  0  0  0
 25 26  2  0  0  0  0
 26 27  1  0  0  0  0
 26 34  1  0  0  0  0
 28 32  1  0  0  0  0
 28 27  2  0  0  0  0
 29 28  1  0  0  0  0
 30 35  1  0  0  0  0
 30 32  1  0  0  0  0
 31 30  2  0  0  0  0
 32 36  1  0  0  0  0
 33 25  1  0  0  0  0
M  END
>  <minimizedAffinity>
-4.90251637

$$$$

 OpenBabel03272506403D

 36 38  0  0  1  0  0  0  0  0999 V2000
   37.2820   24.3720   31.3460 O   0  0  0  0  0  0  0  0  0  0  0  0
   37.4370   25.0610   32.3700 C   0  0  0  0  0  0  0  0  0  0  0  0
   37.9440   24.4880   33.6020 C   0  0  2  0  0  0  0  0  0  0  0  0
   38.1430   25.7770   34.4610 C   0  0  0  0  0  0  0  0  0  0  0  0
   37.1340   26.7230   33.8970 C   0  0  0  0  0  0  0  0  0  0  0  0
   37.1450   26.4580   32.4630 N   0  0  0  0  0  0  0  0  0  0  0  0
   37.2540   23.8660   34.1950 H   0  0  0  0  0  0  0  0  0  0  0  0
   39.1820   26.1330   34.3850 H   0  0  0  0  0  0  0  0  0  0  0  0
   37.8840   25.5500   35.5140 H   0  0  0  0  0  0  0  0  0  0  0  0
   37.5020   27.7590   34.0380 H   0  0  0  0  0  0  0  0  0  0  0  0
   36.1360   26.5630   34.3490 H   0  0  0  0  0  0  0  0  0  0  0  0
   36.9070   27.4170   31.3950 C   0  0  0  0  0  0  0  0  0  0  0  0
   36.6420   26.8090   30.5070 H   0  0  0  0  0  0  0  0  0  0  0  0
   36.0060   28.0020   31.6700 H   0  0  0  0  0  0  0  0  0  0  0  0
   37.9720   28.3460   31.1950 N   0  0  0  0  0  0  0  0  0  0  0  0
   37.6110   29.3290   30.1960 C   0  0  0  0  0  3  0  0  0  0  0  0
   36.6700   29.8710   30.4390 H   0  0  0  0  0  0  0  0  0  0  0  0
   37.5310   28.7510   28.7980 C   0  0  0  0  0  3  0  0  0  0  0  0
   37.3120   29.6210   28.1330 H   0  0  0  0  0  0  0  0  0  0  0  0
   38.8230   28.3230   28.4720 O   0  0  0  0  0  0  0  0  0  0  0  0
   39.2390   27.3170   29.3480 C   0  0  0  0  0  2  0  0  0  0  0  0
   39.2140   27.7410   30.7830 C   0  0  0  0  0  2  0  0  0  0  0  0
   39.2470   23.9080   33.4770 O   0  0  0  0  0  0  0  0  0  0  0  0
   39.9230   23.6000   34.6570 C   0  0  0  0  0  0  0  0  0  0  0  0
   41.3010   23.7270   34.6350 C   0  0  0  0  0  0  0  0  0  0  0  0
   42.0030   23.4280   35.7910 C   0  0  0  0  0  0  0  0  0  0  0  0
   41.3130   23.0230   36.8930 N   0  0  0  0  0  0  0  0  0  0  0  0
   39.9750   22.9050   36.8950 C   0  0  0  0  0  0  0  0  0  0  0  0
   39.3120   23.1930   35.7890 N   0  0  0  0  0  0  0  0  0  0  0  0
   38.3490   23.4350   38.5370 C   0  0  0  0  0  0  0  0  0  0  0  0
   38.0780   24.5720   38.0410 O   0  0  0  0  0  0  0  0  0  0  0  0
   39.2890   22.4780   38.0660 N   0  0  0  0  0  0  0  0  0  0  0  0
   41.8290   24.0490   33.7510 H   0  0  0  0  0  0  0  0  0  0  0  0
   43.0790   23.5160   35.8100 H   0  0  0  0  0  0  0  0  0  0  0  0
   37.7440   23.2620   39.4180 H   0  0  0  0  0  0  0  0  0  0  0  0
   39.4380   21.5780   38.5430 H   0  0  0  0  0  0  0  0  0  0  0  0
  1  2  2  0  0  0  0
  2  6  1  0  0  0  0
  2  3  1  0  0  0  0
  3  7  1  1  0  0  0
  3  4  1  0  0  0  0
  4  9  1  0  0  0  0
  5 10  1  0  0  0  0
  5 11  1  0  0  0  0
  5  4  1  0  0  0  0
  6  5  1  0  0  0  0
  8  4  1  0  0  0  0
 12 14  1  0  0  0  0
 12  6  1  0  0  0  0
 13 12  1  0  0  0  0
 15 12  1  0  0  0  0
 16 17  1  0  0  0  0
 16 15  1  0  0  0  0
 18 16  1  0  0  0  0
 19 18  1  0  0  0  0
 20 18  1  0  0  0  0
 20 21  1  0  0  0  0
 21 22  1  0  0  0  0
 22 15  1  0  0  0  0
 23  3  1  0  0  0  0
 23 24  1  0  0  0  0
 24 29  1  0  0  0  0
 25 24  2  0  0  0  0
 25 26  1  0  0  0  0
 26 34  1  0  0  0  0
 26 27  2  0  0  0  0
 27 28  1  0  0  0  0
 28 32  1  0  0  0  0
 29 28  2  0  0  0  0
 30 35  1  0  0  0  0
 31 30  2  0  0  0  0
 32 30  1  0  0  0  0
 32 36  1  0  0  0  0
 33 25  1  0  0  0  0
M  END
>  <minimizedAffinity>
-4.85400295

$$$$
