
 OpenBabel03272510193D

 35 38  0  0  0  0  0  0  0  0999 V2000
   37.4260   29.2100   50.8670 Br  0  0  0  0  0  0  0  0  0  0  0  0
   36.0290   29.2860   49.5750 C   0  0  0  0  0  0  0  0  0  0  0  0
   36.0210   30.2860   48.5900 C   0  0  0  0  0  0  0  0  0  0  0  0
   34.9830   30.2800   47.6930 C   0  0  0  0  0  0  0  0  0  0  0  0
   33.9590   29.3440   47.7160 C   0  0  0  0  0  0  0  0  0  0  0  0
   33.9980   28.3820   48.6880 C   0  0  0  0  0  0  0  0  0  0  0  0
   35.0280   28.3670   49.6010 C   0  0  0  0  0  0  0  0  0  0  0  0
   34.9290   31.0310   46.9120 H   0  0  0  0  0  0  0  0  0  0  0  0
   33.2170   27.6310   48.7420 H   0  0  0  0  0  0  0  0  0  0  0  0
   35.0550   27.6040   50.3690 H   0  0  0  0  0  0  0  0  0  0  0  0
   32.8610   29.3390   46.7650 C   0  0  0  0  0  0  0  0  0  0  0  0
   31.8660   28.3910   46.7130 C   0  0  0  0  0  0  0  0  0  0  0  0
   30.8380   28.4260   45.7890 C   0  0  0  0  0  0  0  0  0  0  0  0
   30.7920   29.4270   44.8870 N   0  0  0  0  0  0  0  0  0  0  0  0
   31.7590   30.3500   44.9360 C   0  0  0  0  0  0  0  0  0  0  0  0
   32.7410   30.3040   45.8310 N   0  0  0  0  0  0  0  0  0  0  0  0
   31.8990   27.5760   47.4410 H   0  0  0  0  0  0  0  0  0  0  0  0
   30.0890   27.6310   45.8190 H   0  0  0  0  0  0  0  0  0  0  0  0
   31.7260   31.4130   43.9960 N   0  0  0  0  0  0  0  0  0  0  0  0
   31.6350   32.8080   44.3790 C   0  0  0  0  0  3  0  0  0  0  0  0
   32.6280   33.2900   44.1740 H   0  0  0  0  0  0  0  0  0  0  0  0
   30.5310   33.5120   43.5810 C   0  0  0  0  0  3  0  0  0  0  0  0
   29.5610   33.2530   44.0300 H   0  0  0  0  0  0  0  0  0  0  0  0
   30.5890   33.1980   42.2400 O   0  0  0  0  0  0  0  0  0  0  0  0
   30.5170   31.8440   42.0040 C   0  0  0  0  0  2  0  0  0  0  0  0
   31.7820   31.1970   42.5640 C   0  0  0  0  0  2  0  0  0  0  0  0
   38.0190   33.1990   49.4860 C   0  0  0  0  0  0  0  0  0  0  0  0
   39.0540   33.1960   48.4870 C   0  0  0  0  0  0  0  0  0  0  0  0
   39.0310   32.1940   47.5390 C   0  0  0  0  0  0  0  0  0  0  0  0
   38.0370   31.2520   47.5840 N   0  0  0  0  0  0  0  0  0  0  0  0
   37.0710   31.2770   48.5370 C   0  0  0  0  0  0  0  0  0  0  0  0
   37.0790   32.2550   49.4770 N   0  0  0  0  0  0  0  0  0  0  0  0
   37.9920   33.9620   50.2510 H   0  0  0  0  0  0  0  0  0  0  0  0
   39.8060   33.9740   48.5150 H   0  0  0  0  0  0  0  0  0  0  0  0
   39.7940   32.1570   46.7680 H   0  0  0  0  0  0  0  0  0  0  0  0
  2  7  1  0  0  0  0
  2  1  1  0  0  0  0
  3  2  2  0  0  0  0
  4  5  2  0  0  0  0
  4  3  1  0  0  0  0
  5  6  1  0  0  0  0
  6  9  1  0  0  0  0
  6  7  2  0  0  0  0
  7 10  1  0  0  0  0
  8  4  1  0  0  0  0
 11  5  1  0  0  0  0
 12 11  1  0  0  0  0
 12 17  1  0  0  0  0
 13 18  1  0  0  0  0
 13 12  2  0  0  0  0
 14 15  2  0  0  0  0
 14 13  1  0  0  0  0
 15 16  1  0  0  0  0
 16 11  2  0  0  0  0
 19 20  1  0  0  0  0
 19 15  1  0  0  0  0
 21 20  1  0  0  0  0
 22 23  1  0  0  0  0
 22 20  1  0  0  0  0
 24 22  1  0  0  0  0
 25 24  1  0  0  0  0
 25 26  1  0  0  0  0
 26 19  1  0  0  0  0
 27 33  1  0  0  0  0
 28 34  1  0  0  0  0
 28 27  2  0  0  0  0
 29 30  2  0  0  0  0
 29 28  1  0  0  0  0
 30 31  1  0  0  0  0
 31  3  1  0  0  0  0
 31 32  2  0  0  0  0
 32 27  1  0  0  0  0
 35 29  1  0  0  0  0
M  END
>  <minimizedAffinity>
-6.55446672

>  <minimizedRMSD>
0.696413994

$$$$
