
 OpenBabel03272510183D

 35 38  0  0  0  0  0  0  0  0999 V2000
   37.3100   29.1620   50.7790 Br  0  0  0  0  0  0  0  0  0  0  0  0
   35.9500   29.2720   49.4510 C   0  0  0  0  0  0  0  0  0  0  0  0
   35.9760   30.2880   48.4840 C   0  0  0  0  0  0  0  0  0  0  0  0
   34.9640   30.3060   47.5580 C   0  0  0  0  0  0  0  0  0  0  0  0
   33.9320   29.3790   47.5370 C   0  0  0  0  0  0  0  0  0  0  0  0
   33.9370   28.4000   48.4930 C   0  0  0  0  0  0  0  0  0  0  0  0
   34.9410   28.3610   49.4330 C   0  0  0  0  0  0  0  0  0  0  0  0
   34.9380   31.0710   46.7890 H   0  0  0  0  0  0  0  0  0  0  0  0
   33.1490   27.6540   48.5130 H   0  0  0  0  0  0  0  0  0  0  0  0
   34.9400   27.5840   50.1890 H   0  0  0  0  0  0  0  0  0  0  0  0
   32.8610   29.3990   46.5560 C   0  0  0  0  0  0  0  0  0  0  0  0
   32.2700   28.2840   46.0100 C   0  0  0  0  0  0  0  0  0  0  0  0
   31.2510   28.3500   45.0770 C   0  0  0  0  0  0  0  0  0  0  0  0
   30.8030   29.5550   44.6710 N   0  0  0  0  0  0  0  0  0  0  0  0
   31.3760   30.6410   45.2010 C   0  0  0  0  0  0  0  0  0  0  0  0
   32.3550   30.5620   46.0970 N   0  0  0  0  0  0  0  0  0  0  0  0
   32.6300   27.3040   46.3340 H   0  0  0  0  0  0  0  0  0  0  0  0
   30.8390   27.4130   44.6940 H   0  0  0  0  0  0  0  0  0  0  0  0
   30.9170   31.9180   44.7870 N   0  0  0  0  0  0  0  0  0  0  0  0
   29.6710   32.1190   44.0740 C   0  0  0  0  0  3  0  0  0  0  0  0
   28.9460   32.6130   44.7750 H   0  0  0  0  0  0  0  0  0  0  0  0
   29.8980   33.0010   42.8410 C   0  0  0  0  0  3  0  0  0  0  0  0
   30.3340   32.3790   42.0450 H   0  0  0  0  0  0  0  0  0  0  0  0
   30.6760   34.1010   43.1320 O   0  0  0  0  0  0  0  0  0  0  0  0
   31.8980   33.7630   43.6700 C   0  0  0  0  0  2  0  0  0  0  0  0
   31.6560   33.1390   45.0420 C   0  0  0  0  0  2  0  0  0  0  0  0
   37.9820   33.1580   49.4950 C   0  0  0  0  0  0  0  0  0  0  0  0
   39.0350   33.1730   48.5150 C   0  0  0  0  0  0  0  0  0  0  0  0
   39.0210   32.1980   47.5390 C   0  0  0  0  0  0  0  0  0  0  0  0
   38.0180   31.2640   47.5410 N   0  0  0  0  0  0  0  0  0  0  0  0
   37.0360   31.2710   48.4770 C   0  0  0  0  0  0  0  0  0  0  0  0
   37.0350   32.2220   49.4430 N   0  0  0  0  0  0  0  0  0  0  0  0
   37.9470   33.8990   50.2800 H   0  0  0  0  0  0  0  0  0  0  0  0
   39.7920   33.9430   48.5780 H   0  0  0  0  0  0  0  0  0  0  0  0
   39.7970   32.1760   46.7820 H   0  0  0  0  0  0  0  0  0  0  0  0
  2  1  1  0  0  0  0
  3  2  2  0  0  0  0
  4  3  1  0  0  0  0
  5  4  2  0  0  0  0
  5  6  1  0  0  0  0
  6  9  1  0  0  0  0
  6  7  2  0  0  0  0
  7  2  1  0  0  0  0
  7 10  1  0  0  0  0
  8  4  1  0  0  0  0
 11  5  1  0  0  0  0
 12 17  1  0  0  0  0
 12 11  2  0  0  0  0
 13 12  1  0  0  0  0
 14 13  2  0  0  0  0
 14 15  1  0  0  0  0
 15 16  2  0  0  0  0
 16 11  1  0  0  0  0
 18 13  1  0  0  0  0
 19 26  1  0  0  0  0
 19 15  1  0  0  0  0
 20 21  1  0  0  0  0
 20 19  1  0  0  0  0
 22 24  1  0  0  0  0
 22 20  1  0  0  0  0
 23 22  1  0  0  0  0
 24 25  1  0  0  0  0
 25 26  1  0  0  0  0
 27 33  1  0  0  0  0
 28 34  1  0  0  0  0
 28 27  2  0  0  0  0
 29 30  2  0  0  0  0
 29 28  1  0  0  0  0
 30 31  1  0  0  0  0
 31  3  1  0  0  0  0
 31 32  2  0  0  0  0
 32 27  1  0  0  0  0
 35 29  1  0  0  0  0
M  END
>  <minimizedAffinity>
-6.75251436

>  <minimizedRMSD>
0.403935611

$$$$
