
 OpenBabel03272504083D

 32 34  0  0  0  0  0  0  0  0999 V2000
   37.7790   30.4340   50.1270 C   0  0  0  0  0  0  0  0  0  0  0  0
   37.2720   30.6350   48.8610 C   0  0  0  0  0  0  0  0  0  0  0  0
   35.9350   30.2690   48.5710 C   0  0  0  0  0  0  0  0  0  0  0  0
   35.2110   29.7260   49.5850 N   0  0  0  0  0  0  0  0  0  0  0  0
   35.7460   29.5410   50.8300 C   0  0  0  0  0  0  0  0  0  0  0  0
   37.0260   29.8980   51.0880 N   0  0  0  0  0  0  0  0  0  0  0  0
   34.9060   28.9590   51.8280 N   0  0  0  0  0  0  0  0  0  0  0  0
   38.8120   30.7180   50.3450 H   0  0  0  0  0  0  0  0  0  0  0  0
   34.0560   29.3570   52.2930 H   0  0  0  0  0  0  0  0  0  0  0  0
   35.2080   27.9890   52.1220 H   0  0  0  0  0  0  0  0  0  0  0  0
   38.2450   33.5030   49.1170 Cl  0  0  0  0  0  0  0  0  0  0  0  0
   38.6850   32.4920   47.7720 C   0  0  0  0  0  0  0  0  0  0  0  0
   38.1510   31.2370   47.8420 C   0  0  0  0  0  0  0  0  0  0  0  0
   38.4570   30.3470   46.7980 C   0  0  0  0  0  0  0  0  0  0  0  0
   39.2400   30.6800   45.7520 C   0  0  0  0  0  0  0  0  0  0  0  0
   39.7700   31.9680   45.7060 C   0  0  0  0  0  0  0  0  0  0  0  0
   40.7950   32.4800   44.3980 Cl  0  0  0  0  0  0  0  0  0  0  0  0
   39.4870   32.8420   46.7050 C   0  0  0  0  0  0  0  0  0  0  0  0
   38.0990   29.3270   46.7550 H   0  0  0  0  0  0  0  0  0  0  0  0
   39.4990   30.0250   44.9310 H   0  0  0  0  0  0  0  0  0  0  0  0
   39.8460   33.8710   46.7710 H   0  0  0  0  0  0  0  0  0  0  0  0
   35.4010   30.4800   47.2270 C   0  0  0  0  0  0  0  0  0  0  0  0
   36.0640   30.1150   46.4420 H   0  0  0  0  0  0  0  0  0  0  0  0
   35.2330   31.5710   47.1150 H   0  0  0  0  0  0  0  0  0  0  0  0
   34.1070   29.8380   47.0770 N   0  0  0  0  0  0  0  0  0  0  0  0
   33.1080   30.6720   46.4740 C   0  0  0  0  0  0  0  0  0  0  0  0
   32.7170   31.4520   47.1450 H   0  0  0  0  0  0  0  0  0  0  0  0
   31.9750   29.7390   46.0190 C   0  0  0  0  0  0  0  0  0  0  0  0
   31.8730   28.9340   46.7770 H   0  0  0  0  0  0  0  0  0  0  0  0
   32.4330   29.1360   44.8440 O   0  0  0  0  0  0  0  0  0  0  0  0
   33.6660   28.5410   45.0150 C   0  0  0  0  0  0  0  0  0  0  0  0
   34.2130   28.5780   46.4050 C   0  0  0  0  0  0  0  0  0  0  0  0
  1  8  1  0  0  0  0
  1  6  1  0  0  0  0
  2  1  2  0  0  0  0
  3  2  1  0  0  0  0
  3  4  2  0  0  0  0
  4  5  1  0  0  0  0
  5  6  2  0  0  0  0
  5  7  1  0  0  0  0
  7 10  1  0  0  0  0
  7  9  1  0  0  0  0
 12 13  1  0  0  0  0
 12 11  1  0  0  0  0
 13  2  1  0  0  0  0
 14 13  2  0  0  0  0
 15 14  1  0  0  0  0
 16 15  2  0  0  0  0
 16 18  1  0  0  0  0
 17 16  1  0  0  0  0
 18 21  1  0  0  0  0
 18 12  2  0  0  0  0
 19 14  1  0  0  0  0
 20 15  1  0  0  0  0
 22  3  1  0  0  0  0
 23 22  1  0  0  0  0
 24 22  1  0  0  0  0
 25 22  1  0  0  0  0
 26 25  1  0  0  0  0
 26 27  1  0  0  0  0
 28 26  1  0  0  0  0
 28 29  1  0  0  0  0
 30 31  1  0  0  0  0
 30 28  1  0  0  0  0
 31 32  1  0  0  0  0
 32 25  1  0  0  0  0
M  END
>  <minimizedAffinity>
-5.57932043

>  <minimizedRMSD>
0.819161236

$$$$
