
 OpenBabel03272504343D

 39 42  0  0  0  0  0  0  0  0999 V2000
   39.4180   25.2260   35.1550 C   0  0  0  0  0  0  0  0  0  0  0  0
   40.7440   25.6140   35.0720 C   0  0  0  0  0  0  0  0  0  0  0  0
   41.1330   26.6060   34.1790 C   0  0  0  0  0  0  0  0  0  0  0  0
   40.1600   27.1630   33.4080 N   0  0  0  0  0  0  0  0  0  0  0  0
   38.8730   26.7700   33.5040 C   0  0  0  0  0  0  0  0  0  0  0  0
   38.4800   25.8020   34.3740 N   0  0  0  0  0  0  0  0  0  0  0  0
   41.4610   25.1370   35.7070 H   0  0  0  0  0  0  0  0  0  0  0  0
   42.1490   26.9100   34.1090 H   0  0  0  0  0  0  0  0  0  0  0  0
   37.8580   27.3990   32.6530 C   0  0  0  0  0  0  0  0  0  0  0  0
   37.9050   27.2730   31.2930 C   0  0  0  0  0  0  0  0  0  0  0  0
   36.9710   27.8480   30.4560 C   0  0  0  0  0  0  0  0  0  0  0  0
   35.9810   28.5630   31.0760 N   0  0  0  0  0  0  0  0  0  0  0  0
   35.9490   28.6770   32.4040 C   0  0  0  0  0  0  0  0  0  0  0  0
   36.8680   28.1100   33.2110 N   0  0  0  0  0  0  0  0  0  0  0  0
   38.7110   26.6950   30.8570 H   0  0  0  0  0  0  0  0  0  0  0  0
   37.0770   27.7030   29.3920 H   0  0  0  0  0  0  0  0  0  0  0  0
   34.9030   29.4290   33.0120 N   0  0  0  0  0  0  0  0  0  0  0  0
   34.5960   29.3570   34.4170 C   0  0  0  0  0  3  0  0  0  0  0  0
   34.3210   28.3090   34.6440 H   0  0  0  0  0  0  0  0  0  0  0  0
   33.2950   30.1460   34.6130 C   0  0  0  0  0  3  0  0  0  0  0  0
   32.5360   29.6110   33.9800 H   0  0  0  0  0  0  0  0  0  0  0  0
   33.4180   31.4730   34.2410 O   0  0  0  0  0  0  0  0  0  0  0  0
   34.0450   31.6460   33.0230 C   0  0  0  0  0  2  0  0  0  0  0  0
   34.0640   30.3320   32.2480 C   0  0  0  0  0  2  0  0  0  0  0  0
   38.9480   24.2150   36.0490 N   0  0  0  0  0  0  0  0  0  0  0  0
   37.8800   24.4360   37.0020 C   0  0  0  0  0  0  0  0  0  0  0  0
   38.1380   23.8910   38.3700 C   0  0  0  0  0  0  0  0  0  0  0  0
   38.9780   22.7640   38.4790 N   0  0  0  0  0  0  0  0  0  0  0  0
   40.0780   22.7610   37.5250 C   0  0  0  0  0  0  0  0  0  0  0  0
   39.4200   22.8830   36.1550 C   0  0  0  0  0  0  0  0  0  0  0  0
   36.9710   23.9280   36.5800 H   0  0  0  0  0  0  0  0  0  0  0  0
   37.6110   25.5150   37.0680 H   0  0  0  0  0  0  0  0  0  0  0  0
   38.5760   24.7340   38.9780 H   0  0  0  0  0  0  0  0  0  0  0  0
   37.1500   23.6540   38.8350 H   0  0  0  0  0  0  0  0  0  0  0  0
   39.3540   22.7050   39.4410 H   0  0  0  0  0  0  0  0  0  0  0  0
   40.6240   21.8040   37.6300 H   0  0  0  0  0  0  0  0  0  0  0  0
   40.6920   23.6520   37.6800 H   0  0  0  0  0  0  0  0  0  0  0  0
   40.2480   22.7590   35.4080 H   0  0  0  0  0  0  0  0  0  0  0  0
   38.6330   22.1180   36.0200 H   0  0  0  0  0  0  0  0  0  0  0  0
  1 25  1  0  0  0  0
  2  1  1  0  0  0  0
  2  7  1  0  0  0  0
  3  2  2  0  0  0  0
  4  5  2  0  0  0  0
  4  3  1  0  0  0  0
  5  6  1  0  0  0  0
  6  1  2  0  0  0  0
  8  3  1  0  0  0  0
  9 14  1  0  0  0  0
  9  5  1  0  0  0  0
 10  9  2  0  0  0  0
 11 12  2  0  0  0  0
 11 10  1  0  0  0  0
 12 13  1  0  0  0  0
 13 17  1  0  0  0  0
 13 14  2  0  0  0  0
 15 10  1  0  0  0  0
 16 11  1  0  0  0  0
 17 18  1  0  0  0  0
 18 20  1  0  0  0  0
 18 19  1  0  0  0  0
 21 20  1  0  0  0  0
 22 20  1  0  0  0  0
 23 22  1  0  0  0  0
 24 17  1  0  0  0  0
 24 23  1  0  0  0  0
 25 30  1  0  0  0  0
 25 26  1  0  0  0  0
 26 32  1  0  0  0  0
 26 27  1  0  0  0  0
 27 28  1  0  0  0  0
 27 34  1  0  0  0  0
 27 33  1  0  0  0  0
 28 35  1  0  0  0  0
 29 36  1  0  0  0  0
 29 37  1  0  0  0  0
 29 28  1  0  0  0  0
 30 29  1  0  0  0  0
 31 26  1  0  0  0  0
 38 30  1  0  0  0  0
 39 30  1  0  0  0  0
M  END
>  <minimizedAffinity>
-6.02818251

$$$$

 OpenBabel03272504343D

 39 42  0  0  0  0  0  0  0  0999 V2000
   38.2010   24.0660   34.6550 C   0  0  0  0  0  0  0  0  0  0  0  0
   37.9100   22.9380   33.9080 C   0  0  0  0  0  0  0  0  0  0  0  0
   37.3860   23.0560   32.6260 C   0  0  0  0  0  0  0  0  0  0  0  0
   37.1800   24.3160   32.1540 N   0  0  0  0  0  0  0  0  0  0  0  0
   37.4700   25.4030   32.8980 C   0  0  0  0  0  0  0  0  0  0  0  0
   37.9830   25.3000   34.1520 N   0  0  0  0  0  0  0  0  0  0  0  0
   38.0960   21.9750   34.3370 H   0  0  0  0  0  0  0  0  0  0  0  0
   37.1600   22.1940   32.0460 H   0  0  0  0  0  0  0  0  0  0  0  0
   37.2310   26.7410   32.3480 C   0  0  0  0  0  0  0  0  0  0  0  0
   37.7510   27.1080   31.1380 C   0  0  0  0  0  0  0  0  0  0  0  0
   37.5500   28.3560   30.5840 C   0  0  0  0  0  0  0  0  0  0  0  0
   36.7900   29.2180   31.3290 N   0  0  0  0  0  0  0  0  0  0  0  0
   36.2910   28.8460   32.5080 C   0  0  0  0  0  0  0  0  0  0  0  0
   36.4940   27.6240   33.0380 N   0  0  0  0  0  0  0  0  0  0  0  0
   38.3450   26.3830   30.5920 H   0  0  0  0  0  0  0  0  0  0  0  0
   37.9950   28.5680   29.6240 H   0  0  0  0  0  0  0  0  0  0  0  0
   35.5050   29.7720   33.2520 N   0  0  0  0  0  0  0  0  0  0  0  0
   34.6720   29.3840   34.3610 C   0  0  0  0  0  3  0  0  0  0  0  0
   33.9230   28.6640   33.9790 H   0  0  0  0  0  0  0  0  0  0  0  0
   33.8540   30.6260   34.7380 C   0  0  0  0  0  3  0  0  0  0  0  0
   33.2570   30.8680   33.8170 H   0  0  0  0  0  0  0  0  0  0  0  0
   34.6500   31.6910   35.1180 O   0  0  0  0  0  0  0  0  0  0  0  0
   35.7140   31.9120   34.2660 C   0  0  0  0  0  2  0  0  0  0  0  0
   35.4890   31.1880   32.9420 C   0  0  0  0  0  2  0  0  0  0  0  0
   38.7400   24.0190   35.9770 N   0  0  0  0  0  0  0  0  0  0  0  0
   40.0300   23.4380   36.2850 C   0  0  0  0  0  0  0  0  0  0  0  0
   40.0490   22.5610   37.4960 C   0  0  0  0  0  0  0  0  0  0  0  0
   39.1210   22.8390   38.5210 N   0  0  0  0  0  0  0  0  0  0  0  0
   37.8290   23.2950   38.0300 C   0  0  0  0  0  0  0  0  0  0  0  0
   38.1370   24.5100   37.1620 C   0  0  0  0  0  0  0  0  0  0  0  0
   40.7310   24.2990   36.4570 H   0  0  0  0  0  0  0  0  0  0  0  0
   40.4470   22.8880   35.4110 H   0  0  0  0  0  0  0  0  0  0  0  0
   39.8910   21.5050   37.1340 H   0  0  0  0  0  0  0  0  0  0  0  0
   41.0810   22.5920   37.9220 H   0  0  0  0  0  0  0  0  0  0  0  0
   38.9910   21.9950   39.1050 H   0  0  0  0  0  0  0  0  0  0  0  0
   37.2040   23.5670   38.9030 H   0  0  0  0  0  0  0  0  0  0  0  0
   37.3960   22.5260   37.3850 H   0  0  0  0  0  0  0  0  0  0  0  0
   37.1410   24.9420   36.8790 H   0  0  0  0  0  0  0  0  0  0  0  0
   38.7590   25.2440   37.7080 H   0  0  0  0  0  0  0  0  0  0  0  0
  1 25  1  0  0  0  0
  2  7  1  0  0  0  0
  2  1  2  0  0  0  0
  3  2  1  0  0  0  0
  4  3  2  0  0  0  0
  4  5  1  0  0  0  0
  5  6  2  0  0  0  0
  6  1  1  0  0  0  0
  8  3  1  0  0  0  0
  9  5  1  0  0  0  0
  9 14  1  0  0  0  0
 10  9  2  0  0  0  0
 11 10  1  0  0  0  0
 11 12  2  0  0  0  0
 12 13  1  0  0  0  0
 13 14  2  0  0  0  0
 13 17  1  0  0  0  0
 15 10  1  0  0  0  0
 16 11  1  0  0  0  0
 17 18  1  0  0  0  0
 18 20  1  0  0  0  0
 19 18  1  0  0  0  0
 20 22  1  0  0  0  0
 21 20  1  0  0  0  0
 23 22  1  0  0  0  0
 24 17  1  0  0  0  0
 24 23  1  0  0  0  0
 25 26  1  0  0  0  0
 25 30  1  0  0  0  0
 26 31  1  0  0  0  0
 26 27  1  0  0  0  0
 27 34  1  0  0  0  0
 27 28  1  0  0  0  0
 28 35  1  0  0  0  0
 29 28  1  0  0  0  0
 29 36  1  0  0  0  0
 30 39  1  0  0  0  0
 30 29  1  0  0  0  0
 32 26  1  0  0  0  0
 33 27  1  0  0  0  0
 37 29  1  0  0  0  0
 38 30  1  0  0  0  0
M  END
>  <minimizedAffinity>
-5.96584606

$$$$

 OpenBabel03272504343D

 39 42  0  0  0  0  0  0  0  0999 V2000
   36.9940   24.7720   32.6450 C   0  0  0  0  0  0  0  0  0  0  0  0
   36.1850   24.0490   31.7860 C   0  0  0  0  0  0  0  0  0  0  0  0
   35.3500   24.7010   30.8870 C   0  0  0  0  0  0  0  0  0  0  0  0
   35.3710   26.0620   30.8970 N   0  0  0  0  0  0  0  0  0  0  0  0
   36.1670   26.7490   31.7420 C   0  0  0  0  0  0  0  0  0  0  0  0
   36.9880   26.1210   32.6250 N   0  0  0  0  0  0  0  0  0  0  0  0
   36.2160   22.9800   31.8280 H   0  0  0  0  0  0  0  0  0  0  0  0
   34.7250   24.1530   30.2240 H   0  0  0  0  0  0  0  0  0  0  0  0
   36.1560   28.2140   31.7170 C   0  0  0  0  0  0  0  0  0  0  0  0
   36.5070   28.9020   30.5890 C   0  0  0  0  0  0  0  0  0  0  0  0
   36.5100   30.2800   30.5220 C   0  0  0  0  0  0  0  0  0  0  0  0
   36.1370   30.9290   31.6700 N   0  0  0  0  0  0  0  0  0  0  0  0
   35.7980   30.2440   32.7630 C   0  0  0  0  0  0  0  0  0  0  0  0
   35.7990   28.8970   32.8150 N   0  0  0  0  0  0  0  0  0  0  0  0
   36.7930   28.3350   29.7100 H   0  0  0  0  0  0  0  0  0  0  0  0
   36.8000   30.7480   29.5940 H   0  0  0  0  0  0  0  0  0  0  0  0
   35.4170   30.9550   33.9360 N   0  0  0  0  0  0  0  0  0  0  0  0
   34.7430   30.3350   35.0480 C   0  0  0  0  0  3  0  0  0  0  0  0
   33.7840   29.9300   34.6720 H   0  0  0  0  0  0  0  0  0  0  0  0
   34.3360   31.4730   35.9920 C   0  0  0  0  0  3  0  0  0  0  0  0
   33.6490   32.1220   35.3820 H   0  0  0  0  0  0  0  0  0  0  0  0
   35.4220   32.1890   36.4610 O   0  0  0  0  0  0  0  0  0  0  0  0
   36.3250   32.5270   35.4710 C   0  0  0  0  0  2  0  0  0  0  0  0
   35.6830   32.3720   34.0960 C   0  0  0  0  0  2  0  0  0  0  0  0
   37.8770   24.1670   33.5930 N   0  0  0  0  0  0  0  0  0  0  0  0
   38.0150   22.7340   33.7430 C   0  0  0  0  0  0  0  0  0  0  0  0
   38.0380   22.2510   35.1570 C   0  0  0  0  0  0  0  0  0  0  0  0
   38.5360   23.1290   36.1420 N   0  0  0  0  0  0  0  0  0  0  0  0
   38.1980   24.5250   35.9030 C   0  0  0  0  0  0  0  0  0  0  0  0
   38.7300   24.8330   34.5070 C   0  0  0  0  0  0  0  0  0  0  0  0
   38.9900   22.4590   33.2560 H   0  0  0  0  0  0  0  0  0  0  0  0
   37.2340   22.1870   33.1680 H   0  0  0  0  0  0  0  0  0  0  0  0
   36.9780   21.9680   35.4200 H   0  0  0  0  0  0  0  0  0  0  0  0
   38.6280   21.3030   35.1850 H   0  0  0  0  0  0  0  0  0  0  0  0
   38.1820   22.8420   37.0710 H   0  0  0  0  0  0  0  0  0  0  0  0
   38.7010   25.1400   36.6750 H   0  0  0  0  0  0  0  0  0  0  0  0
   37.1110   24.6340   35.8760 H   0  0  0  0  0  0  0  0  0  0  0  0
   38.5850   25.9360   34.3630 H   0  0  0  0  0  0  0  0  0  0  0  0
   39.7950   24.5470   34.4140 H   0  0  0  0  0  0  0  0  0  0  0  0
  1 25  1  0  0  0  0
  2  7  1  0  0  0  0
  2  1  2  0  0  0  0
  3  4  2  0  0  0  0
  3  2  1  0  0  0  0
  4  5  1  0  0  0  0
  5  6  2  0  0  0  0
  6  1  1  0  0  0  0
  8  3  1  0  0  0  0
  9  5  1  0  0  0  0
  9 14  1  0  0  0  0
 10  9  2  0  0  0  0
 11 10  1  0  0  0  0
 11 12  2  0  0  0  0
 12 13  1  0  0  0  0
 13 14  2  0  0  0  0
 13 17  1  0  0  0  0
 15 10  1  0  0  0  0
 16 11  1  0  0  0  0
 17 24  1  0  0  0  0
 17 18  1  0  0  0  0
 18 20  1  0  0  0  0
 19 18  1  0  0  0  0
 20 22  1  0  0  0  0
 21 20  1  0  0  0  0
 23 22  1  0  0  0  0
 24 23  1  0  0  0  0
 25 26  1  0  0  0  0
 25 30  1  0  0  0  0
 26 27  1  0  0  0  0
 27 34  1  0  0  0  0
 27 33  1  0  0  0  0
 27 28  1  0  0  0  0
 28 35  1  0  0  0  0
 29 28  1  0  0  0  0
 29 36  1  0  0  0  0
 30 29  1  0  0  0  0
 31 26  1  0  0  0  0
 32 26  1  0  0  0  0
 37 29  1  0  0  0  0
 38 30  1  0  0  0  0
 39 30  1  0  0  0  0
M  END
>  <minimizedAffinity>
-5.63037539

$$$$

 OpenBabel03272504343D

 39 42  0  0  0  0  0  0  0  0999 V2000
   37.6460   21.9900   32.9160 C   0  0  0  0  0  0  0  0  0  0  0  0
   38.9430   21.5210   32.8050 C   0  0  0  0  0  0  0  0  0  0  0  0
   40.0120   22.2960   33.2370 C   0  0  0  0  0  0  0  0  0  0  0  0
   39.7210   23.5160   33.7640 N   0  0  0  0  0  0  0  0  0  0  0  0
   38.4490   23.9560   33.8630 C   0  0  0  0  0  0  0  0  0  0  0  0
   37.3950   23.2060   33.4440 N   0  0  0  0  0  0  0  0  0  0  0  0
   39.1050   20.5510   32.3820 H   0  0  0  0  0  0  0  0  0  0  0  0
   41.0120   21.9430   33.1560 H   0  0  0  0  0  0  0  0  0  0  0  0
   38.1820   25.2780   34.4370 C   0  0  0  0  0  0  0  0  0  0  0  0
   38.7480   25.6570   35.6220 C   0  0  0  0  0  0  0  0  0  0  0  0
   38.5240   26.8910   36.1980 C   0  0  0  0  0  0  0  0  0  0  0  0
   37.6890   27.7260   35.5020 N   0  0  0  0  0  0  0  0  0  0  0  0
   37.1440   27.3410   34.3470 C   0  0  0  0  0  0  0  0  0  0  0  0
   37.3710   26.1330   33.7960 N   0  0  0  0  0  0  0  0  0  0  0  0
   39.4010   24.9560   36.1290 H   0  0  0  0  0  0  0  0  0  0  0  0
   39.0080   27.1150   37.1360 H   0  0  0  0  0  0  0  0  0  0  0  0
   36.2810   28.2370   33.6550 N   0  0  0  0  0  0  0  0  0  0  0  0
   35.8990   28.0550   32.2780 C   0  0  0  0  0  3  0  0  0  0  0  0
   36.8250   28.0710   31.6710 H   0  0  0  0  0  0  0  0  0  0  0  0
   35.1480   29.3290   31.8690 C   0  0  0  0  0  3  0  0  0  0  0  0
   35.8960   30.1580   32.0010 H   0  0  0  0  0  0  0  0  0  0  0  0
   34.0150   29.5450   32.6320 O   0  0  0  0  0  0  0  0  0  0  0  0
   34.2260   29.3840   33.9870 C   0  0  0  0  0  2  0  0  0  0  0  0
   35.7200   29.4110   34.2950 C   0  0  0  0  0  2  0  0  0  0  0  0
   36.5000   21.2470   32.4930 N   0  0  0  0  0  0  0  0  0  0  0  0
   35.6580   20.5040   33.4070 C   0  0  0  0  0  0  0  0  0  0  0  0
   35.2740   19.1390   32.9360 C   0  0  0  0  0  0  0  0  0  0  0  0
   35.1910   18.9240   31.5450 N   0  0  0  0  0  0  0  0  0  0  0  0
   36.1950   19.6520   30.7820 C   0  0  0  0  0  0  0  0  0  0  0  0
   36.0100   21.1150   31.1700 C   0  0  0  0  0  0  0  0  0  0  0  0
   34.7220   21.1130   33.5390 H   0  0  0  0  0  0  0  0  0  0  0  0
   36.1140   20.4420   34.4210 H   0  0  0  0  0  0  0  0  0  0  0  0
   36.0270   18.4210   33.3740 H   0  0  0  0  0  0  0  0  0  0  0  0
   34.2920   18.8800   33.4030 H   0  0  0  0  0  0  0  0  0  0  0  0
   35.2720   17.9120   31.3460 H   0  0  0  0  0  0  0  0  0  0  0  0
   35.9960   19.4890   29.7050 H   0  0  0  0  0  0  0  0  0  0  0  0
   37.1910   19.3430   31.1090 H   0  0  0  0  0  0  0  0  0  0  0  0
   36.6940   21.6960   30.4980 H   0  0  0  0  0  0  0  0  0  0  0  0
   34.9570   21.4300   31.0500 H   0  0  0  0  0  0  0  0  0  0  0  0
  1  6  1  0  0  0  0
  2  1  2  0  0  0  0
  2  3  1  0  0  0  0
  3  4  2  0  0  0  0
  4  5  1  0  0  0  0
  5  9  1  0  0  0  0
  6  5  2  0  0  0  0
  7  2  1  0  0  0  0
  8  3  1  0  0  0  0
  9 10  1  0  0  0  0
 10 15  1  0  0  0  0
 10 11  2  0  0  0  0
 11 16  1  0  0  0  0
 12 11  1  0  0  0  0
 13 12  2  0  0  0  0
 14 13  1  0  0  0  0
 14  9  2  0  0  0  0
 17 24  1  0  0  0  0
 17 13  1  0  0  0  0
 18 17  1  0  0  0  0
 19 18  1  0  0  0  0
 20 21  1  0  0  0  0
 20 18  1  0  0  0  0
 20 22  1  0  0  0  0
 22 23  1  0  0  0  0
 23 24  1  0  0  0  0
 25  1  1  0  0  0  0
 25 26  1  0  0  0  0
 26 31  1  0  0  0  0
 26 32  1  0  0  0  0
 27 33  1  0  0  0  0
 27 34  1  0  0  0  0
 27 26  1  0  0  0  0
 28 27  1  0  0  0  0
 29 37  1  0  0  0  0
 29 30  1  0  0  0  0
 29 28  1  0  0  0  0
 30 25  1  0  0  0  0
 35 28  1  0  0  0  0
 36 29  1  0  0  0  0
 38 30  1  0  0  0  0
 39 30  1  0  0  0  0
M  END
>  <minimizedAffinity>
-5.61413765

$$$$

 OpenBabel03272504343D

 39 42  0  0  0  0  0  0  0  0999 V2000
   38.1920   24.1690   34.7540 C   0  0  0  0  0  0  0  0  0  0  0  0
   37.9020   23.0650   33.9730 C   0  0  0  0  0  0  0  0  0  0  0  0
   37.3630   23.2220   32.7010 C   0  0  0  0  0  0  0  0  0  0  0  0
   37.1420   24.4960   32.2750 N   0  0  0  0  0  0  0  0  0  0  0  0
   37.4330   25.5600   33.0520 C   0  0  0  0  0  0  0  0  0  0  0  0
   37.9600   25.4180   34.2970 N   0  0  0  0  0  0  0  0  0  0  0  0
   38.1000   22.0890   34.3670 H   0  0  0  0  0  0  0  0  0  0  0  0
   37.1370   22.3790   32.0950 H   0  0  0  0  0  0  0  0  0  0  0  0
   37.1780   26.9130   32.5510 C   0  0  0  0  0  0  0  0  0  0  0  0
   36.2070   27.6990   33.1060 C   0  0  0  0  0  0  0  0  0  0  0  0
   35.9350   28.9780   32.6650 C   0  0  0  0  0  0  0  0  0  0  0  0
   36.7050   29.4200   31.6210 N   0  0  0  0  0  0  0  0  0  0  0  0
   37.6480   28.6420   31.0900 C   0  0  0  0  0  0  0  0  0  0  0  0
   37.9040   27.3940   31.5300 N   0  0  0  0  0  0  0  0  0  0  0  0
   35.6290   27.2960   33.9300 H   0  0  0  0  0  0  0  0  0  0  0  0
   35.1510   29.5340   33.1560 H   0  0  0  0  0  0  0  0  0  0  0  0
   38.4270   29.1380   30.0060 N   0  0  0  0  0  0  0  0  0  0  0  0
   39.6540   28.5210   29.5720 C   0  0  0  0  0  3  0  0  0  0  0  0
   40.3600   28.5460   30.4260 H   0  0  0  0  0  0  0  0  0  0  0  0
   40.2700   29.4720   28.5380 C   0  0  0  0  0  3  0  0  0  0  0  0
   40.4460   30.4310   29.0970 H   0  0  0  0  0  0  0  0  0  0  0  0
   39.4490   29.6700   27.4430 O   0  0  0  0  0  0  0  0  0  0  0  0
   38.1340   29.9250   27.7820 C   0  0  0  0  0  2  0  0  0  0  0  0
   38.0350   30.3140   29.2540 C   0  0  0  0  0  2  0  0  0  0  0  0
   38.7470   24.0820   36.0680 N   0  0  0  0  0  0  0  0  0  0  0  0
   40.0230   23.4570   36.3480 C   0  0  0  0  0  0  0  0  0  0  0  0
   40.0320   22.5580   37.5430 C   0  0  0  0  0  0  0  0  0  0  0  0
   39.1250   22.8420   38.5840 N   0  0  0  0  0  0  0  0  0  0  0  0
   37.8410   23.3450   38.1190 C   0  0  0  0  0  0  0  0  0  0  0  0
   38.1730   24.5670   37.2700 C   0  0  0  0  0  0  0  0  0  0  0  0
   40.7510   24.2950   36.5270 H   0  0  0  0  0  0  0  0  0  0  0  0
   40.4130   22.9120   35.4590 H   0  0  0  0  0  0  0  0  0  0  0  0
   39.8390   21.5130   37.1620 H   0  0  0  0  0  0  0  0  0  0  0  0
   41.0700   22.5500   37.9560 H   0  0  0  0  0  0  0  0  0  0  0  0
   38.9780   21.9920   39.1550 H   0  0  0  0  0  0  0  0  0  0  0  0
   37.2350   23.6180   39.0050 H   0  0  0  0  0  0  0  0  0  0  0  0
   37.3770   22.6010   37.4660 H   0  0  0  0  0  0  0  0  0  0  0  0
   37.1870   25.0330   37.0080 H   0  0  0  0  0  0  0  0  0  0  0  0
   38.8220   25.2720   37.8220 H   0  0  0  0  0  0  0  0  0  0  0  0
  1 25  1  0  0  0  0
  2  7  1  0  0  0  0
  2  1  2  0  0  0  0
  3  2  1  0  0  0  0
  4  3  2  0  0  0  0
  4  5  1  0  0  0  0
  5  6  2  0  0  0  0
  6  1  1  0  0  0  0
  8  3  1  0  0  0  0
  9  5  1  0  0  0  0
  9 10  1  0  0  0  0
 10 15  1  0  0  0  0
 11 10  2  0  0  0  0
 11 16  1  0  0  0  0
 12 11  1  0  0  0  0
 13 14  1  0  0  0  0
 13 12  2  0  0  0  0
 14  9  2  0  0  0  0
 17 13  1  0  0  0  0
 18 17  1  0  0  0  0
 18 19  1  0  0  0  0
 20 21  1  0  0  0  0
 20 18  1  0  0  0  0
 22 23  1  0  0  0  0
 22 20  1  0  0  0  0
 23 24  1  0  0  0  0
 24 17  1  0  0  0  0
 25 26  1  0  0  0  0
 25 30  1  0  0  0  0
 26 31  1  0  0  0  0
 26 27  1  0  0  0  0
 27 34  1  0  0  0  0
 27 28  1  0  0  0  0
 28 35  1  0  0  0  0
 29 28  1  0  0  0  0
 29 36  1  0  0  0  0
 30 39  1  0  0  0  0
 30 29  1  0  0  0  0
 32 26  1  0  0  0  0
 33 27  1  0  0  0  0
 37 29  1  0  0  0  0
 38 30  1  0  0  0  0
M  END
>  <minimizedAffinity>
-5.57609272

$$$$

 OpenBabel03272504343D

 39 42  0  0  0  0  0  0  0  0999 V2000
   35.5150   29.5450   32.0910 C   0  0  0  0  0  0  0  0  0  0  0  0
   36.0760   30.0930   30.9520 C   0  0  0  0  0  0  0  0  0  0  0  0
   36.7330   29.2850   30.0300 C   0  0  0  0  0  0  0  0  0  0  0  0
   36.7920   27.9530   30.3050 N   0  0  0  0  0  0  0  0  0  0  0  0
   36.2380   27.4380   31.4220 C   0  0  0  0  0  0  0  0  0  0  0  0
   35.5930   28.2190   32.3290 N   0  0  0  0  0  0  0  0  0  0  0  0
   35.9950   31.1480   30.7940 H   0  0  0  0  0  0  0  0  0  0  0  0
   37.1670   29.6970   29.1520 H   0  0  0  0  0  0  0  0  0  0  0  0
   36.3260   25.9970   31.6760 C   0  0  0  0  0  0  0  0  0  0  0  0
   35.5660   25.1100   30.9680 C   0  0  0  0  0  0  0  0  0  0  0  0
   35.6180   23.7460   31.1740 C   0  0  0  0  0  0  0  0  0  0  0  0
   36.4880   23.3290   32.1470 N   0  0  0  0  0  0  0  0  0  0  0  0
   37.2230   24.2070   32.8300 C   0  0  0  0  0  0  0  0  0  0  0  0
   37.1630   25.5360   32.6180 N   0  0  0  0  0  0  0  0  0  0  0  0
   34.8940   25.4980   30.2100 H   0  0  0  0  0  0  0  0  0  0  0  0
   34.9850   23.1120   30.5730 H   0  0  0  0  0  0  0  0  0  0  0  0
   38.1160   23.7330   33.8320 N   0  0  0  0  0  0  0  0  0  0  0  0
   39.1640   24.5420   34.3990 C   0  0  0  0  0  3  0  0  0  0  0  0
   39.8410   24.8360   33.5740 H   0  0  0  0  0  0  0  0  0  0  0  0
   40.0070   23.6030   35.2710 C   0  0  0  0  0  3  0  0  0  0  0  0
   40.4020   22.8260   34.5600 H   0  0  0  0  0  0  0  0  0  0  0  0
   39.2750   23.0260   36.2920 O   0  0  0  0  0  0  0  0  0  0  0  0
   38.0560   22.5250   35.8790 C   0  0  0  0  0  2  0  0  0  0  0  0
   38.0320   22.3840   34.3600 C   0  0  0  0  0  2  0  0  0  0  0  0
   34.8260   30.3140   33.0790 N   0  0  0  0  0  0  0  0  0  0  0  0
   35.4950   31.2400   33.9690 C   0  0  0  0  0  0  0  0  0  0  0  0
   35.0580   31.1650   35.3960 C   0  0  0  0  0  0  0  0  0  0  0  0
   33.7380   30.7430   35.6560 N   0  0  0  0  0  0  0  0  0  0  0  0
   33.2630   29.7140   34.7420 C   0  0  0  0  0  0  0  0  0  0  0  0
   33.4350   30.3070   33.3480 C   0  0  0  0  0  0  0  0  0  0  0  0
   35.2690   32.2710   33.5800 H   0  0  0  0  0  0  0  0  0  0  0  0
   36.6020   31.1380   33.9050 H   0  0  0  0  0  0  0  0  0  0  0  0
   35.7750   30.4680   35.9180 H   0  0  0  0  0  0  0  0  0  0  0  0
   35.2150   32.1710   35.8550 H   0  0  0  0  0  0  0  0  0  0  0  0
   33.6710   30.3990   36.6290 H   0  0  0  0  0  0  0  0  0  0  0  0
   32.1980   29.5130   34.9700 H   0  0  0  0  0  0  0  0  0  0  0  0
   33.9140   28.8390   34.8140 H   0  0  0  0  0  0  0  0  0  0  0  0
   32.9590   29.5740   32.6450 H   0  0  0  0  0  0  0  0  0  0  0  0
   32.9610   31.3040   33.2770 H   0  0  0  0  0  0  0  0  0  0  0  0
  1  6  1  0  0  0  0
  1 25  1  0  0  0  0
  2  1  2  0  0  0  0
  3  4  2  0  0  0  0
  3  2  1  0  0  0  0
  4  5  1  0  0  0  0
  5  9  1  0  0  0  0
  5  6  2  0  0  0  0
  7  2  1  0  0  0  0
  8  3  1  0  0  0  0
  9 14  1  0  0  0  0
 10 11  1  0  0  0  0
 10  9  2  0  0  0  0
 11 12  2  0  0  0  0
 12 13  1  0  0  0  0
 13 17  1  0  0  0  0
 14 13  2  0  0  0  0
 15 10  1  0  0  0  0
 16 11  1  0  0  0  0
 17 24  1  0  0  0  0
 17 18  1  0  0  0  0
 18 20  1  0  0  0  0
 19 18  1  0  0  0  0
 20 22  1  0  0  0  0
 21 20  1  0  0  0  0
 23 22  1  0  0  0  0
 24 23  1  0  0  0  0
 25 30  1  0  0  0  0
 25 26  1  0  0  0  0
 26 27  1  0  0  0  0
 27 28  1  0  0  0  0
 27 34  1  0  0  0  0
 27 33  1  0  0  0  0
 28 35  1  0  0  0  0
 29 37  1  0  0  0  0
 29 36  1  0  0  0  0
 29 28  1  0  0  0  0
 30 29  1  0  0  0  0
 31 26  1  0  0  0  0
 32 26  1  0  0  0  0
 38 30  1  0  0  0  0
 39 30  1  0  0  0  0
M  END
>  <minimizedAffinity>
-5.53987217

$$$$

 OpenBabel03272504343D

 39 42  0  0  0  0  0  0  0  0999 V2000
   34.6710   30.5560   34.2690 C   0  0  0  0  0  0  0  0  0  0  0  0
   33.9680   31.0500   33.1850 C   0  0  0  0  0  0  0  0  0  0  0  0
   34.2160   30.5690   31.9040 C   0  0  0  0  0  0  0  0  0  0  0  0
   35.1690   29.6060   31.7780 N   0  0  0  0  0  0  0  0  0  0  0  0
   35.8430   29.1370   32.8480 C   0  0  0  0  0  0  0  0  0  0  0  0
   35.6090   29.5990   34.1050 N   0  0  0  0  0  0  0  0  0  0  0  0
   33.2310   31.8080   33.3520 H   0  0  0  0  0  0  0  0  0  0  0  0
   33.6810   30.9440   31.0660 H   0  0  0  0  0  0  0  0  0  0  0  0
   36.8610   28.0980   32.6640 C   0  0  0  0  0  0  0  0  0  0  0  0
   37.5980   28.0300   31.5150 C   0  0  0  0  0  0  0  0  0  0  0  0
   38.5650   27.0690   31.3010 C   0  0  0  0  0  0  0  0  0  0  0  0
   38.7450   26.1730   32.3210 N   0  0  0  0  0  0  0  0  0  0  0  0
   38.0170   26.2510   33.4360 C   0  0  0  0  0  0  0  0  0  0  0  0
   37.0760   27.1950   33.6330 N   0  0  0  0  0  0  0  0  0  0  0  0
   37.4130   28.7670   30.7410 H   0  0  0  0  0  0  0  0  0  0  0  0
   39.1050   27.0840   30.3660 H   0  0  0  0  0  0  0  0  0  0  0  0
   38.2340   25.3010   34.4740 N   0  0  0  0  0  0  0  0  0  0  0  0
   37.7410   25.4750   35.8160 C   0  0  0  0  0  3  0  0  0  0  0  0
   38.1960   26.4010   36.2200 H   0  0  0  0  0  0  0  0  0  0  0  0
   38.3620   24.3480   36.6510 C   0  0  0  0  0  3  0  0  0  0  0  0
   39.4720   24.5110   36.5760 H   0  0  0  0  0  0  0  0  0  0  0  0
   38.0050   23.0920   36.1950 O   0  0  0  0  0  0  0  0  0  0  0  0
   38.1160   22.9530   34.8260 C   0  0  0  0  0  2  0  0  0  0  0  0
   38.9750   24.0740   34.2490 C   0  0  0  0  0  2  0  0  0  0  0  0
   34.4670   31.0030   35.6110 N   0  0  0  0  0  0  0  0  0  0  0  0
   33.2210   30.8210   36.3250 C   0  0  0  0  0  0  0  0  0  0  0  0
   32.7540   32.0200   37.0860 C   0  0  0  0  0  0  0  0  0  0  0  0
   33.7330   32.9150   37.5640 N   0  0  0  0  0  0  0  0  0  0  0  0
   34.8650   33.0780   36.6620 C   0  0  0  0  0  0  0  0  0  0  0  0
   35.4050   31.6690   36.4390 C   0  0  0  0  0  0  0  0  0  0  0  0
   33.3930   29.9810   37.0520 H   0  0  0  0  0  0  0  0  0  0  0  0
   32.4120   30.4630   35.6470 H   0  0  0  0  0  0  0  0  0  0  0  0
   32.0450   32.5780   36.4090 H   0  0  0  0  0  0  0  0  0  0  0  0
   32.1410   31.6600   37.9480 H   0  0  0  0  0  0  0  0  0  0  0  0
   33.3000   33.8370   37.7440 H   0  0  0  0  0  0  0  0  0  0  0  0
   35.6130   33.7260   37.1590 H   0  0  0  0  0  0  0  0  0  0  0  0
   34.5080   33.4540   35.7000 H   0  0  0  0  0  0  0  0  0  0  0  0
   36.3480   31.7960   35.8460 H   0  0  0  0  0  0  0  0  0  0  0  0
   35.5940   31.1580   37.4010 H   0  0  0  0  0  0  0  0  0  0  0  0
  1 25  1  0  0  0  0
  2  7  1  0  0  0  0
  2  1  2  0  0  0  0
  3  2  1  0  0  0  0
  4  3  2  0  0  0  0
  4  5  1  0  0  0  0
  5  6  2  0  0  0  0
  6  1  1  0  0  0  0
  8  3  1  0  0  0  0
  9  5  1  0  0  0  0
  9 14  1  0  0  0  0
 10  9  2  0  0  0  0
 11 10  1  0  0  0  0
 11 12  2  0  0  0  0
 12 13  1  0  0  0  0
 13 14  2  0  0  0  0
 13 17  1  0  0  0  0
 15 10  1  0  0  0  0
 16 11  1  0  0  0  0
 17 18  1  0  0  0  0
 18 19  1  0  0  0  0
 18 20  1  0  0  0  0
 21 20  1  0  0  0  0
 22 20  1  0  0  0  0
 23 22  1  0  0  0  0
 24 17  1  0  0  0  0
 24 23  1  0  0  0  0
 25 26  1  0  0  0  0
 25 30  1  0  0  0  0
 26 31  1  0  0  0  0
 26 27  1  0  0  0  0
 27 28  1  0  0  0  0
 27 34  1  0  0  0  0
 28 35  1  0  0  0  0
 29 36  1  0  0  0  0
 29 28  1  0  0  0  0
 30 29  1  0  0  0  0
 30 39  1  0  0  0  0
 32 26  1  0  0  0  0
 33 27  1  0  0  0  0
 37 29  1  0  0  0  0
 38 30  1  0  0  0  0
M  END
>  <minimizedAffinity>
-5.49900293

$$$$

 OpenBabel03272504343D

 39 42  0  0  0  0  0  0  0  0999 V2000
   34.9330   30.4380   33.9780 C   0  0  0  0  0  0  0  0  0  0  0  0
   34.7450   30.5330   32.6110 C   0  0  0  0  0  0  0  0  0  0  0  0
   35.3230   29.6040   31.7530 C   0  0  0  0  0  0  0  0  0  0  0  0
   36.0680   28.6160   32.3210 N   0  0  0  0  0  0  0  0  0  0  0  0
   36.2390   28.5410   33.6570 C   0  0  0  0  0  0  0  0  0  0  0  0
   35.6780   29.4430   34.5050 N   0  0  0  0  0  0  0  0  0  0  0  0
   34.1470   31.3330   32.2280 H   0  0  0  0  0  0  0  0  0  0  0  0
   35.1840   29.6690   30.7020 H   0  0  0  0  0  0  0  0  0  0  0  0
   37.0500   27.4590   34.2230 C   0  0  0  0  0  0  0  0  0  0  0  0
   37.7240   27.6270   35.3990 C   0  0  0  0  0  0  0  0  0  0  0  0
   38.4980   26.6350   35.9670 C   0  0  0  0  0  0  0  0  0  0  0  0
   38.5520   25.4560   35.2720 N   0  0  0  0  0  0  0  0  0  0  0  0
   37.8880   25.3070   34.1250 C   0  0  0  0  0  0  0  0  0  0  0  0
   37.1360   26.2840   33.5810 N   0  0  0  0  0  0  0  0  0  0  0  0
   37.6450   28.5820   35.9070 H   0  0  0  0  0  0  0  0  0  0  0  0
   39.0000   26.8460   36.8990 H   0  0  0  0  0  0  0  0  0  0  0  0
   37.9700   24.0660   33.4320 N   0  0  0  0  0  0  0  0  0  0  0  0
   37.0650   23.6940   32.3750 C   0  0  0  0  0  3  0  0  0  0  0  0
   36.0430   23.6820   32.8010 H   0  0  0  0  0  0  0  0  0  0  0  0
   37.3640   22.2250   32.0510 C   0  0  0  0  0  3  0  0  0  0  0  0
   37.1570   21.6710   33.0080 H   0  0  0  0  0  0  0  0  0  0  0  0
   38.6650   22.0290   31.6260 O   0  0  0  0  0  0  0  0  0  0  0  0
   39.6020   22.6710   32.4120 C   0  0  0  0  0  2  0  0  0  0  0  0
   38.9830   23.0770   33.7460 C   0  0  0  0  0  2  0  0  0  0  0  0
   34.3690   31.3560   34.9170 N   0  0  0  0  0  0  0  0  0  0  0  0
   35.1500   32.3590   35.6100 C   0  0  0  0  0  0  0  0  0  0  0  0
   34.8550   32.4850   37.0700 C   0  0  0  0  0  0  0  0  0  0  0  0
   33.5550   32.1570   37.5070 N   0  0  0  0  0  0  0  0  0  0  0  0
   32.9610   31.0410   36.7850 C   0  0  0  0  0  0  0  0  0  0  0  0
   33.0110   31.4420   35.3150 C   0  0  0  0  0  0  0  0  0  0  0  0
   34.9170   33.3390   35.1120 H   0  0  0  0  0  0  0  0  0  0  0  0
   36.2420   32.2020   35.4560 H   0  0  0  0  0  0  0  0  0  0  0  0
   35.5990   31.8310   37.6090 H   0  0  0  0  0  0  0  0  0  0  0  0
   35.0860   33.5340   37.3750 H   0  0  0  0  0  0  0  0  0  0  0  0
   33.5740   31.9420   38.5190 H   0  0  0  0  0  0  0  0  0  0  0  0
   31.9190   30.9160   37.1370 H   0  0  0  0  0  0  0  0  0  0  0  0
   33.5900   30.1550   36.9100 H   0  0  0  0  0  0  0  0  0  0  0  0
   32.4470   30.6460   34.7630 H   0  0  0  0  0  0  0  0  0  0  0  0
   32.5630   32.4410   35.1580 H   0  0  0  0  0  0  0  0  0  0  0  0
  1  6  1  0  0  0  0
  1 25  1  0  0  0  0
  2  1  2  0  0  0  0
  3  4  2  0  0  0  0
  3  2  1  0  0  0  0
  4  5  1  0  0  0  0
  5  9  1  0  0  0  0
  5  6  2  0  0  0  0
  7  2  1  0  0  0  0
  8  3  1  0  0  0  0
  9 10  1  0  0  0  0
 10 15  1  0  0  0  0
 10 11  2  0  0  0  0
 11 16  1  0  0  0  0
 12 11  1  0  0  0  0
 13 12  2  0  0  0  0
 14 13  1  0  0  0  0
 14  9  2  0  0  0  0
 17 24  1  0  0  0  0
 17 13  1  0  0  0  0
 18 19  1  0  0  0  0
 18 17  1  0  0  0  0
 20 18  1  0  0  0  0
 20 21  1  0  0  0  0
 22 20  1  0  0  0  0
 22 23  1  0  0  0  0
 23 24  1  0  0  0  0
 25 30  1  0  0  0  0
 25 26  1  0  0  0  0
 26 27  1  0  0  0  0
 27 34  1  0  0  0  0
 27 28  1  0  0  0  0
 27 33  1  0  0  0  0
 28 35  1  0  0  0  0
 29 37  1  0  0  0  0
 29 36  1  0  0  0  0
 29 28  1  0  0  0  0
 30 29  1  0  0  0  0
 31 26  1  0  0  0  0
 32 26  1  0  0  0  0
 38 30  1  0  0  0  0
 39 30  1  0  0  0  0
M  END
>  <minimizedAffinity>
-5.38829708

$$$$

 OpenBabel03272504343D

 39 42  0  0  0  0  0  0  0  0999 V2000
   36.8730   29.2970   30.4560 C   0  0  0  0  0  0  0  0  0  0  0  0
   35.9380   30.0260   31.1690 C   0  0  0  0  0  0  0  0  0  0  0  0
   35.1010   29.3960   32.0840 C   0  0  0  0  0  0  0  0  0  0  0  0
   35.2500   28.0520   32.2380 N   0  0  0  0  0  0  0  0  0  0  0  0
   36.1690   27.3600   31.5330 C   0  0  0  0  0  0  0  0  0  0  0  0
   36.9920   27.9640   30.6360 N   0  0  0  0  0  0  0  0  0  0  0  0
   35.8710   31.0810   31.0020 H   0  0  0  0  0  0  0  0  0  0  0  0
   34.3800   29.9490   32.6350 H   0  0  0  0  0  0  0  0  0  0  0  0
   36.2940   25.9130   31.7320 C   0  0  0  0  0  0  0  0  0  0  0  0
   35.5500   25.0340   30.9960 C   0  0  0  0  0  0  0  0  0  0  0  0
   35.6360   23.6660   31.1510 C   0  0  0  0  0  0  0  0  0  0  0  0
   36.5230   23.2330   32.1010 N   0  0  0  0  0  0  0  0  0  0  0  0
   37.2420   24.1030   32.8120 C   0  0  0  0  0  0  0  0  0  0  0  0
   37.1480   25.4370   32.6500 N   0  0  0  0  0  0  0  0  0  0  0  0
   34.8640   25.4340   30.2570 H   0  0  0  0  0  0  0  0  0  0  0  0
   35.0140   23.0390   30.5300 H   0  0  0  0  0  0  0  0  0  0  0  0
   38.1540   23.6130   33.7900 N   0  0  0  0  0  0  0  0  0  0  0  0
   39.1860   24.4260   34.3800 C   0  0  0  0  0  3  0  0  0  0  0  0
   39.8500   24.7670   33.5620 H   0  0  0  0  0  0  0  0  0  0  0  0
   40.0590   23.4760   35.2100 C   0  0  0  0  0  3  0  0  0  0  0  0
   40.4660   22.7360   34.4680 H   0  0  0  0  0  0  0  0  0  0  0  0
   39.3480   22.8430   36.2140 O   0  0  0  0  0  0  0  0  0  0  0  0
   38.1390   22.3290   35.7900 C   0  0  0  0  0  2  0  0  0  0  0  0
   38.1060   22.2440   34.2670 C   0  0  0  0  0  2  0  0  0  0  0  0
   37.7640   29.8770   29.5010 N   0  0  0  0  0  0  0  0  0  0  0  0
   37.4290   31.0460   28.7150 C   0  0  0  0  0  0  0  0  0  0  0  0
   37.7940   30.9540   27.2680 C   0  0  0  0  0  0  0  0  0  0  0  0
   38.8930   30.1430   26.9200 N   0  0  0  0  0  0  0  0  0  0  0  0
   39.0110   28.9400   27.7310 C   0  0  0  0  0  0  0  0  0  0  0  0
   39.0690   29.4330   29.1730 C   0  0  0  0  0  0  0  0  0  0  0  0
   37.9930   31.9050   29.1720 H   0  0  0  0  0  0  0  0  0  0  0  0
   36.3530   31.3120   28.8190 H   0  0  0  0  0  0  0  0  0  0  0  0
   36.8770   30.5830   26.7260 H   0  0  0  0  0  0  0  0  0  0  0  0
   37.9750   31.9920   26.8960 H   0  0  0  0  0  0  0  0  0  0  0  0
   38.8270   29.8820   25.9210 H   0  0  0  0  0  0  0  0  0  0  0  0
   39.9440   28.4180   27.4420 H   0  0  0  0  0  0  0  0  0  0  0  0
   38.1050   28.3400   27.6200 H   0  0  0  0  0  0  0  0  0  0  0  0
   39.2830   28.5250   29.7960 H   0  0  0  0  0  0  0  0  0  0  0  0
   39.8490   30.2060   29.2990 H   0  0  0  0  0  0  0  0  0  0  0  0
  1  6  2  0  0  0  0
  1  2  1  0  0  0  0
  2  3  2  0  0  0  0
  3  4  1  0  0  0  0
  3  8  1  0  0  0  0
  5  9  1  0  0  0  0
  5  4  2  0  0  0  0
  6  5  1  0  0  0  0
  7  2  1  0  0  0  0
  9 14  1  0  0  0  0
 10 11  1  0  0  0  0
 10  9  2  0  0  0  0
 11 12  2  0  0  0  0
 12 13  1  0  0  0  0
 13 17  1  0  0  0  0
 14 13  2  0  0  0  0
 15 10  1  0  0  0  0
 16 11  1  0  0  0  0
 17 24  1  0  0  0  0
 17 18  1  0  0  0  0
 18 20  1  0  0  0  0
 19 18  1  0  0  0  0
 20 22  1  0  0  0  0
 21 20  1  0  0  0  0
 23 22  1  0  0  0  0
 24 23  1  0  0  0  0
 25  1  1  0  0  0  0
 26 32  1  0  0  0  0
 26 31  1  0  0  0  0
 26 25  1  0  0  0  0
 27 26  1  0  0  0  0
 28 27  1  0  0  0  0
 28 29  1  0  0  0  0
 29 30  1  0  0  0  0
 30 39  1  0  0  0  0
 30 25  1  0  0  0  0
 30 38  1  0  0  0  0
 33 27  1  0  0  0  0
 34 27  1  0  0  0  0
 35 28  1  0  0  0  0
 36 29  1  0  0  0  0
 37 29  1  0  0  0  0
M  END
>  <minimizedAffinity>
-5.3754673

$$$$
