
 OpenBabel03272502043D

 38 41  0  0  0  0  0  0  0  0999 V2000
   34.1860   30.4180   47.6960 F   0  0  0  0  0  0  0  0  0  0  0  0
   34.5910   29.9570   46.4680 C   0  0  0  0  0  0  0  0  0  0  0  0
   33.7160   29.3510   45.5810 C   0  0  0  0  0  0  0  0  0  0  0  0
   34.1920   28.9290   44.3600 C   0  0  0  0  0  0  0  0  0  0  0  0
   35.5370   29.1090   44.0180 C   0  0  0  0  0  0  0  0  0  0  0  0
   36.3550   29.7200   44.9490 C   0  0  0  0  0  0  0  0  0  0  0  0
   35.9340   30.1470   46.1510 C   0  0  0  0  0  0  0  0  0  0  0  0
   33.4730   28.4630   43.7040 H   0  0  0  0  0  0  0  0  0  0  0  0
   35.8660   28.7670   43.0600 H   0  0  0  0  0  0  0  0  0  0  0  0
   37.3780   29.8240   44.6150 H   0  0  0  0  0  0  0  0  0  0  0  0
   32.0950   28.2200   46.9550 C   0  0  0  0  0  0  0  0  0  0  0  0
   32.3650   29.2290   46.0560 C   0  0  0  0  0  0  0  0  0  0  0  0
   31.3150   30.0660   45.6770 C   0  0  0  0  0  0  0  0  0  0  0  0
   30.0770   29.8690   46.1940 N   0  0  0  0  0  0  0  0  0  0  0  0
   29.8570   28.8790   47.0640 C   0  0  0  0  0  0  0  0  0  0  0  0
   30.8350   28.0700   47.4410 N   0  0  0  0  0  0  0  0  0  0  0  0
   32.8450   27.5220   47.3070 H   0  0  0  0  0  0  0  0  0  0  0  0
   31.6070   30.8330   44.9680 H   0  0  0  0  0  0  0  0  0  0  0  0
   28.5430   28.7010   47.5880 N   0  0  0  0  0  0  0  0  0  0  0  0
   28.0060   29.5960   48.5980 C   0  0  0  0  0  0  0  0  0  0  0  0
   28.7870   30.3060   48.9650 H   0  0  0  0  0  0  0  0  0  0  0  0
   27.3930   28.7950   49.7030 C   0  0  0  0  0  0  0  0  0  0  0  0
   27.9180   29.0720   50.6470 H   0  0  0  0  0  0  0  0  0  0  0  0
   27.6120   27.4400   49.5250 O   0  0  0  0  0  0  0  0  0  0  0  0
   27.0730   26.9640   48.3280 C   0  0  0  0  0  0  0  0  0  0  0  0
   27.6850   27.6200   47.1370 C   0  0  0  0  0  0  0  0  0  0  0  0
   37.8910   32.3250   45.0390 Br  0  0  0  0  0  0  0  0  0  0  0  0
   37.7720   31.7580   46.8520 C   0  0  0  0  0  0  0  0  0  0  0  0
   36.8530   30.7700   47.0850 C   0  0  0  0  0  0  0  0  0  0  0  0
   36.7350   30.2760   48.3970 C   0  0  0  0  0  0  0  0  0  0  0  0
   37.5100   30.7690   49.3960 C   0  0  0  0  0  0  0  0  0  0  0  0
   38.4130   31.7650   49.0930 C   0  0  0  0  0  0  0  0  0  0  0  0
   38.5620   32.2820   47.8070 C   0  0  0  0  0  0  0  0  0  0  0  0
   36.0370   29.4960   48.6700 H   0  0  0  0  0  0  0  0  0  0  0  0
   37.4680   30.4310   50.4240 H   0  0  0  0  0  0  0  0  0  0  0  0
   39.0550   32.1890   49.8690 H   0  0  0  0  0  0  0  0  0  0  0  0
   39.4280   33.2630   47.4320 O   0  0  0  0  0  0  0  0  0  0  0  0
   40.2490   33.5650   47.9190 H   0  0  0  0  0  0  0  0  0  0  0  0
  2  1  1  0  0  0  0
  3 12  1  0  0  0  0
  3  2  2  0  0  0  0
  4  3  1  0  0  0  0
  5  4  2  0  0  0  0
  5  6  1  0  0  0  0
  6  7  2  0  0  0  0
  7  2  1  0  0  0  0
  7 29  1  0  0  0  0
  8  4  1  0  0  0  0
  9  5  1  0  0  0  0
 10  6  1  0  0  0  0
 11 17  1  0  0  0  0
 11 16  1  0  0  0  0
 12 11  2  0  0  0  0
 13 12  1  0  0  0  0
 13 14  2  0  0  0  0
 14 15  1  0  0  0  0
 15 16  2  0  0  0  0
 15 19  1  0  0  0  0
 18 13  1  0  0  0  0
 19 20  1  0  0  0  0
 20 21  1  0  0  0  0
 20 22  1  0  0  0  0
 22 23  1  0  0  0  0
 24 22  1  0  0  0  0
 25 24  1  0  0  0  0
 26 19  1  0  0  0  0
 26 25  1  0  0  0  0
 27 28  1  0  0  0  0
 28 29  2  0  0  0  0
 28 33  1  0  0  0  0
 29 30  1  0  0  0  0
 30 34  1  0  0  0  0
 30 31  2  0  0  0  0
 31 35  1  0  0  0  0
 32 31  1  0  0  0  0
 32 36  1  0  0  0  0
 33 32  2  0  0  0  0
 37 33  1  0  0  0  0
 37 38  1  0  0  0  0
M  END
>  <minimizedAffinity>
-7.02630997

>  <minimizedRMSD>
0.185559869

$$$$
