REMARK  Name = 
REMARK  3 active torsions:
REMARK  status: ('A' for Active; 'I' for Inactive)
REMARK    1  A    between atoms: C_2  and  C_12
REMARK    2  A    between atoms: C_6  and  O_16
REMARK    3  A    between atoms: O_16  and  C_26
REMARK                            x       y       z     vdW  Elec       q    Type
REMARK                         _______ _______ _______ _____ _____    ______ ____
ROOT
ATOM      1  C   UNL     1      36.851  30.543  46.912  0.00  0.00    +0.000 A 
ATOM      2  C   UNL     1      37.514  31.027  48.025  0.00  0.00    +0.000 A 
ATOM      3  C   UNL     1      38.514  31.991  47.897  0.00  0.00    +0.000 A 
ATOM      4  C   UNL     1      38.799  32.429  46.611  0.00  0.00    +0.000 A 
ATOM      5  N   UNL     1      39.728  33.360  46.233  0.00  0.00    +0.000 N 
ATOM      6  C   UNL     1      39.637  33.448  44.890  0.00  0.00    +0.000 A 
ATOM      7  N   UNL     1      38.706  32.626  44.419  0.00  0.00    +0.000 NA
ATOM      8  C   UNL     1      38.163  31.974  45.477  0.00  0.00    +0.000 A 
ATOM      9  C   UNL     1      37.164  31.005  45.639  0.00  0.00    +0.000 A 
ATOM     10  H   UNL     1      36.073  29.796  46.984  0.00  0.00    +0.000 HD
ATOM     11  H   UNL     1      39.027  32.368  48.746  0.00  0.00    +0.000 HD
ATOM     12  H   UNL     1      40.375  33.892  46.856  0.00  0.00    +0.000 HD
ATOM     13  H   UNL     1      36.658  30.642  44.750  0.00  0.00    +0.000 HD
ENDROOT
BRANCH   2  16
ATOM     14  C   UNL     1      37.386  30.080  51.662  0.00  0.00    +0.000 A 
ATOM     15  C   UNL     1      37.877  30.639  50.485  0.00  0.00    +0.000 A 
ATOM     16  C   UNL     1      37.143  30.506  49.324  0.00  0.00    +0.000 A 
ATOM     17  N   UNL     1      35.959  29.820  49.407  0.00  0.00    +0.000 NA
ATOM     18  C   UNL     1      35.492  29.282  50.552  0.00  0.00    +0.000 A 
ATOM     19  N   UNL     1      36.201  29.414  51.660  0.00  0.00    +0.000 NA
ATOM     20  H   UNL     1      38.037  30.240  52.521  0.00  0.00    +0.000 HD
ATOM     21  H   UNL     1      38.803  31.182  50.392  0.00  0.00    +0.000 HD
ATOM     22  H   UNL     1      34.552  28.759  50.530  0.00  0.00    +0.000 HD
ENDBRANCH   2  16
BRANCH   6  23
ATOM     23  O   UNL     1      40.463  34.326  44.164  0.00  0.00    +0.000 OA
BRANCH  23  26
ATOM     24  H   UNL     1      40.111  32.373  42.697  0.00  0.00    +0.000 HD
ATOM     25  N   UNL     1      39.497  33.176  42.428  0.00  0.00    +0.000 NA
ATOM     26  C   UNL     1      40.306  34.361  42.753  0.00  0.00    +0.000 C 
ATOM     27  C   UNL     1      39.444  35.546  42.391  0.00  0.00    +0.000 C 
ATOM     28  H   UNL     1      38.462  35.423  42.901  0.00  0.00    +0.000 HD
ATOM     29  O   UNL     1      39.284  35.585  41.008  0.00  0.00    +0.000 OA
ATOM     30  C   UNL     1      38.750  34.441  40.463  0.00  0.00    +0.000 C 
ATOM     31  C   UNL     1      39.393  33.176  40.981  0.00  0.00    +0.000 C 
ENDBRANCH  23  26
ENDBRANCH   6  23
TORSDOF 3
