
 OpenBabel03272504173D

 25 26  0  0  1  0  0  0  0  0999 V2000
   35.4020   29.7870   46.0770 O   0  0  0  0  0  0  0  0  0  0  0  0
   34.4120   29.4520   47.1740 P   0  0  1  0  0  0  0  0  0  0  0  0
   34.6010   27.8910   47.7570 O   0  0  0  0  0  0  0  0  0  0  0  0
   33.7300   27.4500   47.8810 H   0  0  0  0  0  0  0  0  0  0  0  0
   34.5850   30.5240   48.5250 O   0  0  0  0  0  0  0  0  0  0  0  0
   35.7510   30.5560   49.2840 C   0  0  0  0  0  0  0  0  0  0  0  0
   36.0050   29.8370   50.4490 C   0  0  0  0  0  0  0  0  0  0  0  0
   37.2300   29.9960   51.0740 C   0  0  0  0  0  0  0  0  0  0  0  0
   38.1460   30.8430   50.5370 N   0  0  0  0  0  0  0  0  0  0  0  0
   37.8710   31.5340   49.3970 C   0  0  0  0  0  0  0  0  0  0  0  0
   36.6690   31.3910   48.7640 N   0  0  0  0  0  0  0  0  0  0  0  0
   37.3850   29.4200   51.9760 H   0  0  0  0  0  0  0  0  0  0  0  0
   38.6440   32.1910   49.0230 H   0  0  0  0  0  0  0  0  0  0  0  0
   34.9490   29.0070   50.8680 N   0  0  0  0  0  0  0  0  0  0  0  0
   33.9490   29.2530   50.9430 H   0  0  0  0  0  0  0  0  0  0  0  0
   35.4000   28.0760   51.0890 H   0  0  0  0  0  0  0  0  0  0  0  0
   32.8760   29.7040   46.4910 O   0  0  0  0  0  0  0  0  0  0  0  0
   33.1650   28.1290   48.4000 H   0  0  0  0  0  0  0  0  0  0  0  0
   32.2150   28.5860   48.3580 N   0  0  0  0  0  0  0  0  0  0  0  0
   31.9540   28.7890   46.9440 C   0  0  2  0  0  0  0  0  0  0  0  0
   32.1640   27.4810   46.2150 C   0  0  0  0  0  0  0  0  0  0  0  0
   31.8200   27.6010   45.1470 H   0  0  0  0  0  0  0  0  0  0  0  0
   31.4280   26.4410   46.7390 O   0  0  0  0  0  0  0  0  0  0  0  0
   31.5150   26.2840   48.0980 C   0  0  0  0  0  0  0  0  0  0  0  0
   31.2760   27.5890   48.8340 C   0  0  0  0  0  0  0  0  0  0  0  0
  2  1  2  6  0  0  0
  2  3  1  0  0  0  0
  2  5  1  0  0  0  0
  3  4  1  0  0  0  0
  5  6  1  0  0  0  0
  6  7  1  0  0  0  0
  7 14  1  0  0  0  0
  7  8  2  0  0  0  0
  8 12  1  0  0  0  0
  9  8  1  0  0  0  0
 10  9  2  0  0  0  0
 11  6  2  0  0  0  0
 11 10  1  0  0  0  0
 13 10  1  0  0  0  0
 14 15  1  0  0  0  0
 14 16  1  0  0  0  0
 17  2  1  0  0  0  0
 19 18  1  0  0  0  0
 19 25  1  0  0  0  0
 20 17  1  6  0  0  0
 20 19  1  0  0  0  0
 21 23  1  0  0  0  0
 21 20  1  0  0  0  0
 22 21  1  0  0  0  0
 23 24  1  0  0  0  0
 24 25  1  0  0  0  0
M  END
>  <minimizedAffinity>
-4.11396742

>  <minimizedRMSD>
2.7800343

$$$$
