REMARK  Name = 
REMARK  2 active torsions:
REMARK  status: ('A' for Active; 'I' for Inactive)
REMARK    1  A    between atoms: C_3  and  C_12
REMARK    2  A    between atoms: C_5  and  C_14
REMARK                            x       y       z     vdW  Elec       q    Type
REMARK                         _______ _______ _______ _____ _____    ______ ____
ROOT
ATOM      1 BR   UNL     1      37.313  29.333  51.026  0.00  0.00    +0.000 Br
ATOM      2  C   UNL     1      35.965  29.326  49.681  0.00  0.00    +0.000 A 
ATOM      3  C   UNL     1      35.992  30.264  48.638  0.00  0.00    +0.000 A 
ATOM      4  C   UNL     1      34.988  30.200  47.705  0.00  0.00    +0.000 A 
ATOM      5  C   UNL     1      33.965  29.264  47.747  0.00  0.00    +0.000 A 
ATOM      6  C   UNL     1      33.969  28.363  48.777  0.00  0.00    +0.000 A 
ATOM      7  C   UNL     1      34.964  28.407  49.726  0.00  0.00    +0.000 A 
ATOM      8  H   UNL     1      34.963  30.902  46.878  0.00  0.00    +0.000 HD
ATOM      9  H   UNL     1      33.187  27.614  48.848  0.00  0.00    +0.000 HD
ATOM     10  H   UNL     1      34.963  27.692  50.540  0.00  0.00    +0.000 HD
ENDROOT
BRANCH   5  11
ATOM     11  C   UNL     1      32.903  29.197  46.758  0.00  0.00    +0.000 A 
ATOM     12  C   UNL     1      32.258  28.047  46.369  0.00  0.00    +0.000 A 
ATOM     13  C   UNL     1      31.250  28.030  45.422  0.00  0.00    +0.000 A 
ATOM     14  N   UNL     1      30.869  29.185  44.841  0.00  0.00    +0.000 NA
ATOM     15  C   UNL     1      31.495  30.305  45.218  0.00  0.00    +0.000 A 
ATOM     16  N   UNL     1      32.462  30.306  46.130  0.00  0.00    +0.000 NA
ATOM     17  H   UNL     1      32.564  27.107  46.836  0.00  0.00    +0.000 HD
ATOM     18  H   UNL     1      30.792  27.070  45.172  0.00  0.00    +0.000 HD
ATOM     19  N   UNL     1      31.106  31.531  44.618  0.00  0.00    +0.000 N 
ATOM     20  C   UNL     1      29.762  31.790  44.143  0.00  0.00    +0.000 C 
ATOM     21  H   UNL     1      29.284  32.529  44.841  0.00  0.00    +0.000 HD
ATOM     22  C   UNL     1      29.797  32.355  42.718  0.00  0.00    +0.000 C 
ATOM     23  H   UNL     1      29.959  31.521  42.019  0.00  0.00    +0.000 HD
ATOM     24  O   UNL     1      30.747  33.344  42.581  0.00  0.00    +0.000 OA
ATOM     25  C   UNL     1      32.011  32.923  42.928  0.00  0.00    +0.000 C 
ATOM     26  C   UNL     1      32.024  32.638  44.427  0.00  0.00    +0.000 C 
ENDBRANCH   5  11
BRANCH   3  31
ATOM     27  C   UNL     1      37.986  33.200  49.464  0.00  0.00    +0.000 A 
ATOM     28  C   UNL     1      39.026  33.170  48.471  0.00  0.00    +0.000 A 
ATOM     29  C   UNL     1      39.008  32.143  47.550  0.00  0.00    +0.000 A 
ATOM     30  N   UNL     1      38.013  31.202  47.616  0.00  0.00    +0.000 NA
ATOM     31  C   UNL     1      37.043  31.253  48.563  0.00  0.00    +0.000 A 
ATOM     32  N   UNL     1      37.046  32.256  49.476  0.00  0.00    +0.000 NA
ATOM     33  H   UNL     1      37.955  33.983  50.208  0.00  0.00    +0.000 HD
ATOM     34  H   UNL     1      39.778  33.948  48.482  0.00  0.00    +0.000 HD
ATOM     35  H   UNL     1      39.775  32.085  46.785  0.00  0.00    +0.000 HD
ENDBRANCH   3  31
TORSDOF 2
