
 OpenBabel03272506573D

 27 29  0  0  0  0  0  0  0  0999 V2000
   38.0210   31.2510   46.3500 C   0  0  0  0  0  0  0  0  0  0  0  0
   39.3490   31.0930   46.6550 C   0  0  0  0  0  0  0  0  0  0  0  0
   40.4090   31.3340   45.8040 C   0  0  0  0  0  0  0  0  0  0  0  0
   40.0820   31.7640   44.5600 N   0  0  0  0  0  0  0  0  0  0  0  0
   38.7780   31.9290   44.2280 C   0  0  0  0  0  0  0  0  0  0  0  0
   37.7740   31.6810   45.0950 N   0  0  0  0  0  0  0  0  0  0  0  0
   39.6270   30.7510   47.6430 H   0  0  0  0  0  0  0  0  0  0  0  0
   41.4280   31.1900   46.1070 H   0  0  0  0  0  0  0  0  0  0  0  0
   38.4080   32.3780   42.9340 N   0  0  0  0  0  0  0  0  0  0  0  0
   37.3460   31.8020   42.1320 C   0  0  0  0  0  0  0  0  0  0  0  0
   36.5280   32.5140   41.9410 H   0  0  0  0  0  0  0  0  0  0  0  0
   38.0250   31.4840   40.7930 C   0  0  0  0  0  0  0  0  0  0  0  0
   37.3500   30.8600   40.1930 H   0  0  0  0  0  0  0  0  0  0  0  0
   38.5340   32.5940   40.1780 O   0  0  0  0  0  0  0  0  0  0  0  0
   38.5610   33.7480   40.9360 C   0  0  0  0  0  0  0  0  0  0  0  0
   39.1270   33.5030   42.3290 C   0  0  0  0  0  0  0  0  0  0  0  0
   34.8740   30.0790   47.7400 C   0  0  0  0  0  0  0  0  0  0  0  0
   34.9290   30.4040   49.0890 C   0  0  0  0  0  0  0  0  0  0  0  0
   36.0980   31.0490   49.5130 C   0  0  0  0  0  0  0  0  0  0  0  0
   37.0860   31.3160   48.6230 N   0  0  0  0  0  0  0  0  0  0  0  0
   36.9650   30.9700   47.3210 C   0  0  0  0  0  0  0  0  0  0  0  0
   35.8560   30.3410   46.8390 N   0  0  0  0  0  0  0  0  0  0  0  0
   34.0020   29.5780   47.3320 H   0  0  0  0  0  0  0  0  0  0  0  0
   36.1830   31.3210   50.5560 H   0  0  0  0  0  0  0  0  0  0  0  0
   33.8510   30.0910   49.9590 N   0  0  0  0  0  0  0  0  0  0  0  0
   33.6010   30.9410   50.5270 H   0  0  0  0  0  0  0  0  0  0  0  0
   33.3660   29.1760   50.0440 H   0  0  0  0  0  0  0  0  0  0  0  0
  1  2  1  0  0  0  0
  1 21  1  0  0  0  0
  2  7  1  0  0  0  0
  3  8  1  0  0  0  0
  3  2  2  0  0  0  0
  4  3  1  0  0  0  0
  5  4  2  0  0  0  0
  5  6  1  0  0  0  0
  6  1  2  0  0  0  0
  9  5  1  0  0  0  0
 10  9  1  0  0  0  0
 11 10  1  0  0  0  0
 12 10  1  0  0  0  0
 13 12  1  0  0  0  0
 14 12  1  0  0  0  0
 14 15  1  0  0  0  0
 15 16  1  0  0  0  0
 16  9  1  0  0  0  0
 17 18  1  0  0  0  0
 18 19  2  0  0  0  0
 18 25  1  0  0  0  0
 19 24  1  0  0  0  0
 20 19  1  0  0  0  0
 21 20  2  0  0  0  0
 22 21  1  0  0  0  0
 22 17  2  0  0  0  0
 23 17  1  0  0  0  0
 25 27  1  0  0  0  0
 25 26  1  0  0  0  0
M  END
>  <minimizedAffinity>
-5.11625433

>  <minimizedRMSD>
1.51768565

$$$$
