
 OpenBabel03272510003D

 20 21  0  0  0  0  0  0  0  0999 V2000
   38.2600   31.4040   50.2330 C   0  0  0  0  0  0  0  0  0  0  0  0
   38.5350   31.4390   48.8590 C   0  0  0  0  0  0  0  0  0  0  0  0
   37.6770   30.7710   47.9970 C   0  0  0  0  0  0  0  0  0  0  0  0
   36.6100   30.1120   48.5380 N   0  0  0  0  0  0  0  0  0  0  0  0
   36.3670   30.0920   49.8620 C   0  0  0  0  0  0  0  0  0  0  0  0
   37.1910   30.7340   50.6910 N   0  0  0  0  0  0  0  0  0  0  0  0
   38.9640   31.9440   50.8510 H   0  0  0  0  0  0  0  0  0  0  0  0
   39.3750   31.9580   48.4320 H   0  0  0  0  0  0  0  0  0  0  0  0
   37.8290   30.7200   46.5860 N   0  0  0  0  0  0  0  0  0  0  0  0
   36.6940   30.5810   45.6700 C   0  0  0  0  0  3  0  0  0  0  0  0
   36.4700   29.5250   45.5090 H   0  0  0  0  0  0  0  0  0  0  0  0
   37.1440   31.2600   44.3850 C   0  0  0  0  0  3  0  0  0  0  0  0
   36.3240   31.3740   43.6470 H   0  0  0  0  0  0  0  0  0  0  0  0
   38.1160   30.4770   43.7880 O   0  0  0  0  0  0  0  0  0  0  0  0
   39.0920   30.0430   44.6590 C   0  0  0  0  0  2  0  0  0  0  0  0
   39.1170   30.8030   45.9600 C   0  0  0  0  0  2  0  0  0  0  0  0
   35.1820   29.3490   50.3550 C   0  0  0  0  0  0  0  0  0  0  0  0
   35.2340   29.0820   51.7110 F   0  0  0  0  0  0  0  0  0  0  0  0
   34.0130   30.0580   50.1210 F   0  0  0  0  0  0  0  0  0  0  0  0
   35.0100   28.1350   49.7200 F   0  0  0  0  0  0  0  0  0  0  0  0
  1  6  1  0  0  0  0
  1  7  1  0  0  0  0
  2  1  2  0  0  0  0
  3  4  2  0  0  0  0
  3  2  1  0  0  0  0
  4  5  1  0  0  0  0
  5 17  1  0  0  0  0
  5  6  2  0  0  0  0
  8  2  1  0  0  0  0
  9  3  1  0  0  0  0
 10  9  1  0  0  0  0
 11 10  1  0  0  0  0
 12 10  1  0  0  0  0
 13 12  1  0  0  0  0
 14 12  1  0  0  0  0
 14 15  1  0  0  0  0
 15 16  1  0  0  0  0
 16  9  1  0  0  0  0
 17 18  1  0  0  0  0
 19 17  1  0  0  0  0
 20 17  1  0  0  0  0
M  END
>  <minimizedAffinity>
-5.14349127

>  <minimizedRMSD>
1.02954781

$$$$
