
 OpenBabel03272510003D

 20 21  0  0  0  0  0  0  0  0999 V2000
   38.3650   31.5430   50.0630 C   0  0  0  0  0  0  0  0  0  0  0  0
   38.5160   31.7470   48.6850 C   0  0  0  0  0  0  0  0  0  0  0  0
   37.5740   31.1930   47.8280 C   0  0  0  0  0  0  0  0  0  0  0  0
   36.5510   30.4770   48.3790 N   0  0  0  0  0  0  0  0  0  0  0  0
   36.4280   30.2940   49.7070 C   0  0  0  0  0  0  0  0  0  0  0  0
   37.3320   30.8260   50.5310 N   0  0  0  0  0  0  0  0  0  0  0  0
   39.1290   32.0000   50.6770 H   0  0  0  0  0  0  0  0  0  0  0  0
   39.3230   32.3110   48.2510 H   0  0  0  0  0  0  0  0  0  0  0  0
   37.5990   31.3170   46.4140 N   0  0  0  0  0  0  0  0  0  0  0  0
   36.7980   30.4670   45.5300 C   0  0  0  0  0  3  0  0  0  0  0  0
   37.3480   29.5570   45.2860 H   0  0  0  0  0  0  0  0  0  0  0  0
   36.5460   31.3180   44.2930 C   0  0  0  0  0  3  0  0  0  0  0  0
   35.8140   30.8630   43.5960 H   0  0  0  0  0  0  0  0  0  0  0  0
   37.7360   31.4480   43.5970 O   0  0  0  0  0  0  0  0  0  0  0  0
   38.8120   31.7780   44.3930 C   0  0  0  0  0  2  0  0  0  0  0  0
   38.4180   32.2910   45.7530 C   0  0  0  0  0  2  0  0  0  0  0  0
   35.2810   29.5000   50.2110 C   0  0  0  0  0  0  0  0  0  0  0  0
   35.3940   29.1700   51.5500 F   0  0  0  0  0  0  0  0  0  0  0  0
   34.0870   30.1910   50.0590 F   0  0  0  0  0  0  0  0  0  0  0  0
   35.1090   28.3140   49.5260 F   0  0  0  0  0  0  0  0  0  0  0  0
  1  6  1  0  0  0  0
  1  7  1  0  0  0  0
  2  1  2  0  0  0  0
  3  4  2  0  0  0  0
  3  2  1  0  0  0  0
  4  5  1  0  0  0  0
  5 17  1  0  0  0  0
  5  6  2  0  0  0  0
  8  2  1  0  0  0  0
  9  3  1  0  0  0  0
 10  9  1  0  0  0  0
 11 10  1  0  0  0  0
 12 10  1  0  0  0  0
 13 12  1  0  0  0  0
 14 12  1  0  0  0  0
 14 15  1  0  0  0  0
 15 16  1  0  0  0  0
 16  9  1  0  0  0  0
 17 18  1  0  0  0  0
 19 17  1  0  0  0  0
 20 17  1  0  0  0  0
M  END
>  <minimizedAffinity>
-4.96901226

>  <minimizedRMSD>
0.589128554

$$$$
