
 OpenBabel03272509183D

 32 34  0  0  1  0  0  0  0  0999 V2000
   35.7390   30.3430   46.1870 C   0  0  0  0  0  0  0  0  0  0  0  0
   35.4090   29.7600   47.4150 C   0  0  0  0  0  0  0  0  0  0  0  0
   36.4040   29.8380   48.3920 C   0  0  0  0  0  0  0  0  0  0  0  0
   37.6280   30.4640   48.1140 C   0  0  0  0  0  0  0  0  0  0  0  0
   37.8620   31.0140   46.8620 C   0  0  0  0  0  0  0  0  0  0  0  0
   36.9020   30.9540   45.8810 C   0  0  0  0  0  0  0  0  0  0  0  0
   36.1460   29.3860   49.3400 H   0  0  0  0  0  0  0  0  0  0  0  0
   38.2880   30.4460   48.9550 H   0  0  0  0  0  0  0  0  0  0  0  0
   38.8410   31.4390   46.8520 H   0  0  0  0  0  0  0  0  0  0  0  0
   33.1770   29.0530   46.6680 C   0  0  0  0  0  0  0  0  0  0  0  0
   34.1510   29.1240   47.6790 C   0  0  0  0  0  0  0  0  0  0  0  0
   33.8430   28.5620   48.9150 C   0  0  0  0  0  0  0  0  0  0  0  0
   32.6230   27.9760   49.0820 N   0  0  0  0  0  0  0  0  0  0  0  0
   31.7100   27.9310   48.0690 C   0  0  0  0  0  0  0  0  0  0  0  0
   31.9880   28.4630   46.8810 N   0  0  0  0  0  0  0  0  0  0  0  0
   33.3850   29.4800   45.6950 H   0  0  0  0  0  0  0  0  0  0  0  0
   30.7920   27.4280   48.3740 H   0  0  0  0  0  0  0  0  0  0  0  0
   34.8280   28.6090   50.0180 C   0  0  0  0  0  0  0  0  0  0  0  0
   35.8360   28.7590   49.6170 H   0  0  0  0  0  0  0  0  0  0  0  0
   34.5980   29.5060   50.6550 H   0  0  0  0  0  0  0  0  0  0  0  0
   34.8060   27.7050   50.6660 H   0  0  0  0  0  0  0  0  0  0  0  0
   34.7870   30.3010   45.1620 O   0  0  0  0  0  0  0  0  0  0  0  0
   34.9860   30.4000   44.1930 H   0  0  0  0  0  0  0  0  0  0  0  0
   37.1650   31.5100   44.6560 O   0  0  0  0  0  0  0  0  0  0  0  0
   38.6650   32.6720   46.0910 H   0  0  0  0  0  0  0  0  0  0  0  0
   38.7620   33.0670   45.1330 N   0  0  0  0  0  0  0  0  0  0  0  0
   38.3850   32.0080   44.2160 C   0  0  1  0  0  3  0  0  0  0  0  0
   39.3980   30.8860   44.2020 C   0  0  0  0  0  3  0  0  0  0  0  0
   39.2630   30.3270   43.2530 H   0  0  0  0  0  0  0  0  0  0  0  0
   40.7040   31.3170   44.2460 O   0  0  0  0  0  0  0  0  0  0  0  0
   40.9620   32.2060   45.2740 C   0  0  0  0  0  2  0  0  0  0  0  0
   40.1460   33.4570   44.9790 C   0  0  0  0  0  2  0  0  0  0  0  0
  1  2  1  0  0  0  0
  2 11  1  0  0  0  0
  2  3  2  0  0  0  0
  3  7  1  0  0  0  0
  4  3  1  0  0  0  0
  4  8  1  0  0  0  0
  5  4  2  0  0  0  0
  6  1  2  0  0  0  0
  6  5  1  0  0  0  0
  9  5  1  0  0  0  0
 10 15  2  0  0  0  0
 10 11  1  0  0  0  0
 11 12  2  0  0  0  0
 12 13  1  0  0  0  0
 12 18  1  0  0  0  0
 14 17  1  0  0  0  0
 14 13  2  0  0  0  0
 15 14  1  0  0  0  0
 16 10  1  0  0  0  0
 18 20  1  0  0  0  0
 18 21  1  0  0  0  0
 19 18  1  0  0  0  0
 22  1  1  0  0  0  0
 23 22  1  0  0  0  0
 24  6  1  0  0  0  0
 26 25  1  0  0  0  0
 27 24  1  1  0  0  0
 27 26  1  0  0  0  0
 28 27  1  0  0  0  0
 28 30  1  0  0  0  0
 29 28  1  0  0  0  0
 30 31  1  0  0  0  0
 32 26  1  0  0  0  0
 32 31  1  0  0  0  0
M  END
>  <minimizedAffinity>
-5.7675066

>  <minimizedRMSD>
2.99862456

$$$$
