
     RDKit          3D

 26 27  0  0  0  0  0  0  0  0999 V2000
   38.3102   31.2428   50.1234 C   0  0  0  0  0  0  0  0  0  0  0  0
   38.2957   31.6090   48.7700 C   0  0  0  0  0  0  0  0  0  0  0  0
   37.2123   31.2235   47.9933 C   0  0  0  0  0  0  0  0  0  0  0  0
   36.2174   30.5062   48.5930 N   0  0  0  0  0  0  0  0  0  0  0  0
   36.2535   30.1661   49.8947 C   0  0  0  0  0  0  0  0  0  0  0  0
   37.2948   30.5364   50.6425 N   0  0  0  0  0  0  0  0  0  0  0  0
   35.1246   29.3853   50.4556 C   0  0  0  0  0  0  0  0  0  0  0  0
   35.2688   29.1143   51.8049 F   0  0  0  0  0  0  0  0  0  0  0  0
   33.9218   30.0588   50.3005 F   0  0  0  0  0  0  0  0  0  0  0  0
   34.9500   28.1695   49.8260 F   0  0  0  0  0  0  0  0  0  0  0  0
   39.1804   31.5727   50.6740 H   0  0  0  0  0  0  0  0  0  0  0  0
   39.0796   32.1743   48.2972 H   0  0  0  0  0  0  0  0  0  0  0  0
   37.0625   31.5223   46.6128 N   0  0  0  0  0  0  0  0  0  0  0  0
   38.2040   31.6803   45.7075 C   0  0  1  0  0  0  0  0  0  0  0  0
   38.5473   32.7158   45.7165 H   0  0  0  0  0  0  0  0  0  0  0  0
   37.6744   31.2777   44.3383 C   0  0  1  0  0  0  0  0  0  0  0  0
   38.4731   31.1942   43.5741 H   0  0  0  0  0  0  0  0  0  0  0  0
   36.7977   32.2544   43.8989 O   0  0  0  0  0  0  0  0  0  0  0  0
   35.8806   32.6457   44.8507 C   0  0  0  0  0  0  0  0  0  0  0  0
   35.7726   31.6901   46.0105 C   0  0  0  0  0  0  0  0  0  0  0  0
   39.0057   30.9905   46.0474 H   0  0  0  0  0  0  0  0  0  0  0  0
   37.1342   30.3133   44.4969 H   0  0  0  0  0  0  0  0  0  0  0  0
   34.8922   32.7298   44.3521 H   0  0  0  0  0  0  0  0  0  0  0  0
   36.1214   33.6631   45.2383 H   0  0  0  0  0  0  0  0  0  0  0  0
   35.0934   32.2110   46.7478 H   0  0  0  0  0  0  0  0  0  0  0  0
   35.2646   30.7714   45.7042 H   0  0  0  0  0  0  0  0  0  0  0  0
  1  6  2  0
  2  1  1  0
  3  4  1  0
  3  2  2  0
  4  5  2  0
  5  7  1  0
  5  6  1  0
  7  8  1  0
  9  7  1  0
 10  7  1  0
  1 11  1  0
  2 12  1  0
 13 14  1  0
 14 15  1  6
 14 16  1  0
 16 17  1  6
 16 18  1  0
 18 19  1  0
 19 20  1  0
 20 13  1  0
 14 21  1  0
 16 22  1  0
 19 23  1  0
 19 24  1  0
 20 25  1  0
 20 26  1  0
  3 13  1  0
M  ISO  4  11  14  12  14  15   8  17  15
M  END
>  <DihAtoms>  (1) 
3,2,12,13

>  <DihDeg>  (1) 
0.006113507110377807

$$$$
