
     RDKit          3D

 38 40  0  0  0  0  0  0  0  0999 V2000
   38.0015   31.3948   47.6304 C   0  0  0  0  0  0  0  0  0  0  0  0
   37.0799   31.3327   48.6800 C   0  0  0  0  0  0  0  0  0  0  0  0
   37.1937   32.3515   49.6280 C   0  0  0  0  0  0  0  0  0  0  0  0
   38.1784   33.3435   49.4934 C   0  0  0  0  0  0  0  0  0  0  0  0
   39.0489   33.3194   48.4137 C   0  0  0  0  0  0  0  0  0  0  0  0
   38.9604   32.3297   47.4654 C   0  0  0  0  0  0  0  0  0  0  0  0
   34.9368   30.3518   47.9833 C   0  0  0  0  0  0  0  0  0  0  0  0
   36.0813   30.3112   48.7994 C   0  0  0  0  0  0  0  0  0  0  0  0
   36.1938   29.2582   49.7031 C   0  0  0  0  0  0  0  0  0  0  0  0
   35.1983   28.3274   49.7513 N   0  0  0  0  0  0  0  0  0  0  0  0
   34.1063   28.4100   48.9380 C   0  0  0  0  0  0  0  0  0  0  0  0
   33.9821   29.4098   48.0683 N   0  0  0  0  0  0  0  0  0  0  0  0
   37.3750   29.1627   50.5885 C   0  0  0  0  0  0  0  0  0  0  0  0
   37.9440   30.4036   46.6444 O   0  0  0  0  0  0  0  0  0  0  0  0
   39.8353   32.3377   46.4097 O   0  0  0  0  0  0  0  0  0  0  0  0
   36.4798   32.3012   50.4384 H   0  0  0  0  0  0  0  0  0  0  0  0
   38.1437   34.0527   50.2916 H   0  0  0  0  0  0  0  0  0  0  0  0
   39.7149   34.1499   48.4932 H   0  0  0  0  0  0  0  0  0  0  0  0
   34.8188   31.1583   47.2695 H   0  0  0  0  0  0  0  0  0  0  0  0
   33.4114   27.5868   49.1077 H   0  0  0  0  0  0  0  0  0  0  0  0
   38.2070   29.7382   50.1704 H   0  0  0  0  0  0  0  0  0  0  0  0
   37.1140   29.6419   51.5723 H   0  0  0  0  0  0  0  0  0  0  0  0
   37.6953   28.1156   50.7855 H   0  0  0  0  0  0  0  0  0  0  0  0
   38.6899   30.1611   46.0343 H   0  0  0  0  0  0  0  0  0  0  0  0
   41.7192   32.5732   47.8445 H   0  0  0  0  0  0  0  0  0  0  0  0
   41.4949   33.5090   47.4473 N   0  0  0  0  0  0  0  0  0  0  0  0
   40.8419   33.2660   46.1755 C   0  0  1  0  0  0  0  0  0  0  0  0
   41.7976   32.7050   45.1469 C   0  0  2  0  0  0  0  0  0  0  0  0
   41.3605   32.8985   44.1452 H   0  0  0  0  0  0  0  0  0  0  0  0
   43.0445   33.2872   45.1726 O   0  0  0  0  0  0  0  0  0  0  0  0
   43.6232   33.3069   46.4295 C   0  0  0  0  0  0  0  0  0  0  0  0
   42.7507   34.2095   47.2919 C   0  0  0  0  0  0  0  0  0  0  0  0
   40.4568   34.2253   45.8085 H   0  0  0  0  0  0  0  0  0  0  0  0
   41.8460   31.5901   45.2537 H   0  0  0  0  0  0  0  0  0  0  0  0
   44.6118   33.7624   46.3541 H   0  0  0  0  0  0  0  0  0  0  0  0
   43.6518   32.3170   46.9291 H   0  0  0  0  0  0  0  0  0  0  0  0
   42.5741   35.1932   46.7909 H   0  0  0  0  0  0  0  0  0  0  0  0
   43.1719   34.3384   48.3061 H   0  0  0  0  0  0  0  0  0  0  0  0
  1  2  2  0
  2  8  1  0
  2  3  1  0
  4  3  2  0
  5  4  1  0
  6  1  1  0
  6  5  2  0
  7 12  2  0
  7  8  1  0
  8  9  2  0
  9 10  1  0
  9 13  1  0
 11 10  2  0
 12 11  1  0
 14  1  1  0
 15  6  1  0
  3 16  1  0
  4 17  1  0
  5 18  1  0
  7 19  1  0
 11 20  1  0
 13 21  1  0
 13 22  1  0
 13 23  1  0
 14 24  1  0
 25 26  1  0
 26 27  1  0
 27 28  1  0
 28 29  1  6
 28 30  1  0
 30 31  1  0
 31 32  1  0
 32 26  1  0
 27 33  1  6
 28 34  1  0
 31 35  1  0
 31 36  1  0
 32 37  1  0
 32 38  1  0
 15 27  1  0
M  ISO  8  16  14  17  14  18  14  19  14  20  14  21   8  22   8  23   8
M  ISO  3  24   3  25   5  29  15
M  END
>  <DihAtoms>  (1) 
5,14,26,25

>  <DihDeg>  (1) 
118.20505061858508

$$$$
