
 OpenBabel03272502583D

 33 35  0  0  1  0  0  0  0  0999 V2000
   35.7790   29.5460   48.7900 N   0  0  0  0  0  0  0  0  0  0  0  0
   36.5110   28.8060   49.7970 C   0  0  0  0  0  0  0  0  0  0  0  0
   37.0350   29.5730   50.9430 C   0  0  0  0  0  0  0  0  0  0  0  0
   37.3130   31.0090   50.7640 C   0  0  0  0  0  0  0  0  0  0  0  0
   36.5650   31.6590   49.6190 C   0  0  0  0  0  0  0  0  0  0  0  0
   36.5490   30.7090   48.4340 C   0  0  1  0  0  0  0  0  0  0  0  0
   37.3430   28.2920   49.2730 H   0  0  0  0  0  0  0  0  0  0  0  0
   35.8320   27.9850   50.1410 H   0  0  0  0  0  0  0  0  0  0  0  0
   37.9600   29.0730   51.3140 H   0  0  0  0  0  0  0  0  0  0  0  0
   36.3100   29.4360   51.8000 H   0  0  0  0  0  0  0  0  0  0  0  0
   38.3980   31.2600   50.6270 H   0  0  0  0  0  0  0  0  0  0  0  0
   36.9970   31.5810   51.6770 H   0  0  0  0  0  0  0  0  0  0  0  0
   35.5130   31.8250   49.8980 H   0  0  0  0  0  0  0  0  0  0  0  0
   37.1010   32.5870   49.3320 H   0  0  0  0  0  0  0  0  0  0  0  0
   36.1490   31.2660   47.5680 H   0  0  0  0  0  0  0  0  0  0  0  0
   34.5060   29.1620   48.2570 C   0  0  0  0  0  0  0  0  0  0  0  0
   33.9760   29.6640   47.0710 C   0  0  0  0  0  0  0  0  0  0  0  0
   32.7290   29.2080   46.6650 C   0  0  0  0  0  0  0  0  0  0  0  0
   32.0950   28.2910   47.4570 N   0  0  0  0  0  0  0  0  0  0  0  0
   32.6370   27.8340   48.5900 C   0  0  0  0  0  0  0  0  0  0  0  0
   33.8430   28.2710   48.9880 N   0  0  0  0  0  0  0  0  0  0  0  0
   34.5630   30.3860   46.5220 H   0  0  0  0  0  0  0  0  0  0  0  0
   32.3570   29.6190   45.7460 H   0  0  0  0  0  0  0  0  0  0  0  0
   32.0680   27.1080   49.1590 H   0  0  0  0  0  0  0  0  0  0  0  0
   37.8970   30.3690   48.2050 O   0  0  0  0  0  0  0  0  0  0  0  0
   36.9120   32.2050   46.7050 H   0  0  0  0  0  0  0  0  0  0  0  0
   37.0730   31.2680   46.2340 N   0  0  0  0  0  0  0  0  0  0  0  0
   38.2370   30.6950   46.8830 C   0  0  1  0  0  0  0  0  0  0  0  0
   39.3880   31.6430   46.7830 C   0  0  0  0  0  0  0  0  0  0  0  0
   39.7320   32.0230   47.7660 H   0  0  0  0  0  0  0  0  0  0  0  0
   39.0250   32.7970   46.0530 O   0  0  0  0  0  0  0  0  0  0  0  0
   38.6630   32.4060   44.7700 C   0  0  0  0  0  0  0  0  0  0  0  0
   37.4360   31.5320   44.8340 C   0  0  0  0  0  0  0  0  0  0  0  0
  1  2  1  0  0  0  0
  2  8  1  0  0  0  0
  2  3  1  0  0  0  0
  3  9  1  0  0  0  0
  3 10  1  0  0  0  0
  4  3  1  0  0  0  0
  4 12  1  0  0  0  0
  5 13  1  0  0  0  0
  5  4  1  0  0  0  0
  6 15  1  6  0  0  0
  6  1  1  0  0  0  0
  6  5  1  0  0  0  0
  7  2  1  0  0  0  0
 11  4  1  0  0  0  0
 14  5  1  0  0  0  0
 16  1  1  0  0  0  0
 16 21  1  0  0  0  0
 17 16  2  0  0  0  0
 18 17  1  0  0  0  0
 18 19  2  0  0  0  0
 19 20  1  0  0  0  0
 20 21  2  0  0  0  0
 20 24  1  0  0  0  0
 22 17  1  0  0  0  0
 23 18  1  0  0  0  0
 25  6  1  0  0  0  0
 27 26  1  0  0  0  0
 27 28  1  0  0  0  0
 28 25  1  1  0  0  0
 29 28  1  0  0  0  0
 29 30  1  0  0  0  0
 31 29  1  0  0  0  0
 32 33  1  0  0  0  0
 32 31  1  0  0  0  0
 33 27  1  0  0  0  0
M  END
>  <minimizedAffinity>
-5.61304617

>  <minimizedRMSD>
0.493202686

$$$$
