
 OpenBabel03262523373D

 44 47  0  0  1  0  0  0  0  0999 V2000
   35.3410   30.3260   49.9110 C   0  0  2  0  0  0  0  0  0  0  0  0
   36.2640   31.2530   49.1960 C   0  0  0  0  0  0  0  0  0  0  0  0
   37.7110   30.7520   49.1910 C   0  0  2  0  0  0  0  0  0  0  0  0
   38.1950   30.7170   50.6200 C   0  0  0  0  0  0  0  0  0  0  0  0
   37.2270   29.9860   51.5320 C   0  0  0  0  0  0  0  0  0  0  0  0
   36.1130   29.3300   50.7520 C   0  0  0  0  0  0  0  0  0  0  0  0
   34.6510   30.8370   50.6420 H   0  0  0  0  0  0  0  0  0  0  0  0
   35.9790   31.7230   48.2900 H   0  0  0  0  0  0  0  0  0  0  0  0
   36.3560   32.1390   49.9320 H   0  0  0  0  0  0  0  0  0  0  0  0
   37.6420   29.7010   48.8470 H   0  0  0  0  0  0  0  0  0  0  0  0
   39.2230   30.3720   50.7110 H   0  0  0  0  0  0  0  0  0  0  0  0
   38.2020   31.7870   50.9630 H   0  0  0  0  0  0  0  0  0  0  0  0
   37.7580   29.1930   52.0800 H   0  0  0  0  0  0  0  0  0  0  0  0
   36.7780   30.6600   52.3040 H   0  0  0  0  0  0  0  0  0  0  0  0
   35.4480   28.8360   51.4800 H   0  0  0  0  0  0  0  0  0  0  0  0
   36.5740   28.5280   50.1400 H   0  0  0  0  0  0  0  0  0  0  0  0
   38.5670   31.4910   48.2560 C   0  0  2  0  0  0  0  0  0  0  0  0
   38.8960   32.9090   48.6310 C   0  0  0  0  0  0  0  0  0  0  0  0
   39.5450   33.3400   47.3050 C   0  0  0  0  0  0  0  0  0  0  0  0
   38.7850   32.7500   46.3230 O   0  0  0  0  0  0  0  0  0  0  0  0
   38.0640   31.6930   46.8760 C   0  0  1  0  0  0  0  0  0  0  0  0
   39.5330   30.9570   48.1750 H   0  0  0  0  0  0  0  0  0  0  0  0
   39.6790   32.9690   49.4100 H   0  0  0  0  0  0  0  0  0  0  0  0
   38.0210   33.5340   48.8570 H   0  0  0  0  0  0  0  0  0  0  0  0
   39.4990   34.4480   47.3090 H   0  0  0  0  0  0  0  0  0  0  0  0
   40.5990   32.9880   47.2970 H   0  0  0  0  0  0  0  0  0  0  0  0
   37.0070   32.0440   46.8040 H   0  0  0  0  0  0  0  0  0  0  0  0
   38.1580   30.5760   46.0050 N   0  0  2  0  0  0  0  0  0  0  0  0
   39.3110   30.4570   45.1850 C   0  0  0  0  0  0  0  0  0  0  0  0
   40.1960   30.0220   45.7110 H   0  0  0  0  0  0  0  0  0  0  0  0
   38.9720   29.3910   44.1320 C   0  0  0  0  0  0  0  0  0  0  0  0
   39.8540   28.8760   43.7460 H   0  0  0  0  0  0  0  0  0  0  0  0
   38.1870   29.9600   43.1320 O   0  0  0  0  0  0  0  0  0  0  0  0
   37.3500   30.9100   43.7110 C   0  0  0  0  0  0  0  0  0  0  0  0
   36.9970   30.5550   45.1380 C   0  0  0  0  0  0  0  0  0  0  0  0
   34.4700   29.5560   49.0010 C   0  0  0  0  0  0  0  0  0  0  0  0
   34.3450   30.0680   47.7090 C   0  0  0  0  0  0  0  0  0  0  0  0
   33.5640   29.3850   46.8050 C   0  0  0  0  0  0  0  0  0  0  0  0
   32.9330   28.2230   47.2060 N   0  0  0  0  0  0  0  0  0  0  0  0
   33.0790   27.7560   48.4750 C   0  0  0  0  0  0  0  0  0  0  0  0
   33.8370   28.4250   49.3400 N   0  0  0  0  0  0  0  0  0  0  0  0
   34.7100   30.9160   47.1540 H   0  0  0  0  0  0  0  0  0  0  0  0
   33.3090   29.5570   45.7780 H   0  0  0  0  0  0  0  0  0  0  0  0
   32.5920   26.8490   48.8030 H   0  0  0  0  0  0  0  0  0  0  0  0
  1  7  1  1  0  0  0
  1  6  1  0  0  0  0
  2  1  1  0  0  0  0
  2  9  1  0  0  0  0
  3 10  1  6  0  0  0
  3  2  1  0  0  0  0
  3  4  1  0  0  0  0
  4 11  1  0  0  0  0
  4 12  1  0  0  0  0
  4  5  1  0  0  0  0
  5 13  1  0  0  0  0
  5 14  1  0  0  0  0
  6 15  1  0  0  0  0
  6  5  1  0  0  0  0
  8  2  1  0  0  0  0
 16  6  1  0  0  0  0
 17 22  1  6  0  0  0
 17 18  1  0  0  0  0
 17  3  1  0  0  0  0
 18 24  1  0  0  0  0
 18 23  1  0  0  0  0
 19 25  1  0  0  0  0
 19 18  1  0  0  0  0
 20 21  1  0  0  0  0
 20 19  1  0  0  0  0
 21 27  1  1  0  0  0
 21 17  1  0  0  0  0
 26 19  1  0  0  0  0
 28 35  1  6  0  0  0
 28 21  1  0  0  0  0
 29 30  1  0  0  0  0
 29 28  1  0  0  0  0
 31 29  1  0  0  0  0
 32 31  1  0  0  0  0
 33 34  1  0  0  0  0
 33 31  1  0  0  0  0
 34 35  1  0  0  0  0
 36 41  1  0  0  0  0
 36  1  1  0  0  0  0
 37 36  2  0  0  0  0
 38 39  2  0  0  0  0
 38 37  1  0  0  0  0
 39 40  1  0  0  0  0
 40 44  1  0  0  0  0
 40 41  2  0  0  0  0
 42 37  1  0  0  0  0
 43 38  1  0  0  0  0
M  END
>  <minimizedAffinity>
-6.91495085

>  <minimizedRMSD>
1.10906303

$$$$
