
 OpenBabel03272510293D

 27 29  0  0  0  0  0  0  0  0999 V2000
   37.5780   31.2500   48.7190 C   0  0  0  0  0  0  0  0  0  0  0  0
   37.8340   32.5920   49.0370 C   0  0  0  0  0  0  0  0  0  0  0  0
   38.7610   33.2500   48.2410 C   0  0  0  0  0  0  0  0  0  0  0  0
   39.3580   32.5750   47.2210 N   0  0  0  0  0  0  0  0  0  0  0  0
   39.0780   31.2760   46.9510 C   0  0  0  0  0  0  0  0  0  0  0  0
   38.1650   30.5920   47.7170 N   0  0  0  0  0  0  0  0  0  0  0  0
   37.3720   33.1250   49.8310 H   0  0  0  0  0  0  0  0  0  0  0  0
   39.0620   34.2790   48.3620 H   0  0  0  0  0  0  0  0  0  0  0  0
   36.5540   30.5290   49.5360 C   0  0  0  0  0  0  0  0  0  0  0  0
   36.5050   29.0950   49.6590 C   0  0  0  0  0  0  0  0  0  0  0  0
   37.1350   29.8710   50.7940 C   0  0  0  0  0  0  0  0  0  0  0  0
   35.6340   31.1340   49.6910 H   0  0  0  0  0  0  0  0  0  0  0  0
   37.2600   28.4720   49.1000 H   0  0  0  0  0  0  0  0  0  0  0  0
   35.5510   28.5780   49.8060 H   0  0  0  0  0  0  0  0  0  0  0  0
   36.5800   30.1250   51.7020 H   0  0  0  0  0  0  0  0  0  0  0  0
   38.2350   29.8670   50.9130 H   0  0  0  0  0  0  0  0  0  0  0  0
   39.6950   30.5610   45.8430 C   0  0  0  0  0  0  0  0  0  0  0  0
   40.7120   30.9540   45.5700 H   0  0  0  0  0  0  0  0  0  0  0  0
   39.7920   29.4950   46.0840 H   0  0  0  0  0  0  0  0  0  0  0  0
   38.8480   30.7940   44.6810 N   0  0  0  0  0  0  0  0  0  0  0  0
   37.4640   30.5790   44.9430 C   0  0  0  0  0  3  0  0  0  0  0  0
   37.2440   29.5050   44.7410 H   0  0  0  0  0  0  0  0  0  0  0  0
   36.5380   31.3760   44.0710 C   0  0  0  0  0  3  0  0  0  0  0  0
   35.5450   31.4150   44.5650 H   0  0  0  0  0  0  0  0  0  0  0  0
   36.9520   32.6890   43.8610 O   0  0  0  0  0  0  0  0  0  0  0  0
   38.1670   32.6070   43.1680 C   0  0  0  0  0  2  0  0  0  0  0  0
   39.1870   32.0720   44.1410 C   0  0  0  0  0  2  0  0  0  0  0  0
  1  2  1  0  0  0  0
  1  9  1  0  0  0  0
  2  7  1  0  0  0  0
  3  8  1  0  0  0  0
  3  2  2  0  0  0  0
  4  3  1  0  0  0  0
  5  4  2  0  0  0  0
  5  6  1  0  0  0  0
  6  1  2  0  0  0  0
  9 10  1  0  0  0  0
  9 12  1  0  0  0  0
  9 11  1  0  0  0  0
 10 14  1  0  0  0  0
 10 11  1  0  0  0  0
 11 16  1  0  0  0  0
 11 15  1  0  0  0  0
 13 10  1  0  0  0  0
 17 19  1  0  0  0  0
 17  5  1  0  0  0  0
 18 17  1  0  0  0  0
 20 21  1  0  0  0  0
 20 17  1  0  0  0  0
 22 21  1  0  0  0  0
 23 24  1  0  0  0  0
 23 21  1  0  0  0  0
 25 23  1  0  0  0  0
 26 25  1  0  0  0  0
 26 27  1  0  0  0  0
 27 20  1  0  0  0  0
M  END
>  <minimizedAffinity>
-4.53047228

>  <minimizedRMSD>
0.870477259

$$$$
