
 OpenBabel03262522123D

 32 34  0  0  0  0  0  0  0  0999 V2000
   37.6890   31.7210   47.6950 C   0  0  0  0  0  0  0  0  0  0  0  0
   37.8950   32.4620   48.8760 C   0  0  0  0  0  0  0  0  0  0  0  0
   38.8960   33.3970   48.9440 C   0  0  0  0  0  0  0  0  0  0  0  0
   39.6670   33.5680   47.8240 C   0  0  0  0  0  0  0  0  0  0  0  0
   39.4570   32.8470   46.6920 C   0  0  0  0  0  0  0  0  0  0  0  0
   38.4740   31.9220   46.6090 N   0  0  0  0  0  0  0  0  0  0  0  0
   37.2830   32.3220   49.7560 H   0  0  0  0  0  0  0  0  0  0  0  0
   39.0680   33.9730   49.8450 H   0  0  0  0  0  0  0  0  0  0  0  0
   40.4810   34.2820   47.7830 H   0  0  0  0  0  0  0  0  0  0  0  0
   36.6200   30.7570   47.6950 C   0  0  0  0  0  0  0  0  0  0  0  0
   36.1400   30.3530   46.6350 O   0  0  0  0  0  0  0  0  0  0  0  0
   36.9290   29.6010   49.8490 C   0  0  0  0  0  0  0  0  0  0  0  0
   36.0570   30.2140   48.9260 C   0  0  0  0  0  0  0  0  0  0  0  0
   34.6940   30.2740   49.2320 C   0  0  0  0  0  0  0  0  0  0  0  0
   34.2470   29.7410   50.4080 N   0  0  0  0  0  0  0  0  0  0  0  0
   35.1300   29.1540   51.2750 C   0  0  0  0  0  0  0  0  0  0  0  0
   36.4330   29.0870   50.9990 N   0  0  0  0  0  0  0  0  0  0  0  0
   37.9750   29.5670   49.5910 H   0  0  0  0  0  0  0  0  0  0  0  0
   34.0200   30.7490   48.5190 H   0  0  0  0  0  0  0  0  0  0  0  0
   34.7450   28.7380   52.2040 H   0  0  0  0  0  0  0  0  0  0  0  0
   40.4730   33.0670   45.2060 S   0  0  0  0  0  0  0  0  0  0  0  0
   40.5200   31.4420   44.3990 C   0  0  0  0  0  0  0  0  0  0  0  0
   41.5610   31.2590   44.0440 H   0  0  0  0  0  0  0  0  0  0  0  0
   40.2780   30.6130   45.0900 H   0  0  0  0  0  0  0  0  0  0  0  0
   39.6020   31.3580   43.2780 N   0  0  0  0  0  0  0  0  0  0  0  0
   40.2830   30.8730   42.1280 C   0  0  0  0  0  0  0  0  0  0  0  0
   40.1770   29.7460   42.1360 H   0  0  0  0  0  0  0  0  0  0  0  0
   39.7700   31.3240   40.8080 C   0  0  0  0  0  0  0  0  0  0  0  0
   40.6320   31.8160   40.2670 H   0  0  0  0  0  0  0  0  0  0  0  0
   38.7530   32.2400   40.8190 O   0  0  0  0  0  0  0  0  0  0  0  0
   39.0640   33.1980   41.7860 C   0  0  0  0  0  0  0  0  0  0  0  0
   38.8030   32.5240   43.1180 C   0  0  0  0  0  0  0  0  0  0  0  0
  1  2  1  0  0  0  0
  2  3  2  0  0  0  0
  2  7  1  0  0  0  0
  3  8  1  0  0  0  0
  4  3  1  0  0  0  0
  5  4  2  0  0  0  0
  6  5  1  0  0  0  0
  6  1  2  0  0  0  0
  9  4  1  0  0  0  0
 10  1  1  0  0  0  0
 10 13  1  0  0  0  0
 11 10  2  0  0  0  0
 12 17  1  0  0  0  0
 13 14  1  0  0  0  0
 13 12  2  0  0  0  0
 14 15  2  0  0  0  0
 15 16  1  0  0  0  0
 16 20  1  0  0  0  0
 17 16  2  0  0  0  0
 18 12  1  0  0  0  0
 19 14  1  0  0  0  0
 21  5  1  0  0  0  0
 22 24  1  0  0  0  0
 22 21  1  0  0  0  0
 23 22  1  0  0  0  0
 25 22  1  0  0  0  0
 26 27  1  0  0  0  0
 26 25  1  0  0  0  0
 28 30  1  0  0  0  0
 28 26  1  0  0  0  0
 29 28  1  0  0  0  0
 30 31  1  0  0  0  0
 31 32  1  0  0  0  0
 32 25  1  0  0  0  0
M  END
>  <minimizedAffinity>
-5.3009963

>  <minimizedRMSD>
2.21100307

$$$$
