REMARK  Name = 
REMARK  3 active torsions:
REMARK  status: ('A' for Active; 'I' for Inactive)
REMARK    1  A    between atoms: C_1  and  C_7
REMARK    2  A    between atoms: C_5  and  C_10
REMARK    3  A    between atoms: C_10  and  N_20
REMARK                            x       y       z     vdW  Elec       q    Type
REMARK                         _______ _______ _______ _____ _____    ______ ____
ROOT
ATOM      1  C   UNL     1      37.367  31.353  49.204  0.00  0.00    +0.000 A 
ATOM      2  C   UNL     1      37.710  32.656  49.593  0.00  0.00    +0.000 A 
ATOM      3  C   UNL     1      38.592  33.337  48.766  0.00  0.00    +0.000 A 
ATOM      4  N   UNL     1      39.065  32.720  47.649  0.00  0.00    +0.000 NA
ATOM      5  C   UNL     1      38.705  31.457  47.312  0.00  0.00    +0.000 A 
ATOM      6  N   UNL     1      37.834  30.751  48.107  0.00  0.00    +0.000 NA
ATOM      7  H   UNL     1      37.344  33.144  50.463  0.00  0.00    +0.000 HD
ATOM      8  H   UNL     1      38.948  34.342  48.933  0.00  0.00    +0.000 HD
ENDROOT
BRANCH   1   9
ATOM      9  C   UNL     1      36.388  30.611  50.056  0.00  0.00    +0.000 C 
ATOM     10  C   UNL     1      36.263  29.176  50.053  0.00  0.00    +0.000 C 
ATOM     11  C   UNL     1      37.052  29.805  51.180  0.00  0.00    +0.000 C 
ATOM     12  H   UNL     1      35.528  31.246  50.363  0.00  0.00    +0.000 HD
ATOM     13  H   UNL     1      36.917  28.572  49.362  0.00  0.00    +0.000 HD
ATOM     14  H   UNL     1      35.298  28.698  50.253  0.00  0.00    +0.000 HD
ATOM     15  H   UNL     1      36.608  29.998  52.161  0.00  0.00    +0.000 HD
ATOM     16  H   UNL     1      38.156  29.731  51.180  0.00  0.00    +0.000 HD
ENDBRANCH   1   9
BRANCH   5  17
ATOM     17  C   UNL     1      39.189  30.806  46.104  0.00  0.00    +0.000 C 
ATOM     18  H   UNL     1      40.180  31.201  45.751  0.00  0.00    +0.000 HD
ATOM     19  H   UNL     1      39.288  29.725  46.266  0.00  0.00    +0.000 HD
BRANCH  17  20
ATOM     20  N   UNL     1      38.231  31.124  45.053  0.00  0.00    +0.000 NA
ATOM     21  C   UNL     1      36.875  30.979  45.467  0.00  0.00    +0.000 C 
ATOM     22  H   UNL     1      36.570  29.926  45.262  0.00  0.00    +0.000 HD
ATOM     23  C   UNL     1      35.907  31.856  44.728  0.00  0.00    +0.000 C 
ATOM     24  H   UNL     1      34.980  31.934  45.334  0.00  0.00    +0.000 HD
ATOM     25  O   UNL     1      36.372  33.149  44.507  0.00  0.00    +0.000 OA
ATOM     26  C   UNL     1      37.493  33.022  43.677  0.00  0.00    +0.000 C 
ATOM     27  C   UNL     1      38.583  32.398  44.513  0.00  0.00    +0.000 C 
ENDBRANCH  17  20
ENDBRANCH   5  17
TORSDOF 3
