
 OpenBabel03272510293D

 27 29  0  0  0  0  0  0  0  0999 V2000
   37.2350   31.3090   49.3040 C   0  0  0  0  0  0  0  0  0  0  0  0
   37.4350   32.5830   49.8530 C   0  0  0  0  0  0  0  0  0  0  0  0
   38.3250   33.4130   49.1850 C   0  0  0  0  0  0  0  0  0  0  0  0
   38.9390   32.9570   48.0590 N   0  0  0  0  0  0  0  0  0  0  0  0
   38.7140   31.7160   47.5630 C   0  0  0  0  0  0  0  0  0  0  0  0
   37.8400   30.8660   48.1990 N   0  0  0  0  0  0  0  0  0  0  0  0
   36.9590   32.9450   50.7310 H   0  0  0  0  0  0  0  0  0  0  0  0
   38.5810   34.4170   49.4860 H   0  0  0  0  0  0  0  0  0  0  0  0
   36.2520   30.4090   49.9810 C   0  0  0  0  0  0  0  0  0  0  0  0
   36.1960   28.9870   49.7600 C   0  0  0  0  0  0  0  0  0  0  0  0
   36.8990   29.4710   51.0090 C   0  0  0  0  0  0  0  0  0  0  0  0
   35.3490   30.9550   50.3310 H   0  0  0  0  0  0  0  0  0  0  0  0
   36.9110   28.5200   49.0240 H   0  0  0  0  0  0  0  0  0  0  0  0
   35.2470   28.4460   49.8340 H   0  0  0  0  0  0  0  0  0  0  0  0
   36.3990   29.4960   51.9820 H   0  0  0  0  0  0  0  0  0  0  0  0
   38.0040   29.4420   51.0590 H   0  0  0  0  0  0  0  0  0  0  0  0
   39.3490   31.2370   46.3450 C   0  0  0  0  0  0  0  0  0  0  0  0
   40.4720   31.2350   46.3990 H   0  0  0  0  0  0  0  0  0  0  0  0
   39.0140   30.2180   46.1140 H   0  0  0  0  0  0  0  0  0  0  0  0
   38.9990   32.1880   45.2970 N   0  0  0  0  0  0  0  0  0  0  0  0
   40.0300   32.3620   44.3290 C   0  0  0  0  0  3  0  0  0  0  0  0
   40.6940   33.1820   44.6860 H   0  0  0  0  0  0  0  0  0  0  0  0
   39.5390   32.7690   42.9700 C   0  0  0  0  0  3  0  0  0  0  0  0
   40.3350   32.5390   42.2310 H   0  0  0  0  0  0  0  0  0  0  0  0
   38.3870   32.1030   42.5630 O   0  0  0  0  0  0  0  0  0  0  0  0
   37.3840   32.4740   43.4660 C   0  0  0  0  0  2  0  0  0  0  0  0
   37.7190   31.8160   44.7820 C   0  0  0  0  0  2  0  0  0  0  0  0
  1  2  1  0  0  0  0
  1  9  1  0  0  0  0
  2  7  1  0  0  0  0
  3  8  1  0  0  0  0
  3  2  2  0  0  0  0
  4  3  1  0  0  0  0
  5  4  2  0  0  0  0
  5  6  1  0  0  0  0
  6  1  2  0  0  0  0
  9 12  1  0  0  0  0
  9 11  1  0  0  0  0
 10 14  1  0  0  0  0
 10  9  1  0  0  0  0
 10 11  1  0  0  0  0
 11 16  1  0  0  0  0
 11 15  1  0  0  0  0
 13 10  1  0  0  0  0
 17 18  1  0  0  0  0
 17  5  1  0  0  0  0
 19 17  1  0  0  0  0
 20 17  1  0  0  0  0
 21 22  1  0  0  0  0
 21 20  1  0  0  0  0
 23 21  1  0  0  0  0
 24 23  1  0  0  0  0
 25 23  1  0  0  0  0
 25 26  1  0  0  0  0
 26 27  1  0  0  0  0
 27 20  1  0  0  0  0
M  END
>  <minimizedAffinity>
-5.26730919

>  <minimizedRMSD>
1.5620687

$$$$
