
 OpenBabel03272510293D

 27 29  0  0  0  0  0  0  0  0999 V2000
   37.1550   31.3070   49.2260 C   0  0  0  0  0  0  0  0  0  0  0  0
   37.3400   32.5530   49.8440 C   0  0  0  0  0  0  0  0  0  0  0  0
   38.2980   33.3860   49.2820 C   0  0  0  0  0  0  0  0  0  0  0  0
   38.9880   32.9610   48.1890 N   0  0  0  0  0  0  0  0  0  0  0  0
   38.7750   31.7460   47.6250 C   0  0  0  0  0  0  0  0  0  0  0  0
   37.8360   30.8940   48.1540 N   0  0  0  0  0  0  0  0  0  0  0  0
   36.8040   32.8910   50.6960 H   0  0  0  0  0  0  0  0  0  0  0  0
   38.5520   34.3700   49.6440 H   0  0  0  0  0  0  0  0  0  0  0  0
   36.1030   30.4060   49.7870 C   0  0  0  0  0  0  0  0  0  0  0  0
   36.1020   28.9770   49.6030 C   0  0  0  0  0  0  0  0  0  0  0  0
   36.6140   29.5100   50.9230 C   0  0  0  0  0  0  0  0  0  0  0  0
   35.1500   30.9430   49.9910 H   0  0  0  0  0  0  0  0  0  0  0  0
   36.9210   28.5050   48.9890 H   0  0  0  0  0  0  0  0  0  0  0  0
   35.1610   28.4190   49.5600 H   0  0  0  0  0  0  0  0  0  0  0  0
   35.9830   29.5520   51.8150 H   0  0  0  0  0  0  0  0  0  0  0  0
   37.7020   29.5050   51.1270 H   0  0  0  0  0  0  0  0  0  0  0  0
   39.4940   31.3010   46.4410 C   0  0  0  0  0  0  0  0  0  0  0  0
   40.2500   32.0460   46.0720 H   0  0  0  0  0  0  0  0  0  0  0  0
   40.0130   30.3560   46.6420 H   0  0  0  0  0  0  0  0  0  0  0  0
   38.5020   31.1750   45.3810 N   0  0  0  0  0  0  0  0  0  0  0  0
   38.1440   32.4230   44.7950 C   0  0  0  0  0  3  0  0  0  0  0  0
   37.2910   32.8390   45.3810 H   0  0  0  0  0  0  0  0  0  0  0  0
   37.6790   32.3270   43.3720 C   0  0  0  0  0  3  0  0  0  0  0  0
   37.7630   33.3340   42.9110 H   0  0  0  0  0  0  0  0  0  0  0  0
   38.4230   31.4470   42.5920 O   0  0  0  0  0  0  0  0  0  0  0  0
   38.2330   30.1770   43.1510 C   0  0  0  0  0  2  0  0  0  0  0  0
   38.9580   30.1710   44.4730 C   0  0  0  0  0  2  0  0  0  0  0  0
  1  9  1  0  0  0  0
  1  2  1  0  0  0  0
  2  7  1  0  0  0  0
  3  8  1  0  0  0  0
  3  2  2  0  0  0  0
  4  3  1  0  0  0  0
  5  6  1  0  0  0  0
  5  4  2  0  0  0  0
  6  1  2  0  0  0  0
  9 12  1  0  0  0  0
  9 11  1  0  0  0  0
 10  9  1  0  0  0  0
 10 11  1  0  0  0  0
 11 16  1  0  0  0  0
 11 15  1  0  0  0  0
 13 10  1  0  0  0  0
 14 10  1  0  0  0  0
 17 19  1  0  0  0  0
 17  5  1  0  0  0  0
 18 17  1  0  0  0  0
 20 17  1  0  0  0  0
 21 22  1  0  0  0  0
 21 20  1  0  0  0  0
 23 21  1  0  0  0  0
 24 23  1  0  0  0  0
 25 26  1  0  0  0  0
 25 23  1  0  0  0  0
 26 27  1  0  0  0  0
 27 20  1  0  0  0  0
M  END
>  <minimizedAffinity>
-5.16029692

>  <minimizedRMSD>
1.2609508

$$$$
