
 OpenBabel03262522133D

 32 34  0  0  0  0  0  0  0  0999 V2000
   36.1640   26.1090   32.0040 C   0  0  0  0  0  0  0  0  0  0  0  0
   35.6910   27.4070   31.7250 C   0  0  0  0  0  0  0  0  0  0  0  0
   36.0560   28.4640   32.5170 C   0  0  0  0  0  0  0  0  0  0  0  0
   36.8880   28.1970   33.5720 C   0  0  0  0  0  0  0  0  0  0  0  0
   37.3370   26.9400   33.8290 C   0  0  0  0  0  0  0  0  0  0  0  0
   36.9870   25.8870   33.0580 N   0  0  0  0  0  0  0  0  0  0  0  0
   35.0340   27.6120   30.8900 H   0  0  0  0  0  0  0  0  0  0  0  0
   35.6990   29.4680   32.3160 H   0  0  0  0  0  0  0  0  0  0  0  0
   37.2300   28.9670   34.2530 H   0  0  0  0  0  0  0  0  0  0  0  0
   35.7410   25.0460   31.1310 C   0  0  0  0  0  0  0  0  0  0  0  0
   34.6950   25.1420   30.4870 O   0  0  0  0  0  0  0  0  0  0  0  0
   35.9260   22.5990   31.3550 C   0  0  0  0  0  0  0  0  0  0  0  0
   36.5120   23.8200   30.9610 C   0  0  0  0  0  0  0  0  0  0  0  0
   37.8030   23.7990   30.4260 C   0  0  0  0  0  0  0  0  0  0  0  0
   38.4580   22.6060   30.3000 N   0  0  0  0  0  0  0  0  0  0  0  0
   37.8500   21.4450   30.6980 C   0  0  0  0  0  0  0  0  0  0  0  0
   36.6190   21.4460   31.2100 N   0  0  0  0  0  0  0  0  0  0  0  0
   34.9300   22.6410   31.7650 H   0  0  0  0  0  0  0  0  0  0  0  0
   38.2570   24.7420   30.1200 H   0  0  0  0  0  0  0  0  0  0  0  0
   38.3960   20.5090   30.5850 H   0  0  0  0  0  0  0  0  0  0  0  0
   38.4390   26.5760   35.2240 S   0  0  0  0  0  0  0  0  0  0  0  0
   38.9180   24.8370   35.0290 C   0  0  0  0  0  0  0  0  0  0  0  0
   38.5360   24.4790   34.0450 H   0  0  0  0  0  0  0  0  0  0  0  0
   40.0130   24.6940   35.0070 H   0  0  0  0  0  0  0  0  0  0  0  0
   38.3880   24.0000   36.0890 N   0  0  0  0  0  0  0  0  0  0  0  0
   37.9380   24.8080   37.1690 C   0  0  0  0  0  3  0  0  0  0  0  0
   36.8460   25.0350   36.9750 H   0  0  0  0  0  0  0  0  0  0  0  0
   37.9960   24.2050   38.5260 C   0  0  0  0  0  3  0  0  0  0  0  0
   38.6210   24.8940   39.1690 H   0  0  0  0  0  0  0  0  0  0  0  0
   38.5670   22.9650   38.6280 O   0  0  0  0  0  0  0  0  0  0  0  0
   39.7200   22.9700   37.8400 C   0  0  0  0  0  2  0  0  0  0  0  0
   39.2290   22.8980   36.4080 C   0  0  0  0  0  2  0  0  0  0  0  0
  1  6  1  0  0  0  0
  2  1  2  0  0  0  0
  2  3  1  0  0  0  0
  3  4  2  0  0  0  0
  4  5  1  0  0  0  0
  4  9  1  0  0  0  0
  5 21  1  0  0  0  0
  6  5  2  0  0  0  0
  7  2  1  0  0  0  0
  8  3  1  0  0  0  0
 10  1  1  0  0  0  0
 11 10  2  0  0  0  0
 12 18  1  0  0  0  0
 13 10  1  0  0  0  0
 13 12  2  0  0  0  0
 14 13  1  0  0  0  0
 15 14  2  0  0  0  0
 15 16  1  0  0  0  0
 16 17  2  0  0  0  0
 17 12  1  0  0  0  0
 19 14  1  0  0  0  0
 20 16  1  0  0  0  0
 22 21  1  0  0  0  0
 22 25  1  0  0  0  0
 23 22  1  0  0  0  0
 24 22  1  0  0  0  0
 25 32  1  0  0  0  0
 25 26  1  0  0  0  0
 26 28  1  0  0  0  0
 27 26  1  0  0  0  0
 28 30  1  0  0  0  0
 28 29  1  0  0  0  0
 31 30  1  0  0  0  0
 32 31  1  0  0  0  0
M  END
>  <minimizedAffinity>
-5.1653409

$$$$

 OpenBabel03262522133D

 32 34  0  0  0  0  0  0  0  0999 V2000
   37.4220   26.5550   33.9000 C   0  0  0  0  0  0  0  0  0  0  0  0
   37.0000   27.8290   33.4700 C   0  0  0  0  0  0  0  0  0  0  0  0
   36.2600   27.9650   32.3240 C   0  0  0  0  0  0  0  0  0  0  0  0
   35.9580   26.8200   31.6360 C   0  0  0  0  0  0  0  0  0  0  0  0
   36.3710   25.5980   32.0620 C   0  0  0  0  0  0  0  0  0  0  0  0
   37.1010   25.4460   33.1900 N   0  0  0  0  0  0  0  0  0  0  0  0
   37.2420   28.7290   34.0180 H   0  0  0  0  0  0  0  0  0  0  0  0
   35.9290   28.9380   31.9800 H   0  0  0  0  0  0  0  0  0  0  0  0
   35.3780   26.8270   30.7210 H   0  0  0  0  0  0  0  0  0  0  0  0
   38.1960   26.4860   35.1110 C   0  0  0  0  0  0  0  0  0  0  0  0
   38.5610   27.5150   35.6820 O   0  0  0  0  0  0  0  0  0  0  0  0
   39.8120   24.6390   35.3370 C   0  0  0  0  0  0  0  0  0  0  0  0
   38.5850   25.2190   35.7200 C   0  0  0  0  0  0  0  0  0  0  0  0
   37.7980   24.5540   36.6650 C   0  0  0  0  0  0  0  0  0  0  0  0
   38.2350   23.3690   37.1880 N   0  0  0  0  0  0  0  0  0  0  0  0
   39.4340   22.8430   36.7850 C   0  0  0  0  0  0  0  0  0  0  0  0
   40.1980   23.4630   35.8850 N   0  0  0  0  0  0  0  0  0  0  0  0
   40.4010   25.1710   34.6070 H   0  0  0  0  0  0  0  0  0  0  0  0
   36.8490   25.0020   36.9630 H   0  0  0  0  0  0  0  0  0  0  0  0
   39.7570   21.8980   37.2190 H   0  0  0  0  0  0  0  0  0  0  0  0
   35.9770   24.0760   31.1570 S   0  0  0  0  0  0  0  0  0  0  0  0
   37.3530   22.9400   31.4850 C   0  0  0  0  0  0  0  0  0  0  0  0
   38.0170   22.9300   30.5890 H   0  0  0  0  0  0  0  0  0  0  0  0
   37.9830   23.2630   32.3330 H   0  0  0  0  0  0  0  0  0  0  0  0
   36.8980   21.5920   31.7670 N   0  0  0  0  0  0  0  0  0  0  0  0
   35.5660   21.4210   31.3010 C   0  0  0  0  0  3  0  0  0  0  0  0
   35.6370   21.0390   30.2370 H   0  0  0  0  0  0  0  0  0  0  0  0
   34.7210   20.4410   32.0320 C   0  0  0  0  0  3  0  0  0  0  0  0
   33.8000   20.9930   32.3830 H   0  0  0  0  0  0  0  0  0  0  0  0
   35.2680   19.8620   33.1450 O   0  0  0  0  0  0  0  0  0  0  0  0
   35.9120   20.8710   33.8660 C   0  0  0  0  0  2  0  0  0  0  0  0
   37.1820   21.1680   33.0940 C   0  0  0  0  0  2  0  0  0  0  0  0
  1 10  1  0  0  0  0
  2  1  1  0  0  0  0
  2  7  1  0  0  0  0
  3  2  2  0  0  0  0
  4  5  2  0  0  0  0
  4  3  1  0  0  0  0
  5  6  1  0  0  0  0
  6  1  2  0  0  0  0
  8  3  1  0  0  0  0
  9  4  1  0  0  0  0
 10 11  2  0  0  0  0
 10 13  1  0  0  0  0
 12 13  2  0  0  0  0
 12 17  1  0  0  0  0
 13 14  1  0  0  0  0
 14 19  1  0  0  0  0
 14 15  2  0  0  0  0
 16 15  1  0  0  0  0
 16 20  1  0  0  0  0
 17 16  2  0  0  0  0
 18 12  1  0  0  0  0
 21 22  1  0  0  0  0
 21  5  1  0  0  0  0
 22 25  1  0  0  0  0
 22 24  1  0  0  0  0
 23 22  1  0  0  0  0
 25 32  1  0  0  0  0
 26 25  1  0  0  0  0
 26 28  1  0  0  0  0
 27 26  1  0  0  0  0
 28 29  1  0  0  0  0
 28 30  1  0  0  0  0
 30 31  1  0  0  0  0
 32 31  1  0  0  0  0
M  END
>  <minimizedAffinity>
-5.1145072

$$$$

 OpenBabel03262522133D

 32 34  0  0  0  0  0  0  0  0999 V2000
   37.6820   22.2020   35.4230 C   0  0  0  0  0  0  0  0  0  0  0  0
   36.6940   21.5570   36.1950 C   0  0  0  0  0  0  0  0  0  0  0  0
   35.7140   20.8140   35.5890 C   0  0  0  0  0  0  0  0  0  0  0  0
   35.7470   20.7330   34.2220 C   0  0  0  0  0  0  0  0  0  0  0  0
   36.7040   21.3590   33.4900 C   0  0  0  0  0  0  0  0  0  0  0  0
   37.6780   22.0960   34.0720 N   0  0  0  0  0  0  0  0  0  0  0  0
   36.6740   21.6250   37.2740 H   0  0  0  0  0  0  0  0  0  0  0  0
   34.9470   20.3130   36.1700 H   0  0  0  0  0  0  0  0  0  0  0  0
   35.0150   20.1700   33.6560 H   0  0  0  0  0  0  0  0  0  0  0  0
   38.6790   22.9650   36.1240 C   0  0  0  0  0  0  0  0  0  0  0  0
   39.3580   22.4450   37.0110 O   0  0  0  0  0  0  0  0  0  0  0  0
   38.0880   25.3420   36.3950 C   0  0  0  0  0  0  0  0  0  0  0  0
   38.9390   24.3700   35.8300 C   0  0  0  0  0  0  0  0  0  0  0  0
   39.9920   24.7960   35.0150 C   0  0  0  0  0  0  0  0  0  0  0  0
   40.1670   26.1330   34.7890 N   0  0  0  0  0  0  0  0  0  0  0  0
   39.3150   27.0410   35.3580 C   0  0  0  0  0  0  0  0  0  0  0  0
   38.3050   26.6530   36.1380 N   0  0  0  0  0  0  0  0  0  0  0  0
   37.2840   24.9890   37.0200 H   0  0  0  0  0  0  0  0  0  0  0  0
   40.6510   24.0450   34.5790 H   0  0  0  0  0  0  0  0  0  0  0  0
   39.4790   28.0990   35.1610 H   0  0  0  0  0  0  0  0  0  0  0  0
   36.7550   21.2580   31.6790 S   0  0  0  0  0  0  0  0  0  0  0  0
   35.6890   22.6010   31.0840 C   0  0  0  0  0  0  0  0  0  0  0  0
   35.2210   22.2750   30.1250 H   0  0  0  0  0  0  0  0  0  0  0  0
   34.8550   22.8250   31.7740 H   0  0  0  0  0  0  0  0  0  0  0  0
   36.4240   23.8330   30.8720 N   0  0  0  0  0  0  0  0  0  0  0  0
   37.8160   23.5590   30.7800 C   0  0  0  0  0  3  0  0  0  0  0  0
   38.0440   23.3820   29.6850 H   0  0  0  0  0  0  0  0  0  0  0  0
   38.7410   24.6360   31.2220 C   0  0  0  0  0  3  0  0  0  0  0  0
   39.4030   24.1950   32.0250 H   0  0  0  0  0  0  0  0  0  0  0  0
   38.1710   25.7550   31.7670 O   0  0  0  0  0  0  0  0  0  0  0  0
   37.1640   25.3290   32.6360 C   0  0  0  0  0  2  0  0  0  0  0  0
   36.0240   24.8840   31.7420 C   0  0  0  0  0  2  0  0  0  0  0  0
  1 10  1  0  0  0  0
  1  2  1  0  0  0  0
  2  7  1  0  0  0  0
  3  8  1  0  0  0  0
  3  2  2  0  0  0  0
  4  3  1  0  0  0  0
  5  6  1  0  0  0  0
  5  4  2  0  0  0  0
  6  1  2  0  0  0  0
  9  4  1  0  0  0  0
 10 11  2  0  0  0  0
 12 18  1  0  0  0  0
 13 10  1  0  0  0  0
 13 12  2  0  0  0  0
 14 13  1  0  0  0  0
 15 14  2  0  0  0  0
 15 16  1  0  0  0  0
 16 17  2  0  0  0  0
 17 12  1  0  0  0  0
 19 14  1  0  0  0  0
 20 16  1  0  0  0  0
 21  5  1  0  0  0  0
 22 21  1  0  0  0  0
 22 24  1  0  0  0  0
 23 22  1  0  0  0  0
 25 22  1  0  0  0  0
 25 32  1  0  0  0  0
 26 25  1  0  0  0  0
 26 28  1  0  0  0  0
 27 26  1  0  0  0  0
 28 30  1  0  0  0  0
 28 29  1  0  0  0  0
 30 31  1  0  0  0  0
 32 31  1  0  0  0  0
M  END
>  <minimizedAffinity>
-5.02435207

$$$$

 OpenBabel03262522133D

 32 34  0  0  0  0  0  0  0  0999 V2000
   37.8460   27.2260   33.9310 C   0  0  0  0  0  0  0  0  0  0  0  0
   38.6670   27.1750   32.7860 C   0  0  0  0  0  0  0  0  0  0  0  0
   38.2490   27.7330   31.6060 C   0  0  0  0  0  0  0  0  0  0  0  0
   37.0160   28.3310   31.6000 C   0  0  0  0  0  0  0  0  0  0  0  0
   36.2350   28.3740   32.7100 C   0  0  0  0  0  0  0  0  0  0  0  0
   36.6330   27.8290   33.8820 N   0  0  0  0  0  0  0  0  0  0  0  0
   39.6390   26.7010   32.7970 H   0  0  0  0  0  0  0  0  0  0  0  0
   38.8680   27.7000   30.7160 H   0  0  0  0  0  0  0  0  0  0  0  0
   36.6010   28.7990   30.7150 H   0  0  0  0  0  0  0  0  0  0  0  0
   38.3480   26.6200   35.1350 C   0  0  0  0  0  0  0  0  0  0  0  0
   38.9620   27.2910   35.9660 O   0  0  0  0  0  0  0  0  0  0  0  0
   37.9360   24.8270   36.7750 C   0  0  0  0  0  0  0  0  0  0  0  0
   38.1610   25.2050   35.4350 C   0  0  0  0  0  0  0  0  0  0  0  0
   38.1950   24.2080   34.4560 C   0  0  0  0  0  0  0  0  0  0  0  0
   38.0100   22.9030   34.8210 N   0  0  0  0  0  0  0  0  0  0  0  0
   37.7950   22.5830   36.1350 C   0  0  0  0  0  0  0  0  0  0  0  0
   37.7600   23.5210   37.0820 N   0  0  0  0  0  0  0  0  0  0  0  0
   37.9150   25.6150   37.5110 H   0  0  0  0  0  0  0  0  0  0  0  0
   38.3670   24.4990   33.4200 H   0  0  0  0  0  0  0  0  0  0  0  0
   37.6510   21.5360   36.3960 H   0  0  0  0  0  0  0  0  0  0  0  0
   34.6010   29.1630   32.7120 S   0  0  0  0  0  0  0  0  0  0  0  0
   34.2170   29.4910   34.4540 C   0  0  0  0  0  0  0  0  0  0  0  0
   33.1730   29.1520   34.6500 H   0  0  0  0  0  0  0  0  0  0  0  0
   34.8620   28.9240   35.1500 H   0  0  0  0  0  0  0  0  0  0  0  0
   34.3420   30.8970   34.7890 N   0  0  0  0  0  0  0  0  0  0  0  0
   35.7010   31.2150   35.0570 C   0  0  0  0  0  3  0  0  0  0  0  0
   36.1620   31.5370   34.0740 H   0  0  0  0  0  0  0  0  0  0  0  0
   35.9540   32.3250   36.0120 C   0  0  0  0  0  3  0  0  0  0  0  0
   36.6010   31.9090   36.8400 H   0  0  0  0  0  0  0  0  0  0  0  0
   34.8600   32.8780   36.6210 O   0  0  0  0  0  0  0  0  0  0  0  0
   34.0240   31.8280   37.0100 C   0  0  0  0  0  2  0  0  0  0  0  0
   33.3730   31.3390   35.7320 C   0  0  0  0  0  2  0  0  0  0  0  0
  1 10  1  0  0  0  0
  2  7  1  0  0  0  0
  2  1  2  0  0  0  0
  3  2  1  0  0  0  0
  4  3  2  0  0  0  0
  4  5  1  0  0  0  0
  5 21  1  0  0  0  0
  5  6  2  0  0  0  0
  6  1  1  0  0  0  0
  8  3  1  0  0  0  0
  9  4  1  0  0  0  0
 10 13  1  0  0  0  0
 10 11  2  0  0  0  0
 12 17  1  0  0  0  0
 12 18  1  0  0  0  0
 13 12  2  0  0  0  0
 14 15  2  0  0  0  0
 14 13  1  0  0  0  0
 15 16  1  0  0  0  0
 16 20  1  0  0  0  0
 16 17  2  0  0  0  0
 19 14  1  0  0  0  0
 21 22  1  0  0  0  0
 22 23  1  0  0  0  0
 22 25  1  0  0  0  0
 22 24  1  0  0  0  0
 25 26  1  0  0  0  0
 25 32  1  0  0  0  0
 26 28  1  0  0  0  0
 27 26  1  0  0  0  0
 28 30  1  0  0  0  0
 28 29  1  0  0  0  0
 30 31  1  0  0  0  0
 32 31  1  0  0  0  0
M  END
>  <minimizedAffinity>
-4.91425085

$$$$

 OpenBabel03262522133D

 32 34  0  0  0  0  0  0  0  0999 V2000
   35.8660   29.0380   33.5410 C   0  0  0  0  0  0  0  0  0  0  0  0
   36.2190   28.8910   32.1840 C   0  0  0  0  0  0  0  0  0  0  0  0
   37.2160   28.0240   31.8160 C   0  0  0  0  0  0  0  0  0  0  0  0
   37.8360   27.3240   32.8160 C   0  0  0  0  0  0  0  0  0  0  0  0
   37.4850   27.4750   34.1200 C   0  0  0  0  0  0  0  0  0  0  0  0
   36.5040   28.3250   34.5000 N   0  0  0  0  0  0  0  0  0  0  0  0
   35.7260   29.4470   31.3990 H   0  0  0  0  0  0  0  0  0  0  0  0
   37.5000   27.9010   30.7770 H   0  0  0  0  0  0  0  0  0  0  0  0
   38.6330   26.6170   32.6230 H   0  0  0  0  0  0  0  0  0  0  0  0
   34.8110   29.9650   33.8550 C   0  0  0  0  0  0  0  0  0  0  0  0
   35.0490   31.1670   33.9790 O   0  0  0  0  0  0  0  0  0  0  0  0
   32.9110   29.4920   35.3520 C   0  0  0  0  0  0  0  0  0  0  0  0
   33.4280   29.5410   34.0400 C   0  0  0  0  0  0  0  0  0  0  0  0
   32.5920   29.1830   32.9790 C   0  0  0  0  0  0  0  0  0  0  0  0
   31.3060   28.7970   33.2380 N   0  0  0  0  0  0  0  0  0  0  0  0
   30.8480   28.7630   34.5280 C   0  0  0  0  0  0  0  0  0  0  0  0
   31.6310   29.1020   35.5530 N   0  0  0  0  0  0  0  0  0  0  0  0
   33.5750   29.7720   36.1530 H   0  0  0  0  0  0  0  0  0  0  0  0
   32.9900   29.2220   31.9640 H   0  0  0  0  0  0  0  0  0  0  0  0
   29.8190   28.4520   34.7040 H   0  0  0  0  0  0  0  0  0  0  0  0
   38.3010   26.5520   35.4520 S   0  0  0  0  0  0  0  0  0  0  0  0
   38.2780   24.8140   34.9290 C   0  0  0  0  0  0  0  0  0  0  0  0
   37.4680   24.6880   34.1740 H   0  0  0  0  0  0  0  0  0  0  0  0
   39.2150   24.5040   34.4320 H   0  0  0  0  0  0  0  0  0  0  0  0
   38.0520   23.9090   36.0400 N   0  0  0  0  0  0  0  0  0  0  0  0
   37.8010   24.6490   37.2270 C   0  0  0  0  0  3  0  0  0  0  0  0
   36.6810   24.8020   37.2880 H   0  0  0  0  0  0  0  0  0  0  0  0
   38.1970   24.0120   38.5100 C   0  0  0  0  0  3  0  0  0  0  0  0
   38.9030   24.7250   39.0310 H   0  0  0  0  0  0  0  0  0  0  0  0
   38.8550   22.8140   38.4290 O   0  0  0  0  0  0  0  0  0  0  0  0
   39.8020   22.9270   37.4080 C   0  0  0  0  0  2  0  0  0  0  0  0
   39.0120   22.8620   36.1170 C   0  0  0  0  0  2  0  0  0  0  0  0
  1 10  1  0  0  0  0
  1  6  1  0  0  0  0
  2  1  2  0  0  0  0
  3  2  1  0  0  0  0
  3  4  2  0  0  0  0
  4  5  1  0  0  0  0
  5  6  2  0  0  0  0
  5 21  1  0  0  0  0
  7  2  1  0  0  0  0
  8  3  1  0  0  0  0
  9  4  1  0  0  0  0
 10 11  2  0  0  0  0
 10 13  1  0  0  0  0
 12 17  1  0  0  0  0
 12 18  1  0  0  0  0
 13 12  2  0  0  0  0
 14 15  2  0  0  0  0
 14 13  1  0  0  0  0
 15 16  1  0  0  0  0
 16 20  1  0  0  0  0
 16 17  2  0  0  0  0
 19 14  1  0  0  0  0
 22 21  1  0  0  0  0
 22 25  1  0  0  0  0
 23 22  1  0  0  0  0
 24 22  1  0  0  0  0
 25 32  1  0  0  0  0
 25 26  1  0  0  0  0
 26 27  1  0  0  0  0
 26 28  1  0  0  0  0
 28 29  1  0  0  0  0
 30 28  1  0  0  0  0
 31 30  1  0  0  0  0
 32 31  1  0  0  0  0
M  END
>  <minimizedAffinity>
-4.90367174

$$$$

 OpenBabel03262522133D

 32 34  0  0  0  0  0  0  0  0999 V2000
   38.0410   24.9900   35.6380 C   0  0  0  0  0  0  0  0  0  0  0  0
   38.4270   26.1560   36.3300 C   0  0  0  0  0  0  0  0  0  0  0  0
   38.3160   27.3860   35.7350 C   0  0  0  0  0  0  0  0  0  0  0  0
   37.8180   27.4200   34.4590 C   0  0  0  0  0  0  0  0  0  0  0  0
   37.4500   26.2880   33.8030 C   0  0  0  0  0  0  0  0  0  0  0  0
   37.5530   25.0670   34.3760 N   0  0  0  0  0  0  0  0  0  0  0  0
   38.8190   26.1220   37.3370 H   0  0  0  0  0  0  0  0  0  0  0  0
   38.6100   28.2910   36.2540 H   0  0  0  0  0  0  0  0  0  0  0  0
   37.6940   28.3440   33.9080 H   0  0  0  0  0  0  0  0  0  0  0  0
   38.1850   23.7330   36.3230 C   0  0  0  0  0  0  0  0  0  0  0  0
   37.2460   23.2530   36.9580 O   0  0  0  0  0  0  0  0  0  0  0  0
   40.0240   22.6270   37.5360 C   0  0  0  0  0  0  0  0  0  0  0  0
   39.4290   22.9700   36.3050 C   0  0  0  0  0  0  0  0  0  0  0  0
   40.0570   22.5650   35.1230 C   0  0  0  0  0  0  0  0  0  0  0  0
   41.2210   21.8520   35.1930 N   0  0  0  0  0  0  0  0  0  0  0  0
   41.7630   21.5420   36.4110 C   0  0  0  0  0  0  0  0  0  0  0  0
   41.1780   21.9210   37.5490 N   0  0  0  0  0  0  0  0  0  0  0  0
   39.5200   22.9510   38.4330 H   0  0  0  0  0  0  0  0  0  0  0  0
   39.5970   22.8300   34.1700 H   0  0  0  0  0  0  0  0  0  0  0  0
   42.6910   20.9730   36.4360 H   0  0  0  0  0  0  0  0  0  0  0  0
   36.7910   26.3230   32.1130 S   0  0  0  0  0  0  0  0  0  0  0  0
   37.9970   25.4230   31.0990 C   0  0  0  0  0  0  0  0  0  0  0  0
   38.1750   26.0090   30.1670 H   0  0  0  0  0  0  0  0  0  0  0  0
   38.9800   25.3190   31.5920 H   0  0  0  0  0  0  0  0  0  0  0  0
   37.5380   24.0900   30.7530 N   0  0  0  0  0  0  0  0  0  0  0  0
   36.1630   23.9480   31.0870 C   0  0  0  0  0  3  0  0  0  0  0  0
   35.5700   24.2530   30.1720 H   0  0  0  0  0  0  0  0  0  0  0  0
   35.6990   22.5800   31.4400 C   0  0  0  0  0  3  0  0  0  0  0  0
   35.2370   22.6420   32.4700 H   0  0  0  0  0  0  0  0  0  0  0  0
   36.6520   21.6010   31.5050 O   0  0  0  0  0  0  0  0  0  0  0  0
   37.7540   22.1350   32.1780 C   0  0  0  0  0  2  0  0  0  0  0  0
   38.4220   23.0620   31.1820 C   0  0  0  0  0  2  0  0  0  0  0  0
  1 10  1  0  0  0  0
  1  2  1  0  0  0  0
  2  7  1  0  0  0  0
  3  8  1  0  0  0  0
  3  2  2  0  0  0  0
  4  3  1  0  0  0  0
  5  6  1  0  0  0  0
  5  4  2  0  0  0  0
  6  1  2  0  0  0  0
  9  4  1  0  0  0  0
 10 11  2  0  0  0  0
 12 17  1  0  0  0  0
 12 18  1  0  0  0  0
 13 10  1  0  0  0  0
 13 12  2  0  0  0  0
 14 15  2  0  0  0  0
 14 13  1  0  0  0  0
 15 16  1  0  0  0  0
 16 20  1  0  0  0  0
 16 17  2  0  0  0  0
 19 14  1  0  0  0  0
 21  5  1  0  0  0  0
 22 24  1  0  0  0  0
 22 21  1  0  0  0  0
 23 22  1  0  0  0  0
 25 26  1  0  0  0  0
 25 22  1  0  0  0  0
 25 32  1  0  0  0  0
 26 28  1  0  0  0  0
 27 26  1  0  0  0  0
 28 30  1  0  0  0  0
 28 29  1  0  0  0  0
 30 31  1  0  0  0  0
 32 31  1  0  0  0  0
M  END
>  <minimizedAffinity>
-4.90112877

$$$$

 OpenBabel03262522133D

 32 34  0  0  0  0  0  0  0  0999 V2000
   36.1150   28.6030   33.6240 C   0  0  0  0  0  0  0  0  0  0  0  0
   36.6300   28.5100   32.3150 C   0  0  0  0  0  0  0  0  0  0  0  0
   37.5510   27.5450   31.9980 C   0  0  0  0  0  0  0  0  0  0  0  0
   37.9350   26.6940   33.0000 C   0  0  0  0  0  0  0  0  0  0  0  0
   37.4310   26.7950   34.2580 C   0  0  0  0  0  0  0  0  0  0  0  0
   36.5220   27.7400   34.5870 N   0  0  0  0  0  0  0  0  0  0  0  0
   36.3230   29.1850   31.5280 H   0  0  0  0  0  0  0  0  0  0  0  0
   37.9570   27.4620   30.9960 H   0  0  0  0  0  0  0  0  0  0  0  0
   38.6570   25.9020   32.8450 H   0  0  0  0  0  0  0  0  0  0  0  0
   35.1520   29.6390   33.8860 C   0  0  0  0  0  0  0  0  0  0  0  0
   33.9450   29.4150   33.7830 O   0  0  0  0  0  0  0  0  0  0  0  0
   35.8100   31.2370   35.6430 C   0  0  0  0  0  0  0  0  0  0  0  0
   35.5430   30.9880   34.2810 C   0  0  0  0  0  0  0  0  0  0  0  0
   35.6640   32.0430   33.3730 C   0  0  0  0  0  0  0  0  0  0  0  0
   36.0360   33.2790   33.8250 N   0  0  0  0  0  0  0  0  0  0  0  0
   36.2840   33.4740   35.1570 C   0  0  0  0  0  0  0  0  0  0  0  0
   36.1730   32.4790   36.0380 N   0  0  0  0  0  0  0  0  0  0  0  0
   35.7090   30.4070   36.3240 H   0  0  0  0  0  0  0  0  0  0  0  0
   35.4590   31.8520   32.3190 H   0  0  0  0  0  0  0  0  0  0  0  0
   36.5780   34.4690   35.4890 H   0  0  0  0  0  0  0  0  0  0  0  0
   37.9340   25.6730   35.5920 S   0  0  0  0  0  0  0  0  0  0  0  0
   38.2520   24.0750   34.7940 C   0  0  0  0  0  0  0  0  0  0  0  0
   37.3160   23.7470   34.2860 H   0  0  0  0  0  0  0  0  0  0  0  0
   39.0270   24.1350   34.0090 H   0  0  0  0  0  0  0  0  0  0  0  0
   38.6700   23.0610   35.7440 N   0  0  0  0  0  0  0  0  0  0  0  0
   38.5120   23.5430   37.0720 C   0  0  0  0  0  3  0  0  0  0  0  0
   37.4710   23.2480   37.4060 H   0  0  0  0  0  0  0  0  0  0  0  0
   39.4410   22.9990   38.0970 C   0  0  0  0  0  3  0  0  0  0  0  0
   39.9670   23.8810   38.5690 H   0  0  0  0  0  0  0  0  0  0  0  0
   40.4260   22.1580   37.6550 O   0  0  0  0  0  0  0  0  0  0  0  0
   40.9560   22.7130   36.4880 C   0  0  0  0  0  2  0  0  0  0  0  0
   39.9170   22.4610   35.4140 C   0  0  0  0  0  2  0  0  0  0  0  0
  1 10  1  0  0  0  0
  1  6  1  0  0  0  0
  2  1  2  0  0  0  0
  3  2  1  0  0  0  0
  3  4  2  0  0  0  0
  4  5  1  0  0  0  0
  5  6  2  0  0  0  0
  5 21  1  0  0  0  0
  7  2  1  0  0  0  0
  8  3  1  0  0  0  0
  9  4  1  0  0  0  0
 10 13  1  0  0  0  0
 11 10  2  0  0  0  0
 12 17  1  0  0  0  0
 12 18  1  0  0  0  0
 13 12  2  0  0  0  0
 14 15  2  0  0  0  0
 14 13  1  0  0  0  0
 15 16  1  0  0  0  0
 16 20  1  0  0  0  0
 16 17  2  0  0  0  0
 19 14  1  0  0  0  0
 22 21  1  0  0  0  0
 22 25  1  0  0  0  0
 23 22  1  0  0  0  0
 24 22  1  0  0  0  0
 25 26  1  0  0  0  0
 26 27  1  0  0  0  0
 26 28  1  0  0  0  0
 28 29  1  0  0  0  0
 30 28  1  0  0  0  0
 31 30  1  0  0  0  0
 32 25  1  0  0  0  0
 32 31  1  0  0  0  0
M  END
>  <minimizedAffinity>
-4.85435152

$$$$

 OpenBabel03262522133D

 32 34  0  0  0  0  0  0  0  0999 V2000
   36.9320   25.8780   32.0020 C   0  0  0  0  0  0  0  0  0  0  0  0
   35.7890   25.7910   31.1800 C   0  0  0  0  0  0  0  0  0  0  0  0
   35.1870   24.5810   30.9550 C   0  0  0  0  0  0  0  0  0  0  0  0
   35.7430   23.4840   31.5590 C   0  0  0  0  0  0  0  0  0  0  0  0
   36.8440   23.5820   32.3490 C   0  0  0  0  0  0  0  0  0  0  0  0
   37.4500   24.7680   32.5820 N   0  0  0  0  0  0  0  0  0  0  0  0
   35.3550   26.6610   30.7060 H   0  0  0  0  0  0  0  0  0  0  0  0
   34.3090   24.4970   30.3240 H   0  0  0  0  0  0  0  0  0  0  0  0
   35.3370   22.4860   31.4390 H   0  0  0  0  0  0  0  0  0  0  0  0
   37.5120   27.1800   32.1950 C   0  0  0  0  0  0  0  0  0  0  0  0
   38.7120   27.3690   31.9900 O   0  0  0  0  0  0  0  0  0  0  0  0
   36.2630   28.3530   33.9670 C   0  0  0  0  0  0  0  0  0  0  0  0
   36.7280   28.3290   32.6360 C   0  0  0  0  0  0  0  0  0  0  0  0
   36.4160   29.4050   31.7990 C   0  0  0  0  0  0  0  0  0  0  0  0
   35.6750   30.4430   32.2910 N   0  0  0  0  0  0  0  0  0  0  0  0
   35.2450   30.4240   33.5900 C   0  0  0  0  0  0  0  0  0  0  0  0
   35.5320   29.4050   34.4020 N   0  0  0  0  0  0  0  0  0  0  0  0
   36.5160   27.5120   34.5920 H   0  0  0  0  0  0  0  0  0  0  0  0
   36.7760   29.3870   30.7700 H   0  0  0  0  0  0  0  0  0  0  0  0
   34.6570   31.2650   33.9540 H   0  0  0  0  0  0  0  0  0  0  0  0
   37.5870   22.1350   33.1520 S   0  0  0  0  0  0  0  0  0  0  0  0
   39.1930   22.6960   33.7830 C   0  0  0  0  0  0  0  0  0  0  0  0
   39.9450   21.8990   33.5790 H   0  0  0  0  0  0  0  0  0  0  0  0
   39.5600   23.6060   33.2740 H   0  0  0  0  0  0  0  0  0  0  0  0
   39.1560   22.9760   35.2060 N   0  0  0  0  0  0  0  0  0  0  0  0
   37.9970   22.3930   35.7870 C   0  0  0  0  0  3  0  0  0  0  0  0
   38.2880   21.3530   36.1270 H   0  0  0  0  0  0  0  0  0  0  0  0
   37.4330   23.0720   36.9830 C   0  0  0  0  0  3  0  0  0  0  0  0
   36.3550   23.3180   36.7470 H   0  0  0  0  0  0  0  0  0  0  0  0
   38.0210   24.2500   37.3600 O   0  0  0  0  0  0  0  0  0  0  0  0
   38.2430   24.9950   36.2000 C   0  0  0  0  0  2  0  0  0  0  0  0
   39.4260   24.3370   35.5190 C   0  0  0  0  0  2  0  0  0  0  0  0
  1 10  1  0  0  0  0
  1  6  1  0  0  0  0
  2  1  2  0  0  0  0
  3  2  1  0  0  0  0
  3  4  2  0  0  0  0
  4  5  1  0  0  0  0
  5  6  2  0  0  0  0
  5 21  1  0  0  0  0
  7  2  1  0  0  0  0
  8  3  1  0  0  0  0
  9  4  1  0  0  0  0
 10 13  1  0  0  0  0
 11 10  2  0  0  0  0
 12 17  1  0  0  0  0
 12 18  1  0  0  0  0
 13 12  2  0  0  0  0
 14 15  2  0  0  0  0
 14 13  1  0  0  0  0
 15 16  1  0  0  0  0
 16 20  1  0  0  0  0
 16 17  2  0  0  0  0
 19 14  1  0  0  0  0
 21 22  1  0  0  0  0
 22 25  1  0  0  0  0
 23 22  1  0  0  0  0
 24 22  1  0  0  0  0
 25 32  1  0  0  0  0
 25 26  1  0  0  0  0
 26 27  1  0  0  0  0
 26 28  1  0  0  0  0
 28 30  1  0  0  0  0
 29 28  1  0  0  0  0
 31 30  1  0  0  0  0
 32 31  1  0  0  0  0
M  END
>  <minimizedAffinity>
-4.79662895

$$$$

 OpenBabel03262522133D

 32 34  0  0  0  0  0  0  0  0999 V2000
   35.6160   29.0300   32.6250 C   0  0  0  0  0  0  0  0  0  0  0  0
   36.0150   29.7210   31.4630 C   0  0  0  0  0  0  0  0  0  0  0  0
   37.0990   29.2950   30.7400 C   0  0  0  0  0  0  0  0  0  0  0  0
   37.7590   28.1850   31.1970 C   0  0  0  0  0  0  0  0  0  0  0  0
   37.3630   27.5290   32.3190 C   0  0  0  0  0  0  0  0  0  0  0  0
   36.2960   27.9350   33.0430 N   0  0  0  0  0  0  0  0  0  0  0  0
   35.4890   30.5960   31.1070 H   0  0  0  0  0  0  0  0  0  0  0  0
   37.4180   29.8170   29.8440 H   0  0  0  0  0  0  0  0  0  0  0  0
   38.6250   27.7750   30.6930 H   0  0  0  0  0  0  0  0  0  0  0  0
   34.4700   29.5310   33.3350 C   0  0  0  0  0  0  0  0  0  0  0  0
   33.3290   29.2760   32.9460 O   0  0  0  0  0  0  0  0  0  0  0  0
   33.4520   30.5270   35.3460 C   0  0  0  0  0  0  0  0  0  0  0  0
   34.5910   30.3550   34.5330 C   0  0  0  0  0  0  0  0  0  0  0  0
   35.7820   30.9810   34.9100 C   0  0  0  0  0  0  0  0  0  0  0  0
   35.8120   31.7370   36.0490 N   0  0  0  0  0  0  0  0  0  0  0  0
   34.6810   31.8770   36.8080 C   0  0  0  0  0  0  0  0  0  0  0  0
   33.5350   31.2870   36.4630 N   0  0  0  0  0  0  0  0  0  0  0  0
   32.5450   30.0350   35.0340 H   0  0  0  0  0  0  0  0  0  0  0  0
   36.6640   30.8470   34.2830 H   0  0  0  0  0  0  0  0  0  0  0  0
   34.7340   32.4840   37.7100 H   0  0  0  0  0  0  0  0  0  0  0  0
   38.2320   26.0590   32.9330 S   0  0  0  0  0  0  0  0  0  0  0  0
   37.6050   25.7860   34.6140 C   0  0  0  0  0  0  0  0  0  0  0  0
   37.5090   26.7770   35.1150 H   0  0  0  0  0  0  0  0  0  0  0  0
   36.5970   25.3330   34.6280 H   0  0  0  0  0  0  0  0  0  0  0  0
   38.4800   24.9310   35.3940 N   0  0  0  0  0  0  0  0  0  0  0  0
   38.6860   23.6980   34.7160 C   0  0  0  0  0  3  0  0  0  0  0  0
   39.6040   23.8310   34.0670 H   0  0  0  0  0  0  0  0  0  0  0  0
   38.9520   22.5050   35.5620 C   0  0  0  0  0  3  0  0  0  0  0  0
   38.1710   21.7320   35.3000 H   0  0  0  0  0  0  0  0  0  0  0  0
   38.8790   22.6800   36.9180 O   0  0  0  0  0  0  0  0  0  0  0  0
   37.7470   23.4550   37.1780 C   0  0  0  0  0  2  0  0  0  0  0  0
   38.1220   24.8650   36.7690 C   0  0  0  0  0  2  0  0  0  0  0  0
  1  6  1  0  0  0  0
  1 10  1  0  0  0  0
  2  1  2  0  0  0  0
  3  4  2  0  0  0  0
  3  2  1  0  0  0  0
  4  5  1  0  0  0  0
  5 21  1  0  0  0  0
  5  6  2  0  0  0  0
  7  2  1  0  0  0  0
  8  3  1  0  0  0  0
  9  4  1  0  0  0  0
 10 13  1  0  0  0  0
 11 10  2  0  0  0  0
 12 17  1  0  0  0  0
 13 14  1  0  0  0  0
 13 12  2  0  0  0  0
 14 15  2  0  0  0  0
 15 16  1  0  0  0  0
 16 20  1  0  0  0  0
 17 16  2  0  0  0  0
 18 12  1  0  0  0  0
 19 14  1  0  0  0  0
 21 22  1  0  0  0  0
 22 24  1  0  0  0  0
 22 23  1  0  0  0  0
 22 25  1  0  0  0  0
 25 32  1  0  0  0  0
 26 25  1  0  0  0  0
 26 28  1  0  0  0  0
 27 26  1  0  0  0  0
 28 30  1  0  0  0  0
 29 28  1  0  0  0  0
 30 31  1  0  0  0  0
 32 31  1  0  0  0  0
M  END
>  <minimizedAffinity>
-4.7935915

$$$$
