
 OpenBabel03272501133D

 27 29  0  0  1  0  0  0  0  0999 V2000
   38.5860   25.5710   35.0770 C   0  0  1  0  0  0  0  0  0  0  0  0
   37.7490   26.7070   35.3860 C   0  0  1  0  0  0  0  0  0  0  0  0
   39.2430   26.9240   35.3440 C   0  0  0  0  0  0  0  0  0  0  0  0
   38.7450   25.1720   34.0540 H   0  0  0  0  0  0  0  0  0  0  0  0
   37.2990   26.7330   36.4080 H   0  0  0  0  0  0  0  0  0  0  0  0
   39.8030   27.0690   36.2810 H   0  0  0  0  0  0  0  0  0  0  0  0
   39.6470   27.4350   34.4520 H   0  0  0  0  0  0  0  0  0  0  0  0
   38.9410   24.5410   36.1250 C   0  0  0  0  0  0  0  0  0  0  0  0
   38.1010   24.4850   37.2390 C   0  0  0  0  0  0  0  0  0  0  0  0
   38.4680   23.5450   38.2020 C   0  0  0  0  0  0  0  0  0  0  0  0
   39.5820   22.7550   38.0270 N   0  0  0  0  0  0  0  0  0  0  0  0
   40.3610   22.8590   36.9180 C   0  0  0  0  0  0  0  0  0  0  0  0
   40.0280   23.7730   35.9510 N   0  0  0  0  0  0  0  0  0  0  0  0
   37.2450   25.1110   37.3470 H   0  0  0  0  0  0  0  0  0  0  0  0
   37.8620   23.4450   39.0940 H   0  0  0  0  0  0  0  0  0  0  0  0
   41.2260   22.2180   36.8250 H   0  0  0  0  0  0  0  0  0  0  0  0
   36.8590   27.2410   34.3000 C   0  0  0  0  0  0  0  0  0  0  0  0
   35.8380   26.7830   34.3740 H   0  0  0  0  0  0  0  0  0  0  0  0
   36.7800   28.3370   34.4350 H   0  0  0  0  0  0  0  0  0  0  0  0
   37.3290   26.9570   32.9750 N   0  0  0  0  0  0  0  0  0  0  0  0
   37.5280   28.1410   32.1600 C   0  0  0  0  0  3  0  0  0  0  0  0
   38.5220   28.5590   32.4310 H   0  0  0  0  0  0  0  0  0  0  0  0
   37.6370   27.6570   30.7080 C   0  0  0  0  0  3  0  0  0  0  0  0
   38.2850   26.7680   30.6430 H   0  0  0  0  0  0  0  0  0  0  0  0
   36.3670   27.3150   30.2790 O   0  0  0  0  0  0  0  0  0  0  0  0
   35.6050   26.8030   31.3410 C   0  0  0  0  0  2  0  0  0  0  0  0
   36.5390   26.0260   32.2460 C   0  0  0  0  0  2  0  0  0  0  0  0
  1  4  1  6  0  0  0
  1  3  1  0  0  0  0
  1  2  1  0  0  0  0
  1  8  1  0  0  0  0
  2  5  1  1  0  0  0
  3  2  1  0  0  0  0
  3  6  1  0  0  0  0
  7  3  1  0  0  0  0
  8  9  1  0  0  0  0
  9 14  1  0  0  0  0
  9 10  2  0  0  0  0
 10 15  1  0  0  0  0
 11 10  1  0  0  0  0
 12 11  2  0  0  0  0
 13  8  2  0  0  0  0
 13 12  1  0  0  0  0
 16 12  1  0  0  0  0
 17 18  1  0  0  0  0
 17 19  1  0  0  0  0
 17  2  1  0  0  0  0
 20 17  1  0  0  0  0
 21 22  1  0  0  0  0
 21 20  1  0  0  0  0
 23 21  1  0  0  0  0
 24 23  1  0  0  0  0
 25 23  1  0  0  0  0
 25 26  1  0  0  0  0
 26 27  1  0  0  0  0
 27 20  1  0  0  0  0
M  END
>  <minimizedAffinity>
-4.32422972

$$$$

 OpenBabel03272501133D

 27 29  0  0  1  0  0  0  0  0999 V2000
   38.6340   25.3100   34.7920 C   0  0  1  0  0  0  0  0  0  0  0  0
   37.6190   26.3260   34.6300 C   0  0  1  0  0  0  0  0  0  0  0  0
   39.0250   26.7790   34.9470 C   0  0  0  0  0  0  0  0  0  0  0  0
   39.1300   24.7840   33.9510 H   0  0  0  0  0  0  0  0  0  0  0  0
   36.8890   26.4410   35.4660 H   0  0  0  0  0  0  0  0  0  0  0  0
   39.2640   27.1630   35.9510 H   0  0  0  0  0  0  0  0  0  0  0  0
   39.6140   27.1990   34.1130 H   0  0  0  0  0  0  0  0  0  0  0  0
   38.7780   24.5360   36.0820 C   0  0  0  0  0  0  0  0  0  0  0  0
   39.8040   23.5900   36.1170 C   0  0  0  0  0  0  0  0  0  0  0  0
   39.8970   22.8710   37.3100 C   0  0  0  0  0  0  0  0  0  0  0  0
   39.0220   23.1090   38.3460 N   0  0  0  0  0  0  0  0  0  0  0  0
   38.0420   24.0460   38.2490 C   0  0  0  0  0  0  0  0  0  0  0  0
   37.9230   24.7710   37.0900 N   0  0  0  0  0  0  0  0  0  0  0  0
   40.4670   23.4270   35.2980 H   0  0  0  0  0  0  0  0  0  0  0  0
   40.6710   22.1200   37.4090 H   0  0  0  0  0  0  0  0  0  0  0  0
   37.3780   24.1980   39.0870 H   0  0  0  0  0  0  0  0  0  0  0  0
   37.0350   26.5230   33.2600 C   0  0  0  0  0  0  0  0  0  0  0  0
   37.5310   25.8390   32.5230 H   0  0  0  0  0  0  0  0  0  0  0  0
   35.9550   26.2840   33.3150 H   0  0  0  0  0  0  0  0  0  0  0  0
   37.2020   27.8520   32.7460 N   0  0  0  0  0  0  0  0  0  0  0  0
   35.9740   28.6250   32.7160 C   0  0  0  0  0  3  0  0  0  0  0  0
   35.8230   29.0330   33.7390 H   0  0  0  0  0  0  0  0  0  0  0  0
   36.2400   29.8270   31.8000 C   0  0  0  0  0  3  0  0  0  0  0  0
   37.2240   30.2730   32.0180 H   0  0  0  0  0  0  0  0  0  0  0  0
   36.2350   29.3730   30.4930 O   0  0  0  0  0  0  0  0  0  0  0  0
   36.7340   28.0630   30.4210 C   0  0  0  0  0  2  0  0  0  0  0  0
   37.8210   27.9250   31.4670 C   0  0  0  0  0  2  0  0  0  0  0  0
  1  4  1  6  0  0  0
  1  3  1  0  0  0  0
  1  8  1  0  0  0  0
  2  1  1  0  0  0  0
  2  3  1  0  0  0  0
  2  5  1  1  0  0  0
  3  6  1  0  0  0  0
  7  3  1  0  0  0  0
  8  9  2  0  0  0  0
  8 13  1  0  0  0  0
  9 10  1  0  0  0  0
 10 15  1  0  0  0  0
 10 11  2  0  0  0  0
 12 11  1  0  0  0  0
 12 16  1  0  0  0  0
 13 12  2  0  0  0  0
 14  9  1  0  0  0  0
 17 19  1  0  0  0  0
 17  2  1  0  0  0  0
 18 17  1  0  0  0  0
 20 17  1  0  0  0  0
 21 20  1  0  0  0  0
 21 22  1  0  0  0  0
 23 24  1  0  0  0  0
 23 21  1  0  0  0  0
 25 23  1  0  0  0  0
 26 25  1  0  0  0  0
 26 27  1  0  0  0  0
 27 20  1  0  0  0  0
M  END
>  <minimizedAffinity>
-4.29856539

$$$$

 OpenBabel03272501133D

 27 29  0  0  1  0  0  0  0  0999 V2000
   37.4370   26.7300   35.2970 C   0  0  1  0  0  0  0  0  0  0  0  0
   38.4280   25.6810   35.3690 C   0  0  1  0  0  0  0  0  0  0  0  0
   38.9060   27.1090   35.4810 C   0  0  0  0  0  0  0  0  0  0  0  0
   36.7730   27.0210   36.1370 H   0  0  0  0  0  0  0  0  0  0  0  0
   38.6890   25.1730   34.4100 H   0  0  0  0  0  0  0  0  0  0  0  0
   39.4450   27.5740   34.6420 H   0  0  0  0  0  0  0  0  0  0  0  0
   39.1750   27.4660   36.4910 H   0  0  0  0  0  0  0  0  0  0  0  0
   36.8820   27.2040   33.9730 C   0  0  0  0  0  0  0  0  0  0  0  0
   36.2550   28.4510   33.9820 C   0  0  0  0  0  0  0  0  0  0  0  0
   35.7290   28.8510   32.7530 C   0  0  0  0  0  0  0  0  0  0  0  0
   35.8400   28.0440   31.6430 N   0  0  0  0  0  0  0  0  0  0  0  0
   36.4620   26.8370   31.7000 C   0  0  0  0  0  0  0  0  0  0  0  0
   36.9920   26.4140   32.8930 N   0  0  0  0  0  0  0  0  0  0  0  0
   36.1840   29.0540   34.8590 H   0  0  0  0  0  0  0  0  0  0  0  0
   35.2280   29.8090   32.6850 H   0  0  0  0  0  0  0  0  0  0  0  0
   36.5250   26.2380   30.8040 H   0  0  0  0  0  0  0  0  0  0  0  0
   38.4070   24.7760   36.5680 C   0  0  0  0  0  0  0  0  0  0  0  0
   38.9530   25.2530   37.4240 H   0  0  0  0  0  0  0  0  0  0  0  0
   37.3500   24.6130   36.8520 H   0  0  0  0  0  0  0  0  0  0  0  0
   39.0420   23.5080   36.3470 N   0  0  0  0  0  0  0  0  0  0  0  0
   39.6910   22.9670   37.5270 C   0  0  0  0  0  3  0  0  0  0  0  0
   38.9010   22.4740   38.1350 H   0  0  0  0  0  0  0  0  0  0  0  0
   40.6250   21.8540   37.0370 C   0  0  0  0  0  3  0  0  0  0  0  0
   40.1190   21.2230   36.2880 H   0  0  0  0  0  0  0  0  0  0  0  0
   41.7240   22.4520   36.4460 O   0  0  0  0  0  0  0  0  0  0  0  0
   41.3590   23.6550   35.8230 C   0  0  0  0  0  2  0  0  0  0  0  0
   39.9620   23.4800   35.2630 C   0  0  0  0  0  2  0  0  0  0  0  0
  1  2  1  0  0  0  0
  1  3  1  0  0  0  0
  1  4  1  1  0  0  0
  2  5  1  6  0  0  0
  2  3  1  0  0  0  0
  2 17  1  0  0  0  0
  3  7  1  0  0  0  0
  6  3  1  0  0  0  0
  8  9  1  0  0  0  0
  8  1  1  0  0  0  0
  9 14  1  0  0  0  0
 10  9  2  0  0  0  0
 11 12  2  0  0  0  0
 11 10  1  0  0  0  0
 12 13  1  0  0  0  0
 13  8  2  0  0  0  0
 15 10  1  0  0  0  0
 16 12  1  0  0  0  0
 17 19  1  0  0  0  0
 17 18  1  0  0  0  0
 20 17  1  0  0  0  0
 20 21  1  0  0  0  0
 21 22  1  0  0  0  0
 23 21  1  0  0  0  0
 24 23  1  0  0  0  0
 25 23  1  0  0  0  0
 26 25  1  0  0  0  0
 27 26  1  0  0  0  0
 27 20  1  0  0  0  0
M  END
>  <minimizedAffinity>
-4.24926662

$$$$

 OpenBabel03272501133D

 27 29  0  0  1  0  0  0  0  0999 V2000
   37.2120   26.8120   35.0750 C   0  0  1  0  0  0  0  0  0  0  0  0
   38.3030   25.9230   35.4000 C   0  0  1  0  0  0  0  0  0  0  0  0
   38.5000   27.4000   35.6480 C   0  0  0  0  0  0  0  0  0  0  0  0
   36.3130   26.9550   35.7090 H   0  0  0  0  0  0  0  0  0  0  0  0
   38.8850   25.5100   34.5410 H   0  0  0  0  0  0  0  0  0  0  0  0
   39.1590   27.9840   34.9880 H   0  0  0  0  0  0  0  0  0  0  0  0
   38.4340   27.7420   36.6970 H   0  0  0  0  0  0  0  0  0  0  0  0
   36.9550   27.2630   33.6550 C   0  0  0  0  0  0  0  0  0  0  0  0
   36.1950   28.4250   33.5080 C   0  0  0  0  0  0  0  0  0  0  0  0
   35.9520   28.8020   32.1870 C   0  0  0  0  0  0  0  0  0  0  0  0
   36.4400   28.0550   31.1390 N   0  0  0  0  0  0  0  0  0  0  0  0
   37.1740   26.9310   31.3490 C   0  0  0  0  0  0  0  0  0  0  0  0
   37.4340   26.5310   32.6360 N   0  0  0  0  0  0  0  0  0  0  0  0
   35.8290   28.9830   34.3400 H   0  0  0  0  0  0  0  0  0  0  0  0
   35.3680   29.6950   31.9970 H   0  0  0  0  0  0  0  0  0  0  0  0
   37.5370   26.3760   30.4960 H   0  0  0  0  0  0  0  0  0  0  0  0
   38.1140   24.9660   36.5420 C   0  0  0  0  0  0  0  0  0  0  0  0
   38.5250   25.4050   37.4890 H   0  0  0  0  0  0  0  0  0  0  0  0
   37.0270   24.7900   36.6600 H   0  0  0  0  0  0  0  0  0  0  0  0
   38.7830   23.7090   36.3610 N   0  0  0  0  0  0  0  0  0  0  0  0
   39.8260   23.7440   35.3530 C   0  0  0  0  0  3  0  0  0  0  0  0
   40.7330   24.1640   35.8390 H   0  0  0  0  0  0  0  0  0  0  0  0
   40.1490   22.2830   35.0120 C   0  0  0  0  0  3  0  0  0  0  0  0
   40.2210   21.6760   35.9300 H   0  0  0  0  0  0  0  0  0  0  0  0
   39.1170   21.7920   34.2330 O   0  0  0  0  0  0  0  0  0  0  0  0
   37.8960   22.3780   34.5980 C   0  0  0  0  0  2  0  0  0  0  0  0
   37.9240   22.6070   36.0960 C   0  0  0  0  0  2  0  0  0  0  0  0
  1  2  1  0  0  0  0
  1  3  1  0  0  0  0
  1  4  1  1  0  0  0
  2  5  1  6  0  0  0
  2  3  1  0  0  0  0
  2 17  1  0  0  0  0
  3  7  1  0  0  0  0
  6  3  1  0  0  0  0
  8  1  1  0  0  0  0
  9  8  1  0  0  0  0
  9 14  1  0  0  0  0
 10  9  2  0  0  0  0
 11 12  2  0  0  0  0
 11 10  1  0  0  0  0
 12 13  1  0  0  0  0
 13  8  2  0  0  0  0
 15 10  1  0  0  0  0
 16 12  1  0  0  0  0
 17 19  1  0  0  0  0
 17 18  1  0  0  0  0
 20 17  1  0  0  0  0
 21 22  1  0  0  0  0
 21 20  1  0  0  0  0
 23 21  1  0  0  0  0
 23 24  1  0  0  0  0
 25 26  1  0  0  0  0
 25 23  1  0  0  0  0
 26 27  1  0  0  0  0
 27 20  1  0  0  0  0
M  END
>  <minimizedAffinity>
-4.15317488

$$$$

 OpenBabel03272501133D

 27 29  0  0  1  0  0  0  0  0999 V2000
   38.1890   26.2950   33.0300 C   0  0  1  0  0  0  0  0  0  0  0  0
   37.6940   25.1910   33.8190 C   0  0  1  0  0  0  0  0  0  0  0  0
   37.5490   25.1040   32.3180 C   0  0  0  0  0  0  0  0  0  0  0  0
   39.2590   26.4600   32.7880 H   0  0  0  0  0  0  0  0  0  0  0  0
   36.7410   25.3600   34.3740 H   0  0  0  0  0  0  0  0  0  0  0  0
   36.5580   25.2300   31.8550 H   0  0  0  0  0  0  0  0  0  0  0  0
   38.2540   24.4410   31.7860 H   0  0  0  0  0  0  0  0  0  0  0  0
   37.3880   27.5660   32.8600 C   0  0  0  0  0  0  0  0  0  0  0  0
   36.5990   27.9440   33.9470 C   0  0  0  0  0  0  0  0  0  0  0  0
   35.8510   29.1060   33.7520 C   0  0  0  0  0  0  0  0  0  0  0  0
   35.9160   29.7940   32.5610 N   0  0  0  0  0  0  0  0  0  0  0  0
   36.7050   29.3730   31.5380 C   0  0  0  0  0  0  0  0  0  0  0  0
   37.4540   28.2340   31.6970 N   0  0  0  0  0  0  0  0  0  0  0  0
   36.5690   27.3890   34.8580 H   0  0  0  0  0  0  0  0  0  0  0  0
   35.2150   29.4590   34.5540 H   0  0  0  0  0  0  0  0  0  0  0  0
   36.7230   29.9450   30.6220 H   0  0  0  0  0  0  0  0  0  0  0  0
   38.6970   24.3430   34.5480 C   0  0  0  0  0  0  0  0  0  0  0  0
   39.0630   23.5160   33.8840 H   0  0  0  0  0  0  0  0  0  0  0  0
   39.5490   24.9920   34.8290 H   0  0  0  0  0  0  0  0  0  0  0  0
   38.1740   23.7090   35.7240 N   0  0  0  0  0  0  0  0  0  0  0  0
   38.0740   24.5940   36.8690 C   0  0  0  0  0  3  0  0  0  0  0  0
   37.1300   25.1710   36.7510 H   0  0  0  0  0  0  0  0  0  0  0  0
   37.8870   23.6960   38.0980 C   0  0  0  0  0  3  0  0  0  0  0  0
   37.1550   22.8990   37.8900 H   0  0  0  0  0  0  0  0  0  0  0  0
   39.1090   23.1140   38.3870 O   0  0  0  0  0  0  0  0  0  0  0  0
   39.8400   22.8850   37.2110 C   0  0  0  0  0  2  0  0  0  0  0  0
   38.8550   22.5240   36.1180 C   0  0  0  0  0  2  0  0  0  0  0  0
  1  4  1  6  0  0  0
  1  2  1  0  0  0  0
  2  5  1  1  0  0  0
  2 17  1  0  0  0  0
  3  1  1  0  0  0  0
  3  2  1  0  0  0  0
  6  3  1  0  0  0  0
  7  3  1  0  0  0  0
  8  1  1  0  0  0  0
  8  9  1  0  0  0  0
  9 14  1  0  0  0  0
 10  9  2  0  0  0  0
 10 15  1  0  0  0  0
 11 10  1  0  0  0  0
 12 13  1  0  0  0  0
 12 11  2  0  0  0  0
 13  8  2  0  0  0  0
 16 12  1  0  0  0  0
 17 19  1  0  0  0  0
 17 20  1  0  0  0  0
 18 17  1  0  0  0  0
 20 27  1  0  0  0  0
 20 21  1  0  0  0  0
 21 23  1  0  0  0  0
 22 21  1  0  0  0  0
 23 25  1  0  0  0  0
 24 23  1  0  0  0  0
 26 25  1  0  0  0  0
 27 26  1  0  0  0  0
M  END
>  <minimizedAffinity>
-4.0480299

$$$$

 OpenBabel03272501133D

 27 29  0  0  1  0  0  0  0  0999 V2000
   39.6430   26.2830   35.1570 C   0  0  1  0  0  0  0  0  0  0  0  0
   40.3780   25.1990   34.5470 C   0  0  1  0  0  0  0  0  0  0  0  0
   40.9850   26.5820   34.4910 C   0  0  0  0  0  0  0  0  0  0  0  0
   39.6120   26.4810   36.2480 H   0  0  0  0  0  0  0  0  0  0  0  0
   39.9900   24.8170   33.5730 H   0  0  0  0  0  0  0  0  0  0  0  0
   40.9960   27.1370   33.5400 H   0  0  0  0  0  0  0  0  0  0  0  0
   41.8180   26.7890   35.1850 H   0  0  0  0  0  0  0  0  0  0  0  0
   38.4860   26.9520   34.4480 C   0  0  0  0  0  0  0  0  0  0  0  0
   37.6100   27.6780   35.2560 C   0  0  0  0  0  0  0  0  0  0  0  0
   36.5380   28.2620   34.5800 C   0  0  0  0  0  0  0  0  0  0  0  0
   36.3940   28.1040   33.2190 N   0  0  0  0  0  0  0  0  0  0  0  0
   37.2830   27.3820   32.4880 C   0  0  0  0  0  0  0  0  0  0  0  0
   38.3490   26.7960   33.1220 N   0  0  0  0  0  0  0  0  0  0  0  0
   37.7470   27.7810   36.3090 H   0  0  0  0  0  0  0  0  0  0  0  0
   35.8170   28.8410   35.1430 H   0  0  0  0  0  0  0  0  0  0  0  0
   37.1290   27.2860   31.4230 H   0  0  0  0  0  0  0  0  0  0  0  0
   40.9480   24.1420   35.4490 C   0  0  0  0  0  0  0  0  0  0  0  0
   41.8770   23.7050   34.9970 H   0  0  0  0  0  0  0  0  0  0  0  0
   41.2000   24.6200   36.4150 H   0  0  0  0  0  0  0  0  0  0  0  0
   40.0600   23.0390   35.6810 N   0  0  0  0  0  0  0  0  0  0  0  0
   38.8950   23.0360   34.8170 C   0  0  0  0  0  3  0  0  0  0  0  0
   39.2090   22.5880   33.8490 H   0  0  0  0  0  0  0  0  0  0  0  0
   37.8900   22.0610   35.4440 C   0  0  0  0  0  3  0  0  0  0  0  0
   38.3960   21.1390   35.7720 H   0  0  0  0  0  0  0  0  0  0  0  0
   37.3330   22.6800   36.5490 O   0  0  0  0  0  0  0  0  0  0  0  0
   38.2650   23.5280   37.1660 C   0  0  0  0  0  2  0  0  0  0  0  0
   39.6320   22.8890   37.0290 C   0  0  0  0  0  2  0  0  0  0  0  0
  1  4  1  1  0  0  0
  2  5  1  6  0  0  0
  2  1  1  0  0  0  0
  2 17  1  0  0  0  0
  3  2  1  0  0  0  0
  3  1  1  0  0  0  0
  3  7  1  0  0  0  0
  6  3  1  0  0  0  0
  8  1  1  0  0  0  0
  8  9  1  0  0  0  0
  9 14  1  0  0  0  0
 10 15  1  0  0  0  0
 10  9  2  0  0  0  0
 11 10  1  0  0  0  0
 12 13  1  0  0  0  0
 12 11  2  0  0  0  0
 13  8  2  0  0  0  0
 16 12  1  0  0  0  0
 17 20  1  0  0  0  0
 17 19  1  0  0  0  0
 18 17  1  0  0  0  0
 20 27  1  0  0  0  0
 21 23  1  0  0  0  0
 21 20  1  0  0  0  0
 22 21  1  0  0  0  0
 23 24  1  0  0  0  0
 23 25  1  0  0  0  0
 25 26  1  0  0  0  0
 27 26  1  0  0  0  0
M  END
>  <minimizedAffinity>
-4.0310359

$$$$

 OpenBabel03272501133D

 27 29  0  0  1  0  0  0  0  0999 V2000
   39.8120   24.7050   34.4000 C   0  0  1  0  0  0  0  0  0  0  0  0
   38.9240   25.4560   33.5430 C   0  0  1  0  0  0  0  0  0  0  0  0
   39.9330   26.2280   34.3610 C   0  0  0  0  0  0  0  0  0  0  0  0
   40.7100   24.1590   34.0450 H   0  0  0  0  0  0  0  0  0  0  0  0
   37.8670   25.5580   33.8850 H   0  0  0  0  0  0  0  0  0  0  0  0
   39.6000   26.8110   35.2330 H   0  0  0  0  0  0  0  0  0  0  0  0
   40.8170   26.6150   33.8240 H   0  0  0  0  0  0  0  0  0  0  0  0
   39.3640   24.1980   35.7520 C   0  0  0  0  0  0  0  0  0  0  0  0
   40.2320   23.3120   36.3930 C   0  0  0  0  0  0  0  0  0  0  0  0
   39.7810   22.8390   37.6260 C   0  0  0  0  0  0  0  0  0  0  0  0
   38.5660   23.2410   38.1330 N   0  0  0  0  0  0  0  0  0  0  0  0
   37.7650   24.1070   37.4580 C   0  0  0  0  0  0  0  0  0  0  0  0
   38.1780   24.5920   36.2430 N   0  0  0  0  0  0  0  0  0  0  0  0
   41.1680   23.0180   35.9740 H   0  0  0  0  0  0  0  0  0  0  0  0
   40.4030   22.1470   38.1800 H   0  0  0  0  0  0  0  0  0  0  0  0
   36.8200   24.3950   37.8950 H   0  0  0  0  0  0  0  0  0  0  0  0
   39.0870   25.3050   32.0570 C   0  0  0  0  0  0  0  0  0  0  0  0
   39.6110   26.2000   31.6310 H   0  0  0  0  0  0  0  0  0  0  0  0
   39.6980   24.4000   31.8740 H   0  0  0  0  0  0  0  0  0  0  0  0
   37.8460   25.1930   31.3470 N   0  0  0  0  0  0  0  0  0  0  0  0
   36.6760   25.2420   32.2050 C   0  0  0  0  0  3  0  0  0  0  0  0
   36.4700   26.3160   32.4100 H   0  0  0  0  0  0  0  0  0  0  0  0
   35.5000   24.7240   31.3670 C   0  0  0  0  0  3  0  0  0  0  0  0
   35.5210   25.1590   30.3550 H   0  0  0  0  0  0  0  0  0  0  0  0
   35.6290   23.3500   31.2630 O   0  0  0  0  0  0  0  0  0  0  0  0
   36.9810   22.9770   31.2380 C   0  0  0  0  0  2  0  0  0  0  0  0
   37.7430   24.0570   30.4960 C   0  0  0  0  0  2  0  0  0  0  0  0
  1  4  1  6  0  0  0
  1  8  1  0  0  0  0
  2  5  1  1  0  0  0
  2  3  1  0  0  0  0
  2  1  1  0  0  0  0
  3  1  1  0  0  0  0
  3  6  1  0  0  0  0
  7  3  1  0  0  0  0
  8 13  2  0  0  0  0
  8  9  1  0  0  0  0
  9 10  2  0  0  0  0
 10 11  1  0  0  0  0
 10 15  1  0  0  0  0
 12 16  1  0  0  0  0
 12 11  2  0  0  0  0
 13 12  1  0  0  0  0
 14  9  1  0  0  0  0
 17  2  1  0  0  0  0
 18 17  1  0  0  0  0
 19 17  1  0  0  0  0
 20 17  1  0  0  0  0
 20 21  1  0  0  0  0
 21 22  1  0  0  0  0
 23 21  1  0  0  0  0
 24 23  1  0  0  0  0
 25 23  1  0  0  0  0
 26 25  1  0  0  0  0
 27 26  1  0  0  0  0
 27 20  1  0  0  0  0
M  END
>  <minimizedAffinity>
-4.022048

$$$$

 OpenBabel03272501133D

 27 29  0  0  1  0  0  0  0  0999 V2000
   39.4540   23.2370   37.0460 C   0  0  1  0  0  0  0  0  0  0  0  0
   38.7890   23.9370   35.9710 C   0  0  1  0  0  0  0  0  0  0  0  0
   38.3860   22.5050   36.2360 C   0  0  0  0  0  0  0  0  0  0  0  0
   39.2140   23.3690   38.1200 H   0  0  0  0  0  0  0  0  0  0  0  0
   39.3780   24.0930   35.0360 H   0  0  0  0  0  0  0  0  0  0  0  0
   38.6950   21.7110   35.5400 H   0  0  0  0  0  0  0  0  0  0  0  0
   37.4260   22.3470   36.7590 H   0  0  0  0  0  0  0  0  0  0  0  0
   40.8290   22.6330   36.8650 C   0  0  0  0  0  0  0  0  0  0  0  0
   41.6960   23.3250   36.0170 C   0  0  0  0  0  0  0  0  0  0  0  0
   42.9470   22.7300   35.8480 C   0  0  0  0  0  0  0  0  0  0  0  0
   43.2580   21.5500   36.4850 N   0  0  0  0  0  0  0  0  0  0  0  0
   42.3680   20.9240   37.2990 C   0  0  0  0  0  0  0  0  0  0  0  0
   41.1290   21.4820   37.4880 N   0  0  0  0  0  0  0  0  0  0  0  0
   41.4250   24.2370   35.5360 H   0  0  0  0  0  0  0  0  0  0  0  0
   43.6720   23.2120   35.2030 H   0  0  0  0  0  0  0  0  0  0  0  0
   42.6560   20.0000   37.7780 H   0  0  0  0  0  0  0  0  0  0  0  0
   37.8790   25.0760   36.3320 C   0  0  0  0  0  0  0  0  0  0  0  0
   36.8150   24.7220   36.3790 H   0  0  0  0  0  0  0  0  0  0  0  0
   38.1850   25.4530   37.3260 H   0  0  0  0  0  0  0  0  0  0  0  0
   37.8990   26.1540   35.3860 N   0  0  0  0  0  0  0  0  0  0  0  0
   38.0680   25.7220   34.0110 C   0  0  0  0  0  3  0  0  0  0  0  0
   37.0660   25.4100   33.6440 H   0  0  0  0  0  0  0  0  0  0  0  0
   38.4590   26.9700   33.2080 C   0  0  0  0  0  3  0  0  0  0  0  0
   37.8310   27.8290   33.4940 H   0  0  0  0  0  0  0  0  0  0  0  0
   39.7790   27.2650   33.5010 O   0  0  0  0  0  0  0  0  0  0  0  0
   40.0820   26.9200   34.8270 C   0  0  0  0  0  2  0  0  0  0  0  0
   38.8470   27.1770   35.6660 C   0  0  0  0  0  2  0  0  0  0  0  0
  1  4  1  1  0  0  0
  2  5  1  6  0  0  0
  2  3  1  0  0  0  0
  2 17  1  0  0  0  0
  2  1  1  0  0  0  0
  3  7  1  0  0  0  0
  3  1  1  0  0  0  0
  6  3  1  0  0  0  0
  8  1  1  0  0  0  0
  8 13  1  0  0  0  0
  9  8  2  0  0  0  0
 10  9  1  0  0  0  0
 10 11  2  0  0  0  0
 11 12  1  0  0  0  0
 12 13  2  0  0  0  0
 12 16  1  0  0  0  0
 14  9  1  0  0  0  0
 15 10  1  0  0  0  0
 17 18  1  0  0  0  0
 17 19  1  0  0  0  0
 20 27  1  0  0  0  0
 20 17  1  0  0  0  0
 21 20  1  0  0  0  0
 22 21  1  0  0  0  0
 23 24  1  0  0  0  0
 23 25  1  0  0  0  0
 23 21  1  0  0  0  0
 25 26  1  0  0  0  0
 26 27  1  0  0  0  0
M  END
>  <minimizedAffinity>
-4.01542187

$$$$

 OpenBabel03272501133D

 27 29  0  0  1  0  0  0  0  0999 V2000
   38.3520   26.0790   34.7440 C   0  0  1  0  0  0  0  0  0  0  0  0
   37.1420   26.8420   34.9460 C   0  0  1  0  0  0  0  0  0  0  0  0
   38.2080   26.9140   36.0140 C   0  0  0  0  0  0  0  0  0  0  0  0
   39.1810   26.3880   34.0750 H   0  0  0  0  0  0  0  0  0  0  0  0
   36.2290   26.2660   35.2320 H   0  0  0  0  0  0  0  0  0  0  0  0
   38.0560   26.4000   36.9760 H   0  0  0  0  0  0  0  0  0  0  0  0
   38.8210   27.8330   36.0450 H   0  0  0  0  0  0  0  0  0  0  0  0
   38.4090   24.5960   35.0330 C   0  0  0  0  0  0  0  0  0  0  0  0
   38.9690   24.2310   36.2590 C   0  0  0  0  0  0  0  0  0  0  0  0
   39.0330   22.8560   36.4870 C   0  0  0  0  0  0  0  0  0  0  0  0
   38.5700   21.9630   35.5470 N   0  0  0  0  0  0  0  0  0  0  0  0
   38.0350   22.3830   34.3700 C   0  0  0  0  0  0  0  0  0  0  0  0
   37.9560   23.7280   34.1140 N   0  0  0  0  0  0  0  0  0  0  0  0
   39.3210   24.9470   36.9670 H   0  0  0  0  0  0  0  0  0  0  0  0
   39.4570   22.5000   37.4180 H   0  0  0  0  0  0  0  0  0  0  0  0
   37.6850   21.6450   33.6630 H   0  0  0  0  0  0  0  0  0  0  0  0
   36.8840   28.0050   34.0320 C   0  0  0  0  0  0  0  0  0  0  0  0
   35.9580   28.5530   34.3520 H   0  0  0  0  0  0  0  0  0  0  0  0
   37.7540   28.6860   34.0960 H   0  0  0  0  0  0  0  0  0  0  0  0
   36.6720   27.6310   32.6640 N   0  0  0  0  0  0  0  0  0  0  0  0
   37.7870   27.9510   31.7920 C   0  0  0  0  0  3  0  0  0  0  0  0
   38.5330   27.1340   31.9070 H   0  0  0  0  0  0  0  0  0  0  0  0
   37.2560   27.8590   30.3550 C   0  0  0  0  0  3  0  0  0  0  0  0
   36.6340   26.9580   30.2280 H   0  0  0  0  0  0  0  0  0  0  0  0
   36.4750   28.9770   30.1200 O   0  0  0  0  0  0  0  0  0  0  0  0
   35.8220   29.3820   31.2930 C   0  0  0  0  0  2  0  0  0  0  0  0
   35.4760   28.1360   32.0830 C   0  0  0  0  0  2  0  0  0  0  0  0
  1  4  1  6  0  0  0
  1  2  1  0  0  0  0
  1  8  1  0  0  0  0
  1  3  1  0  0  0  0
  2  5  1  1  0  0  0
  2  3  1  0  0  0  0
  3  7  1  0  0  0  0
  3  6  1  0  0  0  0
  8  9  1  0  0  0  0
  9 10  2  0  0  0  0
  9 14  1  0  0  0  0
 10 15  1  0  0  0  0
 11 10  1  0  0  0  0
 12 11  2  0  0  0  0
 13 12  1  0  0  0  0
 13  8  2  0  0  0  0
 16 12  1  0  0  0  0
 17 19  1  0  0  0  0
 17 18  1  0  0  0  0
 17  2  1  0  0  0  0
 20 17  1  0  0  0  0
 21 22  1  0  0  0  0
 21 20  1  0  0  0  0
 23 21  1  0  0  0  0
 24 23  1  0  0  0  0
 25 23  1  0  0  0  0
 25 26  1  0  0  0  0
 26 27  1  0  0  0  0
 27 20  1  0  0  0  0
M  END
>  <minimizedAffinity>
-4.0024271

$$$$
