
 OpenBabel03272503533D

 43 46  0  0  1  0  0  0  0  0999 V2000
   36.5330   30.2040   46.0310 C   0  0  1  0  0  0  0  0  0  0  0  0
   35.1390   30.2090   45.3470 C   0  0  0  0  0  0  0  0  0  0  0  0
   35.3580   29.3460   44.0880 C   0  0  0  0  0  0  0  0  0  0  0  0
   36.1840   30.1790   43.1650 C   0  0  0  0  0  0  0  0  0  0  0  0
   37.5160   30.4970   43.8000 C   0  0  0  0  0  0  0  0  0  0  0  0
   37.3730   31.0990   45.1690 C   0  0  2  0  0  0  0  0  0  0  0  0
   36.8110   29.1390   46.0120 H   0  0  0  0  0  0  0  0  0  0  0  0
   34.9270   31.2540   45.0400 H   0  0  0  0  0  0  0  0  0  0  0  0
   34.3670   29.7860   46.0060 H   0  0  0  0  0  0  0  0  0  0  0  0
   35.9090   28.4430   44.4430 H   0  0  0  0  0  0  0  0  0  0  0  0
   34.3810   29.1020   43.6660 H   0  0  0  0  0  0  0  0  0  0  0  0
   35.6130   31.1190   42.9860 H   0  0  0  0  0  0  0  0  0  0  0  0
   36.4020   29.6330   42.2330 H   0  0  0  0  0  0  0  0  0  0  0  0
   38.1080   29.5760   43.7730 H   0  0  0  0  0  0  0  0  0  0  0  0
   37.9850   31.2540   43.1380 H   0  0  0  0  0  0  0  0  0  0  0  0
   36.8160   32.0590   45.0190 H   0  0  0  0  0  0  0  0  0  0  0  0
   35.5740   30.1550   48.3500 C   0  0  0  0  0  0  0  0  0  0  0  0
   35.6060   30.5900   49.6680 C   0  0  0  0  0  0  0  0  0  0  0  0
   36.5460   31.5470   50.0730 C   0  0  0  0  0  0  0  0  0  0  0  0
   37.4240   32.0280   49.1180 C   0  0  0  0  0  0  0  0  0  0  0  0
   37.4000   31.6030   47.8150 C   0  0  0  0  0  0  0  0  0  0  0  0
   36.4470   30.6400   47.4250 C   0  0  0  0  0  0  0  0  0  0  0  0
   34.9240   30.2210   50.4250 H   0  0  0  0  0  0  0  0  0  0  0  0
   36.5960   31.9060   51.0940 H   0  0  0  0  0  0  0  0  0  0  0  0
   38.1440   32.7730   49.4720 H   0  0  0  0  0  0  0  0  0  0  0  0
   38.1370   32.0600   47.1770 H   0  0  0  0  0  0  0  0  0  0  0  0
   33.5800   26.9690   47.9760 C   0  0  0  0  0  0  0  0  0  0  0  0
   34.6550   27.8170   48.3090 C   0  0  0  0  0  0  0  0  0  0  0  0
   34.5440   29.1810   48.0470 C   0  0  0  0  0  0  0  0  0  0  0  0
   33.3930   29.5910   47.4830 N   0  0  0  0  0  0  0  0  0  0  0  0
   32.3680   28.7790   47.1650 C   0  0  0  0  0  0  0  0  0  0  0  0
   32.4690   27.4820   47.4130 N   0  0  0  0  0  0  0  0  0  0  0  0
   33.7340   25.9270   48.2060 H   0  0  0  0  0  0  0  0  0  0  0  0
   35.5750   27.4940   48.7590 H   0  0  0  0  0  0  0  0  0  0  0  0
   31.5060   29.2320   46.7210 H   0  0  0  0  0  0  0  0  0  0  0  0
   38.6380   31.4220   45.7210 N   0  0  2  0  0  0  0  0  0  0  0  0
   38.9440   32.8040   45.5570 C   0  0  0  0  0  3  0  0  0  0  0  0
   38.0840   33.4510   45.3990 H   0  0  0  0  0  0  0  0  0  0  0  0
   40.0250   33.0040   44.5210 C   0  0  0  0  0  3  0  0  0  0  0  0
   40.1970   34.1010   44.4090 H   0  0  0  0  0  0  0  0  0  0  0  0
   41.2090   32.4330   44.9690 O   0  0  0  0  0  0  0  0  0  0  0  0
   41.0550   31.1880   45.5410 C   0  0  0  0  0  2  0  0  0  0  0  0
   39.7120   30.5550   45.3290 C   0  0  0  0  0  2  0  0  0  0  0  0
  1  7  1  6  0  0  0
  1 22  1  0  0  0  0
  2  9  1  0  0  0  0
  2  1  1  0  0  0  0
  3 10  1  0  0  0  0
  3  2  1  0  0  0  0
  4  5  1  0  0  0  0
  4  3  1  0  0  0  0
  5  6  1  0  0  0  0
  6 16  1  6  0  0  0
  6 36  1  0  0  0  0
  6  1  1  0  0  0  0
  8  2  1  0  0  0  0
 11  3  1  0  0  0  0
 12  4  1  0  0  0  0
 13  4  1  0  0  0  0
 14  5  1  0  0  0  0
 15  5  1  0  0  0  0
 17 18  1  0  0  0  0
 18 19  2  0  0  0  0
 18 23  1  0  0  0  0
 19 24  1  0  0  0  0
 20 25  1  0  0  0  0
 20 19  1  0  0  0  0
 21 20  2  0  0  0  0
 22 21  1  0  0  0  0
 22 17  2  0  0  0  0
 26 21  1  0  0  0  0
 27 33  1  0  0  0  0
 27 28  1  0  0  0  0
 28 34  1  0  0  0  0
 29 28  2  0  0  0  0
 29 17  1  0  0  0  0
 30 29  1  0  0  0  0
 31 32  1  0  0  0  0
 31 30  2  0  0  0  0
 32 27  2  0  0  0  0
 35 31  1  0  0  0  0
 36 43  1  6  0  0  0
 37 36  1  0  0  0  0
 38 37  1  0  0  0  0
 39 41  1  0  0  0  0
 39 37  1  0  0  0  0
 40 39  1  0  0  0  0
 41 42  1  0  0  0  0
 43 42  1  0  0  0  0
M  END
>  <minimizedAffinity>
-5.83734608

>  <minimizedRMSD>
3.37145686

$$$$
