REMARK  Name = 
REMARK  4 active torsions:
REMARK  status: ('A' for Active; 'I' for Inactive)
REMARK    1  A    between atoms: N_12  and  C_22
REMARK    2  A    between atoms: O_20  and  C_21
REMARK    3  A    between atoms: C_25  and  O_26
REMARK    4  A    between atoms: C_27  and  O_28
REMARK                            x       y       z     vdW  Elec       q    Type
REMARK                         _______ _______ _______ _____ _____    ______ ____
ROOT
ATOM      1  C   UNL     1      37.777  30.682  50.607  0.00  0.00    +0.000 A 
ATOM      2  C   UNL     1      38.456  31.612  49.779  0.00  0.00    +0.000 A 
ATOM      3  C   UNL     1      37.925  31.862  48.498  0.00  0.00    +0.000 A 
ATOM      4  N   UNL     1      36.807  31.197  48.149  0.00  0.00    +0.000 NA
ATOM      5  C   UNL     1      36.183  30.319  48.956  0.00  0.00    +0.000 A 
ATOM      6  N   UNL     1      36.661  30.055  50.187  0.00  0.00    +0.000 NA
ATOM      7  N   UNL     1      35.001  29.612  48.599  0.00  0.00    +0.000 N 
ATOM      8  C   UNL     1      34.754  29.427  47.292  0.00  0.00    +0.000 A 
ATOM      9  C   UNL     1      33.591  28.733  47.013  0.00  0.00    +0.000 A 
ATOM     10  C   UNL     1      32.723  28.249  47.986  0.00  0.00    +0.000 A 
ATOM     11  O   UNL     1      31.673  27.621  47.716  0.00  0.00    +0.000 OA
ATOM     12  N   UNL     1      33.038  28.473  49.306  0.00  0.00    +0.000 N 
ATOM     13  C   UNL     1      34.174  29.151  49.542  0.00  0.00    +0.000 A 
ATOM     14  O   UNL     1      34.496  29.376  50.759  0.00  0.00    +0.000 OA
ATOM     15  H   UNL     1      38.162  30.461  51.614  0.00  0.00    +0.000 HD
ATOM     16  H   UNL     1      39.335  32.102  50.117  0.00  0.00    +0.000 HD
ATOM     17  H   UNL     1      38.403  32.562  47.825  0.00  0.00    +0.000 HD
ATOM     18  H   UNL     1      35.406  29.790  46.509  0.00  0.00    +0.000 HD
ATOM     19  H   UNL     1      33.339  28.554  45.974  0.00  0.00    +0.000 HD
ENDROOT
BRANCH  12  21
ATOM     20  C   UNL     1      31.818  26.562  49.981  0.00  0.00    +0.000 C 
ATOM     21  C   UNL     1      32.153  27.981  50.345  0.00  0.00    +0.000 C 
ATOM     22  O   UNL     1      31.030  28.768  50.390  0.00  0.00    +0.000 OA
ATOM     23  C   UNL     1      30.172  28.366  51.385  0.00  0.00    +0.000 C 
ATOM     24  C   UNL     1      29.678  26.956  51.265  0.00  0.00    +0.000 C 
ATOM     25  C   UNL     1      30.672  25.978  50.730  0.00  0.00    +0.000 C 
BRANCH  20  26
ATOM     26  O   UNL     1      31.580  26.556  48.606  0.00  0.00    +0.000 OA
ATOM     27  H   UNL     1      32.270  26.053  48.102  0.00  0.00    +0.000 HD
ENDBRANCH  20  26
BRANCH  24  28
ATOM     28  O   UNL     1      28.472  26.928  50.566  0.00  0.00    +0.000 OA
ATOM     29  H   UNL     1      27.971  26.135  50.891  0.00  0.00    +0.000 HD
ENDBRANCH  24  28
BRANCH  25  30
ATOM     30  O   UNL     1      31.167  25.132  51.721  0.00  0.00    +0.000 OA
ATOM     31  H   UNL     1      30.476  24.533  52.097  0.00  0.00    +0.000 HD
ENDBRANCH  25  30
ENDBRANCH  12  21
TORSDOF 4
