
 OpenBabel03272504233D

 42 44  0  0  1  0  0  0  0  0999 V2000
   38.8540   32.4680   47.8740 C   0  0  2  0  0  0  0  0  0  0  0  0
   38.1840   31.4110   48.7240 C   0  0  1  0  0  0  0  0  0  0  0  0
   38.6820   31.8920   50.0900 C   0  0  0  0  0  0  0  0  0  0  0  0
   38.3420   33.2320   50.0390 O   0  0  0  0  0  0  0  0  0  0  0  0
   38.6410   33.6860   48.7700 C   0  0  0  0  0  0  0  0  0  0  0  0
   39.9340   32.2830   47.7620 H   0  0  0  0  0  0  0  0  0  0  0  0
   38.5140   30.3890   48.4990 H   0  0  0  0  0  0  0  0  0  0  0  0
   38.1400   31.4060   50.9130 H   0  0  0  0  0  0  0  0  0  0  0  0
   39.7820   31.7790   50.1380 H   0  0  0  0  0  0  0  0  0  0  0  0
   39.5350   34.3380   48.8020 H   0  0  0  0  0  0  0  0  0  0  0  0
   37.8010   34.3180   48.4210 H   0  0  0  0  0  0  0  0  0  0  0  0
   36.8270   31.6120   48.6260 O   0  0  0  0  0  0  0  0  0  0  0  0
   35.9030   29.8460   46.9530 O   0  0  0  0  0  0  0  0  0  0  0  0
   35.9590   30.1860   48.4110 P   0  0  1  0  0  0  0  0  0  0  0  0
   36.7750   28.9010   49.2200 O   0  0  0  0  0  0  0  0  0  0  0  0
   37.1080   29.3060   50.0710 H   0  0  0  0  0  0  0  0  0  0  0  0
   34.4050   30.3440   49.0640 O   0  0  0  0  0  0  0  0  0  0  0  0
   34.1460   29.2000   49.7920 C   0  0  0  0  0  0  0  0  0  0  0  0
   33.5820   29.5060   50.7190 H   0  0  0  0  0  0  0  0  0  0  0  0
   35.0720   28.7050   50.1390 H   0  0  0  0  0  0  0  0  0  0  0  0
   33.2840   28.2290   49.0820 C   0  0  0  0  0  0  0  0  0  0  0  0
   33.9150   27.3380   48.2470 C   0  0  0  0  0  0  0  0  0  0  0  0
   33.1590   26.3940   47.5480 C   0  0  0  0  0  0  0  0  0  0  0  0
   31.8090   26.4190   47.7420 N   0  0  0  0  0  0  0  0  0  0  0  0
   31.2130   27.3010   48.5670 C   0  0  0  0  0  0  0  0  0  0  0  0
   31.9490   28.2100   49.2390 N   0  0  0  0  0  0  0  0  0  0  0  0
   34.9640   27.2420   48.0300 H   0  0  0  0  0  0  0  0  0  0  0  0
   33.5600   25.6580   46.8730 H   0  0  0  0  0  0  0  0  0  0  0  0
   30.1290   27.2420   48.6560 H   0  0  0  0  0  0  0  0  0  0  0  0
   38.1750   32.5580   46.6710 O   0  0  0  0  0  0  0  0  0  0  0  0
   38.2890   31.1490   44.8000 C   0  0  1  0  0  0  0  0  0  0  0  0
   38.9680   32.2620   45.5740 C   0  0  2  0  0  0  0  0  0  0  0  0
   40.1600   31.7230   46.0160 O   0  0  0  0  0  0  0  0  0  0  0  0
   41.0540   31.4120   45.0280 C   0  0  0  0  0  0  0  0  0  0  0  0
   40.5210   31.2120   43.6680 C   0  0  2  0  0  0  0  0  0  0  0  0
   39.0580   31.0770   43.4960 C   0  0  1  0  0  0  0  0  0  0  0  0
   38.4660   29.9050   45.4240 O   0  0  0  0  0  0  0  0  0  0  0  0
   38.7880   30.0040   46.3530 H   0  0  0  0  0  0  0  0  0  0  0  0
   41.1080   30.0410   43.1280 O   0  0  0  0  0  0  0  0  0  0  0  0
   41.5990   29.5260   43.8190 H   0  0  0  0  0  0  0  0  0  0  0  0
   38.6890   29.9210   42.7900 O   0  0  0  0  0  0  0  0  0  0  0  0
   37.9370   29.4400   43.2350 H   0  0  0  0  0  0  0  0  0  0  0  0
  1  6  1  6  0  0  0
  1  2  1  0  0  0  0
  1  5  1  0  0  0  0
  2  7  1  6  0  0  0
  2  3  1  0  0  0  0
  3  9  1  0  0  0  0
  3  8  1  0  0  0  0
  4  3  1  0  0  0  0
  5 10  1  0  0  0  0
  5  4  1  0  0  0  0
 11  5  1  0  0  0  0
 12  2  1  0  0  0  0
 14 13  2  6  0  0  0
 14 12  1  0  0  0  0
 14 17  1  0  0  0  0
 14 15  1  0  0  0  0
 15 16  1  0  0  0  0
 17 18  1  0  0  0  0
 18 20  1  0  0  0  0
 18 19  1  0  0  0  0
 21 26  1  0  0  0  0
 21 18  1  0  0  0  0
 22 21  2  0  0  0  0
 23 24  2  0  0  0  0
 23 22  1  0  0  0  0
 24 25  1  0  0  0  0
 25 29  1  0  0  0  0
 25 26  2  0  0  0  0
 27 22  1  0  0  0  0
 28 23  1  0  0  0  0
 30  1  1  0  0  0  0
 31 37  1  1  0  0  0
 31 32  1  0  0  0  0
 32 33  1  0  0  0  0
 32 30  1  1  0  0  0
 34 33  1  0  0  0  0
 35 39  1  1  0  0  0
 35 34  1  0  0  0  0
 36 41  1  1  0  0  0
 36 35  1  0  0  0  0
 36 31  1  0  0  0  0
 37 38  1  0  0  0  0
 39 40  1  0  0  0  0
 41 42  1  0  0  0  0
M  END
>  <minimizedAffinity>
-5.25931406

>  <minimizedRMSD>
0.387507617

$$$$
