
 OpenBabel03272509443D

 41 43  0  0  1  0  0  0  0  0999 V2000
   36.7110   28.4720   32.4500 C   0  0  0  0  0  0  0  0  0  0  0  0
   36.2190   29.5510   31.7150 C   0  0  0  0  0  0  0  0  0  0  0  0
   35.4920   30.5730   32.3140 C   0  0  0  0  0  0  0  0  0  0  0  0
   35.2470   30.5230   33.6890 C   0  0  0  0  0  0  0  0  0  0  0  0
   35.7360   29.4600   34.3930 C   0  0  0  0  0  0  0  0  0  0  0  0
   36.4560   28.4580   33.7620 C   0  0  0  0  0  0  0  0  0  0  0  0
   36.4210   29.5750   30.6400 H   0  0  0  0  0  0  0  0  0  0  0  0
   35.1620   31.3520   31.6520 H   0  0  0  0  0  0  0  0  0  0  0  0
   34.6820   31.3520   34.0650 H   0  0  0  0  0  0  0  0  0  0  0  0
   35.4640   29.5620   35.4460 H   0  0  0  0  0  0  0  0  0  0  0  0
   37.4340   27.3890   31.8190 C   0  0  2  0  0  0  0  0  0  0  0  0
   37.3960   27.6170   30.6850 H   0  0  0  0  0  0  0  0  0  0  0  0
   37.0340   23.7820   31.9830 C   0  0  0  0  0  0  0  0  0  0  0  0
   35.7600   23.5640   31.4910 C   0  0  0  0  0  0  0  0  0  0  0  0
   35.0430   24.6530   31.0350 C   0  0  0  0  0  0  0  0  0  0  0  0
   35.6130   25.9080   31.0860 N   0  0  0  0  0  0  0  0  0  0  0  0
   36.8300   26.0500   31.5690 C   0  0  0  0  0  0  0  0  0  0  0  0
   37.5430   25.0010   32.0140 N   0  0  0  0  0  0  0  0  0  0  0  0
   37.5690   22.9080   32.3320 H   0  0  0  0  0  0  0  0  0  0  0  0
   35.2460   22.6120   31.4200 H   0  0  0  0  0  0  0  0  0  0  0  0
   34.0370   24.6270   30.6230 H   0  0  0  0  0  0  0  0  0  0  0  0
   38.7100   27.5020   31.9550 O   0  0  0  0  0  0  0  0  0  0  0  0
   39.0020   27.5510   32.9200 H   0  0  0  0  0  0  0  0  0  0  0  0
   36.8900   27.3800   34.6200 C   0  0  0  0  0  3  0  0  0  0  0  0
   37.9340   27.4650   35.4520 C   0  0  0  0  0  3  0  0  0  0  0  0
   38.4400   26.4460   36.4010 C   0  0  0  0  0  0  0  0  0  0  0  0
   39.5560   26.5110   36.5440 H   0  0  0  0  0  0  0  0  0  0  0  0
   37.9960   26.6160   37.3990 H   0  0  0  0  0  0  0  0  0  0  0  0
   38.0380   24.8060   35.7920 S   0  0  0  0  0  0  0  0  0  0  0  0
   39.5150   22.6020   36.2210 C   0  0  1  0  0  3  0  0  0  0  0  0
   39.4580   23.8250   35.3220 C   0  0  2  0  0  3  0  0  0  0  0  0
   40.6370   24.5550   35.3730 O   0  0  0  0  0  0  0  0  0  0  0  0
   41.7070   23.6720   35.1900 C   0  0  0  0  0  2  0  0  0  0  0  0
   41.9200   23.0000   36.5280 C   0  0  1  0  0  3  0  0  0  0  0  0
   40.6240   22.7240   37.2550 C   0  0  2  0  0  3  0  0  0  0  0  0
   38.3250   22.4590   36.9370 O   0  0  0  0  0  0  0  0  0  0  0  0
   37.5490   22.8900   36.4960 H   0  0  0  0  0  0  0  0  0  0  0  0
   42.5490   21.7890   36.3460 O   0  0  0  0  0  0  0  0  0  0  0  0
   42.8790   21.6590   35.4410 H   0  0  0  0  0  0  0  0  0  0  0  0
   40.6630   21.5190   37.9550 O   0  0  0  0  0  0  0  0  0  0  0  0
   40.6750   20.7360   37.3620 H   0  0  0  0  0  0  0  0  0  0  0  0
  1  6  1  0  0  0  0
  2  3  1  0  0  0  0
  2  1  2  0  0  0  0
  3  4  2  0  0  0  0
  4  9  1  0  0  0  0
  4  5  1  0  0  0  0
  5 10  1  0  0  0  0
  6  5  2  0  0  0  0
  6 24  1  0  0  0  0
  7  2  1  0  0  0  0
  8  3  1  0  0  0  0
 11 12  1  6  0  0  0
 11 22  1  0  0  0  0
 11  1  1  0  0  0  0
 13 18  1  0  0  0  0
 13 19  1  0  0  0  0
 14 13  2  0  0  0  0
 15 16  2  0  0  0  0
 15 14  1  0  0  0  0
 16 17  1  0  0  0  0
 17 11  1  0  0  0  0
 17 18  2  0  0  0  0
 20 14  1  0  0  0  0
 21 15  1  0  0  0  0
 22 23  1  0  0  0  0
 24 25  2  0  0  0  0
 25 26  1  0  0  0  0
 26 27  1  0  0  0  0
 26 28  1  0  0  0  0
 29 26  1  0  0  0  0
 30 36  1  1  0  0  0
 30 35  1  0  0  0  0
 31 32  1  0  0  0  0
 31 29  1  1  0  0  0
 31 30  1  0  0  0  0
 33 32  1  0  0  0  0
 33 34  1  0  0  0  0
 34 38  1  6  0  0  0
 34 35  1  0  0  0  0
 35 40  1  6  0  0  0
 37 36  1  0  0  0  0
 39 38  1  0  0  0  0
 41 40  1  0  0  0  0
M  END
>  <minimizedAffinity>
-6.60650826

$$$$

 OpenBabel03272509443D

 41 43  0  0  1  0  0  0  0  0999 V2000
   36.2320   28.5070   31.8710 C   0  0  0  0  0  0  0  0  0  0  0  0
   35.4970   29.6470   31.5430 C   0  0  0  0  0  0  0  0  0  0  0  0
   34.9760   30.4870   32.5200 C   0  0  0  0  0  0  0  0  0  0  0  0
   35.1930   30.1870   33.8670 C   0  0  0  0  0  0  0  0  0  0  0  0
   35.9150   29.0690   34.1710 C   0  0  0  0  0  0  0  0  0  0  0  0
   36.4190   28.2520   33.1710 C   0  0  0  0  0  0  0  0  0  0  0  0
   35.3370   29.8670   30.4840 H   0  0  0  0  0  0  0  0  0  0  0  0
   34.4260   31.3330   32.1520 H   0  0  0  0  0  0  0  0  0  0  0  0
   34.7580   30.8890   34.5490 H   0  0  0  0  0  0  0  0  0  0  0  0
   35.9980   28.9690   35.2560 H   0  0  0  0  0  0  0  0  0  0  0  0
   36.7410   27.6120   30.8550 C   0  0  2  0  0  0  0  0  0  0  0  0
   37.3560   26.8170   31.4290 H   0  0  0  0  0  0  0  0  0  0  0  0
   38.6620   29.0150   28.1100 C   0  0  0  0  0  0  0  0  0  0  0  0
   39.9780   28.8690   28.5130 C   0  0  0  0  0  0  0  0  0  0  0  0
   40.2240   28.2260   29.7100 C   0  0  0  0  0  0  0  0  0  0  0  0
   39.1630   27.7570   30.4570 N   0  0  0  0  0  0  0  0  0  0  0  0
   37.9330   27.9300   30.0200 C   0  0  0  0  0  0  0  0  0  0  0  0
   37.6750   28.5500   28.8560 N   0  0  0  0  0  0  0  0  0  0  0  0
   38.5040   29.5220   27.1670 H   0  0  0  0  0  0  0  0  0  0  0  0
   40.8600   29.2100   27.9830 H   0  0  0  0  0  0  0  0  0  0  0  0
   41.2030   28.0420   30.1460 H   0  0  0  0  0  0  0  0  0  0  0  0
   35.8380   26.8110   30.4050 O   0  0  0  0  0  0  0  0  0  0  0  0
   35.0370   27.2920   30.0240 H   0  0  0  0  0  0  0  0  0  0  0  0
   37.1390   27.0880   33.6310 C   0  0  0  0  0  3  0  0  0  0  0  0
   38.3350   27.1410   34.2300 C   0  0  0  0  0  3  0  0  0  0  0  0
   39.1400   26.0250   34.7780 C   0  0  0  0  0  0  0  0  0  0  0  0
   40.1970   26.0290   34.3880 H   0  0  0  0  0  0  0  0  0  0  0  0
   39.2210   26.1300   35.8750 H   0  0  0  0  0  0  0  0  0  0  0  0
   38.3760   24.4610   34.3380 S   0  0  0  0  0  0  0  0  0  0  0  0
   38.6340   22.7090   36.3600 C   0  0  1  0  0  3  0  0  0  0  0  0
   39.2140   23.0220   34.9910 C   0  0  2  0  0  3  0  0  0  0  0  0
   40.5890   23.1980   35.0440 O   0  0  0  0  0  0  0  0  0  0  0  0
   41.1420   22.1200   35.7440 C   0  0  0  0  0  2  0  0  0  0  0  0
   40.9230   22.4240   37.2100 C   0  0  1  0  0  3  0  0  0  0  0  0
   39.5960   23.0990   37.4720 C   0  0  2  0  0  3  0  0  0  0  0  0
   37.4640   23.4370   36.5790 O   0  0  0  0  0  0  0  0  0  0  0  0
   37.0090   23.7070   35.7410 H   0  0  0  0  0  0  0  0  0  0  0  0
   40.9340   21.2550   37.9350 O   0  0  0  0  0  0  0  0  0  0  0  0
   41.2320   20.4860   37.4210 H   0  0  0  0  0  0  0  0  0  0  0  0
   39.0230   22.6780   38.6720 O   0  0  0  0  0  0  0  0  0  0  0  0
   38.7160   21.7460   38.6390 H   0  0  0  0  0  0  0  0  0  0  0  0
  1  6  1  0  0  0  0
  2  1  2  0  0  0  0
  2  3  1  0  0  0  0
  3  4  2  0  0  0  0
  4  5  1  0  0  0  0
  4  9  1  0  0  0  0
  5 10  1  0  0  0  0
  6 24  1  0  0  0  0
  6  5  2  0  0  0  0
  7  2  1  0  0  0  0
  8  3  1  0  0  0  0
 11 12  1  1  0  0  0
 11  1  1  0  0  0  0
 13 14  2  0  0  0  0
 13 18  1  0  0  0  0
 14 15  1  0  0  0  0
 15 21  1  0  0  0  0
 15 16  2  0  0  0  0
 17 16  1  0  0  0  0
 17 11  1  0  0  0  0
 18 17  2  0  0  0  0
 19 13  1  0  0  0  0
 20 14  1  0  0  0  0
 22 11  1  0  0  0  0
 23 22  1  0  0  0  0
 24 25  2  0  0  0  0
 25 26  1  0  0  0  0
 26 28  1  0  0  0  0
 27 26  1  0  0  0  0
 29 26  1  0  0  0  0
 30 36  1  1  0  0  0
 30 35  1  0  0  0  0
 31 29  1  1  0  0  0
 31 32  1  0  0  0  0
 31 30  1  0  0  0  0
 32 33  1  0  0  0  0
 33 34  1  0  0  0  0
 34 35  1  0  0  0  0
 34 38  1  1  0  0  0
 35 40  1  1  0  0  0
 37 36  1  0  0  0  0
 39 38  1  0  0  0  0
 41 40  1  0  0  0  0
M  END
>  <minimizedAffinity>
-6.36728191

$$$$

 OpenBabel03272509443D

 41 43  0  0  1  0  0  0  0  0999 V2000
   35.8670   29.8330   32.7010 C   0  0  0  0  0  0  0  0  0  0  0  0
   36.0150   31.0940   32.1230 C   0  0  0  0  0  0  0  0  0  0  0  0
   36.6660   31.2700   30.9080 C   0  0  0  0  0  0  0  0  0  0  0  0
   37.1860   30.1560   30.2430 C   0  0  0  0  0  0  0  0  0  0  0  0
   37.0330   28.9290   30.8220 C   0  0  0  0  0  0  0  0  0  0  0  0
   36.3780   28.7910   32.0360 C   0  0  0  0  0  0  0  0  0  0  0  0
   35.6010   31.9550   32.6570 H   0  0  0  0  0  0  0  0  0  0  0  0
   36.7220   32.2840   30.5590 H   0  0  0  0  0  0  0  0  0  0  0  0
   37.6690   30.3850   29.3150 H   0  0  0  0  0  0  0  0  0  0  0  0
   37.4900   28.1660   30.1890 H   0  0  0  0  0  0  0  0  0  0  0  0
   35.2240   29.6550   33.9850 C   0  0  2  0  0  0  0  0  0  0  0  0
   35.3500   28.5320   34.2360 H   0  0  0  0  0  0  0  0  0  0  0  0
   31.7670   29.0950   33.0220 C   0  0  0  0  0  0  0  0  0  0  0  0
   31.1020   28.9530   34.2270 C   0  0  0  0  0  0  0  0  0  0  0  0
   31.8270   29.1120   35.3920 C   0  0  0  0  0  0  0  0  0  0  0  0
   33.1730   29.4030   35.3170 N   0  0  0  0  0  0  0  0  0  0  0  0
   33.7480   29.5220   34.1390 C   0  0  0  0  0  0  0  0  0  0  0  0
   33.0580   29.3740   32.9950 N   0  0  0  0  0  0  0  0  0  0  0  0
   31.1700   28.9640   32.1280 H   0  0  0  0  0  0  0  0  0  0  0  0
   30.0510   28.7260   34.3660 H   0  0  0  0  0  0  0  0  0  0  0  0
   31.4350   29.0310   36.4020 H   0  0  0  0  0  0  0  0  0  0  0  0
   35.9320   30.1110   34.9590 O   0  0  0  0  0  0  0  0  0  0  0  0
   36.1610   31.0890   34.8580 H   0  0  0  0  0  0  0  0  0  0  0  0
   36.3120   27.4420   32.5490 C   0  0  0  0  0  3  0  0  0  0  0  0
   37.3810   26.7460   32.9520 C   0  0  0  0  0  3  0  0  0  0  0  0
   37.4260   25.3830   33.5300 C   0  0  0  0  0  0  0  0  0  0  0  0
   36.4050   25.0060   33.8190 H   0  0  0  0  0  0  0  0  0  0  0  0
   37.8080   24.6720   32.7730 H   0  0  0  0  0  0  0  0  0  0  0  0
   38.4690   25.3840   34.9910 S   0  0  0  0  0  0  0  0  0  0  0  0
   38.5530   23.2030   36.5600 C   0  0  1  0  0  3  0  0  0  0  0  0
   39.2400   23.8090   35.3480 C   0  0  2  0  0  3  0  0  0  0  0  0
   40.6080   23.9290   35.5400 O   0  0  0  0  0  0  0  0  0  0  0  0
   41.0950   22.7030   36.0070 C   0  0  0  0  0  2  0  0  0  0  0  0
   40.7670   22.6650   37.4830 C   0  0  1  0  0  3  0  0  0  0  0  0
   39.4310   23.2960   37.7990 C   0  0  2  0  0  3  0  0  0  0  0  0
   37.3770   23.8930   36.8590 O   0  0  0  0  0  0  0  0  0  0  0  0
   36.9910   24.3630   36.0770 H   0  0  0  0  0  0  0  0  0  0  0  0
   40.7100   21.3590   37.9130 O   0  0  0  0  0  0  0  0  0  0  0  0
   41.0390   20.7220   37.2570 H   0  0  0  0  0  0  0  0  0  0  0  0
   38.7630   22.6240   38.8220 O   0  0  0  0  0  0  0  0  0  0  0  0
   38.4500   21.7340   38.5500 H   0  0  0  0  0  0  0  0  0  0  0  0
  1 11  1  0  0  0  0
  2  7  1  0  0  0  0
  2  1  1  0  0  0  0
  3  2  2  0  0  0  0
  4  5  2  0  0  0  0
  4  3  1  0  0  0  0
  5  6  1  0  0  0  0
  6 24  1  0  0  0  0
  6  1  2  0  0  0  0
  8  3  1  0  0  0  0
  9  4  1  0  0  0  0
 10  5  1  0  0  0  0
 11 17  1  0  0  0  0
 11 12  1  1  0  0  0
 11 22  1  0  0  0  0
 13 14  1  0  0  0  0
 14 20  1  0  0  0  0
 14 15  2  0  0  0  0
 15 21  1  0  0  0  0
 16 15  1  0  0  0  0
 17 16  2  0  0  0  0
 18 13  2  0  0  0  0
 18 17  1  0  0  0  0
 19 13  1  0  0  0  0
 23 22  1  0  0  0  0
 24 25  2  0  0  0  0
 25 26  1  0  0  0  0
 26 27  1  0  0  0  0
 26 29  1  0  0  0  0
 28 26  1  0  0  0  0
 30 36  1  1  0  0  0
 30 35  1  0  0  0  0
 31 29  1  1  0  0  0
 31 32  1  0  0  0  0
 31 30  1  0  0  0  0
 32 33  1  0  0  0  0
 33 34  1  0  0  0  0
 34 35  1  0  0  0  0
 34 38  1  6  0  0  0
 35 40  1  1  0  0  0
 37 36  1  0  0  0  0
 39 38  1  0  0  0  0
 41 40  1  0  0  0  0
M  END
>  <minimizedAffinity>
-6.3288765

$$$$

 OpenBabel03272509443D

 41 43  0  0  1  0  0  0  0  0999 V2000
   38.9520   26.7040   30.5390 C   0  0  0  0  0  0  0  0  0  0  0  0
   39.2960   27.1660   29.2680 C   0  0  0  0  0  0  0  0  0  0  0  0
   40.5520   27.6970   28.9980 C   0  0  0  0  0  0  0  0  0  0  0  0
   41.4980   27.7700   30.0240 C   0  0  0  0  0  0  0  0  0  0  0  0
   41.1460   27.3130   31.2610 C   0  0  0  0  0  0  0  0  0  0  0  0
   39.8830   26.7910   31.4950 C   0  0  0  0  0  0  0  0  0  0  0  0
   38.5440   27.1000   28.4770 H   0  0  0  0  0  0  0  0  0  0  0  0
   40.7060   28.0220   27.9870 H   0  0  0  0  0  0  0  0  0  0  0  0
   42.4370   28.1910   29.7260 H   0  0  0  0  0  0  0  0  0  0  0  0
   41.9830   27.4380   31.9510 H   0  0  0  0  0  0  0  0  0  0  0  0
   37.6320   26.1880   30.8280 C   0  0  2  0  0  0  0  0  0  0  0  0
   37.4730   26.3730   31.9600 H   0  0  0  0  0  0  0  0  0  0  0  0
   35.7120   23.1770   31.4960 C   0  0  0  0  0  0  0  0  0  0  0  0
   36.5680   22.1490   31.1440 C   0  0  0  0  0  0  0  0  0  0  0  0
   37.8450   22.4780   30.7320 C   0  0  0  0  0  0  0  0  0  0  0  0
   38.2200   23.8040   30.6830 N   0  0  0  0  0  0  0  0  0  0  0  0
   37.3570   24.7370   31.0280 C   0  0  0  0  0  0  0  0  0  0  0  0
   36.1110   24.4350   31.4350 N   0  0  0  0  0  0  0  0  0  0  0  0
   34.7200   22.8850   31.8150 H   0  0  0  0  0  0  0  0  0  0  0  0
   36.3470   21.0870   31.1560 H   0  0  0  0  0  0  0  0  0  0  0  0
   38.6180   21.7760   30.4300 H   0  0  0  0  0  0  0  0  0  0  0  0
   36.6950   26.9670   30.4130 O   0  0  0  0  0  0  0  0  0  0  0  0
   36.7460   27.1540   29.4220 H   0  0  0  0  0  0  0  0  0  0  0  0
   39.6330   26.3710   32.8540 C   0  0  0  0  0  3  0  0  0  0  0  0
   39.4660   27.2190   33.8760 C   0  0  0  0  0  3  0  0  0  0  0  0
   39.1650   26.9060   35.2920 C   0  0  0  0  0  0  0  0  0  0  0  0
   40.0950   26.6900   35.8900 H   0  0  0  0  0  0  0  0  0  0  0  0
   38.6920   27.7820   35.7730 H   0  0  0  0  0  0  0  0  0  0  0  0
   38.0880   25.4710   35.3730 S   0  0  0  0  0  0  0  0  0  0  0  0
   38.3500   23.2030   36.7910 C   0  0  1  0  0  3  0  0  0  0  0  0
   38.9460   23.9170   35.5900 C   0  0  2  0  0  3  0  0  0  0  0  0
   40.3160   24.0910   35.7230 O   0  0  0  0  0  0  0  0  0  0  0  0
   40.8800   22.8630   36.0850 C   0  0  0  0  0  2  0  0  0  0  0  0
   40.6300   22.7160   37.5700 C   0  0  1  0  0  3  0  0  0  0  0  0
   39.2850   23.2610   37.9900 C   0  0  2  0  0  3  0  0  0  0  0  0
   37.1610   23.8150   37.1900 O   0  0  0  0  0  0  0  0  0  0  0  0
   36.7140   24.3140   36.4600 H   0  0  0  0  0  0  0  0  0  0  0  0
   40.6540   21.3840   37.9160 O   0  0  0  0  0  0  0  0  0  0  0  0
   40.9780   20.8070   37.2050 H   0  0  0  0  0  0  0  0  0  0  0  0
   38.7010   22.4940   38.9980 O   0  0  0  0  0  0  0  0  0  0  0  0
   38.4150   21.6090   38.6840 H   0  0  0  0  0  0  0  0  0  0  0  0
  1 11  1  0  0  0  0
  1  6  1  0  0  0  0
  2  1  2  0  0  0  0
  3  2  1  0  0  0  0
  3  4  2  0  0  0  0
  4  5  1  0  0  0  0
  5  6  2  0  0  0  0
  5 10  1  0  0  0  0
  6 24  1  0  0  0  0
  7  2  1  0  0  0  0
  8  3  1  0  0  0  0
  9  4  1  0  0  0  0
 11 17  1  0  0  0  0
 11 12  1  1  0  0  0
 13 19  1  0  0  0  0
 14 20  1  0  0  0  0
 14 13  2  0  0  0  0
 15 14  1  0  0  0  0
 16 15  2  0  0  0  0
 16 17  1  0  0  0  0
 17 18  2  0  0  0  0
 18 13  1  0  0  0  0
 21 15  1  0  0  0  0
 22 11  1  0  0  0  0
 23 22  1  0  0  0  0
 24 25  2  0  0  0  0
 25 26  1  0  0  0  0
 26 29  1  0  0  0  0
 26 28  1  0  0  0  0
 26 27  1  0  0  0  0
 30 36  1  1  0  0  0
 30 35  1  0  0  0  0
 31 29  1  1  0  0  0
 31 32  1  0  0  0  0
 31 30  1  0  0  0  0
 32 33  1  0  0  0  0
 33 34  1  0  0  0  0
 34 38  1  6  0  0  0
 34 35  1  0  0  0  0
 35 40  1  1  0  0  0
 37 36  1  0  0  0  0
 39 38  1  0  0  0  0
 41 40  1  0  0  0  0
M  END
>  <minimizedAffinity>
-6.12350178

$$$$

 OpenBabel03272509443D

 41 43  0  0  1  0  0  0  0  0999 V2000
   36.9240   28.2610   31.8090 C   0  0  0  0  0  0  0  0  0  0  0  0
   36.0660   29.3020   32.1660 C   0  0  0  0  0  0  0  0  0  0  0  0
   35.6730   29.5070   33.4830 C   0  0  0  0  0  0  0  0  0  0  0  0
   36.1500   28.6520   34.4800 C   0  0  0  0  0  0  0  0  0  0  0  0
   36.9890   27.6400   34.1150 C   0  0  0  0  0  0  0  0  0  0  0  0
   37.3590   27.4640   32.7910 C   0  0  0  0  0  0  0  0  0  0  0  0
   35.7030   29.9620   31.3730 H   0  0  0  0  0  0  0  0  0  0  0  0
   35.0100   30.3370   33.6410 H   0  0  0  0  0  0  0  0  0  0  0  0
   35.7970   28.8860   35.4640 H   0  0  0  0  0  0  0  0  0  0  0  0
   37.2720   27.0620   34.9970 H   0  0  0  0  0  0  0  0  0  0  0  0
   37.3010   28.0240   30.4330 C   0  0  2  0  0  0  0  0  0  0  0  0
   37.9380   27.0580   30.4540 H   0  0  0  0  0  0  0  0  0  0  0  0
   39.1060   30.7850   28.9120 C   0  0  0  0  0  0  0  0  0  0  0  0
   40.4080   30.3240   28.8200 C   0  0  0  0  0  0  0  0  0  0  0  0
   40.6690   29.0290   29.2230 C   0  0  0  0  0  0  0  0  0  0  0  0
   39.6380   28.2480   29.6990 N   0  0  0  0  0  0  0  0  0  0  0  0
   38.4200   28.7460   29.7650 C   0  0  0  0  0  0  0  0  0  0  0  0
   38.1470   30.0030   29.3740 N   0  0  0  0  0  0  0  0  0  0  0  0
   38.9360   31.8040   28.5880 H   0  0  0  0  0  0  0  0  0  0  0  0
   41.2680   30.8770   28.4580 H   0  0  0  0  0  0  0  0  0  0  0  0
   41.6390   28.5390   29.2040 H   0  0  0  0  0  0  0  0  0  0  0  0
   36.3310   27.5540   29.7290 O   0  0  0  0  0  0  0  0  0  0  0  0
   35.5160   28.1500   29.7310 H   0  0  0  0  0  0  0  0  0  0  0  0
   38.2280   26.3370   32.5400 C   0  0  0  0  0  3  0  0  0  0  0  0
   39.5480   26.3520   32.7620 C   0  0  0  0  0  3  0  0  0  0  0  0
   40.5230   25.2510   32.5820 C   0  0  0  0  0  0  0  0  0  0  0  0
   40.5570   24.8790   31.5200 H   0  0  0  0  0  0  0  0  0  0  0  0
   41.5410   25.6180   32.8080 H   0  0  0  0  0  0  0  0  0  0  0  0
   40.0840   23.8790   33.6540 S   0  0  0  0  0  0  0  0  0  0  0  0
   40.6210   23.4160   36.2460 C   0  0  1  0  0  3  0  0  0  0  0  0
   39.8010   24.3370   35.3590 C   0  0  2  0  0  3  0  0  0  0  0  0
   38.4540   24.3050   35.6920 O   0  0  0  0  0  0  0  0  0  0  0  0
   38.3410   24.4770   37.0760 C   0  0  0  0  0  2  0  0  0  0  0  0
   38.6500   23.1280   37.6860 C   0  0  1  0  0  3  0  0  0  0  0  0
   39.7410   22.3900   36.9450 C   0  0  2  0  0  3  0  0  0  0  0  0
   41.5420   22.6920   35.4880 O   0  0  0  0  0  0  0  0  0  0  0  0
   41.7840   23.1370   34.6370 H   0  0  0  0  0  0  0  0  0  0  0  0
   39.0790   23.2910   38.9830 O   0  0  0  0  0  0  0  0  0  0  0  0
   38.9570   24.1950   39.3190 H   0  0  0  0  0  0  0  0  0  0  0  0
   40.5640   21.6680   37.8080 O   0  0  0  0  0  0  0  0  0  0  0  0
   41.1250   22.2470   38.3700 H   0  0  0  0  0  0  0  0  0  0  0  0
  1  2  2  0  0  0  0
  1  6  1  0  0  0  0
  2  3  1  0  0  0  0
  3  8  1  0  0  0  0
  3  4  2  0  0  0  0
  4  9  1  0  0  0  0
  5  4  1  0  0  0  0
  5 10  1  0  0  0  0
  6  5  2  0  0  0  0
  7  2  1  0  0  0  0
 11 12  1  1  0  0  0
 11  1  1  0  0  0  0
 13 18  1  0  0  0  0
 14 13  2  0  0  0  0
 14 15  1  0  0  0  0
 15 16  2  0  0  0  0
 16 17  1  0  0  0  0
 17 11  1  0  0  0  0
 18 17  2  0  0  0  0
 19 13  1  0  0  0  0
 20 14  1  0  0  0  0
 21 15  1  0  0  0  0
 22 23  1  0  0  0  0
 22 11  1  0  0  0  0
 24 25  2  0  0  0  0
 24  6  1  0  0  0  0
 26 25  1  0  0  0  0
 26 28  1  0  0  0  0
 26 29  1  0  0  0  0
 27 26  1  0  0  0  0
 30 36  1  6  0  0  0
 30 35  1  0  0  0  0
 31 29  1  6  0  0  0
 31 32  1  0  0  0  0
 31 30  1  0  0  0  0
 32 33  1  0  0  0  0
 33 34  1  0  0  0  0
 34 38  1  1  0  0  0
 35 34  1  0  0  0  0
 35 40  1  1  0  0  0
 37 36  1  0  0  0  0
 38 39  1  0  0  0  0
 40 41  1  0  0  0  0
M  END
>  <minimizedAffinity>
-6.00819397

$$$$

 OpenBabel03272509443D

 41 43  0  0  1  0  0  0  0  0999 V2000
   37.6620   26.9060   34.1740 C   0  0  0  0  0  0  0  0  0  0  0  0
   37.0710   27.9680   34.8600 C   0  0  0  0  0  0  0  0  0  0  0  0
   36.1020   28.7710   34.2690 C   0  0  0  0  0  0  0  0  0  0  0  0
   35.7050   28.5090   32.9550 C   0  0  0  0  0  0  0  0  0  0  0  0
   36.2930   27.4660   32.2990 C   0  0  0  0  0  0  0  0  0  0  0  0
   37.2570   26.6870   32.9190 C   0  0  0  0  0  0  0  0  0  0  0  0
   37.3920   28.1580   35.8880 H   0  0  0  0  0  0  0  0  0  0  0  0
   35.7170   29.5580   34.8890 H   0  0  0  0  0  0  0  0  0  0  0  0
   34.9540   29.1750   32.5820 H   0  0  0  0  0  0  0  0  0  0  0  0
   35.8830   27.3900   31.2890 H   0  0  0  0  0  0  0  0  0  0  0  0
   38.6980   26.0950   34.7760 C   0  0  2  0  0  0  0  0  0  0  0  0
   39.0700   25.3990   33.9300 H   0  0  0  0  0  0  0  0  0  0  0  0
   37.7750   24.2080   37.7400 C   0  0  0  0  0  0  0  0  0  0  0  0
   37.5520   22.9280   37.2650 C   0  0  0  0  0  0  0  0  0  0  0  0
   37.7780   22.6820   35.9250 C   0  0  0  0  0  0  0  0  0  0  0  0
   38.2140   23.7080   35.1130 N   0  0  0  0  0  0  0  0  0  0  0  0
   38.4050   24.9070   35.6240 C   0  0  0  0  0  0  0  0  0  0  0  0
   38.1920   25.1630   36.9270 N   0  0  0  0  0  0  0  0  0  0  0  0
   37.5880   24.3670   38.7940 H   0  0  0  0  0  0  0  0  0  0  0  0
   37.2100   22.0740   37.8390 H   0  0  0  0  0  0  0  0  0  0  0  0
   37.6460   21.7280   35.4210 H   0  0  0  0  0  0  0  0  0  0  0  0
   39.8000   26.7430   34.9370 O   0  0  0  0  0  0  0  0  0  0  0  0
   39.6910   27.5750   35.4980 H   0  0  0  0  0  0  0  0  0  0  0  0
   37.8170   25.6350   32.1020 C   0  0  0  0  0  3  0  0  0  0  0  0
   37.1190   24.5780   31.6700 C   0  0  0  0  0  3  0  0  0  0  0  0
   37.5750   23.4690   30.7990 C   0  0  0  0  0  0  0  0  0  0  0  0
   36.7170   22.9440   30.2910 H   0  0  0  0  0  0  0  0  0  0  0  0
   38.2070   23.8720   29.9870 H   0  0  0  0  0  0  0  0  0  0  0  0
   38.4800   22.2670   31.7790 S   0  0  0  0  0  0  0  0  0  0  0  0
   37.4010   19.8150   31.5650 C   0  0  1  0  0  3  0  0  0  0  0  0
   37.4570   20.9980   32.5160 C   0  0  2  0  0  3  0  0  0  0  0  0
   36.1890   21.4650   32.8300 O   0  0  0  0  0  0  0  0  0  0  0  0
   35.4010   20.3730   33.2090 C   0  0  0  0  0  2  0  0  0  0  0  0
   34.9710   19.7080   31.9210 C   0  0  1  0  0  3  0  0  0  0  0  0
   36.0530   19.7290   30.8660 C   0  0  2  0  0  3  0  0  0  0  0  0
   38.3590   19.9440   30.5580 O   0  0  0  0  0  0  0  0  0  0  0  0
   39.1250   20.5160   30.8190 H   0  0  0  0  0  0  0  0  0  0  0  0
   34.6640   18.3870   32.1590 O   0  0  0  0  0  0  0  0  0  0  0  0
   34.6210   18.1670   33.1040 H   0  0  0  0  0  0  0  0  0  0  0  0
   36.0630   18.5620   30.1030 O   0  0  0  0  0  0  0  0  0  0  0  0
   36.3640   17.7780   30.6130 H   0  0  0  0  0  0  0  0  0  0  0  0
  1 11  1  0  0  0  0
  1  2  1  0  0  0  0
  2  7  1  0  0  0  0
  3  2  2  0  0  0  0
  3  8  1  0  0  0  0
  4  3  1  0  0  0  0
  5  6  1  0  0  0  0
  5  4  2  0  0  0  0
  6  1  2  0  0  0  0
  9  4  1  0  0  0  0
 10  5  1  0  0  0  0
 11 12  1  6  0  0  0
 11 22  1  0  0  0  0
 11 17  1  0  0  0  0
 13 19  1  0  0  0  0
 14 13  1  0  0  0  0
 14 20  1  0  0  0  0
 15 14  2  0  0  0  0
 16 17  2  0  0  0  0
 16 15  1  0  0  0  0
 17 18  1  0  0  0  0
 18 13  2  0  0  0  0
 21 15  1  0  0  0  0
 22 23  1  0  0  0  0
 24  6  1  0  0  0  0
 25 24  2  0  0  0  0
 26 25  1  0  0  0  0
 26 29  1  0  0  0  0
 27 26  1  0  0  0  0
 28 26  1  0  0  0  0
 30 36  1  6  0  0  0
 30 31  1  0  0  0  0
 31 29  1  6  0  0  0
 31 32  1  0  0  0  0
 32 33  1  0  0  0  0
 34 38  1  1  0  0  0
 34 33  1  0  0  0  0
 35 40  1  1  0  0  0
 35 30  1  0  0  0  0
 35 34  1  0  0  0  0
 36 37  1  0  0  0  0
 38 39  1  0  0  0  0
 40 41  1  0  0  0  0
M  END
>  <minimizedAffinity>
-6.0039835

$$$$

 OpenBabel03272509443D

 41 43  0  0  1  0  0  0  0  0999 V2000
   36.6930   22.1010   31.6920 C   0  0  0  0  0  0  0  0  0  0  0  0
   35.5270   21.5480   31.1620 C   0  0  0  0  0  0  0  0  0  0  0  0
   34.8550   20.5090   31.7970 C   0  0  0  0  0  0  0  0  0  0  0  0
   35.3570   20.0050   33.0000 C   0  0  0  0  0  0  0  0  0  0  0  0
   36.4980   20.5580   33.5050 C   0  0  0  0  0  0  0  0  0  0  0  0
   37.1420   21.5920   32.8440 C   0  0  0  0  0  0  0  0  0  0  0  0
   35.1470   21.9550   30.2200 H   0  0  0  0  0  0  0  0  0  0  0  0
   33.9710   20.1610   31.2980 H   0  0  0  0  0  0  0  0  0  0  0  0
   34.7760   19.2090   33.4180 H   0  0  0  0  0  0  0  0  0  0  0  0
   36.7640   20.0610   34.4410 H   0  0  0  0  0  0  0  0  0  0  0  0
   37.4120   23.1550   31.0110 C   0  0  2  0  0  0  0  0  0  0  0  0
   38.3450   23.3590   31.6650 H   0  0  0  0  0  0  0  0  0  0  0  0
   37.7600   26.7640   30.7910 C   0  0  0  0  0  0  0  0  0  0  0  0
   36.4670   27.2350   30.9370 C   0  0  0  0  0  0  0  0  0  0  0  0
   35.4640   26.3170   31.1780 C   0  0  0  0  0  0  0  0  0  0  0  0
   35.7790   24.9760   31.2630 N   0  0  0  0  0  0  0  0  0  0  0  0
   37.0290   24.5910   31.1110 C   0  0  0  0  0  0  0  0  0  0  0  0
   38.0190   25.4720   30.8790 N   0  0  0  0  0  0  0  0  0  0  0  0
   38.5220   27.5100   30.6030 H   0  0  0  0  0  0  0  0  0  0  0  0
   36.1420   28.2680   30.8830 H   0  0  0  0  0  0  0  0  0  0  0  0
   34.4100   26.5450   31.3140 H   0  0  0  0  0  0  0  0  0  0  0  0
   38.0430   22.7300   29.9710 O   0  0  0  0  0  0  0  0  0  0  0  0
   37.4390   22.2800   29.2990 H   0  0  0  0  0  0  0  0  0  0  0  0
   38.3540   22.0650   33.4740 C   0  0  0  0  0  3  0  0  0  0  0  0
   39.5840   21.7530   33.0490 C   0  0  0  0  0  3  0  0  0  0  0  0
   40.8860   22.2100   33.5860 C   0  0  0  0  0  0  0  0  0  0  0  0
   41.7550   21.6540   33.1330 H   0  0  0  0  0  0  0  0  0  0  0  0
   41.0400   23.2740   33.3290 H   0  0  0  0  0  0  0  0  0  0  0  0
   40.9200   21.9690   35.3650 S   0  0  0  0  0  0  0  0  0  0  0  0
   40.0530   22.9160   37.7270 C   0  0  1  0  0  3  0  0  0  0  0  0
   40.3510   23.3770   36.3100 C   0  0  2  0  0  3  0  0  0  0  0  0
   39.2500   23.9880   35.7270 O   0  0  0  0  0  0  0  0  0  0  0  0
   38.7530   24.9410   36.6210 C   0  0  0  0  0  2  0  0  0  0  0  0
   37.9400   24.1690   37.6370 C   0  0  1  0  0  3  0  0  0  0  0  0
   38.5550   22.8310   37.9790 C   0  0  2  0  0  3  0  0  0  0  0  0
   40.5610   21.6350   37.9460 O   0  0  0  0  0  0  0  0  0  0  0  0
   41.3170   21.4060   37.3480 H   0  0  0  0  0  0  0  0  0  0  0  0
   37.8560   24.8870   38.8090 O   0  0  0  0  0  0  0  0  0  0  0  0
   38.1800   25.7990   38.7250 H   0  0  0  0  0  0  0  0  0  0  0  0
   38.3860   22.5060   39.3240 O   0  0  0  0  0  0  0  0  0  0  0  0
   38.9190   23.0750   39.9220 H   0  0  0  0  0  0  0  0  0  0  0  0
  1  6  1  0  0  0  0
  2  1  2  0  0  0  0
  2  3  1  0  0  0  0
  3  4  2  0  0  0  0
  4  9  1  0  0  0  0
  4  5  1  0  0  0  0
  5 10  1  0  0  0  0
  6 24  1  0  0  0  0
  6  5  2  0  0  0  0
  7  2  1  0  0  0  0
  8  3  1  0  0  0  0
 11 17  1  0  0  0  0
 11 12  1  1  0  0  0
 11  1  1  0  0  0  0
 13 18  2  0  0  0  0
 13 14  1  0  0  0  0
 14 15  2  0  0  0  0
 15 16  1  0  0  0  0
 15 21  1  0  0  0  0
 17 16  2  0  0  0  0
 18 17  1  0  0  0  0
 19 13  1  0  0  0  0
 20 14  1  0  0  0  0
 22 11  1  0  0  0  0
 23 22  1  0  0  0  0
 25 24  2  0  0  0  0
 25 26  1  0  0  0  0
 26 29  1  0  0  0  0
 27 26  1  0  0  0  0
 28 26  1  0  0  0  0
 30 36  1  6  0  0  0
 30 35  1  0  0  0  0
 31 29  1  6  0  0  0
 31 30  1  0  0  0  0
 32 31  1  0  0  0  0
 32 33  1  0  0  0  0
 33 34  1  0  0  0  0
 34 35  1  0  0  0  0
 34 38  1  1  0  0  0
 35 40  1  1  0  0  0
 37 36  1  0  0  0  0
 39 38  1  0  0  0  0
 40 41  1  0  0  0  0
M  END
>  <minimizedAffinity>
-5.94521713

$$$$

 OpenBabel03272509443D

 41 43  0  0  1  0  0  0  0  0999 V2000
   39.0520   26.9310   30.5090 C   0  0  0  0  0  0  0  0  0  0  0  0
   39.5340   27.3130   29.2550 C   0  0  0  0  0  0  0  0  0  0  0  0
   40.8940   27.4470   29.0050 C   0  0  0  0  0  0  0  0  0  0  0  0
   41.8070   27.1920   30.0320 C   0  0  0  0  0  0  0  0  0  0  0  0
   41.3200   26.8190   31.2510 C   0  0  0  0  0  0  0  0  0  0  0  0
   39.9560   26.6960   31.4660 C   0  0  0  0  0  0  0  0  0  0  0  0
   38.8050   27.5070   28.4630 H   0  0  0  0  0  0  0  0  0  0  0  0
   41.1500   27.7460   28.0060 H   0  0  0  0  0  0  0  0  0  0  0  0
   42.8320   27.3180   29.7490 H   0  0  0  0  0  0  0  0  0  0  0  0
   42.1490   26.6580   31.9440 H   0  0  0  0  0  0  0  0  0  0  0  0
   37.6350   26.8300   30.7800 C   0  0  2  0  0  0  0  0  0  0  0  0
   37.1260   26.8150   29.7400 H   0  0  0  0  0  0  0  0  0  0  0  0
   34.9800   28.6820   32.4280 C   0  0  0  0  0  0  0  0  0  0  0  0
   35.3300   30.0080   32.2400 C   0  0  0  0  0  0  0  0  0  0  0  0
   36.4550   30.2830   31.4860 C   0  0  0  0  0  0  0  0  0  0  0  0
   37.1840   29.2410   30.9530 N   0  0  0  0  0  0  0  0  0  0  0  0
   36.8000   28.0000   31.1700 C   0  0  0  0  0  0  0  0  0  0  0  0
   35.7070   27.7140   31.8990 N   0  0  0  0  0  0  0  0  0  0  0  0
   34.0950   28.5010   33.0230 H   0  0  0  0  0  0  0  0  0  0  0  0
   34.8100   30.8770   32.6260 H   0  0  0  0  0  0  0  0  0  0  0  0
   36.8420   31.2720   31.2580 H   0  0  0  0  0  0  0  0  0  0  0  0
   37.2840   25.6430   31.1390 O   0  0  0  0  0  0  0  0  0  0  0  0
   37.7820   25.3130   31.9530 H   0  0  0  0  0  0  0  0  0  0  0  0
   39.5760   26.3230   32.8080 C   0  0  0  0  0  3  0  0  0  0  0  0
   39.6590   27.1450   33.8610 C   0  0  0  0  0  3  0  0  0  0  0  0
   39.2610   26.8860   35.2640 C   0  0  0  0  0  0  0  0  0  0  0  0
   40.1470   26.6780   35.9290 H   0  0  0  0  0  0  0  0  0  0  0  0
   38.7730   27.7850   35.6830 H   0  0  0  0  0  0  0  0  0  0  0  0
   38.1580   25.4710   35.3250 S   0  0  0  0  0  0  0  0  0  0  0  0
   38.3800   23.2190   36.7750 C   0  0  1  0  0  3  0  0  0  0  0  0
   38.9840   23.9020   35.5600 C   0  0  2  0  0  3  0  0  0  0  0  0
   40.3580   24.0480   35.6830 O   0  0  0  0  0  0  0  0  0  0  0  0
   40.8980   22.8140   36.0610 C   0  0  0  0  0  2  0  0  0  0  0  0
   40.6530   22.6950   37.5490 C   0  0  1  0  0  3  0  0  0  0  0  0
   39.3230   23.2750   37.9680 C   0  0  2  0  0  3  0  0  0  0  0  0
   37.2060   23.8620   37.1710 O   0  0  0  0  0  0  0  0  0  0  0  0
   36.7660   24.3600   36.4360 H   0  0  0  0  0  0  0  0  0  0  0  0
   40.6510   21.3690   37.9160 O   0  0  0  0  0  0  0  0  0  0  0  0
   40.9580   20.7740   37.2110 H   0  0  0  0  0  0  0  0  0  0  0  0
   38.7290   22.5370   38.9910 O   0  0  0  0  0  0  0  0  0  0  0  0
   38.4220   21.6530   38.6930 H   0  0  0  0  0  0  0  0  0  0  0  0
  1 11  1  0  0  0  0
  1  6  1  0  0  0  0
  2  1  2  0  0  0  0
  3  2  1  0  0  0  0
  3  4  2  0  0  0  0
  4  5  1  0  0  0  0
  5  6  2  0  0  0  0
  5 10  1  0  0  0  0
  6 24  1  0  0  0  0
  7  2  1  0  0  0  0
  8  3  1  0  0  0  0
  9  4  1  0  0  0  0
 11 12  1  6  0  0  0
 11 22  1  0  0  0  0
 11 17  1  0  0  0  0
 13 19  1  0  0  0  0
 14 13  1  0  0  0  0
 14 20  1  0  0  0  0
 15 14  2  0  0  0  0
 16 17  2  0  0  0  0
 16 15  1  0  0  0  0
 17 18  1  0  0  0  0
 18 13  2  0  0  0  0
 21 15  1  0  0  0  0
 22 23  1  0  0  0  0
 24 25  2  0  0  0  0
 25 26  1  0  0  0  0
 26 29  1  0  0  0  0
 26 28  1  0  0  0  0
 26 27  1  0  0  0  0
 30 36  1  1  0  0  0
 30 35  1  0  0  0  0
 31 29  1  1  0  0  0
 31 32  1  0  0  0  0
 31 30  1  0  0  0  0
 32 33  1  0  0  0  0
 33 34  1  0  0  0  0
 34 38  1  6  0  0  0
 34 35  1  0  0  0  0
 35 40  1  1  0  0  0
 37 36  1  0  0  0  0
 39 38  1  0  0  0  0
 41 40  1  0  0  0  0
M  END
>  <minimizedAffinity>
-5.81198454

$$$$

 OpenBabel03272509443D

 41 43  0  0  1  0  0  0  0  0999 V2000
   37.3060   21.9350   33.3310 C   0  0  0  0  0  0  0  0  0  0  0  0
   36.2140   21.0920   33.5380 C   0  0  0  0  0  0  0  0  0  0  0  0
   35.2430   20.8990   32.5620 C   0  0  0  0  0  0  0  0  0  0  0  0
   35.3620   21.5650   31.3390 C   0  0  0  0  0  0  0  0  0  0  0  0
   36.4370   22.3850   31.1530 C   0  0  0  0  0  0  0  0  0  0  0  0
   37.3860   22.5550   32.1490 C   0  0  0  0  0  0  0  0  0  0  0  0
   36.1370   20.5780   34.5010 H   0  0  0  0  0  0  0  0  0  0  0  0
   34.4480   20.2300   32.8310 H   0  0  0  0  0  0  0  0  0  0  0  0
   34.5720   21.3560   30.6470 H   0  0  0  0  0  0  0  0  0  0  0  0
   36.3900   22.8320   30.1570 H   0  0  0  0  0  0  0  0  0  0  0  0
   38.2950   22.1650   34.3620 C   0  0  2  0  0  0  0  0  0  0  0  0
   38.1440   21.3080   35.1260 H   0  0  0  0  0  0  0  0  0  0  0  0
   38.0410   23.4660   37.7440 C   0  0  0  0  0  0  0  0  0  0  0  0
   38.0980   24.8380   37.5800 C   0  0  0  0  0  0  0  0  0  0  0  0
   38.1600   25.3380   36.2940 C   0  0  0  0  0  0  0  0  0  0  0  0
   38.1650   24.4630   35.2270 N   0  0  0  0  0  0  0  0  0  0  0  0
   38.1120   23.1660   35.4500 C   0  0  0  0  0  0  0  0  0  0  0  0
   38.0480   22.6620   36.6950 N   0  0  0  0  0  0  0  0  0  0  0  0
   37.9930   23.1070   38.7640 H   0  0  0  0  0  0  0  0  0  0  0  0
   38.0990   25.5860   38.3650 H   0  0  0  0  0  0  0  0  0  0  0  0
   38.2060   26.3880   36.0190 H   0  0  0  0  0  0  0  0  0  0  0  0
   39.4830   21.8310   33.9900 O   0  0  0  0  0  0  0  0  0  0  0  0
   39.7850   22.3110   33.1550 H   0  0  0  0  0  0  0  0  0  0  0  0
   38.4550   23.4720   31.8310 C   0  0  0  0  0  3  0  0  0  0  0  0
   38.5800   24.0870   30.6490 C   0  0  0  0  0  3  0  0  0  0  0  0
   39.6040   25.0730   30.2290 C   0  0  0  0  0  0  0  0  0  0  0  0
   40.5240   25.0370   30.8780 H   0  0  0  0  0  0  0  0  0  0  0  0
   39.9470   24.8370   29.2050 H   0  0  0  0  0  0  0  0  0  0  0  0
   38.9130   26.7280   30.3080 S   0  0  0  0  0  0  0  0  0  0  0  0
   36.4430   27.7130   30.6990 C   0  0  1  0  0  3  0  0  0  0  0  0
   37.5070   26.8880   31.4020 C   0  0  2  0  0  3  0  0  0  0  0  0
   37.8580   27.4390   32.6260 O   0  0  0  0  0  0  0  0  0  0  0  0
   36.6840   27.7120   33.3360 C   0  0  0  0  0  2  0  0  0  0  0  0
   36.1500   29.0080   32.7670 C   0  0  1  0  0  3  0  0  0  0  0  0
   36.3610   29.1190   31.2740 C   0  0  2  0  0  3  0  0  0  0  0  0
   36.7470   27.8610   29.3440 O   0  0  0  0  0  0  0  0  0  0  0  0
   37.3290   27.1400   28.9940 H   0  0  0  0  0  0  0  0  0  0  0  0
   34.7950   29.0930   32.9930 O   0  0  0  0  0  0  0  0  0  0  0  0
   34.4620   28.4100   33.5980 H   0  0  0  0  0  0  0  0  0  0  0  0
   35.2940   29.7560   30.6410 O   0  0  0  0  0  0  0  0  0  0  0  0
   34.4750   29.2150   30.6400 H   0  0  0  0  0  0  0  0  0  0  0  0
  1  2  1  0  0  0  0
  1 11  1  0  0  0  0
  2  7  1  0  0  0  0
  3  8  1  0  0  0  0
  3  2  2  0  0  0  0
  4  3  1  0  0  0  0
  5  4  2  0  0  0  0
  5  6  1  0  0  0  0
  6  1  2  0  0  0  0
  9  4  1  0  0  0  0
 10  5  1  0  0  0  0
 11 12  1  1  0  0  0
 11 17  1  0  0  0  0
 13 19  1  0  0  0  0
 14 13  1  0  0  0  0
 14 20  1  0  0  0  0
 15 14  2  0  0  0  0
 16 17  2  0  0  0  0
 16 15  1  0  0  0  0
 17 18  1  0  0  0  0
 18 13  2  0  0  0  0
 21 15  1  0  0  0  0
 22 11  1  0  0  0  0
 23 22  1  0  0  0  0
 24  6  1  0  0  0  0
 25 24  2  0  0  0  0
 26 29  1  0  0  0  0
 26 25  1  0  0  0  0
 26 27  1  0  0  0  0
 28 26  1  0  0  0  0
 30 36  1  6  0  0  0
 30 35  1  0  0  0  0
 30 31  1  0  0  0  0
 31 29  1  6  0  0  0
 31 32  1  0  0  0  0
 32 33  1  0  0  0  0
 34 38  1  6  0  0  0
 34 33  1  0  0  0  0
 35 40  1  6  0  0  0
 35 34  1  0  0  0  0
 37 36  1  0  0  0  0
 38 39  1  0  0  0  0
 41 40  1  0  0  0  0
M  END
>  <minimizedAffinity>
-5.79256248

$$$$
