
 OpenBabel03272509593D

 49 52  0  0  1  0  0  0  0  0999 V2000
   35.3530   25.1720   30.9650 C   0  0  0  0  0  0  0  0  0  0  0  0
   34.3840   25.1810   31.5330 H   0  0  0  0  0  0  0  0  0  0  0  0
   35.0900   24.8080   29.9540 H   0  0  0  0  0  0  0  0  0  0  0  0
   36.2170   24.1990   31.6840 C   0  0  0  0  0  0  0  0  0  0  0  0
   35.8140   22.8690   31.7200 C   0  0  0  0  0  0  0  0  0  0  0  0
   36.5500   21.9110   32.3590 C   0  0  0  0  0  0  0  0  0  0  0  0
   37.6810   22.2590   32.9640 N   0  0  0  0  0  0  0  0  0  0  0  0
   38.0750   23.5660   32.9280 C   0  0  0  0  0  0  0  0  0  0  0  0
   37.3750   24.5290   32.3090 N   0  0  0  0  0  0  0  0  0  0  0  0
   34.8970   22.5350   31.2390 H   0  0  0  0  0  0  0  0  0  0  0  0
   36.2210   20.8750   32.3780 H   0  0  0  0  0  0  0  0  0  0  0  0
   39.3450   23.9020   33.6180 C   0  0  0  0  0  0  0  0  0  0  0  0
   40.1740   23.2790   33.2480 H   0  0  0  0  0  0  0  0  0  0  0  0
   39.6650   24.9530   33.4850 H   0  0  0  0  0  0  0  0  0  0  0  0
   40.4740   23.0440   35.6790 C   0  0  2  0  0  3  0  0  0  0  0  0
   39.1770   23.5470   35.0800 C   0  0  1  0  0  3  0  0  0  0  0  0
   38.7820   24.6450   35.8390 O   0  0  0  0  0  0  0  0  0  0  0  0
   38.1080   24.1610   36.9570 C   0  0  0  0  0  2  0  0  0  0  0  0
   38.7260   22.8920   37.4900 C   0  0  1  0  0  3  0  0  0  0  0  0
   40.1950   22.7870   37.1520 C   0  0  1  0  0  3  0  0  0  0  0  0
   41.4260   24.0620   35.5360 O   0  0  0  0  0  0  0  0  0  0  0  0
   41.6240   24.4620   36.4310 H   0  0  0  0  0  0  0  0  0  0  0  0
   38.6300   22.9380   38.8840 O   0  0  0  0  0  0  0  0  0  0  0  0
   37.8980   22.3370   39.2260 H   0  0  0  0  0  0  0  0  0  0  0  0
   40.5500   21.4590   37.4030 O   0  0  0  0  0  0  0  0  0  0  0  0
   41.0760   21.3820   38.2340 H   0  0  0  0  0  0  0  0  0  0  0  0
   35.8960   26.5660   30.9990 C   0  0  0  0  0  0  0  0  0  0  0  0
   35.5380   27.0840   30.0740 H   0  0  0  0  0  0  0  0  0  0  0  0
   37.0180   26.5990   30.9390 H   0  0  0  0  0  0  0  0  0  0  0  0
   35.4100   27.2910   32.1140 O   0  0  0  0  0  0  0  0  0  0  0  0
   36.2900   30.7220   31.4140 C   0  0  0  0  0  0  0  0  0  0  0  0
   35.8320   31.3340   32.6080 C   0  0  0  0  0  0  0  0  0  0  0  0
   35.2540   30.5290   33.5700 C   0  0  0  0  0  0  0  0  0  0  0  0
   35.1730   29.1990   33.2820 N   0  0  0  0  0  0  0  0  0  0  0  0
   35.6050   28.6290   32.1580 C   0  0  0  0  0  0  0  0  0  0  0  0
   36.1710   29.4110   31.2120 N   0  0  0  0  0  0  0  0  0  0  0  0
   36.7310   31.4080   30.7040 H   0  0  0  0  0  0  0  0  0  0  0  0
   35.9060   32.3850   32.8130 H   0  0  0  0  0  0  0  0  0  0  0  0
   36.6570   31.9020   35.7000 F   0  0  0  0  0  0  0  0  0  0  0  0
   35.3650   31.6260   35.8420 C   0  0  0  0  0  0  0  0  0  0  0  0
   34.7360   30.9900   34.8430 C   0  0  0  0  0  0  0  0  0  0  0  0
   33.3750   30.7430   35.0860 C   0  0  0  0  0  0  0  0  0  0  0  0
   32.7610   31.1280   36.2490 C   0  0  0  0  0  0  0  0  0  0  0  0
   33.4580   31.7790   37.2440 C   0  0  0  0  0  0  0  0  0  0  0  0
   34.7710   32.0210   37.0190 C   0  0  0  0  0  0  0  0  0  0  0  0
   32.7460   30.2370   34.3620 H   0  0  0  0  0  0  0  0  0  0  0  0
   31.7040   30.9260   36.4180 H   0  0  0  0  0  0  0  0  0  0  0  0
   32.9850   32.0880   38.1670 H   0  0  0  0  0  0  0  0  0  0  0  0
   35.3400   32.5340   37.7890 H   0  0  0  0  0  0  0  0  0  0  0  0
  1 27  1  0  0  0  0
  1  2  1  0  0  0  0
  1  4  1  0  0  0  0
  3  1  1  0  0  0  0
  4  5  2  0  0  0  0
  4  9  1  0  0  0  0
  5  6  1  0  0  0  0
  6 11  1  0  0  0  0
  6  7  2  0  0  0  0
  8  7  1  0  0  0  0
  8 12  1  0  0  0  0
  9  8  2  0  0  0  0
 10  5  1  0  0  0  0
 13 12  1  0  0  0  0
 14 12  1  0  0  0  0
 15 21  1  1  0  0  0
 15 20  1  0  0  0  0
 16 12  1  6  0  0  0
 16 15  1  0  0  0  0
 16 17  1  0  0  0  0
 17 18  1  0  0  0  0
 18 19  1  0  0  0  0
 19 23  1  1  0  0  0
 20 25  1  6  0  0  0
 20 19  1  0  0  0  0
 21 22  1  0  0  0  0
 23 24  1  0  0  0  0
 25 26  1  0  0  0  0
 27 30  1  0  0  0  0
 28 27  1  0  0  0  0
 29 27  1  0  0  0  0
 30 35  1  0  0  0  0
 31 32  1  0  0  0  0
 32 38  1  0  0  0  0
 32 33  2  0  0  0  0
 33 41  1  0  0  0  0
 34 33  1  0  0  0  0
 35 34  2  0  0  0  0
 36 31  2  0  0  0  0
 36 35  1  0  0  0  0
 37 31  1  0  0  0  0
 39 40  1  0  0  0  0
 40 45  1  0  0  0  0
 41 42  1  0  0  0  0
 41 40  2  0  0  0  0
 42 43  2  0  0  0  0
 43 47  1  0  0  0  0
 43 44  1  0  0  0  0
 44 48  1  0  0  0  0
 45 44  2  0  0  0  0
 45 49  1  0  0  0  0
 46 42  1  0  0  0  0
M  END
>  <minimizedAffinity>
-7.23517036

$$$$

 OpenBabel03272509593D

 49 52  0  0  1  0  0  0  0  0999 V2000
   36.5890   28.1520   34.1880 C   0  0  0  0  0  0  0  0  0  0  0  0
   36.0310   27.3490   34.7410 H   0  0  0  0  0  0  0  0  0  0  0  0
   37.2430   28.6200   34.9470 H   0  0  0  0  0  0  0  0  0  0  0  0
   35.5450   29.0970   33.7140 C   0  0  0  0  0  0  0  0  0  0  0  0
   35.6930   29.6570   32.4500 C   0  0  0  0  0  0  0  0  0  0  0  0
   34.7790   30.5340   31.9390 C   0  0  0  0  0  0  0  0  0  0  0  0
   33.7180   30.8630   32.6700 N   0  0  0  0  0  0  0  0  0  0  0  0
   33.5740   30.3120   33.9110 C   0  0  0  0  0  0  0  0  0  0  0  0
   34.4540   29.4490   34.4390 N   0  0  0  0  0  0  0  0  0  0  0  0
   36.5440   29.4190   31.8150 H   0  0  0  0  0  0  0  0  0  0  0  0
   34.9110   30.9630   30.9490 H   0  0  0  0  0  0  0  0  0  0  0  0
   32.3730   30.7120   34.6840 C   0  0  0  0  0  0  0  0  0  0  0  0
   32.6140   31.5070   35.4090 H   0  0  0  0  0  0  0  0  0  0  0  0
   31.5470   31.1050   34.0610 H   0  0  0  0  0  0  0  0  0  0  0  0
   31.5660   29.9210   36.9160 C   0  0  2  0  0  3  0  0  0  0  0  0
   31.9380   29.5170   35.5050 C   0  0  1  0  0  3  0  0  0  0  0  0
   30.8230   28.8890   34.9570 O   0  0  0  0  0  0  0  0  0  0  0  0
   30.8450   27.5600   35.3710 C   0  0  0  0  0  2  0  0  0  0  0  0
   31.3380   27.4120   36.7890 C   0  0  1  0  0  3  0  0  0  0  0  0
   31.0890   28.6550   37.6120 C   0  0  1  0  0  3  0  0  0  0  0  0
   30.5200   30.8480   36.8260 O   0  0  0  0  0  0  0  0  0  0  0  0
   29.6710   30.4270   37.1410 H   0  0  0  0  0  0  0  0  0  0  0  0
   30.6020   26.3790   37.3780 O   0  0  0  0  0  0  0  0  0  0  0  0
   31.1430   25.5330   37.4490 H   0  0  0  0  0  0  0  0  0  0  0  0
   31.8660   28.5120   38.7640 O   0  0  0  0  0  0  0  0  0  0  0  0
   31.3070   28.2860   39.5450 H   0  0  0  0  0  0  0  0  0  0  0  0
   37.3220   27.4860   33.0660 C   0  0  0  0  0  0  0  0  0  0  0  0
   38.3360   27.2100   33.4500 H   0  0  0  0  0  0  0  0  0  0  0  0
   37.5130   28.1760   32.2000 H   0  0  0  0  0  0  0  0  0  0  0  0
   36.6790   26.2940   32.6540 O   0  0  0  0  0  0  0  0  0  0  0  0
   38.3030   23.1110   32.1400 C   0  0  0  0  0  0  0  0  0  0  0  0
   38.6660   22.8100   33.4780 C   0  0  0  0  0  0  0  0  0  0  0  0
   38.3290   23.7180   34.4620 C   0  0  0  0  0  0  0  0  0  0  0  0
   37.6680   24.8390   34.0550 N   0  0  0  0  0  0  0  0  0  0  0  0
   37.3300   25.1170   32.7970 C   0  0  0  0  0  0  0  0  0  0  0  0
   37.6570   24.2320   31.8290 N   0  0  0  0  0  0  0  0  0  0  0  0
   38.5970   22.3590   31.4210 H   0  0  0  0  0  0  0  0  0  0  0  0
   39.1870   21.9200   33.7750 H   0  0  0  0  0  0  0  0  0  0  0  0
   40.5460   22.3300   35.7080 F   0  0  0  0  0  0  0  0  0  0  0  0
   39.6400   22.9310   36.4720 C   0  0  0  0  0  0  0  0  0  0  0  0
   38.6220   23.5670   35.8740 C   0  0  0  0  0  0  0  0  0  0  0  0
   37.7190   24.1690   36.7650 C   0  0  0  0  0  0  0  0  0  0  0  0
   37.8810   24.1020   38.1230 C   0  0  0  0  0  0  0  0  0  0  0  0
   38.9470   23.4330   38.6840 C   0  0  0  0  0  0  0  0  0  0  0  0
   39.8240   22.8490   37.8340 C   0  0  0  0  0  0  0  0  0  0  0  0
   36.8500   24.7170   36.4160 H   0  0  0  0  0  0  0  0  0  0  0  0
   37.1670   24.5760   38.7970 H   0  0  0  0  0  0  0  0  0  0  0  0
   39.0860   23.3720   39.7560 H   0  0  0  0  0  0  0  0  0  0  0  0
   40.6730   22.3170   38.2530 H   0  0  0  0  0  0  0  0  0  0  0  0
  1  2  1  0  0  0  0
  1  3  1  0  0  0  0
  4  1  1  0  0  0  0
  4  9  1  0  0  0  0
  5  4  2  0  0  0  0
  6  5  1  0  0  0  0
  6  7  2  0  0  0  0
  7  8  1  0  0  0  0
  8  9  2  0  0  0  0
  8 12  1  0  0  0  0
 10  5  1  0  0  0  0
 11  6  1  0  0  0  0
 12 13  1  0  0  0  0
 14 12  1  0  0  0  0
 15 21  1  6  0  0  0
 15 20  1  0  0  0  0
 16 12  1  6  0  0  0
 16 15  1  0  0  0  0
 17 18  1  0  0  0  0
 17 16  1  0  0  0  0
 18 19  1  0  0  0  0
 19 23  1  1  0  0  0
 19 20  1  0  0  0  0
 20 25  1  1  0  0  0
 21 22  1  0  0  0  0
 23 24  1  0  0  0  0
 25 26  1  0  0  0  0
 27 28  1  0  0  0  0
 27  1  1  0  0  0  0
 29 27  1  0  0  0  0
 30 35  1  0  0  0  0
 30 27  1  0  0  0  0
 31 32  1  0  0  0  0
 32 38  1  0  0  0  0
 32 33  2  0  0  0  0
 33 41  1  0  0  0  0
 34 33  1  0  0  0  0
 35 34  2  0  0  0  0
 36 31  2  0  0  0  0
 36 35  1  0  0  0  0
 37 31  1  0  0  0  0
 39 40  1  0  0  0  0
 40 45  1  0  0  0  0
 41 40  2  0  0  0  0
 41 42  1  0  0  0  0
 42 43  2  0  0  0  0
 43 44  1  0  0  0  0
 43 47  1  0  0  0  0
 44 48  1  0  0  0  0
 45 49  1  0  0  0  0
 45 44  2  0  0  0  0
 46 42  1  0  0  0  0
M  END
>  <minimizedAffinity>
-6.72431374

$$$$

 OpenBabel03272509593D

 49 52  0  0  1  0  0  0  0  0999 V2000
   36.3920   27.2680   32.5540 C   0  0  0  0  0  0  0  0  0  0  0  0
   36.2440   28.3810   32.5120 H   0  0  0  0  0  0  0  0  0  0  0  0
   35.4180   26.8610   32.8830 H   0  0  0  0  0  0  0  0  0  0  0  0
   37.4430   27.0540   33.5830 C   0  0  0  0  0  0  0  0  0  0  0  0
   37.2980   27.6930   34.8100 C   0  0  0  0  0  0  0  0  0  0  0  0
   38.2180   27.5500   35.8100 C   0  0  0  0  0  0  0  0  0  0  0  0
   39.2820   26.7800   35.6060 N   0  0  0  0  0  0  0  0  0  0  0  0
   39.4240   26.1540   34.4010 C   0  0  0  0  0  0  0  0  0  0  0  0
   38.5380   26.2750   33.4000 N   0  0  0  0  0  0  0  0  0  0  0  0
   36.4440   28.3320   35.0250 H   0  0  0  0  0  0  0  0  0  0  0  0
   38.0890   28.0560   36.7630 H   0  0  0  0  0  0  0  0  0  0  0  0
   40.6290   25.3070   34.2240 C   0  0  0  0  0  0  0  0  0  0  0  0
   40.6030   24.7760   33.2600 H   0  0  0  0  0  0  0  0  0  0  0  0
   41.5810   25.8710   34.2390 H   0  0  0  0  0  0  0  0  0  0  0  0
   39.4740   23.2470   35.0480 C   0  0  2  0  0  3  0  0  0  0  0  0
   40.5950   24.2350   35.2930 C   0  0  1  0  0  3  0  0  0  0  0  0
   41.7770   23.5010   35.3300 O   0  0  0  0  0  0  0  0  0  0  0  0
   41.9120   22.9910   36.6190 C   0  0  0  0  0  2  0  0  0  0  0  0
   40.5880   22.5680   37.2060 C   0  0  1  0  0  3  0  0  0  0  0  0
   39.5840   22.1940   36.1400 C   0  0  1  0  0  3  0  0  0  0  0  0
   39.6900   22.6670   33.7910 O   0  0  0  0  0  0  0  0  0  0  0  0
   39.9750   21.7160   33.9060 H   0  0  0  0  0  0  0  0  0  0  0  0
   40.8210   21.4190   37.9690 O   0  0  0  0  0  0  0  0  0  0  0  0
   40.8210   21.6230   38.9550 H   0  0  0  0  0  0  0  0  0  0  0  0
   38.3450   22.1480   36.7830 O   0  0  0  0  0  0  0  0  0  0  0  0
   38.0480   21.2170   36.9200 H   0  0  0  0  0  0  0  0  0  0  0  0
   36.8180   26.8280   31.1890 C   0  0  0  0  0  0  0  0  0  0  0  0
   37.9320   26.7180   31.2080 H   0  0  0  0  0  0  0  0  0  0  0  0
   36.6130   27.6020   30.3990 H   0  0  0  0  0  0  0  0  0  0  0  0
   36.2660   25.5710   30.8470 O   0  0  0  0  0  0  0  0  0  0  0  0
   39.0150   23.3880   30.0030 C   0  0  0  0  0  0  0  0  0  0  0  0
   38.5060   22.1600   30.4970 C   0  0  0  0  0  0  0  0  0  0  0  0
   37.2560   22.1660   31.0840 C   0  0  0  0  0  0  0  0  0  0  0  0
   36.6140   23.3670   31.1380 N   0  0  0  0  0  0  0  0  0  0  0  0
   37.0980   24.5180   30.6730 C   0  0  0  0  0  0  0  0  0  0  0  0
   38.3210   24.5200   30.0970 N   0  0  0  0  0  0  0  0  0  0  0  0
   39.9970   23.3130   29.5560 H   0  0  0  0  0  0  0  0  0  0  0  0
   39.0300   21.2250   30.4430 H   0  0  0  0  0  0  0  0  0  0  0  0
   36.4650   19.7250   29.7390 F   0  0  0  0  0  0  0  0  0  0  0  0
   36.2140   19.8660   31.0360 C   0  0  0  0  0  0  0  0  0  0  0  0
   36.5880   21.0040   31.6380 C   0  0  0  0  0  0  0  0  0  0  0  0
   36.2790   21.0580   33.0060 C   0  0  0  0  0  0  0  0  0  0  0  0
   35.6490   20.0270   33.6530 C   0  0  0  0  0  0  0  0  0  0  0  0
   35.2860   18.8790   32.9830 C   0  0  0  0  0  0  0  0  0  0  0  0
   35.5790   18.8170   31.6630 C   0  0  0  0  0  0  0  0  0  0  0  0
   36.5270   21.9210   33.6160 H   0  0  0  0  0  0  0  0  0  0  0  0
   35.4190   20.0900   34.7160 H   0  0  0  0  0  0  0  0  0  0  0  0
   34.7880   18.0580   33.4820 H   0  0  0  0  0  0  0  0  0  0  0  0
   35.3030   17.9210   31.1140 H   0  0  0  0  0  0  0  0  0  0  0  0
  1  3  1  0  0  0  0
  1  4  1  0  0  0  0
  2  1  1  0  0  0  0
  4  5  1  0  0  0  0
  5 10  1  0  0  0  0
  5  6  2  0  0  0  0
  6 11  1  0  0  0  0
  7  6  1  0  0  0  0
  8  7  2  0  0  0  0
  9  4  2  0  0  0  0
  9  8  1  0  0  0  0
 12 14  1  0  0  0  0
 12  8  1  0  0  0  0
 13 12  1  0  0  0  0
 15 21  1  6  0  0  0
 15 16  1  0  0  0  0
 15 20  1  0  0  0  0
 16 12  1  6  0  0  0
 16 17  1  0  0  0  0
 17 18  1  0  0  0  0
 18 19  1  0  0  0  0
 19 23  1  1  0  0  0
 20 25  1  1  0  0  0
 20 19  1  0  0  0  0
 21 22  1  0  0  0  0
 23 24  1  0  0  0  0
 25 26  1  0  0  0  0
 27 28  1  0  0  0  0
 27  1  1  0  0  0  0
 29 27  1  0  0  0  0
 30 27  1  0  0  0  0
 31 36  2  0  0  0  0
 31 32  1  0  0  0  0
 32 33  2  0  0  0  0
 33 34  1  0  0  0  0
 33 41  1  0  0  0  0
 35 30  1  0  0  0  0
 35 34  2  0  0  0  0
 36 35  1  0  0  0  0
 37 31  1  0  0  0  0
 38 32  1  0  0  0  0
 39 40  1  0  0  0  0
 40 41  2  0  0  0  0
 40 45  1  0  0  0  0
 41 42  1  0  0  0  0
 42 46  1  0  0  0  0
 42 43  2  0  0  0  0
 43 47  1  0  0  0  0
 44 48  1  0  0  0  0
 44 43  1  0  0  0  0
 45 44  2  0  0  0  0
 49 45  1  0  0  0  0
M  END
>  <minimizedAffinity>
-6.71046257

$$$$

 OpenBabel03272509593D

 49 52  0  0  1  0  0  0  0  0999 V2000
   35.8840   20.5240   32.8500 C   0  0  0  0  0  0  0  0  0  0  0  0
   35.7470   20.5090   33.9650 H   0  0  0  0  0  0  0  0  0  0  0  0
   35.4640   19.5650   32.4960 H   0  0  0  0  0  0  0  0  0  0  0  0
   37.3540   20.5830   32.6390 C   0  0  0  0  0  0  0  0  0  0  0  0
   37.9300   19.6530   31.7810 C   0  0  0  0  0  0  0  0  0  0  0  0
   39.2740   19.6380   31.5320 C   0  0  0  0  0  0  0  0  0  0  0  0
   40.0520   20.5370   32.1260 N   0  0  0  0  0  0  0  0  0  0  0  0
   39.4850   21.4500   32.9680 C   0  0  0  0  0  0  0  0  0  0  0  0
   38.1710   21.4900   33.2320 N   0  0  0  0  0  0  0  0  0  0  0  0
   37.3340   18.8980   31.2720 H   0  0  0  0  0  0  0  0  0  0  0  0
   39.7080   18.9030   30.8590 H   0  0  0  0  0  0  0  0  0  0  0  0
   40.3990   22.4300   33.6040 C   0  0  0  0  0  0  0  0  0  0  0  0
   41.4460   22.0940   33.5450 H   0  0  0  0  0  0  0  0  0  0  0  0
   40.3720   23.4360   33.1420 H   0  0  0  0  0  0  0  0  0  0  0  0
   41.2730   22.1880   35.9350 C   0  0  2  0  0  3  0  0  0  0  0  0
   40.0590   22.4810   35.0790 C   0  0  1  0  0  3  0  0  0  0  0  0
   39.5890   23.7340   35.4610 O   0  0  0  0  0  0  0  0  0  0  0  0
   38.7860   23.5560   36.5830 C   0  0  0  0  0  2  0  0  0  0  0  0
   39.3250   22.4920   37.5080 C   0  0  1  0  0  3  0  0  0  0  0  0
   40.8230   22.3320   37.3810 C   0  0  1  0  0  3  0  0  0  0  0  0
   42.2450   23.1510   35.6310 O   0  0  0  0  0  0  0  0  0  0  0  0
   42.3420   23.7820   36.4000 H   0  0  0  0  0  0  0  0  0  0  0  0
   39.0690   22.9120   38.8170 O   0  0  0  0  0  0  0  0  0  0  0  0
   38.2960   22.4100   39.2230 H   0  0  0  0  0  0  0  0  0  0  0  0
   41.1340   21.1310   38.0210 O   0  0  0  0  0  0  0  0  0  0  0  0
   41.5590   21.2930   38.8970 H   0  0  0  0  0  0  0  0  0  0  0  0
   35.1740   21.7380   32.3370 C   0  0  0  0  0  0  0  0  0  0  0  0
   34.9600   22.3940   33.2180 H   0  0  0  0  0  0  0  0  0  0  0  0
   34.1680   21.5000   31.8960 H   0  0  0  0  0  0  0  0  0  0  0  0
   35.9800   22.4750   31.4360 O   0  0  0  0  0  0  0  0  0  0  0  0
   35.1030   25.9340   30.8900 C   0  0  0  0  0  0  0  0  0  0  0  0
   36.0600   26.5590   31.7290 C   0  0  0  0  0  0  0  0  0  0  0  0
   36.9400   25.7510   32.4230 C   0  0  0  0  0  0  0  0  0  0  0  0
   36.8070   24.4070   32.2380 N   0  0  0  0  0  0  0  0  0  0  0  0
   35.9050   23.8260   31.4490 C   0  0  0  0  0  0  0  0  0  0  0  0
   35.0410   24.6100   30.7670 N   0  0  0  0  0  0  0  0  0  0  0  0
   34.4460   26.6230   30.3780 H   0  0  0  0  0  0  0  0  0  0  0  0
   36.1460   27.6200   31.8600 H   0  0  0  0  0  0  0  0  0  0  0  0
   36.6670   26.7840   35.1150 F   0  0  0  0  0  0  0  0  0  0  0  0
   37.8740   26.7030   34.5680 C   0  0  0  0  0  0  0  0  0  0  0  0
   37.9770   26.2220   33.3200 C   0  0  0  0  0  0  0  0  0  0  0  0
   39.2920   26.1770   32.8290 C   0  0  0  0  0  0  0  0  0  0  0  0
   40.3630   26.5910   33.5750 C   0  0  0  0  0  0  0  0  0  0  0  0
   40.1990   27.0780   34.8530 C   0  0  0  0  0  0  0  0  0  0  0  0
   38.9350   27.1270   35.3360 C   0  0  0  0  0  0  0  0  0  0  0  0
   39.5200   25.8080   31.8340 H   0  0  0  0  0  0  0  0  0  0  0  0
   41.3760   26.5470   33.1740 H   0  0  0  0  0  0  0  0  0  0  0  0
   41.0370   27.4100   35.4530 H   0  0  0  0  0  0  0  0  0  0  0  0
   38.7810   27.5070   36.3420 H   0  0  0  0  0  0  0  0  0  0  0  0
  1  2  1  0  0  0  0
  3  1  1  0  0  0  0
  4  1  1  0  0  0  0
  4  9  1  0  0  0  0
  5  4  2  0  0  0  0
  6  5  1  0  0  0  0
  6  7  2  0  0  0  0
  7  8  1  0  0  0  0
  8  9  2  0  0  0  0
  8 12  1  0  0  0  0
 10  5  1  0  0  0  0
 11  6  1  0  0  0  0
 13 12  1  0  0  0  0
 14 12  1  0  0  0  0
 15 21  1  6  0  0  0
 15 20  1  0  0  0  0
 16 12  1  6  0  0  0
 16 17  1  0  0  0  0
 16 15  1  0  0  0  0
 17 18  1  0  0  0  0
 18 19  1  0  0  0  0
 19 23  1  1  0  0  0
 20 19  1  0  0  0  0
 20 25  1  1  0  0  0
 21 22  1  0  0  0  0
 23 24  1  0  0  0  0
 25 26  1  0  0  0  0
 27  1  1  0  0  0  0
 27 28  1  0  0  0  0
 29 27  1  0  0  0  0
 30 35  1  0  0  0  0
 30 27  1  0  0  0  0
 31 32  1  0  0  0  0
 32 38  1  0  0  0  0
 32 33  2  0  0  0  0
 33 41  1  0  0  0  0
 34 33  1  0  0  0  0
 35 34  2  0  0  0  0
 36 31  2  0  0  0  0
 36 35  1  0  0  0  0
 37 31  1  0  0  0  0
 40 39  1  0  0  0  0
 40 45  1  0  0  0  0
 41 40  2  0  0  0  0
 42 41  1  0  0  0  0
 42 43  2  0  0  0  0
 43 44  1  0  0  0  0
 44 45  2  0  0  0  0
 44 48  1  0  0  0  0
 45 49  1  0  0  0  0
 46 42  1  0  0  0  0
 47 43  1  0  0  0  0
M  END
>  <minimizedAffinity>
-6.57197809

$$$$

 OpenBabel03272509593D

 49 52  0  0  1  0  0  0  0  0999 V2000
   37.5000   25.6070   35.7630 C   0  0  0  0  0  0  0  0  0  0  0  0
   37.5900   26.5470   36.3720 H   0  0  0  0  0  0  0  0  0  0  0  0
   36.4360   25.3160   35.8390 H   0  0  0  0  0  0  0  0  0  0  0  0
   38.3810   24.6190   36.4390 C   0  0  0  0  0  0  0  0  0  0  0  0
   38.0260   24.1890   37.7120 C   0  0  0  0  0  0  0  0  0  0  0  0
   38.7800   23.2820   38.4030 C   0  0  0  0  0  0  0  0  0  0  0  0
   39.8850   22.8000   37.8430 N   0  0  0  0  0  0  0  0  0  0  0  0
   40.2330   23.2240   36.5930 C   0  0  0  0  0  0  0  0  0  0  0  0
   39.5130   24.1110   35.8900 N   0  0  0  0  0  0  0  0  0  0  0  0
   37.1310   24.5550   38.2120 H   0  0  0  0  0  0  0  0  0  0  0  0
   38.4880   22.9570   39.3980 H   0  0  0  0  0  0  0  0  0  0  0  0
   41.4750   22.6540   36.0140 C   0  0  0  0  0  0  0  0  0  0  0  0
   42.0660   22.1310   36.7820 H   0  0  0  0  0  0  0  0  0  0  0  0
   41.2980   21.9170   35.2070 H   0  0  0  0  0  0  0  0  0  0  0  0
   43.5520   23.9850   36.4190 C   0  0  2  0  0  3  0  0  0  0  0  0
   42.3310   23.8090   35.5420 C   0  0  1  0  0  3  0  0  0  0  0  0
   42.7920   23.6160   34.2430 O   0  0  0  0  0  0  0  0  0  0  0  0
   43.0350   24.8730   33.6940 C   0  0  0  0  0  2  0  0  0  0  0  0
   43.6100   25.8350   34.7050 C   0  0  1  0  0  3  0  0  0  0  0  0
   44.3570   25.1230   35.8090 C   0  0  1  0  0  3  0  0  0  0  0  0
   44.2840   22.7920   36.3680 O   0  0  0  0  0  0  0  0  0  0  0  0
   45.1230   22.9360   35.8440 H   0  0  0  0  0  0  0  0  0  0  0  0
   44.5390   26.6350   34.0330 O   0  0  0  0  0  0  0  0  0  0  0  0
   44.1730   27.5560   33.8520 H   0  0  0  0  0  0  0  0  0  0  0  0
   44.5420   26.0710   36.8170 O   0  0  0  0  0  0  0  0  0  0  0  0
   45.4770   26.3880   36.8420 H   0  0  0  0  0  0  0  0  0  0  0  0
   37.9540   25.9370   34.3760 C   0  0  0  0  0  0  0  0  0  0  0  0
   37.2100   25.4910   33.6690 H   0  0  0  0  0  0  0  0  0  0  0  0
   38.9350   25.4560   34.1120 H   0  0  0  0  0  0  0  0  0  0  0  0
   37.9780   27.3340   34.1500 O   0  0  0  0  0  0  0  0  0  0  0  0
   35.2820   28.4090   32.0040 C   0  0  0  0  0  0  0  0  0  0  0  0
   34.6400   29.3300   32.8700 C   0  0  0  0  0  0  0  0  0  0  0  0
   35.1760   29.5200   34.1290 C   0  0  0  0  0  0  0  0  0  0  0  0
   36.2900   28.7930   34.4310 N   0  0  0  0  0  0  0  0  0  0  0  0
   36.8880   27.9290   33.6140 C   0  0  0  0  0  0  0  0  0  0  0  0
   36.3680   27.7390   32.3810 N   0  0  0  0  0  0  0  0  0  0  0  0
   34.8110   28.3090   31.0360 H   0  0  0  0  0  0  0  0  0  0  0  0
   33.7630   29.8920   32.6100 H   0  0  0  0  0  0  0  0  0  0  0  0
   32.4810   29.6750   35.1780 F   0  0  0  0  0  0  0  0  0  0  0  0
   33.4070   30.5100   35.6350 C   0  0  0  0  0  0  0  0  0  0  0  0
   34.6490   30.4200   35.1340 C   0  0  0  0  0  0  0  0  0  0  0  0
   35.5550   31.3440   35.6790 C   0  0  0  0  0  0  0  0  0  0  0  0
   35.1850   32.2500   36.6380 C   0  0  0  0  0  0  0  0  0  0  0  0
   33.8940   32.2980   37.1160 C   0  0  0  0  0  0  0  0  0  0  0  0
   33.0110   31.4120   36.5970 C   0  0  0  0  0  0  0  0  0  0  0  0
   36.5930   31.3820   35.3660 H   0  0  0  0  0  0  0  0  0  0  0  0
   35.9050   32.9590   37.0470 H   0  0  0  0  0  0  0  0  0  0  0  0
   33.5880   33.0090   37.8730 H   0  0  0  0  0  0  0  0  0  0  0  0
   31.9870   31.4300   36.9590 H   0  0  0  0  0  0  0  0  0  0  0  0
  1  3  1  0  0  0  0
  1  2  1  0  0  0  0
  1  4  1  0  0  0  0
  4  5  1  0  0  0  0
  5 10  1  0  0  0  0
  5  6  2  0  0  0  0
  6 11  1  0  0  0  0
  7  6  1  0  0  0  0
  8  7  2  0  0  0  0
  9  4  2  0  0  0  0
  9  8  1  0  0  0  0
 12  8  1  0  0  0  0
 12 13  1  0  0  0  0
 14 12  1  0  0  0  0
 15 21  1  6  0  0  0
 16 12  1  1  0  0  0
 16 15  1  0  0  0  0
 17 16  1  0  0  0  0
 18 17  1  0  0  0  0
 18 19  1  0  0  0  0
 19 23  1  6  0  0  0
 19 20  1  0  0  0  0
 20 15  1  0  0  0  0
 20 25  1  1  0  0  0
 22 21  1  0  0  0  0
 24 23  1  0  0  0  0
 25 26  1  0  0  0  0
 27  1  1  0  0  0  0
 28 27  1  0  0  0  0
 29 27  1  0  0  0  0
 30 27  1  0  0  0  0
 31 36  2  0  0  0  0
 31 32  1  0  0  0  0
 32 33  2  0  0  0  0
 33 34  1  0  0  0  0
 33 41  1  0  0  0  0
 35 30  1  0  0  0  0
 35 34  2  0  0  0  0
 36 35  1  0  0  0  0
 37 31  1  0  0  0  0
 38 32  1  0  0  0  0
 39 40  1  0  0  0  0
 40 45  1  0  0  0  0
 41 40  2  0  0  0  0
 41 42  1  0  0  0  0
 42 43  2  0  0  0  0
 43 47  1  0  0  0  0
 43 44  1  0  0  0  0
 44 48  1  0  0  0  0
 45 49  1  0  0  0  0
 45 44  2  0  0  0  0
 46 42  1  0  0  0  0
M  END
>  <minimizedAffinity>
-6.55346727

$$$$

 OpenBabel03272509593D

 49 52  0  0  1  0  0  0  0  0999 V2000
   39.3410   27.2500   31.4010 C   0  0  0  0  0  0  0  0  0  0  0  0
   39.8860   27.0330   30.4420 H   0  0  0  0  0  0  0  0  0  0  0  0
   39.3690   28.3510   31.5030 H   0  0  0  0  0  0  0  0  0  0  0  0
   40.1410   26.5870   32.4630 C   0  0  0  0  0  0  0  0  0  0  0  0
   41.0280   27.3660   33.1970 C   0  0  0  0  0  0  0  0  0  0  0  0
   41.8010   26.8340   34.1920 C   0  0  0  0  0  0  0  0  0  0  0  0
   41.7030   25.5370   34.4640 N   0  0  0  0  0  0  0  0  0  0  0  0
   40.8310   24.7740   33.7430 C   0  0  0  0  0  0  0  0  0  0  0  0
   40.0590   25.2660   32.7620 N   0  0  0  0  0  0  0  0  0  0  0  0
   41.1440   28.4320   33.0110 H   0  0  0  0  0  0  0  0  0  0  0  0
   42.4900   27.4580   34.7560 H   0  0  0  0  0  0  0  0  0  0  0  0
   40.7600   23.3320   34.0880 C   0  0  0  0  0  0  0  0  0  0  0  0
   40.0780   22.7950   33.4090 H   0  0  0  0  0  0  0  0  0  0  0  0
   41.7320   22.8070   34.0260 H   0  0  0  0  0  0  0  0  0  0  0  0
   38.6350   23.2070   35.4010 C   0  0  2  0  0  3  0  0  0  0  0  0
   40.1480   23.2220   35.4680 C   0  0  1  0  0  3  0  0  0  0  0  0
   40.5340   22.0520   36.1150 O   0  0  0  0  0  0  0  0  0  0  0  0
   40.4470   22.2830   37.4850 C   0  0  0  0  0  2  0  0  0  0  0  0
   39.2600   23.1440   37.8440 C   0  0  1  0  0  3  0  0  0  0  0  0
   38.1450   23.0290   36.8300 C   0  0  1  0  0  3  0  0  0  0  0  0
   38.2590   22.1080   34.6190 O   0  0  0  0  0  0  0  0  0  0  0  0
   37.8490   21.4070   35.2020 H   0  0  0  0  0  0  0  0  0  0  0  0
   38.7570   22.6700   39.0600 O   0  0  0  0  0  0  0  0  0  0  0  0
   39.0110   23.2730   39.8260 H   0  0  0  0  0  0  0  0  0  0  0  0
   37.2790   24.0920   37.0950 O   0  0  0  0  0  0  0  0  0  0  0  0
   36.4560   23.7790   37.5420 H   0  0  0  0  0  0  0  0  0  0  0  0
   37.9660   26.6760   31.2650 C   0  0  0  0  0  0  0  0  0  0  0  0
   38.0440   25.5780   31.4650 H   0  0  0  0  0  0  0  0  0  0  0  0
   37.5620   26.7570   30.2180 H   0  0  0  0  0  0  0  0  0  0  0  0
   37.0720   27.2250   32.2150 O   0  0  0  0  0  0  0  0  0  0  0  0
   35.9170   30.3170   30.7520 C   0  0  0  0  0  0  0  0  0  0  0  0
   35.4000   30.9510   31.9100 C   0  0  0  0  0  0  0  0  0  0  0  0
   35.4840   30.2750   33.1120 C   0  0  0  0  0  0  0  0  0  0  0  0
   36.0630   29.0410   33.0770 N   0  0  0  0  0  0  0  0  0  0  0  0
   36.5460   28.4500   31.9860 C   0  0  0  0  0  0  0  0  0  0  0  0
   36.4680   29.1060   30.8070 N   0  0  0  0  0  0  0  0  0  0  0  0
   35.8190   30.9000   29.8470 H   0  0  0  0  0  0  0  0  0  0  0  0
   34.9480   31.9240   31.9140 H   0  0  0  0  0  0  0  0  0  0  0  0
   32.9380   29.7890   34.4050 F   0  0  0  0  0  0  0  0  0  0  0  0
   33.8360   30.5630   35.0040 C   0  0  0  0  0  0  0  0  0  0  0  0
   35.0080   30.7750   34.3870 C   0  0  0  0  0  0  0  0  0  0  0  0
   35.8880   31.6060   35.0970 C   0  0  0  0  0  0  0  0  0  0  0  0
   35.5620   32.1440   36.3140 C   0  0  0  0  0  0  0  0  0  0  0  0
   34.3410   31.8930   36.9020 C   0  0  0  0  0  0  0  0  0  0  0  0
   33.4840   31.0930   36.2250 C   0  0  0  0  0  0  0  0  0  0  0  0
   36.8720   31.8590   34.7150 H   0  0  0  0  0  0  0  0  0  0  0  0
   36.2610   32.7860   36.8490 H   0  0  0  0  0  0  0  0  0  0  0  0
   34.0700   32.3120   37.8630 H   0  0  0  0  0  0  0  0  0  0  0  0
   32.5160   30.8810   36.6690 H   0  0  0  0  0  0  0  0  0  0  0  0
  1  3  1  0  0  0  0
  1  4  1  0  0  0  0
  2  1  1  0  0  0  0
  4  9  2  0  0  0  0
  4  5  1  0  0  0  0
  5  6  2  0  0  0  0
  6  7  1  0  0  0  0
  6 11  1  0  0  0  0
  8 12  1  0  0  0  0
  8  7  2  0  0  0  0
  9  8  1  0  0  0  0
 10  5  1  0  0  0  0
 13 12  1  0  0  0  0
 14 12  1  0  0  0  0
 15 21  1  6  0  0  0
 15 16  1  0  0  0  0
 15 20  1  0  0  0  0
 16 12  1  6  0  0  0
 16 17  1  0  0  0  0
 17 18  1  0  0  0  0
 18 19  1  0  0  0  0
 19 23  1  1  0  0  0
 20 25  1  1  0  0  0
 20 19  1  0  0  0  0
 21 22  1  0  0  0  0
 23 24  1  0  0  0  0
 25 26  1  0  0  0  0
 27  1  1  0  0  0  0
 27 28  1  0  0  0  0
 27 30  1  0  0  0  0
 29 27  1  0  0  0  0
 31 36  2  0  0  0  0
 31 32  1  0  0  0  0
 32 38  1  0  0  0  0
 32 33  2  0  0  0  0
 33 41  1  0  0  0  0
 34 33  1  0  0  0  0
 35 30  1  0  0  0  0
 35 34  2  0  0  0  0
 36 35  1  0  0  0  0
 37 31  1  0  0  0  0
 39 40  1  0  0  0  0
 40 45  1  0  0  0  0
 41 40  2  0  0  0  0
 41 42  1  0  0  0  0
 42 43  2  0  0  0  0
 43 47  1  0  0  0  0
 43 44  1  0  0  0  0
 44 48  1  0  0  0  0
 45 49  1  0  0  0  0
 45 44  2  0  0  0  0
 46 42  1  0  0  0  0
M  END
>  <minimizedAffinity>
-6.53611231

$$$$

 OpenBabel03272509593D

 49 52  0  0  1  0  0  0  0  0999 V2000
   37.3760   26.8310   34.7840 C   0  0  0  0  0  0  0  0  0  0  0  0
   37.0160   25.7690   34.7140 H   0  0  0  0  0  0  0  0  0  0  0  0
   36.9270   27.2260   35.7140 H   0  0  0  0  0  0  0  0  0  0  0  0
   36.8210   27.5100   33.5840 C   0  0  0  0  0  0  0  0  0  0  0  0
   36.9850   26.8930   32.3480 C   0  0  0  0  0  0  0  0  0  0  0  0
   36.5050   27.4490   31.1960 C   0  0  0  0  0  0  0  0  0  0  0  0
   35.8640   28.6120   31.2560 N   0  0  0  0  0  0  0  0  0  0  0  0
   35.7030   29.2160   32.4700 C   0  0  0  0  0  0  0  0  0  0  0  0
   36.1620   28.6950   33.6180 N   0  0  0  0  0  0  0  0  0  0  0  0
   37.5030   25.9410   32.2480 H   0  0  0  0  0  0  0  0  0  0  0  0
   36.6430   26.9540   30.2380 H   0  0  0  0  0  0  0  0  0  0  0  0
   34.9800   30.5120   32.4820 C   0  0  0  0  0  0  0  0  0  0  0  0
   35.4780   31.2500   31.8340 H   0  0  0  0  0  0  0  0  0  0  0  0
   33.9340   30.4460   32.1270 H   0  0  0  0  0  0  0  0  0  0  0  0
   35.6560   32.4600   33.8970 C   0  0  2  0  0  3  0  0  0  0  0  0
   35.0610   31.0680   33.8880 C   0  0  1  0  0  3  0  0  0  0  0  0
   33.8060   31.1620   34.4830 O   0  0  0  0  0  0  0  0  0  0  0  0
   33.9910   31.1010   35.8610 C   0  0  0  0  0  2  0  0  0  0  0  0
   35.2370   31.8280   36.3020 C   0  0  1  0  0  3  0  0  0  0  0  0
   35.6240   32.9300   35.3430 C   0  0  1  0  0  3  0  0  0  0  0  0
   34.8360   33.2730   33.1040 O   0  0  0  0  0  0  0  0  0  0  0  0
   34.3320   33.9100   33.6870 H   0  0  0  0  0  0  0  0  0  0  0  0
   34.9500   32.4360   37.5280 O   0  0  0  0  0  0  0  0  0  0  0  0
   35.3660   31.9350   38.2970 H   0  0  0  0  0  0  0  0  0  0  0  0
   36.9320   33.2870   35.6800 O   0  0  0  0  0  0  0  0  0  0  0  0
   36.9550   34.1500   36.1590 H   0  0  0  0  0  0  0  0  0  0  0  0
   38.8720   26.7900   34.7880 C   0  0  0  0  0  0  0  0  0  0  0  0
   39.2020   26.8460   35.8550 H   0  0  0  0  0  0  0  0  0  0  0  0
   39.3340   27.6860   34.2900 H   0  0  0  0  0  0  0  0  0  0  0  0
   39.3650   25.5780   34.2470 O   0  0  0  0  0  0  0  0  0  0  0  0
   38.9230   22.7910   36.4990 C   0  0  0  0  0  0  0  0  0  0  0  0
   38.1060   21.9590   35.6910 C   0  0  0  0  0  0  0  0  0  0  0  0
   37.7650   22.4100   34.4310 C   0  0  0  0  0  0  0  0  0  0  0  0
   38.2490   23.6330   34.0710 N   0  0  0  0  0  0  0  0  0  0  0  0
   39.0150   24.4110   34.8340 C   0  0  0  0  0  0  0  0  0  0  0  0
   39.3530   23.9750   36.0680 N   0  0  0  0  0  0  0  0  0  0  0  0
   39.1520   22.3780   37.4710 H   0  0  0  0  0  0  0  0  0  0  0  0
   37.7370   20.9990   35.9960 H   0  0  0  0  0  0  0  0  0  0  0  0
   35.5850   20.5760   34.9560 F   0  0  0  0  0  0  0  0  0  0  0  0
   35.9300   20.8370   33.6990 C   0  0  0  0  0  0  0  0  0  0  0  0
   36.9420   21.6890   33.4800 C   0  0  0  0  0  0  0  0  0  0  0  0
   37.2320   21.8990   32.1230 C   0  0  0  0  0  0  0  0  0  0  0  0
   36.5290   21.2800   31.1230 C   0  0  0  0  0  0  0  0  0  0  0  0
   35.4970   20.4120   31.4060 C   0  0  0  0  0  0  0  0  0  0  0  0
   35.2100   20.2020   32.7130 C   0  0  0  0  0  0  0  0  0  0  0  0
   38.0260   22.5650   31.8020 H   0  0  0  0  0  0  0  0  0  0  0  0
   36.7710   21.4580   30.0750 H   0  0  0  0  0  0  0  0  0  0  0  0
   34.9340   19.9160   30.6260 H   0  0  0  0  0  0  0  0  0  0  0  0
   34.4000   19.5220   32.9600 H   0  0  0  0  0  0  0  0  0  0  0  0
  1 27  1  0  0  0  0
  1  3  1  0  0  0  0
  2  1  1  0  0  0  0
  4  9  1  0  0  0  0
  4  1  1  0  0  0  0
  5  4  2  0  0  0  0
  6  7  2  0  0  0  0
  6  5  1  0  0  0  0
  7  8  1  0  0  0  0
  8 12  1  0  0  0  0
  8  9  2  0  0  0  0
 10  5  1  0  0  0  0
 11  6  1  0  0  0  0
 13 12  1  0  0  0  0
 14 12  1  0  0  0  0
 15 21  1  6  0  0  0
 15 20  1  0  0  0  0
 16 12  1  6  0  0  0
 16 15  1  0  0  0  0
 16 17  1  0  0  0  0
 17 18  1  0  0  0  0
 18 19  1  0  0  0  0
 19 23  1  1  0  0  0
 20 25  1  1  0  0  0
 20 19  1  0  0  0  0
 21 22  1  0  0  0  0
 23 24  1  0  0  0  0
 25 26  1  0  0  0  0
 27 28  1  0  0  0  0
 29 27  1  0  0  0  0
 30 27  1  0  0  0  0
 30 35  1  0  0  0  0
 31 37  1  0  0  0  0
 32 38  1  0  0  0  0
 32 31  2  0  0  0  0
 33 32  1  0  0  0  0
 34 33  2  0  0  0  0
 34 35  1  0  0  0  0
 35 36  2  0  0  0  0
 36 31  1  0  0  0  0
 40 39  1  0  0  0  0
 41 40  1  0  0  0  0
 41 33  1  0  0  0  0
 42 41  2  0  0  0  0
 43 44  2  0  0  0  0
 43 42  1  0  0  0  0
 44 45  1  0  0  0  0
 45 49  1  0  0  0  0
 45 40  2  0  0  0  0
 46 42  1  0  0  0  0
 47 43  1  0  0  0  0
 48 44  1  0  0  0  0
M  END
>  <minimizedAffinity>
-6.46856213

$$$$

 OpenBabel03272509593D

 49 52  0  0  1  0  0  0  0  0999 V2000
   41.7700   22.3280   36.8060 C   0  0  0  0  0  0  0  0  0  0  0  0
   41.7400   21.2170   36.6430 H   0  0  0  0  0  0  0  0  0  0  0  0
   42.0660   22.4550   37.8640 H   0  0  0  0  0  0  0  0  0  0  0  0
   40.3780   22.7930   36.5740 C   0  0  0  0  0  0  0  0  0  0  0  0
   39.5990   23.1090   37.6830 C   0  0  0  0  0  0  0  0  0  0  0  0
   38.3100   23.5440   37.5570 C   0  0  0  0  0  0  0  0  0  0  0  0
   37.7840   23.6680   36.3430 N   0  0  0  0  0  0  0  0  0  0  0  0
   38.5490   23.3590   35.2560 C   0  0  0  0  0  0  0  0  0  0  0  0
   39.8170   22.9300   35.3470 N   0  0  0  0  0  0  0  0  0  0  0  0
   39.9850   23.0230   38.6960 H   0  0  0  0  0  0  0  0  0  0  0  0
   37.7150   23.7850   38.4340 H   0  0  0  0  0  0  0  0  0  0  0  0
   37.9140   23.5150   33.9240 C   0  0  0  0  0  0  0  0  0  0  0  0
   37.1820   24.3380   33.9280 H   0  0  0  0  0  0  0  0  0  0  0  0
   38.6280   23.7430   33.1090 H   0  0  0  0  0  0  0  0  0  0  0  0
   37.7720   21.4310   32.5480 C   0  0  2  0  0  3  0  0  0  0  0  0
   37.1260   22.2540   33.6420 C   0  0  1  0  0  3  0  0  0  0  0  0
   37.0390   21.4350   34.7640 O   0  0  0  0  0  0  0  0  0  0  0  0
   35.8880   20.6630   34.6300 C   0  0  0  0  0  2  0  0  0  0  0  0
   35.6490   20.2380   33.2020 C   0  0  1  0  0  3  0  0  0  0  0  0
   36.9310   20.1720   32.4050 C   0  0  1  0  0  3  0  0  0  0  0  0
   39.0660   21.1050   32.9740 O   0  0  0  0  0  0  0  0  0  0  0  0
   39.1100   20.1310   33.1930 H   0  0  0  0  0  0  0  0  0  0  0  0
   35.1240   18.9420   33.2380 O   0  0  0  0  0  0  0  0  0  0  0  0
   34.1320   18.9400   33.0590 H   0  0  0  0  0  0  0  0  0  0  0  0
   36.5440   20.0960   31.0650 O   0  0  0  0  0  0  0  0  0  0  0  0
   36.6660   19.1840   30.7090 H   0  0  0  0  0  0  0  0  0  0  0  0
   42.7430   22.8920   35.8190 C   0  0  0  0  0  0  0  0  0  0  0  0
   42.2140   22.9630   34.8360 H   0  0  0  0  0  0  0  0  0  0  0  0
   43.6190   22.2120   35.6340 H   0  0  0  0  0  0  0  0  0  0  0  0
   43.1590   24.1960   36.1800 O   0  0  0  0  0  0  0  0  0  0  0  0
   43.6160   26.8100   33.7310 C   0  0  0  0  0  0  0  0  0  0  0  0
   42.2700   27.2270   33.5730 C   0  0  0  0  0  0  0  0  0  0  0  0
   41.3000   26.5830   34.3160 C   0  0  0  0  0  0  0  0  0  0  0  0
   41.7280   25.5910   35.1470 N   0  0  0  0  0  0  0  0  0  0  0  0
   42.9940   25.2030   35.2910 C   0  0  0  0  0  0  0  0  0  0  0  0
   43.9490   25.8290   34.5670 N   0  0  0  0  0  0  0  0  0  0  0  0
   44.3230   27.3540   33.1210 H   0  0  0  0  0  0  0  0  0  0  0  0
   41.9560   28.0110   32.9120 H   0  0  0  0  0  0  0  0  0  0  0  0
   39.5840   26.8970   32.0030 F   0  0  0  0  0  0  0  0  0  0  0  0
   39.0690   27.0320   33.2200 C   0  0  0  0  0  0  0  0  0  0  0  0
   39.8820   26.8830   34.2770 C   0  0  0  0  0  0  0  0  0  0  0  0
   39.2450   27.0450   35.5180 C   0  0  0  0  0  0  0  0  0  0  0  0
   37.9090   27.3290   35.6210 C   0  0  0  0  0  0  0  0  0  0  0  0
   37.1210   27.4720   34.5000 C   0  0  0  0  0  0  0  0  0  0  0  0
   37.7240   27.3190   33.2980 C   0  0  0  0  0  0  0  0  0  0  0  0
   39.7840   26.9500   36.4550 H   0  0  0  0  0  0  0  0  0  0  0  0
   37.4360   27.4510   36.5950 H   0  0  0  0  0  0  0  0  0  0  0  0
   36.0640   27.6970   34.5670 H   0  0  0  0  0  0  0  0  0  0  0  0
   37.1230   27.4260   32.4000 H   0  0  0  0  0  0  0  0  0  0  0  0
  1  3  1  0  0  0  0
  2  1  1  0  0  0  0
  4  1  1  0  0  0  0
  4  5  1  0  0  0  0
  5 10  1  0  0  0  0
  6  5  2  0  0  0  0
  6 11  1  0  0  0  0
  7  6  1  0  0  0  0
  8  9  1  0  0  0  0
  8  7  2  0  0  0  0
  9  4  2  0  0  0  0
 12 13  1  0  0  0  0
 12  8  1  0  0  0  0
 14 12  1  0  0  0  0
 15 21  1  1  0  0  0
 15 16  1  0  0  0  0
 16 12  1  1  0  0  0
 16 17  1  0  0  0  0
 18 17  1  0  0  0  0
 19 23  1  1  0  0  0
 19 18  1  0  0  0  0
 20 25  1  6  0  0  0
 20 15  1  0  0  0  0
 20 19  1  0  0  0  0
 21 22  1  0  0  0  0
 24 23  1  0  0  0  0
 26 25  1  0  0  0  0
 27 30  1  0  0  0  0
 27  1  1  0  0  0  0
 28 27  1  0  0  0  0
 29 27  1  0  0  0  0
 31 36  1  0  0  0  0
 32 31  2  0  0  0  0
 32 33  1  0  0  0  0
 33 34  2  0  0  0  0
 34 35  1  0  0  0  0
 35 30  1  0  0  0  0
 36 35  2  0  0  0  0
 37 31  1  0  0  0  0
 38 32  1  0  0  0  0
 39 40  1  0  0  0  0
 40 45  2  0  0  0  0
 40 41  1  0  0  0  0
 41 33  1  0  0  0  0
 41 42  2  0  0  0  0
 42 43  1  0  0  0  0
 42 46  1  0  0  0  0
 43 47  1  0  0  0  0
 44 48  1  0  0  0  0
 44 43  2  0  0  0  0
 45 44  1  0  0  0  0
 49 45  1  0  0  0  0
M  END
>  <minimizedAffinity>
-6.43435907

$$$$

 OpenBabel03272509593D

 49 52  0  0  1  0  0  0  0  0999 V2000
   36.0480   24.3190   30.9820 C   0  0  0  0  0  0  0  0  0  0  0  0
   34.9800   24.6220   31.1560 H   0  0  0  0  0  0  0  0  0  0  0  0
   36.0750   23.9480   29.9410 H   0  0  0  0  0  0  0  0  0  0  0  0
   36.3050   23.2260   31.9550 C   0  0  0  0  0  0  0  0  0  0  0  0
   35.5180   22.0820   31.8780 C   0  0  0  0  0  0  0  0  0  0  0  0
   35.6890   21.0310   32.7340 C   0  0  0  0  0  0  0  0  0  0  0  0
   36.6330   21.1020   33.6670 N   0  0  0  0  0  0  0  0  0  0  0  0
   37.4060   22.2250   33.7410 C   0  0  0  0  0  0  0  0  0  0  0  0
   37.2620   23.2730   32.9150 N   0  0  0  0  0  0  0  0  0  0  0  0
   34.7330   21.9770   31.1320 H   0  0  0  0  0  0  0  0  0  0  0  0
   35.0640   20.1450   32.6600 H   0  0  0  0  0  0  0  0  0  0  0  0
   38.4450   22.2540   34.7990 C   0  0  0  0  0  0  0  0  0  0  0  0
   38.0050   22.0720   35.7930 H   0  0  0  0  0  0  0  0  0  0  0  0
   39.2390   21.4930   34.6710 H   0  0  0  0  0  0  0  0  0  0  0  0
   38.0570   24.6180   35.5170 C   0  0  2  0  0  3  0  0  0  0  0  0
   39.0130   23.6560   34.8440 C   0  0  1  0  0  3  0  0  0  0  0  0
   40.2070   23.7100   35.5580 O   0  0  0  0  0  0  0  0  0  0  0  0
   40.9300   24.8010   35.0830 C   0  0  0  0  0  2  0  0  0  0  0  0
   40.0420   25.9750   34.7530 C   0  0  1  0  0  3  0  0  0  0  0  0
   38.7630   25.9650   35.5590 C   0  0  1  0  0  3  0  0  0  0  0  0
   37.8320   24.1480   36.8170 O   0  0  0  0  0  0  0  0  0  0  0  0
   38.2830   24.7520   37.4740 H   0  0  0  0  0  0  0  0  0  0  0  0
   40.7380   27.1340   35.1070 O   0  0  0  0  0  0  0  0  0  0  0  0
   41.1070   27.6070   34.2980 H   0  0  0  0  0  0  0  0  0  0  0  0
   37.9140   26.8840   34.9380 O   0  0  0  0  0  0  0  0  0  0  0  0
   37.8460   27.7180   35.4610 H   0  0  0  0  0  0  0  0  0  0  0  0
   36.8940   25.5280   31.2300 C   0  0  0  0  0  0  0  0  0  0  0  0
   36.9230   26.1140   30.2770 H   0  0  0  0  0  0  0  0  0  0  0  0
   37.9670   25.2720   31.4490 H   0  0  0  0  0  0  0  0  0  0  0  0
   36.3390   26.3610   32.2310 O   0  0  0  0  0  0  0  0  0  0  0  0
   36.3950   29.6690   30.7860 C   0  0  0  0  0  0  0  0  0  0  0  0
   35.8780   30.4150   31.8770 C   0  0  0  0  0  0  0  0  0  0  0  0
   35.5470   29.7320   33.0310 C   0  0  0  0  0  0  0  0  0  0  0  0
   35.7490   28.3840   33.0190 N   0  0  0  0  0  0  0  0  0  0  0  0
   36.2340   27.6890   31.9920 C   0  0  0  0  0  0  0  0  0  0  0  0
   36.5600   28.3500   30.8590 N   0  0  0  0  0  0  0  0  0  0  0  0
   36.6330   30.2640   29.9160 H   0  0  0  0  0  0  0  0  0  0  0  0
   35.7280   31.4770   31.8630 H   0  0  0  0  0  0  0  0  0  0  0  0
   32.8630   29.5430   34.1020 F   0  0  0  0  0  0  0  0  0  0  0  0
   33.7730   30.2620   34.7480 C   0  0  0  0  0  0  0  0  0  0  0  0
   35.0100   30.3360   34.2340 C   0  0  0  0  0  0  0  0  0  0  0  0
   35.8990   31.1190   34.9870 C   0  0  0  0  0  0  0  0  0  0  0  0
   35.5180   31.7450   36.1450 C   0  0  0  0  0  0  0  0  0  0  0  0
   34.2320   31.6350   36.6270 C   0  0  0  0  0  0  0  0  0  0  0  0
   33.3660   30.8820   35.9080 C   0  0  0  0  0  0  0  0  0  0  0  0
   36.9310   31.2640   34.6870 H   0  0  0  0  0  0  0  0  0  0  0  0
   36.2250   32.3480   36.7150 H   0  0  0  0  0  0  0  0  0  0  0  0
   33.9180   32.1240   37.5410 H   0  0  0  0  0  0  0  0  0  0  0  0
   32.3470   30.7800   36.2700 H   0  0  0  0  0  0  0  0  0  0  0  0
  1  2  1  0  0  0  0
  1 27  1  0  0  0  0
  1  4  1  0  0  0  0
  3  1  1  0  0  0  0
  4  9  1  0  0  0  0
  5  4  2  0  0  0  0
  5  6  1  0  0  0  0
  6  7  2  0  0  0  0
  7  8  1  0  0  0  0
  8 12  1  0  0  0  0
  9  8  2  0  0  0  0
 10  5  1  0  0  0  0
 11  6  1  0  0  0  0
 12 13  1  0  0  0  0
 14 12  1  0  0  0  0
 15 20  1  0  0  0  0
 15 21  1  1  0  0  0
 16 12  1  1  0  0  0
 16 15  1  0  0  0  0
 16 17  1  0  0  0  0
 18 17  1  0  0  0  0
 19 18  1  0  0  0  0
 19 23  1  1  0  0  0
 19 20  1  0  0  0  0
 20 25  1  6  0  0  0
 21 22  1  0  0  0  0
 24 23  1  0  0  0  0
 25 26  1  0  0  0  0
 27 29  1  0  0  0  0
 27 30  1  0  0  0  0
 28 27  1  0  0  0  0
 31 36  2  0  0  0  0
 31 32  1  0  0  0  0
 32 33  2  0  0  0  0
 33 41  1  0  0  0  0
 34 33  1  0  0  0  0
 35 30  1  0  0  0  0
 35 34  2  0  0  0  0
 36 35  1  0  0  0  0
 37 31  1  0  0  0  0
 38 32  1  0  0  0  0
 39 40  1  0  0  0  0
 40 45  1  0  0  0  0
 41 40  2  0  0  0  0
 41 42  1  0  0  0  0
 42 43  2  0  0  0  0
 43 44  1  0  0  0  0
 43 47  1  0  0  0  0
 44 48  1  0  0  0  0
 45 49  1  0  0  0  0
 45 44  2  0  0  0  0
 46 42  1  0  0  0  0
M  END
>  <minimizedAffinity>
-6.40803337

$$$$
