
 OpenBabel03272506433D

 35 37  0  0  1  0  0  0  0  0999 V2000
   32.3420   28.3320   47.5770 C   0  0  2  0  0  0  0  0  0  0  0  0
   33.6370   28.2990   48.3700 C   0  0  1  0  0  0  0  0  0  0  0  0
   34.1480   27.0320   48.2830 O   0  0  0  0  0  0  0  0  0  0  0  0
   33.4450   26.3090   47.3320 C   0  0  0  0  0  0  0  0  0  0  0  0
   32.6920   27.3470   46.4900 C   0  0  1  0  0  0  0  0  0  0  0  0
   31.5390   27.9590   48.2390 H   0  0  0  0  0  0  0  0  0  0  0  0
   33.3950   28.6420   49.3860 H   0  0  0  0  0  0  0  0  0  0  0  0
   34.2030   25.7670   46.7220 H   0  0  0  0  0  0  0  0  0  0  0  0
   32.6780   25.6510   47.7690 H   0  0  0  0  0  0  0  0  0  0  0  0
   33.3940   27.8180   45.8050 H   0  0  0  0  0  0  0  0  0  0  0  0
   32.0860   29.6030   47.0910 O   0  0  0  0  0  0  0  0  0  0  0  0
   31.5020   29.6000   46.3030 H   0  0  0  0  0  0  0  0  0  0  0  0
   34.7780   29.4380   47.5250 S   0  0  0  0  0  0  0  0  0  0  0  0
   37.3730   29.4670   50.5230 C   0  0  0  0  0  0  0  0  0  0  0  0
   37.9610   30.7320   50.4860 C   0  0  0  0  0  0  0  0  0  0  0  0
   37.5300   31.6180   49.4800 C   0  0  0  0  0  0  0  0  0  0  0  0
   36.5790   31.2040   48.6110 N   0  0  0  0  0  0  0  0  0  0  0  0
   36.0330   29.9730   48.6780 C   0  0  0  0  0  0  0  0  0  0  0  0
   36.4180   29.1030   49.6220 N   0  0  0  0  0  0  0  0  0  0  0  0
   37.6310   28.7100   51.2560 H   0  0  0  0  0  0  0  0  0  0  0  0
   38.7070   30.9840   51.2100 H   0  0  0  0  0  0  0  0  0  0  0  0
   37.9800   32.6010   49.4430 H   0  0  0  0  0  0  0  0  0  0  0  0
   31.5780   26.7610   45.9180 O   0  0  0  0  0  0  0  0  0  0  0  0
   30.2970   28.1750   44.4380 C   0  0  2  0  0  3  0  0  0  0  0  0
   31.4510   27.2420   44.6150 C   0  0  2  0  0  3  0  0  0  0  0  0
   31.4720   26.1870   43.7190 O   0  0  0  0  0  0  0  0  0  0  0  0
   30.2580   25.5210   43.6310 C   0  0  0  0  0  2  0  0  0  0  0  0
   29.3450   26.4850   42.8980 C   0  0  1  0  0  3  0  0  0  0  0  0
   29.0540   27.5970   43.8670 C   0  0  1  0  0  3  0  0  0  0  0  0
   30.6480   29.2980   43.6830 O   0  0  0  0  0  0  0  0  0  0  0  0
   31.1660   29.0130   42.9130 H   0  0  0  0  0  0  0  0  0  0  0  0
   30.1000   26.9980   41.8250 O   0  0  0  0  0  0  0  0  0  0  0  0
   29.5200   27.4570   41.1690 H   0  0  0  0  0  0  0  0  0  0  0  0
   28.2280   27.0760   44.8810 O   0  0  0  0  0  0  0  0  0  0  0  0
   27.6570   27.8320   45.1980 H   0  0  0  0  0  0  0  0  0  0  0  0
  1  6  1  1  0  0  0
  1  2  1  0  0  0  0
  2  7  1  1  0  0  0
  3  2  1  0  0  0  0
  4  9  1  0  0  0  0
  4  3  1  0  0  0  0
  5 10  1  6  0  0  0
  5  4  1  0  0  0  0
  5  1  1  0  0  0  0
  8  4  1  0  0  0  0
 11  1  1  0  0  0  0
 12 11  1  0  0  0  0
 13  2  1  0  0  0  0
 13 18  1  0  0  0  0
 14 20  1  0  0  0  0
 15 14  1  0  0  0  0
 15 21  1  0  0  0  0
 16 15  2  0  0  0  0
 17 18  2  0  0  0  0
 17 16  1  0  0  0  0
 18 19  1  0  0  0  0
 19 14  2  0  0  0  0
 22 16  1  0  0  0  0
 23  5  1  0  0  0  0
 24 30  1  6  0  0  0
 24 25  1  0  0  0  0
 25 23  1  1  0  0  0
 26 25  1  0  0  0  0
 27 26  1  0  0  0  0
 28 32  1  6  0  0  0
 28 27  1  0  0  0  0
 28 29  1  0  0  0  0
 29 24  1  0  0  0  0
 29 34  1  1  0  0  0
 31 30  1  0  0  0  0
 33 32  1  0  0  0  0
 34 35  1  0  0  0  0
M  END
>  <minimizedAffinity>
-3.90956473

>  <minimizedRMSD>
0.657668293

$$$$
