
 OpenBabel03272506153D

 31 33  0  0  1  0  0  0  0  0999 V2000
   37.9680   24.2640   37.9800 C   0  0  0  0  0  0  0  0  0  0  0  0
   38.8360   23.3940   38.6880 C   0  0  0  0  0  0  0  0  0  0  0  0
   39.8560   22.7480   37.9620 C   0  0  0  0  0  0  0  0  0  0  0  0
   39.9340   23.0010   36.6420 N   0  0  0  0  0  0  0  0  0  0  0  0
   39.0960   23.8320   35.9940 C   0  0  0  0  0  0  0  0  0  0  0  0
   38.1100   24.4680   36.6550 N   0  0  0  0  0  0  0  0  0  0  0  0
   39.1700   24.1090   34.6010 N   0  0  0  0  0  0  0  0  0  0  0  0
   39.7500   23.1910   33.8110 C   0  0  0  0  0  0  0  0  0  0  0  0
   39.7890   23.5200   32.4690 C   0  0  0  0  0  0  0  0  0  0  0  0
   39.2750   24.7010   31.9440 C   0  0  0  0  0  0  0  0  0  0  0  0
   39.3180   24.9840   30.7240 O   0  0  0  0  0  0  0  0  0  0  0  0
   38.6920   25.5970   32.8100 N   0  0  0  0  0  0  0  0  0  0  0  0
   38.6720   25.2460   34.1070 C   0  0  0  0  0  0  0  0  0  0  0  0
   38.1370   26.0570   34.9380 O   0  0  0  0  0  0  0  0  0  0  0  0
   37.1600   24.7860   38.5130 H   0  0  0  0  0  0  0  0  0  0  0  0
   38.7180   23.2380   39.7320 H   0  0  0  0  0  0  0  0  0  0  0  0
   40.5460   22.0730   38.4530 H   0  0  0  0  0  0  0  0  0  0  0  0
   40.1610   22.2630   34.1850 H   0  0  0  0  0  0  0  0  0  0  0  0
   40.2470   22.8170   31.7830 H   0  0  0  0  0  0  0  0  0  0  0  0
   36.6940   26.5780   32.0080 C   0  0  1  0  0  3  0  0  0  0  0  0
   38.1470   26.8380   32.2930 C   0  0  2  0  0  3  0  0  0  0  0  0
   38.8280   27.1910   31.1560 O   0  0  0  0  0  0  0  0  0  0  0  0
   38.3730   28.3820   30.6450 C   0  0  0  0  0  2  0  0  0  0  0  0
   36.9210   28.4000   30.2730 C   0  0  2  0  0  3  0  0  0  0  0  0
   36.0260   27.6110   31.1720 C   0  0  2  0  0  3  0  0  0  0  0  0
   36.6330   25.3210   31.4050 O   0  0  0  0  0  0  0  0  0  0  0  0
   36.1830   24.6460   31.9760 H   0  0  0  0  0  0  0  0  0  0  0  0
   36.7650   28.0590   28.9300 O   0  0  0  0  0  0  0  0  0  0  0  0
   35.9380   28.5070   28.6150 H   0  0  0  0  0  0  0  0  0  0  0  0
   35.2540   28.4270   31.9970 O   0  0  0  0  0  0  0  0  0  0  0  0
   34.6030   28.9770   31.4950 H   0  0  0  0  0  0  0  0  0  0  0  0
  1 15  1  0  0  0  0
  1  2  1  0  0  0  0
  2 16  1  0  0  0  0
  3 17  1  0  0  0  0
  3  2  2  0  0  0  0
  4  3  1  0  0  0  0
  5  4  2  0  0  0  0
  5  6  1  0  0  0  0
  6  1  2  0  0  0  0
  7  5  1  0  0  0  0
  8 18  1  0  0  0  0
  8  7  1  0  0  0  0
  9  8  2  0  0  0  0
 10  9  1  0  0  0  0
 10 12  1  0  0  0  0
 11 10  2  0  0  0  0
 12 13  1  0  0  0  0
 13  7  1  0  0  0  0
 13 14  2  0  0  0  0
 19  9  1  0  0  0  0
 20 26  1  6  0  0  0
 20 21  1  0  0  0  0
 21 12  1  6  0  0  0
 22 21  1  0  0  0  0
 23 22  1  0  0  0  0
 24 28  1  6  0  0  0
 24 23  1  0  0  0  0
 24 25  1  0  0  0  0
 25 30  1  1  0  0  0
 25 20  1  0  0  0  0
 26 27  1  0  0  0  0
 29 28  1  0  0  0  0
 31 30  1  0  0  0  0
M  END
>  <minimizedAffinity>
-5.79605532

$$$$

 OpenBabel03272506153D

 31 33  0  0  1  0  0  0  0  0999 V2000
   37.7300   20.6350   30.9770 C   0  0  0  0  0  0  0  0  0  0  0  0
   36.5950   19.8660   30.6130 C   0  0  0  0  0  0  0  0  0  0  0  0
   35.5720   19.7090   31.5690 C   0  0  0  0  0  0  0  0  0  0  0  0
   35.7450   20.3020   32.7660 N   0  0  0  0  0  0  0  0  0  0  0  0
   36.8330   21.0280   33.0840 C   0  0  0  0  0  0  0  0  0  0  0  0
   37.8310   21.2000   32.1960 N   0  0  0  0  0  0  0  0  0  0  0  0
   37.0260   21.6600   34.3440 N   0  0  0  0  0  0  0  0  0  0  0  0
   36.3740   21.1550   35.4040 C   0  0  0  0  0  0  0  0  0  0  0  0
   36.6050   21.8140   36.5970 C   0  0  0  0  0  0  0  0  0  0  0  0
   37.4420   22.9180   36.7250 C   0  0  0  0  0  0  0  0  0  0  0  0
   37.6410   23.5040   37.8140 O   0  0  0  0  0  0  0  0  0  0  0  0
   38.0790   23.3830   35.5990 N   0  0  0  0  0  0  0  0  0  0  0  0
   37.8330   22.7200   34.4560 C   0  0  0  0  0  0  0  0  0  0  0  0
   38.4100   23.1270   33.3900 O   0  0  0  0  0  0  0  0  0  0  0  0
   38.5490   20.7800   30.2570 H   0  0  0  0  0  0  0  0  0  0  0  0
   36.5230   19.4240   29.6500 H   0  0  0  0  0  0  0  0  0  0  0  0
   34.6850   19.1320   31.3440 H   0  0  0  0  0  0  0  0  0  0  0  0
   35.7160   20.2990   35.3410 H   0  0  0  0  0  0  0  0  0  0  0  0
   36.1050   21.4510   37.4870 H   0  0  0  0  0  0  0  0  0  0  0  0
   38.1060   25.7440   35.4450 C   0  0  1  0  0  3  0  0  0  0  0  0
   38.9590   24.5330   35.6990 C   0  0  2  0  0  3  0  0  0  0  0  0
   39.9590   24.4170   34.7670 O   0  0  0  0  0  0  0  0  0  0  0  0
   40.8440   25.4650   34.8440 C   0  0  0  0  0  2  0  0  0  0  0  0
   40.2410   26.8210   34.6300 C   0  0  2  0  0  3  0  0  0  0  0  0
   38.8630   26.9970   35.1780 C   0  0  2  0  0  3  0  0  0  0  0  0
   37.2720   25.4180   34.3750 O   0  0  0  0  0  0  0  0  0  0  0  0
   36.3190   25.3530   34.6410 H   0  0  0  0  0  0  0  0  0  0  0  0
   40.3300   27.1790   33.2850 O   0  0  0  0  0  0  0  0  0  0  0  0
   40.3690   28.1700   33.2540 H   0  0  0  0  0  0  0  0  0  0  0  0
   38.8490   27.7840   36.3280 O   0  0  0  0  0  0  0  0  0  0  0  0
   39.1200   28.7200   36.1580 H   0  0  0  0  0  0  0  0  0  0  0  0
  1  6  1  0  0  0  0
  2  1  2  0  0  0  0
  2  3  1  0  0  0  0
  3  4  2  0  0  0  0
  4  5  1  0  0  0  0
  5  7  1  0  0  0  0
  6  5  2  0  0  0  0
  7 13  1  0  0  0  0
  7  8  1  0  0  0  0
  8  9  2  0  0  0  0
  9 10  1  0  0  0  0
  9 19  1  0  0  0  0
 10 11  2  0  0  0  0
 12 10  1  0  0  0  0
 13 12  1  0  0  0  0
 14 13  2  0  0  0  0
 15  1  1  0  0  0  0
 16  2  1  0  0  0  0
 17  3  1  0  0  0  0
 18  8  1  0  0  0  0
 20 26  1  6  0  0  0
 20 21  1  0  0  0  0
 21 12  1  6  0  0  0
 22 23  1  0  0  0  0
 22 21  1  0  0  0  0
 24 28  1  6  0  0  0
 24 23  1  0  0  0  0
 24 25  1  0  0  0  0
 25 20  1  0  0  0  0
 25 30  1  1  0  0  0
 26 27  1  0  0  0  0
 29 28  1  0  0  0  0
 31 30  1  0  0  0  0
M  END
>  <minimizedAffinity>
-5.73306942

$$$$

 OpenBabel03272506153D

 31 33  0  0  1  0  0  0  0  0999 V2000
   35.4950   31.6680   36.3930 C   0  0  0  0  0  0  0  0  0  0  0  0
   35.0170   33.0040   36.3660 C   0  0  0  0  0  0  0  0  0  0  0  0
   34.8200   33.6060   35.1070 C   0  0  0  0  0  0  0  0  0  0  0  0
   35.1000   32.8680   34.0160 N   0  0  0  0  0  0  0  0  0  0  0  0
   35.5530   31.6020   34.0720 C   0  0  0  0  0  0  0  0  0  0  0  0
   35.7530   30.9940   35.2560 N   0  0  0  0  0  0  0  0  0  0  0  0
   35.8510   30.8130   32.9260 N   0  0  0  0  0  0  0  0  0  0  0  0
   36.1580   31.4550   31.7870 C   0  0  0  0  0  0  0  0  0  0  0  0
   36.4370   30.6310   30.7120 C   0  0  0  0  0  0  0  0  0  0  0  0
   36.4130   29.2420   30.7720 C   0  0  0  0  0  0  0  0  0  0  0  0
   36.6700   28.5090   29.7880 O   0  0  0  0  0  0  0  0  0  0  0  0
   36.0920   28.6490   31.9710 N   0  0  0  0  0  0  0  0  0  0  0  0
   35.8250   29.4780   32.9940 C   0  0  0  0  0  0  0  0  0  0  0  0
   35.5230   28.9590   34.1230 O   0  0  0  0  0  0  0  0  0  0  0  0
   35.6610   31.1650   37.3580 H   0  0  0  0  0  0  0  0  0  0  0  0
   34.8160   33.5290   37.2660 H   0  0  0  0  0  0  0  0  0  0  0  0
   34.4570   34.6220   35.0280 H   0  0  0  0  0  0  0  0  0  0  0  0
   36.1860   32.5330   31.7040 H   0  0  0  0  0  0  0  0  0  0  0  0
   36.6910   31.0940   29.7660 H   0  0  0  0  0  0  0  0  0  0  0  0
   37.4410   26.7690   32.4610 C   0  0  1  0  0  3  0  0  0  0  0  0
   36.0570   27.2020   32.0660 C   0  0  2  0  0  3  0  0  0  0  0  0
   35.6940   26.6790   30.8510 O   0  0  0  0  0  0  0  0  0  0  0  0
   35.6110   25.3080   30.8960 C   0  0  0  0  0  2  0  0  0  0  0  0
   36.8800   24.6080   31.2780 C   0  0  2  0  0  3  0  0  0  0  0  0
   37.7130   25.3150   32.2970 C   0  0  2  0  0  3  0  0  0  0  0  0
   38.3240   27.5380   31.7010 O   0  0  0  0  0  0  0  0  0  0  0  0
   38.8470   28.1750   32.2530 H   0  0  0  0  0  0  0  0  0  0  0  0
   37.6050   24.2710   30.1360 O   0  0  0  0  0  0  0  0  0  0  0  0
   38.1370   23.4640   30.3630 H   0  0  0  0  0  0  0  0  0  0  0  0
   37.6510   24.7020   33.5470 O   0  0  0  0  0  0  0  0  0  0  0  0
   38.0490   23.7970   33.5530 H   0  0  0  0  0  0  0  0  0  0  0  0
  1 15  1  0  0  0  0
  2  1  1  0  0  0  0
  2 16  1  0  0  0  0
  3  2  2  0  0  0  0
  4  5  2  0  0  0  0
  4  3  1  0  0  0  0
  5  6  1  0  0  0  0
  6  1  2  0  0  0  0
  7 13  1  0  0  0  0
  7  5  1  0  0  0  0
  8  7  1  0  0  0  0
  9 10  1  0  0  0  0
  9  8  2  0  0  0  0
 10 12  1  0  0  0  0
 11 10  2  0  0  0  0
 12 13  1  0  0  0  0
 13 14  2  0  0  0  0
 17  3  1  0  0  0  0
 18  8  1  0  0  0  0
 19  9  1  0  0  0  0
 20 26  1  6  0  0  0
 21 12  1  6  0  0  0
 21 20  1  0  0  0  0
 22 23  1  0  0  0  0
 22 21  1  0  0  0  0
 23 24  1  0  0  0  0
 24 28  1  6  0  0  0
 24 25  1  0  0  0  0
 25 20  1  0  0  0  0
 25 30  1  1  0  0  0
 26 27  1  0  0  0  0
 28 29  1  0  0  0  0
 30 31  1  0  0  0  0
M  END
>  <minimizedAffinity>
-5.61607075

$$$$

 OpenBabel03272506153D

 31 33  0  0  1  0  0  0  0  0999 V2000
   35.5460   20.1150   33.2780 C   0  0  0  0  0  0  0  0  0  0  0  0
   35.0460   19.9530   31.9610 C   0  0  0  0  0  0  0  0  0  0  0  0
   35.3890   20.9280   31.0030 C   0  0  0  0  0  0  0  0  0  0  0  0
   36.1690   21.9480   31.4080 N   0  0  0  0  0  0  0  0  0  0  0  0
   36.6290   22.0770   32.6660 C   0  0  0  0  0  0  0  0  0  0  0  0
   36.3230   21.1650   33.6080 N   0  0  0  0  0  0  0  0  0  0  0  0
   37.4550   23.1490   33.1050 N   0  0  0  0  0  0  0  0  0  0  0  0
   37.3950   24.3040   32.4230 C   0  0  0  0  0  0  0  0  0  0  0  0
   38.2210   25.3050   32.9000 C   0  0  0  0  0  0  0  0  0  0  0  0
   39.0590   25.1610   34.0000 C   0  0  0  0  0  0  0  0  0  0  0  0
   39.8010   26.0790   34.4210 O   0  0  0  0  0  0  0  0  0  0  0  0
   39.0700   23.9510   34.6540 N   0  0  0  0  0  0  0  0  0  0  0  0
   38.2570   23.0000   34.1640 C   0  0  0  0  0  0  0  0  0  0  0  0
   38.2430   21.8630   34.7490 O   0  0  0  0  0  0  0  0  0  0  0  0
   35.2990   19.3730   34.0540 H   0  0  0  0  0  0  0  0  0  0  0  0
   34.4340   19.1230   31.7090 H   0  0  0  0  0  0  0  0  0  0  0  0
   35.0350   20.8530   29.9830 H   0  0  0  0  0  0  0  0  0  0  0  0
   36.7550   24.4510   31.5630 H   0  0  0  0  0  0  0  0  0  0  0  0
   38.2150   26.2600   32.3880 H   0  0  0  0  0  0  0  0  0  0  0  0
   41.2610   23.3060   35.2720 C   0  0  1  0  0  3  0  0  0  0  0  0
   39.9340   23.7690   35.8050 C   0  0  2  0  0  3  0  0  0  0  0  0
   39.3760   22.8370   36.6440 O   0  0  0  0  0  0  0  0  0  0  0  0
   40.1390   22.6530   37.7720 C   0  0  0  0  0  2  0  0  0  0  0  0
   41.5410   22.1870   37.5200 C   0  0  2  0  0  3  0  0  0  0  0  0
   42.1870   22.7490   36.2950 C   0  0  2  0  0  3  0  0  0  0  0  0
   40.9780   22.3660   34.2800 O   0  0  0  0  0  0  0  0  0  0  0  0
   41.2260   22.6820   33.3730 H   0  0  0  0  0  0  0  0  0  0  0  0
   41.6000   20.7950   37.5640 O   0  0  0  0  0  0  0  0  0  0  0  0
   42.5180   20.5560   37.8540 H   0  0  0  0  0  0  0  0  0  0  0  0
   43.1510   23.7080   36.5990 O   0  0  0  0  0  0  0  0  0  0  0  0
   43.9280   23.3340   37.0830 H   0  0  0  0  0  0  0  0  0  0  0  0
  1  6  1  0  0  0  0
  1 15  1  0  0  0  0
  2  1  2  0  0  0  0
  3  4  2  0  0  0  0
  3  2  1  0  0  0  0
  4  5  1  0  0  0  0
  5  7  1  0  0  0  0
  5  6  2  0  0  0  0
  7 13  1  0  0  0  0
  8  9  2  0  0  0  0
  8  7  1  0  0  0  0
  9 10  1  0  0  0  0
 10 11  2  0  0  0  0
 10 12  1  0  0  0  0
 13 12  1  0  0  0  0
 13 14  2  0  0  0  0
 16  2  1  0  0  0  0
 17  3  1  0  0  0  0
 18  8  1  0  0  0  0
 19  9  1  0  0  0  0
 20 26  1  6  0  0  0
 20 21  1  0  0  0  0
 20 25  1  0  0  0  0
 21 12  1  6  0  0  0
 21 22  1  0  0  0  0
 22 23  1  0  0  0  0
 24 28  1  6  0  0  0
 24 23  1  0  0  0  0
 25 30  1  1  0  0  0
 25 24  1  0  0  0  0
 27 26  1  0  0  0  0
 28 29  1  0  0  0  0
 30 31  1  0  0  0  0
M  END
>  <minimizedAffinity>
-5.59045649

$$$$

 OpenBabel03272506153D

 31 33  0  0  1  0  0  0  0  0999 V2000
   37.9160   24.1600   37.5310 C   0  0  0  0  0  0  0  0  0  0  0  0
   38.8830   23.4990   38.3320 C   0  0  0  0  0  0  0  0  0  0  0  0
   39.8330   22.6880   37.6800 C   0  0  0  0  0  0  0  0  0  0  0  0
   39.7550   22.5960   36.3390 N   0  0  0  0  0  0  0  0  0  0  0  0
   38.8260   23.2350   35.6040 C   0  0  0  0  0  0  0  0  0  0  0  0
   37.9020   24.0190   36.1910 N   0  0  0  0  0  0  0  0  0  0  0  0
   38.7350   23.1470   34.1870 N   0  0  0  0  0  0  0  0  0  0  0  0
   39.2500   22.0570   33.5940 C   0  0  0  0  0  0  0  0  0  0  0  0
   39.1280   22.0330   32.2160 C   0  0  0  0  0  0  0  0  0  0  0  0
   38.5250   23.0410   31.4720 C   0  0  0  0  0  0  0  0  0  0  0  0
   38.4230   23.0030   30.2240 O   0  0  0  0  0  0  0  0  0  0  0  0
   38.0180   24.1290   32.1440 N   0  0  0  0  0  0  0  0  0  0  0  0
   38.1530   24.1210   33.4810 C   0  0  0  0  0  0  0  0  0  0  0  0
   37.6920   25.1180   34.1360 O   0  0  0  0  0  0  0  0  0  0  0  0
   37.1580   24.8020   38.0040 H   0  0  0  0  0  0  0  0  0  0  0  0
   38.8870   23.6150   39.3870 H   0  0  0  0  0  0  0  0  0  0  0  0
   40.5920   22.1600   38.2430 H   0  0  0  0  0  0  0  0  0  0  0  0
   39.7260   21.2550   34.1410 H   0  0  0  0  0  0  0  0  0  0  0  0
   39.5270   21.1780   31.6830 H   0  0  0  0  0  0  0  0  0  0  0  0
   38.4750   26.1550   31.0110 C   0  0  1  0  0  3  0  0  0  0  0  0
   37.3820   25.1980   31.3970 C   0  0  2  0  0  3  0  0  0  0  0  0
   36.4390   25.8020   32.1890 O   0  0  0  0  0  0  0  0  0  0  0  0
   35.7800   26.8020   31.5150 C   0  0  0  0  0  2  0  0  0  0  0  0
   36.6550   27.9070   31.0050 C   0  0  2  0  0  3  0  0  0  0  0  0
   38.0030   27.4800   30.5250 C   0  0  2  0  0  3  0  0  0  0  0  0
   39.2920   26.2890   32.1350 O   0  0  0  0  0  0  0  0  0  0  0  0
   40.1940   25.9000   31.9990 H   0  0  0  0  0  0  0  0  0  0  0  0
   36.7240   28.9360   31.9430 O   0  0  0  0  0  0  0  0  0  0  0  0
   36.8860   29.7740   31.4370 H   0  0  0  0  0  0  0  0  0  0  0  0
   38.1030   27.5100   29.1350 O   0  0  0  0  0  0  0  0  0  0  0  0
   38.0360   28.4240   28.7640 H   0  0  0  0  0  0  0  0  0  0  0  0
  1 15  1  0  0  0  0
  1  2  1  0  0  0  0
  2 16  1  0  0  0  0
  3 17  1  0  0  0  0
  3  2  2  0  0  0  0
  4  3  1  0  0  0  0
  5  6  1  0  0  0  0
  5  4  2  0  0  0  0
  6  1  2  0  0  0  0
  7  5  1  0  0  0  0
  8 18  1  0  0  0  0
  8  7  1  0  0  0  0
  9  8  2  0  0  0  0
 10 12  1  0  0  0  0
 10  9  1  0  0  0  0
 11 10  2  0  0  0  0
 12 13  1  0  0  0  0
 13 14  2  0  0  0  0
 13  7  1  0  0  0  0
 19  9  1  0  0  0  0
 20 21  1  0  0  0  0
 20 26  1  1  0  0  0
 21 12  1  1  0  0  0
 21 22  1  0  0  0  0
 23 22  1  0  0  0  0
 24 23  1  0  0  0  0
 24 28  1  1  0  0  0
 25 30  1  6  0  0  0
 25 24  1  0  0  0  0
 25 20  1  0  0  0  0
 27 26  1  0  0  0  0
 29 28  1  0  0  0  0
 31 30  1  0  0  0  0
M  END
>  <minimizedAffinity>
-5.48525095

$$$$

 OpenBabel03272506153D

 31 33  0  0  1  0  0  0  0  0999 V2000
   36.1270   28.1190   32.1340 C   0  0  0  0  0  0  0  0  0  0  0  0
   36.2730   28.5550   30.7930 C   0  0  0  0  0  0  0  0  0  0  0  0
   37.5400   28.4190   30.1910 C   0  0  0  0  0  0  0  0  0  0  0  0
   38.5260   27.8830   30.9360 N   0  0  0  0  0  0  0  0  0  0  0  0
   38.3590   27.4780   32.2080 C   0  0  0  0  0  0  0  0  0  0  0  0
   37.1630   27.5920   32.8160 N   0  0  0  0  0  0  0  0  0  0  0  0
   39.3930   26.9090   33.0040 N   0  0  0  0  0  0  0  0  0  0  0  0
   40.6630   27.2090   32.6860 C   0  0  0  0  0  0  0  0  0  0  0  0
   41.6180   26.6250   33.4970 C   0  0  0  0  0  0  0  0  0  0  0  0
   41.3210   25.7900   34.5690 C   0  0  0  0  0  0  0  0  0  0  0  0
   42.1990   25.2690   35.2950 O   0  0  0  0  0  0  0  0  0  0  0  0
   39.9990   25.5260   34.8390 N   0  0  0  0  0  0  0  0  0  0  0  0
   39.0960   26.1080   34.0310 C   0  0  0  0  0  0  0  0  0  0  0  0
   37.8580   25.8830   34.2560 O   0  0  0  0  0  0  0  0  0  0  0  0
   35.1530   28.2100   32.6380 H   0  0  0  0  0  0  0  0  0  0  0  0
   35.4520   28.9700   30.2620 H   0  0  0  0  0  0  0  0  0  0  0  0
   37.7070   28.7360   29.1700 H   0  0  0  0  0  0  0  0  0  0  0  0
   40.9300   27.8540   31.8600 H   0  0  0  0  0  0  0  0  0  0  0  0
   42.6610   26.8310   33.2880 H   0  0  0  0  0  0  0  0  0  0  0  0
   39.7590   23.2500   35.4360 C   0  0  1  0  0  3  0  0  0  0  0  0
   39.6560   24.6580   35.9500 C   0  0  2  0  0  3  0  0  0  0  0  0
   38.3830   24.9480   36.3720 O   0  0  0  0  0  0  0  0  0  0  0  0
   38.0210   24.1760   37.4500 C   0  0  0  0  0  2  0  0  0  0  0  0
   38.0440   22.6980   37.2070 C   0  0  2  0  0  3  0  0  0  0  0  0
   39.1370   22.2180   36.3100 C   0  0  2  0  0  3  0  0  0  0  0  0
   39.1810   23.2530   34.1660 O   0  0  0  0  0  0  0  0  0  0  0  0
   39.8420   23.0910   33.4460 H   0  0  0  0  0  0  0  0  0  0  0  0
   36.7850   22.2600   36.7960 O   0  0  0  0  0  0  0  0  0  0  0  0
   36.7030   21.3140   37.0860 H   0  0  0  0  0  0  0  0  0  0  0  0
   40.1440   21.5570   37.0120 O   0  0  0  0  0  0  0  0  0  0  0  0
   39.8360   20.7130   37.4250 H   0  0  0  0  0  0  0  0  0  0  0  0
  1 15  1  0  0  0  0
  1  6  1  0  0  0  0
  2  1  2  0  0  0  0
  3  2  1  0  0  0  0
  3  4  2  0  0  0  0
  4  5  1  0  0  0  0
  5  6  2  0  0  0  0
  5  7  1  0  0  0  0
  7 13  1  0  0  0  0
  8  7  1  0  0  0  0
  8  9  2  0  0  0  0
  9 10  1  0  0  0  0
 10 12  1  0  0  0  0
 10 11  2  0  0  0  0
 13 14  2  0  0  0  0
 13 12  1  0  0  0  0
 16  2  1  0  0  0  0
 17  3  1  0  0  0  0
 18  8  1  0  0  0  0
 19  9  1  0  0  0  0
 20 26  1  6  0  0  0
 20 21  1  0  0  0  0
 20 25  1  0  0  0  0
 21 12  1  6  0  0  0
 21 22  1  0  0  0  0
 22 23  1  0  0  0  0
 24 28  1  6  0  0  0
 24 23  1  0  0  0  0
 25 30  1  1  0  0  0
 25 24  1  0  0  0  0
 27 26  1  0  0  0  0
 28 29  1  0  0  0  0
 30 31  1  0  0  0  0
M  END
>  <minimizedAffinity>
-5.40642548

$$$$

 OpenBabel03272506153D

 31 33  0  0  1  0  0  0  0  0999 V2000
   35.7790   29.7450   32.2550 C   0  0  0  0  0  0  0  0  0  0  0  0
   35.8290   30.4630   31.0330 C   0  0  0  0  0  0  0  0  0  0  0  0
   36.7650   30.0500   30.0650 C   0  0  0  0  0  0  0  0  0  0  0  0
   37.5490   28.9980   30.3690 N   0  0  0  0  0  0  0  0  0  0  0  0
   37.4800   28.3340   31.5380 C   0  0  0  0  0  0  0  0  0  0  0  0
   36.5980   28.7000   32.4870 N   0  0  0  0  0  0  0  0  0  0  0  0
   38.3020   27.2210   31.8700 N   0  0  0  0  0  0  0  0  0  0  0  0
   39.4860   27.1100   31.2450 C   0  0  0  0  0  0  0  0  0  0  0  0
   40.2350   26.0080   31.6130 C   0  0  0  0  0  0  0  0  0  0  0  0
   39.8260   25.0690   32.5540 C   0  0  0  0  0  0  0  0  0  0  0  0
   40.5190   24.0760   32.8770 O   0  0  0  0  0  0  0  0  0  0  0  0
   38.6020   25.2450   33.1570 N   0  0  0  0  0  0  0  0  0  0  0  0
   37.8990   26.3250   32.7760 C   0  0  0  0  0  0  0  0  0  0  0  0
   36.7570   26.5180   33.3170 O   0  0  0  0  0  0  0  0  0  0  0  0
   35.0600   30.0380   33.0350 H   0  0  0  0  0  0  0  0  0  0  0  0
   35.1800   31.2850   30.8580 H   0  0  0  0  0  0  0  0  0  0  0  0
   36.8460   30.5630   29.1150 H   0  0  0  0  0  0  0  0  0  0  0  0
   39.8350   27.8200   30.5080 H   0  0  0  0  0  0  0  0  0  0  0  0
   41.2010   25.8650   31.1410 H   0  0  0  0  0  0  0  0  0  0  0  0
   38.5590   24.8230   35.4840 C   0  0  1  0  0  3  0  0  0  0  0  0
   38.1470   24.2840   34.1430 C   0  0  2  0  0  3  0  0  0  0  0  0
   38.7280   23.0680   33.8880 O   0  0  0  0  0  0  0  0  0  0  0  0
   38.3010   22.1090   34.7750 C   0  0  0  0  0  2  0  0  0  0  0  0
   38.5870   22.4050   36.2160 C   0  0  2  0  0  3  0  0  0  0  0  0
   38.4810   23.8430   36.6020 C   0  0  2  0  0  3  0  0  0  0  0  0
   39.8570   25.3110   35.3280 O   0  0  0  0  0  0  0  0  0  0  0  0
   39.9050   26.2980   35.4130 H   0  0  0  0  0  0  0  0  0  0  0  0
   39.8060   21.8400   36.5890 O   0  0  0  0  0  0  0  0  0  0  0  0
   39.7470   21.6470   37.5610 H   0  0  0  0  0  0  0  0  0  0  0  0
   37.3350   24.1060   37.3510 O   0  0  0  0  0  0  0  0  0  0  0  0
   37.3410   23.6600   38.2330 H   0  0  0  0  0  0  0  0  0  0  0  0
  1  6  1  0  0  0  0
  1 15  1  0  0  0  0
  2  1  2  0  0  0  0
  3  4  2  0  0  0  0
  3  2  1  0  0  0  0
  4  5  1  0  0  0  0
  5  7  1  0  0  0  0
  5  6  2  0  0  0  0
  7 13  1  0  0  0  0
  8  9  2  0  0  0  0
  8  7  1  0  0  0  0
  9 10  1  0  0  0  0
 10 11  2  0  0  0  0
 10 12  1  0  0  0  0
 13 12  1  0  0  0  0
 13 14  2  0  0  0  0
 16  2  1  0  0  0  0
 17  3  1  0  0  0  0
 18  8  1  0  0  0  0
 19  9  1  0  0  0  0
 20 26  1  6  0  0  0
 20 25  1  0  0  0  0
 21 12  1  6  0  0  0
 21 20  1  0  0  0  0
 22 21  1  0  0  0  0
 22 23  1  0  0  0  0
 23 24  1  0  0  0  0
 24 28  1  6  0  0  0
 24 25  1  0  0  0  0
 25 30  1  6  0  0  0
 26 27  1  0  0  0  0
 28 29  1  0  0  0  0
 30 31  1  0  0  0  0
M  END
>  <minimizedAffinity>
-5.19842625

$$$$

 OpenBabel03272506153D

 31 33  0  0  1  0  0  0  0  0999 V2000
   35.6130   31.5260   36.0780 C   0  0  0  0  0  0  0  0  0  0  0  0
   34.3100   32.0720   35.9460 C   0  0  0  0  0  0  0  0  0  0  0  0
   33.4480   31.4930   34.9930 C   0  0  0  0  0  0  0  0  0  0  0  0
   33.9240   30.4600   34.2720 N   0  0  0  0  0  0  0  0  0  0  0  0
   35.1660   29.9620   34.4180 C   0  0  0  0  0  0  0  0  0  0  0  0
   36.0170   30.4890   35.3190 N   0  0  0  0  0  0  0  0  0  0  0  0
   35.6790   28.8710   33.6640 N   0  0  0  0  0  0  0  0  0  0  0  0
   35.1290   28.6270   32.4630 C   0  0  0  0  0  0  0  0  0  0  0  0
   35.6730   27.5540   31.7810 C   0  0  0  0  0  0  0  0  0  0  0  0
   36.7110   26.7680   32.2710 C   0  0  0  0  0  0  0  0  0  0  0  0
   37.1930   25.8000   31.6390 O   0  0  0  0  0  0  0  0  0  0  0  0
   37.2280   27.0750   33.5080 N   0  0  0  0  0  0  0  0  0  0  0  0
   36.6770   28.1220   34.1430 C   0  0  0  0  0  0  0  0  0  0  0  0
   37.1360   28.4330   35.2960 O   0  0  0  0  0  0  0  0  0  0  0  0
   36.3140   31.9510   36.8120 H   0  0  0  0  0  0  0  0  0  0  0  0
   33.9980   32.8890   36.5470 H   0  0  0  0  0  0  0  0  0  0  0  0
   32.4440   31.8710   34.8500 H   0  0  0  0  0  0  0  0  0  0  0  0
   34.3210   29.2170   32.0510 H   0  0  0  0  0  0  0  0  0  0  0  0
   35.2680   27.3100   30.8060 H   0  0  0  0  0  0  0  0  0  0  0  0
   39.5870   26.9620   33.6500 C   0  0  1  0  0  3  0  0  0  0  0  0
   38.3110   26.2740   34.0470 C   0  0  2  0  0  3  0  0  0  0  0  0
   38.2380   25.0070   33.5240 O   0  0  0  0  0  0  0  0  0  0  0  0
   39.2230   24.1950   34.0320 C   0  0  0  0  0  2  0  0  0  0  0  0
   40.6250   24.6620   33.7770 C   0  0  2  0  0  3  0  0  0  0  0  0
   40.8180   26.1420   33.8170 C   0  0  2  0  0  3  0  0  0  0  0  0
   39.4210   27.3610   32.3230 O   0  0  0  0  0  0  0  0  0  0  0  0
   39.3800   28.3460   32.2240 H   0  0  0  0  0  0  0  0  0  0  0  0
   41.1140   24.0910   32.6030 O   0  0  0  0  0  0  0  0  0  0  0  0
   42.1000   24.0290   32.7040 H   0  0  0  0  0  0  0  0  0  0  0  0
   41.4810   26.5570   34.9700 O   0  0  0  0  0  0  0  0  0  0  0  0
   42.4130   26.2300   35.0180 H   0  0  0  0  0  0  0  0  0  0  0  0
  1 15  1  0  0  0  0
  2  1  1  0  0  0  0
  2 16  1  0  0  0  0
  3  2  2  0  0  0  0
  4  5  2  0  0  0  0
  4  3  1  0  0  0  0
  5  6  1  0  0  0  0
  6  1  2  0  0  0  0
  7 13  1  0  0  0  0
  7  5  1  0  0  0  0
  8  7  1  0  0  0  0
  9 10  1  0  0  0  0
  9  8  2  0  0  0  0
 10 12  1  0  0  0  0
 11 10  2  0  0  0  0
 12 13  1  0  0  0  0
 13 14  2  0  0  0  0
 17  3  1  0  0  0  0
 18  8  1  0  0  0  0
 19  9  1  0  0  0  0
 20 26  1  6  0  0  0
 20 25  1  0  0  0  0
 20 21  1  0  0  0  0
 21 12  1  6  0  0  0
 22 23  1  0  0  0  0
 22 21  1  0  0  0  0
 24 28  1  6  0  0  0
 24 25  1  0  0  0  0
 24 23  1  0  0  0  0
 25 30  1  1  0  0  0
 27 26  1  0  0  0  0
 28 29  1  0  0  0  0
 30 31  1  0  0  0  0
M  END
>  <minimizedAffinity>
-5.14719152

$$$$

 OpenBabel03272506153D

 31 33  0  0  1  0  0  0  0  0999 V2000
   33.5190   29.9080   34.9950 C   0  0  0  0  0  0  0  0  0  0  0  0
   32.3070   30.2350   34.3360 C   0  0  0  0  0  0  0  0  0  0  0  0
   32.2690   30.1160   32.9320 C   0  0  0  0  0  0  0  0  0  0  0  0
   33.3910   29.7000   32.3140 N   0  0  0  0  0  0  0  0  0  0  0  0
   34.5290   29.3960   32.9660 C   0  0  0  0  0  0  0  0  0  0  0  0
   34.6020   29.4980   34.3070 N   0  0  0  0  0  0  0  0  0  0  0  0
   35.7200   28.9550   32.3250 N   0  0  0  0  0  0  0  0  0  0  0  0
   35.8990   29.2940   31.0380 C   0  0  0  0  0  0  0  0  0  0  0  0
   37.0750   28.8340   30.4740 C   0  0  0  0  0  0  0  0  0  0  0  0
   38.0210   28.0790   31.1580 C   0  0  0  0  0  0  0  0  0  0  0  0
   39.0820   27.6710   30.6330 O   0  0  0  0  0  0  0  0  0  0  0  0
   37.7740   27.7680   32.4750 N   0  0  0  0  0  0  0  0  0  0  0  0
   36.6220   28.2290   32.9920 C   0  0  0  0  0  0  0  0  0  0  0  0
   36.3620   27.9580   34.2140 O   0  0  0  0  0  0  0  0  0  0  0  0
   33.5870   29.9890   36.0910 H   0  0  0  0  0  0  0  0  0  0  0  0
   31.4580   30.5570   34.8850 H   0  0  0  0  0  0  0  0  0  0  0  0
   31.3700   30.3520   32.3780 H   0  0  0  0  0  0  0  0  0  0  0  0
   35.1840   29.8790   30.4750 H   0  0  0  0  0  0  0  0  0  0  0  0
   37.2730   29.0770   29.4360 H   0  0  0  0  0  0  0  0  0  0  0  0
   38.3980   25.5400   32.9670 C   0  0  1  0  0  3  0  0  0  0  0  0
   38.7410   26.9810   33.2170 C   0  0  2  0  0  3  0  0  0  0  0  0
   38.6510   27.2960   34.5500 O   0  0  0  0  0  0  0  0  0  0  0  0
   39.5740   26.6030   35.2950 C   0  0  0  0  0  2  0  0  0  0  0  0
   39.4580   25.1110   35.2200 C   0  0  2  0  0  3  0  0  0  0  0  0
   39.0550   24.5710   33.8860 C   0  0  2  0  0  3  0  0  0  0  0  0
   37.0070   25.4490   33.0450 O   0  0  0  0  0  0  0  0  0  0  0  0
   36.5890   25.2380   32.1710 H   0  0  0  0  0  0  0  0  0  0  0  0
   38.6490   24.6400   36.2530 O   0  0  0  0  0  0  0  0  0  0  0  0
   38.9530   23.7170   36.4560 H   0  0  0  0  0  0  0  0  0  0  0  0
   40.1180   23.9670   33.2180 O   0  0  0  0  0  0  0  0  0  0  0  0
   40.4470   23.1540   33.6740 H   0  0  0  0  0  0  0  0  0  0  0  0
  1 15  1  0  0  0  0
  2 16  1  0  0  0  0
  2  1  1  0  0  0  0
  3  2  2  0  0  0  0
  4  3  1  0  0  0  0
  4  5  2  0  0  0  0
  5  6  1  0  0  0  0
  6  1  2  0  0  0  0
  7  5  1  0  0  0  0
  7 13  1  0  0  0  0
  8  7  1  0  0  0  0
  9  8  2  0  0  0  0
  9 10  1  0  0  0  0
 10 12  1  0  0  0  0
 11 10  2  0  0  0  0
 12 13  1  0  0  0  0
 13 14  2  0  0  0  0
 17  3  1  0  0  0  0
 18  8  1  0  0  0  0
 19  9  1  0  0  0  0
 20 26  1  1  0  0  0
 20 21  1  0  0  0  0
 20 25  1  0  0  0  0
 21 12  1  6  0  0  0
 21 22  1  0  0  0  0
 22 23  1  0  0  0  0
 24 23  1  0  0  0  0
 24 28  1  1  0  0  0
 25 30  1  6  0  0  0
 25 24  1  0  0  0  0
 27 26  1  0  0  0  0
 28 29  1  0  0  0  0
 30 31  1  0  0  0  0
M  END
>  <minimizedAffinity>
-5.11533594

$$$$
