REMARK  Name = 
REMARK  7 active torsions:
REMARK  status: ('A' for Active; 'I' for Inactive)
REMARK    1  A    between atoms: C_2  and  C_7
REMARK    2  A    between atoms: C_3  and  C_14
REMARK    3  A    between atoms: C_12  and  S_13
REMARK    4  A    between atoms: S_13  and  C_26
REMARK    5  A    between atoms: O_24  and  C_25
REMARK    6  A    between atoms: C_29  and  O_30
REMARK    7  A    between atoms: C_31  and  O_32
REMARK                            x       y       z     vdW  Elec       q    Type
REMARK                         _______ _______ _______ _____ _____    ______ ____
ROOT
ATOM      1  C   UNL     1      38.197  31.079  47.894  0.00  0.00    +0.000 A 
ATOM      2  C   UNL     1      38.530  30.275  46.826  0.00  0.00    +0.000 A 
ATOM      3  C   UNL     1      39.292  30.659  45.739  0.00  0.00    +0.000 A 
ATOM      4  C   UNL     1      39.776  31.981  45.707  0.00  0.00    +0.000 A 
ATOM      5  C   UNL     1      39.447  32.791  46.773  0.00  0.00    +0.000 A 
ATOM      6  C   UNL     1      38.686  32.381  47.842  0.00  0.00    +0.000 A 
ATOM      7  H   UNL     1      38.188  29.231  46.781  0.00  0.00    +0.000 HD
ATOM      8  H   UNL     1      39.520  29.978  44.928  0.00  0.00    +0.000 HD
ATOM      9  H   UNL     1      40.373  32.347  44.896  0.00  0.00    +0.000 HD
ATOM     10  H   UNL     1      39.802  33.826  46.791  0.00  0.00    +0.000 HD
ENDROOT
BRANCH   1  12
ATOM     11  C   UNL     1      38.022  30.315  50.194  0.00  0.00    +0.000 A 
ATOM     12  C   UNL     1      37.397  30.500  48.928  0.00  0.00    +0.000 A 
ATOM     13  C   UNL     1      36.067  30.103  48.810  0.00  0.00    +0.000 A 
ATOM     14  N   UNL     1      35.427  29.567  49.872  0.00  0.00    +0.000 NA
ATOM     15  C   UNL     1      36.061  29.402  51.082  0.00  0.00    +0.000 A 
ATOM     16  N   UNL     1      37.360  29.781  51.231  0.00  0.00    +0.000 NA
ATOM     17  H   UNL     1      39.055  30.614  50.320  0.00  0.00    +0.000 HD
ATOM     18  H   UNL     1      35.443  28.962  51.859  0.00  0.00    +0.000 HD
BRANCH  13  19
ATOM     19  C   UNL     1      35.286  30.235  47.548  0.00  0.00    +0.000 C 
ATOM     20  F   UNL     1      34.014  30.774  47.829  0.00  0.00    +0.000 F 
ATOM     21  F   UNL     1      35.851  30.979  46.562  0.00  0.00    +0.000 F 
ATOM     22  F   UNL     1      34.995  28.966  47.034  0.00  0.00    +0.000 F 
ENDBRANCH  13  19
ENDBRANCH   1  12
BRANCH   6  23
ATOM     23  S   UNL     1      38.252  33.419  49.229  0.00  0.00    +0.000 S 
BRANCH  23  25
ATOM     24  C   UNL     1      40.362  34.966  48.629  0.00  0.00    +0.000 C 
ATOM     25  C   UNL     1      38.929  35.080  49.071  0.00  0.00    +0.000 C 
ATOM     26  O   UNL     1      38.164  35.862  48.217  0.00  0.00    +0.000 OA
ATOM     27  C   UNL     1      38.603  37.155  48.349  0.00  0.00    +0.000 C 
ATOM     28  C   UNL     1      39.999  37.339  47.868  0.00  0.00    +0.000 C 
ATOM     29  C   UNL     1      40.957  36.246  48.144  0.00  0.00    +0.000 C 
BRANCH  24  30
ATOM     30  O   UNL     1      41.079  34.398  49.683  0.00  0.00    +0.000 OA
ATOM     31  H   UNL     1      41.142  33.412  49.643  0.00  0.00    +0.000 HD
ENDBRANCH  24  30
BRANCH  28  32
ATOM     32  O   UNL     1      40.469  38.551  48.425  0.00  0.00    +0.000 OA
ATOM     33  H   UNL     1      39.907  38.840  49.171  0.00  0.00    +0.000 HD
ENDBRANCH  28  32
BRANCH  29  34
ATOM     34  O   UNL     1      41.753  36.045  47.005  0.00  0.00    +0.000 OA
ATOM     35  H   UNL     1      41.218  36.071  46.179  0.00  0.00    +0.000 HD
ENDBRANCH  29  34
ENDBRANCH  23  25
ENDBRANCH   6  23
TORSDOF 7
