
 OpenBabel03272506433D

 35 37  0  0  1  0  0  0  0  0999 V2000
   32.3700   28.3390   47.4800 C   0  0  2  0  0  0  0  0  0  0  0  0
   33.6000   28.3390   48.3720 C   0  0  1  0  0  0  0  0  0  0  0  0
   34.1310   27.0780   48.3510 O   0  0  0  0  0  0  0  0  0  0  0  0
   33.5150   26.3270   47.3630 C   0  0  0  0  0  0  0  0  0  0  0  0
   32.8170   27.3380   46.4430 C   0  0  1  0  0  0  0  0  0  0  0  0
   31.5220   27.9670   48.0850 H   0  0  0  0  0  0  0  0  0  0  0  0
   33.2740   28.6980   49.3590 H   0  0  0  0  0  0  0  0  0  0  0  0
   34.3250   25.7850   46.8250 H   0  0  0  0  0  0  0  0  0  0  0  0
   32.7240   25.6670   47.7510 H   0  0  0  0  0  0  0  0  0  0  0  0
   33.5650   27.8060   45.8070 H   0  0  0  0  0  0  0  0  0  0  0  0
   32.1370   29.5970   46.9500 O   0  0  0  0  0  0  0  0  0  0  0  0
   31.6170   29.5710   46.1190 H   0  0  0  0  0  0  0  0  0  0  0  0
   34.7890   29.4780   47.5960 S   0  0  0  0  0  0  0  0  0  0  0  0
   37.3440   29.3730   50.6270 C   0  0  0  0  0  0  0  0  0  0  0  0
   37.8760   30.6610   50.7030 C   0  0  0  0  0  0  0  0  0  0  0  0
   37.4190   31.6060   49.7640 C   0  0  0  0  0  0  0  0  0  0  0  0
   36.4980   31.2240   48.8500 N   0  0  0  0  0  0  0  0  0  0  0  0
   36.0050   29.9700   48.8090 C   0  0  0  0  0  0  0  0  0  0  0  0
   36.4170   29.0430   49.6850 N   0  0  0  0  0  0  0  0  0  0  0  0
   37.6260   28.5690   51.3000 H   0  0  0  0  0  0  0  0  0  0  0  0
   38.6020   30.8840   51.4560 H   0  0  0  0  0  0  0  0  0  0  0  0
   37.8260   32.6070   49.8150 H   0  0  0  0  0  0  0  0  0  0  0  0
   31.7590   26.7270   45.7980 O   0  0  0  0  0  0  0  0  0  0  0  0
   32.8250   27.8030   43.9180 C   0  0  2  0  0  3  0  0  0  0  0  0
   32.0720   26.6240   44.4430 C   0  0  2  0  0  3  0  0  0  0  0  0
   30.9360   26.3080   43.7190 O   0  0  0  0  0  0  0  0  0  0  0  0
   30.1150   27.4020   43.4830 C   0  0  0  0  0  2  0  0  0  0  0  0
   30.8700   28.2330   42.4630 C   0  0  1  0  0  3  0  0  0  0  0  0
   32.0350   28.8330   43.1980 C   0  0  1  0  0  3  0  0  0  0  0  0
   33.8940   27.4170   43.1030 O   0  0  0  0  0  0  0  0  0  0  0  0
   33.5930   26.7210   42.4950 H   0  0  0  0  0  0  0  0  0  0  0  0
   31.3510   27.3250   41.5000 O   0  0  0  0  0  0  0  0  0  0  0  0
   31.6570   27.7960   40.6870 H   0  0  0  0  0  0  0  0  0  0  0  0
   31.5290   29.7970   44.0900 O   0  0  0  0  0  0  0  0  0  0  0  0
   32.2390   30.4960   44.1820 H   0  0  0  0  0  0  0  0  0  0  0  0
  1  6  1  1  0  0  0
  1  2  1  0  0  0  0
  2  7  1  1  0  0  0
  3  2  1  0  0  0  0
  4  9  1  0  0  0  0
  4  3  1  0  0  0  0
  5 10  1  6  0  0  0
  5  4  1  0  0  0  0
  5  1  1  0  0  0  0
  8  4  1  0  0  0  0
 11  1  1  0  0  0  0
 12 11  1  0  0  0  0
 13  2  1  0  0  0  0
 13 18  1  0  0  0  0
 14 15  1  0  0  0  0
 14 20  1  0  0  0  0
 15 21  1  0  0  0  0
 16 22  1  0  0  0  0
 16 15  2  0  0  0  0
 17 16  1  0  0  0  0
 18 17  2  0  0  0  0
 18 19  1  0  0  0  0
 19 14  2  0  0  0  0
 23  5  1  0  0  0  0
 24 30  1  6  0  0  0
 24 25  1  0  0  0  0
 25 23  1  1  0  0  0
 26 25  1  0  0  0  0
 27 26  1  0  0  0  0
 28 32  1  6  0  0  0
 28 29  1  0  0  0  0
 28 27  1  0  0  0  0
 29 24  1  0  0  0  0
 29 34  1  1  0  0  0
 31 30  1  0  0  0  0
 33 32  1  0  0  0  0
 34 35  1  0  0  0  0
M  END
>  <minimizedAffinity>
-3.85488057

>  <minimizedRMSD>
0.345745713

$$$$
