
 OpenBabel03272509583D

 49 52  0  0  1  0  0  0  0  0999 V2000
   33.5150   27.6410   47.5710 C   0  0  0  0  0  0  0  0  0  0  0  0
   33.6400   27.6180   46.4550 H   0  0  0  0  0  0  0  0  0  0  0  0
   33.7830   26.6230   47.9110 H   0  0  0  0  0  0  0  0  0  0  0  0
   32.0740   27.9260   47.7960 C   0  0  0  0  0  0  0  0  0  0  0  0
   31.5050   27.5170   48.9970 C   0  0  0  0  0  0  0  0  0  0  0  0
   30.1870   27.7400   49.2830 C   0  0  0  0  0  0  0  0  0  0  0  0
   29.4270   28.3640   48.3890 N   0  0  0  0  0  0  0  0  0  0  0  0
   29.9870   28.7650   47.2100 C   0  0  0  0  0  0  0  0  0  0  0  0
   31.2770   28.5600   46.9010 N   0  0  0  0  0  0  0  0  0  0  0  0
   32.0860   27.0030   49.7600 H   0  0  0  0  0  0  0  0  0  0  0  0
   29.7590   27.4130   50.2270 H   0  0  0  0  0  0  0  0  0  0  0  0
   29.0950   29.4560   46.2470 C   0  0  0  0  0  0  0  0  0  0  0  0
   28.1530   29.7630   46.7280 H   0  0  0  0  0  0  0  0  0  0  0  0
   29.5310   30.3750   45.8100 H   0  0  0  0  0  0  0  0  0  0  0  0
   27.9710   27.2740   45.7700 C   0  0  2  0  0  3  0  0  0  0  0  0
   28.7110   28.4550   45.1790 C   0  0  1  0  0  3  0  0  0  0  0  0
   27.8740   29.0160   44.2170 O   0  0  0  0  0  0  0  0  0  0  0  0
   28.0420   28.2890   43.0420 C   0  0  0  0  0  2  0  0  0  0  0  0
   28.2280   26.8140   43.3040 C   0  0  1  0  0  3  0  0  0  0  0  0
   27.5850   26.3810   44.6010 C   0  0  1  0  0  3  0  0  0  0  0  0
   26.8210   27.7710   46.3990 O   0  0  0  0  0  0  0  0  0  0  0  0
   26.0130   27.5140   45.8720 H   0  0  0  0  0  0  0  0  0  0  0  0
   27.5770   26.1260   42.2750 O   0  0  0  0  0  0  0  0  0  0  0  0
   28.2310   25.7550   41.6050 H   0  0  0  0  0  0  0  0  0  0  0  0
   28.1000   25.1120   44.8780 O   0  0  0  0  0  0  0  0  0  0  0  0
   27.4340   24.4080   44.6970 H   0  0  0  0  0  0  0  0  0  0  0  0
   34.4090   28.7230   48.0920 C   0  0  0  0  0  0  0  0  0  0  0  0
   33.7750   29.6320   48.2450 H   0  0  0  0  0  0  0  0  0  0  0  0
   35.1940   29.0340   47.3490 H   0  0  0  0  0  0  0  0  0  0  0  0
   34.9770   28.3780   49.3410 O   0  0  0  0  0  0  0  0  0  0  0  0
   37.2870   30.1370   51.4860 C   0  0  0  0  0  0  0  0  0  0  0  0
   38.0340   30.8410   50.5070 C   0  0  0  0  0  0  0  0  0  0  0  0
   37.6930   30.6640   49.1800 C   0  0  0  0  0  0  0  0  0  0  0  0
   36.6560   29.8160   48.9260 N   0  0  0  0  0  0  0  0  0  0  0  0
   35.9590   29.1570   49.8500 C   0  0  0  0  0  0  0  0  0  0  0  0
   36.2870   29.3260   51.1500 N   0  0  0  0  0  0  0  0  0  0  0  0
   37.6060   30.3210   52.5020 H   0  0  0  0  0  0  0  0  0  0  0  0
   38.8470   31.5040   50.7300 H   0  0  0  0  0  0  0  0  0  0  0  0
   38.8870   33.3000   49.0500 F   0  0  0  0  0  0  0  0  0  0  0  0
   38.9070   32.5210   47.9740 C   0  0  0  0  0  0  0  0  0  0  0  0
   38.3480   31.3050   48.0570 C   0  0  0  0  0  0  0  0  0  0  0  0
   38.4190   30.5580   46.8690 C   0  0  0  0  0  0  0  0  0  0  0  0
   39.0120   31.0470   45.7350 C   0  0  0  0  0  0  0  0  0  0  0  0
   39.5710   32.3050   45.7070 C   0  0  0  0  0  0  0  0  0  0  0  0
   39.5080   33.0340   46.8460 C   0  0  0  0  0  0  0  0  0  0  0  0
   38.0070   29.5570   46.7970 H   0  0  0  0  0  0  0  0  0  0  0  0
   39.0560   30.4500   44.8250 H   0  0  0  0  0  0  0  0  0  0  0  0
   40.0430   32.7040   44.8170 H   0  0  0  0  0  0  0  0  0  0  0  0
   39.9430   34.0290   46.8470 H   0  0  0  0  0  0  0  0  0  0  0  0
  1  4  1  0  0  0  0
  1  3  1  0  0  0  0
  1 27  1  0  0  0  0
  2  1  1  0  0  0  0
  4  5  1  0  0  0  0
  5  6  2  0  0  0  0
  5 10  1  0  0  0  0
  6 11  1  0  0  0  0
  7  6  1  0  0  0  0
  8  7  2  0  0  0  0
  9  8  1  0  0  0  0
  9  4  2  0  0  0  0
 12 13  1  0  0  0  0
 12  8  1  0  0  0  0
 14 12  1  0  0  0  0
 15 21  1  6  0  0  0
 16 15  1  0  0  0  0
 16 12  1  1  0  0  0
 17 16  1  0  0  0  0
 18 19  1  0  0  0  0
 18 17  1  0  0  0  0
 19 23  1  6  0  0  0
 19 20  1  0  0  0  0
 20 25  1  1  0  0  0
 20 15  1  0  0  0  0
 22 21  1  0  0  0  0
 24 23  1  0  0  0  0
 26 25  1  0  0  0  0
 27 28  1  0  0  0  0
 27 30  1  0  0  0  0
 29 27  1  0  0  0  0
 30 35  1  0  0  0  0
 31 37  1  0  0  0  0
 32 38  1  0  0  0  0
 32 31  2  0  0  0  0
 33 32  1  0  0  0  0
 34 33  2  0  0  0  0
 34 35  1  0  0  0  0
 35 36  2  0  0  0  0
 36 31  1  0  0  0  0
 40 41  1  0  0  0  0
 40 39  1  0  0  0  0
 41 33  1  0  0  0  0
 42 41  2  0  0  0  0
 43 42  1  0  0  0  0
 44 43  2  0  0  0  0
 44 45  1  0  0  0  0
 45 49  1  0  0  0  0
 45 40  2  0  0  0  0
 46 42  1  0  0  0  0
 47 43  1  0  0  0  0
 48 44  1  0  0  0  0
M  END
>  <minimizedAffinity>
-6.69447756

>  <minimizedRMSD>
0.494680673

$$$$
