
 OpenBabel03272504243D

 42 44  0  0  1  0  0  0  0  0999 V2000
   37.9250   25.5340   34.2280 C   0  0  2  0  0  0  0  0  0  0  0  0
   37.3760   25.2190   32.8540 C   0  0  1  0  0  0  0  0  0  0  0  0
   36.9360   26.6360   32.4720 C   0  0  0  0  0  0  0  0  0  0  0  0
   38.0870   27.3530   32.7440 O   0  0  0  0  0  0  0  0  0  0  0  0
   38.6050   26.8670   33.9280 C   0  0  0  0  0  0  0  0  0  0  0  0
   37.1220   25.6920   34.9660 H   0  0  0  0  0  0  0  0  0  0  0  0
   36.5350   24.5130   32.8650 H   0  0  0  0  0  0  0  0  0  0  0  0
   36.6990   26.7110   31.4020 H   0  0  0  0  0  0  0  0  0  0  0  0
   36.1180   26.9570   33.1450 H   0  0  0  0  0  0  0  0  0  0  0  0
   38.4490   27.6040   34.7400 H   0  0  0  0  0  0  0  0  0  0  0  0
   39.7010   26.7580   33.8080 H   0  0  0  0  0  0  0  0  0  0  0  0
   38.4390   24.8340   32.0710 O   0  0  0  0  0  0  0  0  0  0  0  0
   36.4960   23.7490   30.7220 O   0  0  0  0  0  0  0  0  0  0  0  0
   37.9900   23.8580   30.7750 P   0  0  1  0  0  0  0  0  0  0  0  0
   38.5170   24.5900   29.3070 O   0  0  0  0  0  0  0  0  0  0  0  0
   39.4170   24.9690   29.5190 H   0  0  0  0  0  0  0  0  0  0  0  0
   38.7110   22.3330   30.9150 O   0  0  0  0  0  0  0  0  0  0  0  0
   38.7070   21.9970   32.2540 C   0  0  0  0  0  0  0  0  0  0  0  0
   38.6290   22.9530   32.8460 H   0  0  0  0  0  0  0  0  0  0  0  0
   39.6500   21.5120   32.5670 H   0  0  0  0  0  0  0  0  0  0  0  0
   37.5500   21.1660   32.6530 C   0  0  0  0  0  0  0  0  0  0  0  0
   37.3080   20.0410   31.9000 C   0  0  0  0  0  0  0  0  0  0  0  0
   36.2320   19.2120   32.2240 C   0  0  0  0  0  0  0  0  0  0  0  0
   35.4690   19.5820   33.2930 N   0  0  0  0  0  0  0  0  0  0  0  0
   35.7250   20.6880   34.0160 C   0  0  0  0  0  0  0  0  0  0  0  0
   36.7670   21.4850   33.6980 N   0  0  0  0  0  0  0  0  0  0  0  0
   37.8480   19.6710   31.0470 H   0  0  0  0  0  0  0  0  0  0  0  0
   35.9620   18.3140   31.6970 H   0  0  0  0  0  0  0  0  0  0  0  0
   35.0590   20.9000   34.8510 H   0  0  0  0  0  0  0  0  0  0  0  0
   38.8190   24.5380   34.5810 O   0  0  0  0  0  0  0  0  0  0  0  0
   39.5830   22.9940   36.1710 C   0  0  1  0  0  3  0  0  0  0  0  0
   38.8790   24.3180   35.9470 C   0  0  2  0  0  3  0  0  0  0  0  0
   37.5970   24.1340   36.4270 O   0  0  0  0  0  0  0  0  0  0  0  0
   37.5100   23.9360   37.7780 C   0  0  0  0  0  2  0  0  0  0  0  0
   38.7200   23.4610   38.4750 C   0  0  2  0  0  3  0  0  0  0  0  0
   39.8500   22.9600   37.6630 C   0  0  1  0  0  3  0  0  0  0  0  0
   38.7360   21.9080   35.9050 O   0  0  0  0  0  0  0  0  0  0  0  0
   37.9310   22.1860   35.4040 H   0  0  0  0  0  0  0  0  0  0  0  0
   38.3460   22.4110   39.3490 O   0  0  0  0  0  0  0  0  0  0  0  0
   37.4150   22.1100   39.1830 H   0  0  0  0  0  0  0  0  0  0  0  0
   40.2770   21.6770   38.0400 O   0  0  0  0  0  0  0  0  0  0  0  0
   40.4100   21.0840   37.2490 H   0  0  0  0  0  0  0  0  0  0  0  0
  1 30  1  0  0  0  0
  1  6  1  1  0  0  0
  2  7  1  1  0  0  0
  2  1  1  0  0  0  0
  3  4  1  0  0  0  0
  3  2  1  0  0  0  0
  3  9  1  0  0  0  0
  4  5  1  0  0  0  0
  5  1  1  0  0  0  0
  5 10  1  0  0  0  0
  8  3  1  0  0  0  0
 11  5  1  0  0  0  0
 12  2  1  0  0  0  0
 14 13  2  6  0  0  0
 14 17  1  0  0  0  0
 14 12  1  0  0  0  0
 15 16  1  0  0  0  0
 15 14  1  0  0  0  0
 17 18  1  0  0  0  0
 18 20  1  0  0  0  0
 18 21  1  0  0  0  0
 18 19  1  0  0  0  0
 21 26  1  0  0  0  0
 22 23  1  0  0  0  0
 22 21  2  0  0  0  0
 23 24  2  0  0  0  0
 24 25  1  0  0  0  0
 25 29  1  0  0  0  0
 26 25  2  0  0  0  0
 27 22  1  0  0  0  0
 28 23  1  0  0  0  0
 31 37  1  1  0  0  0
 31 36  1  0  0  0  0
 32 30  1  6  0  0  0
 32 31  1  0  0  0  0
 32 33  1  0  0  0  0
 33 34  1  0  0  0  0
 34 35  1  0  0  0  0
 35 39  1  1  0  0  0
 36 41  1  1  0  0  0
 36 35  1  0  0  0  0
 38 37  1  0  0  0  0
 40 39  1  0  0  0  0
 42 41  1  0  0  0  0
M  END
>  <minimizedAffinity>
-6.01320839

$$$$

 OpenBabel03272504243D

 42 44  0  0  1  0  0  0  0  0999 V2000
   40.0710   25.5450   33.8050 C   0  0  2  0  0  0  0  0  0  0  0  0
   39.1620   26.3550   32.9080 C   0  0  1  0  0  0  0  0  0  0  0  0
   40.2430   27.1770   32.1990 C   0  0  0  0  0  0  0  0  0  0  0  0
   41.1100   26.1790   31.7920 O   0  0  0  0  0  0  0  0  0  0  0  0
   41.2130   25.2740   32.8290 C   0  0  0  0  0  0  0  0  0  0  0  0
   40.4490   26.1370   34.6530 H   0  0  0  0  0  0  0  0  0  0  0  0
   38.4530   26.9890   33.4540 H   0  0  0  0  0  0  0  0  0  0  0  0
   39.8440   27.6990   31.3190 H   0  0  0  0  0  0  0  0  0  0  0  0
   40.7410   27.8380   32.9350 H   0  0  0  0  0  0  0  0  0  0  0  0
   42.2040   25.3650   33.3150 H   0  0  0  0  0  0  0  0  0  0  0  0
   41.1640   24.2520   32.4040 H   0  0  0  0  0  0  0  0  0  0  0  0
   38.5850   25.4810   32.0180 O   0  0  0  0  0  0  0  0  0  0  0  0
   36.4200   26.6270   32.8960 O   0  0  0  0  0  0  0  0  0  0  0  0
   36.9380   25.7510   31.7960 P   0  0  1  0  0  0  0  0  0  0  0  0
   36.6970   26.5780   30.3040 O   0  0  0  0  0  0  0  0  0  0  0  0
   37.3510   26.1630   29.6730 H   0  0  0  0  0  0  0  0  0  0  0  0
   36.1060   24.2770   31.7440 O   0  0  0  0  0  0  0  0  0  0  0  0
   37.0400   23.2840   31.5290 C   0  0  0  0  0  0  0  0  0  0  0  0
   37.7540   23.2910   32.4010 H   0  0  0  0  0  0  0  0  0  0  0  0
   37.6490   23.4710   30.6260 H   0  0  0  0  0  0  0  0  0  0  0  0
   36.4580   21.9240   31.4800 C   0  0  0  0  0  0  0  0  0  0  0  0
   35.3050   21.7190   32.2010 C   0  0  0  0  0  0  0  0  0  0  0  0
   34.7040   20.4580   32.1960 C   0  0  0  0  0  0  0  0  0  0  0  0
   35.3150   19.4870   31.4590 N   0  0  0  0  0  0  0  0  0  0  0  0
   36.4440   19.7120   30.7600 C   0  0  0  0  0  0  0  0  0  0  0  0
   37.0200   20.9320   30.7680 N   0  0  0  0  0  0  0  0  0  0  0  0
   34.7550   22.4160   32.8070 H   0  0  0  0  0  0  0  0  0  0  0  0
   33.8050   20.2010   32.7270 H   0  0  0  0  0  0  0  0  0  0  0  0
   36.8570   18.8730   30.2020 H   0  0  0  0  0  0  0  0  0  0  0  0
   39.3990   24.3950   34.1830 O   0  0  0  0  0  0  0  0  0  0  0  0
   39.9380   22.9130   35.9190 C   0  0  1  0  0  3  0  0  0  0  0  0
   39.3080   24.2440   35.5580 C   0  0  2  0  0  3  0  0  0  0  0  0
   37.9770   24.1230   35.9060 O   0  0  0  0  0  0  0  0  0  0  0  0
   37.7420   23.9970   37.2480 C   0  0  0  0  0  2  0  0  0  0  0  0
   38.8550   23.5230   38.0920 C   0  0  2  0  0  3  0  0  0  0  0  0
   40.0460   22.9480   37.4300 C   0  0  1  0  0  3  0  0  0  0  0  0
   39.0860   21.8410   35.6160 O   0  0  0  0  0  0  0  0  0  0  0  0
   38.3480   22.1160   35.0190 H   0  0  0  0  0  0  0  0  0  0  0  0
   38.3540   22.5310   38.9710 O   0  0  0  0  0  0  0  0  0  0  0  0
   37.4360   22.2500   38.7210 H   0  0  0  0  0  0  0  0  0  0  0  0
   40.3860   21.6740   37.9120 O   0  0  0  0  0  0  0  0  0  0  0  0
   40.5800   21.0370   37.1690 H   0  0  0  0  0  0  0  0  0  0  0  0
  1 30  1  0  0  0  0
  1  6  1  1  0  0  0
  2  7  1  1  0  0  0
  2  1  1  0  0  0  0
  3  2  1  0  0  0  0
  3  9  1  0  0  0  0
  4  3  1  0  0  0  0
  4  5  1  0  0  0  0
  5 10  1  0  0  0  0
  5  1  1  0  0  0  0
  8  3  1  0  0  0  0
 11  5  1  0  0  0  0
 12  2  1  0  0  0  0
 14 12  1  0  0  0  0
 14 13  2  1  0  0  0
 15 14  1  0  0  0  0
 16 15  1  0  0  0  0
 17 14  1  0  0  0  0
 18 17  1  0  0  0  0
 18 19  1  0  0  0  0
 20 18  1  0  0  0  0
 21 18  1  0  0  0  0
 21 22  1  0  0  0  0
 22 27  1  0  0  0  0
 23 22  2  0  0  0  0
 23 28  1  0  0  0  0
 24 23  1  0  0  0  0
 25 26  1  0  0  0  0
 25 24  2  0  0  0  0
 26 21  2  0  0  0  0
 29 25  1  0  0  0  0
 31 37  1  1  0  0  0
 31 36  1  0  0  0  0
 32 30  1  6  0  0  0
 32 33  1  0  0  0  0
 32 31  1  0  0  0  0
 33 34  1  0  0  0  0
 34 35  1  0  0  0  0
 35 39  1  1  0  0  0
 36 41  1  1  0  0  0
 36 35  1  0  0  0  0
 38 37  1  0  0  0  0
 40 39  1  0  0  0  0
 42 41  1  0  0  0  0
M  END
>  <minimizedAffinity>
-5.82373333

$$$$

 OpenBabel03272504243D

 42 44  0  0  1  0  0  0  0  0999 V2000
   36.6040   24.2580   30.7580 C   0  0  2  0  0  0  0  0  0  0  0  0
   37.1090   25.5740   31.3070 C   0  0  1  0  0  0  0  0  0  0  0  0
   35.9740   26.4660   30.7930 C   0  0  0  0  0  0  0  0  0  0  0  0
   34.8660   25.7680   31.2400 O   0  0  0  0  0  0  0  0  0  0  0  0
   35.1120   24.4260   31.0300 C   0  0  0  0  0  0  0  0  0  0  0  0
   36.7690   24.1740   29.6720 H   0  0  0  0  0  0  0  0  0  0  0  0
   38.0850   25.8750   30.9060 H   0  0  0  0  0  0  0  0  0  0  0  0
   35.9960   27.4600   31.2610 H   0  0  0  0  0  0  0  0  0  0  0  0
   35.9940   26.4810   29.6860 H   0  0  0  0  0  0  0  0  0  0  0  0
   34.4930   24.0550   30.1900 H   0  0  0  0  0  0  0  0  0  0  0  0
   34.7870   23.8690   31.9310 H   0  0  0  0  0  0  0  0  0  0  0  0
   37.0510   25.4910   32.6780 O   0  0  0  0  0  0  0  0  0  0  0  0
   38.5950   27.5730   32.4570 O   0  0  0  0  0  0  0  0  0  0  0  0
   37.8060   26.7800   33.4540 P   0  0  1  0  0  0  0  0  0  0  0  0
   36.6040   27.8190   34.1210 O   0  0  0  0  0  0  0  0  0  0  0  0
   35.9010   27.2030   34.4760 H   0  0  0  0  0  0  0  0  0  0  0  0
   38.7930   26.2110   34.7050 O   0  0  0  0  0  0  0  0  0  0  0  0
   37.9640   25.8000   35.7290 C   0  0  0  0  0  0  0  0  0  0  0  0
   37.0200   25.3970   35.2640 H   0  0  0  0  0  0  0  0  0  0  0  0
   37.6580   26.6370   36.3820 H   0  0  0  0  0  0  0  0  0  0  0  0
   38.5290   24.7000   36.5430 C   0  0  0  0  0  0  0  0  0  0  0  0
   39.5720   23.9950   35.9890 C   0  0  0  0  0  0  0  0  0  0  0  0
   40.1520   22.9450   36.7050 C   0  0  0  0  0  0  0  0  0  0  0  0
   39.6320   22.6780   37.9370 N   0  0  0  0  0  0  0  0  0  0  0  0
   38.6100   23.3830   38.4590 C   0  0  0  0  0  0  0  0  0  0  0  0
   38.0550   24.3970   37.7630 N   0  0  0  0  0  0  0  0  0  0  0  0
   40.0450   24.1290   35.0330 H   0  0  0  0  0  0  0  0  0  0  0  0
   40.9680   22.3370   36.3580 H   0  0  0  0  0  0  0  0  0  0  0  0
   38.2640   23.0950   39.4510 H   0  0  0  0  0  0  0  0  0  0  0  0
   37.1750   23.2310   31.4900 O   0  0  0  0  0  0  0  0  0  0  0  0
   36.4850   21.7220   33.1460 C   0  0  1  0  0  3  0  0  0  0  0  0
   36.3110   22.1710   31.7080 C   0  0  2  0  0  3  0  0  0  0  0  0
   36.7170   21.0970   30.9410 O   0  0  0  0  0  0  0  0  0  0  0  0
   35.9270   19.9850   31.0400 C   0  0  0  0  0  2  0  0  0  0  0  0
   35.0800   19.8570   32.2410 C   0  0  2  0  0  3  0  0  0  0  0  0
   35.3330   20.7650   33.3810 C   0  0  1  0  0  3  0  0  0  0  0  0
   37.6560   20.9680   33.3130 O   0  0  0  0  0  0  0  0  0  0  0  0
   38.2650   21.0620   32.5400 H   0  0  0  0  0  0  0  0  0  0  0  0
   35.2040   18.5340   32.7330 O   0  0  0  0  0  0  0  0  0  0  0  0
   35.9420   18.0450   32.2860 H   0  0  0  0  0  0  0  0  0  0  0  0
   35.5190   20.0870   34.5970 O   0  0  0  0  0  0  0  0  0  0  0  0
   36.3070   20.4370   35.0980 H   0  0  0  0  0  0  0  0  0  0  0  0
  1  6  1  6  0  0  0
  1  5  1  0  0  0  0
  1  2  1  0  0  0  0
  1 30  1  0  0  0  0
  2  7  1  6  0  0  0
  2 12  1  0  0  0  0
  3  4  1  0  0  0  0
  3  8  1  0  0  0  0
  3  2  1  0  0  0  0
  5  4  1  0  0  0  0
  5 11  1  0  0  0  0
  9  3  1  0  0  0  0
 10  5  1  0  0  0  0
 12 14  1  0  0  0  0
 14 13  2  6  0  0  0
 14 15  1  0  0  0  0
 14 17  1  0  0  0  0
 15 16  1  0  0  0  0
 17 18  1  0  0  0  0
 18 20  1  0  0  0  0
 18 21  1  0  0  0  0
 19 18  1  0  0  0  0
 21 26  1  0  0  0  0
 22 21  2  0  0  0  0
 22 23  1  0  0  0  0
 23 24  2  0  0  0  0
 24 25  1  0  0  0  0
 25 29  1  0  0  0  0
 26 25  2  0  0  0  0
 27 22  1  0  0  0  0
 28 23  1  0  0  0  0
 31 37  1  6  0  0  0
 31 36  1  0  0  0  0
 32 30  1  6  0  0  0
 32 31  1  0  0  0  0
 33 34  1  0  0  0  0
 33 32  1  0  0  0  0
 34 35  1  0  0  0  0
 35 39  1  1  0  0  0
 35 36  1  0  0  0  0
 36 41  1  1  0  0  0
 38 37  1  0  0  0  0
 40 39  1  0  0  0  0
 41 42  1  0  0  0  0
M  END
>  <minimizedAffinity>
-5.64101887

$$$$

 OpenBabel03272504243D

 42 44  0  0  1  0  0  0  0  0999 V2000
   38.0320   25.8860   34.4370 C   0  0  2  0  0  0  0  0  0  0  0  0
   37.2270   25.8850   33.1570 C   0  0  1  0  0  0  0  0  0  0  0  0
   37.4020   27.3630   32.7950 C   0  0  0  0  0  0  0  0  0  0  0  0
   38.7750   27.4980   32.8930 O   0  0  0  0  0  0  0  0  0  0  0  0
   39.1800   26.7990   34.0130 C   0  0  0  0  0  0  0  0  0  0  0  0
   37.4830   26.3550   35.2690 H   0  0  0  0  0  0  0  0  0  0  0  0
   36.1720   25.6160   33.2990 H   0  0  0  0  0  0  0  0  0  0  0  0
   37.0840   27.5680   31.7630 H   0  0  0  0  0  0  0  0  0  0  0  0
   36.9010   27.9870   33.5600 H   0  0  0  0  0  0  0  0  0  0  0  0
   39.4670   27.5040   34.8160 H   0  0  0  0  0  0  0  0  0  0  0  0
   40.0930   26.2270   33.7530 H   0  0  0  0  0  0  0  0  0  0  0  0
   37.9030   25.1010   32.2530 O   0  0  0  0  0  0  0  0  0  0  0  0
   36.0170   23.3160   32.0860 O   0  0  0  0  0  0  0  0  0  0  0  0
   36.8830   24.2100   31.2520 P   0  0  1  0  0  0  0  0  0  0  0  0
   35.8520   25.2900   30.3920 O   0  0  0  0  0  0  0  0  0  0  0  0
   36.4350   26.0660   30.1550 H   0  0  0  0  0  0  0  0  0  0  0  0
   37.7920   23.3180   30.1370 O   0  0  0  0  0  0  0  0  0  0  0  0
   38.3430   22.2500   30.8150 C   0  0  0  0  0  0  0  0  0  0  0  0
   37.8500   22.1960   31.8270 H   0  0  0  0  0  0  0  0  0  0  0  0
   39.4240   22.3850   31.0010 H   0  0  0  0  0  0  0  0  0  0  0  0
   38.0970   20.9440   30.1630 C   0  0  0  0  0  0  0  0  0  0  0  0
   36.9120   20.3150   30.4680 C   0  0  0  0  0  0  0  0  0  0  0  0
   36.6180   19.0800   29.8860 C   0  0  0  0  0  0  0  0  0  0  0  0
   37.5490   18.5630   29.0320 N   0  0  0  0  0  0  0  0  0  0  0  0
   38.7020   19.1980   28.7490 C   0  0  0  0  0  0  0  0  0  0  0  0
   38.9810   20.3910   29.3140 N   0  0  0  0  0  0  0  0  0  0  0  0
   36.1250   20.6400   31.1230 H   0  0  0  0  0  0  0  0  0  0  0  0
   35.7220   18.5120   30.0600 H   0  0  0  0  0  0  0  0  0  0  0  0
   39.3820   18.7050   28.0560 H   0  0  0  0  0  0  0  0  0  0  0  0
   38.4410   24.5900   34.6980 O   0  0  0  0  0  0  0  0  0  0  0  0
   39.3900   23.0280   36.1660 C   0  0  1  0  0  3  0  0  0  0  0  0
   38.6490   24.3450   36.0460 C   0  0  2  0  0  3  0  0  0  0  0  0
   37.4280   24.1320   36.6550 O   0  0  0  0  0  0  0  0  0  0  0  0
   37.4880   23.9060   38.0030 C   0  0  0  0  0  2  0  0  0  0  0  0
   38.7710   23.4360   38.5580 C   0  0  2  0  0  3  0  0  0  0  0  0
   39.8150   22.9690   37.6200 C   0  0  1  0  0  3  0  0  0  0  0  0
   38.5340   21.9340   35.9690 O   0  0  0  0  0  0  0  0  0  0  0  0
   37.6760   22.2090   35.5620 H   0  0  0  0  0  0  0  0  0  0  0  0
   38.5060   22.3640   39.4450 O   0  0  0  0  0  0  0  0  0  0  0  0
   37.5670   22.0520   39.3720 H   0  0  0  0  0  0  0  0  0  0  0  0
   40.2970   21.6850   37.9230 O   0  0  0  0  0  0  0  0  0  0  0  0
   40.3520   21.1100   37.1100 H   0  0  0  0  0  0  0  0  0  0  0  0
  1 30  1  0  0  0  0
  1  6  1  1  0  0  0
  2  7  1  1  0  0  0
  2  1  1  0  0  0  0
  3  4  1  0  0  0  0
  3  2  1  0  0  0  0
  3  9  1  0  0  0  0
  4  5  1  0  0  0  0
  5  1  1  0  0  0  0
  5 10  1  0  0  0  0
  8  3  1  0  0  0  0
 11  5  1  0  0  0  0
 12  2  1  0  0  0  0
 14 13  2  1  0  0  0
 14 12  1  0  0  0  0
 15 14  1  0  0  0  0
 16 15  1  0  0  0  0
 17 18  1  0  0  0  0
 17 14  1  0  0  0  0
 18 20  1  0  0  0  0
 18 19  1  0  0  0  0
 21 22  1  0  0  0  0
 21 18  1  0  0  0  0
 22 27  1  0  0  0  0
 23 28  1  0  0  0  0
 23 22  2  0  0  0  0
 24 23  1  0  0  0  0
 25 24  2  0  0  0  0
 25 26  1  0  0  0  0
 26 21  2  0  0  0  0
 29 25  1  0  0  0  0
 31 37  1  1  0  0  0
 31 36  1  0  0  0  0
 32 30  1  6  0  0  0
 32 31  1  0  0  0  0
 32 33  1  0  0  0  0
 33 34  1  0  0  0  0
 34 35  1  0  0  0  0
 35 39  1  1  0  0  0
 36 41  1  1  0  0  0
 36 35  1  0  0  0  0
 38 37  1  0  0  0  0
 40 39  1  0  0  0  0
 42 41  1  0  0  0  0
M  END
>  <minimizedAffinity>
-5.61310577

$$$$

 OpenBabel03272504243D

 42 44  0  0  1  0  0  0  0  0999 V2000
   37.6610   25.3420   34.2290 C   0  0  2  0  0  0  0  0  0  0  0  0
   37.5860   25.4080   32.7200 C   0  0  1  0  0  0  0  0  0  0  0  0
   36.7140   26.6630   32.6060 C   0  0  0  0  0  0  0  0  0  0  0  0
   37.4030   27.5380   33.4270 O   0  0  0  0  0  0  0  0  0  0  0  0
   37.8070   26.8290   34.5400 C   0  0  0  0  0  0  0  0  0  0  0  0
   36.7250   24.9670   34.6730 H   0  0  0  0  0  0  0  0  0  0  0  0
   37.1100   24.5310   32.2630 H   0  0  0  0  0  0  0  0  0  0  0  0
   36.6990   27.0540   31.5800 H   0  0  0  0  0  0  0  0  0  0  0  0
   35.7140   26.4510   33.0300 H   0  0  0  0  0  0  0  0  0  0  0  0
   37.2050   27.1300   35.4190 H   0  0  0  0  0  0  0  0  0  0  0  0
   38.8560   27.1060   34.7660 H   0  0  0  0  0  0  0  0  0  0  0  0
   38.8540   25.6780   32.2620 O   0  0  0  0  0  0  0  0  0  0  0  0
   40.3340   25.0680   30.2110 O   0  0  0  0  0  0  0  0  0  0  0  0
   38.9840   25.5990   30.5850 P   0  0  1  0  0  0  0  0  0  0  0  0
   37.8000   24.5040   29.9780 O   0  0  0  0  0  0  0  0  0  0  0  0
   36.9860   24.6750   30.5320 H   0  0  0  0  0  0  0  0  0  0  0  0
   38.7170   27.1260   29.9060 O   0  0  0  0  0  0  0  0  0  0  0  0
   39.4680   27.2010   28.7500 C   0  0  0  0  0  0  0  0  0  0  0  0
   39.1250   26.3730   28.0660 H   0  0  0  0  0  0  0  0  0  0  0  0
   40.5430   27.0260   28.9370 H   0  0  0  0  0  0  0  0  0  0  0  0
   39.2790   28.4630   28.0010 C   0  0  0  0  0  0  0  0  0  0  0  0
   40.2170   28.7570   27.0390 C   0  0  0  0  0  0  0  0  0  0  0  0
   40.0960   29.9330   26.2960 C   0  0  0  0  0  0  0  0  0  0  0  0
   39.0300   30.7360   26.5800 N   0  0  0  0  0  0  0  0  0  0  0  0
   38.1240   30.4260   27.5270 C   0  0  0  0  0  0  0  0  0  0  0  0
   38.2450   29.2890   28.2410 N   0  0  0  0  0  0  0  0  0  0  0  0
   41.0830   28.1930   26.7470 H   0  0  0  0  0  0  0  0  0  0  0  0
   40.7760   30.2500   25.5250 H   0  0  0  0  0  0  0  0  0  0  0  0
   37.3070   31.1310   27.6810 H   0  0  0  0  0  0  0  0  0  0  0  0
   38.7790   24.6040   34.5790 O   0  0  0  0  0  0  0  0  0  0  0  0
   39.5760   23.0370   36.1300 C   0  0  1  0  0  3  0  0  0  0  0  0
   38.8700   24.3650   35.9410 C   0  0  2  0  0  3  0  0  0  0  0  0
   37.5990   24.1770   36.4480 O   0  0  0  0  0  0  0  0  0  0  0  0
   37.5430   23.9590   37.7970 C   0  0  0  0  0  2  0  0  0  0  0  0
   38.7680   23.4720   38.4590 C   0  0  2  0  0  3  0  0  0  0  0  0
   39.8780   22.9810   37.6140 C   0  0  1  0  0  3  0  0  0  0  0  0
   38.7210   21.9560   35.8680 O   0  0  0  0  0  0  0  0  0  0  0  0
   37.9050   22.2420   35.3900 H   0  0  0  0  0  0  0  0  0  0  0  0
   38.4120   22.4110   39.3280 O   0  0  0  0  0  0  0  0  0  0  0  0
   37.4770   22.1150   39.1790 H   0  0  0  0  0  0  0  0  0  0  0  0
   40.3110   21.6920   37.9640 O   0  0  0  0  0  0  0  0  0  0  0  0
   40.4240   21.1100   37.1620 H   0  0  0  0  0  0  0  0  0  0  0  0
  1  5  1  0  0  0  0
  1 30  1  0  0  0  0
  1  6  1  1  0  0  0
  2  7  1  6  0  0  0
  2  1  1  0  0  0  0
  3  2  1  0  0  0  0
  3  9  1  0  0  0  0
  3  4  1  0  0  0  0
  4  5  1  0  0  0  0
  5 11  1  0  0  0  0
  5 10  1  0  0  0  0
  8  3  1  0  0  0  0
 12  2  1  0  0  0  0
 14 13  2  6  0  0  0
 14 12  1  0  0  0  0
 15 16  1  0  0  0  0
 15 14  1  0  0  0  0
 17 14  1  0  0  0  0
 18 20  1  0  0  0  0
 18 17  1  0  0  0  0
 19 18  1  0  0  0  0
 21 26  1  0  0  0  0
 21 18  1  0  0  0  0
 22 21  2  0  0  0  0
 23 24  2  0  0  0  0
 23 22  1  0  0  0  0
 24 25  1  0  0  0  0
 25 29  1  0  0  0  0
 25 26  2  0  0  0  0
 27 22  1  0  0  0  0
 28 23  1  0  0  0  0
 31 37  1  1  0  0  0
 31 36  1  0  0  0  0
 32 30  1  6  0  0  0
 32 31  1  0  0  0  0
 32 33  1  0  0  0  0
 33 34  1  0  0  0  0
 34 35  1  0  0  0  0
 35 39  1  1  0  0  0
 36 41  1  1  0  0  0
 36 35  1  0  0  0  0
 38 37  1  0  0  0  0
 40 39  1  0  0  0  0
 42 41  1  0  0  0  0
M  END
>  <minimizedAffinity>
-5.49780083

$$$$

 OpenBabel03272504243D

 42 44  0  0  1  0  0  0  0  0999 V2000
   37.3770   21.5740   33.3840 C   0  0  2  0  0  0  0  0  0  0  0  0
   37.1780   22.1460   31.9980 C   0  0  1  0  0  0  0  0  0  0  0  0
   36.2380   21.0640   31.4560 C   0  0  0  0  0  0  0  0  0  0  0  0
   35.2880   21.0120   32.4610 O   0  0  0  0  0  0  0  0  0  0  0  0
   35.9570   21.0920   33.6660 C   0  0  0  0  0  0  0  0  0  0  0  0
   38.0600   20.7100   33.3790 H   0  0  0  0  0  0  0  0  0  0  0  0
   38.1030   22.2210   31.4130 H   0  0  0  0  0  0  0  0  0  0  0  0
   35.7630   21.3740   30.5160 H   0  0  0  0  0  0  0  0  0  0  0  0
   36.7840   20.1030   31.3970 H   0  0  0  0  0  0  0  0  0  0  0  0
   35.9460   20.1070   34.1710 H   0  0  0  0  0  0  0  0  0  0  0  0
   35.4020   21.7900   34.3240 H   0  0  0  0  0  0  0  0  0  0  0  0
   36.4910   23.3290   32.1420 O   0  0  0  0  0  0  0  0  0  0  0  0
   37.9310   23.9850   30.0760 O   0  0  0  0  0  0  0  0  0  0  0  0
   37.0940   24.5670   31.1740 P   0  0  1  0  0  0  0  0  0  0  0  0
   35.7760   25.4050   30.4450 O   0  0  0  0  0  0  0  0  0  0  0  0
   35.0780   25.4560   31.1580 H   0  0  0  0  0  0  0  0  0  0  0  0
   37.9850   25.6600   32.1110 O   0  0  0  0  0  0  0  0  0  0  0  0
   37.2110   25.9930   33.2030 C   0  0  0  0  0  0  0  0  0  0  0  0
   37.8660   25.9340   34.1180 H   0  0  0  0  0  0  0  0  0  0  0  0
   36.3840   25.2770   33.3650 H   0  0  0  0  0  0  0  0  0  0  0  0
   36.6860   27.3770   33.1580 C   0  0  0  0  0  0  0  0  0  0  0  0
   36.4540   27.9890   34.3670 C   0  0  0  0  0  0  0  0  0  0  0  0
   35.9590   29.2950   34.3940 C   0  0  0  0  0  0  0  0  0  0  0  0
   35.7310   29.8940   33.1890 N   0  0  0  0  0  0  0  0  0  0  0  0
   35.9670   29.2730   32.0180 C   0  0  0  0  0  0  0  0  0  0  0  0
   36.4450   28.0120   31.9980 N   0  0  0  0  0  0  0  0  0  0  0  0
   36.6000   27.6020   35.3590 H   0  0  0  0  0  0  0  0  0  0  0  0
   35.7460   29.8570   35.2860 H   0  0  0  0  0  0  0  0  0  0  0  0
   35.7540   29.8330   31.1080 H   0  0  0  0  0  0  0  0  0  0  0  0
   37.7780   22.5970   34.2260 O   0  0  0  0  0  0  0  0  0  0  0  0
   39.0220   22.1980   36.1720 C   0  0  1  0  0  3  0  0  0  0  0  0
   39.0790   22.4530   34.6790 C   0  0  2  0  0  3  0  0  0  0  0  0
   39.7360   23.6600   34.5410 O   0  0  0  0  0  0  0  0  0  0  0  0
   41.0490   23.6490   34.9270 C   0  0  0  0  0  2  0  0  0  0  0  0
   41.4750   22.5870   35.8570 C   0  0  2  0  0  3  0  0  0  0  0  0
   40.4340   21.7840   36.5350 C   0  0  1  0  0  3  0  0  0  0  0  0
   38.7680   23.3770   36.8880 O   0  0  0  0  0  0  0  0  0  0  0  0
   38.4430   24.1010   36.2980 H   0  0  0  0  0  0  0  0  0  0  0  0
   42.2650   23.1790   36.8740 O   0  0  0  0  0  0  0  0  0  0  0  0
   42.2180   24.1690   36.8440 H   0  0  0  0  0  0  0  0  0  0  0  0
   40.5790   21.7580   37.9320 O   0  0  0  0  0  0  0  0  0  0  0  0
   39.7100   21.9190   38.3960 H   0  0  0  0  0  0  0  0  0  0  0  0
  1  6  1  6  0  0  0
  1  5  1  0  0  0  0
  1 30  1  0  0  0  0
  2  7  1  6  0  0  0
  2 12  1  0  0  0  0
  2  1  1  0  0  0  0
  3  2  1  0  0  0  0
  3  4  1  0  0  0  0
  4  5  1  0  0  0  0
  5 10  1  0  0  0  0
  5 11  1  0  0  0  0
  8  3  1  0  0  0  0
  9  3  1  0  0  0  0
 14 13  2  6  0  0  0
 14 17  1  0  0  0  0
 14 12  1  0  0  0  0
 15 16  1  0  0  0  0
 15 14  1  0  0  0  0
 17 18  1  0  0  0  0
 18 20  1  0  0  0  0
 18 19  1  0  0  0  0
 21 18  1  0  0  0  0
 21 22  1  0  0  0  0
 22 23  2  0  0  0  0
 22 27  1  0  0  0  0
 23 28  1  0  0  0  0
 24 23  1  0  0  0  0
 25 24  2  0  0  0  0
 26 25  1  0  0  0  0
 26 21  2  0  0  0  0
 29 25  1  0  0  0  0
 31 36  1  0  0  0  0
 31 37  1  1  0  0  0
 32 30  1  1  0  0  0
 32 31  1  0  0  0  0
 33 32  1  0  0  0  0
 33 34  1  0  0  0  0
 34 35  1  0  0  0  0
 35 36  1  0  0  0  0
 35 39  1  1  0  0  0
 36 41  1  1  0  0  0
 38 37  1  0  0  0  0
 40 39  1  0  0  0  0
 41 42  1  0  0  0  0
M  END
>  <minimizedAffinity>
-5.37750101

$$$$

 OpenBabel03272504243D

 42 44  0  0  1  0  0  0  0  0999 V2000
   40.2090   25.0820   34.0020 C   0  0  2  0  0  0  0  0  0  0  0  0
   39.8070   26.5370   34.1000 C   0  0  1  0  0  0  0  0  0  0  0  0
   40.7980   27.1000   33.0770 C   0  0  0  0  0  0  0  0  0  0  0  0
   40.5700   26.2630   31.9990 O   0  0  0  0  0  0  0  0  0  0  0  0
   40.4290   24.9820   32.4950 C   0  0  0  0  0  0  0  0  0  0  0  0
   41.1590   24.8810   34.5220 H   0  0  0  0  0  0  0  0  0  0  0  0
   39.9530   26.9700   35.0980 H   0  0  0  0  0  0  0  0  0  0  0  0
   40.5510   28.1340   32.7990 H   0  0  0  0  0  0  0  0  0  0  0  0
   41.8300   26.9630   33.4550 H   0  0  0  0  0  0  0  0  0  0  0  0
   41.3230   24.3790   32.2460 H   0  0  0  0  0  0  0  0  0  0  0  0
   39.5720   24.5040   31.9800 H   0  0  0  0  0  0  0  0  0  0  0  0
   38.5260   26.6380   33.6110 O   0  0  0  0  0  0  0  0  0  0  0  0
   36.4770   26.4680   35.2060 O   0  0  0  0  0  0  0  0  0  0  0  0
   37.4780   27.4390   34.6580 P   0  0  1  0  0  0  0  0  0  0  0  0
   38.3780   28.0740   35.9820 O   0  0  0  0  0  0  0  0  0  0  0  0
   39.2290   28.4070   35.5770 H   0  0  0  0  0  0  0  0  0  0  0  0
   36.7140   28.7170   33.8530 O   0  0  0  0  0  0  0  0  0  0  0  0
   36.0310   29.4520   34.8010 C   0  0  0  0  0  0  0  0  0  0  0  0
   36.6930   30.3100   35.1110 H   0  0  0  0  0  0  0  0  0  0  0  0
   35.8280   28.8680   35.7170 H   0  0  0  0  0  0  0  0  0  0  0  0
   34.7780   30.0560   34.2930 C   0  0  0  0  0  0  0  0  0  0  0  0
   34.8970   31.2460   33.6150 C   0  0  0  0  0  0  0  0  0  0  0  0
   33.7540   31.8680   33.1090 C   0  0  0  0  0  0  0  0  0  0  0  0
   32.5620   31.2400   33.3270 N   0  0  0  0  0  0  0  0  0  0  0  0
   32.4710   30.0740   33.9940 C   0  0  0  0  0  0  0  0  0  0  0  0
   33.5790   29.4770   34.4800 N   0  0  0  0  0  0  0  0  0  0  0  0
   35.7840   31.8130   33.3970 H   0  0  0  0  0  0  0  0  0  0  0  0
   33.7440   32.7970   32.5680 H   0  0  0  0  0  0  0  0  0  0  0  0
   31.4760   29.6490   34.1170 H   0  0  0  0  0  0  0  0  0  0  0  0
   39.1530   24.3060   34.4470 O   0  0  0  0  0  0  0  0  0  0  0  0
   39.8250   22.8570   36.1640 C   0  0  1  0  0  3  0  0  0  0  0  0
   39.1270   24.1600   35.8250 C   0  0  2  0  0  3  0  0  0  0  0  0
   37.8180   23.9860   36.2310 O   0  0  0  0  0  0  0  0  0  0  0  0
   37.6460   23.8590   37.5820 C   0  0  0  0  0  2  0  0  0  0  0  0
   38.8120   23.4350   38.3790 C   0  0  2  0  0  3  0  0  0  0  0  0
   39.9960   22.9060   37.6690 C   0  0  1  0  0  3  0  0  0  0  0  0
   39.0070   21.7490   35.9030 O   0  0  0  0  0  0  0  0  0  0  0  0
   38.2330   21.9910   35.3370 H   0  0  0  0  0  0  0  0  0  0  0  0
   38.3900   22.4290   39.2830 O   0  0  0  0  0  0  0  0  0  0  0  0
   37.4740   22.1090   39.0740 H   0  0  0  0  0  0  0  0  0  0  0  0
   40.4080   21.6490   38.1420 O   0  0  0  0  0  0  0  0  0  0  0  0
   40.5970   21.0170   37.3940 H   0  0  0  0  0  0  0  0  0  0  0  0
  1  2  1  0  0  0  0
  1 30  1  0  0  0  0
  1  6  1  1  0  0  0
  2  7  1  1  0  0  0
  3  9  1  0  0  0  0
  3  2  1  0  0  0  0
  4  5  1  0  0  0  0
  4  3  1  0  0  0  0
  5  1  1  0  0  0  0
  8  3  1  0  0  0  0
 10  5  1  0  0  0  0
 11  5  1  0  0  0  0
 12  2  1  0  0  0  0
 12 14  1  0  0  0  0
 14 13  2  1  0  0  0
 14 15  1  0  0  0  0
 16 15  1  0  0  0  0
 17 14  1  0  0  0  0
 17 18  1  0  0  0  0
 18 19  1  0  0  0  0
 18 20  1  0  0  0  0
 21 26  1  0  0  0  0
 21 18  1  0  0  0  0
 22 21  2  0  0  0  0
 23 24  2  0  0  0  0
 23 22  1  0  0  0  0
 24 25  1  0  0  0  0
 25 29  1  0  0  0  0
 25 26  2  0  0  0  0
 27 22  1  0  0  0  0
 28 23  1  0  0  0  0
 31 37  1  1  0  0  0
 31 36  1  0  0  0  0
 32 30  1  6  0  0  0
 32 31  1  0  0  0  0
 32 33  1  0  0  0  0
 33 34  1  0  0  0  0
 34 35  1  0  0  0  0
 35 39  1  1  0  0  0
 36 41  1  1  0  0  0
 36 35  1  0  0  0  0
 38 37  1  0  0  0  0
 40 39  1  0  0  0  0
 42 41  1  0  0  0  0
M  END
>  <minimizedAffinity>
-5.34457445

$$$$

 OpenBabel03272504243D

 42 44  0  0  1  0  0  0  0  0999 V2000
   37.7690   25.3490   34.1410 C   0  0  2  0  0  0  0  0  0  0  0  0
   37.5800   25.2670   32.6430 C   0  0  1  0  0  0  0  0  0  0  0  0
   36.9250   26.6360   32.4370 C   0  0  0  0  0  0  0  0  0  0  0  0
   37.8180   27.4580   33.1020 O   0  0  0  0  0  0  0  0  0  0  0  0
   38.1880   26.8110   34.2640 C   0  0  0  0  0  0  0  0  0  0  0  0
   36.8230   25.1940   34.6850 H   0  0  0  0  0  0  0  0  0  0  0  0
   36.9270   24.4440   32.3240 H   0  0  0  0  0  0  0  0  0  0  0  0
   36.8910   26.9130   31.3740 H   0  0  0  0  0  0  0  0  0  0  0  0
   35.9420   26.6510   32.9450 H   0  0  0  0  0  0  0  0  0  0  0  0
   37.7200   27.3050   35.1370 H   0  0  0  0  0  0  0  0  0  0  0  0
   39.2830   26.9220   34.3880 H   0  0  0  0  0  0  0  0  0  0  0  0
   38.8330   25.2590   32.0760 O   0  0  0  0  0  0  0  0  0  0  0  0
   37.7140   23.8070   30.2290 O   0  0  0  0  0  0  0  0  0  0  0  0
   38.8280   24.7820   30.4610 P   0  0  1  0  0  0  0  0  0  0  0  0
   38.5380   26.1590   29.4670 O   0  0  0  0  0  0  0  0  0  0  0  0
   39.0550   26.8980   29.8960 H   0  0  0  0  0  0  0  0  0  0  0  0
   40.3260   24.1130   30.0460 O   0  0  0  0  0  0  0  0  0  0  0  0
   40.7020   24.6630   28.8370 C   0  0  0  0  0  0  0  0  0  0  0  0
   41.7950   24.9270   28.9070 H   0  0  0  0  0  0  0  0  0  0  0  0
   40.1660   25.6050   28.6210 H   0  0  0  0  0  0  0  0  0  0  0  0
   40.5730   23.7290   27.6960 C   0  0  0  0  0  0  0  0  0  0  0  0
   39.6770   24.0780   26.7110 C   0  0  0  0  0  0  0  0  0  0  0  0
   39.5090   23.2400   25.6060 C   0  0  0  0  0  0  0  0  0  0  0  0
   40.2600   22.1020   25.5740 N   0  0  0  0  0  0  0  0  0  0  0  0
   41.1310   21.7830   26.5500 C   0  0  0  0  0  0  0  0  0  0  0  0
   41.2900   22.5950   27.6150 N   0  0  0  0  0  0  0  0  0  0  0  0
   39.0460   24.9450   26.6490 H   0  0  0  0  0  0  0  0  0  0  0  0
   38.8350   23.4250   24.7880 H   0  0  0  0  0  0  0  0  0  0  0  0
   41.6850   20.8520   26.4350 H   0  0  0  0  0  0  0  0  0  0  0  0
   38.7720   24.4670   34.5050 O   0  0  0  0  0  0  0  0  0  0  0  0
   39.5700   22.9540   36.1080 C   0  0  1  0  0  3  0  0  0  0  0  0
   38.8560   24.2700   35.8740 C   0  0  2  0  0  3  0  0  0  0  0  0
   37.5830   24.0880   36.3780 O   0  0  0  0  0  0  0  0  0  0  0  0
   37.5200   23.9120   37.7330 C   0  0  0  0  0  2  0  0  0  0  0  0
   38.7440   23.4550   38.4180 C   0  0  2  0  0  3  0  0  0  0  0  0
   39.8630   22.9460   37.5950 C   0  0  1  0  0  3  0  0  0  0  0  0
   38.7250   21.8590   35.8740 O   0  0  0  0  0  0  0  0  0  0  0  0
   37.9100   22.1250   35.3820 H   0  0  0  0  0  0  0  0  0  0  0  0
   38.3890   22.4180   39.3160 O   0  0  0  0  0  0  0  0  0  0  0  0
   37.4580   22.1100   39.1710 H   0  0  0  0  0  0  0  0  0  0  0  0
   40.3030   21.6720   37.9870 O   0  0  0  0  0  0  0  0  0  0  0  0
   40.4250   21.0660   37.2040 H   0  0  0  0  0  0  0  0  0  0  0  0
  1  5  1  0  0  0  0
  1 30  1  0  0  0  0
  1  6  1  1  0  0  0
  2  7  1  6  0  0  0
  2  1  1  0  0  0  0
  3  2  1  0  0  0  0
  3  9  1  0  0  0  0
  3  4  1  0  0  0  0
  4  5  1  0  0  0  0
  5 11  1  0  0  0  0
  5 10  1  0  0  0  0
  8  3  1  0  0  0  0
 12  2  1  0  0  0  0
 14 13  2  6  0  0  0
 14 12  1  0  0  0  0
 15 16  1  0  0  0  0
 15 14  1  0  0  0  0
 17 14  1  0  0  0  0
 18 19  1  0  0  0  0
 18 17  1  0  0  0  0
 20 18  1  0  0  0  0
 21 18  1  0  0  0  0
 22 21  2  0  0  0  0
 23 22  1  0  0  0  0
 24 23  2  0  0  0  0
 24 25  1  0  0  0  0
 25 26  2  0  0  0  0
 26 21  1  0  0  0  0
 27 22  1  0  0  0  0
 28 23  1  0  0  0  0
 29 25  1  0  0  0  0
 31 37  1  1  0  0  0
 31 36  1  0  0  0  0
 32 30  1  6  0  0  0
 32 31  1  0  0  0  0
 32 33  1  0  0  0  0
 33 34  1  0  0  0  0
 34 35  1  0  0  0  0
 35 39  1  1  0  0  0
 36 41  1  1  0  0  0
 36 35  1  0  0  0  0
 38 37  1  0  0  0  0
 40 39  1  0  0  0  0
 42 41  1  0  0  0  0
M  END
>  <minimizedAffinity>
-5.26706076

$$$$

 OpenBabel03272504243D

 42 44  0  0  1  0  0  0  0  0999 V2000
   38.0970   22.6290   35.7280 C   0  0  2  0  0  0  0  0  0  0  0  0
   38.0670   24.0630   36.2050 C   0  0  1  0  0  0  0  0  0  0  0  0
   38.5930   23.8250   37.6240 C   0  0  0  0  0  0  0  0  0  0  0  0
   39.7270   23.0770   37.3630 O   0  0  0  0  0  0  0  0  0  0  0  0
   39.4080   22.1770   36.3660 C   0  0  0  0  0  0  0  0  0  0  0  0
   37.2670   22.0370   36.1440 H   0  0  0  0  0  0  0  0  0  0  0  0
   37.0630   24.5080   36.2050 H   0  0  0  0  0  0  0  0  0  0  0  0
   38.8770   24.7670   38.1140 H   0  0  0  0  0  0  0  0  0  0  0  0
   37.8580   23.2200   38.1880 H   0  0  0  0  0  0  0  0  0  0  0  0
   39.3340   21.1560   36.7880 H   0  0  0  0  0  0  0  0  0  0  0  0
   40.2420   22.1570   35.6370 H   0  0  0  0  0  0  0  0  0  0  0  0
   39.0020   24.7550   35.4720 O   0  0  0  0  0  0  0  0  0  0  0  0
   38.5510   27.1360   36.4190 O   0  0  0  0  0  0  0  0  0  0  0  0
   38.5480   26.3440   35.1480 P   0  0  1  0  0  0  0  0  0  0  0  0
   39.7010   27.0530   34.0820 O   0  0  0  0  0  0  0  0  0  0  0  0
   39.9330   26.3270   33.4350 H   0  0  0  0  0  0  0  0  0  0  0  0
   37.0260   26.3770   34.4080 O   0  0  0  0  0  0  0  0  0  0  0  0
   37.2110   26.0870   33.0720 C   0  0  0  0  0  0  0  0  0  0  0  0
   36.5240   25.2320   32.8090 H   0  0  0  0  0  0  0  0  0  0  0  0
   38.2380   25.7390   32.8560 H   0  0  0  0  0  0  0  0  0  0  0  0
   36.8510   27.2020   32.1670 C   0  0  0  0  0  0  0  0  0  0  0  0
   36.1170   28.2290   32.7150 C   0  0  0  0  0  0  0  0  0  0  0  0
   35.7450   29.3120   31.9160 C   0  0  0  0  0  0  0  0  0  0  0  0
   36.1420   29.2810   30.6110 N   0  0  0  0  0  0  0  0  0  0  0  0
   36.8600   28.2640   30.0980 C   0  0  0  0  0  0  0  0  0  0  0  0
   37.2170   27.2210   30.8740 N   0  0  0  0  0  0  0  0  0  0  0  0
   35.7610   28.3410   33.7230 H   0  0  0  0  0  0  0  0  0  0  0  0
   35.1740   30.1590   32.2510 H   0  0  0  0  0  0  0  0  0  0  0  0
   37.1290   28.3300   29.0440 H   0  0  0  0  0  0  0  0  0  0  0  0
   38.1420   22.6290   34.3440 O   0  0  0  0  0  0  0  0  0  0  0  0
   37.2080   21.8660   32.3330 C   0  0  1  0  0  3  0  0  0  0  0  0
   37.5190   21.5280   33.7780 C   0  0  2  0  0  3  0  0  0  0  0  0
   36.2900   21.3500   34.3820 O   0  0  0  0  0  0  0  0  0  0  0  0
   35.5780   20.2720   33.9330 C   0  0  0  0  0  2  0  0  0  0  0  0
   35.9200   19.7370   32.6020 C   0  0  2  0  0  3  0  0  0  0  0  0
   36.7910   20.5450   31.7210 C   0  0  1  0  0  3  0  0  0  0  0  0
   36.0940   22.7110   32.2290 O   0  0  0  0  0  0  0  0  0  0  0  0
   35.8600   23.1180   33.0990 H   0  0  0  0  0  0  0  0  0  0  0  0
   34.7150   19.5090   31.8920 O   0  0  0  0  0  0  0  0  0  0  0  0
   33.9350   19.9080   32.3570 H   0  0  0  0  0  0  0  0  0  0  0  0
   36.2390   20.7630   30.4480 O   0  0  0  0  0  0  0  0  0  0  0  0
   36.3220   21.7170   30.1680 H   0  0  0  0  0  0  0  0  0  0  0  0
  1  6  1  1  0  0  0
  1  2  1  0  0  0  0
  1  5  1  0  0  0  0
  2  7  1  6  0  0  0
  2  3  1  0  0  0  0
  3  8  1  0  0  0  0
  3  9  1  0  0  0  0
  4  3  1  0  0  0  0
  5 10  1  0  0  0  0
  5  4  1  0  0  0  0
 11  5  1  0  0  0  0
 12  2  1  0  0  0  0
 14 12  1  0  0  0  0
 14 13  2  1  0  0  0
 15 14  1  0  0  0  0
 16 15  1  0  0  0  0
 17 14  1  0  0  0  0
 18 17  1  0  0  0  0
 19 18  1  0  0  0  0
 20 18  1  0  0  0  0
 21 22  1  0  0  0  0
 21 18  1  0  0  0  0
 22 27  1  0  0  0  0
 23 28  1  0  0  0  0
 23 22  2  0  0  0  0
 24 23  1  0  0  0  0
 25 24  2  0  0  0  0
 25 26  1  0  0  0  0
 26 21  2  0  0  0  0
 29 25  1  0  0  0  0
 30  1  1  0  0  0  0
 31 37  1  1  0  0  0
 31 32  1  0  0  0  0
 32 30  1  1  0  0  0
 32 33  1  0  0  0  0
 34 33  1  0  0  0  0
 35 39  1  6  0  0  0
 35 34  1  0  0  0  0
 36 41  1  6  0  0  0
 36 31  1  0  0  0  0
 36 35  1  0  0  0  0
 37 38  1  0  0  0  0
 39 40  1  0  0  0  0
 42 41  1  0  0  0  0
M  END
>  <minimizedAffinity>
-5.2400856

$$$$
