
 OpenBabel03262522303D

 49 52  0  0  1  0  0  0  0  0999 V2000
   35.4780   25.2490   31.2360 C   0  0  0  0  0  0  0  0  0  0  0  0
   34.9760   25.7010   32.1260 H   0  0  0  0  0  0  0  0  0  0  0  0
   34.6890   25.1250   30.4670 H   0  0  0  0  0  0  0  0  0  0  0  0
   37.5040   25.2880   33.0920 F   0  0  0  0  0  0  0  0  0  0  0  0
   37.1670   24.0950   32.5250 C   0  0  0  0  0  0  0  0  0  0  0  0
   36.1550   23.9610   31.5710 C   0  0  0  0  0  0  0  0  0  0  0  0
   35.8450   22.7410   31.0200 C   0  0  0  0  0  0  0  0  0  0  0  0
   36.5580   21.5960   31.4250 C   0  0  0  0  0  0  0  0  0  0  0  0
   37.5540   21.7250   32.3640 C   0  0  0  0  0  0  0  0  0  0  0  0
   37.8530   22.9510   32.9060 C   0  0  0  0  0  0  0  0  0  0  0  0
   35.0460   22.8100   30.3050 H   0  0  0  0  0  0  0  0  0  0  0  0
   36.2240   20.7210   30.9290 H   0  0  0  0  0  0  0  0  0  0  0  0
   37.9810   20.7610   32.5460 H   0  0  0  0  0  0  0  0  0  0  0  0
   38.8540   23.0140   33.8420 O   0  0  0  0  0  0  0  0  0  0  0  0
   40.1020   23.4590   35.8660 C   0  0  1  0  0  3  0  0  0  0  0  0
   38.7480   23.4410   35.1540 C   0  0  2  0  0  3  0  0  0  0  0  0
   37.9720   22.5230   35.8760 O   0  0  0  0  0  0  0  0  0  0  0  0
   37.5100   23.0720   37.0650 C   0  0  0  0  0  2  0  0  0  0  0  0
   38.7110   23.3470   37.9450 C   0  0  2  0  0  3  0  0  0  0  0  0
   40.0050   22.9440   37.2710 C   0  0  1  0  0  3  0  0  0  0  0  0
   40.9160   22.6100   35.1070 O   0  0  0  0  0  0  0  0  0  0  0  0
   40.3520   21.8130   34.8530 H   0  0  0  0  0  0  0  0  0  0  0  0
   38.6010   22.5550   39.1020 O   0  0  0  0  0  0  0  0  0  0  0  0
   38.1150   23.0140   39.8180 H   0  0  0  0  0  0  0  0  0  0  0  0
   40.2110   21.5680   37.3130 O   0  0  0  0  0  0  0  0  0  0  0  0
   39.3540   21.1650   37.6490 H   0  0  0  0  0  0  0  0  0  0  0  0
   36.7720   26.4070   30.7320 S   0  0  0  0  0  0  0  0  0  0  0  0
   36.1240   30.3190   31.4640 C   0  0  0  0  0  0  0  0  0  0  0  0
   35.0760   30.2610   32.3820 C   0  0  0  0  0  0  0  0  0  0  0  0
   34.6140   29.0170   32.7350 C   0  0  0  0  0  0  0  0  0  0  0  0
   35.2110   27.9270   32.1660 N   0  0  0  0  0  0  0  0  0  0  0  0
   36.1890   28.0200   31.3100 C   0  0  0  0  0  0  0  0  0  0  0  0
   36.6990   29.2340   30.9130 N   0  0  0  0  0  0  0  0  0  0  0  0
   36.5340   31.2770   31.1440 H   0  0  0  0  0  0  0  0  0  0  0  0
   33.8040   28.9340   33.4440 H   0  0  0  0  0  0  0  0  0  0  0  0
   34.5800   31.4260   32.8670 O   0  0  0  0  0  0  0  0  0  0  0  0
   34.8340   31.7790   34.1830 C   0  0  0  0  0  0  0  0  0  0  0  0
   35.9460   32.3890   34.7030 C   0  0  0  0  0  0  0  0  0  0  0  0
   36.0060   32.6550   36.0240 C   0  0  0  0  0  0  0  0  0  0  0  0
   34.9500   32.3060   36.8160 C   0  0  0  0  0  0  0  0  0  0  0  0
   33.8170   31.6840   36.2810 C   0  0  0  0  0  0  0  0  0  0  0  0
   33.7900   31.4330   34.9530 N   0  0  0  0  0  0  0  0  0  0  0  0
   36.7160   32.6170   33.9760 H   0  0  0  0  0  0  0  0  0  0  0  0
   36.8800   33.1340   36.4270 H   0  0  0  0  0  0  0  0  0  0  0  0
   34.9280   32.4880   37.8830 H   0  0  0  0  0  0  0  0  0  0  0  0
   32.6520   31.3030   37.1780 C   0  0  0  0  0  0  0  0  0  0  0  0
   33.0650   31.1790   38.1960 H   0  0  0  0  0  0  0  0  0  0  0  0
   32.2120   30.3750   36.7700 H   0  0  0  0  0  0  0  0  0  0  0  0
   31.9020   32.1100   37.2190 H   0  0  0  0  0  0  0  0  0  0  0  0
  1  6  1  0  0  0  0
  1  2  1  0  0  0  0
  3  1  1  0  0  0  0
  5 10  1  0  0  0  0
  5  4  1  0  0  0  0
  6  5  2  0  0  0  0
  7  8  2  0  0  0  0
  7  6  1  0  0  0  0
  8  9  1  0  0  0  0
  9 13  1  0  0  0  0
  9 10  2  0  0  0  0
 10 14  1  0  0  0  0
 11  7  1  0  0  0  0
 12  8  1  0  0  0  0
 15 21  1  6  0  0  0
 15 20  1  0  0  0  0
 16 14  1  6  0  0  0
 16 15  1  0  0  0  0
 16 17  1  0  0  0  0
 17 18  1  0  0  0  0
 18 19  1  0  0  0  0
 19 23  1  1  0  0  0
 20 25  1  6  0  0  0
 20 19  1  0  0  0  0
 22 21  1  0  0  0  0
 23 24  1  0  0  0  0
 25 26  1  0  0  0  0
 27  1  1  0  0  0  0
 27 32  1  0  0  0  0
 28 29  1  0  0  0  0
 29 30  2  0  0  0  0
 29 36  1  0  0  0  0
 30 35  1  0  0  0  0
 31 30  1  0  0  0  0
 32 31  2  0  0  0  0
 33 32  1  0  0  0  0
 33 28  2  0  0  0  0
 34 28  1  0  0  0  0
 36 37  1  0  0  0  0
 37 38  2  0  0  0  0
 37 42  1  0  0  0  0
 38 39  1  0  0  0  0
 39 44  1  0  0  0  0
 39 40  2  0  0  0  0
 40 45  1  0  0  0  0
 41 40  1  0  0  0  0
 41 46  1  0  0  0  0
 42 41  2  0  0  0  0
 43 38  1  0  0  0  0
 46 49  1  0  0  0  0
 46 47  1  0  0  0  0
 48 46  1  0  0  0  0
M  END
>  <minimizedAffinity>
-6.96150589

$$$$

 OpenBabel03262522303D

 49 52  0  0  1  0  0  0  0  0999 V2000
   38.0290   27.6240   31.3190 C   0  0  0  0  0  0  0  0  0  0  0  0
   38.7760   27.6340   30.4890 H   0  0  0  0  0  0  0  0  0  0  0  0
   38.5530   28.0230   32.2100 H   0  0  0  0  0  0  0  0  0  0  0  0
   39.2050   26.0410   33.2330 F   0  0  0  0  0  0  0  0  0  0  0  0
   38.1400   25.5430   32.5450 C   0  0  0  0  0  0  0  0  0  0  0  0
   37.4680   26.2600   31.5510 C   0  0  0  0  0  0  0  0  0  0  0  0
   36.3980   25.7230   30.8770 C   0  0  0  0  0  0  0  0  0  0  0  0
   35.9610   24.4210   31.1940 C   0  0  0  0  0  0  0  0  0  0  0  0
   36.6200   23.7140   32.1720 C   0  0  0  0  0  0  0  0  0  0  0  0
   37.6890   24.2630   32.8360 C   0  0  0  0  0  0  0  0  0  0  0  0
   35.9960   26.4010   30.1480 H   0  0  0  0  0  0  0  0  0  0  0  0
   35.1310   24.1240   30.6070 H   0  0  0  0  0  0  0  0  0  0  0  0
   36.1550   22.7560   32.2740 H   0  0  0  0  0  0  0  0  0  0  0  0
   38.3010   23.5090   33.8050 O   0  0  0  0  0  0  0  0  0  0  0  0
   39.8320   23.6580   35.6720 C   0  0  1  0  0  3  0  0  0  0  0  0
   38.3990   23.8000   35.1550 C   0  0  2  0  0  3  0  0  0  0  0  0
   37.6570   22.8600   35.8840 O   0  0  0  0  0  0  0  0  0  0  0  0
   37.3970   23.3070   37.1730 C   0  0  0  0  0  2  0  0  0  0  0  0
   38.7190   23.4110   37.9020 C   0  0  2  0  0  3  0  0  0  0  0  0
   39.8800   23.0030   37.0210 C   0  0  1  0  0  3  0  0  0  0  0  0
   40.4740   22.8460   34.7300 O   0  0  0  0  0  0  0  0  0  0  0  0
   39.8220   22.1170   34.4790 H   0  0  0  0  0  0  0  0  0  0  0  0
   38.7020   22.5090   38.9800 O   0  0  0  0  0  0  0  0  0  0  0  0
   38.3500   22.9180   39.7970 H   0  0  0  0  0  0  0  0  0  0  0  0
   39.9860   21.6200   36.8990 O   0  0  0  0  0  0  0  0  0  0  0  0
   39.1510   21.2380   37.3090 H   0  0  0  0  0  0  0  0  0  0  0  0
   36.6550   28.6720   30.7880 S   0  0  0  0  0  0  0  0  0  0  0  0
   35.2890   28.9920   34.5690 C   0  0  0  0  0  0  0  0  0  0  0  0
   34.1320   29.7470   34.3840 C   0  0  0  0  0  0  0  0  0  0  0  0
   33.8230   30.1260   33.1000 C   0  0  0  0  0  0  0  0  0  0  0  0
   34.6670   29.7380   32.0980 N   0  0  0  0  0  0  0  0  0  0  0  0
   35.7410   29.0310   32.3080 C   0  0  0  0  0  0  0  0  0  0  0  0
   36.1090   28.6190   33.5680 N   0  0  0  0  0  0  0  0  0  0  0  0
   35.5880   28.6620   35.5630 H   0  0  0  0  0  0  0  0  0  0  0  0
   32.9340   30.7110   32.9190 H   0  0  0  0  0  0  0  0  0  0  0  0
   33.3870   30.0600   35.4720 O   0  0  0  0  0  0  0  0  0  0  0  0
   33.5740   31.2830   36.0980 C   0  0  0  0  0  0  0  0  0  0  0  0
   34.7420   31.8390   36.5500 C   0  0  0  0  0  0  0  0  0  0  0  0
   34.7210   33.0530   37.1390 C   0  0  0  0  0  0  0  0  0  0  0  0
   33.5260   33.7010   37.2710 C   0  0  0  0  0  0  0  0  0  0  0  0
   32.3360   33.1290   36.8080 C   0  0  0  0  0  0  0  0  0  0  0  0
   32.3950   31.9110   36.2220 N   0  0  0  0  0  0  0  0  0  0  0  0
   35.6230   31.2300   36.3880 H   0  0  0  0  0  0  0  0  0  0  0  0
   35.6390   33.4850   37.4910 H   0  0  0  0  0  0  0  0  0  0  0  0
   33.4320   34.6760   37.7310 H   0  0  0  0  0  0  0  0  0  0  0  0
   31.0170   33.8650   36.9640 C   0  0  0  0  0  0  0  0  0  0  0  0
   31.1390   34.5530   37.8200 H   0  0  0  0  0  0  0  0  0  0  0  0
   30.2320   33.1030   37.1250 H   0  0  0  0  0  0  0  0  0  0  0  0
   30.7960   34.4760   36.0740 H   0  0  0  0  0  0  0  0  0  0  0  0
  1  6  1  0  0  0  0
  1  3  1  0  0  0  0
  2  1  1  0  0  0  0
  5 10  1  0  0  0  0
  5  4  1  0  0  0  0
  6  5  2  0  0  0  0
  7  8  2  0  0  0  0
  7  6  1  0  0  0  0
  8  9  1  0  0  0  0
  9 13  1  0  0  0  0
  9 10  2  0  0  0  0
 10 14  1  0  0  0  0
 11  7  1  0  0  0  0
 12  8  1  0  0  0  0
 15 21  1  6  0  0  0
 15 20  1  0  0  0  0
 16 14  1  6  0  0  0
 16 15  1  0  0  0  0
 16 17  1  0  0  0  0
 17 18  1  0  0  0  0
 18 19  1  0  0  0  0
 19 23  1  1  0  0  0
 20 25  1  6  0  0  0
 20 19  1  0  0  0  0
 22 21  1  0  0  0  0
 23 24  1  0  0  0  0
 25 26  1  0  0  0  0
 27  1  1  0  0  0  0
 27 32  1  0  0  0  0
 28 34  1  0  0  0  0
 29 28  1  0  0  0  0
 29 36  1  0  0  0  0
 30 29  2  0  0  0  0
 31 32  2  0  0  0  0
 31 30  1  0  0  0  0
 32 33  1  0  0  0  0
 33 28  2  0  0  0  0
 35 30  1  0  0  0  0
 36 37  1  0  0  0  0
 37 42  2  0  0  0  0
 37 38  1  0  0  0  0
 38 39  2  0  0  0  0
 39 40  1  0  0  0  0
 39 44  1  0  0  0  0
 40 45  1  0  0  0  0
 41 46  1  0  0  0  0
 41 40  2  0  0  0  0
 42 41  1  0  0  0  0
 43 38  1  0  0  0  0
 46 48  1  0  0  0  0
 46 47  1  0  0  0  0
 49 46  1  0  0  0  0
M  END
>  <minimizedAffinity>
-6.65788841

$$$$

 OpenBabel03262522303D

 49 52  0  0  1  0  0  0  0  0999 V2000
   36.2590   33.0500   35.3800 C   0  0  0  0  0  0  0  0  0  0  0  0
   36.6260   32.0080   35.2160 H   0  0  0  0  0  0  0  0  0  0  0  0
   37.0440   33.5630   35.9720 H   0  0  0  0  0  0  0  0  0  0  0  0
   35.0710   30.6510   36.0020 F   0  0  0  0  0  0  0  0  0  0  0  0
   34.4170   31.8020   36.3260 C   0  0  0  0  0  0  0  0  0  0  0  0
   34.9280   33.0740   36.0550 C   0  0  0  0  0  0  0  0  0  0  0  0
   34.2390   34.2130   36.3960 C   0  0  0  0  0  0  0  0  0  0  0  0
   32.9890   34.1010   37.0360 C   0  0  0  0  0  0  0  0  0  0  0  0
   32.4840   32.8500   37.3050 C   0  0  0  0  0  0  0  0  0  0  0  0
   33.1840   31.7210   36.9580 C   0  0  0  0  0  0  0  0  0  0  0  0
   34.7670   35.1050   36.1190 H   0  0  0  0  0  0  0  0  0  0  0  0
   32.5600   35.0470   37.2470 H   0  0  0  0  0  0  0  0  0  0  0  0
   31.5350   32.9590   37.7880 H   0  0  0  0  0  0  0  0  0  0  0  0
   32.6300   30.5020   37.2560 O   0  0  0  0  0  0  0  0  0  0  0  0
   30.8810   28.8400   37.4310 C   0  0  1  0  0  3  0  0  0  0  0  0
   31.6370   29.8400   36.5540 C   0  0  2  0  0  3  0  0  0  0  0  0
   32.2260   29.0630   35.5460 O   0  0  0  0  0  0  0  0  0  0  0  0
   31.2960   28.6910   34.5840 C   0  0  0  0  0  2  0  0  0  0  0  0
   30.2870   27.7760   35.2440 C   0  0  2  0  0  3  0  0  0  0  0  0
   30.6020   27.5560   36.7080 C   0  0  1  0  0  3  0  0  0  0  0  0
   31.7340   28.5970   38.5140 O   0  0  0  0  0  0  0  0  0  0  0  0
   32.6680   28.5210   38.1400 H   0  0  0  0  0  0  0  0  0  0  0  0
   30.3650   26.5150   34.6270 O   0  0  0  0  0  0  0  0  0  0  0  0
   29.7590   26.4410   33.8610 H   0  0  0  0  0  0  0  0  0  0  0  0
   31.6390   26.6470   36.8910 O   0  0  0  0  0  0  0  0  0  0  0  0
   32.0310   26.4800   35.9800 H   0  0  0  0  0  0  0  0  0  0  0  0
   36.0300   33.7790   33.7410 S   0  0  0  0  0  0  0  0  0  0  0  0
   36.8880   31.2740   30.6990 C   0  0  0  0  0  0  0  0  0  0  0  0
   36.2460   30.1060   31.1100 C   0  0  0  0  0  0  0  0  0  0  0  0
   35.5770   30.1430   32.3090 C   0  0  0  0  0  0  0  0  0  0  0  0
   35.5860   31.3140   33.0120 N   0  0  0  0  0  0  0  0  0  0  0  0
   36.1970   32.3870   32.5960 C   0  0  0  0  0  0  0  0  0  0  0  0
   36.8860   32.4200   31.4060 N   0  0  0  0  0  0  0  0  0  0  0  0
   37.4350   31.3090   29.7580 H   0  0  0  0  0  0  0  0  0  0  0  0
   35.0680   29.2560   32.6590 H   0  0  0  0  0  0  0  0  0  0  0  0
   36.3200   29.0150   30.3090 O   0  0  0  0  0  0  0  0  0  0  0  0
   36.9180   27.8590   30.7860 C   0  0  0  0  0  0  0  0  0  0  0  0
   38.2150   27.6730   31.1900 C   0  0  0  0  0  0  0  0  0  0  0  0
   38.6120   26.4610   31.6280 C   0  0  0  0  0  0  0  0  0  0  0  0
   37.7040   25.4410   31.6580 C   0  0  0  0  0  0  0  0  0  0  0  0
   36.3810   25.6350   31.2450 C   0  0  0  0  0  0  0  0  0  0  0  0
   36.0180   26.8630   30.8120 N   0  0  0  0  0  0  0  0  0  0  0  0
   38.8390   28.5560   31.1200 H   0  0  0  0  0  0  0  0  0  0  0  0
   39.6290   26.3200   31.9440 H   0  0  0  0  0  0  0  0  0  0  0  0
   37.9500   24.4430   31.9970 H   0  0  0  0  0  0  0  0  0  0  0  0
   35.3860   24.4880   31.2850 C   0  0  0  0  0  0  0  0  0  0  0  0
   35.9770   23.5560   31.2210 H   0  0  0  0  0  0  0  0  0  0  0  0
   34.6930   24.6240   30.4360 H   0  0  0  0  0  0  0  0  0  0  0  0
   34.8390   24.4710   32.2420 H   0  0  0  0  0  0  0  0  0  0  0  0
  1  3  1  0  0  0  0
  1  6  1  0  0  0  0
  2  1  1  0  0  0  0
  4  5  1  0  0  0  0
  5 10  1  0  0  0  0
  6  5  2  0  0  0  0
  6  7  1  0  0  0  0
  7  8  2  0  0  0  0
  8 12  1  0  0  0  0
  8  9  1  0  0  0  0
  9 13  1  0  0  0  0
 10 14  1  0  0  0  0
 10  9  2  0  0  0  0
 11  7  1  0  0  0  0
 15 21  1  1  0  0  0
 16 14  1  1  0  0  0
 16 15  1  0  0  0  0
 17 16  1  0  0  0  0
 18 19  1  0  0  0  0
 18 17  1  0  0  0  0
 19 23  1  6  0  0  0
 19 20  1  0  0  0  0
 20 25  1  6  0  0  0
 20 15  1  0  0  0  0
 22 21  1  0  0  0  0
 24 23  1  0  0  0  0
 26 25  1  0  0  0  0
 27  1  1  0  0  0  0
 28 29  2  0  0  0  0
 28 33  1  0  0  0  0
 29 30  1  0  0  0  0
 30 35  1  0  0  0  0
 30 31  2  0  0  0  0
 32 31  1  0  0  0  0
 32 27  1  0  0  0  0
 33 32  2  0  0  0  0
 34 28  1  0  0  0  0
 36 37  1  0  0  0  0
 36 29  1  0  0  0  0
 37 42  2  0  0  0  0
 37 38  1  0  0  0  0
 38 39  2  0  0  0  0
 39 40  1  0  0  0  0
 39 44  1  0  0  0  0
 40 45  1  0  0  0  0
 41 46  1  0  0  0  0
 41 40  2  0  0  0  0
 42 41  1  0  0  0  0
 43 38  1  0  0  0  0
 46 49  1  0  0  0  0
 47 46  1  0  0  0  0
 48 46  1  0  0  0  0
M  END
>  <minimizedAffinity>
-6.65173149

$$$$

 OpenBabel03262522303D

 49 52  0  0  1  0  0  0  0  0999 V2000
   36.7350   27.8230   30.4340 C   0  0  0  0  0  0  0  0  0  0  0  0
   36.6100   27.7220   29.3280 H   0  0  0  0  0  0  0  0  0  0  0  0
   35.9800   27.1530   30.8910 H   0  0  0  0  0  0  0  0  0  0  0  0
   35.6850   28.2920   32.9300 F   0  0  0  0  0  0  0  0  0  0  0  0
   36.0480   29.3620   32.1680 C   0  0  0  0  0  0  0  0  0  0  0  0
   36.5900   29.2390   30.8850 C   0  0  0  0  0  0  0  0  0  0  0  0
   36.9430   30.3420   30.1470 C   0  0  0  0  0  0  0  0  0  0  0  0
   36.7600   31.6290   30.6900 C   0  0  0  0  0  0  0  0  0  0  0  0
   36.2280   31.7530   31.9520 C   0  0  0  0  0  0  0  0  0  0  0  0
   35.8790   30.6410   32.6790 C   0  0  0  0  0  0  0  0  0  0  0  0
   37.3430   30.0760   29.1860 H   0  0  0  0  0  0  0  0  0  0  0  0
   37.0700   32.3920   30.0240 H   0  0  0  0  0  0  0  0  0  0  0  0
   36.1610   32.7920   32.1960 H   0  0  0  0  0  0  0  0  0  0  0  0
   35.3570   30.8300   33.9330 O   0  0  0  0  0  0  0  0  0  0  0  0
   35.8610   32.3890   35.7130 C   0  0  1  0  0  3  0  0  0  0  0  0
   34.9830   32.0300   34.5120 C   0  0  2  0  0  3  0  0  0  0  0  0
   33.6880   31.9060   35.0360 O   0  0  0  0  0  0  0  0  0  0  0  0
   33.1160   33.1490   35.2760 C   0  0  0  0  0  2  0  0  0  0  0  0
   33.9170   33.8240   36.3680 C   0  0  2  0  0  3  0  0  0  0  0  0
   35.0590   32.9540   36.8470 C   0  0  1  0  0  3  0  0  0  0  0  0
   36.4450   31.1780   36.1040 O   0  0  0  0  0  0  0  0  0  0  0  0
   35.7260   30.4730   36.0410 H   0  0  0  0  0  0  0  0  0  0  0  0
   33.0740   34.0200   37.4770 O   0  0  0  0  0  0  0  0  0  0  0  0
   32.6120   34.8820   37.4410 H   0  0  0  0  0  0  0  0  0  0  0  0
   34.6270   31.9440   37.7020 O   0  0  0  0  0  0  0  0  0  0  0  0
   33.6220   31.9520   37.6610 H   0  0  0  0  0  0  0  0  0  0  0  0
   38.4320   27.3250   30.8080 S   0  0  0  0  0  0  0  0  0  0  0  0
   38.1460   23.6180   32.3720 C   0  0  0  0  0  0  0  0  0  0  0  0
   37.9490   23.9000   33.7230 C   0  0  0  0  0  0  0  0  0  0  0  0
   37.9130   25.2230   34.0930 C   0  0  0  0  0  0  0  0  0  0  0  0
   38.0720   26.1650   33.1170 N   0  0  0  0  0  0  0  0  0  0  0  0
   38.2550   25.8640   31.8620 C   0  0  0  0  0  0  0  0  0  0  0  0
   38.3020   24.5610   31.4240 N   0  0  0  0  0  0  0  0  0  0  0  0
   38.1850   22.5890   32.0160 H   0  0  0  0  0  0  0  0  0  0  0  0
   37.7610   25.4780   35.1320 H   0  0  0  0  0  0  0  0  0  0  0  0
   37.8050   22.8620   34.5830 O   0  0  0  0  0  0  0  0  0  0  0  0
   38.3290   22.9590   35.8620 C   0  0  0  0  0  0  0  0  0  0  0  0
   37.7680   23.5360   36.9720 C   0  0  0  0  0  0  0  0  0  0  0  0
   38.4410   23.5300   38.1420 C   0  0  0  0  0  0  0  0  0  0  0  0
   39.6740   22.9450   38.1900 C   0  0  0  0  0  0  0  0  0  0  0  0
   40.2420   22.3570   37.0550 C   0  0  0  0  0  0  0  0  0  0  0  0
   39.5400   22.3820   35.9000 N   0  0  0  0  0  0  0  0  0  0  0  0
   36.7870   23.9660   36.8090 H   0  0  0  0  0  0  0  0  0  0  0  0
   37.9960   23.9820   39.0090 H   0  0  0  0  0  0  0  0  0  0  0  0
   40.2710   22.9020   39.0920 H   0  0  0  0  0  0  0  0  0  0  0  0
   41.6160   21.7120   37.1280 C   0  0  0  0  0  0  0  0  0  0  0  0
   42.1470   22.1950   37.9680 H   0  0  0  0  0  0  0  0  0  0  0  0
   42.1070   21.8720   36.1510 H   0  0  0  0  0  0  0  0  0  0  0  0
   41.5370   20.6370   37.3580 H   0  0  0  0  0  0  0  0  0  0  0  0
  1 27  1  0  0  0  0
  1  6  1  0  0  0  0
  1  3  1  0  0  0  0
  2  1  1  0  0  0  0
  5 10  1  0  0  0  0
  5  4  1  0  0  0  0
  6  5  2  0  0  0  0
  7  8  2  0  0  0  0
  7  6  1  0  0  0  0
  8  9  1  0  0  0  0
  9 13  1  0  0  0  0
  9 10  2  0  0  0  0
 10 14  1  0  0  0  0
 11  7  1  0  0  0  0
 12  8  1  0  0  0  0
 15 21  1  1  0  0  0
 15 20  1  0  0  0  0
 16 14  1  1  0  0  0
 16 17  1  0  0  0  0
 16 15  1  0  0  0  0
 17 18  1  0  0  0  0
 18 19  1  0  0  0  0
 19 20  1  0  0  0  0
 19 23  1  1  0  0  0
 20 25  1  6  0  0  0
 22 21  1  0  0  0  0
 24 23  1  0  0  0  0
 26 25  1  0  0  0  0
 27 32  1  0  0  0  0
 28 29  1  0  0  0  0
 29 30  2  0  0  0  0
 29 36  1  0  0  0  0
 30 35  1  0  0  0  0
 31 30  1  0  0  0  0
 32 31  2  0  0  0  0
 33 32  1  0  0  0  0
 33 28  2  0  0  0  0
 34 28  1  0  0  0  0
 36 37  1  0  0  0  0
 37 42  2  0  0  0  0
 37 38  1  0  0  0  0
 38 39  2  0  0  0  0
 39 40  1  0  0  0  0
 39 44  1  0  0  0  0
 40 45  1  0  0  0  0
 41 46  1  0  0  0  0
 41 40  2  0  0  0  0
 42 41  1  0  0  0  0
 43 38  1  0  0  0  0
 46 49  1  0  0  0  0
 46 47  1  0  0  0  0
 48 46  1  0  0  0  0
M  END
>  <minimizedAffinity>
-6.61144924

$$$$

 OpenBabel03262522303D

 49 52  0  0  1  0  0  0  0  0999 V2000
   34.7390   33.4360   32.3580 C   0  0  0  0  0  0  0  0  0  0  0  0
   35.7540   33.7170   31.9860 H   0  0  0  0  0  0  0  0  0  0  0  0
   34.1620   34.3800   32.4220 H   0  0  0  0  0  0  0  0  0  0  0  0
   32.3770   32.8440   33.6320 F   0  0  0  0  0  0  0  0  0  0  0  0
   33.5450   32.4640   34.2220 C   0  0  0  0  0  0  0  0  0  0  0  0
   34.8010   32.7160   33.6640 C   0  0  0  0  0  0  0  0  0  0  0  0
   35.9580   32.3180   34.2900 C   0  0  0  0  0  0  0  0  0  0  0  0
   35.8810   31.6400   35.5220 C   0  0  0  0  0  0  0  0  0  0  0  0
   34.6470   31.3900   36.0740 C   0  0  0  0  0  0  0  0  0  0  0  0
   33.4990   31.7940   35.4360 C   0  0  0  0  0  0  0  0  0  0  0  0
   36.8340   32.5870   33.7310 H   0  0  0  0  0  0  0  0  0  0  0  0
   36.8390   31.3880   35.9000 H   0  0  0  0  0  0  0  0  0  0  0  0
   34.7830   30.8720   37.0000 H   0  0  0  0  0  0  0  0  0  0  0  0
   32.2970   31.5120   36.0350 O   0  0  0  0  0  0  0  0  0  0  0  0
   30.8650   29.7380   36.8410 C   0  0  1  0  0  3  0  0  0  0  0  0
   31.3760   30.5530   35.6520 C   0  0  2  0  0  3  0  0  0  0  0  0
   32.0040   29.6180   34.8160 O   0  0  0  0  0  0  0  0  0  0  0  0
   31.0760   28.8730   34.1010 C   0  0  0  0  0  2  0  0  0  0  0  0
   30.2860   28.0440   35.0900 C   0  0  2  0  0  3  0  0  0  0  0  0
   30.7460   28.2790   36.5140 C   0  0  1  0  0  3  0  0  0  0  0  0
   31.8280   29.9200   37.8410 O   0  0  0  0  0  0  0  0  0  0  0  0
   32.7300   29.8740   37.3900 H   0  0  0  0  0  0  0  0  0  0  0  0
   30.5220   26.6840   34.8160 O   0  0  0  0  0  0  0  0  0  0  0  0
   29.8780   26.3210   34.1730 H   0  0  0  0  0  0  0  0  0  0  0  0
   31.9290   27.6060   36.8000 O   0  0  0  0  0  0  0  0  0  0  0  0
   32.2710   27.2520   35.9240 H   0  0  0  0  0  0  0  0  0  0  0  0
   34.0510   32.2780   31.1520 S   0  0  0  0  0  0  0  0  0  0  0  0
   34.9680   28.5750   32.4630 C   0  0  0  0  0  0  0  0  0  0  0  0
   36.2700   28.4260   31.9880 C   0  0  0  0  0  0  0  0  0  0  0  0
   36.8090   29.4740   31.2830 C   0  0  0  0  0  0  0  0  0  0  0  0
   36.0360   30.5860   31.0970 N   0  0  0  0  0  0  0  0  0  0  0  0
   34.8210   30.6900   31.5560 C   0  0  0  0  0  0  0  0  0  0  0  0
   34.2210   29.6790   32.2690 N   0  0  0  0  0  0  0  0  0  0  0  0
   34.4840   27.7800   33.0290 H   0  0  0  0  0  0  0  0  0  0  0  0
   37.8160   29.3940   30.9000 H   0  0  0  0  0  0  0  0  0  0  0  0
   36.9200   27.2660   32.2480 O   0  0  0  0  0  0  0  0  0  0  0  0
   37.6930   27.1590   33.3940 C   0  0  0  0  0  0  0  0  0  0  0  0
   37.2780   27.0550   34.6960 C   0  0  0  0  0  0  0  0  0  0  0  0
   38.1910   26.9590   35.6840 C   0  0  0  0  0  0  0  0  0  0  0  0
   39.5180   26.9690   35.3590 C   0  0  0  0  0  0  0  0  0  0  0  0
   39.9370   27.0760   34.0290 C   0  0  0  0  0  0  0  0  0  0  0  0
   38.9940   27.1690   33.0640 N   0  0  0  0  0  0  0  0  0  0  0  0
   36.2020   27.0580   34.8270 H   0  0  0  0  0  0  0  0  0  0  0  0
   37.8610   26.8770   36.7030 H   0  0  0  0  0  0  0  0  0  0  0  0
   40.3060   26.8960   36.0970 H   0  0  0  0  0  0  0  0  0  0  0  0
   41.4170   27.0850   33.6870 C   0  0  0  0  0  0  0  0  0  0  0  0
   41.9460   27.4500   34.5860 H   0  0  0  0  0  0  0  0  0  0  0  0
   41.5470   27.7420   32.8070 H   0  0  0  0  0  0  0  0  0  0  0  0
   41.7820   26.0670   33.4760 H   0  0  0  0  0  0  0  0  0  0  0  0
  1  3  1  0  0  0  0
  1  6  1  0  0  0  0
  2  1  1  0  0  0  0
  4  5  1  0  0  0  0
  5 10  1  0  0  0  0
  6  5  2  0  0  0  0
  6  7  1  0  0  0  0
  7  8  2  0  0  0  0
  8 12  1  0  0  0  0
  8  9  1  0  0  0  0
  9 13  1  0  0  0  0
 10 14  1  0  0  0  0
 10  9  2  0  0  0  0
 11  7  1  0  0  0  0
 15 21  1  1  0  0  0
 16 14  1  1  0  0  0
 16 15  1  0  0  0  0
 17 16  1  0  0  0  0
 18 17  1  0  0  0  0
 18 19  1  0  0  0  0
 19 23  1  6  0  0  0
 19 20  1  0  0  0  0
 20 25  1  6  0  0  0
 20 15  1  0  0  0  0
 22 21  1  0  0  0  0
 24 23  1  0  0  0  0
 26 25  1  0  0  0  0
 27 32  1  0  0  0  0
 27  1  1  0  0  0  0
 28 34  1  0  0  0  0
 29 36  1  0  0  0  0
 29 28  2  0  0  0  0
 30 29  1  0  0  0  0
 31 30  2  0  0  0  0
 31 32  1  0  0  0  0
 32 33  2  0  0  0  0
 33 28  1  0  0  0  0
 35 30  1  0  0  0  0
 36 37  1  0  0  0  0
 37 38  1  0  0  0  0
 38 43  1  0  0  0  0
 38 39  2  0  0  0  0
 39 44  1  0  0  0  0
 40 39  1  0  0  0  0
 40 45  1  0  0  0  0
 41 40  2  0  0  0  0
 42 37  2  0  0  0  0
 42 41  1  0  0  0  0
 46 41  1  0  0  0  0
 46 47  1  0  0  0  0
 48 46  1  0  0  0  0
 49 46  1  0  0  0  0
M  END
>  <minimizedAffinity>
-6.55377197

$$$$

 OpenBabel03262522303D

 49 52  0  0  1  0  0  0  0  0999 V2000
   36.8980   27.1340   30.7720 C   0  0  0  0  0  0  0  0  0  0  0  0
   35.9750   27.0240   31.3910 H   0  0  0  0  0  0  0  0  0  0  0  0
   36.7560   26.4800   29.8880 H   0  0  0  0  0  0  0  0  0  0  0  0
   36.7820   25.0510   32.5600 F   0  0  0  0  0  0  0  0  0  0  0  0
   37.9610   25.7190   32.4190 C   0  0  0  0  0  0  0  0  0  0  0  0
   38.1310   26.7930   31.5410 C   0  0  0  0  0  0  0  0  0  0  0  0
   39.3360   27.4430   31.4270 C   0  0  0  0  0  0  0  0  0  0  0  0
   40.4290   27.0210   32.2090 C   0  0  0  0  0  0  0  0  0  0  0  0
   40.2650   25.9640   33.0730 C   0  0  0  0  0  0  0  0  0  0  0  0
   39.0540   25.3240   33.1770 C   0  0  0  0  0  0  0  0  0  0  0  0
   39.2990   28.2430   30.7110 H   0  0  0  0  0  0  0  0  0  0  0  0
   41.2980   27.6000   32.0290 H   0  0  0  0  0  0  0  0  0  0  0  0
   41.1910   25.7860   33.5790 H   0  0  0  0  0  0  0  0  0  0  0  0
   38.9540   24.2730   34.0540 O   0  0  0  0  0  0  0  0  0  0  0  0
   40.2420   23.6750   36.0120 C   0  0  1  0  0  3  0  0  0  0  0  0
   38.9860   24.3320   35.4370 C   0  0  2  0  0  3  0  0  0  0  0  0
   37.9180   23.5850   35.9540 O   0  0  0  0  0  0  0  0  0  0  0  0
   37.6650   23.9130   37.2800 C   0  0  0  0  0  2  0  0  0  0  0  0
   38.8680   23.4930   38.0980 C   0  0  2  0  0  3  0  0  0  0  0  0
   39.9410   22.8610   37.2360 C   0  0  1  0  0  3  0  0  0  0  0  0
   40.7080   22.8380   34.9920 O   0  0  0  0  0  0  0  0  0  0  0  0
   39.8980   22.3940   34.5850 H   0  0  0  0  0  0  0  0  0  0  0  0
   38.4590   22.5050   39.0110 O   0  0  0  0  0  0  0  0  0  0  0  0
   38.1590   22.8890   39.8600 H   0  0  0  0  0  0  0  0  0  0  0  0
   39.6350   21.5470   36.8970 O   0  0  0  0  0  0  0  0  0  0  0  0
   38.6840   21.3960   37.1860 H   0  0  0  0  0  0  0  0  0  0  0  0
   37.0190   28.8840   30.3340 S   0  0  0  0  0  0  0  0  0  0  0  0
   34.1080   31.3230   31.6920 C   0  0  0  0  0  0  0  0  0  0  0  0
   33.5210   30.5340   32.6800 C   0  0  0  0  0  0  0  0  0  0  0  0
   34.0490   29.2820   32.8840 C   0  0  0  0  0  0  0  0  0  0  0  0
   35.1070   28.8990   32.1090 N   0  0  0  0  0  0  0  0  0  0  0  0
   35.6310   29.6650   31.1940 C   0  0  0  0  0  0  0  0  0  0  0  0
   35.1510   30.9280   30.9380 N   0  0  0  0  0  0  0  0  0  0  0  0
   33.7350   32.3250   31.4830 H   0  0  0  0  0  0  0  0  0  0  0  0
   33.6190   28.6430   33.6420 H   0  0  0  0  0  0  0  0  0  0  0  0
   32.4750   31.0440   33.3740 O   0  0  0  0  0  0  0  0  0  0  0  0
   32.4910   31.0030   34.7600 C   0  0  0  0  0  0  0  0  0  0  0  0
   31.7300   30.2310   35.5990 C   0  0  0  0  0  0  0  0  0  0  0  0
   31.8930   30.3350   36.9340 C   0  0  0  0  0  0  0  0  0  0  0  0
   32.8200   31.2140   37.4190 C   0  0  0  0  0  0  0  0  0  0  0  0
   33.5930   31.9990   36.5590 C   0  0  0  0  0  0  0  0  0  0  0  0
   33.4040   31.8690   35.2260 N   0  0  0  0  0  0  0  0  0  0  0  0
   31.0320   29.5730   35.0960 H   0  0  0  0  0  0  0  0  0  0  0  0
   31.2960   29.7270   37.5880 H   0  0  0  0  0  0  0  0  0  0  0  0
   33.0050   31.3500   38.4770 H   0  0  0  0  0  0  0  0  0  0  0  0
   34.6180   32.9720   37.1170 C   0  0  0  0  0  0  0  0  0  0  0  0
   34.2850   33.2290   38.1390 H   0  0  0  0  0  0  0  0  0  0  0  0
   34.6500   33.8430   36.4370 H   0  0  0  0  0  0  0  0  0  0  0  0
   35.6100   32.4990   37.1990 H   0  0  0  0  0  0  0  0  0  0  0  0
  1  2  1  0  0  0  0
  1  6  1  0  0  0  0
  3  1  1  0  0  0  0
  5  4  1  0  0  0  0
  5 10  1  0  0  0  0
  6  5  2  0  0  0  0
  7  6  1  0  0  0  0
  7  8  2  0  0  0  0
  8  9  1  0  0  0  0
  9 10  2  0  0  0  0
  9 13  1  0  0  0  0
 10 14  1  0  0  0  0
 11  7  1  0  0  0  0
 12  8  1  0  0  0  0
 15 21  1  6  0  0  0
 15 20  1  0  0  0  0
 16 14  1  6  0  0  0
 16 17  1  0  0  0  0
 16 15  1  0  0  0  0
 17 18  1  0  0  0  0
 18 19  1  0  0  0  0
 19 23  1  1  0  0  0
 20 25  1  6  0  0  0
 20 19  1  0  0  0  0
 22 21  1  0  0  0  0
 23 24  1  0  0  0  0
 25 26  1  0  0  0  0
 27  1  1  0  0  0  0
 27 32  1  0  0  0  0
 28 29  1  0  0  0  0
 29 30  2  0  0  0  0
 29 36  1  0  0  0  0
 30 35  1  0  0  0  0
 31 30  1  0  0  0  0
 32 31  2  0  0  0  0
 33 32  1  0  0  0  0
 33 28  2  0  0  0  0
 34 28  1  0  0  0  0
 36 37  1  0  0  0  0
 37 42  2  0  0  0  0
 37 38  1  0  0  0  0
 38 39  2  0  0  0  0
 39 40  1  0  0  0  0
 39 44  1  0  0  0  0
 40 45  1  0  0  0  0
 41 46  1  0  0  0  0
 41 40  2  0  0  0  0
 42 41  1  0  0  0  0
 43 38  1  0  0  0  0
 46 49  1  0  0  0  0
 46 47  1  0  0  0  0
 48 46  1  0  0  0  0
M  END
>  <minimizedAffinity>
-6.53485823

$$$$

 OpenBabel03262522303D

 49 52  0  0  1  0  0  0  0  0999 V2000
   38.4460   26.9460   29.9460 C   0  0  0  0  0  0  0  0  0  0  0  0
   37.3910   26.5780   29.9710 H   0  0  0  0  0  0  0  0  0  0  0  0
   38.9690   26.3280   29.1900 H   0  0  0  0  0  0  0  0  0  0  0  0
   37.1750   25.5340   31.9320 F   0  0  0  0  0  0  0  0  0  0  0  0
   38.3650   26.1320   32.2220 C   0  0  0  0  0  0  0  0  0  0  0  0
   39.0940   26.8740   31.2890 C   0  0  0  0  0  0  0  0  0  0  0  0
   40.2910   27.4630   31.6180 C   0  0  0  0  0  0  0  0  0  0  0  0
   40.8000   27.3170   32.9240 C   0  0  0  0  0  0  0  0  0  0  0  0
   40.0850   26.5860   33.8430 C   0  0  0  0  0  0  0  0  0  0  0  0
   38.8900   26.0030   33.5000 C   0  0  0  0  0  0  0  0  0  0  0  0
   40.7220   27.9950   30.7910 H   0  0  0  0  0  0  0  0  0  0  0  0
   41.7260   27.8160   33.0500 H   0  0  0  0  0  0  0  0  0  0  0  0
   40.6190   26.5840   34.7700 H   0  0  0  0  0  0  0  0  0  0  0  0
   38.2250   25.2840   34.4600 O   0  0  0  0  0  0  0  0  0  0  0  0
   39.3670   23.4570   35.5610 C   0  0  1  0  0  3  0  0  0  0  0  0
   38.7270   24.8430   35.6730 C   0  0  2  0  0  3  0  0  0  0  0  0
   37.6690   24.6810   36.5780 O   0  0  0  0  0  0  0  0  0  0  0  0
   38.1270   24.6200   37.8880 C   0  0  0  0  0  2  0  0  0  0  0  0
   38.9590   23.3640   38.0300 C   0  0  2  0  0  3  0  0  0  0  0  0
   39.0270   22.5850   36.7340 C   0  0  1  0  0  3  0  0  0  0  0  0
   38.8290   22.9070   34.3920 O   0  0  0  0  0  0  0  0  0  0  0  0
   37.8490   23.1490   34.3790 H   0  0  0  0  0  0  0  0  0  0  0  0
   38.3320   22.5220   38.9670 O   0  0  0  0  0  0  0  0  0  0  0  0
   38.6410   22.6930   39.8800 H   0  0  0  0  0  0  0  0  0  0  0  0
   37.8630   21.8620   36.4940 O   0  0  0  0  0  0  0  0  0  0  0  0
   37.1950   22.1690   37.1800 H   0  0  0  0  0  0  0  0  0  0  0  0
   38.3710   28.6940   29.4920 S   0  0  0  0  0  0  0  0  0  0  0  0
   35.2360   29.3620   31.9390 C   0  0  0  0  0  0  0  0  0  0  0  0
   35.2800   30.7480   32.0760 C   0  0  0  0  0  0  0  0  0  0  0  0
   36.2760   31.4180   31.4080 C   0  0  0  0  0  0  0  0  0  0  0  0
   37.1500   30.6820   30.6580 N   0  0  0  0  0  0  0  0  0  0  0  0
   37.0780   29.3850   30.5530 C   0  0  0  0  0  0  0  0  0  0  0  0
   36.1070   28.6530   31.1950 N   0  0  0  0  0  0  0  0  0  0  0  0
   34.4700   28.7740   32.4440 H   0  0  0  0  0  0  0  0  0  0  0  0
   36.3400   32.4930   31.4910 H   0  0  0  0  0  0  0  0  0  0  0  0
   34.3450   31.3480   32.8540 O   0  0  0  0  0  0  0  0  0  0  0  0
   34.6180   31.5760   34.1930 C   0  0  0  0  0  0  0  0  0  0  0  0
   35.7880   32.0020   34.7650 C   0  0  0  0  0  0  0  0  0  0  0  0
   35.8580   32.1670   36.1020 C   0  0  0  0  0  0  0  0  0  0  0  0
   34.7510   31.9040   36.8580 C   0  0  0  0  0  0  0  0  0  0  0  0
   33.5590   31.4700   36.2700 C   0  0  0  0  0  0  0  0  0  0  0  0
   33.5250   31.3150   34.9270 N   0  0  0  0  0  0  0  0  0  0  0  0
   36.5940   32.1780   34.0630 H   0  0  0  0  0  0  0  0  0  0  0  0
   36.7780   32.5020   36.5460 H   0  0  0  0  0  0  0  0  0  0  0  0
   34.7330   32.0140   37.9350 H   0  0  0  0  0  0  0  0  0  0  0  0
   32.3380   31.1820   37.1280 C   0  0  0  0  0  0  0  0  0  0  0  0
   32.7130   30.9370   38.1380 H   0  0  0  0  0  0  0  0  0  0  0  0
   31.7910   30.3470   36.6510 H   0  0  0  0  0  0  0  0  0  0  0  0
   31.6970   32.0730   37.2170 H   0  0  0  0  0  0  0  0  0  0  0  0
  1  2  1  0  0  0  0
  1  6  1  0  0  0  0
  3  1  1  0  0  0  0
  4  5  1  0  0  0  0
  5 10  1  0  0  0  0
  6  7  1  0  0  0  0
  6  5  2  0  0  0  0
  7  8  2  0  0  0  0
  8 12  1  0  0  0  0
  8  9  1  0  0  0  0
  9 13  1  0  0  0  0
 10  9  2  0  0  0  0
 10 14  1  0  0  0  0
 11  7  1  0  0  0  0
 15 21  1  6  0  0  0
 15 16  1  0  0  0  0
 15 20  1  0  0  0  0
 16 14  1  6  0  0  0
 16 17  1  0  0  0  0
 17 18  1  0  0  0  0
 18 19  1  0  0  0  0
 19 23  1  1  0  0  0
 20 25  1  6  0  0  0
 20 19  1  0  0  0  0
 22 21  1  0  0  0  0
 23 24  1  0  0  0  0
 25 26  1  0  0  0  0
 27  1  1  0  0  0  0
 27 32  1  0  0  0  0
 28 29  1  0  0  0  0
 28 34  1  0  0  0  0
 29 36  1  0  0  0  0
 30 35  1  0  0  0  0
 30 29  2  0  0  0  0
 31 30  1  0  0  0  0
 32 31  2  0  0  0  0
 32 33  1  0  0  0  0
 33 28  2  0  0  0  0
 36 37  1  0  0  0  0
 37 38  2  0  0  0  0
 37 42  1  0  0  0  0
 38 39  1  0  0  0  0
 39 44  1  0  0  0  0
 39 40  2  0  0  0  0
 40 45  1  0  0  0  0
 41 40  1  0  0  0  0
 41 46  1  0  0  0  0
 42 41  2  0  0  0  0
 43 38  1  0  0  0  0
 46 49  1  0  0  0  0
 46 47  1  0  0  0  0
 48 46  1  0  0  0  0
M  END
>  <minimizedAffinity>
-6.5092473

$$$$

 OpenBabel03262522303D

 49 52  0  0  1  0  0  0  0  0999 V2000
   36.5550   28.6400   30.5350 C   0  0  0  0  0  0  0  0  0  0  0  0
   36.5090   28.8560   29.4400 H   0  0  0  0  0  0  0  0  0  0  0  0
   35.8060   27.8460   30.7240 H   0  0  0  0  0  0  0  0  0  0  0  0
   35.2220   28.3600   32.9220 F   0  0  0  0  0  0  0  0  0  0  0  0
   35.6290   29.6060   32.5480 C   0  0  0  0  0  0  0  0  0  0  0  0
   36.3120   29.8630   31.3560 C   0  0  0  0  0  0  0  0  0  0  0  0
   36.7050   31.1330   31.0130 C   0  0  0  0  0  0  0  0  0  0  0  0
   36.4180   32.2060   31.8800 C   0  0  0  0  0  0  0  0  0  0  0  0
   35.7460   31.9570   33.0540 C   0  0  0  0  0  0  0  0  0  0  0  0
   35.3590   30.6810   33.3840 C   0  0  0  0  0  0  0  0  0  0  0  0
   37.2170   31.1590   30.0700 H   0  0  0  0  0  0  0  0  0  0  0  0
   36.7720   33.1310   31.5040 H   0  0  0  0  0  0  0  0  0  0  0  0
   35.6170   32.8800   33.5790 H   0  0  0  0  0  0  0  0  0  0  0  0
   34.6960   30.4950   34.5700 O   0  0  0  0  0  0  0  0  0  0  0  0
   33.0040   31.6500   35.8560 C   0  0  1  0  0  3  0  0  0  0  0  0
   33.3340   30.6000   34.7930 C   0  0  2  0  0  3  0  0  0  0  0  0
   32.8590   29.3900   35.3200 O   0  0  0  0  0  0  0  0  0  0  0  0
   31.4790   29.2930   35.2030 C   0  0  0  0  0  2  0  0  0  0  0  0
   30.8640   30.3670   36.0750 C   0  0  2  0  0  3  0  0  0  0  0  0
   31.9200   31.1870   36.7850 C   0  0  1  0  0  3  0  0  0  0  0  0
   34.1950   31.8240   36.5700 O   0  0  0  0  0  0  0  0  0  0  0  0
   34.5960   30.9070   36.6980 H   0  0  0  0  0  0  0  0  0  0  0  0
   30.1050   29.7400   37.0800 O   0  0  0  0  0  0  0  0  0  0  0  0
   29.1770   29.5940   36.8040 H   0  0  0  0  0  0  0  0  0  0  0  0
   32.4560   30.5180   37.8810 O   0  0  0  0  0  0  0  0  0  0  0  0
   32.1100   29.5750   37.8300 H   0  0  0  0  0  0  0  0  0  0  0  0
   38.2460   28.1030   30.8830 S   0  0  0  0  0  0  0  0  0  0  0  0
   37.0020   24.7030   32.6600 C   0  0  0  0  0  0  0  0  0  0  0  0
   38.0880   24.4040   33.4810 C   0  0  0  0  0  0  0  0  0  0  0  0
   39.1590   25.2650   33.4500 C   0  0  0  0  0  0  0  0  0  0  0  0
   39.0850   26.3490   32.6210 N   0  0  0  0  0  0  0  0  0  0  0  0
   38.0520   26.5970   31.8670 C   0  0  0  0  0  0  0  0  0  0  0  0
   36.9470   25.7770   31.8500 N   0  0  0  0  0  0  0  0  0  0  0  0
   36.1230   24.0600   32.6400 H   0  0  0  0  0  0  0  0  0  0  0  0
   40.0180   25.0640   34.0730 H   0  0  0  0  0  0  0  0  0  0  0  0
   38.0240   23.2930   34.2540 O   0  0  0  0  0  0  0  0  0  0  0  0
   38.3230   23.3830   35.6050 C   0  0  0  0  0  0  0  0  0  0  0  0
   37.6660   24.0920   36.5770 C   0  0  0  0  0  0  0  0  0  0  0  0
   38.1130   24.0530   37.8500 C   0  0  0  0  0  0  0  0  0  0  0  0
   39.2180   23.3030   38.1380 C   0  0  0  0  0  0  0  0  0  0  0  0
   39.8840   22.5820   37.1420 C   0  0  0  0  0  0  0  0  0  0  0  0
   39.4080   22.6430   35.8780 N   0  0  0  0  0  0  0  0  0  0  0  0
   36.8050   24.6470   36.2260 H   0  0  0  0  0  0  0  0  0  0  0  0
   37.5950   24.6090   38.6090 H   0  0  0  0  0  0  0  0  0  0  0  0
   39.6330   23.2250   39.1350 H   0  0  0  0  0  0  0  0  0  0  0  0
   41.1120   21.7540   37.4820 C   0  0  0  0  0  0  0  0  0  0  0  0
   41.5520   22.2020   38.3910 H   0  0  0  0  0  0  0  0  0  0  0  0
   41.7860   21.7910   36.6070 H   0  0  0  0  0  0  0  0  0  0  0  0
   40.8350   20.7150   37.7230 H   0  0  0  0  0  0  0  0  0  0  0  0
  1  3  1  0  0  0  0
  1 27  1  0  0  0  0
  1  6  1  0  0  0  0
  2  1  1  0  0  0  0
  5  4  1  0  0  0  0
  5 10  1  0  0  0  0
  6  5  2  0  0  0  0
  7  6  1  0  0  0  0
  7  8  2  0  0  0  0
  8  9  1  0  0  0  0
  9 10  2  0  0  0  0
  9 13  1  0  0  0  0
 10 14  1  0  0  0  0
 11  7  1  0  0  0  0
 12  8  1  0  0  0  0
 15 21  1  1  0  0  0
 15 20  1  0  0  0  0
 16 14  1  1  0  0  0
 16 17  1  0  0  0  0
 16 15  1  0  0  0  0
 18 17  1  0  0  0  0
 18 19  1  0  0  0  0
 19 20  1  0  0  0  0
 19 23  1  1  0  0  0
 20 25  1  1  0  0  0
 21 22  1  0  0  0  0
 24 23  1  0  0  0  0
 26 25  1  0  0  0  0
 27 32  1  0  0  0  0
 28 29  1  0  0  0  0
 29 36  1  0  0  0  0
 30 29  2  0  0  0  0
 30 35  1  0  0  0  0
 31 30  1  0  0  0  0
 32 31  2  0  0  0  0
 33 32  1  0  0  0  0
 33 28  2  0  0  0  0
 34 28  1  0  0  0  0
 36 37  1  0  0  0  0
 37 42  2  0  0  0  0
 37 38  1  0  0  0  0
 38 39  2  0  0  0  0
 39 40  1  0  0  0  0
 39 44  1  0  0  0  0
 40 45  1  0  0  0  0
 41 46  1  0  0  0  0
 41 40  2  0  0  0  0
 42 41  1  0  0  0  0
 43 38  1  0  0  0  0
 46 49  1  0  0  0  0
 46 47  1  0  0  0  0
 48 46  1  0  0  0  0
M  END
>  <minimizedAffinity>
-6.46536875

$$$$

 OpenBabel03262522303D

 49 52  0  0  1  0  0  0  0  0999 V2000
   35.4460   25.8830   31.5150 C   0  0  0  0  0  0  0  0  0  0  0  0
   35.1700   26.3620   32.4860 H   0  0  0  0  0  0  0  0  0  0  0  0
   34.5000   25.7610   30.9520 H   0  0  0  0  0  0  0  0  0  0  0  0
   37.5000   25.7990   33.3400 F   0  0  0  0  0  0  0  0  0  0  0  0
   37.1850   24.6570   32.6640 C   0  0  0  0  0  0  0  0  0  0  0  0
   36.1630   24.5880   31.7150 C   0  0  0  0  0  0  0  0  0  0  0  0
   35.8750   23.4190   31.0530 C   0  0  0  0  0  0  0  0  0  0  0  0
   36.6250   22.2600   31.3360 C   0  0  0  0  0  0  0  0  0  0  0  0
   37.6310   22.3250   32.2700 C   0  0  0  0  0  0  0  0  0  0  0  0
   37.9070   23.5010   32.9240 C   0  0  0  0  0  0  0  0  0  0  0  0
   35.0640   23.5340   30.3590 H   0  0  0  0  0  0  0  0  0  0  0  0
   36.3070   21.4270   30.7620 H   0  0  0  0  0  0  0  0  0  0  0  0
   38.0870   21.3600   32.3530 H   0  0  0  0  0  0  0  0  0  0  0  0
   38.9210   23.5010   33.8480 O   0  0  0  0  0  0  0  0  0  0  0  0
   40.1600   23.6250   35.9220 C   0  0  1  0  0  3  0  0  0  0  0  0
   38.8230   23.7950   35.1980 C   0  0  2  0  0  3  0  0  0  0  0  0
   37.9610   22.8730   35.8080 O   0  0  0  0  0  0  0  0  0  0  0  0
   37.5220   23.3310   37.0440 C   0  0  0  0  0  2  0  0  0  0  0  0
   38.7230   23.4100   37.9620 C   0  0  2  0  0  3  0  0  0  0  0  0
   39.9930   22.9740   37.2630 C   0  0  1  0  0  3  0  0  0  0  0  0
   40.9180   22.7970   35.0860 O   0  0  0  0  0  0  0  0  0  0  0  0
   40.2950   22.0810   34.7420 H   0  0  0  0  0  0  0  0  0  0  0  0
   38.5260   22.5120   39.0260 O   0  0  0  0  0  0  0  0  0  0  0  0
   38.0650   22.9310   39.7820 H   0  0  0  0  0  0  0  0  0  0  0  0
   40.0860   21.5890   37.1600 O   0  0  0  0  0  0  0  0  0  0  0  0
   39.1920   21.2260   37.4410 H   0  0  0  0  0  0  0  0  0  0  0  0
   36.6070   27.0040   30.7000 S   0  0  0  0  0  0  0  0  0  0  0  0
   35.4130   30.1790   32.8800 C   0  0  0  0  0  0  0  0  0  0  0  0
   35.6820   31.2330   32.0090 C   0  0  0  0  0  0  0  0  0  0  0  0
   36.2220   30.9180   30.7850 C   0  0  0  0  0  0  0  0  0  0  0  0
   36.4550   29.6010   30.5080 N   0  0  0  0  0  0  0  0  0  0  0  0
   36.1900   28.6410   31.3490 C   0  0  0  0  0  0  0  0  0  0  0  0
   35.6500   28.8860   32.5900 N   0  0  0  0  0  0  0  0  0  0  0  0
   34.9850   30.3640   33.8650 H   0  0  0  0  0  0  0  0  0  0  0  0
   36.4430   31.7100   30.0840 H   0  0  0  0  0  0  0  0  0  0  0  0
   35.3990   32.4940   32.4170 O   0  0  0  0  0  0  0  0  0  0  0  0
   36.3090   33.1750   33.2100 C   0  0  0  0  0  0  0  0  0  0  0  0
   36.4630   33.1190   34.5710 C   0  0  0  0  0  0  0  0  0  0  0  0
   37.4160   33.8640   35.1680 C   0  0  0  0  0  0  0  0  0  0  0  0
   38.2090   34.6630   34.3930 C   0  0  0  0  0  0  0  0  0  0  0  0
   38.0490   34.7160   33.0050 C   0  0  0  0  0  0  0  0  0  0  0  0
   37.0830   33.9560   32.4410 N   0  0  0  0  0  0  0  0  0  0  0  0
   35.7750   32.4500   35.0750 H   0  0  0  0  0  0  0  0  0  0  0  0
   37.5330   33.8170   36.2340 H   0  0  0  0  0  0  0  0  0  0  0  0
   38.9940   35.2870   34.8020 H   0  0  0  0  0  0  0  0  0  0  0  0
   38.9410   35.6100   32.1610 C   0  0  0  0  0  0  0  0  0  0  0  0
   39.2940   36.4200   32.8250 H   0  0  0  0  0  0  0  0  0  0  0  0
   38.3330   35.9760   31.3130 H   0  0  0  0  0  0  0  0  0  0  0  0
   39.8270   35.0620   31.8030 H   0  0  0  0  0  0  0  0  0  0  0  0
  1  6  1  0  0  0  0
  1  2  1  0  0  0  0
  3  1  1  0  0  0  0
  5 10  1  0  0  0  0
  5  4  1  0  0  0  0
  6  5  2  0  0  0  0
  7  8  2  0  0  0  0
  7  6  1  0  0  0  0
  8  9  1  0  0  0  0
  9 13  1  0  0  0  0
  9 10  2  0  0  0  0
 10 14  1  0  0  0  0
 11  7  1  0  0  0  0
 12  8  1  0  0  0  0
 15 21  1  6  0  0  0
 15 20  1  0  0  0  0
 16 14  1  6  0  0  0
 16 17  1  0  0  0  0
 16 15  1  0  0  0  0
 17 18  1  0  0  0  0
 18 19  1  0  0  0  0
 19 23  1  1  0  0  0
 20 25  1  6  0  0  0
 20 19  1  0  0  0  0
 22 21  1  0  0  0  0
 23 24  1  0  0  0  0
 25 26  1  0  0  0  0
 27 32  1  0  0  0  0
 27  1  1  0  0  0  0
 28 34  1  0  0  0  0
 29 36  1  0  0  0  0
 29 28  2  0  0  0  0
 30 29  1  0  0  0  0
 31 30  2  0  0  0  0
 31 32  1  0  0  0  0
 32 33  2  0  0  0  0
 33 28  1  0  0  0  0
 35 30  1  0  0  0  0
 36 37  1  0  0  0  0
 37 38  1  0  0  0  0
 38 43  1  0  0  0  0
 38 39  2  0  0  0  0
 39 44  1  0  0  0  0
 40 45  1  0  0  0  0
 40 39  1  0  0  0  0
 41 40  2  0  0  0  0
 42 41  1  0  0  0  0
 42 37  2  0  0  0  0
 46 47  1  0  0  0  0
 46 41  1  0  0  0  0
 48 46  1  0  0  0  0
 49 46  1  0  0  0  0
M  END
>  <minimizedAffinity>
-6.38119078

$$$$
