
 OpenBabel03272509433D

 41 43  0  0  1  0  0  0  0  0999 V2000
   37.0100   30.9360   49.0710 C   0  0  0  0  0  0  0  0  0  0  0  0
   36.6840   31.8210   50.1000 C   0  0  0  0  0  0  0  0  0  0  0  0
   37.2620   33.0810   50.1920 C   0  0  0  0  0  0  0  0  0  0  0  0
   38.1940   33.4780   49.2290 C   0  0  0  0  0  0  0  0  0  0  0  0
   38.5010   32.6010   48.2290 C   0  0  0  0  0  0  0  0  0  0  0  0
   37.9060   31.3510   48.1690 C   0  0  0  0  0  0  0  0  0  0  0  0
   35.9520   31.4940   50.8440 H   0  0  0  0  0  0  0  0  0  0  0  0
   36.9380   33.6760   51.0250 H   0  0  0  0  0  0  0  0  0  0  0  0
   38.5860   34.4640   49.3770 H   0  0  0  0  0  0  0  0  0  0  0  0
   39.2400   33.0510   47.5610 H   0  0  0  0  0  0  0  0  0  0  0  0
   36.4370   29.6100   48.9980 C   0  0  2  0  0  0  0  0  0  0  0  0
   36.9540   29.1040   48.0940 H   0  0  0  0  0  0  0  0  0  0  0  0
   33.6420   29.9490   46.7020 C   0  0  0  0  0  0  0  0  0  0  0  0
   32.8710   28.8260   46.9450 C   0  0  0  0  0  0  0  0  0  0  0  0
   33.2720   27.9670   47.9500 C   0  0  0  0  0  0  0  0  0  0  0  0
   34.4130   28.2530   48.6690 N   0  0  0  0  0  0  0  0  0  0  0  0
   35.1060   29.3370   48.3870 C   0  0  0  0  0  0  0  0  0  0  0  0
   34.7290   30.1850   47.4150 N   0  0  0  0  0  0  0  0  0  0  0  0
   33.3000   30.6010   45.9090 H   0  0  0  0  0  0  0  0  0  0  0  0
   31.9650   28.5350   46.4240 H   0  0  0  0  0  0  0  0  0  0  0  0
   32.7630   27.0540   48.2480 H   0  0  0  0  0  0  0  0  0  0  0  0
   36.9020   28.8210   49.9030 O   0  0  0  0  0  0  0  0  0  0  0  0
   36.7630   29.1690   50.8400 H   0  0  0  0  0  0  0  0  0  0  0  0
   38.3420   30.5140   47.0760 C   0  0  0  0  0  3  0  0  0  0  0  0
   38.9800   30.9750   45.9930 C   0  0  0  0  0  3  0  0  0  0  0  0
   39.5080   30.2090   44.8400 C   0  0  0  0  0  0  0  0  0  0  0  0
   40.4700   29.6770   45.0840 H   0  0  0  0  0  0  0  0  0  0  0  0
   38.7870   29.4190   44.5600 H   0  0  0  0  0  0  0  0  0  0  0  0
   39.8040   31.3240   43.4640 S   0  0  0  0  0  0  0  0  0  0  0  0
   39.2990   29.9350   41.2190 C   0  0  1  0  0  3  0  0  0  0  0  0
   40.4570   30.5290   42.0000 C   0  0  2  0  0  3  0  0  0  0  0  0
   41.4130   29.5720   42.3100 O   0  0  0  0  0  0  0  0  0  0  0  0
   41.7200   28.8660   41.1400 C   0  0  0  0  0  2  0  0  0  0  0  0
   40.5990   27.8670   40.9540 C   0  0  1  0  0  3  0  0  0  0  0  0
   39.2530   28.4210   41.3580 C   0  0  2  0  0  3  0  0  0  0  0  0
   38.0790   30.4120   41.7040 O   0  0  0  0  0  0  0  0  0  0  0  0
   38.1560   31.2860   42.1640 H   0  0  0  0  0  0  0  0  0  0  0  0
   40.5100   27.5090   39.6280 O   0  0  0  0  0  0  0  0  0  0  0  0
   41.2580   27.8240   39.0930 H   0  0  0  0  0  0  0  0  0  0  0  0
   38.2300   27.9670   40.5270 O   0  0  0  0  0  0  0  0  0  0  0  0
   38.2830   28.3410   39.6200 H   0  0  0  0  0  0  0  0  0  0  0  0
  1  2  1  0  0  0  0
  2  3  2  0  0  0  0
  2  7  1  0  0  0  0
  3  8  1  0  0  0  0
  4  9  1  0  0  0  0
  4  3  1  0  0  0  0
  5  4  2  0  0  0  0
  6  5  1  0  0  0  0
  6  1  2  0  0  0  0
 10  5  1  0  0  0  0
 11 12  1  6  0  0  0
 11  1  1  0  0  0  0
 11 22  1  0  0  0  0
 13 14  2  0  0  0  0
 13 18  1  0  0  0  0
 14 15  1  0  0  0  0
 15 21  1  0  0  0  0
 15 16  2  0  0  0  0
 17 16  1  0  0  0  0
 17 11  1  0  0  0  0
 18 17  2  0  0  0  0
 19 13  1  0  0  0  0
 20 14  1  0  0  0  0
 22 23  1  0  0  0  0
 24  6  1  0  0  0  0
 25 24  2  0  0  0  0
 26 27  1  0  0  0  0
 26 25  1  0  0  0  0
 28 26  1  0  0  0  0
 29 26  1  0  0  0  0
 30 35  1  0  0  0  0
 30 36  1  1  0  0  0
 30 31  1  0  0  0  0
 31 32  1  0  0  0  0
 31 29  1  1  0  0  0
 33 32  1  0  0  0  0
 34 38  1  6  0  0  0
 34 33  1  0  0  0  0
 34 35  1  0  0  0  0
 35 40  1  6  0  0  0
 36 37  1  0  0  0  0
 39 38  1  0  0  0  0
 41 40  1  0  0  0  0
M  END
>  <minimizedAffinity>
-6.14783525

>  <minimizedRMSD>
0.927115202

$$$$
