
     RDKit          3D

 41 44  0  0  0  0  0  0  0  0999 V2000
   36.8483   30.5549   46.9131 C   0  0  0  0  0  0  0  0  0  0  0  0
   37.5156   31.0385   48.0275 C   0  0  0  0  0  0  0  0  0  0  0  0
   38.5181   31.9977   47.9036 C   0  0  0  0  0  0  0  0  0  0  0  0
   38.8048   32.4340   46.6156 C   0  0  0  0  0  0  0  0  0  0  0  0
   39.7274   33.3531   46.2199 N   0  0  0  0  0  0  0  0  0  0  0  0
   39.6479   33.4495   44.8962 C   0  0  0  0  0  0  0  0  0  0  0  0
   38.7139   32.6303   44.4378 N   0  0  0  0  0  0  0  0  0  0  0  0
   38.1584   31.9734   45.4756 C   0  0  0  0  0  0  0  0  0  0  0  0
   37.1636   31.0169   45.6350 C   0  0  0  0  0  0  0  0  0  0  0  0
   37.3797   30.0861   51.6558 C   0  0  0  0  0  0  0  0  0  0  0  0
   37.8674   30.6509   50.4823 C   0  0  0  0  0  0  0  0  0  0  0  0
   37.1202   30.4992   49.3175 C   0  0  0  0  0  0  0  0  0  0  0  0
   35.9495   29.8027   49.3978 N   0  0  0  0  0  0  0  0  0  0  0  0
   35.5028   29.2647   50.5585 C   0  0  0  0  0  0  0  0  0  0  0  0
   36.2193   29.4108   51.6725 N   0  0  0  0  0  0  0  0  0  0  0  0
   40.4591   34.3093   44.1495 O   0  0  0  0  0  0  0  0  0  0  0  0
   36.0631   29.8111   46.9523 H   0  0  0  0  0  0  0  0  0  0  0  0
   39.0244   32.3626   48.7640 H   0  0  0  0  0  0  0  0  0  0  0  0
   40.3745   33.8765   46.8799 H   0  0  0  0  0  0  0  0  0  0  0  0
   36.6552   30.6537   44.7451 H   0  0  0  0  0  0  0  0  0  0  0  0
   37.9585   30.2010   52.5690 H   0  0  0  0  0  0  0  0  0  0  0  0
   38.7955   31.2005   50.4293 H   0  0  0  0  0  0  0  0  0  0  0  0
   34.5630   28.7396   50.4816 H   0  0  0  0  0  0  0  0  0  0  0  0
   40.6429   32.9441   40.9052 O   0  0  0  0  0  0  0  0  0  0  0  0
   39.9255   33.1327   42.0989 C   0  0  1  0  0  0  0  0  0  0  0  0
   40.3807   34.4159   42.7556 C   0  0  1  0  0  0  0  0  0  0  0  0
   39.5199   35.4567   42.4389 O   0  0  0  0  0  0  0  0  0  0  0  0
   39.0823   35.3838   41.1284 C   0  0  0  0  0  0  0  0  0  0  0  0
   38.0114   34.3426   41.0315 C   0  0  1  0  0  0  0  0  0  0  0  0
   37.8230   33.9958   39.6939 O   0  0  0  0  0  0  0  0  0  0  0  0
   38.4235   33.1383   41.8514 C   0  0  2  0  0  0  0  0  0  0  0  0
   37.8154   33.1501   43.1059 O   0  0  0  0  0  0  0  0  0  0  0  0
   41.4870   33.4389   41.0060 H   0  0  0  0  0  0  0  0  0  0  0  0
   40.1333   32.2595   42.7264 H   0  0  0  0  0  0  0  0  0  0  0  0
   41.4024   34.6877   42.3810 H   0  0  0  0  0  0  0  0  0  0  0  0
   38.6853   36.3964   40.8271 H   0  0  0  0  0  0  0  0  0  0  0  0
   39.9319   35.2002   40.4249 H   0  0  0  0  0  0  0  0  0  0  0  0
   37.0838   34.7469   41.4890 H   0  0  0  0  0  0  0  0  0  0  0  0
   37.9540   33.0367   39.5576 H   0  0  0  0  0  0  0  0  0  0  0  0
   38.1762   32.2429   41.2630 H   0  0  0  0  0  0  0  0  0  0  0  0
   37.6965   32.2274   43.4316 H   0  0  0  0  0  0  0  0  0  0  0  0
  1  2  2  0
  2 12  1  0
  3  2  1  0
  4  3  2  0
  5  4  1  0
  6  5  1  0
  7  6  2  0
  7  8  1  0
  8  9  2  0
  8  4  1  0
  9  1  1  0
 10 15  2  0
 11 10  1  0
 12 13  1  0
 12 11  2  0
 13 14  2  0
 14 15  1  0
 16  6  1  0
  1 17  1  0
  3 18  1  0
  5 19  1  0
  9 20  1  0
 10 21  1  0
 11 22  1  0
 14 23  1  0
 24 25  1  0
 25 26  1  0
 26 27  1  0
 27 28  1  0
 28 29  1  0
 29 30  1  0
 29 31  1  0
 31 32  1  0
 31 25  1  0
 24 33  1  0
 25 34  1  1
 26 35  1  6
 28 36  1  0
 28 37  1  0
 29 38  1  1
 30 39  1  0
 31 40  1  6
 32 41  1  0
 16 26  1  0
M  ISO  7  17  14  18  14  19   9  20  14  21  14  22  14  23  14
M  END
>  <DihAtoms>  (1) 
5,15,25,24

>  <DihDeg>  (1) 
120.75895933934348

$$$$
