REMARK  Name = 
REMARK  5 active torsions:
REMARK  status: ('A' for Active; 'I' for Inactive)
REMARK    1  A    between atoms: C_5  and  O_7
REMARK    2  A    between atoms: O_7  and  C_13
REMARK    3  A    between atoms: O_11  and  C_12
REMARK    4  A    between atoms: C_16  and  O_17
REMARK    5  A    between atoms: C_18  and  O_19
REMARK                            x       y       z     vdW  Elec       q    Type
REMARK                         _______ _______ _______ _____ _____    ______ ____
ROOT
ATOM      1  C   UNL     1      32.581  28.079  50.435  0.00  0.00    +0.000 C 
ATOM      2  C   UNL     1      34.015  27.681  50.572  0.00  0.00    +0.000 C 
ATOM      3  O   UNL     1      34.219  26.311  50.593  0.00  0.00    +0.000 OA
ATOM      4  C   UNL     1      33.630  25.631  49.549  0.00  0.00    +0.000 C 
ATOM      5  C   UNL     1      32.125  25.771  49.521  0.00  0.00    +0.000 C 
ATOM      6  C   UNL     1      31.636  26.886  50.377  0.00  0.00    +0.000 C 
ENDROOT
BRANCH   1   7
ATOM      7  O   UNL     1      32.363  28.928  49.330  0.00  0.00    +0.000 OA
ATOM      8  H   UNL     1      33.044  28.792  48.625  0.00  0.00    +0.000 HD
ENDBRANCH   1   7
BRANCH   5   9
ATOM      9  O   UNL     1      31.682  25.955  48.198  0.00  0.00    +0.000 OA
ATOM     10  H   UNL     1      32.244  26.658  47.795  0.00  0.00    +0.000 HD
ENDBRANCH   5   9
BRANCH   6  11
ATOM     11  O   UNL     1      30.410  27.306  49.869  0.00  0.00    +0.000 OA
ATOM     12  H   UNL     1      30.497  28.132  49.341  0.00  0.00    +0.000 HD
ENDBRANCH   6  11
BRANCH   2  13
ATOM     13  O   UNL     1      34.870  28.270  49.598  0.00  0.00    +0.000 OA
BRANCH  13  18
ATOM     14  C   UNL     1      37.330  30.235  51.422  0.00  0.00    +0.000 A 
ATOM     15  C   UNL     1      38.086  30.742  50.350  0.00  0.00    +0.000 A 
ATOM     16  C   UNL     1      37.700  30.374  49.048  0.00  0.00    +0.000 A 
ATOM     17  N   UNL     1      36.606  29.540  48.895  0.00  0.00    +0.000 NA
ATOM     18  C   UNL     1      35.923  29.087  49.961  0.00  0.00    +0.000 A 
ATOM     19  N   UNL     1      36.277  29.427  51.215  0.00  0.00    +0.000 NA
ATOM     20  H   UNL     1      37.563  30.471  52.453  0.00  0.00    +0.000 HD
ATOM     21  H   UNL     1      38.923  31.386  50.545  0.00  0.00    +0.000 HD
ATOM     22  H   UNL     1      38.243  30.736  48.208  0.00  0.00    +0.000 HD
ENDBRANCH  13  18
ENDBRANCH   2  13
TORSDOF 5
