
 OpenBabel03272508273D

 41 44  0  0  1  0  0  0  0  0999 V2000
   33.9000   28.9800   47.3360 C   0  0  2  0  0  0  0  0  0  0  0  0
   34.6620   28.1990   48.3850 C   0  0  2  0  0  0  0  0  0  0  0  0
   33.7910   28.0220   49.4150 O   0  0  0  0  0  0  0  0  0  0  0  0
   32.4980   28.1090   48.9710 C   0  0  0  0  0  0  0  0  0  0  0  0
   32.5310   28.3230   47.4710 C   0  0  1  0  0  0  0  0  0  0  0  0
   33.8240   30.0520   47.5900 H   0  0  0  0  0  0  0  0  0  0  0  0
   34.9310   27.2290   47.9340 H   0  0  0  0  0  0  0  0  0  0  0  0
   31.9960   29.0220   49.4090 H   0  0  0  0  0  0  0  0  0  0  0  0
   31.8650   27.2510   49.2320 H   0  0  0  0  0  0  0  0  0  0  0  0
   32.5000   27.3480   46.9790 H   0  0  0  0  0  0  0  0  0  0  0  0
   35.7580   30.4480   49.0620 C   0  0  1  0  0  0  0  0  0  0  0  0
   35.8390   29.0310   48.7950 C   0  0  1  0  0  0  0  0  0  0  0  0
   36.0430   29.4660   50.2090 C   0  0  0  0  0  0  0  0  0  0  0  0
   34.8430   31.0370   49.3220 H   0  0  0  0  0  0  0  0  0  0  0  0
   36.7670   28.7140   48.2330 H   0  0  0  0  0  0  0  0  0  0  0  0
   37.0740   29.4020   50.6100 H   0  0  0  0  0  0  0  0  0  0  0  0
   35.2860   29.2660   50.9650 H   0  0  0  0  0  0  0  0  0  0  0  0
   36.9480   31.3600   48.7960 C   0  0  0  0  0  0  0  0  0  0  0  0
   37.1480   32.4160   49.6850 C   0  0  0  0  0  0  0  0  0  0  0  0
   38.2310   33.2380   49.3780 C   0  0  0  0  0  0  0  0  0  0  0  0
   39.0150   32.9970   48.2820 N   0  0  0  0  0  0  0  0  0  0  0  0
   38.7770   31.9570   47.4520 C   0  0  0  0  0  0  0  0  0  0  0  0
   37.7330   31.1300   47.7110 N   0  0  0  0  0  0  0  0  0  0  0  0
   36.5350   32.5960   50.5320 H   0  0  0  0  0  0  0  0  0  0  0  0
   38.4890   34.0940   49.9960 H   0  0  0  0  0  0  0  0  0  0  0  0
   39.3810   31.7480   46.5810 H   0  0  0  0  0  0  0  0  0  0  0  0
   34.4100   28.8250   46.0560 O   0  0  0  0  0  0  0  0  0  0  0  0
   34.2030   27.9090   45.7670 H   0  0  0  0  0  0  0  0  0  0  0  0
   31.5160   29.1220   47.0130 O   0  0  0  0  0  0  0  0  0  0  0  0
   29.3360   28.2320   47.4100 C   0  0  2  0  0  3  0  0  0  0  0  0
   30.4850   28.3920   46.4380 C   0  0  2  0  0  3  0  0  0  0  0  0
   30.9010   27.1190   46.0510 O   0  0  0  0  0  0  0  0  0  0  0  0
   30.0520   26.6860   45.0290 C   0  0  0  0  0  2  0  0  0  0  0  0
   28.6030   26.9620   45.3590 C   0  0  2  0  0  3  0  0  0  0  0  0
   28.4020   27.1800   46.8440 C   0  0  2  0  0  3  0  0  0  0  0  0
   28.6550   29.4490   47.4570 O   0  0  0  0  0  0  0  0  0  0  0  0
   27.8960   29.4080   46.8130 H   0  0  0  0  0  0  0  0  0  0  0  0
   27.8710   25.8300   45.0050 O   0  0  0  0  0  0  0  0  0  0  0  0
   26.9060   25.9250   45.2220 H   0  0  0  0  0  0  0  0  0  0  0  0
   27.0600   27.5040   47.0430 O   0  0  0  0  0  0  0  0  0  0  0  0
   26.9570   27.9570   47.9330 H   0  0  0  0  0  0  0  0  0  0  0  0
  1  5  1  0  0  0  0
  1  6  1  1  0  0  0
  1  2  1  0  0  0  0
  2  7  1  6  0  0  0
  2 12  1  0  0  0  0
  2  3  1  0  0  0  0
  4  9  1  0  0  0  0
  4  8  1  0  0  0  0
  4  3  1  0  0  0  0
  5 10  1  6  0  0  0
  5  4  1  0  0  0  0
 11 14  1  6  0  0  0
 11 13  1  0  0  0  0
 12 15  1  6  0  0  0
 12 11  1  0  0  0  0
 12 13  1  0  0  0  0
 13 16  1  0  0  0  0
 13 17  1  0  0  0  0
 18 11  1  0  0  0  0
 18 19  1  0  0  0  0
 19 24  1  0  0  0  0
 20 19  2  0  0  0  0
 20 25  1  0  0  0  0
 21 20  1  0  0  0  0
 22 23  1  0  0  0  0
 22 21  2  0  0  0  0
 23 18  2  0  0  0  0
 26 22  1  0  0  0  0
 27  1  1  0  0  0  0
 28 27  1  0  0  0  0
 29  5  1  0  0  0  0
 30 36  1  6  0  0  0
 31 29  1  1  0  0  0
 31 30  1  0  0  0  0
 32 31  1  0  0  0  0
 33 34  1  0  0  0  0
 33 32  1  0  0  0  0
 34 38  1  1  0  0  0
 34 35  1  0  0  0  0
 35 40  1  6  0  0  0
 35 30  1  0  0  0  0
 37 36  1  0  0  0  0
 38 39  1  0  0  0  0
 40 41  1  0  0  0  0
M  END
>  <minimizedAffinity>
-5.57948589

>  <minimizedRMSD>
1.12249136

$$$$
