
 OpenBabel03272509573D

 49 52  0  0  1  0  0  0  0  0999 V2000
   33.3910   27.6450   47.5190 C   0  0  0  0  0  0  0  0  0  0  0  0
   33.4940   27.6740   46.4010 H   0  0  0  0  0  0  0  0  0  0  0  0
   33.6550   26.6090   47.8040 H   0  0  0  0  0  0  0  0  0  0  0  0
   31.9570   27.9320   47.7850 C   0  0  0  0  0  0  0  0  0  0  0  0
   31.4140   27.4900   48.9870 C   0  0  0  0  0  0  0  0  0  0  0  0
   30.1040   27.7120   49.3090 C   0  0  0  0  0  0  0  0  0  0  0  0
   29.3280   28.3680   48.4520 N   0  0  0  0  0  0  0  0  0  0  0  0
   29.8640   28.8010   47.2740 C   0  0  0  0  0  0  0  0  0  0  0  0
   31.1450   28.5990   46.9290 N   0  0  0  0  0  0  0  0  0  0  0  0
   32.0080   26.9490   49.7200 H   0  0  0  0  0  0  0  0  0  0  0  0
   29.6950   27.3590   50.2520 H   0  0  0  0  0  0  0  0  0  0  0  0
   28.9550   29.5280   46.3530 C   0  0  0  0  0  0  0  0  0  0  0  0
   28.0090   29.7880   46.8530 H   0  0  0  0  0  0  0  0  0  0  0  0
   29.3720   30.4790   45.9680 H   0  0  0  0  0  0  0  0  0  0  0  0
   27.8970   27.3420   45.7580 C   0  0  2  0  0  3  0  0  0  0  0  0
   28.5880   28.5810   45.2310 C   0  0  1  0  0  3  0  0  0  0  0  0
   27.7180   29.1690   44.3170 O   0  0  0  0  0  0  0  0  0  0  0  0
   27.8910   28.5220   43.0970 C   0  0  0  0  0  2  0  0  0  0  0  0
   28.1290   27.0420   43.2650 C   0  0  1  0  0  3  0  0  0  0  0  0
   27.5230   26.5080   44.5420 C   0  0  1  0  0  3  0  0  0  0  0  0
   26.7430   27.7580   46.4340 O   0  0  0  0  0  0  0  0  0  0  0  0
   25.9350   27.5060   45.9020 H   0  0  0  0  0  0  0  0  0  0  0  0
   27.4870   26.3960   42.2060 O   0  0  0  0  0  0  0  0  0  0  0  0
   28.1420   26.0890   41.5060 H   0  0  0  0  0  0  0  0  0  0  0  0
   28.0860   25.2440   44.7330 O   0  0  0  0  0  0  0  0  0  0  0  0
   27.4390   24.5290   44.5180 H   0  0  0  0  0  0  0  0  0  0  0  0
   34.3060   28.6910   48.0730 C   0  0  0  0  0  0  0  0  0  0  0  0
   33.6880   29.6050   48.2620 H   0  0  0  0  0  0  0  0  0  0  0  0
   35.0930   29.0150   47.3390 H   0  0  0  0  0  0  0  0  0  0  0  0
   34.8730   28.2920   49.3070 O   0  0  0  0  0  0  0  0  0  0  0  0
   37.1140   30.0060   51.5600 C   0  0  0  0  0  0  0  0  0  0  0  0
   37.8830   30.7400   50.6200 C   0  0  0  0  0  0  0  0  0  0  0  0
   37.5790   30.5960   49.2810 C   0  0  0  0  0  0  0  0  0  0  0  0
   36.5540   29.7500   48.9760 N   0  0  0  0  0  0  0  0  0  0  0  0
   35.8360   29.0630   49.8630 C   0  0  0  0  0  0  0  0  0  0  0  0
   36.1280   29.1990   51.1760 N   0  0  0  0  0  0  0  0  0  0  0  0
   37.4040   30.1640   52.5890 H   0  0  0  0  0  0  0  0  0  0  0  0
   38.6860   31.4000   50.8830 H   0  0  0  0  0  0  0  0  0  0  0  0
   38.7960   33.2250   49.2650 F   0  0  0  0  0  0  0  0  0  0  0  0
   38.8310   32.4830   48.1630 C   0  0  0  0  0  0  0  0  0  0  0  0
   38.2610   31.2700   48.1930 C   0  0  0  0  0  0  0  0  0  0  0  0
   38.3490   30.5640   46.9820 C   0  0  0  0  0  0  0  0  0  0  0  0
   38.9680   31.0870   45.8770 C   0  0  0  0  0  0  0  0  0  0  0  0
   39.5370   32.3410   45.9030 C   0  0  0  0  0  0  0  0  0  0  0  0
   39.4570   33.0300   47.0650 C   0  0  0  0  0  0  0  0  0  0  0  0
   37.9310   29.5700   46.8670 H   0  0  0  0  0  0  0  0  0  0  0  0
   39.0250   30.5220   44.9470 H   0  0  0  0  0  0  0  0  0  0  0  0
   40.0280   32.7660   45.0370 H   0  0  0  0  0  0  0  0  0  0  0  0
   39.9000   34.0210   47.1100 H   0  0  0  0  0  0  0  0  0  0  0  0
  1  4  1  0  0  0  0
  1  3  1  0  0  0  0
  1 27  1  0  0  0  0
  2  1  1  0  0  0  0
  4  5  1  0  0  0  0
  5  6  2  0  0  0  0
  5 10  1  0  0  0  0
  6 11  1  0  0  0  0
  7  6  1  0  0  0  0
  8  7  2  0  0  0  0
  9  8  1  0  0  0  0
  9  4  2  0  0  0  0
 12 13  1  0  0  0  0
 12  8  1  0  0  0  0
 14 12  1  0  0  0  0
 15 21  1  6  0  0  0
 16 15  1  0  0  0  0
 16 12  1  1  0  0  0
 17 16  1  0  0  0  0
 18 19  1  0  0  0  0
 18 17  1  0  0  0  0
 19 23  1  6  0  0  0
 19 20  1  0  0  0  0
 20 25  1  1  0  0  0
 20 15  1  0  0  0  0
 22 21  1  0  0  0  0
 24 23  1  0  0  0  0
 26 25  1  0  0  0  0
 27 28  1  0  0  0  0
 27 30  1  0  0  0  0
 29 27  1  0  0  0  0
 30 35  1  0  0  0  0
 31 37  1  0  0  0  0
 32 38  1  0  0  0  0
 32 31  2  0  0  0  0
 33 32  1  0  0  0  0
 34 33  2  0  0  0  0
 34 35  1  0  0  0  0
 35 36  2  0  0  0  0
 36 31  1  0  0  0  0
 40 41  1  0  0  0  0
 40 39  1  0  0  0  0
 41 33  1  0  0  0  0
 42 41  2  0  0  0  0
 43 44  2  0  0  0  0
 43 42  1  0  0  0  0
 44 45  1  0  0  0  0
 45 49  1  0  0  0  0
 45 40  2  0  0  0  0
 46 42  1  0  0  0  0
 47 43  1  0  0  0  0
 48 44  1  0  0  0  0
M  END
>  <minimizedAffinity>
-6.71135998

>  <minimizedRMSD>
0.353303045

$$$$
