
 OpenBabel03272508273D

 41 44  0  0  1  0  0  0  0  0999 V2000
   32.5890   28.9240   46.9280 C   0  0  2  0  0  0  0  0  0  0  0  0
   33.3730   27.8290   47.6180 C   0  0  2  0  0  0  0  0  0  0  0  0
   32.5820   27.3960   48.6370 O   0  0  0  0  0  0  0  0  0  0  0  0
   31.2660   27.6760   48.3740 C   0  0  0  0  0  0  0  0  0  0  0  0
   31.1880   28.3250   47.0070 C   0  0  1  0  0  0  0  0  0  0  0  0
   32.6180   29.8740   47.4910 H   0  0  0  0  0  0  0  0  0  0  0  0
   33.5270   27.0250   46.8780 H   0  0  0  0  0  0  0  0  0  0  0  0
   30.8760   28.4400   49.1090 H   0  0  0  0  0  0  0  0  0  0  0  0
   30.5930   26.8120   48.4380 H   0  0  0  0  0  0  0  0  0  0  0  0
   31.0400   27.5440   46.2580 H   0  0  0  0  0  0  0  0  0  0  0  0
   34.7000   29.7330   48.7730 C   0  0  1  0  0  0  0  0  0  0  0  0
   34.6420   28.4420   48.1290 C   0  0  1  0  0  0  0  0  0  0  0  0
   34.9800   28.4580   49.5830 C   0  0  0  0  0  0  0  0  0  0  0  0
   33.8580   30.2840   49.2640 H   0  0  0  0  0  0  0  0  0  0  0  0
   35.4980   28.2340   47.4210 H   0  0  0  0  0  0  0  0  0  0  0  0
   36.0280   28.2230   49.8580 H   0  0  0  0  0  0  0  0  0  0  0  0
   34.2640   28.1060   50.3230 H   0  0  0  0  0  0  0  0  0  0  0  0
   35.9400   30.6080   48.6560 C   0  0  0  0  0  0  0  0  0  0  0  0
   36.3020   31.3500   49.7800 C   0  0  0  0  0  0  0  0  0  0  0  0
   37.4250   32.1570   49.6090 C   0  0  0  0  0  0  0  0  0  0  0  0
   38.0970   32.1920   48.4160 N   0  0  0  0  0  0  0  0  0  0  0  0
   37.7040   31.4500   47.3560 C   0  0  0  0  0  0  0  0  0  0  0  0
   36.6150   30.6500   47.4770 N   0  0  0  0  0  0  0  0  0  0  0  0
   35.7750   31.3170   50.7000 H   0  0  0  0  0  0  0  0  0  0  0  0
   37.8040   32.7820   50.4130 H   0  0  0  0  0  0  0  0  0  0  0  0
   38.2180   31.4630   46.4060 H   0  0  0  0  0  0  0  0  0  0  0  0
   32.9750   29.1320   45.6120 O   0  0  0  0  0  0  0  0  0  0  0  0
   32.6730   28.3550   45.0920 H   0  0  0  0  0  0  0  0  0  0  0  0
   30.2040   29.2740   46.9100 O   0  0  0  0  0  0  0  0  0  0  0  0
   27.9450   28.9670   46.1970 C   0  0  2  0  0  3  0  0  0  0  0  0
   28.9630   28.7910   47.3030 C   0  0  2  0  0  3  0  0  0  0  0  0
   28.4850   29.4460   48.4370 O   0  0  0  0  0  0  0  0  0  0  0  0
   27.5890   28.5870   49.0790 C   0  0  0  0  0  2  0  0  0  0  0  0
   26.6380   27.9440   48.0950 C   0  0  2  0  0  3  0  0  0  0  0  0
   26.5740   28.7160   46.7950 C   0  0  2  0  0  3  0  0  0  0  0  0
   28.1960   27.9850   45.2390 O   0  0  0  0  0  0  0  0  0  0  0  0
   27.6070   27.2040   45.4270 H   0  0  0  0  0  0  0  0  0  0  0  0
   25.3640   27.9790   48.6600 O   0  0  0  0  0  0  0  0  0  0  0  0
   24.6760   27.5980   48.0530 H   0  0  0  0  0  0  0  0  0  0  0  0
   25.7410   28.0110   45.9260 O   0  0  0  0  0  0  0  0  0  0  0  0
   25.9220   28.3030   44.9830 H   0  0  0  0  0  0  0  0  0  0  0  0
  1  5  1  0  0  0  0
  1  6  1  1  0  0  0
  1  2  1  0  0  0  0
  2  7  1  6  0  0  0
  2 12  1  0  0  0  0
  2  3  1  0  0  0  0
  4  9  1  0  0  0  0
  4  3  1  0  0  0  0
  4  8  1  0  0  0  0
  5 10  1  6  0  0  0
  5  4  1  0  0  0  0
 11 14  1  1  0  0  0
 11 13  1  0  0  0  0
 12 15  1  6  0  0  0
 12 11  1  0  0  0  0
 12 13  1  0  0  0  0
 13 16  1  0  0  0  0
 13 17  1  0  0  0  0
 18 11  1  0  0  0  0
 18 19  1  0  0  0  0
 19 24  1  0  0  0  0
 20 19  2  0  0  0  0
 20 25  1  0  0  0  0
 21 20  1  0  0  0  0
 22 23  1  0  0  0  0
 22 21  2  0  0  0  0
 23 18  2  0  0  0  0
 26 22  1  0  0  0  0
 27  1  1  0  0  0  0
 28 27  1  0  0  0  0
 29  5  1  0  0  0  0
 30 36  1  6  0  0  0
 30 35  1  0  0  0  0
 30 31  1  0  0  0  0
 31 29  1  6  0  0  0
 31 32  1  0  0  0  0
 32 33  1  0  0  0  0
 34 38  1  1  0  0  0
 34 33  1  0  0  0  0
 35 40  1  6  0  0  0
 35 34  1  0  0  0  0
 36 37  1  0  0  0  0
 39 38  1  0  0  0  0
 41 40  1  0  0  0  0
M  END
>  <minimizedAffinity>
-6.62736082

>  <minimizedRMSD>
3.02421021

$$$$
