
 OpenBabel03272504583D

 36 38  0  0  1  0  0  0  0  0999 V2000
   36.7080   23.1280   31.4070 C   0  0  1  0  0  0  0  0  0  0  0  0
   35.7880   24.1310   30.9310 C   0  0  0  0  0  0  0  0  0  0  0  0
   36.5150   24.3270   32.2220 C   0  0  2  0  0  0  0  0  0  0  0  0
   37.7690   23.0190   30.9850 H   0  0  0  0  0  0  0  0  0  0  0  0
   36.0590   24.3740   29.9220 H   0  0  0  0  0  0  0  0  0  0  0  0
   34.7060   23.8910   31.0170 H   0  0  0  0  0  0  0  0  0  0  0  0
   35.8200   24.5180   33.0170 H   0  0  0  0  0  0  0  0  0  0  0  0
   36.2120   21.8310   31.9760 C   0  0  0  0  0  0  0  0  0  0  0  0
   35.8970   20.8220   31.0290 C   0  0  0  0  0  0  0  0  0  0  0  0
   35.4450   19.6460   31.5860 C   0  0  0  0  0  0  0  0  0  0  0  0
   35.3290   19.5200   32.9410 N   0  0  0  0  0  0  0  0  0  0  0  0
   35.6410   20.5140   33.8060 C   0  0  0  0  0  0  0  0  0  0  0  0
   36.0940   21.6920   33.2820 N   0  0  0  0  0  0  0  0  0  0  0  0
   35.5160   20.3830   35.1920 N   0  0  0  0  0  0  0  0  0  0  0  0
   35.9890   20.9190   29.9760 H   0  0  0  0  0  0  0  0  0  0  0  0
   35.1900   18.8430   30.9120 H   0  0  0  0  0  0  0  0  0  0  0  0
   35.2720   19.4200   35.5630 H   0  0  0  0  0  0  0  0  0  0  0  0
   35.6590   21.2040   35.8180 H   0  0  0  0  0  0  0  0  0  0  0  0
   37.5740   25.2480   32.1770 O   0  0  0  0  0  0  0  0  0  0  0  0
   39.6150   26.0350   33.5330 O   0  0  0  0  0  0  0  0  0  0  0  0
   38.2620   25.4200   33.6850 P   0  0  1  0  0  0  0  0  0  0  0  0
   37.3360   26.5640   34.6020 O   0  0  0  0  0  0  0  0  0  0  0  0
   36.8360   27.1450   33.9660 H   0  0  0  0  0  0  0  0  0  0  0  0
   38.2660   23.9320   34.4590 O   0  0  0  0  0  0  0  0  0  0  0  0
   38.3590   23.2940   36.7000 C   0  0  2  0  0  3  0  0  0  0  0  0
   39.1240   23.8580   35.5290 C   0  0  1  0  0  3  0  0  0  0  0  0
   40.2980   23.1700   35.2430 O   0  0  0  0  0  0  0  0  0  0  0  0
   41.1290   23.3660   36.3690 C   0  0  0  0  0  2  0  0  0  0  0  0
   40.5190   22.4550   37.4410 C   0  0  1  0  0  3  0  0  0  0  0  0
   39.2650   23.2100   37.8970 C   0  0  2  0  0  3  0  0  0  0  0  0
   37.9250   21.9820   36.4320 O   0  0  0  0  0  0  0  0  0  0  0  0
   36.9680   22.0320   36.2540 H   0  0  0  0  0  0  0  0  0  0  0  0
   40.0720   21.3010   36.8000 O   0  0  0  0  0  0  0  0  0  0  0  0
   40.2720   20.5390   37.3790 H   0  0  0  0  0  0  0  0  0  0  0  0
   38.6710   22.5750   38.9730 O   0  0  0  0  0  0  0  0  0  0  0  0
   38.1630   21.7880   38.6160 H   0  0  0  0  0  0  0  0  0  0  0  0
  1  4  1  6  0  0  0
  1  8  1  0  0  0  0
  1  3  1  0  0  0  0
  2  6  1  0  0  0  0
  2  1  1  0  0  0  0
  2  3  1  0  0  0  0
  3  7  1  1  0  0  0
  5  2  1  0  0  0  0
  8 13  1  0  0  0  0
  9 10  1  0  0  0  0
  9  8  2  0  0  0  0
 10 11  2  0  0  0  0
 11 12  1  0  0  0  0
 12 14  1  0  0  0  0
 13 12  2  0  0  0  0
 14 17  1  0  0  0  0
 14 18  1  0  0  0  0
 15  9  1  0  0  0  0
 16 10  1  0  0  0  0
 19  3  1  0  0  0  0
 19 21  1  0  0  0  0
 21 20  2  6  0  0  0
 21 24  1  0  0  0  0
 21 22  1  0  0  0  0
 23 22  1  0  0  0  0
 25 31  1  6  0  0  0
 25 30  1  0  0  0  0
 26 24  1  6  0  0  0
 26 25  1  0  0  0  0
 27 26  1  0  0  0  0
 27 28  1  0  0  0  0
 28 29  1  0  0  0  0
 29 33  1  6  0  0  0
 29 30  1  0  0  0  0
 30 35  1  1  0  0  0
 32 31  1  0  0  0  0
 33 34  1  0  0  0  0
 36 35  1  0  0  0  0
M  END
>  <minimizedAffinity>
-6.22870445

$$$$

 OpenBabel03272504583D

 36 38  0  0  1  0  0  0  0  0999 V2000
   38.4270   23.7540   36.0070 C   0  0  1  0  0  0  0  0  0  0  0  0
   37.5720   23.9010   37.1590 C   0  0  0  0  0  0  0  0  0  0  0  0
   38.1190   25.1070   36.4660 C   0  0  2  0  0  0  0  0  0  0  0  0
   38.0150   23.5110   34.9640 H   0  0  0  0  0  0  0  0  0  0  0  0
   36.6830   23.3270   36.9840 H   0  0  0  0  0  0  0  0  0  0  0  0
   38.0240   23.6630   38.1450 H   0  0  0  0  0  0  0  0  0  0  0  0
   38.6380   25.7360   37.1640 H   0  0  0  0  0  0  0  0  0  0  0  0
   39.8470   23.2920   36.1520 C   0  0  0  0  0  0  0  0  0  0  0  0
   40.8060   23.9850   35.3680 C   0  0  0  0  0  0  0  0  0  0  0  0
   42.0970   23.5350   35.5270 C   0  0  0  0  0  0  0  0  0  0  0  0
   42.3730   22.5050   36.3810 N   0  0  0  0  0  0  0  0  0  0  0  0
   41.4220   21.8730   37.1080 C   0  0  0  0  0  0  0  0  0  0  0  0
   40.1310   22.2990   36.9720 N   0  0  0  0  0  0  0  0  0  0  0  0
   41.7080   20.8160   37.9770 N   0  0  0  0  0  0  0  0  0  0  0  0
   40.5920   24.7870   34.7060 H   0  0  0  0  0  0  0  0  0  0  0  0
   42.8680   24.0270   34.9550 H   0  0  0  0  0  0  0  0  0  0  0  0
   42.7320   20.5910   38.1410 H   0  0  0  0  0  0  0  0  0  0  0  0
   40.9380   20.2820   38.4340 H   0  0  0  0  0  0  0  0  0  0  0  0
   37.1980   25.8070   35.6690 O   0  0  0  0  0  0  0  0  0  0  0  0
   37.1920   28.3400   35.2150 O   0  0  0  0  0  0  0  0  0  0  0  0
   37.9430   27.0860   34.9040 P   0  0  1  0  0  0  0  0  0  0  0  0
   39.5200   27.3130   35.5870 O   0  0  0  0  0  0  0  0  0  0  0  0
   39.5270   26.9130   36.5000 H   0  0  0  0  0  0  0  0  0  0  0  0
   38.0700   26.7490   33.2660 O   0  0  0  0  0  0  0  0  0  0  0  0
   36.4080   26.2420   31.7100 C   0  0  2  0  0  3  0  0  0  0  0  0
   37.2620   25.7230   32.8400 C   0  0  1  0  0  3  0  0  0  0  0  0
   37.9660   24.5660   32.5240 O   0  0  0  0  0  0  0  0  0  0  0  0
   36.9800   23.5770   32.3080 C   0  0  0  0  0  2  0  0  0  0  0  0
   36.3930   23.9360   30.9380 C   0  0  1  0  0  3  0  0  0  0  0  0
   35.4990   25.1470   31.2250 C   0  0  2  0  0  3  0  0  0  0  0  0
   37.2040   26.6200   30.6110 O   0  0  0  0  0  0  0  0  0  0  0  0
   37.2280   27.5930   30.6020 H   0  0  0  0  0  0  0  0  0  0  0  0
   37.4410   24.3980   30.1440 O   0  0  0  0  0  0  0  0  0  0  0  0
   37.3080   24.0510   29.2410 H   0  0  0  0  0  0  0  0  0  0  0  0
   34.7810   25.5090   30.0990 O   0  0  0  0  0  0  0  0  0  0  0  0
   35.4030   26.0120   29.4930 H   0  0  0  0  0  0  0  0  0  0  0  0
  1  4  1  6  0  0  0
  1  8  1  0  0  0  0
  1  3  1  0  0  0  0
  1  2  1  0  0  0  0
  2  6  1  0  0  0  0
  3  2  1  0  0  0  0
  3  7  1  1  0  0  0
  5  2  1  0  0  0  0
  8 13  1  0  0  0  0
  9 10  1  0  0  0  0
  9  8  2  0  0  0  0
 10 11  2  0  0  0  0
 11 12  1  0  0  0  0
 12 14  1  0  0  0  0
 13 12  2  0  0  0  0
 14 17  1  0  0  0  0
 14 18  1  0  0  0  0
 15  9  1  0  0  0  0
 16 10  1  0  0  0  0
 19  3  1  0  0  0  0
 21 20  2  1  0  0  0
 21 22  1  0  0  0  0
 21 19  1  0  0  0  0
 22 23  1  0  0  0  0
 24 21  1  0  0  0  0
 25 31  1  6  0  0  0
 25 26  1  0  0  0  0
 26 24  1  6  0  0  0
 27 26  1  0  0  0  0
 28 27  1  0  0  0  0
 29 33  1  6  0  0  0
 29 30  1  0  0  0  0
 29 28  1  0  0  0  0
 30 35  1  6  0  0  0
 30 25  1  0  0  0  0
 32 31  1  0  0  0  0
 34 33  1  0  0  0  0
 36 35  1  0  0  0  0
M  END
>  <minimizedAffinity>
-6.10111237

$$$$

 OpenBabel03272504583D

 36 38  0  0  1  0  0  0  0  0999 V2000
   37.3030   25.7130   31.9780 C   0  0  1  0  0  0  0  0  0  0  0  0
   36.2580   26.6790   31.7450 C   0  0  0  0  0  0  0  0  0  0  0  0
   36.7970   26.4680   33.1230 C   0  0  2  0  0  0  0  0  0  0  0  0
   38.4020   25.9260   31.7290 H   0  0  0  0  0  0  0  0  0  0  0  0
   36.5790   27.3260   30.9520 H   0  0  0  0  0  0  0  0  0  0  0  0
   35.2410   26.2740   31.5560 H   0  0  0  0  0  0  0  0  0  0  0  0
   36.0000   26.2390   33.8050 H   0  0  0  0  0  0  0  0  0  0  0  0
   37.0140   24.2400   31.9510 C   0  0  0  0  0  0  0  0  0  0  0  0
   35.8710   23.8490   31.2060 C   0  0  0  0  0  0  0  0  0  0  0  0
   35.6360   22.4920   31.2040 C   0  0  0  0  0  0  0  0  0  0  0  0
   36.4660   21.6430   31.8790 N   0  0  0  0  0  0  0  0  0  0  0  0
   37.5460   22.0650   32.5780 C   0  0  0  0  0  0  0  0  0  0  0  0
   37.8050   23.4070   32.5970 N   0  0  0  0  0  0  0  0  0  0  0  0
   38.3900   21.1940   33.2710 N   0  0  0  0  0  0  0  0  0  0  0  0
   35.2260   24.5090   30.6810 H   0  0  0  0  0  0  0  0  0  0  0  0
   34.7790   22.1380   30.6530 H   0  0  0  0  0  0  0  0  0  0  0  0
   38.2230   20.1540   33.1380 H   0  0  0  0  0  0  0  0  0  0  0  0
   39.1450   21.5640   33.8880 H   0  0  0  0  0  0  0  0  0  0  0  0
   37.6540   27.4770   33.5900 O   0  0  0  0  0  0  0  0  0  0  0  0
   40.0290   26.9520   34.4310 O   0  0  0  0  0  0  0  0  0  0  0  0
   38.5950   26.9090   34.8440 P   0  0  1  0  0  0  0  0  0  0  0  0
   38.4680   28.0000   36.1850 O   0  0  0  0  0  0  0  0  0  0  0  0
   38.1870   28.8910   35.8390 H   0  0  0  0  0  0  0  0  0  0  0  0
   38.0530   25.3850   35.2900 O   0  0  0  0  0  0  0  0  0  0  0  0
   38.3190   24.0550   37.1870 C   0  0  2  0  0  3  0  0  0  0  0  0
   38.9840   24.6330   35.9620 C   0  0  1  0  0  3  0  0  0  0  0  0
   39.6030   23.6810   35.1590 O   0  0  0  0  0  0  0  0  0  0  0  0
   40.6510   23.1530   35.9470 C   0  0  0  0  0  2  0  0  0  0  0  0
   39.9330   22.2490   36.9560 C   0  0  1  0  0  3  0  0  0  0  0  0
   39.3150   23.2320   37.9570 C   0  0  2  0  0  3  0  0  0  0  0  0
   37.2730   23.1850   36.8270 O   0  0  0  0  0  0  0  0  0  0  0  0
   36.4390   23.6570   37.0010 H   0  0  0  0  0  0  0  0  0  0  0  0
   38.8690   21.6440   36.2900 O   0  0  0  0  0  0  0  0  0  0  0  0
   38.8090   20.7190   36.6000 H   0  0  0  0  0  0  0  0  0  0  0  0
   38.7420   22.5590   39.0210 O   0  0  0  0  0  0  0  0  0  0  0  0
   37.8590   22.1990   38.7100 H   0  0  0  0  0  0  0  0  0  0  0  0
  1  4  1  6  0  0  0
  1  3  1  0  0  0  0
  2  1  1  0  0  0  0
  2  3  1  0  0  0  0
  3 19  1  0  0  0  0
  3  7  1  1  0  0  0
  5  2  1  0  0  0  0
  6  2  1  0  0  0  0
  8  1  1  0  0  0  0
  8 13  1  0  0  0  0
  9  8  2  0  0  0  0
 10  9  1  0  0  0  0
 10 11  2  0  0  0  0
 11 12  1  0  0  0  0
 12 13  2  0  0  0  0
 12 14  1  0  0  0  0
 14 18  1  0  0  0  0
 15  9  1  0  0  0  0
 16 10  1  0  0  0  0
 17 14  1  0  0  0  0
 19 21  1  0  0  0  0
 21 20  2  6  0  0  0
 21 24  1  0  0  0  0
 21 22  1  0  0  0  0
 23 22  1  0  0  0  0
 25 31  1  6  0  0  0
 25 30  1  0  0  0  0
 26 24  1  6  0  0  0
 26 25  1  0  0  0  0
 27 28  1  0  0  0  0
 27 26  1  0  0  0  0
 28 29  1  0  0  0  0
 29 33  1  6  0  0  0
 29 30  1  0  0  0  0
 30 35  1  1  0  0  0
 31 32  1  0  0  0  0
 33 34  1  0  0  0  0
 36 35  1  0  0  0  0
M  END
>  <minimizedAffinity>
-5.9474411

$$$$

 OpenBabel03272504583D

 36 38  0  0  1  0  0  0  0  0999 V2000
   37.7280   25.9400   35.5210 C   0  0  1  0  0  0  0  0  0  0  0  0
   38.2730   27.2610   35.3250 C   0  0  0  0  0  0  0  0  0  0  0  0
   38.0260   26.3650   34.1540 C   0  0  2  0  0  0  0  0  0  0  0  0
   36.6130   25.7600   35.7200 H   0  0  0  0  0  0  0  0  0  0  0  0
   37.6330   27.9590   35.8280 H   0  0  0  0  0  0  0  0  0  0  0  0
   39.3370   27.4060   35.6080 H   0  0  0  0  0  0  0  0  0  0  0  0
   38.9220   26.2530   33.5750 H   0  0  0  0  0  0  0  0  0  0  0  0
   38.5690   24.8350   36.0900 C   0  0  0  0  0  0  0  0  0  0  0  0
   39.7230   24.4880   35.3400 C   0  0  0  0  0  0  0  0  0  0  0  0
   40.4690   23.4700   35.8900 C   0  0  0  0  0  0  0  0  0  0  0  0
   40.0840   22.8820   37.0610 N   0  0  0  0  0  0  0  0  0  0  0  0
   38.9710   23.2480   37.7410 C   0  0  0  0  0  0  0  0  0  0  0  0
   38.2110   24.2560   37.2190 N   0  0  0  0  0  0  0  0  0  0  0  0
   38.5780   22.6390   38.9360 N   0  0  0  0  0  0  0  0  0  0  0  0
   40.0230   24.9460   34.4300 H   0  0  0  0  0  0  0  0  0  0  0  0
   41.3590   23.1650   35.3610 H   0  0  0  0  0  0  0  0  0  0  0  0
   39.2520   21.9430   39.3660 H   0  0  0  0  0  0  0  0  0  0  0  0
   37.6590   22.8700   39.3720 H   0  0  0  0  0  0  0  0  0  0  0  0
   36.9020   26.6910   33.3790 O   0  0  0  0  0  0  0  0  0  0  0  0
   36.8320   24.2750   32.4940 O   0  0  0  0  0  0  0  0  0  0  0  0
   36.8080   25.6990   32.0430 P   0  0  1  0  0  0  0  0  0  0  0  0
   35.2630   25.9160   31.2860 O   0  0  0  0  0  0  0  0  0  0  0  0
   34.6290   26.2760   31.9650 H   0  0  0  0  0  0  0  0  0  0  0  0
   38.0340   26.1030   30.9720 O   0  0  0  0  0  0  0  0  0  0  0  0
   39.2850   27.6600   29.7690 C   0  0  2  0  0  3  0  0  0  0  0  0
   38.0790   27.4370   30.6460 C   0  0  1  0  0  3  0  0  0  0  0  0
   36.8910   27.9070   30.0970 O   0  0  0  0  0  0  0  0  0  0  0  0
   37.0470   29.3100   30.0170 C   0  0  0  0  0  2  0  0  0  0  0  0
   38.0050   29.5060   28.8360 C   0  0  1  0  0  3  0  0  0  0  0  0
   39.3750   29.1160   29.4020 C   0  0  2  0  0  3  0  0  0  0  0  0
   39.1670   26.9480   28.5600 O   0  0  0  0  0  0  0  0  0  0  0  0
   39.7660   26.1820   28.6240 H   0  0  0  0  0  0  0  0  0  0  0  0
   37.6870   28.5460   27.8770 O   0  0  0  0  0  0  0  0  0  0  0  0
   37.7600   28.9640   26.9970 H   0  0  0  0  0  0  0  0  0  0  0  0
   40.3800   29.3750   28.4870 O   0  0  0  0  0  0  0  0  0  0  0  0
   40.3640   28.6390   27.8050 H   0  0  0  0  0  0  0  0  0  0  0  0
  1  4  1  1  0  0  0
  1  8  1  0  0  0  0
  2  1  1  0  0  0  0
  2  6  1  0  0  0  0
  2  5  1  0  0  0  0
  3  7  1  6  0  0  0
  3  2  1  0  0  0  0
  3  1  1  0  0  0  0
  8 13  1  0  0  0  0
  9 10  1  0  0  0  0
  9  8  2  0  0  0  0
 10 11  2  0  0  0  0
 11 12  1  0  0  0  0
 12 14  1  0  0  0  0
 13 12  2  0  0  0  0
 14 17  1  0  0  0  0
 14 18  1  0  0  0  0
 15  9  1  0  0  0  0
 16 10  1  0  0  0  0
 19  3  1  0  0  0  0
 21 20  2  1  0  0  0
 21 19  1  0  0  0  0
 22 23  1  0  0  0  0
 22 21  1  0  0  0  0
 24 21  1  0  0  0  0
 25 31  1  6  0  0  0
 25 26  1  0  0  0  0
 26 24  1  6  0  0  0
 27 26  1  0  0  0  0
 28 27  1  0  0  0  0
 29 33  1  6  0  0  0
 29 30  1  0  0  0  0
 29 28  1  0  0  0  0
 30 35  1  6  0  0  0
 30 25  1  0  0  0  0
 31 32  1  0  0  0  0
 34 33  1  0  0  0  0
 36 35  1  0  0  0  0
M  END
>  <minimizedAffinity>
-5.65575218

$$$$

 OpenBabel03272504583D

 36 38  0  0  1  0  0  0  0  0999 V2000
   37.3860   28.1550   32.2380 C   0  0  1  0  0  0  0  0  0  0  0  0
   36.0600   28.2750   32.7920 C   0  0  0  0  0  0  0  0  0  0  0  0
   36.6490   26.9270   32.5320 C   0  0  2  0  0  0  0  0  0  0  0  0
   38.3310   28.2940   32.8730 H   0  0  0  0  0  0  0  0  0  0  0  0
   36.1170   28.9200   33.6470 H   0  0  0  0  0  0  0  0  0  0  0  0
   35.2580   28.5960   32.0930 H   0  0  0  0  0  0  0  0  0  0  0  0
   35.9950   26.3470   31.9100 H   0  0  0  0  0  0  0  0  0  0  0  0
   37.6500   28.4610   30.7930 C   0  0  0  0  0  0  0  0  0  0  0  0
   37.1380   29.6970   30.3200 C   0  0  0  0  0  0  0  0  0  0  0  0
   37.3990   29.9450   28.9910 C   0  0  0  0  0  0  0  0  0  0  0  0
   38.0960   29.0410   28.2400 N   0  0  0  0  0  0  0  0  0  0  0  0
   38.5650   27.8720   28.7380 C   0  0  0  0  0  0  0  0  0  0  0  0
   38.3220   27.6000   30.0540 N   0  0  0  0  0  0  0  0  0  0  0  0
   39.2740   26.9480   27.9650 N   0  0  0  0  0  0  0  0  0  0  0  0
   36.5970   30.4000   30.9030 H   0  0  0  0  0  0  0  0  0  0  0  0
   37.0320   30.8710   28.5770 H   0  0  0  0  0  0  0  0  0  0  0  0
   39.5400   27.2460   26.9830 H   0  0  0  0  0  0  0  0  0  0  0  0
   39.5210   26.0120   28.3520 H   0  0  0  0  0  0  0  0  0  0  0  0
   37.0850   26.2350   33.6740 O   0  0  0  0  0  0  0  0  0  0  0  0
   37.8690   24.6220   31.8280 O   0  0  0  0  0  0  0  0  0  0  0  0
   38.1270   25.0060   33.2490 P   0  0  1  0  0  0  0  0  0  0  0  0
   39.7520   25.6080   33.2750 O   0  0  0  0  0  0  0  0  0  0  0  0
   39.7220   26.5990   33.1700 H   0  0  0  0  0  0  0  0  0  0  0  0
   37.9640   23.7450   34.3430 O   0  0  0  0  0  0  0  0  0  0  0  0
   38.1310   23.2380   36.6130 C   0  0  2  0  0  3  0  0  0  0  0  0
   38.8330   23.8060   35.4040 C   0  0  1  0  0  3  0  0  0  0  0  0
   40.0620   23.2130   35.1400 O   0  0  0  0  0  0  0  0  0  0  0  0
   40.8810   23.5430   36.2440 C   0  0  0  0  0  2  0  0  0  0  0  0
   40.3640   22.6390   37.3690 C   0  0  1  0  0  3  0  0  0  0  0  0
   39.0510   23.3000   37.8010 C   0  0  2  0  0  3  0  0  0  0  0  0
   37.8170   21.8800   36.4190 O   0  0  0  0  0  0  0  0  0  0  0  0
   36.8580   21.8330   36.2500 H   0  0  0  0  0  0  0  0  0  0  0  0
   40.0190   21.4160   36.7950 O   0  0  0  0  0  0  0  0  0  0  0  0
   40.2930   20.7080   37.4100 H   0  0  0  0  0  0  0  0  0  0  0  0
   38.5250   22.6720   38.9160 O   0  0  0  0  0  0  0  0  0  0  0  0
   38.0880   21.8240   38.6070 H   0  0  0  0  0  0  0  0  0  0  0  0
  1  3  1  0  0  0  0
  1  2  1  0  0  0  0
  1  4  1  1  0  0  0
  2  5  1  0  0  0  0
  3  7  1  6  0  0  0
  3  2  1  0  0  0  0
  3 19  1  0  0  0  0
  6  2  1  0  0  0  0
  8  1  1  0  0  0  0
  9  8  1  0  0  0  0
  9 15  1  0  0  0  0
 10  9  2  0  0  0  0
 11 12  2  0  0  0  0
 11 10  1  0  0  0  0
 12 13  1  0  0  0  0
 13  8  2  0  0  0  0
 14 18  1  0  0  0  0
 14 12  1  0  0  0  0
 16 10  1  0  0  0  0
 17 14  1  0  0  0  0
 21 20  2  6  0  0  0
 21 22  1  0  0  0  0
 21 19  1  0  0  0  0
 21 24  1  0  0  0  0
 23 22  1  0  0  0  0
 25 31  1  6  0  0  0
 25 30  1  0  0  0  0
 26 24  1  6  0  0  0
 26 25  1  0  0  0  0
 27 26  1  0  0  0  0
 27 28  1  0  0  0  0
 28 29  1  0  0  0  0
 29 33  1  6  0  0  0
 29 30  1  0  0  0  0
 30 35  1  1  0  0  0
 32 31  1  0  0  0  0
 33 34  1  0  0  0  0
 36 35  1  0  0  0  0
M  END
>  <minimizedAffinity>
-5.6278038

$$$$

 OpenBabel03272504583D

 36 38  0  0  1  0  0  0  0  0999 V2000
   37.9090   25.5990   35.0040 C   0  0  1  0  0  0  0  0  0  0  0  0
   38.5040   26.7700   34.4090 C   0  0  0  0  0  0  0  0  0  0  0  0
   38.0760   25.6240   33.5520 C   0  0  2  0  0  0  0  0  0  0  0  0
   36.8150   25.5740   35.3470 H   0  0  0  0  0  0  0  0  0  0  0  0
   37.9670   27.6280   34.7630 H   0  0  0  0  0  0  0  0  0  0  0  0
   39.6000   26.8920   34.5430 H   0  0  0  0  0  0  0  0  0  0  0  0
   38.8930   25.2860   32.9440 H   0  0  0  0  0  0  0  0  0  0  0  0
   38.7430   24.6130   35.7690 C   0  0  0  0  0  0  0  0  0  0  0  0
   39.9950   24.2810   35.1890 C   0  0  0  0  0  0  0  0  0  0  0  0
   40.7320   23.3740   35.9160 C   0  0  0  0  0  0  0  0  0  0  0  0
   40.2490   22.8700   37.0910 N   0  0  0  0  0  0  0  0  0  0  0  0
   39.0450   23.2180   37.6050 C   0  0  0  0  0  0  0  0  0  0  0  0
   38.2920   24.1170   36.9050 N   0  0  0  0  0  0  0  0  0  0  0  0
   38.5530   22.6970   38.8050 N   0  0  0  0  0  0  0  0  0  0  0  0
   40.3700   24.6730   34.2760 H   0  0  0  0  0  0  0  0  0  0  0  0
   41.6930   23.0840   35.5220 H   0  0  0  0  0  0  0  0  0  0  0  0
   39.2130   22.0920   39.3740 H   0  0  0  0  0  0  0  0  0  0  0  0
   37.5780   22.9020   39.1120 H   0  0  0  0  0  0  0  0  0  0  0  0
   36.8930   25.8300   32.8250 O   0  0  0  0  0  0  0  0  0  0  0  0
   35.1360   24.4640   31.5330 O   0  0  0  0  0  0  0  0  0  0  0  0
   36.6030   24.5450   31.8040 P   0  0  1  0  0  0  0  0  0  0  0  0
   37.3390   24.8660   30.2680 O   0  0  0  0  0  0  0  0  0  0  0  0
   37.4530   25.8510   30.1740 H   0  0  0  0  0  0  0  0  0  0  0  0
   37.2560   23.1530   32.4750 O   0  0  0  0  0  0  0  0  0  0  0  0
   36.8700   21.4150   30.9700 C   0  0  2  0  0  3  0  0  0  0  0  0
   36.4890   22.0290   32.2940 C   0  0  1  0  0  3  0  0  0  0  0  0
   36.5560   21.1420   33.3630 O   0  0  0  0  0  0  0  0  0  0  0  0
   35.5680   20.1650   33.0990 C   0  0  0  0  0  2  0  0  0  0  0  0
   36.1830   19.3130   31.9820 C   0  0  1  0  0  3  0  0  0  0  0  0
   36.0390   20.1840   30.7300 C   0  0  2  0  0  3  0  0  0  0  0  0
   38.2140   20.9960   30.9780 O   0  0  0  0  0  0  0  0  0  0  0  0
   38.7150   21.6420   30.4490 H   0  0  0  0  0  0  0  0  0  0  0  0
   37.5490   19.2130   32.2390 O   0  0  0  0  0  0  0  0  0  0  0  0
   37.8300   18.3030   32.0220 H   0  0  0  0  0  0  0  0  0  0  0  0
   36.4270   19.4900   29.5980 O   0  0  0  0  0  0  0  0  0  0  0  0
   37.4300   19.4860   29.5760 H   0  0  0  0  0  0  0  0  0  0  0  0
  1  4  1  1  0  0  0
  1  8  1  0  0  0  0
  2  6  1  0  0  0  0
  2  5  1  0  0  0  0
  2  1  1  0  0  0  0
  3  7  1  6  0  0  0
  3  2  1  0  0  0  0
  3  1  1  0  0  0  0
  8 13  1  0  0  0  0
  9  8  2  0  0  0  0
  9 10  1  0  0  0  0
 10 11  2  0  0  0  0
 11 12  1  0  0  0  0
 12 14  1  0  0  0  0
 13 12  2  0  0  0  0
 14 18  1  0  0  0  0
 14 17  1  0  0  0  0
 15  9  1  0  0  0  0
 16 10  1  0  0  0  0
 19  3  1  0  0  0  0
 21 20  2  6  0  0  0
 21 24  1  0  0  0  0
 21 19  1  0  0  0  0
 22 21  1  0  0  0  0
 23 22  1  0  0  0  0
 25 31  1  1  0  0  0
 25 26  1  0  0  0  0
 26 24  1  1  0  0  0
 26 27  1  0  0  0  0
 28 27  1  0  0  0  0
 29 33  1  1  0  0  0
 29 28  1  0  0  0  0
 30 35  1  6  0  0  0
 30 25  1  0  0  0  0
 30 29  1  0  0  0  0
 32 31  1  0  0  0  0
 34 33  1  0  0  0  0
 36 35  1  0  0  0  0
M  END
>  <minimizedAffinity>
-5.57979393

$$$$

 OpenBabel03272504583D

 36 38  0  0  1  0  0  0  0  0999 V2000
   37.4620   22.0690   32.2410 C   0  0  1  0  0  0  0  0  0  0  0  0
   36.7530   21.4640   31.1410 C   0  0  0  0  0  0  0  0  0  0  0  0
   36.5650   22.9130   31.4540 C   0  0  2  0  0  0  0  0  0  0  0  0
   38.5670   22.3690   32.1680 H   0  0  0  0  0  0  0  0  0  0  0  0
   37.4710   20.9610   30.5240 H   0  0  0  0  0  0  0  0  0  0  0  0
   35.9040   20.7980   31.4050 H   0  0  0  0  0  0  0  0  0  0  0  0
   35.5240   23.1340   31.5920 H   0  0  0  0  0  0  0  0  0  0  0  0
   37.0650   21.7930   33.6620 C   0  0  0  0  0  0  0  0  0  0  0  0
   35.9730   20.9030   33.8360 C   0  0  0  0  0  0  0  0  0  0  0  0
   35.6360   20.6730   35.1510 C   0  0  0  0  0  0  0  0  0  0  0  0
   36.3300   21.2780   36.1610 N   0  0  0  0  0  0  0  0  0  0  0  0
   37.3660   22.1220   35.9440 C   0  0  0  0  0  0  0  0  0  0  0  0
   37.7240   22.3680   34.6490 N   0  0  0  0  0  0  0  0  0  0  0  0
   38.0700   22.7430   36.9800 N   0  0  0  0  0  0  0  0  0  0  0  0
   35.4350   20.4320   33.0520 H   0  0  0  0  0  0  0  0  0  0  0  0
   34.8120   20.0040   35.3430 H   0  0  0  0  0  0  0  0  0  0  0  0
   37.8370   22.4380   37.9690 H   0  0  0  0  0  0  0  0  0  0  0  0
   38.7870   23.4710   36.7730 H   0  0  0  0  0  0  0  0  0  0  0  0
   37.2080   23.8010   30.5770 O   0  0  0  0  0  0  0  0  0  0  0  0
   37.9420   26.2600   30.3810 O   0  0  0  0  0  0  0  0  0  0  0  0
   36.9300   25.3790   31.0370 P   0  0  1  0  0  0  0  0  0  0  0  0
   35.3980   25.8890   30.4070 O   0  0  0  0  0  0  0  0  0  0  0  0
   35.1720   25.3150   29.6250 H   0  0  0  0  0  0  0  0  0  0  0  0
   36.9220   25.4690   32.7120 O   0  0  0  0  0  0  0  0  0  0  0  0
   37.7020   26.5560   34.6220 C   0  0  2  0  0  3  0  0  0  0  0  0
   38.0510   26.0370   33.2490 C   0  0  1  0  0  3  0  0  0  0  0  0
   39.1510   25.1860   33.2350 O   0  0  0  0  0  0  0  0  0  0  0  0
   40.2470   25.9880   33.6270 C   0  0  0  0  0  2  0  0  0  0  0  0
   40.0480   26.1710   35.1370 C   0  0  1  0  0  3  0  0  0  0  0  0
   38.9150   27.1970   35.2380 C   0  0  2  0  0  3  0  0  0  0  0  0
   37.3270   25.5030   35.4780 O   0  0  0  0  0  0  0  0  0  0  0  0
   36.3580   25.5490   35.5750 H   0  0  0  0  0  0  0  0  0  0  0  0
   39.5410   24.9730   35.6380 O   0  0  0  0  0  0  0  0  0  0  0  0
   39.9630   24.8070   36.5030 H   0  0  0  0  0  0  0  0  0  0  0  0
   38.7080   27.5770   36.5530 O   0  0  0  0  0  0  0  0  0  0  0  0
   38.1900   26.8440   37.0000 H   0  0  0  0  0  0  0  0  0  0  0  0
  1  4  1  6  0  0  0
  1  8  1  0  0  0  0
  2  6  1  0  0  0  0
  2  3  1  0  0  0  0
  2  1  1  0  0  0  0
  3  7  1  1  0  0  0
  3  1  1  0  0  0  0
  5  2  1  0  0  0  0
  8  9  2  0  0  0  0
  8 13  1  0  0  0  0
  9 10  1  0  0  0  0
 10 16  1  0  0  0  0
 10 11  2  0  0  0  0
 12 11  1  0  0  0  0
 12 14  1  0  0  0  0
 13 12  2  0  0  0  0
 14 17  1  0  0  0  0
 15  9  1  0  0  0  0
 18 14  1  0  0  0  0
 19 21  1  0  0  0  0
 19  3  1  0  0  0  0
 21 20  2  6  0  0  0
 21 24  1  0  0  0  0
 22 21  1  0  0  0  0
 23 22  1  0  0  0  0
 25 30  1  0  0  0  0
 25 31  1  1  0  0  0
 26 24  1  1  0  0  0
 26 25  1  0  0  0  0
 27 26  1  0  0  0  0
 27 28  1  0  0  0  0
 28 29  1  0  0  0  0
 29 30  1  0  0  0  0
 29 33  1  1  0  0  0
 30 35  1  1  0  0  0
 31 32  1  0  0  0  0
 33 34  1  0  0  0  0
 35 36  1  0  0  0  0
M  END
>  <minimizedAffinity>
-5.43792963

$$$$

 OpenBabel03272504583D

 36 38  0  0  1  0  0  0  0  0999 V2000
   37.6020   27.4130   32.0070 C   0  0  1  0  0  0  0  0  0  0  0  0
   36.6620   26.4310   31.5260 C   0  0  0  0  0  0  0  0  0  0  0  0
   36.1790   27.7500   32.0360 C   0  0  2  0  0  0  0  0  0  0  0  0
   38.2220   28.0680   31.2980 H   0  0  0  0  0  0  0  0  0  0  0  0
   36.9790   26.1230   30.5490 H   0  0  0  0  0  0  0  0  0  0  0  0
   36.4740   25.5590   32.1880 H   0  0  0  0  0  0  0  0  0  0  0  0
   35.4500   27.6080   32.8100 H   0  0  0  0  0  0  0  0  0  0  0  0
   38.2880   27.2430   33.3310 C   0  0  0  0  0  0  0  0  0  0  0  0
   37.4450   27.2700   34.4720 C   0  0  0  0  0  0  0  0  0  0  0  0
   38.1070   27.1110   35.6680 C   0  0  0  0  0  0  0  0  0  0  0  0
   39.4630   26.9450   35.6930 N   0  0  0  0  0  0  0  0  0  0  0  0
   40.2270   26.9270   34.5760 C   0  0  0  0  0  0  0  0  0  0  0  0
   39.5960   27.0820   33.3740 N   0  0  0  0  0  0  0  0  0  0  0  0
   41.6150   26.7620   34.6060 N   0  0  0  0  0  0  0  0  0  0  0  0
   36.3910   27.3980   34.4520 H   0  0  0  0  0  0  0  0  0  0  0  0
   37.5150   27.1230   36.5700 H   0  0  0  0  0  0  0  0  0  0  0  0
   42.0510   26.5310   35.5450 H   0  0  0  0  0  0  0  0  0  0  0  0
   42.1810   26.8650   33.7370 H   0  0  0  0  0  0  0  0  0  0  0  0
   35.7680   28.6580   31.0470 O   0  0  0  0  0  0  0  0  0  0  0  0
   36.9010   30.9690   31.0580 O   0  0  0  0  0  0  0  0  0  0  0  0
   35.7570   30.2120   31.6500 P   0  0  1  0  0  0  0  0  0  0  0  0
   34.3310   31.0250   31.0930 O   0  0  0  0  0  0  0  0  0  0  0  0
   34.0110   30.5680   30.2670 H   0  0  0  0  0  0  0  0  0  0  0  0
   35.7670   30.1510   33.3260 O   0  0  0  0  0  0  0  0  0  0  0  0
   35.2390   31.0260   35.4220 C   0  0  2  0  0  3  0  0  0  0  0  0
   35.2180   31.2550   33.9320 C   0  0  1  0  0  3  0  0  0  0  0  0
   35.8150   32.4480   33.5390 O   0  0  0  0  0  0  0  0  0  0  0  0
   35.0070   33.4680   34.0910 C   0  0  0  0  0  2  0  0  0  0  0  0
   35.3600   33.4500   35.5830 C   0  0  1  0  0  3  0  0  0  0  0  0
   34.6340   32.2120   36.1200 C   0  0  2  0  0  3  0  0  0  0  0  0
   36.5610   30.9140   35.8950 O   0  0  0  0  0  0  0  0  0  0  0  0
   36.7160   29.9700   36.0800 H   0  0  0  0  0  0  0  0  0  0  0  0
   36.7240   33.1810   35.6850 O   0  0  0  0  0  0  0  0  0  0  0  0
   37.0860   33.7340   36.4050 H   0  0  0  0  0  0  0  0  0  0  0  0
   34.7420   32.1340   37.4970 O   0  0  0  0  0  0  0  0  0  0  0  0
   35.6580   31.7850   37.7090 H   0  0  0  0  0  0  0  0  0  0  0  0
  1  4  1  6  0  0  0
  1  3  1  0  0  0  0
  1  8  1  0  0  0  0
  2  1  1  0  0  0  0
  2  3  1  0  0  0  0
  2  6  1  0  0  0  0
  3  7  1  1  0  0  0
  5  2  1  0  0  0  0
  8 13  2  0  0  0  0
  8  9  1  0  0  0  0
  9 10  2  0  0  0  0
 10 11  1  0  0  0  0
 10 16  1  0  0  0  0
 12 14  1  0  0  0  0
 12 11  2  0  0  0  0
 13 12  1  0  0  0  0
 14 17  1  0  0  0  0
 15  9  1  0  0  0  0
 18 14  1  0  0  0  0
 19 21  1  0  0  0  0
 19  3  1  0  0  0  0
 21 20  2  6  0  0  0
 21 24  1  0  0  0  0
 22 21  1  0  0  0  0
 23 22  1  0  0  0  0
 25 31  1  1  0  0  0
 25 30  1  0  0  0  0
 26 24  1  6  0  0  0
 26 25  1  0  0  0  0
 27 26  1  0  0  0  0
 27 28  1  0  0  0  0
 28 29  1  0  0  0  0
 29 33  1  6  0  0  0
 29 30  1  0  0  0  0
 30 35  1  1  0  0  0
 31 32  1  0  0  0  0
 33 34  1  0  0  0  0
 35 36  1  0  0  0  0
M  END
>  <minimizedAffinity>
-5.3131566

$$$$

 OpenBabel03272504583D

 36 38  0  0  1  0  0  0  0  0999 V2000
   39.6640   26.9970   30.7310 C   0  0  1  0  0  0  0  0  0  0  0  0
   40.7790   27.3780   31.5620 C   0  0  0  0  0  0  0  0  0  0  0  0
   39.4070   27.2720   32.1440 C   0  0  2  0  0  0  0  0  0  0  0  0
   39.4710   25.9090   30.4260 H   0  0  0  0  0  0  0  0  0  0  0  0
   41.5520   26.6460   31.4330 H   0  0  0  0  0  0  0  0  0  0  0  0
   41.1690   28.4100   31.4270 H   0  0  0  0  0  0  0  0  0  0  0  0
   39.1360   28.1880   32.6320 H   0  0  0  0  0  0  0  0  0  0  0  0
   39.0810   27.9550   29.7340 C   0  0  0  0  0  0  0  0  0  0  0  0
   37.9320   28.6700   30.1620 C   0  0  0  0  0  0  0  0  0  0  0  0
   37.4240   29.5380   29.2220 C   0  0  0  0  0  0  0  0  0  0  0  0
   38.0180   29.6600   27.9980 N   0  0  0  0  0  0  0  0  0  0  0  0
   39.1140   28.9540   27.6340 C   0  0  0  0  0  0  0  0  0  0  0  0
   39.6410   28.0850   28.5470 N   0  0  0  0  0  0  0  0  0  0  0  0
   39.7150   29.0780   26.3780 N   0  0  0  0  0  0  0  0  0  0  0  0
   37.4720   28.5760   31.1140 H   0  0  0  0  0  0  0  0  0  0  0  0
   36.5500   30.1090   29.4940 H   0  0  0  0  0  0  0  0  0  0  0  0
   39.3470   29.8430   25.7420 H   0  0  0  0  0  0  0  0  0  0  0  0
   40.4890   28.4390   26.0940 H   0  0  0  0  0  0  0  0  0  0  0  0
   39.1800   26.1340   32.9350 O   0  0  0  0  0  0  0  0  0  0  0  0
   37.0500   27.5100   33.3740 O   0  0  0  0  0  0  0  0  0  0  0  0
   37.6240   26.1410   33.5330 P   0  0  1  0  0  0  0  0  0  0  0  0
   36.6370   25.1090   32.5510 O   0  0  0  0  0  0  0  0  0  0  0  0
   37.0660   25.0230   31.6560 H   0  0  0  0  0  0  0  0  0  0  0  0
   37.6420   25.5820   35.1150 O   0  0  0  0  0  0  0  0  0  0  0  0
   38.4860   24.2190   36.8080 C   0  0  2  0  0  3  0  0  0  0  0  0
   38.5370   24.5650   35.3410 C   0  0  1  0  0  3  0  0  0  0  0  0
   38.3480   23.4730   34.5010 O   0  0  0  0  0  0  0  0  0  0  0  0
   39.4590   22.6300   34.7310 C   0  0  0  0  0  2  0  0  0  0  0  0
   39.1630   21.9940   36.0950 C   0  0  1  0  0  3  0  0  0  0  0  0
   39.4630   23.1140   37.0970 C   0  0  2  0  0  3  0  0  0  0  0  0
   37.2140   23.7330   37.1660 O   0  0  0  0  0  0  0  0  0  0  0  0
   36.7660   24.4460   37.6560 H   0  0  0  0  0  0  0  0  0  0  0  0
   37.7890   21.7680   36.1580 O   0  0  0  0  0  0  0  0  0  0  0  0
   37.6470   20.9080   36.6010 H   0  0  0  0  0  0  0  0  0  0  0  0
   39.3760   22.6490   38.3970 O   0  0  0  0  0  0  0  0  0  0  0  0
   38.4030   22.5930   38.6330 H   0  0  0  0  0  0  0  0  0  0  0  0
  1  4  1  6  0  0  0
  1  2  1  0  0  0  0
  1  3  1  0  0  0  0
  2  3  1  0  0  0  0
  3  7  1  1  0  0  0
  3 19  1  0  0  0  0
  5  2  1  0  0  0  0
  6  2  1  0  0  0  0
  8  9  1  0  0  0  0
  8  1  1  0  0  0  0
  9 15  1  0  0  0  0
 10 16  1  0  0  0  0
 10  9  2  0  0  0  0
 11 10  1  0  0  0  0
 12 11  2  0  0  0  0
 12 13  1  0  0  0  0
 13  8  2  0  0  0  0
 14 12  1  0  0  0  0
 17 14  1  0  0  0  0
 18 14  1  0  0  0  0
 19 21  1  0  0  0  0
 21 20  2  6  0  0  0
 21 24  1  0  0  0  0
 22 21  1  0  0  0  0
 23 22  1  0  0  0  0
 25 30  1  0  0  0  0
 25 31  1  6  0  0  0
 26 24  1  1  0  0  0
 26 25  1  0  0  0  0
 27 28  1  0  0  0  0
 27 26  1  0  0  0  0
 28 29  1  0  0  0  0
 29 33  1  6  0  0  0
 29 30  1  0  0  0  0
 30 35  1  1  0  0  0
 31 32  1  0  0  0  0
 33 34  1  0  0  0  0
 35 36  1  0  0  0  0
M  END
>  <minimizedAffinity>
-5.2498641

$$$$
