
 OpenBabel03272503503D

 40 42  0  0  1  0  0  0  0  0999 V2000
   33.2400   27.3110   45.8400 C   0  0  1  0  0  0  0  0  0  0  0  0
   33.9250   27.4560   47.2150 C   0  0  2  0  0  0  0  0  0  0  0  0
   33.7530   26.2320   47.7800 O   0  0  0  0  0  0  0  0  0  0  0  0
   34.0710   25.3310   46.7880 C   0  0  0  0  0  0  0  0  0  0  0  0
   33.6300   25.9010   45.4760 C   0  0  2  0  0  0  0  0  0  0  0  0
   33.7170   28.0610   45.1820 H   0  0  0  0  0  0  0  0  0  0  0  0
   34.9790   27.7630   47.0010 H   0  0  0  0  0  0  0  0  0  0  0  0
   33.4370   24.4210   46.9940 H   0  0  0  0  0  0  0  0  0  0  0  0
   35.1100   24.9700   46.8190 H   0  0  0  0  0  0  0  0  0  0  0  0
   32.7810   25.3610   45.0420 H   0  0  0  0  0  0  0  0  0  0  0  0
   31.8790   27.5240   45.9540 O   0  0  0  0  0  0  0  0  0  0  0  0
   31.4610   26.7410   46.3600 H   0  0  0  0  0  0  0  0  0  0  0  0
   33.2890   28.5080   47.8080 O   0  0  0  0  0  0  0  0  0  0  0  0
   35.3470   29.8100   46.7870 O   0  0  0  0  0  0  0  0  0  0  0  0
   34.0800   29.9810   47.6180 P   0  0  1  0  0  0  0  0  0  0  0  0
   33.1110   31.0470   46.7290 O   0  0  0  0  0  0  0  0  0  0  0  0
   32.1740   30.8630   46.9930 H   0  0  0  0  0  0  0  0  0  0  0  0
   34.3840   30.5900   49.1790 O   0  0  0  0  0  0  0  0  0  0  0  0
   35.6140   30.4810   49.7920 C   0  0  0  0  0  0  0  0  0  0  0  0
   35.9610   29.4700   50.7130 C   0  0  0  0  0  0  0  0  0  0  0  0
   37.2430   29.4900   51.2490 C   0  0  0  0  0  0  0  0  0  0  0  0
   38.1010   30.4860   50.8560 N   0  0  0  0  0  0  0  0  0  0  0  0
   37.7300   31.4460   49.9640 C   0  0  0  0  0  0  0  0  0  0  0  0
   36.4840   31.4470   49.4260 N   0  0  0  0  0  0  0  0  0  0  0  0
   35.1930   28.7710   50.9180 H   0  0  0  0  0  0  0  0  0  0  0  0
   37.4960   28.7260   51.9410 H   0  0  0  0  0  0  0  0  0  0  0  0
   38.4750   32.1910   49.7140 H   0  0  0  0  0  0  0  0  0  0  0  0
   34.6720   25.9270   44.5580 O   0  0  0  0  0  0  0  0  0  0  0  0
   34.8330   24.7640   42.4840 C   0  0  1  0  0  3  0  0  0  0  0  0
   34.2660   25.9450   43.2380 C   0  0  2  0  0  3  0  0  0  0  0  0
   34.7960   27.1340   42.6910 O   0  0  0  0  0  0  0  0  0  0  0  0
   36.1890   27.1030   42.8560 C   0  0  0  0  0  2  0  0  0  0  0  0
   36.7840   26.1100   41.8750 C   0  0  1  0  0  3  0  0  0  0  0  0
   35.6670   25.2550   41.3130 C   0  0  2  0  0  3  0  0  0  0  0  0
   35.7290   24.0310   43.2880 O   0  0  0  0  0  0  0  0  0  0  0  0
   36.0950   24.5720   44.0140 H   0  0  0  0  0  0  0  0  0  0  0  0
   37.3960   26.7880   40.7980 O   0  0  0  0  0  0  0  0  0  0  0  0
   37.5350   26.1080   40.0940 H   0  0  0  0  0  0  0  0  0  0  0  0
   34.9090   26.0200   40.4310 O   0  0  0  0  0  0  0  0  0  0  0  0
   34.0210   25.6070   40.3580 H   0  0  0  0  0  0  0  0  0  0  0  0
  1  6  1  6  0  0  0
  1 11  1  0  0  0  0
  1  2  1  0  0  0  0
  2  7  1  6  0  0  0
  2  3  1  0  0  0  0
  2 13  1  0  0  0  0
  4  9  1  0  0  0  0
  4  8  1  0  0  0  0
  4  3  1  0  0  0  0
  5 10  1  6  0  0  0
  5  1  1  0  0  0  0
  5  4  1  0  0  0  0
 11 12  1  0  0  0  0
 15 14  2  6  0  0  0
 15 13  1  0  0  0  0
 15 18  1  0  0  0  0
 16 17  1  0  0  0  0
 16 15  1  0  0  0  0
 18 19  1  0  0  0  0
 19 20  1  0  0  0  0
 20 25  1  0  0  0  0
 20 21  2  0  0  0  0
 21 26  1  0  0  0  0
 22 21  1  0  0  0  0
 23 22  2  0  0  0  0
 24 19  2  0  0  0  0
 24 23  1  0  0  0  0
 27 23  1  0  0  0  0
 28  5  1  0  0  0  0
 29 30  1  0  0  0  0
 29 35  1  1  0  0  0
 30 28  1  1  0  0  0
 31 32  1  0  0  0  0
 31 30  1  0  0  0  0
 33 37  1  6  0  0  0
 33 32  1  0  0  0  0
 34 39  1  6  0  0  0
 34 33  1  0  0  0  0
 34 29  1  0  0  0  0
 35 36  1  0  0  0  0
 38 37  1  0  0  0  0
 40 39  1  0  0  0  0
M  END
>  <minimizedAffinity>
-4.13552856

>  <minimizedRMSD>
1.3791585

$$$$
