
 OpenBabel03272509453D

 22 23  0  0  1  0  0  0  0  0999 V2000
   33.2620   27.9500   48.8580 C   0  0  2  0  0  3  0  0  0  0  0  0
   34.3520   28.4070   47.9430 C   0  0  1  0  0  3  0  0  0  0  0  0
   34.0510   28.2670   46.5980 O   0  0  0  0  0  0  0  0  0  0  0  0
   32.8460   28.8230   46.2240 C   0  0  0  0  0  2  0  0  0  0  0  0
   31.6610   28.1990   46.9240 C   0  0  1  0  0  3  0  0  0  0  0  0
   32.0550   27.3970   48.1140 C   0  0  2  0  0  3  0  0  0  0  0  0
   32.8620   28.9590   49.7590 O   0  0  0  0  0  0  0  0  0  0  0  0
   33.0350   29.8620   49.3970 H   0  0  0  0  0  0  0  0  0  0  0  0
   30.7430   29.1970   47.3020 O   0  0  0  0  0  0  0  0  0  0  0  0
   31.2540   29.9110   47.7510 H   0  0  0  0  0  0  0  0  0  0  0  0
   30.9660   27.3640   48.9830 O   0  0  0  0  0  0  0  0  0  0  0  0
   31.0760   27.9950   49.7300 H   0  0  0  0  0  0  0  0  0  0  0  0
   34.7920   29.7370   48.1930 O   0  0  0  0  0  0  0  0  0  0  0  0
   37.6090   29.5310   50.4880 C   0  0  0  0  0  0  0  0  0  0  0  0
   38.1510   30.8180   50.3300 C   0  0  0  0  0  0  0  0  0  0  0  0
   37.5090   31.6920   49.4340 C   0  0  0  0  0  0  0  0  0  0  0  0
   36.3860   31.2390   48.7620 N   0  0  0  0  0  0  0  0  0  0  0  0
   35.9150   29.9950   48.9550 C   0  0  0  0  0  0  0  0  0  0  0  0
   36.5170   29.1440   49.8080 N   0  0  0  0  0  0  0  0  0  0  0  0
   38.0450   28.8000   51.1580 H   0  0  0  0  0  0  0  0  0  0  0  0
   39.0250   31.1010   50.8870 H   0  0  0  0  0  0  0  0  0  0  0  0
   37.8850   32.6760   49.2850 H   0  0  0  0  0  0  0  0  0  0  0  0
  1  7  1  6  0  0  0
  2 13  1  6  0  0  0
  2  1  1  0  0  0  0
  3  2  1  0  0  0  0
  4  3  1  0  0  0  0
  4  5  1  0  0  0  0
  5  9  1  1  0  0  0
  5  6  1  0  0  0  0
  6  1  1  0  0  0  0
  6 11  1  1  0  0  0
  8  7  1  0  0  0  0
  9 10  1  0  0  0  0
 11 12  1  0  0  0  0
 13 18  1  0  0  0  0
 14 20  1  0  0  0  0
 15 14  1  0  0  0  0
 15 21  1  0  0  0  0
 16 15  2  0  0  0  0
 17 18  2  0  0  0  0
 17 16  1  0  0  0  0
 18 19  1  0  0  0  0
 19 14  2  0  0  0  0
 22 16  1  0  0  0  0
M  END
>  <minimizedAffinity>
-4.74418354

>  <minimizedRMSD>
2.34428096

$$$$
