
 OpenBabel03272503503D

 40 42  0  0  1  0  0  0  0  0999 V2000
   32.7850   27.3780   46.1010 C   0  0  1  0  0  0  0  0  0  0  0  0
   33.8690   27.5350   47.1890 C   0  0  2  0  0  0  0  0  0  0  0  0
   33.9240   26.2990   47.7540 O   0  0  0  0  0  0  0  0  0  0  0  0
   33.9380   25.4200   46.6930 C   0  0  0  0  0  0  0  0  0  0  0  0
   33.0830   25.9880   45.6020 C   0  0  2  0  0  0  0  0  0  0  0  0
   33.0050   28.1520   45.3410 H   0  0  0  0  0  0  0  0  0  0  0  0
   34.7890   27.8820   46.6560 H   0  0  0  0  0  0  0  0  0  0  0  0
   33.4300   24.4860   47.0710 H   0  0  0  0  0  0  0  0  0  0  0  0
   34.9430   25.0970   46.3830 H   0  0  0  0  0  0  0  0  0  0  0  0
   32.1570   25.4210   45.4500 H   0  0  0  0  0  0  0  0  0  0  0  0
   31.5260   27.5410   46.6470 O   0  0  0  0  0  0  0  0  0  0  0  0
   31.2850   26.7390   47.1490 H   0  0  0  0  0  0  0  0  0  0  0  0
   33.4230   28.5570   47.9760 O   0  0  0  0  0  0  0  0  0  0  0  0
   35.3480   29.8650   46.7300 O   0  0  0  0  0  0  0  0  0  0  0  0
   34.1360   30.0430   47.6360 P   0  0  1  0  0  0  0  0  0  0  0  0
   33.0640   31.0090   46.7510 O   0  0  0  0  0  0  0  0  0  0  0  0
   32.1550   30.8080   47.0930 H   0  0  0  0  0  0  0  0  0  0  0  0
   34.5190   30.7660   49.1290 O   0  0  0  0  0  0  0  0  0  0  0  0
   35.7310   30.5730   49.7580 C   0  0  0  0  0  0  0  0  0  0  0  0
   35.9970   29.5390   50.6790 C   0  0  0  0  0  0  0  0  0  0  0  0
   37.2700   29.4710   51.2320 C   0  0  0  0  0  0  0  0  0  0  0  0
   38.1980   30.4090   50.8540 N   0  0  0  0  0  0  0  0  0  0  0  0
   37.9050   31.3940   49.9610 C   0  0  0  0  0  0  0  0  0  0  0  0
   36.6690   31.4810   49.4070 N   0  0  0  0  0  0  0  0  0  0  0  0
   35.1820   28.8920   50.8710 H   0  0  0  0  0  0  0  0  0  0  0  0
   37.4630   28.6900   51.9240 H   0  0  0  0  0  0  0  0  0  0  0  0
   38.7010   32.0890   49.7240 H   0  0  0  0  0  0  0  0  0  0  0  0
   33.7770   26.0610   44.4000 O   0  0  0  0  0  0  0  0  0  0  0  0
   35.9480   25.6140   43.5250 C   0  0  1  0  0  3  0  0  0  0  0  0
   34.7280   25.0740   44.2330 C   0  0  2  0  0  3  0  0  0  0  0  0
   34.1220   24.0930   43.4200 O   0  0  0  0  0  0  0  0  0  0  0  0
   33.7280   24.7080   42.2240 C   0  0  0  0  0  2  0  0  0  0  0  0
   34.9570   24.9850   41.3770 C   0  0  1  0  0  3  0  0  0  0  0  0
   36.1880   24.8290   42.2460 C   0  0  2  0  0  3  0  0  0  0  0  0
   35.7410   26.9430   43.1030 O   0  0  0  0  0  0  0  0  0  0  0  0
   34.7940   27.1550   43.0140 H   0  0  0  0  0  0  0  0  0  0  0  0
   35.0500   24.0520   40.3220 O   0  0  0  0  0  0  0  0  0  0  0  0
   35.9730   24.1270   39.9730 H   0  0  0  0  0  0  0  0  0  0  0  0
   36.3910   23.4770   42.5070 O   0  0  0  0  0  0  0  0  0  0  0  0
   36.9310   23.4040   43.3230 H   0  0  0  0  0  0  0  0  0  0  0  0
  1  6  1  6  0  0  0
  1 11  1  0  0  0  0
  1  2  1  0  0  0  0
  2  7  1  6  0  0  0
  2  3  1  0  0  0  0
  2 13  1  0  0  0  0
  4  8  1  0  0  0  0
  4  3  1  0  0  0  0
  5 10  1  6  0  0  0
  5  1  1  0  0  0  0
  5  4  1  0  0  0  0
  9  4  1  0  0  0  0
 11 12  1  0  0  0  0
 15 14  2  6  0  0  0
 15 13  1  0  0  0  0
 15 18  1  0  0  0  0
 16 17  1  0  0  0  0
 16 15  1  0  0  0  0
 18 19  1  0  0  0  0
 19 20  1  0  0  0  0
 20 25  1  0  0  0  0
 20 21  2  0  0  0  0
 21 26  1  0  0  0  0
 22 21  1  0  0  0  0
 23 22  2  0  0  0  0
 24 19  2  0  0  0  0
 24 23  1  0  0  0  0
 27 23  1  0  0  0  0
 28  5  1  0  0  0  0
 29 35  1  6  0  0  0
 29 30  1  0  0  0  0
 30 28  1  6  0  0  0
 31 30  1  0  0  0  0
 32 31  1  0  0  0  0
 33 37  1  6  0  0  0
 33 32  1  0  0  0  0
 33 34  1  0  0  0  0
 34 39  1  1  0  0  0
 34 29  1  0  0  0  0
 36 35  1  0  0  0  0
 38 37  1  0  0  0  0
 39 40  1  0  0  0  0
M  END
>  <minimizedAffinity>
-4.0738306

>  <minimizedRMSD>
2.16908097

$$$$
