
     RDKit          3D

 28 29  0  0  0  0  0  0  0  0999 V2000
   37.3302   30.2348   51.4218 C   0  0  0  0  0  0  0  0  0  0  0  0
   38.0855   30.7423   50.3499 C   0  0  0  0  0  0  0  0  0  0  0  0
   37.6996   30.3744   49.0476 C   0  0  0  0  0  0  0  0  0  0  0  0
   36.6063   29.5398   48.8952 N   0  0  0  0  0  0  0  0  0  0  0  0
   35.9232   29.0865   49.9611 C   0  0  0  0  0  0  0  0  0  0  0  0
   36.2770   29.4273   51.2155 N   0  0  0  0  0  0  0  0  0  0  0  0
   34.8702   28.2699   49.5981 O   0  0  0  0  0  0  0  0  0  0  0  0
   37.5627   30.4709   52.4535 H   0  0  0  0  0  0  0  0  0  0  0  0
   38.9229   31.3862   50.5453 H   0  0  0  0  0  0  0  0  0  0  0  0
   38.2434   30.7359   48.2084 H   0  0  0  0  0  0  0  0  0  0  0  0
   32.3631   28.9278   49.3297 O   0  0  0  0  0  0  0  0  0  0  0  0
   32.5809   28.0793   50.4353 C   0  0  2  0  0  0  0  0  0  0  0  0
   34.0149   27.6812   50.5719 C   0  0  1  0  0  0  0  0  0  0  0  0
   34.2190   26.3114   50.5935 O   0  0  0  0  0  0  0  0  0  0  0  0
   33.6300   25.6310   49.5493 C   0  0  0  0  0  0  0  0  0  0  0  0
   32.1250   25.7711   49.5206 C   0  0  2  0  0  0  0  0  0  0  0  0
   31.6824   25.9547   48.1978 O   0  0  0  0  0  0  0  0  0  0  0  0
   31.6364   26.8858   50.3771 C   0  0  2  0  0  0  0  0  0  0  0  0
   30.4099   27.3058   49.8686 O   0  0  0  0  0  0  0  0  0  0  0  0
   33.0444   28.7921   48.6252 H   0  0  0  0  0  0  0  0  0  0  0  0
   32.2534   28.6767   51.3177 H   0  0  0  0  0  0  0  0  0  0  0  0
   34.4231   28.0476   51.5604 H   0  0  0  0  0  0  0  0  0  0  0  0
   33.8307   24.5473   49.7454 H   0  0  0  0  0  0  0  0  0  0  0  0
   34.0519   25.8521   48.5528 H   0  0  0  0  0  0  0  0  0  0  0  0
   31.5974   24.8404   49.8726 H   0  0  0  0  0  0  0  0  0  0  0  0
   32.2441   26.6584   47.7950 H   0  0  0  0  0  0  0  0  0  0  0  0
   31.5577   26.5132   51.4359 H   0  0  0  0  0  0  0  0  0  0  0  0
   30.4968   28.1321   49.3406 H   0  0  0  0  0  0  0  0  0  0  0  0
  2  1  2  0
  3  2  1  0
  4  3  2  0
  4  5  1  0
  5  6  2  0
  6  1  1  0
  7  5  1  0
  1  8  1  0
  2  9  1  0
  3 10  1  0
 11 12  1  0
 12 13  1  0
 13 14  1  0
 14 15  1  0
 15 16  1  0
 16 17  1  0
 16 18  1  0
 18 19  1  0
 18 12  1  0
 11 20  1  0
 12 21  1  1
 13 22  1  1
 15 23  1  0
 15 24  1  0
 16 25  1  1
 17 26  1  0
 18 27  1  1
 19 28  1  0
  7 13  1  0
M  ISO  3   8  14   9  14  10  14
M  END
>  <DihAtoms>  (1) 
4,6,12,11

>  <DihDeg>  (1) 
119.74823588195196

$$$$
