
 OpenBabel03272506443D

 35 37  0  0  1  0  0  0  0  0999 V2000
   32.4090   28.4140   47.5400 C   0  0  2  0  0  0  0  0  0  0  0  0
   33.6780   28.4020   48.3770 C   0  0  1  0  0  0  0  0  0  0  0  0
   34.2000   27.1370   48.3240 O   0  0  0  0  0  0  0  0  0  0  0  0
   33.5350   26.3960   47.3590 C   0  0  0  0  0  0  0  0  0  0  0  0
   32.8030   27.4180   46.4780 C   0  0  1  0  0  0  0  0  0  0  0  0
   31.5870   28.0430   48.1800 H   0  0  0  0  0  0  0  0  0  0  0  0
   33.3980   28.7550   49.3790 H   0  0  0  0  0  0  0  0  0  0  0  0
   34.3170   25.8530   46.7820 H   0  0  0  0  0  0  0  0  0  0  0  0
   32.7580   25.7390   47.7780 H   0  0  0  0  0  0  0  0  0  0  0  0
   33.5250   27.8860   45.8120 H   0  0  0  0  0  0  0  0  0  0  0  0
   32.1610   29.6770   47.0290 O   0  0  0  0  0  0  0  0  0  0  0  0
   31.6040   29.6600   46.2220 H   0  0  0  0  0  0  0  0  0  0  0  0
   34.8380   29.5390   47.5560 S   0  0  0  0  0  0  0  0  0  0  0  0
   37.4110   29.4860   50.5720 C   0  0  0  0  0  0  0  0  0  0  0  0
   38.0230   30.7410   50.5540 C   0  0  0  0  0  0  0  0  0  0  0  0
   37.6150   31.6450   49.5550 C   0  0  0  0  0  0  0  0  0  0  0  0
   36.6630   31.2580   48.6750 N   0  0  0  0  0  0  0  0  0  0  0  0
   36.0940   30.0370   48.7240 C   0  0  0  0  0  0  0  0  0  0  0  0
   36.4560   29.1500   49.6610 N   0  0  0  0  0  0  0  0  0  0  0  0
   37.6500   28.7160   51.2990 H   0  0  0  0  0  0  0  0  0  0  0  0
   38.7680   30.9700   51.2860 H   0  0  0  0  0  0  0  0  0  0  0  0
   38.0830   32.6200   49.5330 H   0  0  0  0  0  0  0  0  0  0  0  0
   31.7140   26.8170   45.8760 O   0  0  0  0  0  0  0  0  0  0  0  0
   32.7600   27.8570   43.9650 C   0  0  2  0  0  3  0  0  0  0  0  0
   31.9710   26.7110   44.5100 C   0  0  2  0  0  3  0  0  0  0  0  0
   30.7940   26.4550   43.8270 O   0  0  0  0  0  0  0  0  0  0  0  0
   30.0190   27.5890   43.6310 C   0  0  0  0  0  2  0  0  0  0  0  0
   30.7730   28.3910   42.5880 C   0  0  1  0  0  3  0  0  0  0  0  0
   31.9930   28.9290   43.2810 C   0  0  1  0  0  3  0  0  0  0  0  0
   33.7760   27.4270   43.1080 O   0  0  0  0  0  0  0  0  0  0  0  0
   33.4210   26.7520   42.5070 H   0  0  0  0  0  0  0  0  0  0  0  0
   31.1750   27.4680   41.6010 O   0  0  0  0  0  0  0  0  0  0  0  0
   31.4720   27.9320   40.7800 H   0  0  0  0  0  0  0  0  0  0  0  0
   31.5670   29.9080   44.1980 O   0  0  0  0  0  0  0  0  0  0  0  0
   32.3110   30.5720   44.2690 H   0  0  0  0  0  0  0  0  0  0  0  0
  1  6  1  1  0  0  0
  1  2  1  0  0  0  0
  2  7  1  1  0  0  0
  3  2  1  0  0  0  0
  4  9  1  0  0  0  0
  4  3  1  0  0  0  0
  5 10  1  6  0  0  0
  5  4  1  0  0  0  0
  5  1  1  0  0  0  0
  8  4  1  0  0  0  0
 11  1  1  0  0  0  0
 12 11  1  0  0  0  0
 13  2  1  0  0  0  0
 13 18  1  0  0  0  0
 14 20  1  0  0  0  0
 15 14  1  0  0  0  0
 15 21  1  0  0  0  0
 16 15  2  0  0  0  0
 17 18  2  0  0  0  0
 17 16  1  0  0  0  0
 18 19  1  0  0  0  0
 19 14  2  0  0  0  0
 22 16  1  0  0  0  0
 23  5  1  0  0  0  0
 24 30  1  6  0  0  0
 24 25  1  0  0  0  0
 25 23  1  1  0  0  0
 26 25  1  0  0  0  0
 27 26  1  0  0  0  0
 28 32  1  6  0  0  0
 28 29  1  0  0  0  0
 28 27  1  0  0  0  0
 29 24  1  0  0  0  0
 29 34  1  1  0  0  0
 31 30  1  0  0  0  0
 33 32  1  0  0  0  0
 34 35  1  0  0  0  0
M  END
>  <minimizedAffinity>
-3.83675599

>  <minimizedRMSD>
0.355876118

$$$$
