REMARK  Name = 
REMARK  9 active torsions:
REMARK  status: ('A' for Active; 'I' for Inactive)
REMARK    1  A    between atoms: C_1  and  C_4
REMARK    2  A    between atoms: C_3  and  O_11
REMARK    3  A    between atoms: O_11  and  P_13
REMARK    4  A    between atoms: P_13  and  O_14
REMARK    5  A    between atoms: P_13  and  O_15
REMARK    6  A    between atoms: O_15  and  C_27
REMARK    7  A    between atoms: O_25  and  C_26
REMARK    8  A    between atoms: C_30  and  O_31
REMARK    9  A    between atoms: C_32  and  O_33
REMARK                            x       y       z     vdW  Elec       q    Type
REMARK                         _______ _______ _______ _____ _____    ______ ____
ROOT
ATOM      1  C   UNL     1      36.992  31.562  48.670  0.00  0.00    +0.000 C 
ATOM      2  C   UNL     1      36.225  30.912  47.636  0.00  0.00    +0.000 C 
ATOM      3  C   UNL     1      37.179  30.125  48.475  0.00  0.00    +0.000 C 
ATOM      4  H   UNL     1      36.540  31.839  49.687  0.00  0.00    +0.000 HD
ATOM      5  H   UNL     1      35.193  31.163  47.785  0.00  0.00    +0.000 HD
ATOM      6  H   UNL     1      36.544  31.101  46.589  0.00  0.00    +0.000 HD
ATOM      7  H   UNL     1      37.875  29.596  47.853  0.00  0.00    +0.000 HD
ENDROOT
BRANCH   1   8
ATOM      8  C   UNL     1      38.151  32.452  48.328  0.00  0.00    +0.000 A 
ATOM      9  C   UNL     1      38.543  33.371  49.336  0.00  0.00    +0.000 A 
ATOM     10  C   UNL     1      39.608  34.171  48.988  0.00  0.00    +0.000 A 
ATOM     11  N   UNL     1      40.198  34.046  47.762  0.00  0.00    +0.000 NA
ATOM     12  C   UNL     1      39.787  33.153  46.831  0.00  0.00    +0.000 A 
ATOM     13  N   UNL     1      38.732  32.345  47.149  0.00  0.00    +0.000 NA
ATOM     14  N   UNL     1      40.390  33.032  45.576  0.00  0.00    +0.000 N 
ATOM     15  H   UNL     1      38.085  33.467  50.289  0.00  0.00    +0.000 HD
ATOM     16  H   UNL     1      39.949  34.889  49.717  0.00  0.00    +0.000 HD
ATOM     17  H   UNL     1      41.274  33.595  45.411  0.00  0.00    +0.000 HD
ATOM     18  H   UNL     1      39.977  32.413  44.846  0.00  0.00    +0.000 HD
ENDBRANCH   1   8
BRANCH   3  19
ATOM     19  O   UNL     1      36.584  29.314  49.455  0.00  0.00    +0.000 OA
BRANCH  19  21
ATOM     20  O   UNL     1      34.617  27.672  49.696  0.00  0.00    +0.000 OA
ATOM     21  P   UNL     1      35.011  28.954  49.038  0.00  0.00    +0.000 P 
BRANCH  21  22
ATOM     22  O   UNL     1      33.959  30.158  49.708  0.00  0.00    +0.000 OA
ATOM     23  H   UNL     1      34.422  30.585  50.480  0.00  0.00    +0.000 HD
ENDBRANCH  21  22
BRANCH  21  24
ATOM     24  O   UNL     1      34.876  28.939  47.366  0.00  0.00    +0.000 OA
BRANCH  24  26
ATOM     25  C   UNL     1      33.891  27.345  45.976  0.00  0.00    +0.000 C 
ATOM     26  C   UNL     1      33.655  28.511  46.905  0.00  0.00    +0.000 C 
ATOM     27  O   UNL     1      32.749  28.241  47.923  0.00  0.00    +0.000 OA
ATOM     28  C   UNL     1      31.513  28.017  47.274  0.00  0.00    +0.000 C 
ATOM     29  C   UNL     1      31.670  26.622  46.656  0.00  0.00    +0.000 C 
ATOM     30  C   UNL     1      32.574  26.857  45.441  0.00  0.00    +0.000 C 
BRANCH  25  31
ATOM     31  O   UNL     1      34.470  26.264  46.666  0.00  0.00    +0.000 OA
ATOM     32  H   UNL     1      35.409  26.233  46.408  0.00  0.00    +0.000 HD
ENDBRANCH  25  31
BRANCH  29  33
ATOM     33  O   UNL     1      32.407  25.851  47.552  0.00  0.00    +0.000 OA
ATOM     34  H   UNL     1      32.026  24.951  47.557  0.00  0.00    +0.000 HD
ENDBRANCH  29  33
BRANCH  30  35
ATOM     35  O   UNL     1      32.699  25.703  44.688  0.00  0.00    +0.000 OA
ATOM     36  H   UNL     1      33.353  25.105  45.158  0.00  0.00    +0.000 HD
ENDBRANCH  30  35
ENDBRANCH  24  26
ENDBRANCH  21  24
ENDBRANCH  19  21
ENDBRANCH   3  19
TORSDOF 9
