
     RDKit          3D

 46 48  0  0  0  0  0  0  0  0999 V2000
   35.3546   29.8348   46.7700 O   0  0  0  0  0  0  0  0  0  0  0  0
   34.0984   29.9958   47.6170 P   0  0  2  0  0  0  0  0  0  0  0  0
   33.0968   31.0308   46.7264 O   0  0  0  0  0  0  0  0  0  0  0  0
   34.4126   30.6344   49.1639 O   0  0  0  0  0  0  0  0  0  0  0  0
   35.6380   30.5060   49.7838 C   0  0  0  0  0  0  0  0  0  0  0  0
   35.9651   29.4882   50.7041 C   0  0  0  0  0  0  0  0  0  0  0  0
   37.2438   29.4892   51.2476 C   0  0  0  0  0  0  0  0  0  0  0  0
   38.1178   30.4748   50.8632 N   0  0  0  0  0  0  0  0  0  0  0  0
   37.7662   31.4419   49.9713 C   0  0  0  0  0  0  0  0  0  0  0  0
   36.5228   31.4624   49.4263 N   0  0  0  0  0  0  0  0  0  0  0  0
   33.3357   28.5117   47.8405 O   0  0  0  0  0  0  0  0  0  0  0  0
   33.0869   27.3411   45.8707 C   0  0  1  0  0  0  0  0  0  0  0  0
   33.9199   27.4811   47.1632 C   0  0  2  0  0  0  0  0  0  0  0  0
   33.8351   26.2461   47.7245 O   0  0  0  0  0  0  0  0  0  0  0  0
   34.0556   25.3654   46.6885 C   0  0  0  0  0  0  0  0  0  0  0  0
   33.4591   25.9447   45.4427 C   0  0  2  0  0  0  0  0  0  0  0  0
   31.7435   27.5264   46.1411 O   0  0  0  0  0  0  0  0  0  0  0  0
   34.3910   26.0043   44.4141 O   0  0  0  0  0  0  0  0  0  0  0  0
   32.1671   30.8345   47.0074 H   0  0  0  0  0  0  0  0  0  0  0  0
   35.1867   28.7991   50.9016 H   0  0  0  0  0  0  0  0  0  0  0  0
   37.4825   28.7204   51.9393 H   0  0  0  0  0  0  0  0  0  0  0  0
   38.5217   32.1776   49.7281 H   0  0  0  0  0  0  0  0  0  0  0  0
   33.4742   28.1104   45.1759 H   0  0  0  0  0  0  0  0  0  0  0  0
   34.9384   27.8117   46.8357 H   0  0  0  0  0  0  0  0  0  0  0  0
   33.4647   24.4398   46.9488 H   0  0  0  0  0  0  0  0  0  0  0  0
   35.0981   25.0237   46.5959 H   0  0  0  0  0  0  0  0  0  0  0  0
   32.5772   25.3938   45.0992 H   0  0  0  0  0  0  0  0  0  0  0  0
   31.3885   26.7294   46.5788 H   0  0  0  0  0  0  0  0  0  0  0  0
   35.1525   27.3114   42.4056 O   0  0  0  0  0  0  0  0  0  0  0  0
   34.5128   26.1116   42.0360 C   0  0  1  0  0  0  0  0  0  0  0  0
   33.9924   25.3767   43.2500 C   0  0  2  0  0  0  0  0  0  0  0  0
   32.5823   25.4315   43.2488 O   0  0  0  0  0  0  0  0  0  0  0  0
   32.2029   26.7796   43.3254 C   0  0  0  0  0  0  0  0  0  0  0  0
   32.4629   27.4465   41.9866 C   0  0  2  0  0  0  0  0  0  0  0  0
   31.2519   27.6289   41.2845 O   0  0  0  0  0  0  0  0  0  0  0  0
   33.3494   26.5399   41.1582 C   0  0  2  0  0  0  0  0  0  0  0  0
   32.6041   25.4461   40.7274 O   0  0  0  0  0  0  0  0  0  0  0  0
   34.8528   27.6324   43.2773 H   0  0  0  0  0  0  0  0  0  0  0  0
   35.2609   25.5174   41.5080 H   0  0  0  0  0  0  0  0  0  0  0  0
   34.2737   24.3024   43.1875 H   0  0  0  0  0  0  0  0  0  0  0  0
   31.1025   26.8044   43.4988 H   0  0  0  0  0  0  0  0  0  0  0  0
   32.6496   27.3087   44.1778 H   0  0  0  0  0  0  0  0  0  0  0  0
   32.9619   28.4183   42.1754 H   0  0  0  0  0  0  0  0  0  0  0  0
   31.5073   27.8272   40.3498 H   0  0  0  0  0  0  0  0  0  0  0  0
   33.7771   27.0783   40.2838 H   0  0  0  0  0  0  0  0  0  0  0  0
   33.2284   24.7173   40.5207 H   0  0  0  0  0  0  0  0  0  0  0  0
  2  1  2  0
  2 11  1  1
  2  4  1  0
  3  2  1  0
  4  5  1  0
  5  6  2  0
  6  7  1  0
  8  7  2  0
  9  8  1  0
 10  5  1  0
 10  9  2  0
 12 17  1  0
 12 13  1  0
 13 14  1  0
 13 11  1  0
 15 14  1  0
 16 18  1  0
 16 12  1  0
 16 15  1  0
  3 19  1  0
  6 20  1  0
  7 21  1  0
  9 22  1  0
 12 23  1  6
 13 24  1  6
 15 25  1  0
 15 26  1  0
 16 27  1  6
 17 28  1  0
 29 30  1  0
 30 31  1  0
 31 32  1  0
 32 33  1  0
 33 34  1  0
 34 35  1  0
 34 36  1  0
 36 37  1  0
 36 30  1  0
 29 38  1  0
 30 39  1  6
 31 40  1  1
 33 41  1  0
 33 42  1  0
 34 43  1  1
 35 44  1  0
 36 45  1  6
 37 46  1  0
 18 31  1  0
M  ISO  8  19   3  20  14  21  14  22  14  23  13  24  13  25  13  26  13
M  ISO  2  27  13  28   3
M  END
>  <DihAtoms>  (1) 
15,17,30,29

>  <DihDeg>  (1) 
-124.73924225924961

$$$$
