
 OpenBabel03272503493D

 40 42  0  0  1  0  0  0  0  0999 V2000
   33.2320   27.3060   45.8660 C   0  0  1  0  0  0  0  0  0  0  0  0
   33.9110   27.4590   47.2440 C   0  0  2  0  0  0  0  0  0  0  0  0
   33.7290   26.2400   47.8180 O   0  0  0  0  0  0  0  0  0  0  0  0
   34.0480   25.3300   46.8350 C   0  0  0  0  0  0  0  0  0  0  0  0
   33.6170   25.8920   45.5160 C   0  0  2  0  0  0  0  0  0  0  0  0
   33.7180   28.0490   45.2050 H   0  0  0  0  0  0  0  0  0  0  0  0
   34.9680   27.7590   47.0330 H   0  0  0  0  0  0  0  0  0  0  0  0
   33.4070   24.4250   47.0440 H   0  0  0  0  0  0  0  0  0  0  0  0
   35.0850   24.9630   46.8740 H   0  0  0  0  0  0  0  0  0  0  0  0
   32.7670   25.3530   45.0820 H   0  0  0  0  0  0  0  0  0  0  0  0
   31.8720   27.5280   45.9720 O   0  0  0  0  0  0  0  0  0  0  0  0
   31.4480   26.7510   46.3820 H   0  0  0  0  0  0  0  0  0  0  0  0
   33.2780   28.5190   47.8250 O   0  0  0  0  0  0  0  0  0  0  0  0
   35.3380   29.8050   46.7890 O   0  0  0  0  0  0  0  0  0  0  0  0
   34.0750   29.9880   47.6230 P   0  0  1  0  0  0  0  0  0  0  0  0
   33.1080   31.0520   46.7290 O   0  0  0  0  0  0  0  0  0  0  0  0
   32.1710   30.8730   46.9970 H   0  0  0  0  0  0  0  0  0  0  0  0
   34.3870   30.6060   49.1780 O   0  0  0  0  0  0  0  0  0  0  0  0
   35.6160   30.4890   49.7910 C   0  0  0  0  0  0  0  0  0  0  0  0
   35.9580   29.4720   50.7070 C   0  0  0  0  0  0  0  0  0  0  0  0
   37.2400   29.4840   51.2440 C   0  0  0  0  0  0  0  0  0  0  0  0
   38.1020   30.4790   50.8570 N   0  0  0  0  0  0  0  0  0  0  0  0
   37.7360   31.4440   49.9690 C   0  0  0  0  0  0  0  0  0  0  0  0
   36.4900   31.4540   49.4310 N   0  0  0  0  0  0  0  0  0  0  0  0
   35.1880   28.7750   50.9080 H   0  0  0  0  0  0  0  0  0  0  0  0
   37.4900   28.7150   51.9320 H   0  0  0  0  0  0  0  0  0  0  0  0
   38.4840   32.1880   49.7230 H   0  0  0  0  0  0  0  0  0  0  0  0
   34.6640   25.9050   44.6030 O   0  0  0  0  0  0  0  0  0  0  0  0
   35.5660   23.9900   43.5080 C   0  0  1  0  0  0  0  0  0  0  0  0
   34.4920   25.0540   43.5290 C   0  0  2  0  0  0  0  0  0  0  0  0
   34.6220   25.8580   42.3770 O   0  0  0  0  0  0  0  0  0  0  0  0
   35.8840   26.4710   42.4190 C   0  0  0  0  0  0  0  0  0  0  0  0
   36.9500   25.4380   42.1040 C   0  0  1  0  0  0  0  0  0  0  0  0
   36.3310   24.0590   42.1970 C   0  0  2  0  0  0  0  0  0  0  0  0
   36.5320   24.2240   44.5070 O   0  0  0  0  0  0  0  0  0  0  0  0
   36.5540   25.1600   44.7820 H   0  0  0  0  0  0  0  0  0  0  0  0
   37.4260   25.6100   40.7850 O   0  0  0  0  0  0  0  0  0  0  0  0
   37.9160   24.7810   40.5630 H   0  0  0  0  0  0  0  0  0  0  0  0
   35.4920   23.8630   41.1040 O   0  0  0  0  0  0  0  0  0  0  0  0
   34.8440   23.1650   41.3430 H   0  0  0  0  0  0  0  0  0  0  0  0
  1  6  1  6  0  0  0
  1 11  1  0  0  0  0
  1  2  1  0  0  0  0
  2  7  1  6  0  0  0
  2  3  1  0  0  0  0
  2 13  1  0  0  0  0
  4  9  1  0  0  0  0
  4  8  1  0  0  0  0
  4  3  1  0  0  0  0
  5 10  1  6  0  0  0
  5  1  1  0  0  0  0
  5  4  1  0  0  0  0
 11 12  1  0  0  0  0
 15 14  2  6  0  0  0
 15 13  1  0  0  0  0
 15 18  1  0  0  0  0
 16 17  1  0  0  0  0
 16 15  1  0  0  0  0
 18 19  1  0  0  0  0
 19 20  1  0  0  0  0
 20 25  1  0  0  0  0
 20 21  2  0  0  0  0
 21 26  1  0  0  0  0
 22 21  1  0  0  0  0
 23 22  2  0  0  0  0
 24 19  2  0  0  0  0
 24 23  1  0  0  0  0
 27 23  1  0  0  0  0
 28  5  1  0  0  0  0
 29 30  1  0  0  0  0
 29 35  1  1  0  0  0
 30 28  1  1  0  0  0
 31 32  1  0  0  0  0
 31 30  1  0  0  0  0
 33 37  1  6  0  0  0
 33 34  1  0  0  0  0
 33 32  1  0  0  0  0
 34 39  1  6  0  0  0
 34 29  1  0  0  0  0
 35 36  1  0  0  0  0
 38 37  1  0  0  0  0
 39 40  1  0  0  0  0
M  END
>  <minimizedAffinity>
-4.19820023

>  <minimizedRMSD>
0.469569623

$$$$
