REMARK  Name = 
REMARK  8 active torsions:
REMARK  status: ('A' for Active; 'I' for Inactive)
REMARK    1  A    between atoms: C_3  and  O_7
REMARK    2  A    between atoms: O_7  and  P_9
REMARK    3  A    between atoms: P_9  and  O_10
REMARK    4  A    between atoms: P_9  and  O_11
REMARK    5  A    between atoms: O_11  and  C_18
REMARK    6  A    between atoms: O_16  and  C_17
REMARK    7  A    between atoms: C_21  and  O_22
REMARK    8  A    between atoms: C_23  and  O_24
REMARK                            x       y       z     vdW  Elec       q    Type
REMARK                         _______ _______ _______ _____ _____    ______ ____
ROOT
ATOM      1  O   UNL     1      39.060  32.730  48.139  0.00  0.00    +0.000 OA
ATOM      2  P   UNL     1      38.701  31.725  47.105  0.00  0.00    +0.000 P 
ENDROOT
BRANCH   2   3
ATOM      3  O   UNL     1      37.826  32.461  45.852  0.00  0.00    +0.000 OA
ATOM      4  H   UNL     1      37.528  33.369  46.058  0.00  0.00    +0.000 HD
ENDBRANCH   2   3
BRANCH   2   5
ATOM      5  O   UNL     1      37.867  30.371  47.690  0.00  0.00    +0.000 OA
BRANCH   5   8
ATOM      6  C   UNL     1      37.340  30.157  51.355  0.00  0.00    +0.000 A 
ATOM      7  C   UNL     1      37.994  30.505  50.175  0.00  0.00    +0.000 A 
ATOM      8  C   UNL     1      37.415  30.141  48.947  0.00  0.00    +0.000 A 
ATOM      9  N   UNL     1      36.240  29.464  48.989  0.00  0.00    +0.000 NA
ATOM     10  C   UNL     1      35.638  29.146  50.157  0.00  0.00    +0.000 A 
ATOM     11  N   UNL     1      36.188  29.492  51.331  0.00  0.00    +0.000 NA
ATOM     12  H   UNL     1      37.897  30.499  52.206  0.00  0.00    +0.000 HD
ATOM     13  H   UNL     1      38.922  31.038  50.058  0.00  0.00    +0.000 HD
ATOM     14  H   UNL     1      34.696  28.602  50.168  0.00  0.00    +0.000 HD
ENDBRANCH   5   8
ENDBRANCH   2   5
BRANCH   2  15
ATOM     15  O   UNL     1      40.152  31.181  46.412  0.00  0.00    +0.000 OA
BRANCH  15  17
ATOM     16  C   UNL     1      39.870  33.374  45.716  0.00  0.00    +0.000 C 
ATOM     17  C   UNL     1      40.730  32.129  45.575  0.00  0.00    +0.000 C 
ATOM     18  O   UNL     1      41.987  32.436  46.084  0.00  0.00    +0.000 OA
ATOM     19  C   UNL     1      42.711  33.266  45.241  0.00  0.00    +0.000 C 
ATOM     20  C   UNL     1      41.829  34.098  44.346  0.00  0.00    +0.000 C 
ATOM     21  C   UNL     1      40.540  34.496  45.004  0.00  0.00    +0.000 C 
BRANCH  16  22
ATOM     22  O   UNL     1      39.750  33.673  47.065  0.00  0.00    +0.000 OA
ATOM     23  H   UNL     1      40.609  33.539  47.531  0.00  0.00    +0.000 HD
ENDBRANCH  16  22
BRANCH  20  24
ATOM     24  O   UNL     1      42.514  35.286  44.063  0.00  0.00    +0.000 OA
ATOM     25  H   UNL     1      42.068  35.808  43.350  0.00  0.00    +0.000 HD
ENDBRANCH  20  24
BRANCH  21  26
ATOM     26  O   UNL     1      40.691  35.570  45.844  0.00  0.00    +0.000 OA
ATOM     27  H   UNL     1      41.594  35.964  45.827  0.00  0.00    +0.000 HD
ENDBRANCH  21  26
ENDBRANCH  15  17
ENDBRANCH   2  15
TORSDOF 8
