
 OpenBabel03272509583D

 49 52  0  0  1  0  0  0  0  0999 V2000
   33.5360   27.4280   47.6180 C   0  0  0  0  0  0  0  0  0  0  0  0
   33.7690   27.2470   46.5340 H   0  0  0  0  0  0  0  0  0  0  0  0
   33.6730   26.4460   48.1080 H   0  0  0  0  0  0  0  0  0  0  0  0
   32.1130   27.8540   47.6460 C   0  0  0  0  0  0  0  0  0  0  0  0
   31.3010   27.3600   48.6610 C   0  0  0  0  0  0  0  0  0  0  0  0
   29.9820   27.7020   48.7590 C   0  0  0  0  0  0  0  0  0  0  0  0
   29.4590   28.5290   47.8590 N   0  0  0  0  0  0  0  0  0  0  0  0
   30.2570   29.0130   46.8640 C   0  0  0  0  0  0  0  0  0  0  0  0
   31.5550   28.6960   46.7410 N   0  0  0  0  0  0  0  0  0  0  0  0
   31.6830   26.6800   49.4200 H   0  0  0  0  0  0  0  0  0  0  0  0
   29.3610   27.3060   49.5590 H   0  0  0  0  0  0  0  0  0  0  0  0
   29.6240   29.9320   45.8860 C   0  0  0  0  0  0  0  0  0  0  0  0
   29.2910   30.8620   46.3740 H   0  0  0  0  0  0  0  0  0  0  0  0
   30.2930   30.2410   45.0600 H   0  0  0  0  0  0  0  0  0  0  0  0
   28.6930   28.2290   44.3100 C   0  0  2  0  0  3  0  0  0  0  0  0
   28.3700   29.2590   45.3710 C   0  0  1  0  0  3  0  0  0  0  0  0
   27.6850   28.5930   46.3840 O   0  0  0  0  0  0  0  0  0  0  0  0
   26.3460   28.5230   46.0080 C   0  0  0  0  0  2  0  0  0  0  0  0
   26.1810   28.2920   44.5260 C   0  0  1  0  0  3  0  0  0  0  0  0
   27.3710   27.5820   43.9240 C   0  0  1  0  0  3  0  0  0  0  0  0
   29.5460   27.2810   44.8890 O   0  0  0  0  0  0  0  0  0  0  0  0
   29.0530   26.4210   45.0170 H   0  0  0  0  0  0  0  0  0  0  0  0
   25.0760   27.4510   44.3590 O   0  0  0  0  0  0  0  0  0  0  0  0
   24.2690   27.9590   44.0360 H   0  0  0  0  0  0  0  0  0  0  0  0
   27.2430   27.7260   42.5400 O   0  0  0  0  0  0  0  0  0  0  0  0
   26.9470   26.8830   42.1190 H   0  0  0  0  0  0  0  0  0  0  0  0
   34.4720   28.4940   48.0970 C   0  0  0  0  0  0  0  0  0  0  0  0
   33.8980   29.4540   48.1150 H   0  0  0  0  0  0  0  0  0  0  0  0
   35.3250   28.6740   47.3880 H   0  0  0  0  0  0  0  0  0  0  0  0
   34.9280   28.2390   49.4130 O   0  0  0  0  0  0  0  0  0  0  0  0
   37.1440   30.0600   51.6040 C   0  0  0  0  0  0  0  0  0  0  0  0
   37.8950   30.7810   50.6400 C   0  0  0  0  0  0  0  0  0  0  0  0
   37.5890   30.5930   49.3070 C   0  0  0  0  0  0  0  0  0  0  0  0
   36.5790   29.7190   49.0320 N   0  0  0  0  0  0  0  0  0  0  0  0
   35.8780   29.0450   49.9410 C   0  0  0  0  0  0  0  0  0  0  0  0
   36.1720   29.2240   51.2480 N   0  0  0  0  0  0  0  0  0  0  0  0
   37.4350   30.2540   52.6270 H   0  0  0  0  0  0  0  0  0  0  0  0
   38.6860   31.4640   50.8800 H   0  0  0  0  0  0  0  0  0  0  0  0
   38.8150   33.2150   49.2300 F   0  0  0  0  0  0  0  0  0  0  0  0
   38.8270   32.4580   48.1390 C   0  0  0  0  0  0  0  0  0  0  0  0
   38.2530   31.2470   48.1970 C   0  0  0  0  0  0  0  0  0  0  0  0
   38.3160   30.5230   46.9950 C   0  0  0  0  0  0  0  0  0  0  0  0
   38.9170   31.0270   45.8720 C   0  0  0  0  0  0  0  0  0  0  0  0
   39.4910   32.2790   45.8680 C   0  0  0  0  0  0  0  0  0  0  0  0
   39.4360   32.9860   47.0220 C   0  0  0  0  0  0  0  0  0  0  0  0
   37.8920   29.5290   46.9020 H   0  0  0  0  0  0  0  0  0  0  0  0
   38.9540   30.4480   44.9490 H   0  0  0  0  0  0  0  0  0  0  0  0
   39.9690   32.6890   44.9870 H   0  0  0  0  0  0  0  0  0  0  0  0
   39.8830   33.9750   47.0430 H   0  0  0  0  0  0  0  0  0  0  0  0
  1  4  1  0  0  0  0
  1 27  1  0  0  0  0
  1  3  1  0  0  0  0
  2  1  1  0  0  0  0
  4  5  1  0  0  0  0
  5  6  2  0  0  0  0
  5 10  1  0  0  0  0
  6 11  1  0  0  0  0
  7  6  1  0  0  0  0
  8  7  2  0  0  0  0
  9  8  1  0  0  0  0
  9  4  2  0  0  0  0
 12 13  1  0  0  0  0
 12  8  1  0  0  0  0
 14 12  1  0  0  0  0
 15 21  1  1  0  0  0
 15 16  1  0  0  0  0
 16 12  1  1  0  0  0
 16 17  1  0  0  0  0
 18 17  1  0  0  0  0
 19 23  1  1  0  0  0
 19 18  1  0  0  0  0
 20 25  1  6  0  0  0
 20 15  1  0  0  0  0
 20 19  1  0  0  0  0
 21 22  1  0  0  0  0
 24 23  1  0  0  0  0
 26 25  1  0  0  0  0
 27 28  1  0  0  0  0
 27 30  1  0  0  0  0
 29 27  1  0  0  0  0
 30 35  1  0  0  0  0
 31 37  1  0  0  0  0
 32 38  1  0  0  0  0
 32 31  2  0  0  0  0
 33 32  1  0  0  0  0
 34 33  2  0  0  0  0
 34 35  1  0  0  0  0
 35 36  2  0  0  0  0
 36 31  1  0  0  0  0
 40 41  1  0  0  0  0
 40 39  1  0  0  0  0
 41 33  1  0  0  0  0
 42 41  2  0  0  0  0
 43 42  1  0  0  0  0
 44 43  2  0  0  0  0
 44 45  1  0  0  0  0
 45 49  1  0  0  0  0
 45 40  2  0  0  0  0
 46 42  1  0  0  0  0
 47 43  1  0  0  0  0
 48 44  1  0  0  0  0
M  END
>  <minimizedAffinity>
-6.87006569

>  <minimizedRMSD>
1.15969932

$$$$
