
 OpenBabel03272510243D

 35 38  0  0  1  0  0  0  0  0999 V2000
   36.0950   30.0490   46.5130 C   0  0  0  0  0  0  0  0  0  0  0  0
   37.0360   30.7790   47.2250 C   0  0  0  0  0  0  0  0  0  0  0  0
   37.8260   31.7380   46.5940 C   0  0  0  0  0  0  0  0  0  0  0  0
   37.6210   31.9140   45.2310 C   0  0  0  0  0  0  0  0  0  0  0  0
   38.2510   32.7730   44.3850 N   0  0  0  0  0  0  0  0  0  0  0  0
   37.7290   32.5940   43.1750 C   0  0  0  0  0  0  0  0  0  0  0  0
   36.7940   31.6570   43.2210 N   0  0  0  0  0  0  0  0  0  0  0  0
   36.6900   31.2010   44.4860 C   0  0  0  0  0  0  0  0  0  0  0  0
   35.9180   30.2540   45.1450 C   0  0  0  0  0  0  0  0  0  0  0  0
   35.4560   29.2940   46.9520 H   0  0  0  0  0  0  0  0  0  0  0  0
   38.5430   32.2930   47.1470 H   0  0  0  0  0  0  0  0  0  0  0  0
   39.0170   33.4490   44.6770 H   0  0  0  0  0  0  0  0  0  0  0  0
   35.1870   29.6940   44.5650 H   0  0  0  0  0  0  0  0  0  0  0  0
   38.1190   30.7190   50.8180 C   0  0  0  0  0  0  0  0  0  0  0  0
   38.1120   31.0710   49.4720 C   0  0  0  0  0  0  0  0  0  0  0  0
   37.1510   30.4980   48.6460 C   0  0  0  0  0  0  0  0  0  0  0  0
   36.2690   29.6220   49.2060 N   0  0  0  0  0  0  0  0  0  0  0  0
   36.3020   29.3010   50.5230 C   0  0  0  0  0  0  0  0  0  0  0  0
   37.2230   29.8500   51.3120 N   0  0  0  0  0  0  0  0  0  0  0  0
   38.8680   31.1630   51.4690 H   0  0  0  0  0  0  0  0  0  0  0  0
   38.8160   31.7660   49.0370 H   0  0  0  0  0  0  0  0  0  0  0  0
   35.5470   28.5960   50.8360 H   0  0  0  0  0  0  0  0  0  0  0  0
   38.1460   33.3180   42.0560 O   0  0  0  0  0  0  0  0  0  0  0  0
   36.1250   32.8400   40.8070 C   0  0  1  0  0  3  0  0  0  0  0  0
   37.6090   33.1260   40.7770 C   0  0  1  0  0  3  0  0  0  0  0  0
   37.8700   34.2540   40.0130 O   0  0  0  0  0  0  0  0  0  0  0  0
   37.0580   34.3210   38.8950 C   0  0  0  0  0  2  0  0  0  0  0  0
   35.7020   34.7990   39.3080 C   0  0  2  0  0  3  0  0  0  0  0  0
   35.3100   34.1070   40.5970 C   0  0  2  0  0  3  0  0  0  0  0  0
   35.8210   31.8670   39.8380 O   0  0  0  0  0  0  0  0  0  0  0  0
   36.6490   31.3570   39.6880 H   0  0  0  0  0  0  0  0  0  0  0  0
   34.7850   34.5250   38.2950 O   0  0  0  0  0  0  0  0  0  0  0  0
   34.0480   33.9750   38.6260 H   0  0  0  0  0  0  0  0  0  0  0  0
   35.5530   34.9220   41.7020 O   0  0  0  0  0  0  0  0  0  0  0  0
   34.9200   34.7080   42.4250 H   0  0  0  0  0  0  0  0  0  0  0  0
  1 10  1  0  0  0  0
  1  2  1  0  0  0  0
  2 16  1  0  0  0  0
  3 11  1  0  0  0  0
  3  2  2  0  0  0  0
  4  3  1  0  0  0  0
  5 12  1  0  0  0  0
  5  4  1  0  0  0  0
  6  7  2  0  0  0  0
  6  5  1  0  0  0  0
  7  8  1  0  0  0  0
  8  9  1  0  0  0  0
  8  4  2  0  0  0  0
  9  1  2  0  0  0  0
 13  9  1  0  0  0  0
 14 19  1  0  0  0  0
 14 20  1  0  0  0  0
 15 14  2  0  0  0  0
 16 17  2  0  0  0  0
 16 15  1  0  0  0  0
 17 18  1  0  0  0  0
 18 22  1  0  0  0  0
 18 19  2  0  0  0  0
 21 15  1  0  0  0  0
 23  6  1  0  0  0  0
 24 30  1  6  0  0  0
 25 24  1  0  0  0  0
 25 23  1  1  0  0  0
 26 25  1  0  0  0  0
 27 28  1  0  0  0  0
 27 26  1  0  0  0  0
 28 32  1  6  0  0  0
 28 29  1  0  0  0  0
 29 24  1  0  0  0  0
 29 34  1  1  0  0  0
 31 30  1  0  0  0  0
 32 33  1  0  0  0  0
 34 35  1  0  0  0  0
M  END
>  <minimizedAffinity>
-5.43127966

>  <minimizedRMSD>
2.519238

$$$$
