
 OpenBabel03272506433D

 35 37  0  0  1  0  0  0  0  0999 V2000
   32.4210   28.3530   47.5250 C   0  0  2  0  0  0  0  0  0  0  0  0
   33.6690   28.4170   48.3900 C   0  0  1  0  0  0  0  0  0  0  0  0
   34.2250   27.1660   48.4130 O   0  0  0  0  0  0  0  0  0  0  0  0
   33.6030   26.3600   47.4710 C   0  0  0  0  0  0  0  0  0  0  0  0
   32.8660   27.3160   46.5240 C   0  0  1  0  0  0  0  0  0  0  0  0
   31.5940   27.9930   48.1640 H   0  0  0  0  0  0  0  0  0  0  0  0
   33.3570   28.8120   49.3670 H   0  0  0  0  0  0  0  0  0  0  0  0
   34.4120   25.8100   46.9400 H   0  0  0  0  0  0  0  0  0  0  0  0
   32.8330   25.7040   47.9050 H   0  0  0  0  0  0  0  0  0  0  0  0
   33.5910   27.7700   45.8520 H   0  0  0  0  0  0  0  0  0  0  0  0
   32.1520   29.5820   46.9460 O   0  0  0  0  0  0  0  0  0  0  0  0
   31.6150   29.5090   46.1280 H   0  0  0  0  0  0  0  0  0  0  0  0
   34.8190   29.5420   47.5390 S   0  0  0  0  0  0  0  0  0  0  0  0
   37.4750   29.5020   50.4830 C   0  0  0  0  0  0  0  0  0  0  0  0
   38.0500   30.7740   50.4750 C   0  0  0  0  0  0  0  0  0  0  0  0
   37.5890   31.6870   49.5060 C   0  0  0  0  0  0  0  0  0  0  0  0
   36.6250   31.2910   48.6440 N   0  0  0  0  0  0  0  0  0  0  0  0
   36.0920   30.0530   48.6830 C   0  0  0  0  0  0  0  0  0  0  0  0
   36.5050   29.1570   49.5900 N   0  0  0  0  0  0  0  0  0  0  0  0
   37.7550   28.7250   51.1860 H   0  0  0  0  0  0  0  0  0  0  0  0
   38.8080   31.0100   51.1910 H   0  0  0  0  0  0  0  0  0  0  0  0
   38.0290   32.6750   49.4920 H   0  0  0  0  0  0  0  0  0  0  0  0
   31.8070   26.6570   45.9290 O   0  0  0  0  0  0  0  0  0  0  0  0
   29.7010   27.1030   44.8350 C   0  0  2  0  0  3  0  0  0  0  0  0
   31.0690   27.5850   45.1950 C   0  0  2  0  0  3  0  0  0  0  0  0
   31.8150   28.0350   44.1190 O   0  0  0  0  0  0  0  0  0  0  0  0
   31.8260   27.1480   43.0530 C   0  0  0  0  0  2  0  0  0  0  0  0
   30.4280   27.2300   42.4720 C   0  0  1  0  0  3  0  0  0  0  0  0
   29.5260   26.5560   43.4680 C   0  0  1  0  0  3  0  0  0  0  0  0
   28.7330   28.0900   45.0430 O   0  0  0  0  0  0  0  0  0  0  0  0
   29.0590   28.9340   44.6920 H   0  0  0  0  0  0  0  0  0  0  0  0
   30.1080   28.6010   42.4190 O   0  0  0  0  0  0  0  0  0  0  0  0
   29.3150   28.7590   41.8500 H   0  0  0  0  0  0  0  0  0  0  0  0
   29.8090   25.1770   43.4360 O   0  0  0  0  0  0  0  0  0  0  0  0
   28.9550   24.7080   43.6660 H   0  0  0  0  0  0  0  0  0  0  0  0
  1  6  1  1  0  0  0
  1  2  1  0  0  0  0
  2  3  1  0  0  0  0
  2  7  1  1  0  0  0
  4  9  1  0  0  0  0
  4  3  1  0  0  0  0
  5 10  1  6  0  0  0
  5  4  1  0  0  0  0
  5  1  1  0  0  0  0
  8  4  1  0  0  0  0
 11  1  1  0  0  0  0
 12 11  1  0  0  0  0
 13  2  1  0  0  0  0
 13 18  1  0  0  0  0
 14 20  1  0  0  0  0
 15 14  1  0  0  0  0
 15 21  1  0  0  0  0
 16 15  2  0  0  0  0
 17 18  2  0  0  0  0
 17 16  1  0  0  0  0
 18 19  1  0  0  0  0
 19 14  2  0  0  0  0
 22 16  1  0  0  0  0
 23  5  1  0  0  0  0
 24 30  1  6  0  0  0
 24 25  1  0  0  0  0
 25 23  1  6  0  0  0
 26 25  1  0  0  0  0
 27 26  1  0  0  0  0
 28 32  1  1  0  0  0
 28 27  1  0  0  0  0
 28 29  1  0  0  0  0
 29 34  1  1  0  0  0
 29 24  1  0  0  0  0
 31 30  1  0  0  0  0
 33 32  1  0  0  0  0
 34 35  1  0  0  0  0
M  END
>  <minimizedAffinity>
-3.92225885

>  <minimizedRMSD>
2.0899632

$$$$
