
 OpenBabel03272503503D

 40 42  0  0  1  0  0  0  0  0999 V2000
   33.2320   27.3060   45.8680 C   0  0  1  0  0  0  0  0  0  0  0  0
   33.9100   27.4590   47.2460 C   0  0  2  0  0  0  0  0  0  0  0  0
   33.7290   26.2410   47.8200 O   0  0  0  0  0  0  0  0  0  0  0  0
   34.0470   25.3300   46.8370 C   0  0  0  0  0  0  0  0  0  0  0  0
   33.6160   25.8920   45.5180 C   0  0  2  0  0  0  0  0  0  0  0  0
   33.7170   28.0480   45.2060 H   0  0  0  0  0  0  0  0  0  0  0  0
   34.9680   27.7590   47.0340 H   0  0  0  0  0  0  0  0  0  0  0  0
   33.4060   24.4250   47.0470 H   0  0  0  0  0  0  0  0  0  0  0  0
   35.0840   24.9630   46.8760 H   0  0  0  0  0  0  0  0  0  0  0  0
   32.7660   25.3530   45.0840 H   0  0  0  0  0  0  0  0  0  0  0  0
   31.8710   27.5280   45.9730 O   0  0  0  0  0  0  0  0  0  0  0  0
   31.4470   26.7510   46.3840 H   0  0  0  0  0  0  0  0  0  0  0  0
   33.2780   28.5200   47.8260 O   0  0  0  0  0  0  0  0  0  0  0  0
   35.3380   29.8050   46.7890 O   0  0  0  0  0  0  0  0  0  0  0  0
   34.0750   29.9880   47.6230 P   0  0  1  0  0  0  0  0  0  0  0  0
   33.1080   31.0520   46.7280 O   0  0  0  0  0  0  0  0  0  0  0  0
   32.1710   30.8740   46.9970 H   0  0  0  0  0  0  0  0  0  0  0  0
   34.3870   30.6070   49.1780 O   0  0  0  0  0  0  0  0  0  0  0  0
   35.6160   30.4890   49.7910 C   0  0  0  0  0  0  0  0  0  0  0  0
   35.9580   29.4720   50.7060 C   0  0  0  0  0  0  0  0  0  0  0  0
   37.2400   29.4830   51.2430 C   0  0  0  0  0  0  0  0  0  0  0  0
   38.1030   30.4780   50.8560 N   0  0  0  0  0  0  0  0  0  0  0  0
   37.7370   31.4440   49.9690 C   0  0  0  0  0  0  0  0  0  0  0  0
   36.4910   31.4540   49.4300 N   0  0  0  0  0  0  0  0  0  0  0  0
   35.1870   28.7750   50.9070 H   0  0  0  0  0  0  0  0  0  0  0  0
   37.4900   28.7150   51.9310 H   0  0  0  0  0  0  0  0  0  0  0  0
   38.4850   32.1880   49.7230 H   0  0  0  0  0  0  0  0  0  0  0  0
   34.6630   25.9040   44.6050 O   0  0  0  0  0  0  0  0  0  0  0  0
   35.5640   23.9870   43.5100 C   0  0  1  0  0  3  0  0  0  0  0  0
   34.4910   25.0520   43.5320 C   0  0  2  0  0  3  0  0  0  0  0  0
   34.6190   25.8550   42.3800 O   0  0  0  0  0  0  0  0  0  0  0  0
   35.8810   26.4690   42.4200 C   0  0  0  0  0  2  0  0  0  0  0  0
   36.9470   25.4360   42.1030 C   0  0  1  0  0  3  0  0  0  0  0  0
   36.3270   24.0560   42.1990 C   0  0  2  0  0  3  0  0  0  0  0  0
   36.5300   24.2230   44.5080 O   0  0  0  0  0  0  0  0  0  0  0  0
   36.5530   25.1590   44.7830 H   0  0  0  0  0  0  0  0  0  0  0  0
   37.4220   25.6070   40.7850 O   0  0  0  0  0  0  0  0  0  0  0  0
   37.9120   24.7770   40.5620 H   0  0  0  0  0  0  0  0  0  0  0  0
   35.4880   23.8590   41.1070 O   0  0  0  0  0  0  0  0  0  0  0  0
   34.8390   23.1620   41.3460 H   0  0  0  0  0  0  0  0  0  0  0  0
  1  6  1  6  0  0  0
  1 11  1  0  0  0  0
  1  2  1  0  0  0  0
  2  7  1  6  0  0  0
  2  3  1  0  0  0  0
  2 13  1  0  0  0  0
  4  9  1  0  0  0  0
  4  8  1  0  0  0  0
  4  3  1  0  0  0  0
  5 10  1  6  0  0  0
  5  1  1  0  0  0  0
  5  4  1  0  0  0  0
 11 12  1  0  0  0  0
 15 14  2  6  0  0  0
 15 13  1  0  0  0  0
 15 18  1  0  0  0  0
 16 17  1  0  0  0  0
 16 15  1  0  0  0  0
 18 19  1  0  0  0  0
 19 20  1  0  0  0  0
 20 25  1  0  0  0  0
 20 21  2  0  0  0  0
 21 26  1  0  0  0  0
 22 21  1  0  0  0  0
 23 22  2  0  0  0  0
 24 19  2  0  0  0  0
 24 23  1  0  0  0  0
 27 23  1  0  0  0  0
 28  5  1  0  0  0  0
 29 30  1  0  0  0  0
 29 35  1  1  0  0  0
 30 28  1  1  0  0  0
 31 32  1  0  0  0  0
 31 30  1  0  0  0  0
 33 37  1  6  0  0  0
 33 34  1  0  0  0  0
 33 32  1  0  0  0  0
 34 39  1  6  0  0  0
 34 29  1  0  0  0  0
 35 36  1  0  0  0  0
 38 37  1  0  0  0  0
 39 40  1  0  0  0  0
M  END
>  <minimizedAffinity>
-4.19561815

>  <minimizedRMSD>
2.04103494

$$$$
