
 OpenBabel03262521433D

 33 35  0  0  1  0  0  0  0  0999 V2000
   38.3870   30.3370   46.5310 C   0  0  1  0  0  0  0  0  0  0  0  0
   38.1250   30.7800   45.0850 C   0  0  2  0  0  0  0  0  0  0  0  0
   37.8340   32.2260   45.4250 C   0  0  0  0  0  0  0  0  0  0  0  0
   38.8320   32.6050   46.3070 O   0  0  0  0  0  0  0  0  0  0  0  0
   39.3180   31.4920   46.9350 C   0  0  0  0  0  0  0  0  0  0  0  0
   38.9230   29.3840   46.4750 H   0  0  0  0  0  0  0  0  0  0  0  0
   39.0770   30.6300   44.5640 H   0  0  0  0  0  0  0  0  0  0  0  0
   36.8690   32.2970   45.9270 H   0  0  0  0  0  0  0  0  0  0  0  0
   37.8680   32.8210   44.4830 H   0  0  0  0  0  0  0  0  0  0  0  0
   40.3710   31.2440   46.7230 H   0  0  0  0  0  0  0  0  0  0  0  0
   39.2160   31.6910   48.0400 H   0  0  0  0  0  0  0  0  0  0  0  0
   36.9940   30.0640   44.4810 C   0  0  0  0  0  0  0  0  0  0  0  0
   37.2220   29.1080   43.4810 C   0  0  0  0  0  0  0  0  0  0  0  0
   36.1030   28.4780   42.9290 C   0  0  0  0  0  0  0  0  0  0  0  0
   34.8670   28.8260   43.3860 N   0  0  0  0  0  0  0  0  0  0  0  0
   34.6740   29.7660   44.3670 C   0  0  0  0  0  0  0  0  0  0  0  0
   35.7560   30.3790   44.9050 N   0  0  0  0  0  0  0  0  0  0  0  0
   38.2200   28.8620   43.1460 H   0  0  0  0  0  0  0  0  0  0  0  0
   36.1990   27.7300   42.1540 H   0  0  0  0  0  0  0  0  0  0  0  0
   33.6580   29.9790   44.6680 H   0  0  0  0  0  0  0  0  0  0  0  0
   37.3020   30.3920   47.3230 O   0  0  0  0  0  0  0  0  0  0  0  0
   36.5120   31.5410   49.2960 C   0  0  1  0  0  0  0  0  0  0  0  0
   37.4900   30.5880   48.6600 C   0  0  1  0  0  0  0  0  0  0  0  0
   37.4000   29.3740   49.3790 O   0  0  0  0  0  0  0  0  0  0  0  0
   36.1320   28.8310   49.2230 C   0  0  0  0  0  0  0  0  0  0  0  0
   35.0730   29.6710   49.9090 C   0  0  1  0  0  0  0  0  0  0  0  0
   35.0950   31.0140   49.2180 C   0  0  2  0  0  0  0  0  0  0  0  0
   36.8840   31.6970   50.6300 O   0  0  0  0  0  0  0  0  0  0  0  0
   37.8280   31.4020   50.7910 H   0  0  0  0  0  0  0  0  0  0  0  0
   33.8140   29.1250   49.7930 O   0  0  0  0  0  0  0  0  0  0  0  0
   33.2250   29.6770   50.3850 H   0  0  0  0  0  0  0  0  0  0  0  0
   34.7740   30.8880   47.8610 O   0  0  0  0  0  0  0  0  0  0  0  0
   35.0630   31.6560   47.3380 H   0  0  0  0  0  0  0  0  0  0  0  0
  1  6  1  1  0  0  0
  1  5  1  0  0  0  0
  1 21  1  0  0  0  0
  2  7  1  6  0  0  0
  2  3  1  0  0  0  0
  2  1  1  0  0  0  0
  3  8  1  0  0  0  0
  3  4  1  0  0  0  0
  4  5  1  0  0  0  0
  5 11  1  0  0  0  0
  9  3  1  0  0  0  0
 10  5  1  0  0  0  0
 12 17  1  0  0  0  0
 12  2  1  0  0  0  0
 13 12  2  0  0  0  0
 14 15  2  0  0  0  0
 14 13  1  0  0  0  0
 15 16  1  0  0  0  0
 16 20  1  0  0  0  0
 16 17  2  0  0  0  0
 18 13  1  0  0  0  0
 19 14  1  0  0  0  0
 22 28  1  1  0  0  0
 23 21  1  6  0  0  0
 23 22  1  0  0  0  0
 23 24  1  0  0  0  0
 25 24  1  0  0  0  0
 25 26  1  0  0  0  0
 26 30  1  6  0  0  0
 27 32  1  6  0  0  0
 27 22  1  0  0  0  0
 27 26  1  0  0  0  0
 28 29  1  0  0  0  0
 30 31  1  0  0  0  0
 33 32  1  0  0  0  0
M  END
>  <minimizedAffinity>
-4.12036896

>  <minimizedRMSD>
4.16833162

$$$$
