
     RDKit          3D

 33 34  0  0  0  0  0  0  0  0999 V2000
   37.3399   30.1569   51.3555 C   0  0  0  0  0  0  0  0  0  0  0  0
   37.9939   30.5052   50.1751 C   0  0  0  0  0  0  0  0  0  0  0  0
   37.4153   30.1413   48.9471 C   0  0  0  0  0  0  0  0  0  0  0  0
   36.2396   29.4640   48.9893 N   0  0  0  0  0  0  0  0  0  0  0  0
   35.6383   29.1458   50.1573 C   0  0  0  0  0  0  0  0  0  0  0  0
   36.1878   29.4916   51.3310 N   0  0  0  0  0  0  0  0  0  0  0  0
   37.8669   30.3709   47.6903 O   0  0  0  0  0  0  0  0  0  0  0  0
   39.0596   32.7297   48.1393 O   0  0  0  0  0  0  0  0  0  0  0  0
   38.7007   31.7251   47.1047 P   0  0  2  0  0  0  0  0  0  0  0  0
   37.8261   32.4608   45.8519 O   0  0  0  0  0  0  0  0  0  0  0  0
   40.1519   31.1808   46.4116 O   0  0  0  0  0  0  0  0  0  0  0  0
   37.8967   30.4990   52.2060 H   0  0  0  0  0  0  0  0  0  0  0  0
   38.9215   31.0375   50.0582 H   0  0  0  0  0  0  0  0  0  0  0  0
   34.6962   28.6025   50.1684 H   0  0  0  0  0  0  0  0  0  0  0  0
   37.5281   33.3687   46.0584 H   0  0  0  0  0  0  0  0  0  0  0  0
   39.2765   33.6219   46.6801 O   0  0  0  0  0  0  0  0  0  0  0  0
   39.6866   33.2221   45.4173 C   0  0  2  0  0  0  0  0  0  0  0  0
   40.7295   32.1286   45.5755 C   0  0  1  0  0  0  0  0  0  0  0  0
   41.8127   32.6855   46.2465 O   0  0  0  0  0  0  0  0  0  0  0  0
   42.5511   33.5421   45.4433 C   0  0  0  0  0  0  0  0  0  0  0  0
   41.7378   34.1287   44.3184 C   0  0  2  0  0  0  0  0  0  0  0  0
   42.2818   35.3819   44.0123 O   0  0  0  0  0  0  0  0  0  0  0  0
   40.3055   34.3685   44.6966 C   0  0  2  0  0  0  0  0  0  0  0  0
   40.1392   35.5265   45.4138 O   0  0  0  0  0  0  0  0  0  0  0  0
   40.0442   33.6768   47.2964 H   0  0  0  0  0  0  0  0  0  0  0  0
   38.8429   32.7522   44.8465 H   0  0  0  0  0  0  0  0  0  0  0  0
   41.0877   31.7305   44.6231 H   0  0  0  0  0  0  0  0  0  0  0  0
   43.3562   32.9233   44.9603 H   0  0  0  0  0  0  0  0  0  0  0  0
   43.0609   34.2984   46.0523 H   0  0  0  0  0  0  0  0  0  0  0  0
   41.7693   33.4665   43.4330 H   0  0  0  0  0  0  0  0  0  0  0  0
   41.9050   35.7538   43.1758 H   0  0  0  0  0  0  0  0  0  0  0  0
   39.7279   34.5146   43.7391 H   0  0  0  0  0  0  0  0  0  0  0  0
   40.9628   36.0606   45.5002 H   0  0  0  0  0  0  0  0  0  0  0  0
  2  1  2  0
  3  4  2  0
  3  2  1  0
  4  5  1  0
  5  6  2  0
  6  1  1  0
  7  3  1  0
  9  7  1  1
  9  8  2  0
 10  9  1  0
 11  9  1  0
  1 12  1  0
  2 13  1  0
  5 14  1  0
 10 15  1  0
 16 17  1  0
 17 18  1  0
 18 19  1  0
 19 20  1  0
 20 21  1  0
 21 22  1  0
 21 23  1  0
 23 24  1  0
 23 17  1  0
 16 25  1  0
 17 26  1  6
 18 27  1  6
 20 28  1  0
 20 29  1  0
 21 30  1  6
 22 31  1  0
 23 32  1  6
 24 33  1  0
 11 18  1  0
M  ISO  4  12  14  13  14  14  14  15   3
M  END
>  <DihAtoms>  (1) 
8,10,17,16

>  <DihDeg>  (1) 
125.29268121756033

$$$$
