
 OpenBabel03272506253D

 35 37  0  0  1  0  0  0  0  0999 V2000
   34.6360   29.2850   45.8120 C   0  0  0  0  0  0  0  0  0  0  0  0
   34.5930   29.3040   44.4350 C   0  0  0  0  0  0  0  0  0  0  0  0
   35.4510   30.0100   43.6140 C   0  0  0  0  0  0  0  0  0  0  0  0
   36.4610   30.7800   44.2230 C   0  0  0  0  0  0  0  0  0  0  0  0
   36.5110   30.7650   45.6010 C   0  0  0  0  0  0  0  0  0  0  0  0
   35.6420   30.0520   46.3920 C   0  0  0  0  0  0  0  0  0  0  0  0
   33.8320   28.7270   43.8890 H   0  0  0  0  0  0  0  0  0  0  0  0
   35.3650   29.9840   42.5350 H   0  0  0  0  0  0  0  0  0  0  0  0
   37.1620   31.3520   43.6490 H   0  0  0  0  0  0  0  0  0  0  0  0
   37.2790   31.3480   46.1170 H   0  0  0  0  0  0  0  0  0  0  0  0
   34.1200   27.2900   47.1000 C   0  0  0  0  0  0  0  0  0  0  0  0
   33.6590   28.4910   46.4890 C   0  0  0  0  0  0  0  0  0  0  0  0
   32.3020   28.7850   46.6060 C   0  0  0  0  0  0  0  0  0  0  0  0
   31.4860   27.9430   47.2770 N   0  0  0  0  0  0  0  0  0  0  0  0
   31.9650   26.7900   47.8560 C   0  0  0  0  0  0  0  0  0  0  0  0
   33.2850   26.4750   47.7610 N   0  0  0  0  0  0  0  0  0  0  0  0
   35.1690   27.0330   47.0290 H   0  0  0  0  0  0  0  0  0  0  0  0
   31.2130   26.1960   48.3670 H   0  0  0  0  0  0  0  0  0  0  0  0
   31.6780   30.0030   46.0180 C   0  0  0  0  0  0  0  0  0  0  0  0
   30.3290   30.0880   46.4180 F   0  0  0  0  0  0  0  0  0  0  0  0
   32.2780   31.1880   46.3040 F   0  0  0  0  0  0  0  0  0  0  0  0
   31.5970   29.8720   44.6270 F   0  0  0  0  0  0  0  0  0  0  0  0
   35.6940   30.0240   48.1770 S   0  0  0  0  0  0  0  0  0  0  0  0
   37.9620   31.4020   47.7740 C   0  0  1  0  0  3  0  0  0  0  0  0
   36.9250   31.1600   48.8370 C   0  0  1  0  0  3  0  0  0  0  0  0
   36.3420   32.3330   49.2960 O   0  0  0  0  0  0  0  0  0  0  0  0
   37.3040   33.0180   49.9920 C   0  0  0  0  0  2  0  0  0  0  0  0
   38.4230   33.4760   49.1260 C   0  0  2  0  0  3  0  0  0  0  0  0
   38.8620   32.5600   48.0510 C   0  0  2  0  0  3  0  0  0  0  0  0
   38.6570   30.2060   47.5890 O   0  0  0  0  0  0  0  0  0  0  0  0
   38.2800   29.6260   46.8830 H   0  0  0  0  0  0  0  0  0  0  0  0
   39.5090   33.7780   49.9820 O   0  0  0  0  0  0  0  0  0  0  0  0
   39.3830   33.3840   50.8670 H   0  0  0  0  0  0  0  0  0  0  0  0
   39.1030   33.3120   46.8880 O   0  0  0  0  0  0  0  0  0  0  0  0
   38.4040   33.9900   46.7420 H   0  0  0  0  0  0  0  0  0  0  0  0
  1  6  1  0  0  0  0
  1 12  1  0  0  0  0
  2  1  2  0  0  0  0
  3  4  2  0  0  0  0
  3  2  1  0  0  0  0
  4  5  1  0  0  0  0
  5 10  1  0  0  0  0
  5  6  2  0  0  0  0
  6 23  1  0  0  0  0
  7  2  1  0  0  0  0
  8  3  1  0  0  0  0
  9  4  1  0  0  0  0
 11 16  1  0  0  0  0
 12 13  1  0  0  0  0
 12 11  2  0  0  0  0
 13 14  2  0  0  0  0
 14 15  1  0  0  0  0
 15 18  1  0  0  0  0
 16 15  2  0  0  0  0
 17 11  1  0  0  0  0
 19 21  1  0  0  0  0
 19 20  1  0  0  0  0
 19 13  1  0  0  0  0
 22 19  1  0  0  0  0
 24 30  1  1  0  0  0
 24 29  1  0  0  0  0
 24 25  1  0  0  0  0
 25 23  1  6  0  0  0
 25 26  1  0  0  0  0
 26 27  1  0  0  0  0
 28 32  1  1  0  0  0
 28 27  1  0  0  0  0
 29 34  1  6  0  0  0
 29 28  1  0  0  0  0
 31 30  1  0  0  0  0
 32 33  1  0  0  0  0
 35 34  1  0  0  0  0
M  END
>  <minimizedAffinity>
-4.68832588

>  <minimizedRMSD>
4.54815912

$$$$
