
 OpenBabel03272509403D

 38 40  0  0  1  0  0  0  0  0999 V2000
   36.9580   30.9000   49.0210 C   0  0  0  0  0  0  0  0  0  0  0  0
   36.6940   31.8090   50.0600 C   0  0  0  0  0  0  0  0  0  0  0  0
   37.3140   33.0490   50.1380 C   0  0  0  0  0  0  0  0  0  0  0  0
   38.2360   33.4290   49.1590 C   0  0  0  0  0  0  0  0  0  0  0  0
   38.4860   32.5250   48.1430 C   0  0  0  0  0  0  0  0  0  0  0  0
   37.8530   31.2950   48.0930 C   0  0  0  0  0  0  0  0  0  0  0  0
   35.9850   31.5530   50.8390 H   0  0  0  0  0  0  0  0  0  0  0  0
   37.0650   33.7000   50.9650 H   0  0  0  0  0  0  0  0  0  0  0  0
   38.7050   34.4020   49.2450 H   0  0  0  0  0  0  0  0  0  0  0  0
   39.2100   32.9030   47.4340 H   0  0  0  0  0  0  0  0  0  0  0  0
   36.2680   29.6380   49.0230 C   0  0  0  0  0  0  0  0  0  0  0  0
   36.7780   28.7430   49.7790 O   0  0  0  0  0  0  0  0  0  0  0  0
   33.5350   30.2300   46.7010 C   0  0  0  0  0  0  0  0  0  0  0  0
   32.8410   29.0230   46.6810 C   0  0  0  0  0  0  0  0  0  0  0  0
   33.3090   27.9850   47.4760 C   0  0  0  0  0  0  0  0  0  0  0  0
   34.4210   28.1790   48.2390 N   0  0  0  0  0  0  0  0  0  0  0  0
   35.0640   29.3360   48.2400 C   0  0  0  0  0  0  0  0  0  0  0  0
   34.6070   30.3510   47.4650 N   0  0  0  0  0  0  0  0  0  0  0  0
   33.1350   31.0110   46.0660 H   0  0  0  0  0  0  0  0  0  0  0  0
   31.9600   28.9160   46.0570 H   0  0  0  0  0  0  0  0  0  0  0  0
   32.8020   27.0290   47.4930 H   0  0  0  0  0  0  0  0  0  0  0  0
   38.2470   30.4820   46.9780 C   0  0  0  0  0  0  0  0  0  0  0  0
   38.9460   30.8360   45.9150 C   0  0  0  0  0  0  0  0  0  0  0  0
   39.4400   30.1150   44.7450 C   0  0  0  0  0  0  0  0  0  0  0  0
   40.1140   30.8060   44.1770 H   0  0  0  0  0  0  0  0  0  0  0  0
   40.0870   29.2790   45.0830 H   0  0  0  0  0  0  0  0  0  0  0  0
   37.9230   30.3840   42.7350 C   0  0  2  0  0  0  0  0  0  0  0  0
   38.3990   29.5290   43.8390 C   0  0  1  0  0  0  0  0  0  0  0  0
   38.8420   28.2940   43.3900 O   0  0  0  0  0  0  0  0  0  0  0  0
   39.9480   28.3600   42.5620 C   0  0  0  0  0  0  0  0  0  0  0  0
   39.6160   29.2650   41.3980 C   0  0  2  0  0  0  0  0  0  0  0  0
   38.1390   29.6030   41.4260 C   0  0  2  0  0  0  0  0  0  0  0  0
   38.6350   31.5650   42.5530 O   0  0  0  0  0  0  0  0  0  0  0  0
   38.0100   32.1460   42.0100 H   0  0  0  0  0  0  0  0  0  0  0  0
   39.9270   28.5930   40.2230 O   0  0  0  0  0  0  0  0  0  0  0  0
   40.8160   28.1860   40.3480 H   0  0  0  0  0  0  0  0  0  0  0  0
   37.7740   30.4140   40.3650 O   0  0  0  0  0  0  0  0  0  0  0  0
   38.3890   30.2190   39.6120 H   0  0  0  0  0  0  0  0  0  0  0  0
  1 11  1  0  0  0  0
  1  2  1  0  0  0  0
  2  3  2  0  0  0  0
  2  7  1  0  0  0  0
  3  8  1  0  0  0  0
  4  9  1  0  0  0  0
  4  3  1  0  0  0  0
  5  4  2  0  0  0  0
  6  5  1  0  0  0  0
  6  1  2  0  0  0  0
 10  5  1  0  0  0  0
 11 12  2  0  0  0  0
 13 18  1  0  0  0  0
 14 13  2  0  0  0  0
 14 15  1  0  0  0  0
 15 21  1  0  0  0  0
 15 16  2  0  0  0  0
 16 17  1  0  0  0  0
 17 11  1  0  0  0  0
 18 17  2  0  0  0  0
 19 13  1  0  0  0  0
 20 14  1  0  0  0  0
 22  6  1  0  0  0  0
 23 22  2  0  0  0  0
 24 26  1  0  0  0  0
 24 23  1  0  0  0  0
 25 24  1  0  0  0  0
 27 33  1  6  0  0  0
 27 28  1  0  0  0  0
 28 24  1  6  0  0  0
 29 28  1  0  0  0  0
 30 29  1  0  0  0  0
 31 35  1  6  0  0  0
 31 32  1  0  0  0  0
 31 30  1  0  0  0  0
 32 37  1  6  0  0  0
 32 27  1  0  0  0  0
 34 33  1  0  0  0  0
 35 36  1  0  0  0  0
 38 37  1  0  0  0  0
M  END
>  <minimizedAffinity>
-6.0367074

>  <minimizedRMSD>
1.71812439

$$$$
