REMARK  Name = 
REMARK  11 active torsions:
REMARK  status: ('A' for Active; 'I' for Inactive)
REMARK    1  A    between atoms: P_2  and  O_3
REMARK    2  A    between atoms: P_2  and  O_4
REMARK    3  A    between atoms: P_2  and  O_11
REMARK    4  A    between atoms: O_4  and  C_5
REMARK    5  A    between atoms: O_11  and  C_13
REMARK    6  A    between atoms: C_12  and  O_17
REMARK    7  A    between atoms: C_16  and  O_18
REMARK    8  A    between atoms: O_18  and  C_31
REMARK    9  A    between atoms: O_29  and  C_30
REMARK   10  A    between atoms: C_34  and  O_35
REMARK   11  A    between atoms: C_36  and  O_37
REMARK                            x       y       z     vdW  Elec       q    Type
REMARK                         _______ _______ _______ _____ _____    ______ ____
ROOT
ATOM      1  C   UNL     1      33.087  27.341  45.871  0.00  0.00    +0.000 C 
ATOM      2  C   UNL     1      33.920  27.481  47.163  0.00  0.00    +0.000 C 
ATOM      3  O   UNL     1      33.835  26.246  47.724  0.00  0.00    +0.000 OA
ATOM      4  C   UNL     1      34.056  25.365  46.688  0.00  0.00    +0.000 C 
ATOM      5  C   UNL     1      33.459  25.945  45.443  0.00  0.00    +0.000 C 
ATOM      6  H   UNL     1      33.474  28.110  45.176  0.00  0.00    +0.000 HD
ATOM      7  H   UNL     1      34.938  27.812  46.836  0.00  0.00    +0.000 HD
ATOM      8  H   UNL     1      33.465  24.440  46.949  0.00  0.00    +0.000 HD
ATOM      9  H   UNL     1      35.098  25.024  46.596  0.00  0.00    +0.000 HD
ATOM     10  H   UNL     1      32.577  25.394  45.099  0.00  0.00    +0.000 HD
ENDROOT
BRANCH   1  11
ATOM     11  O   UNL     1      31.744  27.526  46.141  0.00  0.00    +0.000 OA
ATOM     12  H   UNL     1      31.389  26.729  46.579  0.00  0.00    +0.000 HD
ENDBRANCH   1  11
BRANCH   2  13
ATOM     13  O   UNL     1      33.336  28.512  47.840  0.00  0.00    +0.000 OA
BRANCH  13  15
ATOM     14  O   UNL     1      35.355  29.835  46.770  0.00  0.00    +0.000 OA
ATOM     15  P   UNL     1      34.098  29.996  47.617  0.00  0.00    +0.000 P 
BRANCH  15  16
ATOM     16  O   UNL     1      33.097  31.031  46.726  0.00  0.00    +0.000 OA
ATOM     17  H   UNL     1      32.167  30.834  47.007  0.00  0.00    +0.000 HD
ENDBRANCH  15  16
BRANCH  15  18
ATOM     18  O   UNL     1      34.413  30.634  49.164  0.00  0.00    +0.000 OA
BRANCH  18  19
ATOM     19  C   UNL     1      35.638  30.506  49.784  0.00  0.00    +0.000 A 
ATOM     20  C   UNL     1      35.965  29.488  50.704  0.00  0.00    +0.000 A 
ATOM     21  C   UNL     1      37.244  29.489  51.248  0.00  0.00    +0.000 A 
ATOM     22  N   UNL     1      38.118  30.475  50.863  0.00  0.00    +0.000 NA
ATOM     23  C   UNL     1      37.766  31.442  49.971  0.00  0.00    +0.000 A 
ATOM     24  N   UNL     1      36.523  31.462  49.426  0.00  0.00    +0.000 NA
ATOM     25  H   UNL     1      35.187  28.799  50.902  0.00  0.00    +0.000 HD
ATOM     26  H   UNL     1      37.483  28.720  51.939  0.00  0.00    +0.000 HD
ATOM     27  H   UNL     1      38.522  32.178  49.728  0.00  0.00    +0.000 HD
ENDBRANCH  18  19
ENDBRANCH  15  18
ENDBRANCH  13  15
ENDBRANCH   2  13
BRANCH   5  28
ATOM     28  O   UNL     1      34.391  26.004  44.414  0.00  0.00    +0.000 OA
BRANCH  28  30
ATOM     29  C   UNL     1      35.189  24.939  42.437  0.00  0.00    +0.000 C 
ATOM     30  C   UNL     1      33.992  25.377  43.250  0.00  0.00    +0.000 C 
ATOM     31  O   UNL     1      33.273  26.346  42.519  0.00  0.00    +0.000 OA
ATOM     32  C   UNL     1      34.119  27.445  42.311  0.00  0.00    +0.000 C 
ATOM     33  C   UNL     1      35.154  27.084  41.261  0.00  0.00    +0.000 C 
ATOM     34  C   UNL     1      35.138  25.582  41.062  0.00  0.00    +0.000 C 
BRANCH  29  35
ATOM     35  O   UNL     1      36.389  25.400  43.012  0.00  0.00    +0.000 OA
ATOM     36  H   UNL     1      36.245  26.178  43.585  0.00  0.00    +0.000 HD
ENDBRANCH  29  35
BRANCH  33  37
ATOM     37  O   UNL     1      34.834  27.688  40.026  0.00  0.00    +0.000 OA
ATOM     38  H   UNL     1      35.384  27.226  39.347  0.00  0.00    +0.000 HD
ENDBRANCH  33  37
BRANCH  34  39
ATOM     39  O   UNL     1      33.981  25.227  40.374  0.00  0.00    +0.000 OA
ATOM     40  H   UNL     1      33.796  24.282  40.561  0.00  0.00    +0.000 HD
ENDBRANCH  34  39
ENDBRANCH  28  30
ENDBRANCH   5  28
TORSDOF 11
