
 OpenBabel03272509583D

 49 52  0  0  1  0  0  0  0  0999 V2000
   33.2560   28.2280   46.9220 C   0  0  0  0  0  0  0  0  0  0  0  0
   33.1330   28.6730   45.8970 H   0  0  0  0  0  0  0  0  0  0  0  0
   33.7090   27.2340   46.7510 H   0  0  0  0  0  0  0  0  0  0  0  0
   31.8770   28.1100   47.4640 C   0  0  0  0  0  0  0  0  0  0  0  0
   31.6530   27.1960   48.4880 C   0  0  0  0  0  0  0  0  0  0  0  0
   30.4150   27.0260   49.0420 C   0  0  0  0  0  0  0  0  0  0  0  0
   29.3980   27.7520   48.5900 N   0  0  0  0  0  0  0  0  0  0  0  0
   29.6200   28.6490   47.5850 C   0  0  0  0  0  0  0  0  0  0  0  0
   30.8230   28.8390   47.0220 N   0  0  0  0  0  0  0  0  0  0  0  0
   32.4530   26.5800   48.8910 H   0  0  0  0  0  0  0  0  0  0  0  0
   30.2570   26.3060   49.8420 H   0  0  0  0  0  0  0  0  0  0  0  0
   28.4510   29.4340   47.1180 C   0  0  0  0  0  0  0  0  0  0  0  0
   27.5620   29.2280   47.7360 H   0  0  0  0  0  0  0  0  0  0  0  0
   28.6020   30.5290   47.1530 H   0  0  0  0  0  0  0  0  0  0  0  0
   27.2110   27.7390   45.7600 C   0  0  2  0  0  3  0  0  0  0  0  0
   28.1090   28.9580   45.7230 C   0  0  1  0  0  3  0  0  0  0  0  0
   27.4360   29.9330   44.9910 O   0  0  0  0  0  0  0  0  0  0  0  0
   27.6740   29.6840   43.6430 C   0  0  0  0  0  2  0  0  0  0  0  0
   27.7060   28.2080   43.3320 C   0  0  1  0  0  3  0  0  0  0  0  0
   26.8870   27.4000   44.3130 C   0  0  1  0  0  3  0  0  0  0  0  0
   26.0430   28.0990   46.4460 O   0  0  0  0  0  0  0  0  0  0  0  0
   25.2810   28.1560   45.8020 H   0  0  0  0  0  0  0  0  0  0  0  0
   27.1210   28.0370   42.0730 O   0  0  0  0  0  0  0  0  0  0  0  0
   27.8150   27.8680   41.3630 H   0  0  0  0  0  0  0  0  0  0  0  0
   27.2620   26.0690   44.1190 O   0  0  0  0  0  0  0  0  0  0  0  0
   26.5630   25.5690   43.6320 H   0  0  0  0  0  0  0  0  0  0  0  0
   34.1110   29.1710   47.7100 C   0  0  0  0  0  0  0  0  0  0  0  0
   33.4250   29.8100   48.3200 H   0  0  0  0  0  0  0  0  0  0  0  0
   34.6810   29.8890   47.0590 H   0  0  0  0  0  0  0  0  0  0  0  0
   34.9660   28.4820   48.6030 O   0  0  0  0  0  0  0  0  0  0  0  0
   37.0550   29.9540   51.1530 C   0  0  0  0  0  0  0  0  0  0  0  0
   37.8980   30.7530   50.3390 C   0  0  0  0  0  0  0  0  0  0  0  0
   37.6910   30.7330   48.9740 C   0  0  0  0  0  0  0  0  0  0  0  0
   36.6820   29.9340   48.5230 N   0  0  0  0  0  0  0  0  0  0  0  0
   35.8940   29.1850   49.2920 C   0  0  0  0  0  0  0  0  0  0  0  0
   36.0910   29.2000   50.6290 N   0  0  0  0  0  0  0  0  0  0  0  0
   37.2710   30.0160   52.2100 H   0  0  0  0  0  0  0  0  0  0  0  0
   38.6870   31.3750   50.7170 H   0  0  0  0  0  0  0  0  0  0  0  0
   38.7500   33.4190   49.2010 F   0  0  0  0  0  0  0  0  0  0  0  0
   38.9570   32.7290   48.0850 C   0  0  0  0  0  0  0  0  0  0  0  0
   38.4570   31.4870   48.0020 C   0  0  0  0  0  0  0  0  0  0  0  0
   38.7280   30.8400   46.7850 C   0  0  0  0  0  0  0  0  0  0  0  0
   39.4430   31.4410   45.7830 C   0  0  0  0  0  0  0  0  0  0  0  0
   39.9330   32.7210   45.9230 C   0  0  0  0  0  0  0  0  0  0  0  0
   39.6770   33.3540   47.0920 C   0  0  0  0  0  0  0  0  0  0  0  0
   38.3840   29.8300   46.5840 H   0  0  0  0  0  0  0  0  0  0  0  0
   39.6420   30.9200   44.8470 H   0  0  0  0  0  0  0  0  0  0  0  0
   40.4980   33.2070   45.1390 H   0  0  0  0  0  0  0  0  0  0  0  0
   40.0540   34.3640   47.2250 H   0  0  0  0  0  0  0  0  0  0  0  0
  1  4  1  0  0  0  0
  1 27  1  0  0  0  0
  2  1  1  0  0  0  0
  3  1  1  0  0  0  0
  4  5  1  0  0  0  0
  5 10  1  0  0  0  0
  5  6  2  0  0  0  0
  6 11  1  0  0  0  0
  7  6  1  0  0  0  0
  8  7  2  0  0  0  0
  9  4  2  0  0  0  0
  9  8  1  0  0  0  0
 12 14  1  0  0  0  0
 12  8  1  0  0  0  0
 12 13  1  0  0  0  0
 15 21  1  1  0  0  0
 16 15  1  0  0  0  0
 16 12  1  1  0  0  0
 17 16  1  0  0  0  0
 18 17  1  0  0  0  0
 19 23  1  6  0  0  0
 19 18  1  0  0  0  0
 19 20  1  0  0  0  0
 20 25  1  1  0  0  0
 20 15  1  0  0  0  0
 22 21  1  0  0  0  0
 24 23  1  0  0  0  0
 26 25  1  0  0  0  0
 27 28  1  0  0  0  0
 27 30  1  0  0  0  0
 29 27  1  0  0  0  0
 30 35  1  0  0  0  0
 31 37  1  0  0  0  0
 32 38  1  0  0  0  0
 32 31  2  0  0  0  0
 33 32  1  0  0  0  0
 34 33  2  0  0  0  0
 34 35  1  0  0  0  0
 35 36  2  0  0  0  0
 36 31  1  0  0  0  0
 40 39  1  0  0  0  0
 41 40  1  0  0  0  0
 41 33  1  0  0  0  0
 42 41  2  0  0  0  0
 43 44  2  0  0  0  0
 43 42  1  0  0  0  0
 44 45  1  0  0  0  0
 45 49  1  0  0  0  0
 45 40  2  0  0  0  0
 46 42  1  0  0  0  0
 47 43  1  0  0  0  0
 48 44  1  0  0  0  0
M  END
>  <minimizedAffinity>
-6.8750329

>  <minimizedRMSD>
1.19200039

$$$$
