
 OpenBabel03272508283D

 41 44  0  0  1  0  0  0  0  0999 V2000
   33.8990   28.9800   47.3360 C   0  0  2  0  0  0  0  0  0  0  0  0
   34.6610   28.1980   48.3840 C   0  0  2  0  0  0  0  0  0  0  0  0
   33.7910   28.0200   49.4140 O   0  0  0  0  0  0  0  0  0  0  0  0
   32.4970   28.1080   48.9700 C   0  0  0  0  0  0  0  0  0  0  0  0
   32.5300   28.3220   47.4700 C   0  0  1  0  0  0  0  0  0  0  0  0
   33.8230   30.0520   47.5910 H   0  0  0  0  0  0  0  0  0  0  0  0
   34.9300   27.2280   47.9320 H   0  0  0  0  0  0  0  0  0  0  0  0
   31.9950   29.0200   49.4090 H   0  0  0  0  0  0  0  0  0  0  0  0
   31.8640   27.2500   49.2310 H   0  0  0  0  0  0  0  0  0  0  0  0
   32.4990   27.3480   46.9780 H   0  0  0  0  0  0  0  0  0  0  0  0
   35.7570   30.4470   49.0620 C   0  0  1  0  0  0  0  0  0  0  0  0
   35.8380   29.0300   48.7950 C   0  0  1  0  0  0  0  0  0  0  0  0
   36.0420   29.4630   50.2090 C   0  0  0  0  0  0  0  0  0  0  0  0
   34.8420   31.0350   49.3230 H   0  0  0  0  0  0  0  0  0  0  0  0
   36.7660   28.7130   48.2320 H   0  0  0  0  0  0  0  0  0  0  0  0
   37.0730   29.4000   50.6100 H   0  0  0  0  0  0  0  0  0  0  0  0
   35.2850   29.2640   50.9650 H   0  0  0  0  0  0  0  0  0  0  0  0
   36.9470   31.3590   48.7970 C   0  0  0  0  0  0  0  0  0  0  0  0
   37.1460   32.4160   49.6850 C   0  0  0  0  0  0  0  0  0  0  0  0
   38.2290   33.2380   49.3790 C   0  0  0  0  0  0  0  0  0  0  0  0
   39.0140   32.9960   48.2840 N   0  0  0  0  0  0  0  0  0  0  0  0
   38.7770   31.9550   47.4540 C   0  0  0  0  0  0  0  0  0  0  0  0
   37.7330   31.1280   47.7130 N   0  0  0  0  0  0  0  0  0  0  0  0
   36.5320   32.5950   50.5320 H   0  0  0  0  0  0  0  0  0  0  0  0
   38.4860   34.0950   49.9970 H   0  0  0  0  0  0  0  0  0  0  0  0
   39.3820   31.7460   46.5840 H   0  0  0  0  0  0  0  0  0  0  0  0
   34.4090   28.8250   46.0550 O   0  0  0  0  0  0  0  0  0  0  0  0
   34.2010   27.9090   45.7660 H   0  0  0  0  0  0  0  0  0  0  0  0
   31.5150   29.1220   47.0120 O   0  0  0  0  0  0  0  0  0  0  0  0
   29.3340   28.2320   47.4100 C   0  0  2  0  0  3  0  0  0  0  0  0
   30.4840   28.3920   46.4370 C   0  0  2  0  0  3  0  0  0  0  0  0
   30.9000   27.1190   46.0500 O   0  0  0  0  0  0  0  0  0  0  0  0
   30.0510   26.6860   45.0270 C   0  0  0  0  0  2  0  0  0  0  0  0
   28.6010   26.9630   45.3580 C   0  0  2  0  0  3  0  0  0  0  0  0
   28.4000   27.1810   46.8420 C   0  0  2  0  0  3  0  0  0  0  0  0
   28.6540   29.4490   47.4560 O   0  0  0  0  0  0  0  0  0  0  0  0
   27.8960   29.4100   46.8120 H   0  0  0  0  0  0  0  0  0  0  0  0
   27.8690   25.8310   45.0020 O   0  0  0  0  0  0  0  0  0  0  0  0
   26.9040   25.9270   45.2200 H   0  0  0  0  0  0  0  0  0  0  0  0
   27.0580   27.5060   47.0420 O   0  0  0  0  0  0  0  0  0  0  0  0
   26.9550   27.9570   47.9310 H   0  0  0  0  0  0  0  0  0  0  0  0
  1  5  1  0  0  0  0
  1  6  1  1  0  0  0
  1  2  1  0  0  0  0
  2  7  1  6  0  0  0
  2 12  1  0  0  0  0
  2  3  1  0  0  0  0
  4  9  1  0  0  0  0
  4  8  1  0  0  0  0
  4  3  1  0  0  0  0
  5 10  1  6  0  0  0
  5  4  1  0  0  0  0
 11 14  1  6  0  0  0
 11 13  1  0  0  0  0
 12 15  1  6  0  0  0
 12 11  1  0  0  0  0
 12 13  1  0  0  0  0
 13 16  1  0  0  0  0
 13 17  1  0  0  0  0
 18 11  1  0  0  0  0
 18 19  1  0  0  0  0
 19 24  1  0  0  0  0
 20 19  2  0  0  0  0
 20 25  1  0  0  0  0
 21 20  1  0  0  0  0
 22 23  1  0  0  0  0
 22 21  2  0  0  0  0
 23 18  2  0  0  0  0
 26 22  1  0  0  0  0
 27  1  1  0  0  0  0
 28 27  1  0  0  0  0
 29  5  1  0  0  0  0
 30 36  1  6  0  0  0
 31 29  1  1  0  0  0
 31 30  1  0  0  0  0
 32 31  1  0  0  0  0
 33 34  1  0  0  0  0
 33 32  1  0  0  0  0
 34 38  1  1  0  0  0
 34 35  1  0  0  0  0
 35 40  1  6  0  0  0
 35 30  1  0  0  0  0
 37 36  1  0  0  0  0
 38 39  1  0  0  0  0
 40 41  1  0  0  0  0
M  END
>  <minimizedAffinity>
-5.57905054

>  <minimizedRMSD>
0.721812427

$$$$
