
 OpenBabel03262521103D

 27 28  0  0  1  0  0  0  0  0999 V2000
   41.0940   26.4810   34.9470 O   0  0  0  0  0  0  0  0  0  0  0  0
   39.6020   26.6220   34.7530 P   0  0  1  0  0  0  0  0  0  0  0  0
   38.9150   27.5070   36.0390 O   0  0  0  0  0  0  0  0  0  0  0  0
   38.0680   27.9330   35.7620 H   0  0  0  0  0  0  0  0  0  0  0  0
   39.2060   27.4770   33.3310 O   0  0  0  0  0  0  0  0  0  0  0  0
   38.0250   27.2660   32.6380 C   0  0  0  0  0  0  0  0  0  0  0  0
   36.8690   28.0480   32.7470 C   0  0  0  0  0  0  0  0  0  0  0  0
   35.7670   27.7040   31.9830 C   0  0  0  0  0  0  0  0  0  0  0  0
   35.8390   26.6200   31.1520 N   0  0  0  0  0  0  0  0  0  0  0  0
   36.9850   25.8740   31.0670 C   0  0  0  0  0  0  0  0  0  0  0  0
   38.0600   26.2130   31.8150 N   0  0  0  0  0  0  0  0  0  0  0  0
   36.9170   28.8790   33.4310 H   0  0  0  0  0  0  0  0  0  0  0  0
   34.8770   28.3060   32.0680 H   0  0  0  0  0  0  0  0  0  0  0  0
   37.0300   25.0180   30.4060 H   0  0  0  0  0  0  0  0  0  0  0  0
   38.9720   25.0640   34.6830 O   0  0  0  0  0  0  0  0  0  0  0  0
   39.4540   23.0280   35.8760 C   0  0  2  0  0  3  0  0  0  0  0  0
   39.0820   24.4940   35.9460 C   0  0  2  0  0  3  0  0  0  0  0  0
   37.8170   24.5530   36.5140 O   0  0  0  0  0  0  0  0  0  0  0  0
   37.7980   24.2350   37.8520 C   0  0  0  0  0  2  0  0  0  0  0  0
   38.9030   23.3600   38.3210 C   0  0  2  0  0  3  0  0  0  0  0  0
   39.6340   22.5730   37.3070 C   0  0  2  0  0  3  0  0  0  0  0  0
   40.6330   22.8360   35.1440 O   0  0  0  0  0  0  0  0  0  0  0  0
   40.5550   21.9910   34.6460 H   0  0  0  0  0  0  0  0  0  0  0  0
   38.3680   22.4520   39.2610 O   0  0  0  0  0  0  0  0  0  0  0  0
   39.0620   21.9580   39.7260 H   0  0  0  0  0  0  0  0  0  0  0  0
   41.0270   22.5760   37.5440 O   0  0  0  0  0  0  0  0  0  0  0  0
   41.3040   21.8640   38.1710 H   0  0  0  0  0  0  0  0  0  0  0  0
  2  1  2  1  0  0  0
  2  3  1  0  0  0  0
  4  3  1  0  0  0  0
  5  2  1  0  0  0  0
  6  7  1  0  0  0  0
  6  5  1  0  0  0  0
  7 12  1  0  0  0  0
  8 13  1  0  0  0  0
  8  7  2  0  0  0  0
  9  8  1  0  0  0  0
 10  9  2  0  0  0  0
 10 11  1  0  0  0  0
 11  6  2  0  0  0  0
 14 10  1  0  0  0  0
 15  2  1  0  0  0  0
 16 22  1  6  0  0  0
 16 17  1  0  0  0  0
 16 21  1  0  0  0  0
 17 15  1  6  0  0  0
 17 18  1  0  0  0  0
 18 19  1  0  0  0  0
 19 20  1  0  0  0  0
 20 24  1  1  0  0  0
 21 26  1  1  0  0  0
 21 20  1  0  0  0  0
 23 22  1  0  0  0  0
 24 25  1  0  0  0  0
 26 27  1  0  0  0  0
M  END
>  <minimizedAffinity>
-5.38890457

$$$$

 OpenBabel03262521103D

 27 28  0  0  1  0  0  0  0  0999 V2000
   39.2600   26.3450   34.3600 O   0  0  0  0  0  0  0  0  0  0  0  0
   38.1100   26.6810   35.2820 P   0  0  1  0  0  0  0  0  0  0  0  0
   38.6600   27.6050   36.6060 O   0  0  0  0  0  0  0  0  0  0  0  0
   37.9250   28.1440   36.9890 H   0  0  0  0  0  0  0  0  0  0  0  0
   36.9130   27.6240   34.5160 O   0  0  0  0  0  0  0  0  0  0  0  0
   36.7080   27.6000   33.1450 C   0  0  0  0  0  0  0  0  0  0  0  0
   36.6540   28.7240   32.3130 C   0  0  0  0  0  0  0  0  0  0  0  0
   36.4410   28.5310   30.9590 C   0  0  0  0  0  0  0  0  0  0  0  0
   36.2910   27.2590   30.4780 N   0  0  0  0  0  0  0  0  0  0  0  0
   36.3490   26.1790   31.3180 C   0  0  0  0  0  0  0  0  0  0  0  0
   36.5560   26.3710   32.6420 N   0  0  0  0  0  0  0  0  0  0  0  0
   36.7840   29.6810   32.7920 H   0  0  0  0  0  0  0  0  0  0  0  0
   36.4000   29.3970   30.3190 H   0  0  0  0  0  0  0  0  0  0  0  0
   36.2280   25.1770   30.9260 H   0  0  0  0  0  0  0  0  0  0  0  0
   37.4540   25.2180   35.7910 O   0  0  0  0  0  0  0  0  0  0  0  0
   38.5980   23.1320   35.4210 C   0  0  2  0  0  3  0  0  0  0  0  0
   38.4920   24.4060   36.2320 C   0  0  2  0  0  3  0  0  0  0  0  0
   38.1690   24.0230   37.5260 O   0  0  0  0  0  0  0  0  0  0  0  0
   39.2000   23.4000   38.1900 C   0  0  0  0  0  2  0  0  0  0  0  0
   40.2060   22.7290   37.3290 C   0  0  2  0  0  3  0  0  0  0  0  0
   39.8170   22.4050   35.9420 C   0  0  2  0  0  3  0  0  0  0  0  0
   38.7330   23.4080   34.0540 O   0  0  0  0  0  0  0  0  0  0  0  0
   38.2540   22.7130   33.5480 H   0  0  0  0  0  0  0  0  0  0  0  0
   40.5800   21.5220   37.9600 O   0  0  0  0  0  0  0  0  0  0  0  0
   41.3490   21.1110   37.5340 H   0  0  0  0  0  0  0  0  0  0  0  0
   40.8570   22.6830   35.0260 O   0  0  0  0  0  0  0  0  0  0  0  0
   41.4900   21.9290   34.9330 H   0  0  0  0  0  0  0  0  0  0  0  0
  2  1  2  6  0  0  0
  2 15  1  0  0  0  0
  2  3  1  0  0  0  0
  3  4  1  0  0  0  0
  5  2  1  0  0  0  0
  6  5  1  0  0  0  0
  7 12  1  0  0  0  0
  7  6  2  0  0  0  0
  8  7  1  0  0  0  0
  9  8  2  0  0  0  0
  9 10  1  0  0  0  0
 10 11  2  0  0  0  0
 11  6  1  0  0  0  0
 13  8  1  0  0  0  0
 14 10  1  0  0  0  0
 16 22  1  6  0  0  0
 16 21  1  0  0  0  0
 16 17  1  0  0  0  0
 17 15  1  6  0  0  0
 17 18  1  0  0  0  0
 18 19  1  0  0  0  0
 20 24  1  1  0  0  0
 20 19  1  0  0  0  0
 21 26  1  6  0  0  0
 21 20  1  0  0  0  0
 23 22  1  0  0  0  0
 25 24  1  0  0  0  0
 27 26  1  0  0  0  0
M  END
>  <minimizedAffinity>
-5.32926607

$$$$

 OpenBabel03262521103D

 27 28  0  0  1  0  0  0  0  0999 V2000
   36.8800   28.2020   35.1340 O   0  0  0  0  0  0  0  0  0  0  0  0
   37.9070   27.0940   35.0770 P   0  0  1  0  0  0  0  0  0  0  0  0
   39.2460   27.4740   36.0640 O   0  0  0  0  0  0  0  0  0  0  0  0
   39.7200   26.6540   36.3470 H   0  0  0  0  0  0  0  0  0  0  0  0
   37.3010   25.6100   35.6600 O   0  0  0  0  0  0  0  0  0  0  0  0
   38.0870   24.7060   36.3570 C   0  0  0  0  0  0  0  0  0  0  0  0
   37.8360   24.2430   37.6550 C   0  0  0  0  0  0  0  0  0  0  0  0
   38.7200   23.3370   38.2130 C   0  0  0  0  0  0  0  0  0  0  0  0
   39.8040   22.9230   37.4870 N   0  0  0  0  0  0  0  0  0  0  0  0
   40.0220   23.3930   36.2200 C   0  0  0  0  0  0  0  0  0  0  0  0
   39.1560   24.2800   35.6770 N   0  0  0  0  0  0  0  0  0  0  0  0
   36.9550   24.6320   38.1390 H   0  0  0  0  0  0  0  0  0  0  0  0
   38.5260   22.9810   39.2120 H   0  0  0  0  0  0  0  0  0  0  0  0
   40.8840   23.0590   35.6560 H   0  0  0  0  0  0  0  0  0  0  0  0
   38.3640   26.9380   33.4660 O   0  0  0  0  0  0  0  0  0  0  0  0
   37.6490   25.2120   31.9470 C   0  0  2  0  0  3  0  0  0  0  0  0
   37.2800   26.4390   32.7540 C   0  0  2  0  0  3  0  0  0  0  0  0
   36.9270   27.4210   31.8390 O   0  0  0  0  0  0  0  0  0  0  0  0
   35.7300   27.1800   31.2060 C   0  0  0  0  0  2  0  0  0  0  0  0
   35.3200   25.7550   31.1280 C   0  0  2  0  0  3  0  0  0  0  0  0
   36.3650   24.7280   31.3120 C   0  0  2  0  0  3  0  0  0  0  0  0
   38.2050   24.2170   32.7600 O   0  0  0  0  0  0  0  0  0  0  0  0
   38.9030   23.7500   32.2460 H   0  0  0  0  0  0  0  0  0  0  0  0
   34.7320   25.5420   29.8620 O   0  0  0  0  0  0  0  0  0  0  0  0
   34.2970   24.6760   29.8030 H   0  0  0  0  0  0  0  0  0  0  0  0
   35.9130   23.6570   32.1170 O   0  0  0  0  0  0  0  0  0  0  0  0
   35.4450   22.9630   31.5920 H   0  0  0  0  0  0  0  0  0  0  0  0
  2  1  2  1  0  0  0
  2  5  1  0  0  0  0
  2  3  1  0  0  0  0
  3  4  1  0  0  0  0
  5  6  1  0  0  0  0
  6  7  1  0  0  0  0
  7 12  1  0  0  0  0
  7  8  2  0  0  0  0
  8 13  1  0  0  0  0
  9  8  1  0  0  0  0
 10  9  2  0  0  0  0
 11 10  1  0  0  0  0
 11  6  2  0  0  0  0
 14 10  1  0  0  0  0
 15  2  1  0  0  0  0
 16 17  1  0  0  0  0
 16 22  1  1  0  0  0
 17 15  1  6  0  0  0
 18 17  1  0  0  0  0
 19 18  1  0  0  0  0
 20 24  1  6  0  0  0
 20 19  1  0  0  0  0
 20 21  1  0  0  0  0
 21 16  1  0  0  0  0
 21 26  1  1  0  0  0
 23 22  1  0  0  0  0
 25 24  1  0  0  0  0
 27 26  1  0  0  0  0
M  END
>  <minimizedAffinity>
-5.08957338

$$$$

 OpenBabel03262521103D

 27 28  0  0  1  0  0  0  0  0999 V2000
   38.5320   27.5630   36.2110 O   0  0  0  0  0  0  0  0  0  0  0  0
   37.9140   26.7160   35.1220 P   0  0  1  0  0  0  0  0  0  0  0  0
   39.0520   26.4130   33.8880 O   0  0  0  0  0  0  0  0  0  0  0  0
   38.8240   25.5890   33.3910 H   0  0  0  0  0  0  0  0  0  0  0  0
   37.4170   25.1850   35.6870 O   0  0  0  0  0  0  0  0  0  0  0  0
   38.2080   24.4010   36.5110 C   0  0  0  0  0  0  0  0  0  0  0  0
   37.9660   24.1470   37.8660 C   0  0  0  0  0  0  0  0  0  0  0  0
   38.8550   23.3390   38.5540 C   0  0  0  0  0  0  0  0  0  0  0  0
   39.9340   22.8180   37.8940 N   0  0  0  0  0  0  0  0  0  0  0  0
   40.1450   23.0850   36.5680 C   0  0  0  0  0  0  0  0  0  0  0  0
   39.2740   23.8750   35.8990 N   0  0  0  0  0  0  0  0  0  0  0  0
   37.0870   24.6050   38.2900 H   0  0  0  0  0  0  0  0  0  0  0  0
   38.6680   23.1430   39.5970 H   0  0  0  0  0  0  0  0  0  0  0  0
   41.0030   22.6670   36.0570 H   0  0  0  0  0  0  0  0  0  0  0  0
   36.5920   27.5720   34.5330 O   0  0  0  0  0  0  0  0  0  0  0  0
   35.8030   28.8230   32.6310 C   0  0  2  0  0  3  0  0  0  0  0  0
   36.8110   27.8380   33.1860 C   0  0  2  0  0  3  0  0  0  0  0  0
   36.6070   26.6430   32.5120 O   0  0  0  0  0  0  0  0  0  0  0  0
   37.0030   26.6770   31.1950 C   0  0  0  0  0  2  0  0  0  0  0  0
   37.0160   28.0210   30.5640 C   0  0  2  0  0  3  0  0  0  0  0  0
   36.2220   29.0890   31.2030 C   0  0  2  0  0  3  0  0  0  0  0  0
   35.7900   30.0100   33.3740 O   0  0  0  0  0  0  0  0  0  0  0  0
   34.8650   30.3460   33.4050 H   0  0  0  0  0  0  0  0  0  0  0  0
   36.5510   27.8800   29.2370 O   0  0  0  0  0  0  0  0  0  0  0  0
   36.6840   28.6890   28.7170 H   0  0  0  0  0  0  0  0  0  0  0  0
   36.9170   30.3190   31.2250 O   0  0  0  0  0  0  0  0  0  0  0  0
   36.7880   30.8400   30.3950 H   0  0  0  0  0  0  0  0  0  0  0  0
  2  5  1  0  0  0  0
  2  1  2  1  0  0  0
  3  2  1  0  0  0  0
  4  3  1  0  0  0  0
  5  6  1  0  0  0  0
  6  7  1  0  0  0  0
  7 12  1  0  0  0  0
  7  8  2  0  0  0  0
  8 13  1  0  0  0  0
  9  8  1  0  0  0  0
 10  9  2  0  0  0  0
 11  6  2  0  0  0  0
 11 10  1  0  0  0  0
 14 10  1  0  0  0  0
 15  2  1  0  0  0  0
 16 17  1  0  0  0  0
 16 22  1  1  0  0  0
 17 15  1  1  0  0  0
 18 17  1  0  0  0  0
 19 18  1  0  0  0  0
 20 24  1  6  0  0  0
 20 19  1  0  0  0  0
 20 21  1  0  0  0  0
 21 26  1  1  0  0  0
 21 16  1  0  0  0  0
 22 23  1  0  0  0  0
 25 24  1  0  0  0  0
 27 26  1  0  0  0  0
M  END
>  <minimizedAffinity>
-5.08235121

$$$$

 OpenBabel03262521103D

 27 28  0  0  1  0  0  0  0  0999 V2000
   39.7540   27.3190   34.2890 O   0  0  0  0  0  0  0  0  0  0  0  0
   38.7890   26.6630   35.2490 P   0  0  1  0  0  0  0  0  0  0  0  0
   38.5140   27.6710   36.5970 O   0  0  0  0  0  0  0  0  0  0  0  0
   37.6440   27.4670   37.0190 H   0  0  0  0  0  0  0  0  0  0  0  0
   37.2580   26.3870   34.5500 O   0  0  0  0  0  0  0  0  0  0  0  0
   36.8490   27.0100   33.3810 C   0  0  0  0  0  0  0  0  0  0  0  0
   36.4830   28.3570   33.2640 C   0  0  0  0  0  0  0  0  0  0  0  0
   36.0960   28.8280   32.0220 C   0  0  0  0  0  0  0  0  0  0  0  0
   36.0840   27.9730   30.9540 N   0  0  0  0  0  0  0  0  0  0  0  0
   36.4480   26.6610   31.1000 C   0  0  0  0  0  0  0  0  0  0  0  0
   36.8250   26.2020   32.3160 N   0  0  0  0  0  0  0  0  0  0  0  0
   36.5270   28.9440   34.1660 H   0  0  0  0  0  0  0  0  0  0  0  0
   35.8150   29.8650   31.9330 H   0  0  0  0  0  0  0  0  0  0  0  0
   36.4330   25.9930   30.2470 H   0  0  0  0  0  0  0  0  0  0  0  0
   39.4830   25.2030   35.7120 O   0  0  0  0  0  0  0  0  0  0  0  0
   38.9520   22.8610   35.9050 C   0  0  2  0  0  3  0  0  0  0  0  0
   38.7190   24.1700   35.1810 C   0  0  2  0  0  3  0  0  0  0  0  0
   39.1620   23.9850   33.8790 O   0  0  0  0  0  0  0  0  0  0  0  0
   38.3590   23.1510   33.1360 C   0  0  0  0  0  2  0  0  0  0  0  0
   37.5590   22.1700   33.9130 C   0  0  2  0  0  3  0  0  0  0  0  0
   37.9930   21.8670   35.2910 C   0  0  2  0  0  3  0  0  0  0  0  0
   38.7180   22.9920   37.2800 O   0  0  0  0  0  0  0  0  0  0  0  0
   39.3600   22.4200   37.7600 H   0  0  0  0  0  0  0  0  0  0  0  0
   37.5470   20.9550   33.1930 O   0  0  0  0  0  0  0  0  0  0  0  0
   36.9120   20.3200   33.5610 H   0  0  0  0  0  0  0  0  0  0  0  0
   36.8980   21.7830   36.1800 O   0  0  0  0  0  0  0  0  0  0  0  0
   36.4970   20.8800   36.2000 H   0  0  0  0  0  0  0  0  0  0  0  0
  2  1  2  6  0  0  0
  2 15  1  0  0  0  0
  2  3  1  0  0  0  0
  3  4  1  0  0  0  0
  5  2  1  0  0  0  0
  6  5  1  0  0  0  0
  7  6  1  0  0  0  0
  7 12  1  0  0  0  0
  8  7  2  0  0  0  0
  9 10  2  0  0  0  0
  9  8  1  0  0  0  0
 10 11  1  0  0  0  0
 11  6  2  0  0  0  0
 13  8  1  0  0  0  0
 14 10  1  0  0  0  0
 16 22  1  1  0  0  0
 17 15  1  1  0  0  0
 17 16  1  0  0  0  0
 18 17  1  0  0  0  0
 19 18  1  0  0  0  0
 19 20  1  0  0  0  0
 20 24  1  6  0  0  0
 20 21  1  0  0  0  0
 21 16  1  0  0  0  0
 21 26  1  1  0  0  0
 22 23  1  0  0  0  0
 24 25  1  0  0  0  0
 26 27  1  0  0  0  0
M  END
>  <minimizedAffinity>
-4.75264215

$$$$

 OpenBabel03262521103D

 27 28  0  0  1  0  0  0  0  0999 V2000
   36.7180   20.9100   33.2450 O   0  0  0  0  0  0  0  0  0  0  0  0
   37.9220   21.8160   33.1360 P   0  0  1  0  0  0  0  0  0  0  0  0
   39.3520   20.8940   33.0250 O   0  0  0  0  0  0  0  0  0  0  0  0
   40.0710   21.4070   32.5810 H   0  0  0  0  0  0  0  0  0  0  0  0
   37.8830   22.7900   31.7360 O   0  0  0  0  0  0  0  0  0  0  0  0
   37.0400   23.8840   31.6120 C   0  0  0  0  0  0  0  0  0  0  0  0
   35.7200   23.8420   31.1470 C   0  0  0  0  0  0  0  0  0  0  0  0
   35.0080   25.0270   31.0820 C   0  0  0  0  0  0  0  0  0  0  0  0
   35.6090   26.1930   31.4720 N   0  0  0  0  0  0  0  0  0  0  0  0
   36.9010   26.2010   31.9230 C   0  0  0  0  0  0  0  0  0  0  0  0
   37.5960   25.0410   31.9840 N   0  0  0  0  0  0  0  0  0  0  0  0
   35.3420   22.8730   30.8650 H   0  0  0  0  0  0  0  0  0  0  0  0
   33.9920   24.9950   30.7240 H   0  0  0  0  0  0  0  0  0  0  0  0
   37.3670   27.1300   32.2270 H   0  0  0  0  0  0  0  0  0  0  0  0
   37.9270   22.7840   34.5120 O   0  0  0  0  0  0  0  0  0  0  0  0
   39.1490   23.1590   36.5540 C   0  0  2  0  0  3  0  0  0  0  0  0
   39.1700   22.6630   35.1230 C   0  0  2  0  0  3  0  0  0  0  0  0
   40.0310   23.5020   34.4280 O   0  0  0  0  0  0  0  0  0  0  0  0
   41.3540   23.3330   34.7620 C   0  0  0  0  0  2  0  0  0  0  0  0
   41.6100   22.7820   36.1170 C   0  0  2  0  0  3  0  0  0  0  0  0
   40.5250   22.8770   37.1140 C   0  0  2  0  0  3  0  0  0  0  0  0
   38.1650   22.5030   37.3040 O   0  0  0  0  0  0  0  0  0  0  0  0
   37.7850   23.1450   37.9470 H   0  0  0  0  0  0  0  0  0  0  0  0
   42.7370   23.4460   36.6490 O   0  0  0  0  0  0  0  0  0  0  0  0
   43.0570   23.0250   37.4630 H   0  0  0  0  0  0  0  0  0  0  0  0
   40.4010   21.6900   37.8710 O   0  0  0  0  0  0  0  0  0  0  0  0
   41.0030   21.6790   38.6550 H   0  0  0  0  0  0  0  0  0  0  0  0
  2  1  2  1  0  0  0
  2 15  1  0  0  0  0
  3  2  1  0  0  0  0
  4  3  1  0  0  0  0
  5  2  1  0  0  0  0
  6  5  1  0  0  0  0
  6 11  1  0  0  0  0
  7  6  2  0  0  0  0
  8  7  1  0  0  0  0
  8  9  2  0  0  0  0
  9 10  1  0  0  0  0
 10 11  2  0  0  0  0
 10 14  1  0  0  0  0
 12  7  1  0  0  0  0
 13  8  1  0  0  0  0
 16 21  1  0  0  0  0
 16 22  1  1  0  0  0
 17 15  1  6  0  0  0
 17 16  1  0  0  0  0
 18 19  1  0  0  0  0
 18 17  1  0  0  0  0
 19 20  1  0  0  0  0
 20 24  1  1  0  0  0
 20 21  1  0  0  0  0
 21 26  1  6  0  0  0
 22 23  1  0  0  0  0
 24 25  1  0  0  0  0
 26 27  1  0  0  0  0
M  END
>  <minimizedAffinity>
-4.70315981

$$$$

 OpenBabel03262521103D

 27 28  0  0  1  0  0  0  0  0999 V2000
   35.7460   24.7060   31.6130 O   0  0  0  0  0  0  0  0  0  0  0  0
   37.2530   24.6490   31.5160 P   0  0  1  0  0  0  0  0  0  0  0  0
   37.7350   24.3530   29.9070 O   0  0  0  0  0  0  0  0  0  0  0  0
   38.6530   24.6850   29.7460 H   0  0  0  0  0  0  0  0  0  0  0  0
   37.9930   26.1190   31.9650 O   0  0  0  0  0  0  0  0  0  0  0  0
   37.3020   27.1360   32.6050 C   0  0  0  0  0  0  0  0  0  0  0  0
   36.6580   28.2040   31.9690 C   0  0  0  0  0  0  0  0  0  0  0  0
   36.0090   29.1420   32.7530 C   0  0  0  0  0  0  0  0  0  0  0  0
   36.0150   28.9990   34.1130 N   0  0  0  0  0  0  0  0  0  0  0  0
   36.6540   27.9430   34.7060 C   0  0  0  0  0  0  0  0  0  0  0  0
   37.2890   27.0280   33.9370 N   0  0  0  0  0  0  0  0  0  0  0  0
   36.7120   28.2230   30.8930 H   0  0  0  0  0  0  0  0  0  0  0  0
   35.5130   29.9640   32.2620 H   0  0  0  0  0  0  0  0  0  0  0  0
   36.6540   27.8410   35.7840 H   0  0  0  0  0  0  0  0  0  0  0  0
   37.7590   23.4130   32.5390 O   0  0  0  0  0  0  0  0  0  0  0  0
   37.1700   21.2470   33.4120 C   0  0  2  0  0  3  0  0  0  0  0  0
   36.7900   22.4160   32.5290 C   0  0  2  0  0  3  0  0  0  0  0  0
   36.7420   21.9300   31.2300 O   0  0  0  0  0  0  0  0  0  0  0  0
   35.6760   21.0930   30.9930 C   0  0  0  0  0  2  0  0  0  0  0  0
   35.1300   20.3960   32.1850 C   0  0  2  0  0  3  0  0  0  0  0  0
   35.9920   20.2990   33.3800 C   0  0  2  0  0  3  0  0  0  0  0  0
   37.4340   21.6640   34.7230 O   0  0  0  0  0  0  0  0  0  0  0  0
   38.1620   21.1090   35.0840 H   0  0  0  0  0  0  0  0  0  0  0  0
   34.7870   19.0820   31.7990 O   0  0  0  0  0  0  0  0  0  0  0  0
   34.2770   18.6220   32.4850 H   0  0  0  0  0  0  0  0  0  0  0  0
   35.2690   20.5380   34.5710 O   0  0  0  0  0  0  0  0  0  0  0  0
   34.8390   19.7190   34.9210 H   0  0  0  0  0  0  0  0  0  0  0  0
  2  1  2  1  0  0  0
  2  5  1  0  0  0  0
  2 15  1  0  0  0  0
  3  2  1  0  0  0  0
  4  3  1  0  0  0  0
  5  6  1  0  0  0  0
  6 11  1  0  0  0  0
  7  6  2  0  0  0  0
  7  8  1  0  0  0  0
  8  9  2  0  0  0  0
  9 10  1  0  0  0  0
 10 14  1  0  0  0  0
 11 10  2  0  0  0  0
 12  7  1  0  0  0  0
 13  8  1  0  0  0  0
 16 22  1  1  0  0  0
 17 15  1  6  0  0  0
 17 16  1  0  0  0  0
 18 17  1  0  0  0  0
 19 18  1  0  0  0  0
 19 20  1  0  0  0  0
 20 24  1  6  0  0  0
 20 21  1  0  0  0  0
 21 16  1  0  0  0  0
 21 26  1  1  0  0  0
 22 23  1  0  0  0  0
 24 25  1  0  0  0  0
 26 27  1  0  0  0  0
M  END
>  <minimizedAffinity>
-4.69822741

$$$$

 OpenBabel03262521103D

 27 28  0  0  1  0  0  0  0  0999 V2000
   37.5050   28.1320   35.4640 O   0  0  0  0  0  0  0  0  0  0  0  0
   38.1390   26.8440   34.9900 P   0  0  1  0  0  0  0  0  0  0  0  0
   39.7940   26.8100   35.3990 O   0  0  0  0  0  0  0  0  0  0  0  0
   40.1250   25.8800   35.4580 H   0  0  0  0  0  0  0  0  0  0  0  0
   37.4470   25.4670   35.7220 O   0  0  0  0  0  0  0  0  0  0  0  0
   38.1790   24.5970   36.5140 C   0  0  0  0  0  0  0  0  0  0  0  0
   37.9440   24.3420   37.8710 C   0  0  0  0  0  0  0  0  0  0  0  0
   38.7670   23.4420   38.5240 C   0  0  0  0  0  0  0  0  0  0  0  0
   39.7770   22.8320   37.8310 N   0  0  0  0  0  0  0  0  0  0  0  0
   39.9810   23.1010   36.5040 C   0  0  0  0  0  0  0  0  0  0  0  0
   39.1750   23.9830   35.8680 N   0  0  0  0  0  0  0  0  0  0  0  0
   37.1230   24.8750   38.3230 H   0  0  0  0  0  0  0  0  0  0  0  0
   38.5860   23.2470   39.5680 H   0  0  0  0  0  0  0  0  0  0  0  0
   40.7840   22.6130   35.9660 H   0  0  0  0  0  0  0  0  0  0  0  0
   37.9230   26.7820   33.3230 O   0  0  0  0  0  0  0  0  0  0  0  0
   38.6720   24.7260   32.3150 C   0  0  2  0  0  3  0  0  0  0  0  0
   37.5460   25.4880   32.9820 C   0  0  2  0  0  3  0  0  0  0  0  0
   36.5370   25.6100   32.0360 O   0  0  0  0  0  0  0  0  0  0  0  0
   35.8960   24.4250   31.7580 C   0  0  0  0  0  2  0  0  0  0  0  0
   36.6860   23.1930   32.0080 C   0  0  2  0  0  3  0  0  0  0  0  0
   38.1540   23.3230   32.0940 C   0  0  2  0  0  3  0  0  0  0  0  0
   39.8200   24.7110   33.1160 O   0  0  0  0  0  0  0  0  0  0  0  0
   40.6090   24.7560   32.5290 H   0  0  0  0  0  0  0  0  0  0  0  0
   36.3990   22.2770   30.9720 O   0  0  0  0  0  0  0  0  0  0  0  0
   36.7550   21.3940   31.1570 H   0  0  0  0  0  0  0  0  0  0  0  0
   38.6900   22.5420   33.1430 O   0  0  0  0  0  0  0  0  0  0  0  0
   38.8760   21.6120   32.8640 H   0  0  0  0  0  0  0  0  0  0  0  0
  2  3  1  0  0  0  0
  2  1  2  1  0  0  0
  2  5  1  0  0  0  0
  3  4  1  0  0  0  0
  5  6  1  0  0  0  0
  6  7  1  0  0  0  0
  7 12  1  0  0  0  0
  7  8  2  0  0  0  0
  8 13  1  0  0  0  0
  9  8  1  0  0  0  0
 10  9  2  0  0  0  0
 11 10  1  0  0  0  0
 11  6  2  0  0  0  0
 14 10  1  0  0  0  0
 15  2  1  0  0  0  0
 16 17  1  0  0  0  0
 16 22  1  1  0  0  0
 17 15  1  6  0  0  0
 18 17  1  0  0  0  0
 19 20  1  0  0  0  0
 19 18  1  0  0  0  0
 20 24  1  6  0  0  0
 20 21  1  0  0  0  0
 21 16  1  0  0  0  0
 21 26  1  1  0  0  0
 23 22  1  0  0  0  0
 24 25  1  0  0  0  0
 27 26  1  0  0  0  0
M  END
>  <minimizedAffinity>
-4.57820368

$$$$

 OpenBabel03262521103D

 27 28  0  0  1  0  0  0  0  0999 V2000
   38.0070   22.0900   35.9770 O   0  0  0  0  0  0  0  0  0  0  0  0
   38.1270   23.1730   37.0240 P   0  0  1  0  0  0  0  0  0  0  0  0
   37.3410   22.6990   38.4620 O   0  0  0  0  0  0  0  0  0  0  0  0
   37.7160   23.1760   39.2430 H   0  0  0  0  0  0  0  0  0  0  0  0
   39.7470   23.4880   37.4570 O   0  0  0  0  0  0  0  0  0  0  0  0
   40.8140   22.8030   36.8980 C   0  0  0  0  0  0  0  0  0  0  0  0
   41.5190   23.1940   35.7520 C   0  0  0  0  0  0  0  0  0  0  0  0
   42.5650   22.3970   35.3200 C   0  0  0  0  0  0  0  0  0  0  0  0
   42.8770   21.2630   36.0180 N   0  0  0  0  0  0  0  0  0  0  0  0
   42.1700   20.9080   37.1340 C   0  0  0  0  0  0  0  0  0  0  0  0
   41.1460   21.6870   37.5550 N   0  0  0  0  0  0  0  0  0  0  0  0
   41.1920   24.1040   35.2770 H   0  0  0  0  0  0  0  0  0  0  0  0
   43.1070   22.6990   34.4380 H   0  0  0  0  0  0  0  0  0  0  0  0
   42.4260   20.0060   37.6780 H   0  0  0  0  0  0  0  0  0  0  0  0
   37.4230   24.5560   36.3750 O   0  0  0  0  0  0  0  0  0  0  0  0
   38.2550   26.5740   35.3560 C   0  0  2  0  0  3  0  0  0  0  0  0
   38.2770   25.0600   35.4000 C   0  0  2  0  0  3  0  0  0  0  0  0
   37.7800   24.6230   34.1800 O   0  0  0  0  0  0  0  0  0  0  0  0
   38.6340   24.8460   33.1250 C   0  0  0  0  0  2  0  0  0  0  0  0
   39.5970   25.9620   33.3030 C   0  0  2  0  0  3  0  0  0  0  0  0
   39.2910   26.9760   34.3310 C   0  0  2  0  0  3  0  0  0  0  0  0
   38.5570   27.1240   36.6080 O   0  0  0  0  0  0  0  0  0  0  0  0
   38.0220   27.9420   36.7240 H   0  0  0  0  0  0  0  0  0  0  0  0
   39.7160   26.6320   32.0650 O   0  0  0  0  0  0  0  0  0  0  0  0
   40.4480   27.2700   32.0650 H   0  0  0  0  0  0  0  0  0  0  0  0
   40.4410   27.3440   35.0650 O   0  0  0  0  0  0  0  0  0  0  0  0
   40.9530   28.0670   34.6270 H   0  0  0  0  0  0  0  0  0  0  0  0
  2  1  2  6  0  0  0
  2  5  1  0  0  0  0
  2  3  1  0  0  0  0
  3  4  1  0  0  0  0
  6  5  1  0  0  0  0
  6 11  1  0  0  0  0
  7  6  2  0  0  0  0
  8  7  1  0  0  0  0
  8  9  2  0  0  0  0
  9 10  1  0  0  0  0
 10 11  2  0  0  0  0
 10 14  1  0  0  0  0
 12  7  1  0  0  0  0
 13  8  1  0  0  0  0
 15  2  1  0  0  0  0
 16 17  1  0  0  0  0
 16 22  1  1  0  0  0
 17 15  1  1  0  0  0
 18 17  1  0  0  0  0
 19 20  1  0  0  0  0
 19 18  1  0  0  0  0
 20 24  1  6  0  0  0
 20 21  1  0  0  0  0
 21 26  1  1  0  0  0
 21 16  1  0  0  0  0
 22 23  1  0  0  0  0
 25 24  1  0  0  0  0
 27 26  1  0  0  0  0
M  END
>  <minimizedAffinity>
-4.54842091

$$$$
