
     RDKit          3D

 35 36  0  0  0  0  0  0  0  0999 V2000
   37.3210   30.2530   51.4001 C   0  0  0  0  0  0  0  0  0  0  0  0
   37.9747   30.7166   50.2511 C   0  0  0  0  0  0  0  0  0  0  0  0
   37.5439   30.3475   49.0046 C   0  0  0  0  0  0  0  0  0  0  0  0
   36.4588   29.5179   48.9061 N   0  0  0  0  0  0  0  0  0  0  0  0
   35.8496   29.0900   50.0379 C   0  0  0  0  0  0  0  0  0  0  0  0
   36.2715   29.4490   51.2672 N   0  0  0  0  0  0  0  0  0  0  0  0
   38.1932   30.7936   47.8202 C   0  0  0  0  0  0  0  0  0  0  0  0
   38.8001   31.9366   47.7592 C   0  0  0  0  0  0  0  0  0  0  0  0
   39.4314   32.5253   46.5574 C   0  0  0  0  0  0  0  0  0  0  0  0
   38.2547   32.3806   45.1682 S   0  0  0  0  0  0  0  0  0  0  0  0
   37.6543   30.5254   52.4057 H   0  0  0  0  0  0  0  0  0  0  0  0
   38.8216   31.3669   50.4000 H   0  0  0  0  0  0  0  0  0  0  0  0
   34.9731   28.4246   50.0562 H   0  0  0  0  0  0  0  0  0  0  0  0
   38.1921   30.1381   46.9483 H   0  0  0  0  0  0  0  0  0  0  0  0
   38.8453   32.6168   48.6261 H   0  0  0  0  0  0  0  0  0  0  0  0
   39.7666   33.5559   46.6897 H   0  0  0  0  0  0  0  0  0  0  0  0
   40.3703   31.9444   46.3154 H   0  0  0  0  0  0  0  0  0  0  0  0
   37.0250   30.7289   42.4901 O   0  0  0  0  0  0  0  0  0  0  0  0
   37.7678   30.2744   43.5762 C   0  0  2  0  0  0  0  0  0  0  0  0
   38.8916   31.2532   43.8555 C   0  0  2  0  0  0  0  0  0  0  0  0
   39.9998   30.6400   44.3949 O   0  0  0  0  0  0  0  0  0  0  0  0
   40.4293   29.4917   43.8014 C   0  0  0  0  0  0  0  0  0  0  0  0
   39.3767   28.4110   44.0401 C   0  0  1  0  0  0  0  0  0  0  0  0
   39.1403   28.2656   45.3849 O   0  0  0  0  0  0  0  0  0  0  0  0
   38.1607   28.8747   43.2959 C   0  0  2  0  0  0  0  0  0  0  0  0
   38.2453   28.6218   41.9240 O   0  0  0  0  0  0  0  0  0  0  0  0
   36.0445   30.5946   42.6354 H   0  0  0  0  0  0  0  0  0  0  0  0
   37.0425   30.3305   44.4490 H   0  0  0  0  0  0  0  0  0  0  0  0
   39.0815   31.8511   42.9692 H   0  0  0  0  0  0  0  0  0  0  0  0
   40.6252   29.5880   42.7111 H   0  0  0  0  0  0  0  0  0  0  0  0
   41.3584   29.1512   44.2979 H   0  0  0  0  0  0  0  0  0  0  0  0
   39.7007   27.4464   43.5750 H   0  0  0  0  0  0  0  0  0  0  0  0
   38.1925   28.4435   45.6394 H   0  0  0  0  0  0  0  0  0  0  0  0
   37.3183   28.2082   43.6552 H   0  0  0  0  0  0  0  0  0  0  0  0
   37.2956   28.6049   41.5987 H   0  0  0  0  0  0  0  0  0  0  0  0
  2  1  2  0
  3  2  1  0
  4  3  2  0
  4  5  1  0
  5  6  2  0
  6  1  1  0
  7  3  1  0
  8  7  2  0
  9  8  1  0
 10  9  1  0
  1 11  1  0
  2 12  1  0
  5 13  1  0
  7 14  1  0
  8 15  1  0
  9 16  1  0
  9 17  1  0
 18 19  1  0
 19 20  1  0
 20 21  1  0
 21 22  1  0
 22 23  1  0
 23 24  1  0
 23 25  1  0
 25 26  1  0
 25 19  1  0
 18 27  1  0
 19 28  1  1
 20 29  1  6
 22 30  1  0
 22 31  1  0
 23 32  1  6
 24 33  1  0
 25 34  1  1
 26 35  1  0
 10 20  1  0
M  ISO  5  11  14  12  14  13  14  16   8  17   8
M  END
>  <DihAtoms>  (1) 
8,9,19,18

>  <DihDeg>  (1) 
-65.49692074475755

$$$$
