
     RDKit          3D

 33 34  0  0  0  0  0  0  0  0999 V2000
   37.3399   30.1569   51.3555 C   0  0  0  0  0  0  0  0  0  0  0  0
   37.9939   30.5052   50.1751 C   0  0  0  0  0  0  0  0  0  0  0  0
   37.4153   30.1413   48.9471 C   0  0  0  0  0  0  0  0  0  0  0  0
   36.2396   29.4640   48.9893 N   0  0  0  0  0  0  0  0  0  0  0  0
   35.6383   29.1458   50.1573 C   0  0  0  0  0  0  0  0  0  0  0  0
   36.1878   29.4916   51.3310 N   0  0  0  0  0  0  0  0  0  0  0  0
   37.8669   30.3709   47.6903 O   0  0  0  0  0  0  0  0  0  0  0  0
   39.0596   32.7297   48.1393 O   0  0  0  0  0  0  0  0  0  0  0  0
   38.7007   31.7251   47.1047 P   0  0  2  0  0  0  0  0  0  0  0  0
   37.8261   32.4608   45.8519 O   0  0  0  0  0  0  0  0  0  0  0  0
   40.1519   31.1808   46.4116 O   0  0  0  0  0  0  0  0  0  0  0  0
   37.8967   30.4990   52.2060 H   0  0  0  0  0  0  0  0  0  0  0  0
   38.9215   31.0375   50.0582 H   0  0  0  0  0  0  0  0  0  0  0  0
   34.6962   28.6025   50.1684 H   0  0  0  0  0  0  0  0  0  0  0  0
   37.5281   33.3687   46.0584 H   0  0  0  0  0  0  0  0  0  0  0  0
   39.7500   33.6726   47.0648 O   0  0  0  0  0  0  0  0  0  0  0  0
   39.8702   33.3737   45.7161 C   0  0  2  0  0  0  0  0  0  0  0  0
   40.7295   32.1286   45.5755 C   0  0  1  0  0  0  0  0  0  0  0  0
   41.9870   32.4356   46.0836 O   0  0  0  0  0  0  0  0  0  0  0  0
   42.7113   33.2663   45.2413 C   0  0  0  0  0  0  0  0  0  0  0  0
   41.8290   34.0978   44.3463 C   0  0  2  0  0  0  0  0  0  0  0  0
   42.5135   35.2860   44.0635 O   0  0  0  0  0  0  0  0  0  0  0  0
   40.5402   34.4965   45.0038 C   0  0  2  0  0  0  0  0  0  0  0  0
   40.6906   35.5704   45.8445 O   0  0  0  0  0  0  0  0  0  0  0  0
   40.6087   33.5395   47.5307 H   0  0  0  0  0  0  0  0  0  0  0  0
   38.8767   33.1050   45.2699 H   0  0  0  0  0  0  0  0  0  0  0  0
   40.8517   31.8013   44.5403 H   0  0  0  0  0  0  0  0  0  0  0  0
   43.3102   32.6000   44.5619 H   0  0  0  0  0  0  0  0  0  0  0  0
   43.4341   33.8604   45.8136 H   0  0  0  0  0  0  0  0  0  0  0  0
   41.6013   33.5507   43.4124 H   0  0  0  0  0  0  0  0  0  0  0  0
   42.0682   35.8078   43.3498 H   0  0  0  0  0  0  0  0  0  0  0  0
   39.8422   34.8406   44.1877 H   0  0  0  0  0  0  0  0  0  0  0  0
   41.5938   35.9640   45.8267 H   0  0  0  0  0  0  0  0  0  0  0  0
  2  1  2  0
  3  4  2  0
  3  2  1  0
  4  5  1  0
  5  6  2  0
  6  1  1  0
  7  3  1  0
  9  7  1  1
  9  8  2  0
 10  9  1  0
 11  9  1  0
  1 12  1  0
  2 13  1  0
  5 14  1  0
 10 15  1  0
 16 17  1  0
 17 18  1  0
 18 19  1  0
 19 20  1  0
 20 21  1  0
 21 22  1  0
 21 23  1  0
 23 24  1  0
 23 17  1  0
 16 25  1  0
 17 26  1  6
 18 27  1  6
 20 28  1  0
 20 29  1  0
 21 30  1  6
 22 31  1  0
 23 32  1  6
 24 33  1  0
 11 18  1  0
M  ISO  4  12  14  13  14  14  14  15   3
M  END
>  <DihAtoms>  (1) 
8,10,17,16

>  <DihDeg>  (1) 
125.29268121756033

$$$$
