
 OpenBabel03272504573D

 36 38  0  0  1  0  0  0  0  0999 V2000
   37.0460   31.5490   48.6290 C   0  0  1  0  0  0  0  0  0  0  0  0
   36.3230   30.8620   47.5880 C   0  0  0  0  0  0  0  0  0  0  0  0
   37.2740   30.1140   48.4640 C   0  0  2  0  0  0  0  0  0  0  0  0
   36.5610   31.8320   49.6290 H   0  0  0  0  0  0  0  0  0  0  0  0
   35.2820   31.0890   47.7060 H   0  0  0  0  0  0  0  0  0  0  0  0
   36.6640   31.0410   46.5460 H   0  0  0  0  0  0  0  0  0  0  0  0
   37.9990   29.5920   47.8700 H   0  0  0  0  0  0  0  0  0  0  0  0
   38.1920   32.4620   48.3010 C   0  0  0  0  0  0  0  0  0  0  0  0
   38.5370   33.4040   49.3040 C   0  0  0  0  0  0  0  0  0  0  0  0
   39.5910   34.2250   48.9690 C   0  0  0  0  0  0  0  0  0  0  0  0
   40.2120   34.0970   47.7590 N   0  0  0  0  0  0  0  0  0  0  0  0
   39.8450   33.1810   46.8320 C   0  0  0  0  0  0  0  0  0  0  0  0
   38.8030   32.3520   47.1380 N   0  0  0  0  0  0  0  0  0  0  0  0
   40.4810   33.0570   45.5940 N   0  0  0  0  0  0  0  0  0  0  0  0
   38.0550   33.5030   50.2450 H   0  0  0  0  0  0  0  0  0  0  0  0
   39.8970   34.9620   49.6950 H   0  0  0  0  0  0  0  0  0  0  0  0
   41.3540   33.6390   45.4410 H   0  0  0  0  0  0  0  0  0  0  0  0
   40.1000   32.4180   44.8640 H   0  0  0  0  0  0  0  0  0  0  0  0
   36.6740   29.3050   49.4430 O   0  0  0  0  0  0  0  0  0  0  0  0
   34.6500   27.7450   49.7500 O   0  0  0  0  0  0  0  0  0  0  0  0
   35.0870   28.9890   49.0460 P   0  0  1  0  0  0  0  0  0  0  0  0
   34.0830   30.2530   49.6780 O   0  0  0  0  0  0  0  0  0  0  0  0
   34.5650   30.6890   50.4320 H   0  0  0  0  0  0  0  0  0  0  0  0
   34.9420   28.9210   47.3760 O   0  0  0  0  0  0  0  0  0  0  0  0
   32.6140   29.0540   47.3610 C   0  0  2  0  0  3  0  0  0  0  0  0
   33.8230   28.2570   46.9360 C   0  0  1  0  0  3  0  0  0  0  0  0
   33.8540   27.9730   45.5750 O   0  0  0  0  0  0  0  0  0  0  0  0
   32.7430   27.1290   45.3450 C   0  0  0  0  0  2  0  0  0  0  0  0
   31.5410   28.0780   45.4100 C   0  0  1  0  0  3  0  0  0  0  0  0
   31.3660   28.3500   46.9070 C   0  0  2  0  0  3  0  0  0  0  0  0
   32.6060   30.3210   46.7500 O   0  0  0  0  0  0  0  0  0  0  0  0
   32.8620   30.9670   47.4330 H   0  0  0  0  0  0  0  0  0  0  0  0
   31.9320   29.2840   44.8320 O   0  0  0  0  0  0  0  0  0  0  0  0
   31.1800   29.6220   44.3080 H   0  0  0  0  0  0  0  0  0  0  0  0
   30.2200   29.0890   47.1430 O   0  0  0  0  0  0  0  0  0  0  0  0
   30.4240   30.0450   46.9140 H   0  0  0  0  0  0  0  0  0  0  0  0
  1  4  1  1  0  0  0
  2  5  1  0  0  0  0
  2  3  1  0  0  0  0
  2  1  1  0  0  0  0
  3  7  1  6  0  0  0
  3  1  1  0  0  0  0
  3 19  1  0  0  0  0
  6  2  1  0  0  0  0
  8  1  1  0  0  0  0
  8  9  1  0  0  0  0
  9 15  1  0  0  0  0
 10  9  2  0  0  0  0
 10 16  1  0  0  0  0
 11 10  1  0  0  0  0
 12 13  1  0  0  0  0
 12 11  2  0  0  0  0
 13  8  2  0  0  0  0
 14 12  1  0  0  0  0
 17 14  1  0  0  0  0
 18 14  1  0  0  0  0
 21 19  1  0  0  0  0
 21 22  1  0  0  0  0
 21 20  2  1  0  0  0
 22 23  1  0  0  0  0
 24 21  1  0  0  0  0
 25 31  1  6  0  0  0
 26 25  1  0  0  0  0
 26 24  1  6  0  0  0
 27 26  1  0  0  0  0
 28 29  1  0  0  0  0
 28 27  1  0  0  0  0
 29 33  1  6  0  0  0
 29 30  1  0  0  0  0
 30 35  1  6  0  0  0
 30 25  1  0  0  0  0
 31 32  1  0  0  0  0
 34 33  1  0  0  0  0
 36 35  1  0  0  0  0
M  END
>  <minimizedAffinity>
-5.27670145

>  <minimizedRMSD>
0.408056796

$$$$
