
     RDKit          3D

 28 29  0  0  0  0  0  0  0  0999 V2000
   37.3302   30.2348   51.4218 C   0  0  0  0  0  0  0  0  0  0  0  0
   38.0855   30.7423   50.3499 C   0  0  0  0  0  0  0  0  0  0  0  0
   37.6996   30.3744   49.0476 C   0  0  0  0  0  0  0  0  0  0  0  0
   36.6063   29.5398   48.8952 N   0  0  0  0  0  0  0  0  0  0  0  0
   35.9232   29.0865   49.9611 C   0  0  0  0  0  0  0  0  0  0  0  0
   36.2770   29.4273   51.2155 N   0  0  0  0  0  0  0  0  0  0  0  0
   34.8702   28.2699   49.5981 O   0  0  0  0  0  0  0  0  0  0  0  0
   37.5627   30.4709   52.4535 H   0  0  0  0  0  0  0  0  0  0  0  0
   38.9229   31.3862   50.5453 H   0  0  0  0  0  0  0  0  0  0  0  0
   38.2434   30.7359   48.2084 H   0  0  0  0  0  0  0  0  0  0  0  0
   32.7839   29.7196   50.1780 O   0  0  0  0  0  0  0  0  0  0  0  0
   32.8324   28.5241   50.9251 C   0  0  2  0  0  0  0  0  0  0  0  0
   34.0149   27.6812   50.5719 C   0  0  1  0  0  0  0  0  0  0  0  0
   33.6906   26.3932   50.1789 O   0  0  0  0  0  0  0  0  0  0  0  0
   32.7383   26.3235   49.1847 C   0  0  0  0  0  0  0  0  0  0  0  0
   31.4104   26.9224   49.5890 C   0  0  2  0  0  0  0  0  0  0  0  0
   30.8739   27.6698   48.5246 O   0  0  0  0  0  0  0  0  0  0  0  0
   31.5120   27.7744   50.8049 C   0  0  2  0  0  0  0  0  0  0  0  0
   30.4710   28.6985   50.7641 O   0  0  0  0  0  0  0  0  0  0  0  0
   33.2491   29.6269   49.3097 H   0  0  0  0  0  0  0  0  0  0  0  0
   32.8910   28.8577   51.9871 H   0  0  0  0  0  0  0  0  0  0  0  0
   34.6756   27.5464   51.4792 H   0  0  0  0  0  0  0  0  0  0  0  0
   32.5448   25.2318   49.0299 H   0  0  0  0  0  0  0  0  0  0  0  0
   33.0559   26.7269   48.2068 H   0  0  0  0  0  0  0  0  0  0  0  0
   30.6320   26.1389   49.8097 H   0  0  0  0  0  0  0  0  0  0  0  0
   31.5905   28.2582   48.1881 H   0  0  0  0  0  0  0  0  0  0  0  0
   31.4608   27.1093   51.7111 H   0  0  0  0  0  0  0  0  0  0  0  0
   30.7804   29.5848   50.4679 H   0  0  0  0  0  0  0  0  0  0  0  0
  2  1  2  0
  3  2  1  0
  4  3  2  0
  4  5  1  0
  5  6  2  0
  6  1  1  0
  7  5  1  0
  1  8  1  0
  2  9  1  0
  3 10  1  0
 11 12  1  0
 12 13  1  0
 13 14  1  0
 14 15  1  0
 15 16  1  0
 16 17  1  0
 16 18  1  0
 18 19  1  0
 18 12  1  0
 11 20  1  0
 12 21  1  1
 13 22  1  1
 15 23  1  0
 15 24  1  0
 16 25  1  1
 17 26  1  0
 18 27  1  1
 19 28  1  0
  7 13  1  0
M  ISO  3   8  14   9  14  10  14
M  END
>  <DihAtoms>  (1) 
4,6,12,11

>  <DihDeg>  (1) 
119.74823588195196

$$$$
