
 OpenBabel03272508273D

 41 44  0  0  1  0  0  0  0  0999 V2000
   33.7530   28.8890   47.2270 C   0  0  2  0  0  0  0  0  0  0  0  0
   34.4810   28.1080   48.2990 C   0  0  2  0  0  0  0  0  0  0  0  0
   33.5900   27.9630   49.3170 O   0  0  0  0  0  0  0  0  0  0  0  0
   32.3060   28.0700   48.8500 C   0  0  0  0  0  0  0  0  0  0  0  0
   32.3680   28.2620   47.3480 C   0  0  1  0  0  0  0  0  0  0  0  0
   33.6950   29.9660   47.4650 H   0  0  0  0  0  0  0  0  0  0  0  0
   34.7370   27.1260   47.8660 H   0  0  0  0  0  0  0  0  0  0  0  0
   31.8160   28.9990   49.2670 H   0  0  0  0  0  0  0  0  0  0  0  0
   31.6520   27.2290   49.1120 H   0  0  0  0  0  0  0  0  0  0  0  0
   32.3250   27.2820   46.8690 H   0  0  0  0  0  0  0  0  0  0  0  0
   35.5970   30.3290   49.0340 C   0  0  1  0  0  0  0  0  0  0  0  0
   35.6680   28.9220   48.7180 C   0  0  1  0  0  0  0  0  0  0  0  0
   35.8970   29.3070   50.1420 C   0  0  0  0  0  0  0  0  0  0  0  0
   34.6890   30.9110   49.3290 H   0  0  0  0  0  0  0  0  0  0  0  0
   36.5850   28.6200   48.1300 H   0  0  0  0  0  0  0  0  0  0  0  0
   36.9340   29.2260   50.5240 H   0  0  0  0  0  0  0  0  0  0  0  0
   35.1520   29.0850   50.9030 H   0  0  0  0  0  0  0  0  0  0  0  0
   36.7860   31.2450   48.7800 C   0  0  0  0  0  0  0  0  0  0  0  0
   37.0300   32.2440   49.7220 C   0  0  0  0  0  0  0  0  0  0  0  0
   38.1100   33.0730   49.4260 C   0  0  0  0  0  0  0  0  0  0  0  0
   38.8500   32.8930   48.2880 N   0  0  0  0  0  0  0  0  0  0  0  0
   38.5700   31.9070   47.4060 C   0  0  0  0  0  0  0  0  0  0  0  0
   37.5280   31.0750   47.6540 N   0  0  0  0  0  0  0  0  0  0  0  0
   36.4510   32.3760   50.6010 H   0  0  0  0  0  0  0  0  0  0  0  0
   38.3990   33.8880   50.0840 H   0  0  0  0  0  0  0  0  0  0  0  0
   39.1400   31.7470   46.5020 H   0  0  0  0  0  0  0  0  0  0  0  0
   34.2810   28.7060   45.9580 O   0  0  0  0  0  0  0  0  0  0  0  0
   34.0590   27.7900   45.6780 H   0  0  0  0  0  0  0  0  0  0  0  0
   31.3780   29.0760   46.8610 O   0  0  0  0  0  0  0  0  0  0  0  0
   29.8990   27.2550   46.4070 C   0  0  2  0  0  3  0  0  0  0  0  0
   30.6320   28.4630   45.8630 C   0  0  2  0  0  3  0  0  0  0  0  0
   31.4290   28.0420   44.8010 O   0  0  0  0  0  0  0  0  0  0  0  0
   30.6230   27.9770   43.6620 C   0  0  0  0  0  2  0  0  0  0  0  0
   29.3020   27.3010   43.9580 C   0  0  2  0  0  3  0  0  0  0  0  0
   29.3710   26.4700   45.2220 C   0  0  2  0  0  3  0  0  0  0  0  0
   28.8140   27.7230   47.1470 O   0  0  0  0  0  0  0  0  0  0  0  0
   28.0120   27.7330   46.5560 H   0  0  0  0  0  0  0  0  0  0  0  0
   29.0340   26.4280   42.9040 O   0  0  0  0  0  0  0  0  0  0  0  0
   28.1910   25.9220   43.0440 H   0  0  0  0  0  0  0  0  0  0  0  0
   28.0980   25.9530   45.4570 O   0  0  0  0  0  0  0  0  0  0  0  0
   28.0250   25.6780   46.4190 H   0  0  0  0  0  0  0  0  0  0  0  0
  1  5  1  0  0  0  0
  1  6  1  1  0  0  0
  1  2  1  0  0  0  0
  2  7  1  6  0  0  0
  2 12  1  0  0  0  0
  2  3  1  0  0  0  0
  4  9  1  0  0  0  0
  4  8  1  0  0  0  0
  4  3  1  0  0  0  0
  5 10  1  6  0  0  0
  5  4  1  0  0  0  0
 11 14  1  1  0  0  0
 11 13  1  0  0  0  0
 12 15  1  6  0  0  0
 12 11  1  0  0  0  0
 12 13  1  0  0  0  0
 13 16  1  0  0  0  0
 13 17  1  0  0  0  0
 18 11  1  0  0  0  0
 18 19  1  0  0  0  0
 19 24  1  0  0  0  0
 20 19  2  0  0  0  0
 20 25  1  0  0  0  0
 21 20  1  0  0  0  0
 22 23  1  0  0  0  0
 22 21  2  0  0  0  0
 23 18  2  0  0  0  0
 26 22  1  0  0  0  0
 27  1  1  0  0  0  0
 28 27  1  0  0  0  0
 29  5  1  0  0  0  0
 30 36  1  1  0  0  0
 31 30  1  0  0  0  0
 31 29  1  1  0  0  0
 32 31  1  0  0  0  0
 33 34  1  0  0  0  0
 33 32  1  0  0  0  0
 34 38  1  6  0  0  0
 34 35  1  0  0  0  0
 35 40  1  1  0  0  0
 35 30  1  0  0  0  0
 37 36  1  0  0  0  0
 38 39  1  0  0  0  0
 40 41  1  0  0  0  0
M  END
>  <minimizedAffinity>
-5.05560255

>  <minimizedRMSD>
1.13509774

$$$$
