
 OpenBabel03272503493D

 40 42  0  0  1  0  0  0  0  0999 V2000
   33.1070   27.4230   45.8380 C   0  0  1  0  0  0  0  0  0  0  0  0
   33.9470   27.5040   47.1300 C   0  0  2  0  0  0  0  0  0  0  0  0
   33.8490   26.2490   47.6440 O   0  0  0  0  0  0  0  0  0  0  0  0
   34.0550   25.4060   46.5740 C   0  0  0  0  0  0  0  0  0  0  0  0
   33.4600   26.0400   45.3550 C   0  0  2  0  0  0  0  0  0  0  0  0
   33.5000   28.2130   45.1710 H   0  0  0  0  0  0  0  0  0  0  0  0
   34.9670   27.8350   46.8110 H   0  0  0  0  0  0  0  0  0  0  0  0
   33.4540   24.4790   46.8030 H   0  0  0  0  0  0  0  0  0  0  0  0
   35.0920   25.0560   46.4650 H   0  0  0  0  0  0  0  0  0  0  0  0
   32.5700   25.5130   44.9950 H   0  0  0  0  0  0  0  0  0  0  0  0
   31.7670   27.6140   46.1210 O   0  0  0  0  0  0  0  0  0  0  0  0
   31.4040   26.8050   46.5300 H   0  0  0  0  0  0  0  0  0  0  0  0
   33.3780   28.5150   47.8490 O   0  0  0  0  0  0  0  0  0  0  0  0
   35.3620   29.8750   46.7610 O   0  0  0  0  0  0  0  0  0  0  0  0
   34.1110   30.0130   47.6210 P   0  0  1  0  0  0  0  0  0  0  0  0
   33.0830   31.0310   46.7420 O   0  0  0  0  0  0  0  0  0  0  0  0
   32.1600   30.8170   47.0320 H   0  0  0  0  0  0  0  0  0  0  0  0
   34.4310   30.6540   49.1660 O   0  0  0  0  0  0  0  0  0  0  0  0
   35.6550   30.5180   49.7860 C   0  0  0  0  0  0  0  0  0  0  0  0
   35.9760   29.4970   50.7050 C   0  0  0  0  0  0  0  0  0  0  0  0
   37.2540   29.4910   51.2500 C   0  0  0  0  0  0  0  0  0  0  0  0
   38.1340   30.4730   50.8670 N   0  0  0  0  0  0  0  0  0  0  0  0
   37.7870   31.4440   49.9770 C   0  0  0  0  0  0  0  0  0  0  0  0
   36.5450   31.4710   49.4310 N   0  0  0  0  0  0  0  0  0  0  0  0
   35.1940   28.8110   50.9010 H   0  0  0  0  0  0  0  0  0  0  0  0
   37.4890   28.7190   51.9390 H   0  0  0  0  0  0  0  0  0  0  0  0
   38.5470   32.1760   49.7360 H   0  0  0  0  0  0  0  0  0  0  0  0
   34.3880   26.1270   44.3250 O   0  0  0  0  0  0  0  0  0  0  0  0
   33.7760   26.8640   42.1430 C   0  0  1  0  0  3  0  0  0  0  0  0
   34.2480   27.2450   43.5270 C   0  0  2  0  0  3  0  0  0  0  0  0
   35.5370   27.8110   43.4310 O   0  0  0  0  0  0  0  0  0  0  0  0
   36.3960   26.8380   42.9000 C   0  0  0  0  0  2  0  0  0  0  0  0
   36.1040   26.6710   41.4190 C   0  0  1  0  0  3  0  0  0  0  0  0
   34.7820   27.3400   41.1080 C   0  0  2  0  0  3  0  0  0  0  0  0
   33.7290   25.4640   41.9900 O   0  0  0  0  0  0  0  0  0  0  0  0
   34.3170   25.0070   42.6230 H   0  0  0  0  0  0  0  0  0  0  0  0
   37.1020   27.3050   40.6470 O   0  0  0  0  0  0  0  0  0  0  0  0
   36.7330   27.3770   39.7320 H   0  0  0  0  0  0  0  0  0  0  0  0
   34.9480   28.7200   41.1540 O   0  0  0  0  0  0  0  0  0  0  0  0
   34.0690   29.1260   41.3140 H   0  0  0  0  0  0  0  0  0  0  0  0
  1  6  1  6  0  0  0
  1 11  1  0  0  0  0
  1  2  1  0  0  0  0
  2  7  1  6  0  0  0
  2  3  1  0  0  0  0
  2 13  1  0  0  0  0
  4  8  1  0  0  0  0
  4  3  1  0  0  0  0
  5 10  1  6  0  0  0
  5  1  1  0  0  0  0
  5  4  1  0  0  0  0
  9  4  1  0  0  0  0
 11 12  1  0  0  0  0
 15 14  2  6  0  0  0
 15 13  1  0  0  0  0
 15 18  1  0  0  0  0
 16 17  1  0  0  0  0
 16 15  1  0  0  0  0
 18 19  1  0  0  0  0
 19 20  1  0  0  0  0
 20 25  1  0  0  0  0
 20 21  2  0  0  0  0
 21 26  1  0  0  0  0
 22 21  1  0  0  0  0
 23 22  2  0  0  0  0
 24 19  2  0  0  0  0
 24 23  1  0  0  0  0
 27 23  1  0  0  0  0
 28  5  1  0  0  0  0
 29 35  1  1  0  0  0
 29 30  1  0  0  0  0
 30 28  1  1  0  0  0
 31 30  1  0  0  0  0
 32 31  1  0  0  0  0
 33 37  1  6  0  0  0
 33 32  1  0  0  0  0
 34 39  1  1  0  0  0
 34 33  1  0  0  0  0
 34 29  1  0  0  0  0
 35 36  1  0  0  0  0
 38 37  1  0  0  0  0
 39 40  1  0  0  0  0
M  END
>  <minimizedAffinity>
-4.12438536

>  <minimizedRMSD>
2.39994836

$$$$
