
 OpenBabel03272503493D

 40 42  0  0  1  0  0  0  0  0999 V2000
   33.2310   27.3080   45.8720 C   0  0  1  0  0  0  0  0  0  0  0  0
   33.9120   27.4600   47.2500 C   0  0  2  0  0  0  0  0  0  0  0  0
   33.7300   26.2410   47.8230 O   0  0  0  0  0  0  0  0  0  0  0  0
   34.0460   25.3300   46.8390 C   0  0  0  0  0  0  0  0  0  0  0  0
   33.6140   25.8940   45.5210 C   0  0  2  0  0  0  0  0  0  0  0  0
   33.7170   28.0510   45.2110 H   0  0  0  0  0  0  0  0  0  0  0  0
   34.9690   27.7590   47.0370 H   0  0  0  0  0  0  0  0  0  0  0  0
   33.4050   24.4260   47.0490 H   0  0  0  0  0  0  0  0  0  0  0  0
   35.0830   24.9630   46.8770 H   0  0  0  0  0  0  0  0  0  0  0  0
   32.7630   25.3560   45.0880 H   0  0  0  0  0  0  0  0  0  0  0  0
   31.8710   27.5320   45.9800 O   0  0  0  0  0  0  0  0  0  0  0  0
   31.4470   26.7540   46.3900 H   0  0  0  0  0  0  0  0  0  0  0  0
   33.2810   28.5210   47.8320 O   0  0  0  0  0  0  0  0  0  0  0  0
   35.3380   29.8050   46.7880 O   0  0  0  0  0  0  0  0  0  0  0  0
   34.0760   29.9890   47.6230 P   0  0  1  0  0  0  0  0  0  0  0  0
   33.1060   31.0490   46.7280 O   0  0  0  0  0  0  0  0  0  0  0  0
   32.1700   30.8710   46.9990 H   0  0  0  0  0  0  0  0  0  0  0  0
   34.3900   30.6130   49.1760 O   0  0  0  0  0  0  0  0  0  0  0  0
   35.6180   30.4920   49.7910 C   0  0  0  0  0  0  0  0  0  0  0  0
   35.9570   29.4740   50.7060 C   0  0  0  0  0  0  0  0  0  0  0  0
   37.2380   29.4820   51.2450 C   0  0  0  0  0  0  0  0  0  0  0  0
   38.1030   30.4750   50.8580 N   0  0  0  0  0  0  0  0  0  0  0  0
   37.7410   31.4420   49.9700 C   0  0  0  0  0  0  0  0  0  0  0  0
   36.4950   31.4550   49.4310 N   0  0  0  0  0  0  0  0  0  0  0  0
   35.1840   28.7790   50.9060 H   0  0  0  0  0  0  0  0  0  0  0  0
   37.4860   28.7130   51.9320 H   0  0  0  0  0  0  0  0  0  0  0  0
   38.4900   32.1840   49.7260 H   0  0  0  0  0  0  0  0  0  0  0  0
   34.6600   25.9060   44.6070 O   0  0  0  0  0  0  0  0  0  0  0  0
   35.5590   23.9900   43.5110 C   0  0  1  0  0  3  0  0  0  0  0  0
   34.4860   25.0550   43.5330 C   0  0  2  0  0  3  0  0  0  0  0  0
   34.6150   25.8590   42.3810 O   0  0  0  0  0  0  0  0  0  0  0  0
   35.8760   26.4720   42.4210 C   0  0  0  0  0  2  0  0  0  0  0  0
   36.9410   25.4380   42.1020 C   0  0  1  0  0  3  0  0  0  0  0  0
   36.3220   24.0590   42.1980 C   0  0  2  0  0  3  0  0  0  0  0  0
   36.5270   24.2250   44.5080 O   0  0  0  0  0  0  0  0  0  0  0  0
   36.5500   25.1600   44.7830 H   0  0  0  0  0  0  0  0  0  0  0  0
   37.4160   25.6100   40.7850 O   0  0  0  0  0  0  0  0  0  0  0  0
   37.9050   24.7800   40.5610 H   0  0  0  0  0  0  0  0  0  0  0  0
   35.4800   23.8620   41.1070 O   0  0  0  0  0  0  0  0  0  0  0  0
   34.8320   23.1650   41.3460 H   0  0  0  0  0  0  0  0  0  0  0  0
  1  6  1  6  0  0  0
  1 11  1  0  0  0  0
  1  2  1  0  0  0  0
  2  7  1  6  0  0  0
  2  3  1  0  0  0  0
  2 13  1  0  0  0  0
  4  9  1  0  0  0  0
  4  8  1  0  0  0  0
  4  3  1  0  0  0  0
  5 10  1  6  0  0  0
  5  1  1  0  0  0  0
  5  4  1  0  0  0  0
 11 12  1  0  0  0  0
 15 14  2  6  0  0  0
 15 13  1  0  0  0  0
 15 18  1  0  0  0  0
 16 17  1  0  0  0  0
 16 15  1  0  0  0  0
 18 19  1  0  0  0  0
 19 20  1  0  0  0  0
 20 25  1  0  0  0  0
 20 21  2  0  0  0  0
 21 26  1  0  0  0  0
 22 21  1  0  0  0  0
 23 22  2  0  0  0  0
 24 19  2  0  0  0  0
 24 23  1  0  0  0  0
 27 23  1  0  0  0  0
 28  5  1  0  0  0  0
 29 30  1  0  0  0  0
 29 35  1  1  0  0  0
 30 28  1  1  0  0  0
 31 32  1  0  0  0  0
 31 30  1  0  0  0  0
 33 37  1  6  0  0  0
 33 34  1  0  0  0  0
 33 32  1  0  0  0  0
 34 39  1  6  0  0  0
 34 29  1  0  0  0  0
 35 36  1  0  0  0  0
 38 37  1  0  0  0  0
 39 40  1  0  0  0  0
M  END
>  <minimizedAffinity>
-4.19565248

>  <minimizedRMSD>
0.926436543

$$$$
