
 OpenBabel03272508273D

 41 44  0  0  1  0  0  0  0  0999 V2000
   33.9110   28.9040   47.3340 C   0  0  2  0  0  0  0  0  0  0  0  0
   34.6410   28.1720   48.4390 C   0  0  2  0  0  0  0  0  0  0  0  0
   33.7420   28.0420   49.4510 O   0  0  0  0  0  0  0  0  0  0  0  0
   32.4620   28.1090   48.9670 C   0  0  0  0  0  0  0  0  0  0  0  0
   32.5370   28.2530   47.4610 C   0  0  1  0  0  0  0  0  0  0  0  0
   33.8290   29.9870   47.5370 H   0  0  0  0  0  0  0  0  0  0  0  0
   34.9220   27.1820   48.0400 H   0  0  0  0  0  0  0  0  0  0  0  0
   31.9490   29.0410   49.3490 H   0  0  0  0  0  0  0  0  0  0  0  0
   31.8210   27.2640   49.2510 H   0  0  0  0  0  0  0  0  0  0  0  0
   32.5180   27.2580   47.0140 H   0  0  0  0  0  0  0  0  0  0  0  0
   35.7180   30.4470   49.0570 C   0  0  1  0  0  0  0  0  0  0  0  0
   35.8070   29.0220   48.8430 C   0  0  1  0  0  0  0  0  0  0  0  0
   35.9810   29.5080   50.2440 C   0  0  0  0  0  0  0  0  0  0  0  0
   34.7960   31.0420   49.2770 H   0  0  0  0  0  0  0  0  0  0  0  0
   36.7480   28.6870   48.3120 H   0  0  0  0  0  0  0  0  0  0  0  0
   37.0040   29.4620   50.6690 H   0  0  0  0  0  0  0  0  0  0  0  0
   35.2090   29.3330   50.9910 H   0  0  0  0  0  0  0  0  0  0  0  0
   36.9110   31.3530   48.7830 C   0  0  0  0  0  0  0  0  0  0  0  0
   37.1340   32.3970   49.6810 C   0  0  0  0  0  0  0  0  0  0  0  0
   38.2180   33.2130   49.3670 C   0  0  0  0  0  0  0  0  0  0  0  0
   38.9830   32.9790   48.2550 N   0  0  0  0  0  0  0  0  0  0  0  0
   38.7230   31.9510   47.4170 C   0  0  0  0  0  0  0  0  0  0  0  0
   37.6770   31.1290   47.6830 N   0  0  0  0  0  0  0  0  0  0  0  0
   36.5360   32.5710   50.5400 H   0  0  0  0  0  0  0  0  0  0  0  0
   38.4930   34.0600   49.9910 H   0  0  0  0  0  0  0  0  0  0  0  0
   39.3120   31.7480   46.5340 H   0  0  0  0  0  0  0  0  0  0  0  0
   34.4550   28.6900   46.0770 O   0  0  0  0  0  0  0  0  0  0  0  0
   34.2550   27.7610   45.8250 H   0  0  0  0  0  0  0  0  0  0  0  0
   31.5360   29.0310   46.9380 O   0  0  0  0  0  0  0  0  0  0  0  0
   29.9120   27.3080   46.6250 C   0  0  2  0  0  3  0  0  0  0  0  0
   30.7890   28.3600   45.9800 C   0  0  2  0  0  3  0  0  0  0  0  0
   31.5990   27.7260   45.0380 O   0  0  0  0  0  0  0  0  0  0  0  0
   30.8530   27.5810   43.8650 C   0  0  0  0  0  2  0  0  0  0  0  0
   29.4580   27.0740   44.1560 C   0  0  2  0  0  3  0  0  0  0  0  0
   29.3750   26.4200   45.5190 C   0  0  2  0  0  3  0  0  0  0  0  0
   28.8390   27.9670   47.2240 O   0  0  0  0  0  0  0  0  0  0  0  0
   28.0760   27.9700   46.5820 H   0  0  0  0  0  0  0  0  0  0  0  0
   29.1620   26.0950   43.2090 O   0  0  0  0  0  0  0  0  0  0  0  0
   28.2680   25.6910   43.3560 H   0  0  0  0  0  0  0  0  0  0  0  0
   28.0450   26.0580   45.7320 O   0  0  0  0  0  0  0  0  0  0  0  0
   27.8920   25.9230   46.7140 H   0  0  0  0  0  0  0  0  0  0  0  0
  1  5  1  0  0  0  0
  1  6  1  1  0  0  0
  1  2  1  0  0  0  0
  2  7  1  6  0  0  0
  2 12  1  0  0  0  0
  2  3  1  0  0  0  0
  4  9  1  0  0  0  0
  4  8  1  0  0  0  0
  4  3  1  0  0  0  0
  5 10  1  6  0  0  0
  5  4  1  0  0  0  0
 11 14  1  6  0  0  0
 11 13  1  0  0  0  0
 12 15  1  6  0  0  0
 12 11  1  0  0  0  0
 12 13  1  0  0  0  0
 13 16  1  0  0  0  0
 13 17  1  0  0  0  0
 18 11  1  0  0  0  0
 18 19  1  0  0  0  0
 19 24  1  0  0  0  0
 20 19  2  0  0  0  0
 20 25  1  0  0  0  0
 21 20  1  0  0  0  0
 22 23  1  0  0  0  0
 22 21  2  0  0  0  0
 23 18  2  0  0  0  0
 26 22  1  0  0  0  0
 27  1  1  0  0  0  0
 28 27  1  0  0  0  0
 29  5  1  0  0  0  0
 30 36  1  6  0  0  0
 31 30  1  0  0  0  0
 31 29  1  1  0  0  0
 32 31  1  0  0  0  0
 33 34  1  0  0  0  0
 33 32  1  0  0  0  0
 34 38  1  6  0  0  0
 34 35  1  0  0  0  0
 35 40  1  1  0  0  0
 35 30  1  0  0  0  0
 37 36  1  0  0  0  0
 38 39  1  0  0  0  0
 40 41  1  0  0  0  0
M  END
>  <minimizedAffinity>
-5.07606363

>  <minimizedRMSD>
0.27602616

$$$$
