
 OpenBabel03272508283D

 41 44  0  0  1  0  0  0  0  0999 V2000
   32.8710   28.9080   46.9280 C   0  0  2  0  0  0  0  0  0  0  0  0
   33.6950   27.8930   47.6880 C   0  0  2  0  0  0  0  0  0  0  0  0
   32.9440   27.5430   48.7670 O   0  0  0  0  0  0  0  0  0  0  0  0
   31.6170   27.7780   48.5230 C   0  0  0  0  0  0  0  0  0  0  0  0
   31.4840   28.2990   47.1060 C   0  0  1  0  0  0  0  0  0  0  0  0
   32.9010   29.9060   47.4010 H   0  0  0  0  0  0  0  0  0  0  0  0
   33.8390   27.0270   47.0190 H   0  0  0  0  0  0  0  0  0  0  0  0
   31.2360   28.6000   49.1990 H   0  0  0  0  0  0  0  0  0  0  0  0
   30.9600   26.9130   48.6880 H   0  0  0  0  0  0  0  0  0  0  0  0
   31.3260   27.4510   46.4370 H   0  0  0  0  0  0  0  0  0  0  0  0
   35.0110   29.8320   48.7960 C   0  0  1  0  0  0  0  0  0  0  0  0
   34.9690   28.5680   48.0990 C   0  0  1  0  0  0  0  0  0  0  0  0
   35.4520   28.5460   49.5120 C   0  0  0  0  0  0  0  0  0  0  0  0
   34.1910   30.3030   49.3930 H   0  0  0  0  0  0  0  0  0  0  0  0
   35.7590   28.4480   47.3000 H   0  0  0  0  0  0  0  0  0  0  0  0
   36.5350   28.3710   49.6690 H   0  0  0  0  0  0  0  0  0  0  0  0
   34.8390   28.1160   50.3010 H   0  0  0  0  0  0  0  0  0  0  0  0
   36.1760   30.7920   48.5980 C   0  0  0  0  0  0  0  0  0  0  0  0
   36.5440   31.5760   49.6910 C   0  0  0  0  0  0  0  0  0  0  0  0
   37.5940   32.4590   49.4470 C   0  0  0  0  0  0  0  0  0  0  0  0
   38.1930   32.5250   48.2180 N   0  0  0  0  0  0  0  0  0  0  0  0
   37.7980   31.7400   47.1910 C   0  0  0  0  0  0  0  0  0  0  0  0
   36.7790   30.8650   47.3820 N   0  0  0  0  0  0  0  0  0  0  0  0
   36.0730   31.5190   50.6400 H   0  0  0  0  0  0  0  0  0  0  0  0
   37.9700   33.1230   50.2210 H   0  0  0  0  0  0  0  0  0  0  0  0
   38.2550   31.7750   46.2130 H   0  0  0  0  0  0  0  0  0  0  0  0
   33.2110   29.0020   45.5870 O   0  0  0  0  0  0  0  0  0  0  0  0
   32.9070   28.1760   45.1490 H   0  0  0  0  0  0  0  0  0  0  0  0
   30.4810   29.2210   46.9570 O   0  0  0  0  0  0  0  0  0  0  0  0
   28.2000   29.0340   46.2740 C   0  0  2  0  0  3  0  0  0  0  0  0
   29.2410   28.7180   47.3260 C   0  0  2  0  0  3  0  0  0  0  0  0
   28.8040   29.2490   48.5390 O   0  0  0  0  0  0  0  0  0  0  0  0
   27.9070   28.3370   49.1040 C   0  0  0  0  0  2  0  0  0  0  0  0
   26.9200   27.8250   48.0790 C   0  0  2  0  0  3  0  0  0  0  0  0
   26.8390   28.7410   46.8760 C   0  0  2  0  0  3  0  0  0  0  0  0
   28.4070   28.1630   45.2050 O   0  0  0  0  0  0  0  0  0  0  0  0
   27.8080   27.3760   45.3210 H   0  0  0  0  0  0  0  0  0  0  0  0
   25.6610   27.8180   48.6780 O   0  0  0  0  0  0  0  0  0  0  0  0
   24.9500   27.5190   48.0510 H   0  0  0  0  0  0  0  0  0  0  0  0
   25.9720   28.1530   45.9560 O   0  0  0  0  0  0  0  0  0  0  0  0
   26.1340   28.5460   45.0480 H   0  0  0  0  0  0  0  0  0  0  0  0
  1  5  1  0  0  0  0
  1  6  1  1  0  0  0
  1  2  1  0  0  0  0
  2  7  1  6  0  0  0
  2 12  1  0  0  0  0
  2  3  1  0  0  0  0
  4  9  1  0  0  0  0
  4  3  1  0  0  0  0
  4  8  1  0  0  0  0
  5 10  1  6  0  0  0
  5  4  1  0  0  0  0
 11 14  1  1  0  0  0
 11 13  1  0  0  0  0
 12 15  1  6  0  0  0
 12 11  1  0  0  0  0
 12 13  1  0  0  0  0
 13 16  1  0  0  0  0
 13 17  1  0  0  0  0
 18 11  1  0  0  0  0
 18 19  1  0  0  0  0
 19 24  1  0  0  0  0
 20 19  2  0  0  0  0
 20 25  1  0  0  0  0
 21 20  1  0  0  0  0
 22 23  1  0  0  0  0
 22 21  2  0  0  0  0
 23 18  2  0  0  0  0
 26 22  1  0  0  0  0
 27  1  1  0  0  0  0
 28 27  1  0  0  0  0
 29  5  1  0  0  0  0
 30 36  1  6  0  0  0
 30 35  1  0  0  0  0
 30 31  1  0  0  0  0
 31 29  1  6  0  0  0
 31 32  1  0  0  0  0
 32 33  1  0  0  0  0
 34 38  1  1  0  0  0
 34 33  1  0  0  0  0
 35 40  1  6  0  0  0
 35 34  1  0  0  0  0
 36 37  1  0  0  0  0
 39 38  1  0  0  0  0
 41 40  1  0  0  0  0
M  END
>  <minimizedAffinity>
-6.47582531

>  <minimizedRMSD>
2.93253565

$$$$
