
 OpenBabel03272509053D

 36 38  0  0  1  0  0  0  0  0999 V2000
   37.7570   30.5340   51.0490 C   0  0  0  0  0  0  0  0  0  0  0  0
   38.1290   31.2710   49.8830 C   0  0  0  0  0  0  0  0  0  0  0  0
   37.4330   31.0190   48.6810 C   0  0  0  0  0  0  0  0  0  0  0  0
   36.4430   30.0830   48.7010 N   0  0  0  0  0  0  0  0  0  0  0  0
   36.1370   29.4170   49.8320 C   0  0  0  0  0  0  0  0  0  0  0  0
   36.7750   29.6290   50.9960 N   0  0  0  0  0  0  0  0  0  0  0  0
   38.3370   30.7860   51.9250 H   0  0  0  0  0  0  0  0  0  0  0  0
   38.9200   32.0150   49.8820 H   0  0  0  0  0  0  0  0  0  0  0  0
   37.5710   30.8480   46.2810 C   0  0  2  0  0  3  0  0  0  0  0  0
   37.7850   31.7640   47.4440 C   0  0  2  0  0  3  0  0  0  0  0  0
   39.1070   32.1630   47.5910 O   0  0  0  0  0  0  0  0  0  0  0  0
   39.7120   32.6320   46.4620 C   0  0  0  0  0  2  0  0  0  0  0  0
   38.8530   32.6430   45.2300 C   0  0  2  0  0  3  0  0  0  0  0  0
   38.3550   31.2200   45.0450 C   0  0  2  0  0  3  0  0  0  0  0  0
   36.2160   30.8660   45.9460 O   0  0  0  0  0  0  0  0  0  0  0  0
   35.8550   29.9600   46.0200 H   0  0  0  0  0  0  0  0  0  0  0  0
   39.6860   32.9670   44.1520 O   0  0  0  0  0  0  0  0  0  0  0  0
   40.4530   32.3530   44.1300 H   0  0  0  0  0  0  0  0  0  0  0  0
   37.6390   31.0950   43.8750 O   0  0  0  0  0  0  0  0  0  0  0  0
   36.8200   31.6340   43.8910 H   0  0  0  0  0  0  0  0  0  0  0  0
   35.0680   28.4360   49.7160 C   0  0  0  0  0  3  0  0  0  0  0  0
   34.3930   28.3890   48.6160 C   0  0  0  0  0  3  0  0  0  0  0  0
   33.2870   27.4870   48.2540 C   0  0  0  0  0  0  0  0  0  0  0  0
   33.0580   26.8590   49.1610 H   0  0  0  0  0  0  0  0  0  0  0  0
   32.3470   28.0190   48.0220 H   0  0  0  0  0  0  0  0  0  0  0  0
   33.6400   26.5030   47.1840 C   0  0  0  0  0  0  0  0  0  0  0  0
   33.8220   25.1500   47.3590 C   0  0  0  0  0  0  0  0  0  0  0  0
   34.1460   24.3600   46.2680 C   0  0  0  0  0  0  0  0  0  0  0  0
   34.2940   24.8910   44.9930 C   0  0  0  0  0  0  0  0  0  0  0  0
   34.1140   26.2410   44.8130 C   0  0  0  0  0  0  0  0  0  0  0  0
   33.7890   27.0430   45.9030 C   0  0  0  0  0  0  0  0  0  0  0  0
   33.6960   24.7810   48.3680 H   0  0  0  0  0  0  0  0  0  0  0  0
   34.2620   23.3170   46.5330 H   0  0  0  0  0  0  0  0  0  0  0  0
   34.5490   24.1700   44.2280 H   0  0  0  0  0  0  0  0  0  0  0  0
   34.2370   26.6240   43.8100 H   0  0  0  0  0  0  0  0  0  0  0  0
   33.6650   28.0930   45.6700 H   0  0  0  0  0  0  0  0  0  0  0  0
  1  7  1  0  0  0  0
  2  1  2  0  0  0  0
  3  4  2  0  0  0  0
  3  2  1  0  0  0  0
  4  5  1  0  0  0  0
  5  6  2  0  0  0  0
  6  1  1  0  0  0  0
  8  2  1  0  0  0  0
  9 15  1  6  0  0  0
  9 10  1  0  0  0  0
 10 11  1  0  0  0  0
 10  3  1  1  0  0  0
 12 11  1  0  0  0  0
 13 17  1  6  0  0  0
 13 12  1  0  0  0  0
 14 19  1  6  0  0  0
 14 13  1  0  0  0  0
 14  9  1  0  0  0  0
 15 16  1  0  0  0  0
 18 17  1  0  0  0  0
 19 20  1  0  0  0  0
 21  5  1  0  0  0  0
 22 21  2  0  0  0  0
 23 22  1  0  0  0  0
 23 24  1  0  0  0  0
 25 23  1  0  0  0  0
 26 27  1  0  0  0  0
 26 23  1  0  0  0  0
 27 32  1  0  0  0  0
 28 33  1  0  0  0  0
 28 27  2  0  0  0  0
 29 28  1  0  0  0  0
 30 29  2  0  0  0  0
 30 31  1  0  0  0  0
 31 26  2  0  0  0  0
 34 29  1  0  0  0  0
 35 30  1  0  0  0  0
 36 31  1  0  0  0  0
M  END
>  <minimizedAffinity>
-6.43886518

>  <minimizedRMSD>
1.1222688

$$$$
