
     RDKit          3D

 48 51  0  0  0  0  0  0  0  0999 V2000
   34.3262   30.4526   47.6030 F   0  0  0  0  0  0  0  0  0  0  0  0
   34.7470   29.9894   46.3822 C   0  0  0  0  0  0  0  0  0  0  0  0
   33.8784   29.3731   45.5018 C   0  0  0  0  0  0  0  0  0  0  0  0
   34.3606   28.9433   44.2887 C   0  0  0  0  0  0  0  0  0  0  0  0
   35.7042   29.1273   43.9543 C   0  0  0  0  0  0  0  0  0  0  0  0
   36.5248   29.7505   44.8775 C   0  0  0  0  0  0  0  0  0  0  0  0
   36.0914   30.1845   46.0743 C   0  0  0  0  0  0  0  0  0  0  0  0
   37.9838   32.4213   44.9734 Br  0  0  0  0  0  0  0  0  0  0  0  0
   37.8867   31.8380   46.7809 C   0  0  0  0  0  0  0  0  0  0  0  0
   36.9945   30.8244   47.0134 C   0  0  0  0  0  0  0  0  0  0  0  0
   36.8952   30.3217   48.3208 C   0  0  0  0  0  0  0  0  0  0  0  0
   37.6607   30.8281   49.3212 C   0  0  0  0  0  0  0  0  0  0  0  0
   38.5454   31.8572   49.0201 C   0  0  0  0  0  0  0  0  0  0  0  0
   38.6641   32.3771   47.7217 C   0  0  0  0  0  0  0  0  0  0  0  0
   39.5068   33.3825   47.3632 O   0  0  0  0  0  0  0  0  0  0  0  0
   32.2525   28.1989   46.8497 C   0  0  0  0  0  0  0  0  0  0  0  0
   32.5276   29.2439   45.9616 C   0  0  0  0  0  0  0  0  0  0  0  0
   31.4779   30.0700   45.6026 C   0  0  0  0  0  0  0  0  0  0  0  0
   30.2430   29.8517   46.1072 N   0  0  0  0  0  0  0  0  0  0  0  0
   30.0094   28.8417   46.9571 C   0  0  0  0  0  0  0  0  0  0  0  0
   30.9947   28.0348   47.3183 N   0  0  0  0  0  0  0  0  0  0  0  0
   33.6510   28.4669   43.6291 H   0  0  0  0  0  0  0  0  0  0  0  0
   36.0365   28.7742   42.9921 H   0  0  0  0  0  0  0  0  0  0  0  0
   37.5480   29.8517   44.5368 H   0  0  0  0  0  0  0  0  0  0  0  0
   36.2207   29.5250   48.5919 H   0  0  0  0  0  0  0  0  0  0  0  0
   37.6066   30.4638   50.3291 H   0  0  0  0  0  0  0  0  0  0  0  0
   39.1712   32.2853   49.7947 H   0  0  0  0  0  0  0  0  0  0  0  0
   40.5080   33.2018   47.3631 H   0  0  0  0  0  0  0  0  0  0  0  0
   33.0327   27.5204   47.1665 H   0  0  0  0  0  0  0  0  0  0  0  0
   31.6736   30.8714   44.9252 H   0  0  0  0  0  0  0  0  0  0  0  0
   28.2181   30.4568   46.1757 O   0  0  0  0  0  0  0  0  0  0  0  0
   27.8808   29.8857   47.4030 C   0  0  1  0  0  0  0  0  0  0  0  0
   28.6542   28.5946   47.5169 C   0  0  2  0  0  0  0  0  0  0  0  0
   28.6321   28.0339   48.7581 O   0  0  0  0  0  0  0  0  0  0  0  0
   28.8280   28.8469   49.8329 C   0  0  0  0  0  0  0  0  0  0  0  0
   28.1345   30.1645   49.8066 C   0  0  2  0  0  0  0  0  0  0  0  0
   26.7981   30.0926   50.1892 O   0  0  0  0  0  0  0  0  0  0  0  0
   28.2456   30.8748   48.4796 C   0  0  2  0  0  0  0  0  0  0  0  0
   27.2965   31.8968   48.4574 O   0  0  0  0  0  0  0  0  0  0  0  0
   29.2005   30.5886   46.1869 H   0  0  0  0  0  0  0  0  0  0  0  0
   26.7892   29.6830   47.4196 H   0  0  0  0  0  0  0  0  0  0  0  0
   28.1199   27.8699   46.8386 H   0  0  0  0  0  0  0  0  0  0  0  0
   29.9072   28.9564   50.0810 H   0  0  0  0  0  0  0  0  0  0  0  0
   28.4083   28.2928   50.7232 H   0  0  0  0  0  0  0  0  0  0  0  0
   28.6345   30.8388   50.5512 H   0  0  0  0  0  0  0  0  0  0  0  0
   26.3508   30.8914   49.8073 H   0  0  0  0  0  0  0  0  0  0  0  0
   29.2770   31.2111   48.3370 H   0  0  0  0  0  0  0  0  0  0  0  0
   27.7020   32.7906   48.5887 H   0  0  0  0  0  0  0  0  0  0  0  0
  2  1  1  0
  3 17  1  0
  3  2  2  0
  4  3  1  0
  5  4  2  0
  5  6  1  0
  6  7  2  0
  7  2  1  0
  7 10  1  0
  8  9  1  0
  9 10  2  0
  9 14  1  0
 10 11  1  0
 11 12  2  0
 13 12  1  0
 14 13  2  0
 15 14  1  0
 16 21  2  0
 17 16  1  0
 18 17  2  0
 18 19  1  0
 19 20  2  0
 20 21  1  0
  4 22  1  0
  5 23  1  0
  6 24  1  0
 11 25  1  0
 12 26  1  0
 13 27  1  0
 15 28  1  0
 16 29  1  0
 18 30  1  0
 31 32  1  0
 32 33  1  0
 33 34  1  0
 34 35  1  0
 35 36  1  0
 36 37  1  0
 36 38  1  0
 38 39  1  0
 38 32  1  0
 31 40  1  0
 32 41  1  6
 33 42  1  6
 35 43  1  0
 35 44  1  0
 36 45  1  1
 37 46  1  0
 38 47  1  6
 39 48  1  0
 20 33  1  0
M  ISO  8  22  14  23  14  24  14  25  14  26  14  27  14  28   3  29  14
M  ISO  1  30  14
M  END
>  <DihAtoms>  (1) 
18,19,32,31

>  <DihDeg>  (1) 
-96.40874407519827

$$$$
