
     RDKit          3D

 31 32  0  0  0  0  0  0  0  0999 V2000
   36.9215   30.4301   48.9739 C   0  0  0  0  0  0  0  0  0  0  0  0
   38.1305   30.8256   48.3935 C   0  0  0  0  0  0  0  0  0  0  0  0
   38.1967   30.9972   47.0062 C   0  0  0  0  0  0  0  0  0  0  0  0
   37.0597   30.7639   46.2979 N   0  0  0  0  0  0  0  0  0  0  0  0
   35.9139   30.3830   46.9034 C   0  0  0  0  0  0  0  0  0  0  0  0
   35.8436   30.2163   48.2361 N   0  0  0  0  0  0  0  0  0  0  0  0
   37.0382   30.2624   50.7589 S   0  0  0  0  0  0  0  0  0  0  0  0
   35.6649   29.2105   51.2651 C   0  0  0  0  0  0  0  0  0  0  0  0
   39.0673   31.0230   48.9334 H   0  0  0  0  0  0  0  0  0  0  0  0
   39.1193   31.3008   46.5494 H   0  0  0  0  0  0  0  0  0  0  0  0
   35.0609   30.2203   46.2639 H   0  0  0  0  0  0  0  0  0  0  0  0
   35.7285   28.9064   52.3437 H   0  0  0  0  0  0  0  0  0  0  0  0
   35.7200   28.2573   50.7018 H   0  0  0  0  0  0  0  0  0  0  0  0
   33.6400   27.6783   50.6086 O   0  0  0  0  0  0  0  0  0  0  0  0
   33.5786   28.9660   50.0776 C   0  0  2  0  0  0  0  0  0  0  0  0
   34.3103   29.8809   51.0347 C   0  0  1  0  0  0  0  0  0  0  0  0
   33.6562   29.8661   52.2421 O   0  0  0  0  0  0  0  0  0  0  0  0
   32.3573   30.3030   52.1969 C   0  0  0  0  0  0  0  0  0  0  0  0
   31.4844   29.5900   51.2018 C   0  0  1  0  0  0  0  0  0  0  0  0
   30.3603   30.3974   51.0217 O   0  0  0  0  0  0  0  0  0  0  0  0
   32.1348   29.3681   49.8757 C   0  0  2  0  0  0  0  0  0  0  0  0
   31.5121   28.3073   49.1911 O   0  0  0  0  0  0  0  0  0  0  0  0
   33.1279   27.0247   50.0646 H   0  0  0  0  0  0  0  0  0  0  0  0
   34.1392   28.9582   49.1200 H   0  0  0  0  0  0  0  0  0  0  0  0
   34.4126   30.8995   50.6692 H   0  0  0  0  0  0  0  0  0  0  0  0
   32.3434   31.3924   51.9650 H   0  0  0  0  0  0  0  0  0  0  0  0
   31.9264   30.1265   53.2104 H   0  0  0  0  0  0  0  0  0  0  0  0
   31.1997   28.6007   51.6668 H   0  0  0  0  0  0  0  0  0  0  0  0
   30.4149   30.9015   50.1558 H   0  0  0  0  0  0  0  0  0  0  0  0
   32.0720   30.3070   49.2996 H   0  0  0  0  0  0  0  0  0  0  0  0
   31.6884   28.3409   48.2112 H   0  0  0  0  0  0  0  0  0  0  0  0
  1  7  1  0
  2  1  2  0
  3  2  1  0
  4  5  1  0
  4  3  2  0
  5  6  2  0
  6  1  1  0
  7  8  1  0
  2  9  1  0
  3 10  1  0
  5 11  1  0
  8 12  1  0
  8 13  1  0
 14 15  1  0
 15 16  1  0
 16 17  1  0
 17 18  1  0
 18 19  1  0
 19 20  1  0
 19 21  1  0
 21 22  1  0
 21 15  1  0
 14 23  1  0
 15 24  1  6
 16 25  1  6
 18 26  1  0
 18 27  1  0
 19 28  1  1
 20 29  1  0
 21 30  1  6
 22 31  1  0
  8 16  1  0
M  ISO  5   9  14  10  14  11  14  12   8  13   8
M  END
>  <DihAtoms>  (1) 
6,7,15,14

>  <DihDeg>  (1) 
179.9222906144749

$$$$
