
 OpenBabel03272503373D

 22 23  0  0  1  0  0  0  0  0999 V2000
   37.5590   31.5540   46.4690 C   0  0  1  0  0  3  0  0  0  0  0  0
   38.3710   31.4420   47.7350 C   0  0  1  0  0  3  0  0  0  0  0  0
   38.7840   32.7180   48.0720 O   0  0  0  0  0  0  0  0  0  0  0  0
   39.6670   33.2880   47.1900 C   0  0  0  0  0  2  0  0  0  0  0  0
   39.6950   32.7110   45.8200 C   0  0  2  0  0  3  0  0  0  0  0  0
   38.4080   32.0920   45.3750 C   0  0  2  0  0  3  0  0  0  0  0  0
   37.3030   29.9360   51.0320 C   0  0  0  0  0  0  0  0  0  0  0  0
   38.1490   30.4270   50.0370 C   0  0  0  0  0  0  0  0  0  0  0  0
   37.5770   30.8950   48.8650 C   0  0  0  0  0  0  0  0  0  0  0  0
   36.2280   30.8570   48.7350 N   0  0  0  0  0  0  0  0  0  0  0  0
   35.4150   30.3710   49.7250 C   0  0  0  0  0  0  0  0  0  0  0  0
   35.9680   29.9230   50.8460 N   0  0  0  0  0  0  0  0  0  0  0  0
   39.2240   30.4910   50.0620 H   0  0  0  0  0  0  0  0  0  0  0  0
   34.3500   30.3350   49.6330 H   0  0  0  0  0  0  0  0  0  0  0  0
   38.0140   29.5010   52.1520 O   0  0  0  0  0  0  0  0  0  0  0  0
   37.4270   29.0150   52.8490 H   0  0  0  0  0  0  0  0  0  0  0  0
   37.0860   30.2570   46.1990 O   0  0  0  0  0  0  0  0  0  0  0  0
   37.5710   29.8680   45.4090 H   0  0  0  0  0  0  0  0  0  0  0  0
   40.7030   31.7430   45.7590 O   0  0  0  0  0  0  0  0  0  0  0  0
   40.5520   31.2440   44.8930 H   0  0  0  0  0  0  0  0  0  0  0  0
   37.6420   32.9900   44.5980 O   0  0  0  0  0  0  0  0  0  0  0  0
   38.0920   33.0510   43.6990 H   0  0  0  0  0  0  0  0  0  0  0  0
  1 17  1  6  0  0  0
  1  2  1  0  0  0  0
  2  3  1  0  0  0  0
  2  9  1  1  0  0  0
  4  3  1  0  0  0  0
  5 19  1  1  0  0  0
  5  4  1  0  0  0  0
  6 21  1  1  0  0  0
  6  5  1  0  0  0  0
  6  1  1  0  0  0  0
  7 15  1  0  0  0  0
  8 13  1  0  0  0  0
  8  7  2  0  0  0  0
  9  8  1  0  0  0  0
 10  9  2  0  0  0  0
 10 11  1  0  0  0  0
 11 12  2  0  0  0  0
 12  7  1  0  0  0  0
 14 11  1  0  0  0  0
 15 16  1  0  0  0  0
 18 17  1  0  0  0  0
 20 19  1  0  0  0  0
 22 21  1  0  0  0  0
M  END
>  <minimizedAffinity>
-5.43222046

>  <minimizedRMSD>
1.29971147

$$$$
