
 OpenBabel03272500083D

 42 45  0  0  1  0  0  0  0  0999 V2000
   30.9600   27.4730   48.3200 C   0  0  0  0  0  0  0  0  0  0  0  0
   30.7300   27.7870   49.6390 C   0  0  0  0  0  0  0  0  0  0  0  0
   29.4900   28.2200   50.0630 C   0  0  0  0  0  0  0  0  0  0  0  0
   28.4610   28.3360   49.1200 C   0  0  0  0  0  0  0  0  0  0  0  0
   28.7040   28.0160   47.7870 C   0  0  0  0  0  0  0  0  0  0  0  0
   29.9420   27.5920   47.4110 C   0  0  0  0  0  0  0  0  0  0  0  0
   31.4910   27.7140   50.4030 H   0  0  0  0  0  0  0  0  0  0  0  0
   29.3180   28.4660   51.1100 H   0  0  0  0  0  0  0  0  0  0  0  0
   27.5180   28.6810   49.5260 H   0  0  0  0  0  0  0  0  0  0  0  0
   27.8720   28.1270   47.1160 H   0  0  0  0  0  0  0  0  0  0  0  0
   29.8130   25.7990   45.7480 C   0  0  1  0  0  3  0  0  0  0  0  0
   30.1700   27.2450   46.0070 C   0  0  1  0  0  3  0  0  0  0  0  0
   29.4380   28.1170   45.2080 O   0  0  0  0  0  0  0  0  0  0  0  0
   29.1210   27.5770   43.9660 C   0  0  0  0  0  2  0  0  0  0  0  0
   28.0180   26.5710   44.1780 C   0  0  1  0  0  3  0  0  0  0  0  0
   28.4280   25.5800   45.2400 C   0  0  1  0  0  3  0  0  0  0  0  0
   30.7390   25.1740   44.9300 O   0  0  0  0  0  0  0  0  0  0  0  0
   31.6430   25.5510   45.1060 H   0  0  0  0  0  0  0  0  0  0  0  0
   26.8440   27.1840   44.6170 O   0  0  0  0  0  0  0  0  0  0  0  0
   26.2000   26.4230   44.7670 H   0  0  0  0  0  0  0  0  0  0  0  0
   28.4040   24.3070   44.6470 O   0  0  0  0  0  0  0  0  0  0  0  0
   29.2690   23.8340   44.7190 H   0  0  0  0  0  0  0  0  0  0  0  0
   32.2560   27.0540   48.0430 O   0  0  0  0  0  0  0  0  0  0  0  0
   35.2400   28.7730   49.0850 C   0  0  0  0  0  0  0  0  0  0  0  0
   35.2000   29.9690   48.3250 C   0  0  0  0  0  0  0  0  0  0  0  0
   34.1270   30.1480   47.4640 C   0  0  0  0  0  0  0  0  0  0  0  0
   33.1810   29.1700   47.3990 N   0  0  0  0  0  0  0  0  0  0  0  0
   33.2420   28.0540   48.1240 C   0  0  0  0  0  0  0  0  0  0  0  0
   34.2810   27.8360   48.9860 N   0  0  0  0  0  0  0  0  0  0  0  0
   36.0820   28.6270   49.7660 H   0  0  0  0  0  0  0  0  0  0  0  0
   34.0870   31.0560   46.8810 H   0  0  0  0  0  0  0  0  0  0  0  0
   36.2570   30.8990   48.4940 N   0  0  0  0  0  0  0  0  0  0  0  0
   36.4680   31.5410   49.6380 C   0  0  0  0  0  0  0  0  0  0  0  0
   37.5250   32.4360   49.7250 C   0  0  0  0  0  0  0  0  0  0  0  0
   38.2750   32.5850   48.6020 C   0  0  0  0  0  0  0  0  0  0  0  0
   39.2470   33.4020   48.6660 O   0  0  0  0  0  0  0  0  0  0  0  0
   38.0970   31.9670   47.4500 N   0  0  0  0  0  0  0  0  0  0  0  0
   37.0530   31.0920   47.3870 C   0  0  0  0  0  0  0  0  0  0  0  0
   36.8620   30.4850   46.2860 O   0  0  0  0  0  0  0  0  0  0  0  0
   35.8000   31.3380   50.4690 H   0  0  0  0  0  0  0  0  0  0  0  0
   37.6800   32.9490   50.6660 H   0  0  0  0  0  0  0  0  0  0  0  0
   38.7160   32.1340   46.6310 H   0  0  0  0  0  0  0  0  0  0  0  0
  1  2  1  0  0  0  0
  2  3  2  0  0  0  0
  2  7  1  0  0  0  0
  3  8  1  0  0  0  0
  4  9  1  0  0  0  0
  4  3  1  0  0  0  0
  5  4  2  0  0  0  0
  6  5  1  0  0  0  0
  6  1  2  0  0  0  0
 10  5  1  0  0  0  0
 11 17  1  6  0  0  0
 11 12  1  0  0  0  0
 12  6  1  1  0  0  0
 13 12  1  0  0  0  0
 14 15  1  0  0  0  0
 14 13  1  0  0  0  0
 15 19  1  1  0  0  0
 15 16  1  0  0  0  0
 16 21  1  6  0  0  0
 16 11  1  0  0  0  0
 17 18  1  0  0  0  0
 19 20  1  0  0  0  0
 21 22  1  0  0  0  0
 23 28  1  0  0  0  0
 23  1  1  0  0  0  0
 24 30  1  0  0  0  0
 25 32  1  0  0  0  0
 25 24  2  0  0  0  0
 26 25  1  0  0  0  0
 27 26  2  0  0  0  0
 27 28  1  0  0  0  0
 28 29  2  0  0  0  0
 29 24  1  0  0  0  0
 31 26  1  0  0  0  0
 32 33  1  0  0  0  0
 33 34  2  0  0  0  0
 33 40  1  0  0  0  0
 34 41  1  0  0  0  0
 35 36  2  0  0  0  0
 35 34  1  0  0  0  0
 37 35  1  0  0  0  0
 38 37  1  0  0  0  0
 38 32  1  0  0  0  0
 39 38  2  0  0  0  0
 42 37  1  0  0  0  0
M  END
>  <minimizedAffinity>
-6.22008562

>  <minimizedRMSD>
1.10883343

$$$$
