
 OpenBabel03272501163D

 38 41  0  0  1  0  0  0  0  0999 V2000
   35.0930   29.1190   50.7120 C   0  0  0  0  0  0  0  0  0  0  0  0
   35.2270   28.1830   51.3200 H   0  0  0  0  0  0  0  0  0  0  0  0
   34.6440   29.8580   51.3840 H   0  0  0  0  0  0  0  0  0  0  0  0
   36.7410   30.9660   50.1800 C   0  0  1  0  0  0  0  0  0  0  0  0
   36.4350   29.5720   50.2400 C   0  0  1  0  0  0  0  0  0  0  0  0
   37.4850   30.0860   51.1940 C   0  0  0  0  0  0  0  0  0  0  0  0
   36.0650   31.7310   50.6100 H   0  0  0  0  0  0  0  0  0  0  0  0
   36.8880   28.8600   49.4900 H   0  0  0  0  0  0  0  0  0  0  0  0
   37.2290   30.2940   52.2310 H   0  0  0  0  0  0  0  0  0  0  0  0
   38.5540   29.8730   51.0250 H   0  0  0  0  0  0  0  0  0  0  0  0
   37.6780   31.5400   49.1340 C   0  0  0  0  0  0  0  0  0  0  0  0
   38.1610   32.8110   49.4090 C   0  0  0  0  0  0  0  0  0  0  0  0
   39.0120   33.3250   48.3990 C   0  0  0  0  0  0  0  0  0  0  0  0
   39.3000   32.6130   47.2880 N   0  0  0  0  0  0  0  0  0  0  0  0
   38.7880   31.3600   47.0770 C   0  0  0  0  0  0  0  0  0  0  0  0
   37.9570   30.8130   48.0250 N   0  0  0  0  0  0  0  0  0  0  0  0
   37.8990   33.3230   50.3010 H   0  0  0  0  0  0  0  0  0  0  0  0
   39.4220   34.3140   48.5530 H   0  0  0  0  0  0  0  0  0  0  0  0
   38.9680   30.7430   46.2320 H   0  0  0  0  0  0  0  0  0  0  0  0
   34.1940   28.7080   49.5940 C   0  0  0  0  0  0  0  0  0  0  0  0
   34.6280   28.6440   48.2840 C   0  0  0  0  0  0  0  0  0  0  0  0
   33.6580   28.2530   47.4520 N   0  0  0  0  0  0  0  0  0  0  0  0
   32.5890   28.0660   48.2530 C   0  0  0  0  0  0  0  0  0  0  0  0
   32.9040   28.3370   49.5380 N   0  0  0  0  0  0  0  0  0  0  0  0
   35.6280   28.8750   47.9260 H   0  0  0  0  0  0  0  0  0  0  0  0
   33.7250   28.1260   46.4200 H   0  0  0  0  0  0  0  0  0  0  0  0
   30.3420   28.7710   47.4730 C   0  0  2  0  0  0  0  0  0  0  0  0
   31.2640   27.6190   47.7250 C   0  0  2  0  0  0  0  0  0  0  0  0
   30.6600   26.6590   48.4960 O   0  0  0  0  0  0  0  0  0  0  0  0
   29.6200   27.1020   49.2880 C   0  0  0  0  0  0  0  0  0  0  0  0
   28.4530   27.6620   48.5150 C   0  0  2  0  0  0  0  0  0  0  0  0
   28.9680   28.1640   47.1890 C   0  0  1  0  0  0  0  0  0  0  0  0
   30.6980   29.5490   46.3980 O   0  0  0  0  0  0  0  0  0  0  0  0
   30.0370   29.5040   45.6800 H   0  0  0  0  0  0  0  0  0  0  0  0
   28.0070   28.7930   49.2140 O   0  0  0  0  0  0  0  0  0  0  0  0
   27.0140   28.8860   49.1570 H   0  0  0  0  0  0  0  0  0  0  0  0
   28.1170   29.0440   46.5530 O   0  0  0  0  0  0  0  0  0  0  0  0
   27.9500   28.7150   45.6240 H   0  0  0  0  0  0  0  0  0  0  0  0
  1  2  1  0  0  0  0
  1  3  1  0  0  0  0
  4  5  1  0  0  0  0
  4  7  1  1  0  0  0
  4  6  1  0  0  0  0
  5  8  1  6  0  0  0
  5  1  1  0  0  0  0
  5  6  1  0  0  0  0
  6  9  1  0  0  0  0
 10  6  1  0  0  0  0
 11 12  1  0  0  0  0
 11  4  1  0  0  0  0
 12 17  1  0  0  0  0
 13 18  1  0  0  0  0
 13 12  2  0  0  0  0
 14 13  1  0  0  0  0
 15 14  2  0  0  0  0
 15 16  1  0  0  0  0
 16 11  2  0  0  0  0
 19 15  1  0  0  0  0
 20  1  1  0  0  0  0
 21 20  2  0  0  0  0
 22 23  1  0  0  0  0
 22 21  1  0  0  0  0
 23 24  2  0  0  0  0
 24 20  1  0  0  0  0
 25 21  1  0  0  0  0
 26 22  1  0  0  0  0
 27 33  1  6  0  0  0
 27 28  1  0  0  0  0
 28 23  1  1  0  0  0
 28 29  1  0  0  0  0
 29 30  1  0  0  0  0
 31 35  1  1  0  0  0
 31 30  1  0  0  0  0
 32 37  1  1  0  0  0
 32 27  1  0  0  0  0
 32 31  1  0  0  0  0
 34 33  1  0  0  0  0
 36 35  1  0  0  0  0
 38 37  1  0  0  0  0
M  END
>  <minimizedAffinity>
-6.41732597

>  <minimizedRMSD>
1.59038544

$$$$
