
 OpenBabel03262520233D

 35 37  0  0  1  0  0  0  0  0999 V2000
   39.1430   25.2400   35.3920 C   0  0  0  0  0  0  0  0  0  0  0  0
   38.5540   26.3060   36.0750 C   0  0  0  0  0  0  0  0  0  0  0  0
   38.0190   27.4190   35.5260 C   0  0  0  0  0  0  0  0  0  0  0  0
   38.0250   27.5690   34.1900 C   0  0  0  0  0  0  0  0  0  0  0  0
   38.5870   26.5580   33.5020 C   0  0  0  0  0  0  0  0  0  0  0  0
   39.0880   25.5060   34.1100 N   0  0  0  0  0  0  0  0  0  0  0  0
   38.4940   26.2850   37.2080 H   0  0  0  0  0  0  0  0  0  0  0  0
   37.5640   28.2250   36.1730 H   0  0  0  0  0  0  0  0  0  0  0  0
   37.6290   28.4180   33.6630 H   0  0  0  0  0  0  0  0  0  0  0  0
   40.8960   23.6600   35.5790 C   0  0  0  0  0  0  0  0  0  0  0  0
   39.6460   24.0900   36.1260 C   0  0  0  0  0  0  0  0  0  0  0  0
   39.1740   23.3960   37.2060 C   0  0  0  0  0  0  0  0  0  0  0  0
   39.9360   22.3510   37.6730 N   0  0  0  0  0  0  0  0  0  0  0  0
   41.1000   21.9670   37.1490 C   0  0  0  0  0  0  0  0  0  0  0  0
   41.5660   22.6430   36.0900 N   0  0  0  0  0  0  0  0  0  0  0  0
   41.7440   20.8890   37.7730 N   0  0  0  0  0  0  0  0  0  0  0  0
   41.3860   24.1140   34.7290 H   0  0  0  0  0  0  0  0  0  0  0  0
   42.7010   21.0360   38.2140 H   0  0  0  0  0  0  0  0  0  0  0  0
   41.4610   19.9120   37.9050 H   0  0  0  0  0  0  0  0  0  0  0  0
   37.8990   23.7870   37.8100 C   0  0  0  0  0  0  0  0  0  0  0  0
   38.0840   24.9130   38.4960 F   0  0  0  0  0  0  0  0  0  0  0  0
   36.8760   23.9780   36.8950 F   0  0  0  0  0  0  0  0  0  0  0  0
   37.4360   22.7860   38.7080 F   0  0  0  0  0  0  0  0  0  0  0  0
   37.5300   25.8550   31.3320 C   0  0  2  0  0  3  0  0  0  0  0  0
   38.7360   26.4140   31.9980 C   0  0  1  0  0  3  0  0  0  0  0  0
   39.1810   27.6200   31.5150 O   0  0  0  0  0  0  0  0  0  0  0  0
   38.7340   27.8620   30.2400 C   0  0  0  0  0  2  0  0  0  0  0  0
   37.2350   28.0320   30.2740 C   0  0  2  0  0  3  0  0  0  0  0  0
   36.5420   26.9880   31.1210 C   0  0  1  0  0  3  0  0  0  0  0  0
   36.9920   24.7270   31.8880 O   0  0  0  0  0  0  0  0  0  0  0  0
   36.0120   24.6570   31.8150 H   0  0  0  0  0  0  0  0  0  0  0  0
   36.7780   28.0300   28.9750 O   0  0  0  0  0  0  0  0  0  0  0  0
   36.4630   27.1280   28.6600 H   0  0  0  0  0  0  0  0  0  0  0  0
   35.4850   26.4710   30.3390 O   0  0  0  0  0  0  0  0  0  0  0  0
   34.6690   27.0130   30.4940 H   0  0  0  0  0  0  0  0  0  0  0  0
  1  2  1  0  0  0  0
  1 11  1  0  0  0  0
  2  7  1  0  0  0  0
  3  2  2  0  0  0  0
  3  8  1  0  0  0  0
  4  3  1  0  0  0  0
  5  6  1  0  0  0  0
  5  4  2  0  0  0  0
  6  1  2  0  0  0  0
  9  4  1  0  0  0  0
 10 15  2  0  0  0  0
 10 11  1  0  0  0  0
 11 12  2  0  0  0  0
 12 13  1  0  0  0  0
 12 20  1  0  0  0  0
 14 13  2  0  0  0  0
 14 16  1  0  0  0  0
 15 14  1  0  0  0  0
 16 19  1  0  0  0  0
 16 18  1  0  0  0  0
 17 10  1  0  0  0  0
 20 21  1  0  0  0  0
 20 23  1  0  0  0  0
 22 20  1  0  0  0  0
 24 30  1  1  0  0  0
 24 25  1  0  0  0  0
 25  5  1  1  0  0  0
 26 25  1  0  0  0  0
 27 28  1  0  0  0  0
 27 26  1  0  0  0  0
 28 32  1  6  0  0  0
 28 29  1  0  0  0  0
 29 34  1  6  0  0  0
 29 24  1  0  0  0  0
 31 30  1  0  0  0  0
 33 32  1  0  0  0  0
 34 35  1  0  0  0  0
M  END
>  <minimizedAffinity>
-7.29934978

$$$$

 OpenBabel03262520233D

 35 37  0  0  1  0  0  0  0  0999 V2000
   38.6810   25.2010   35.4560 C   0  0  0  0  0  0  0  0  0  0  0  0
   38.5940   26.4540   36.0660 C   0  0  0  0  0  0  0  0  0  0  0  0
   37.9950   27.5560   35.5640 C   0  0  0  0  0  0  0  0  0  0  0  0
   37.4040   27.4990   34.3580 C   0  0  0  0  0  0  0  0  0  0  0  0
   37.4710   26.3040   33.7430 C   0  0  0  0  0  0  0  0  0  0  0  0
   38.0740   25.2760   34.2970 N   0  0  0  0  0  0  0  0  0  0  0  0
   39.0590   26.6160   37.0890 H   0  0  0  0  0  0  0  0  0  0  0  0
   37.9810   28.5250   36.1440 H   0  0  0  0  0  0  0  0  0  0  0  0
   36.9070   28.3210   33.8740 H   0  0  0  0  0  0  0  0  0  0  0  0
   40.5240   23.7160   35.4490 C   0  0  0  0  0  0  0  0  0  0  0  0
   39.3330   24.0970   36.1420 C   0  0  0  0  0  0  0  0  0  0  0  0
   39.0390   23.4090   37.2880 C   0  0  0  0  0  0  0  0  0  0  0  0
   39.9070   22.4170   37.6740 N   0  0  0  0  0  0  0  0  0  0  0  0
   41.0150   22.0770   37.0130 C   0  0  0  0  0  0  0  0  0  0  0  0
   41.3070   22.7470   35.8900 N   0  0  0  0  0  0  0  0  0  0  0  0
   41.7880   21.0500   37.5720 N   0  0  0  0  0  0  0  0  0  0  0  0
   40.8790   24.1710   34.5340 H   0  0  0  0  0  0  0  0  0  0  0  0
   42.7850   21.2550   37.8830 H   0  0  0  0  0  0  0  0  0  0  0  0
   41.5770   20.0630   37.7570 H   0  0  0  0  0  0  0  0  0  0  0  0
   37.8310   23.7510   38.0420 C   0  0  0  0  0  0  0  0  0  0  0  0
   38.0840   24.8350   38.7740 F   0  0  0  0  0  0  0  0  0  0  0  0
   36.7200   23.9920   37.2490 F   0  0  0  0  0  0  0  0  0  0  0  0
   37.4640   22.6940   38.9180 F   0  0  0  0  0  0  0  0  0  0  0  0
   37.5540   26.5820   31.2450 C   0  0  2  0  0  3  0  0  0  0  0  0
   36.8950   25.9070   32.3940 C   0  0  1  0  0  3  0  0  0  0  0  0
   36.8720   24.5350   32.3490 O   0  0  0  0  0  0  0  0  0  0  0  0
   37.0360   24.0590   31.0710 C   0  0  0  0  0  2  0  0  0  0  0  0
   38.4270   24.4000   30.5980 C   0  0  2  0  0  3  0  0  0  0  0  0
   38.8280   25.8220   30.9210 C   0  0  1  0  0  3  0  0  0  0  0  0
   37.7090   27.9390   31.3410 O   0  0  0  0  0  0  0  0  0  0  0  0
   38.5210   28.2930   30.9080 H   0  0  0  0  0  0  0  0  0  0  0  0
   38.4940   24.1370   29.2480 O   0  0  0  0  0  0  0  0  0  0  0  0
   38.3210   24.9430   28.6720 H   0  0  0  0  0  0  0  0  0  0  0  0
   39.3420   26.3760   29.7260 O   0  0  0  0  0  0  0  0  0  0  0  0
   40.3180   26.2040   29.6820 H   0  0  0  0  0  0  0  0  0  0  0  0
  1  2  1  0  0  0  0
  1 11  1  0  0  0  0
  2  7  1  0  0  0  0
  3  2  2  0  0  0  0
  3  8  1  0  0  0  0
  4  3  1  0  0  0  0
  5  6  1  0  0  0  0
  5  4  2  0  0  0  0
  6  1  2  0  0  0  0
  9  4  1  0  0  0  0
 10 15  2  0  0  0  0
 10 11  1  0  0  0  0
 11 12  2  0  0  0  0
 12 13  1  0  0  0  0
 12 20  1  0  0  0  0
 14 16  1  0  0  0  0
 14 13  2  0  0  0  0
 15 14  1  0  0  0  0
 16 19  1  0  0  0  0
 16 18  1  0  0  0  0
 17 10  1  0  0  0  0
 20 21  1  0  0  0  0
 20 23  1  0  0  0  0
 22 20  1  0  0  0  0
 24 30  1  1  0  0  0
 24 25  1  0  0  0  0
 25  5  1  1  0  0  0
 26 25  1  0  0  0  0
 27 26  1  0  0  0  0
 28 32  1  6  0  0  0
 28 29  1  0  0  0  0
 28 27  1  0  0  0  0
 29 34  1  6  0  0  0
 29 24  1  0  0  0  0
 31 30  1  0  0  0  0
 33 32  1  0  0  0  0
 35 34  1  0  0  0  0
M  END
>  <minimizedAffinity>
-7.08697557

$$$$

 OpenBabel03262520233D

 35 37  0  0  1  0  0  0  0  0999 V2000
   38.8800   24.9940   35.3090 C   0  0  0  0  0  0  0  0  0  0  0  0
   38.7620   26.2890   35.8160 C   0  0  0  0  0  0  0  0  0  0  0  0
   38.2210   27.3560   35.1870 C   0  0  0  0  0  0  0  0  0  0  0  0
   37.7290   27.2140   33.9440 C   0  0  0  0  0  0  0  0  0  0  0  0
   37.8290   25.9760   33.4260 C   0  0  0  0  0  0  0  0  0  0  0  0
   38.3710   24.9880   34.1020 N   0  0  0  0  0  0  0  0  0  0  0  0
   39.1450   26.5230   36.8590 H   0  0  0  0  0  0  0  0  0  0  0  0
   38.1740   28.3660   35.6910 H   0  0  0  0  0  0  0  0  0  0  0  0
   37.2850   28.0020   33.3630 H   0  0  0  0  0  0  0  0  0  0  0  0
   40.6770   23.4700   35.5390 C   0  0  0  0  0  0  0  0  0  0  0  0
   39.4590   23.9390   36.1250 C   0  0  0  0  0  0  0  0  0  0  0  0
   39.0790   23.3610   37.3050 C   0  0  0  0  0  0  0  0  0  0  0  0
   39.8950   22.3850   37.8270 N   0  0  0  0  0  0  0  0  0  0  0  0
   41.0280   21.9620   37.2650 C   0  0  0  0  0  0  0  0  0  0  0  0
   41.4040   22.5240   36.1080 N   0  0  0  0  0  0  0  0  0  0  0  0
   41.7380   20.9690   37.9550 N   0  0  0  0  0  0  0  0  0  0  0  0
   41.0960   23.8340   34.6120 H   0  0  0  0  0  0  0  0  0  0  0  0
   42.7200   21.1770   38.3070 H   0  0  0  0  0  0  0  0  0  0  0  0
   41.4870   20.0080   38.2120 H   0  0  0  0  0  0  0  0  0  0  0  0
   37.8410   23.7970   37.9540 C   0  0  0  0  0  0  0  0  0  0  0  0
   38.0920   24.9120   38.6370 F   0  0  0  0  0  0  0  0  0  0  0  0
   36.7970   24.0330   37.0740 F   0  0  0  0  0  0  0  0  0  0  0  0
   37.3710   22.8110   38.8630 F   0  0  0  0  0  0  0  0  0  0  0  0
   38.0940   24.2880   31.5810 C   0  0  2  0  0  3  0  0  0  0  0  0
   37.3590   25.4860   32.0670 C   0  0  1  0  0  3  0  0  0  0  0  0
   35.9920   25.3650   32.1290 O   0  0  0  0  0  0  0  0  0  0  0  0
   35.5260   24.3630   31.3140 C   0  0  0  0  0  2  0  0  0  0  0  0
   36.0180   23.0370   31.8420 C   0  0  2  0  0  3  0  0  0  0  0  0
   37.4790   23.0630   32.2320 C   0  0  1  0  0  3  0  0  0  0  0  0
   39.4600   24.3420   31.6450 O   0  0  0  0  0  0  0  0  0  0  0  0
   39.8990   23.4780   31.8230 H   0  0  0  0  0  0  0  0  0  0  0  0
   35.7520   22.0760   30.8920 O   0  0  0  0  0  0  0  0  0  0  0  0
   36.5290   21.8890   30.2810 H   0  0  0  0  0  0  0  0  0  0  0  0
   38.0760   21.9340   31.6260 O   0  0  0  0  0  0  0  0  0  0  0  0
   38.0140   21.1620   32.2460 H   0  0  0  0  0  0  0  0  0  0  0  0
  1  2  1  0  0  0  0
  1 11  1  0  0  0  0
  2  7  1  0  0  0  0
  3  8  1  0  0  0  0
  3  2  2  0  0  0  0
  4  3  1  0  0  0  0
  5  4  2  0  0  0  0
  5  6  1  0  0  0  0
  6  1  2  0  0  0  0
  9  4  1  0  0  0  0
 10 15  2  0  0  0  0
 10 11  1  0  0  0  0
 11 12  2  0  0  0  0
 12 13  1  0  0  0  0
 12 20  1  0  0  0  0
 14 13  2  0  0  0  0
 14 16  1  0  0  0  0
 15 14  1  0  0  0  0
 16 19  1  0  0  0  0
 16 18  1  0  0  0  0
 17 10  1  0  0  0  0
 20 21  1  0  0  0  0
 20 23  1  0  0  0  0
 22 20  1  0  0  0  0
 24 30  1  1  0  0  0
 24 25  1  0  0  0  0
 24 29  1  0  0  0  0
 25 26  1  0  0  0  0
 25  5  1  1  0  0  0
 27 28  1  0  0  0  0
 27 26  1  0  0  0  0
 28 32  1  6  0  0  0
 28 29  1  0  0  0  0
 29 34  1  6  0  0  0
 30 31  1  0  0  0  0
 33 32  1  0  0  0  0
 34 35  1  0  0  0  0
M  END
>  <minimizedAffinity>
-6.890728

$$$$

 OpenBabel03262520233D

 35 37  0  0  1  0  0  0  0  0999 V2000
   39.6190   25.9700   33.6950 C   0  0  0  0  0  0  0  0  0  0  0  0
   40.9280   26.3840   33.9450 C   0  0  0  0  0  0  0  0  0  0  0  0
   41.8760   25.7000   34.6230 C   0  0  0  0  0  0  0  0  0  0  0  0
   41.5840   24.4890   35.1300 C   0  0  0  0  0  0  0  0  0  0  0  0
   40.3290   24.0610   34.9060 C   0  0  0  0  0  0  0  0  0  0  0  0
   39.4620   24.7880   34.2370 N   0  0  0  0  0  0  0  0  0  0  0  0
   41.2840   27.3920   33.5610 H   0  0  0  0  0  0  0  0  0  0  0  0
   42.9110   26.1290   34.7680 H   0  0  0  0  0  0  0  0  0  0  0  0
   42.2680   23.8730   35.6860 H   0  0  0  0  0  0  0  0  0  0  0  0
   39.1250   26.8250   31.5430 C   0  0  0  0  0  0  0  0  0  0  0  0
   38.7230   26.8090   32.9160 C   0  0  0  0  0  0  0  0  0  0  0  0
   37.6060   27.5290   33.2400 C   0  0  0  0  0  0  0  0  0  0  0  0
   36.9680   28.2030   32.2260 N   0  0  0  0  0  0  0  0  0  0  0  0
   37.3580   28.2040   30.9510 C   0  0  0  0  0  0  0  0  0  0  0  0
   38.4520   27.5010   30.6280 N   0  0  0  0  0  0  0  0  0  0  0  0
   36.5680   28.9360   30.0540 N   0  0  0  0  0  0  0  0  0  0  0  0
   39.9840   26.3030   31.1460 H   0  0  0  0  0  0  0  0  0  0  0  0
   36.0800   28.4320   29.2540 H   0  0  0  0  0  0  0  0  0  0  0  0
   36.3450   29.9370   30.0030 H   0  0  0  0  0  0  0  0  0  0  0  0
   37.1440   27.5540   34.6290 C   0  0  0  0  0  0  0  0  0  0  0  0
   36.1380   28.4210   34.7240 F   0  0  0  0  0  0  0  0  0  0  0  0
   36.7250   26.3220   35.1060 F   0  0  0  0  0  0  0  0  0  0  0  0
   38.1840   27.9770   35.5010 F   0  0  0  0  0  0  0  0  0  0  0  0
   39.6850   22.5360   36.7980 C   0  0  2  0  0  3  0  0  0  0  0  0
   39.6950   22.7460   35.3270 C   0  0  1  0  0  3  0  0  0  0  0  0
   38.4750   22.6630   34.7020 O   0  0  0  0  0  0  0  0  0  0  0  0
   37.5610   21.9600   35.4460 C   0  0  0  0  0  2  0  0  0  0  0  0
   37.2570   22.7360   36.7040 C   0  0  2  0  0  3  0  0  0  0  0  0
   38.4970   23.2860   37.3720 C   0  0  1  0  0  3  0  0  0  0  0  0
   40.8660   22.7510   37.4550 O   0  0  0  0  0  0  0  0  0  0  0  0
   40.7710   23.1070   38.3690 H   0  0  0  0  0  0  0  0  0  0  0  0
   36.5370   21.9160   37.5450 O   0  0  0  0  0  0  0  0  0  0  0  0
   37.1040   21.4360   38.2230 H   0  0  0  0  0  0  0  0  0  0  0  0
   38.4090   22.9320   38.7380 O   0  0  0  0  0  0  0  0  0  0  0  0
   37.9320   23.6490   39.2290 H   0  0  0  0  0  0  0  0  0  0  0  0
  1  2  2  0  0  0  0
  1  6  1  0  0  0  0
  2  3  1  0  0  0  0
  3  8  1  0  0  0  0
  3  4  2  0  0  0  0
  4  9  1  0  0  0  0
  5  4  1  0  0  0  0
  6  5  2  0  0  0  0
  7  2  1  0  0  0  0
 10 11  1  0  0  0  0
 11 12  2  0  0  0  0
 11  1  1  0  0  0  0
 12 20  1  0  0  0  0
 13 12  1  0  0  0  0
 14 13  2  0  0  0  0
 15 14  1  0  0  0  0
 15 10  2  0  0  0  0
 16 14  1  0  0  0  0
 17 10  1  0  0  0  0
 18 16  1  0  0  0  0
 19 16  1  0  0  0  0
 20 21  1  0  0  0  0
 20 22  1  0  0  0  0
 20 23  1  0  0  0  0
 24 29  1  0  0  0  0
 24 30  1  1  0  0  0
 25  5  1  1  0  0  0
 25 24  1  0  0  0  0
 26 25  1  0  0  0  0
 26 27  1  0  0  0  0
 27 28  1  0  0  0  0
 28 29  1  0  0  0  0
 28 32  1  1  0  0  0
 29 34  1  1  0  0  0
 30 31  1  0  0  0  0
 32 33  1  0  0  0  0
 34 35  1  0  0  0  0
M  END
>  <minimizedAffinity>
-6.63312149

$$$$

 OpenBabel03262520233D

 35 37  0  0  1  0  0  0  0  0999 V2000
   38.1890   25.0090   32.5020 C   0  0  0  0  0  0  0  0  0  0  0  0
   37.0600   25.7140   32.0810 C   0  0  0  0  0  0  0  0  0  0  0  0
   35.9350   25.1910   31.5450 C   0  0  0  0  0  0  0  0  0  0  0  0
   35.8380   23.8610   31.3760 C   0  0  0  0  0  0  0  0  0  0  0  0
   36.9110   23.1520   31.7710 C   0  0  0  0  0  0  0  0  0  0  0  0
   37.9710   23.7360   32.2850 N   0  0  0  0  0  0  0  0  0  0  0  0
   37.0330   26.8450   32.1780 H   0  0  0  0  0  0  0  0  0  0  0  0
   35.0750   25.8550   31.2370 H   0  0  0  0  0  0  0  0  0  0  0  0
   34.9890   23.3530   30.9550 H   0  0  0  0  0  0  0  0  0  0  0  0
   40.4750   25.5810   32.2700 C   0  0  0  0  0  0  0  0  0  0  0  0
   39.3130   25.7160   33.0940 C   0  0  0  0  0  0  0  0  0  0  0  0
   39.4470   26.4680   34.2290 C   0  0  0  0  0  0  0  0  0  0  0  0
   40.6760   27.0290   34.4800 N   0  0  0  0  0  0  0  0  0  0  0  0
   41.7470   26.8920   33.6970 C   0  0  0  0  0  0  0  0  0  0  0  0
   41.6220   26.1550   32.5850 N   0  0  0  0  0  0  0  0  0  0  0  0
   42.9130   27.5540   34.1070 N   0  0  0  0  0  0  0  0  0  0  0  0
   40.5150   25.0180   31.3480 H   0  0  0  0  0  0  0  0  0  0  0  0
   43.3290   28.3120   33.4870 H   0  0  0  0  0  0  0  0  0  0  0  0
   43.4930   27.4530   34.9460 H   0  0  0  0  0  0  0  0  0  0  0  0
   38.2950   26.6430   35.1160 C   0  0  0  0  0  0  0  0  0  0  0  0
   37.4600   27.5170   34.5570 F   0  0  0  0  0  0  0  0  0  0  0  0
   37.6060   25.4700   35.3830 F   0  0  0  0  0  0  0  0  0  0  0  0
   38.6990   27.1540   36.3790 F   0  0  0  0  0  0  0  0  0  0  0  0
   36.9590   20.9930   33.0590 C   0  0  2  0  0  3  0  0  0  0  0  0
   37.1100   21.6470   31.7320 C   0  0  1  0  0  3  0  0  0  0  0  0
   36.3100   21.1570   30.7290 O   0  0  0  0  0  0  0  0  0  0  0  0
   35.8690   19.8850   30.9970 C   0  0  0  0  0  2  0  0  0  0  0  0
   34.9440   19.9300   32.1890 C   0  0  2  0  0  3  0  0  0  0  0  0
   35.4770   20.7870   33.3150 C   0  0  1  0  0  3  0  0  0  0  0  0
   37.6440   21.5580   34.1000 O   0  0  0  0  0  0  0  0  0  0  0  0
   37.1940   21.4920   34.9740 H   0  0  0  0  0  0  0  0  0  0  0  0
   34.7070   18.6350   32.5910 O   0  0  0  0  0  0  0  0  0  0  0  0
   35.3130   18.3250   33.3310 H   0  0  0  0  0  0  0  0  0  0  0  0
   35.3690   20.0140   34.4940 O   0  0  0  0  0  0  0  0  0  0  0  0
   34.4820   20.1750   34.9080 H   0  0  0  0  0  0  0  0  0  0  0  0
  1 11  1  0  0  0  0
  2  7  1  0  0  0  0
  2  1  2  0  0  0  0
  3  2  1  0  0  0  0
  4  3  2  0  0  0  0
  4  5  1  0  0  0  0
  5  6  2  0  0  0  0
  6  1  1  0  0  0  0
  8  3  1  0  0  0  0
  9  4  1  0  0  0  0
 10 15  2  0  0  0  0
 10 11  1  0  0  0  0
 11 12  2  0  0  0  0
 12 13  1  0  0  0  0
 12 20  1  0  0  0  0
 14 16  1  0  0  0  0
 14 13  2  0  0  0  0
 15 14  1  0  0  0  0
 16 19  1  0  0  0  0
 17 10  1  0  0  0  0
 18 16  1  0  0  0  0
 20 22  1  0  0  0  0
 20 23  1  0  0  0  0
 21 20  1  0  0  0  0
 24 29  1  0  0  0  0
 24 30  1  1  0  0  0
 25  5  1  1  0  0  0
 25 24  1  0  0  0  0
 26 27  1  0  0  0  0
 26 25  1  0  0  0  0
 27 28  1  0  0  0  0
 28 32  1  1  0  0  0
 28 29  1  0  0  0  0
 29 34  1  1  0  0  0
 30 31  1  0  0  0  0
 32 33  1  0  0  0  0
 34 35  1  0  0  0  0
M  END
>  <minimizedAffinity>
-6.45267296

$$$$

 OpenBabel03262520233D

 35 37  0  0  1  0  0  0  0  0999 V2000
   37.5090   25.6000   32.6700 C   0  0  0  0  0  0  0  0  0  0  0  0
   36.9120   24.4700   32.1080 C   0  0  0  0  0  0  0  0  0  0  0  0
   37.2130   23.1800   32.3760 C   0  0  0  0  0  0  0  0  0  0  0  0
   38.1780   22.8960   33.2670 C   0  0  0  0  0  0  0  0  0  0  0  0
   38.7750   23.9650   33.8270 C   0  0  0  0  0  0  0  0  0  0  0  0
   38.4250   25.1920   33.5130 N   0  0  0  0  0  0  0  0  0  0  0  0
   36.0820   24.5930   31.3420 H   0  0  0  0  0  0  0  0  0  0  0  0
   36.6640   22.3370   31.8630 H   0  0  0  0  0  0  0  0  0  0  0  0
   38.4910   21.9050   33.5420 H   0  0  0  0  0  0  0  0  0  0  0  0
   36.9130   27.0330   30.8830 C   0  0  0  0  0  0  0  0  0  0  0  0
   37.0490   26.9290   32.3030 C   0  0  0  0  0  0  0  0  0  0  0  0
   36.7150   28.0350   33.0370 C   0  0  0  0  0  0  0  0  0  0  0  0
   36.2810   29.1450   32.3530 N   0  0  0  0  0  0  0  0  0  0  0  0
   36.1600   29.2210   31.0270 C   0  0  0  0  0  0  0  0  0  0  0  0
   36.4860   28.1420   30.3030 N   0  0  0  0  0  0  0  0  0  0  0  0
   35.6810   30.4330   30.5100 N   0  0  0  0  0  0  0  0  0  0  0  0
   37.1390   26.2420   30.1820 H   0  0  0  0  0  0  0  0  0  0  0  0
   34.7640   30.4460   29.9700 H   0  0  0  0  0  0  0  0  0  0  0  0
   36.0600   31.3850   30.5460 H   0  0  0  0  0  0  0  0  0  0  0  0
   36.8350   27.9920   34.4950 C   0  0  0  0  0  0  0  0  0  0  0  0
   36.3220   29.1150   34.9940 F   0  0  0  0  0  0  0  0  0  0  0  0
   36.2000   26.9080   35.0820 F   0  0  0  0  0  0  0  0  0  0  0  0
   38.1980   27.9060   34.8910 F   0  0  0  0  0  0  0  0  0  0  0  0
   39.3750   24.1260   36.2630 C   0  0  2  0  0  3  0  0  0  0  0  0
   39.8770   23.9850   34.8710 C   0  0  1  0  0  3  0  0  0  0  0  0
   40.6840   22.8990   34.6330 O   0  0  0  0  0  0  0  0  0  0  0  0
   41.2480   22.4140   35.7860 C   0  0  0  0  0  2  0  0  0  0  0  0
   40.1570   21.8520   36.6650 C   0  0  2  0  0  3  0  0  0  0  0  0
   38.9460   22.7540   36.7500 C   0  0  1  0  0  3  0  0  0  0  0  0
   38.4620   25.1210   36.4850 O   0  0  0  0  0  0  0  0  0  0  0  0
   37.7890   24.9170   37.1760 H   0  0  0  0  0  0  0  0  0  0  0  0
   40.6990   21.5950   37.9040 O   0  0  0  0  0  0  0  0  0  0  0  0
   40.5650   22.3420   38.5650 H   0  0  0  0  0  0  0  0  0  0  0  0
   38.6370   22.8840   38.1230 O   0  0  0  0  0  0  0  0  0  0  0  0
   38.0090   22.1620   38.3840 H   0  0  0  0  0  0  0  0  0  0  0  0
  1  6  1  0  0  0  0
  2  3  1  0  0  0  0
  2  1  2  0  0  0  0
  3  4  2  0  0  0  0
  4  9  1  0  0  0  0
  4  5  1  0  0  0  0
  6  5  2  0  0  0  0
  7  2  1  0  0  0  0
  8  3  1  0  0  0  0
 10 11  1  0  0  0  0
 11  1  1  0  0  0  0
 11 12  2  0  0  0  0
 12 20  1  0  0  0  0
 13 12  1  0  0  0  0
 14 13  2  0  0  0  0
 15 10  2  0  0  0  0
 15 14  1  0  0  0  0
 16 19  1  0  0  0  0
 16 14  1  0  0  0  0
 17 10  1  0  0  0  0
 18 16  1  0  0  0  0
 20 23  1  0  0  0  0
 20 21  1  0  0  0  0
 20 22  1  0  0  0  0
 24 30  1  6  0  0  0
 24 29  1  0  0  0  0
 25  5  1  6  0  0  0
 25 24  1  0  0  0  0
 26 25  1  0  0  0  0
 26 27  1  0  0  0  0
 27 28  1  0  0  0  0
 28 29  1  0  0  0  0
 28 32  1  1  0  0  0
 29 34  1  1  0  0  0
 30 31  1  0  0  0  0
 32 33  1  0  0  0  0
 34 35  1  0  0  0  0
M  END
>  <minimizedAffinity>
-6.38959885

$$$$

 OpenBabel03262520233D

 35 37  0  0  1  0  0  0  0  0999 V2000
   38.6760   25.4890   35.1730 C   0  0  0  0  0  0  0  0  0  0  0  0
   38.3920   26.6620   35.8730 C   0  0  0  0  0  0  0  0  0  0  0  0
   37.6330   27.6950   35.4430 C   0  0  0  0  0  0  0  0  0  0  0  0
   37.0670   27.6390   34.2240 C   0  0  0  0  0  0  0  0  0  0  0  0
   37.3230   26.5200   33.5230 C   0  0  0  0  0  0  0  0  0  0  0  0
   38.0740   25.5580   34.0110 N   0  0  0  0  0  0  0  0  0  0  0  0
   38.8180   26.8160   36.9140 H   0  0  0  0  0  0  0  0  0  0  0  0
   37.4650   28.6030   36.0930 H   0  0  0  0  0  0  0  0  0  0  0  0
   36.4530   28.4100   33.7940 H   0  0  0  0  0  0  0  0  0  0  0  0
   38.7200   23.7310   36.7590 C   0  0  0  0  0  0  0  0  0  0  0  0
   39.4860   24.4490   35.7870 C   0  0  0  0  0  0  0  0  0  0  0  0
   40.7770   24.0390   35.5950 C   0  0  0  0  0  0  0  0  0  0  0  0
   41.2260   22.9790   36.3450 N   0  0  0  0  0  0  0  0  0  0  0  0
   40.4950   22.3220   37.2460 C   0  0  0  0  0  0  0  0  0  0  0  0
   39.2300   22.7200   37.4390 N   0  0  0  0  0  0  0  0  0  0  0  0
   41.1200   21.2520   37.9020 N   0  0  0  0  0  0  0  0  0  0  0  0
   37.6910   23.9450   37.0130 H   0  0  0  0  0  0  0  0  0  0  0  0
   40.7300   20.2690   37.7880 H   0  0  0  0  0  0  0  0  0  0  0  0
   41.9390   21.2170   38.5180 H   0  0  0  0  0  0  0  0  0  0  0  0
   41.6140   24.7340   34.6150 C   0  0  0  0  0  0  0  0  0  0  0  0
   42.8270   24.1870   34.6320 F   0  0  0  0  0  0  0  0  0  0  0  0
   41.1190   24.6940   33.3210 F   0  0  0  0  0  0  0  0  0  0  0  0
   41.7390   26.1120   34.9420 F   0  0  0  0  0  0  0  0  0  0  0  0
   37.6200   26.7530   31.0380 C   0  0  2  0  0  3  0  0  0  0  0  0
   36.8270   26.1440   32.1380 C   0  0  1  0  0  3  0  0  0  0  0  0
   36.7080   24.7770   32.1050 O   0  0  0  0  0  0  0  0  0  0  0  0
   36.9350   24.2700   30.8490 C   0  0  0  0  0  2  0  0  0  0  0  0
   38.3800   24.5040   30.4830 C   0  0  2  0  0  3  0  0  0  0  0  0
   38.8560   25.8990   30.8210 C   0  0  1  0  0  3  0  0  0  0  0  0
   37.8640   28.0960   31.1310 O   0  0  0  0  0  0  0  0  0  0  0  0
   38.7300   28.3850   30.7600 H   0  0  0  0  0  0  0  0  0  0  0  0
   38.5320   24.2160   29.1440 O   0  0  0  0  0  0  0  0  0  0  0  0
   38.4630   25.0230   28.5480 H   0  0  0  0  0  0  0  0  0  0  0  0
   39.5000   26.3960   29.6650 O   0  0  0  0  0  0  0  0  0  0  0  0
   40.4610   26.1540   29.6990 H   0  0  0  0  0  0  0  0  0  0  0  0
  1 11  1  0  0  0  0
  1  2  1  0  0  0  0
  2  7  1  0  0  0  0
  3  2  2  0  0  0  0
  3  8  1  0  0  0  0
  4  3  1  0  0  0  0
  5  6  1  0  0  0  0
  5  4  2  0  0  0  0
  6  1  2  0  0  0  0
  9  4  1  0  0  0  0
 10 17  1  0  0  0  0
 10 15  1  0  0  0  0
 11 10  2  0  0  0  0
 12 11  1  0  0  0  0
 12 13  2  0  0  0  0
 13 14  1  0  0  0  0
 14 15  2  0  0  0  0
 14 16  1  0  0  0  0
 16 19  1  0  0  0  0
 18 16  1  0  0  0  0
 20 21  1  0  0  0  0
 20 23  1  0  0  0  0
 20 12  1  0  0  0  0
 22 20  1  0  0  0  0
 24 30  1  1  0  0  0
 24 25  1  0  0  0  0
 25  5  1  1  0  0  0
 26 25  1  0  0  0  0
 27 26  1  0  0  0  0
 28 32  1  6  0  0  0
 28 29  1  0  0  0  0
 28 27  1  0  0  0  0
 29 34  1  6  0  0  0
 29 24  1  0  0  0  0
 31 30  1  0  0  0  0
 33 32  1  0  0  0  0
 34 35  1  0  0  0  0
M  END
>  <minimizedAffinity>
-6.37054825

$$$$

 OpenBabel03262520233D

 35 37  0  0  1  0  0  0  0  0999 V2000
   36.6560   21.1770   34.1370 C   0  0  0  0  0  0  0  0  0  0  0  0
   35.6550   20.7590   35.0150 C   0  0  0  0  0  0  0  0  0  0  0  0
   35.5180   21.1150   36.3120 C   0  0  0  0  0  0  0  0  0  0  0  0
   36.4090   21.9550   36.8660 C   0  0  0  0  0  0  0  0  0  0  0  0
   37.3890   22.3760   36.0450 C   0  0  0  0  0  0  0  0  0  0  0  0
   37.4540   21.9830   34.7930 N   0  0  0  0  0  0  0  0  0  0  0  0
   34.8480   20.0470   34.6520 H   0  0  0  0  0  0  0  0  0  0  0  0
   34.6660   20.7170   36.9370 H   0  0  0  0  0  0  0  0  0  0  0  0
   36.3870   22.2910   37.8870 H   0  0  0  0  0  0  0  0  0  0  0  0
   36.2870   19.3490   32.6790 C   0  0  0  0  0  0  0  0  0  0  0  0
   36.6480   20.7310   32.7530 C   0  0  0  0  0  0  0  0  0  0  0  0
   36.8880   21.3700   31.5670 C   0  0  0  0  0  0  0  0  0  0  0  0
   36.7620   20.6360   30.4120 N   0  0  0  0  0  0  0  0  0  0  0  0
   36.4230   19.3480   30.3650 C   0  0  0  0  0  0  0  0  0  0  0  0
   36.1870   18.7160   31.5230 N   0  0  0  0  0  0  0  0  0  0  0  0
   36.3250   18.7710   29.0900 N   0  0  0  0  0  0  0  0  0  0  0  0
   36.0700   18.7210   33.5320 H   0  0  0  0  0  0  0  0  0  0  0  0
   35.3900   18.3880   28.7590 H   0  0  0  0  0  0  0  0  0  0  0  0
   37.0240   18.6320   28.3520 H   0  0  0  0  0  0  0  0  0  0  0  0
   37.2640   22.7850   31.5770 C   0  0  0  0  0  0  0  0  0  0  0  0
   38.4490   22.9030   32.1730 F   0  0  0  0  0  0  0  0  0  0  0  0
   37.3330   23.3590   30.3180 F   0  0  0  0  0  0  0  0  0  0  0  0
   36.3170   23.5570   32.3050 F   0  0  0  0  0  0  0  0  0  0  0  0
   39.3850   22.8890   37.4850 C   0  0  2  0  0  3  0  0  0  0  0  0
   38.5280   23.3320   36.3540 C   0  0  1  0  0  3  0  0  0  0  0  0
   39.1800   23.5830   35.1720 O   0  0  0  0  0  0  0  0  0  0  0  0
   40.5170   23.8290   35.3630 C   0  0  0  0  0  2  0  0  0  0  0  0
   41.1780   22.5680   35.8640 C   0  0  2  0  0  3  0  0  0  0  0  0
   40.3830   21.8780   36.9510 C   0  0  1  0  0  3  0  0  0  0  0  0
   38.7380   22.5010   38.6270 O   0  0  0  0  0  0  0  0  0  0  0  0
   39.1840   21.7810   39.1300 H   0  0  0  0  0  0  0  0  0  0  0  0
   42.4500   22.8910   36.2800 O   0  0  0  0  0  0  0  0  0  0  0  0
   42.5180   23.0740   37.2660 H   0  0  0  0  0  0  0  0  0  0  0  0
   41.2900   21.6040   38.0000 O   0  0  0  0  0  0  0  0  0  0  0  0
   41.6980   20.7120   37.8520 H   0  0  0  0  0  0  0  0  0  0  0  0
  1  6  2  0  0  0  0
  1  2  1  0  0  0  0
  2  3  2  0  0  0  0
  3  4  1  0  0  0  0
  3  8  1  0  0  0  0
  4  9  1  0  0  0  0
  5  4  2  0  0  0  0
  6  5  1  0  0  0  0
  7  2  1  0  0  0  0
 10 11  1  0  0  0  0
 10 17  1  0  0  0  0
 11  1  1  0  0  0  0
 12 20  1  0  0  0  0
 12 11  2  0  0  0  0
 13 12  1  0  0  0  0
 14 13  2  0  0  0  0
 14 15  1  0  0  0  0
 15 10  2  0  0  0  0
 16 14  1  0  0  0  0
 18 16  1  0  0  0  0
 19 16  1  0  0  0  0
 20 21  1  0  0  0  0
 20 23  1  0  0  0  0
 22 20  1  0  0  0  0
 24 30  1  1  0  0  0
 25  5  1  6  0  0  0
 25 24  1  0  0  0  0
 26 27  1  0  0  0  0
 26 25  1  0  0  0  0
 27 28  1  0  0  0  0
 28 32  1  1  0  0  0
 28 29  1  0  0  0  0
 29 24  1  0  0  0  0
 29 34  1  1  0  0  0
 30 31  1  0  0  0  0
 32 33  1  0  0  0  0
 35 34  1  0  0  0  0
M  END
>  <minimizedAffinity>
-6.32848549

$$$$

 OpenBabel03262520233D

 35 37  0  0  1  0  0  0  0  0999 V2000
   39.5360   25.0720   35.1240 C   0  0  0  0  0  0  0  0  0  0  0  0
   38.7210   25.9070   35.8890 C   0  0  0  0  0  0  0  0  0  0  0  0
   37.9250   26.9000   35.4310 C   0  0  0  0  0  0  0  0  0  0  0  0
   37.8750   27.1530   34.1110 C   0  0  0  0  0  0  0  0  0  0  0  0
   38.6510   26.3640   33.3460 C   0  0  0  0  0  0  0  0  0  0  0  0
   39.3990   25.4180   33.8680 N   0  0  0  0  0  0  0  0  0  0  0  0
   38.6850   25.7820   37.0170 H   0  0  0  0  0  0  0  0  0  0  0  0
   37.3020   27.5190   36.1400 H   0  0  0  0  0  0  0  0  0  0  0  0
   37.2780   27.9210   33.6540 H   0  0  0  0  0  0  0  0  0  0  0  0
   39.4550   23.1660   36.5260 C   0  0  0  0  0  0  0  0  0  0  0  0
   40.3110   24.0210   35.7630 C   0  0  0  0  0  0  0  0  0  0  0  0
   41.6420   23.7050   35.7470 C   0  0  0  0  0  0  0  0  0  0  0  0
   42.0420   22.6000   36.4600 N   0  0  0  0  0  0  0  0  0  0  0  0
   41.2270   21.8150   37.1640 C   0  0  0  0  0  0  0  0  0  0  0  0
   39.9220   22.1200   37.1840 N   0  0  0  0  0  0  0  0  0  0  0  0
   41.8160   20.7190   37.8120 N   0  0  0  0  0  0  0  0  0  0  0  0
   38.3860   23.2950   36.6280 H   0  0  0  0  0  0  0  0  0  0  0  0
   41.5210   19.7330   37.5450 H   0  0  0  0  0  0  0  0  0  0  0  0
   42.5290   20.6670   38.5480 H   0  0  0  0  0  0  0  0  0  0  0  0
   42.5710   24.5430   34.9860 C   0  0  0  0  0  0  0  0  0  0  0  0
   42.4110   24.2800   33.6910 F   0  0  0  0  0  0  0  0  0  0  0  0
   42.4040   25.9030   35.1940 F   0  0  0  0  0  0  0  0  0  0  0  0
   43.9180   24.2570   35.3390 F   0  0  0  0  0  0  0  0  0  0  0  0
   37.6640   25.7580   31.1140 C   0  0  2  0  0  3  0  0  0  0  0  0
   38.8060   26.3800   31.8350 C   0  0  1  0  0  3  0  0  0  0  0  0
   39.1120   27.6680   31.4710 O   0  0  0  0  0  0  0  0  0  0  0  0
   38.6330   27.9800   30.2230 C   0  0  0  0  0  2  0  0  0  0  0  0
   37.1250   27.9790   30.2650 C   0  0  2  0  0  3  0  0  0  0  0  0
   36.5560   26.7900   31.0070 C   0  0  1  0  0  3  0  0  0  0  0  0
   37.2570   24.5290   31.5590 O   0  0  0  0  0  0  0  0  0  0  0  0
   36.2900   24.3590   31.4740 H   0  0  0  0  0  0  0  0  0  0  0  0
   36.6630   28.0500   28.9700 O   0  0  0  0  0  0  0  0  0  0  0  0
   36.4480   27.1530   28.5700 H   0  0  0  0  0  0  0  0  0  0  0  0
   35.5580   26.2360   30.1740 O   0  0  0  0  0  0  0  0  0  0  0  0
   34.6890   26.6680   30.3770 H   0  0  0  0  0  0  0  0  0  0  0  0
  1 11  1  0  0  0  0
  1  2  1  0  0  0  0
  2  7  1  0  0  0  0
  3  2  2  0  0  0  0
  3  8  1  0  0  0  0
  4  3  1  0  0  0  0
  5  6  1  0  0  0  0
  5  4  2  0  0  0  0
  6  1  2  0  0  0  0
  9  4  1  0  0  0  0
 10 17  1  0  0  0  0
 10 15  1  0  0  0  0
 11 10  2  0  0  0  0
 12 11  1  0  0  0  0
 12 13  2  0  0  0  0
 13 14  1  0  0  0  0
 14 15  2  0  0  0  0
 14 16  1  0  0  0  0
 16 19  1  0  0  0  0
 18 16  1  0  0  0  0
 20 22  1  0  0  0  0
 20 23  1  0  0  0  0
 20 12  1  0  0  0  0
 21 20  1  0  0  0  0
 24 30  1  1  0  0  0
 24 25  1  0  0  0  0
 25  5  1  1  0  0  0
 26 25  1  0  0  0  0
 27 28  1  0  0  0  0
 27 26  1  0  0  0  0
 28 32  1  6  0  0  0
 28 29  1  0  0  0  0
 29 34  1  6  0  0  0
 29 24  1  0  0  0  0
 31 30  1  0  0  0  0
 33 32  1  0  0  0  0
 34 35  1  0  0  0  0
M  END
>  <minimizedAffinity>
-6.26679325

$$$$
