
     RDKit          3D

 28 29  0  0  0  0  0  0  0  0999 V2000
   37.2978   29.9913   51.1813 C   0  0  0  0  0  0  0  0  0  0  0  0
   37.9591   30.9216   50.3523 C   0  0  0  0  0  0  0  0  0  0  0  0
   37.2738   31.3882   49.2320 C   0  0  0  0  0  0  0  0  0  0  0  0
   36.0156   30.9284   48.9965 N   0  0  0  0  0  0  0  0  0  0  0  0
   35.4095   30.0298   49.8198 C   0  0  0  0  0  0  0  0  0  0  0  0
   36.0573   29.5760   50.8966 N   0  0  0  0  0  0  0  0  0  0  0  0
   38.0810   29.6086   52.2535 O   0  0  0  0  0  0  0  0  0  0  0  0
   38.9439   31.3122   50.4941 H   0  0  0  0  0  0  0  0  0  0  0  0
   37.7067   32.1026   48.5434 H   0  0  0  0  0  0  0  0  0  0  0  0
   38.9162   29.0663   52.0011 H   0  0  0  0  0  0  0  0  0  0  0  0
   33.2073   27.4874   48.5725 O   0  0  0  0  0  0  0  0  0  0  0  0
   33.9418   28.0678   49.5764 C   0  0  1  0  0  0  0  0  0  0  0  0
   34.0308   29.5714   49.4990 C   0  0  1  0  0  0  0  0  0  0  0  0
   33.1511   30.1985   50.3782 O   0  0  0  0  0  0  0  0  0  0  0  0
   31.9444   29.4640   50.3643 C   0  0  0  0  0  0  0  0  0  0  0  0
   32.1841   28.3374   51.3606 C   0  0  1  0  0  0  0  0  0  0  0  0
   31.0741   27.5668   51.5964 O   0  0  0  0  0  0  0  0  0  0  0  0
   33.3985   27.5926   50.9026 C   0  0  2  0  0  0  0  0  0  0  0  0
   34.4462   27.7588   51.8336 O   0  0  0  0  0  0  0  0  0  0  0  0
   33.6103   27.5841   47.6725 H   0  0  0  0  0  0  0  0  0  0  0  0
   34.9794   27.6736   49.4915 H   0  0  0  0  0  0  0  0  0  0  0  0
   33.7600   29.8949   48.4771 H   0  0  0  0  0  0  0  0  0  0  0  0
   31.6915   29.0801   49.3675 H   0  0  0  0  0  0  0  0  0  0  0  0
   31.0888   30.0714   50.7573 H   0  0  0  0  0  0  0  0  0  0  0  0
   32.4189   28.8714   52.3276 H   0  0  0  0  0  0  0  0  0  0  0  0
   31.1458   26.6370   51.2667 H   0  0  0  0  0  0  0  0  0  0  0  0
   33.2038   26.5043   50.8123 H   0  0  0  0  0  0  0  0  0  0  0  0
   34.9179   26.9235   52.0148 H   0  0  0  0  0  0  0  0  0  0  0  0
  1  7  1  0
  2  1  2  0
  3  2  1  0
  4  3  2  0
  4  5  1  0
  5  6  2  0
  6  1  1  0
  2  8  1  0
  3  9  1  0
  7 10  1  0
 11 12  1  0
 12 13  1  0
 13 14  1  0
 14 15  1  0
 15 16  1  0
 16 17  1  0
 16 18  1  0
 18 19  1  0
 18 12  1  0
 11 20  1  0
 12 21  1  6
 13 22  1  6
 15 23  1  0
 15 24  1  0
 16 25  1  1
 17 26  1  0
 18 27  1  6
 19 28  1  0
  5 13  1  0
M  ISO  3   8  14   9  14  10   3
M  END
>  <DihAtoms>  (1) 
3,4,12,11

>  <DihDeg>  (1) 
-78.24753155161936

$$$$
