
 OpenBabel03272500003D

 32 34  0  0  1  0  0  0  0  0999 V2000
   38.1720   32.0580   46.4360 C   0  0  0  0  0  0  0  0  0  0  0  0
   37.7510   31.6810   45.1410 C   0  0  0  0  0  0  0  0  0  0  0  0
   36.7150   30.7740   45.0740 C   0  0  0  0  0  0  0  0  0  0  0  0
   36.1590   30.2910   46.2200 N   0  0  0  0  0  0  0  0  0  0  0  0
   36.5850   30.6710   47.4340 C   0  0  0  0  0  0  0  0  0  0  0  0
   37.6060   31.5670   47.5370 N   0  0  0  0  0  0  0  0  0  0  0  0
   38.9790   32.7660   46.5820 H   0  0  0  0  0  0  0  0  0  0  0  0
   36.3580   30.4550   44.1280 H   0  0  0  0  0  0  0  0  0  0  0  0
   38.3300   31.1700   49.9750 Br  0  0  0  0  0  0  0  0  0  0  0  0
   36.6480   30.3090   49.8740 C   0  0  0  0  0  0  0  0  0  0  0  0
   36.0010   30.1660   48.6690 C   0  0  0  0  0  0  0  0  0  0  0  0
   34.7710   29.5230   48.6760 C   0  0  0  0  0  0  0  0  0  0  0  0
   34.1700   29.0250   49.8110 C   0  0  0  0  0  0  0  0  0  0  0  0
   34.8520   29.1880   50.9970 C   0  0  0  0  0  0  0  0  0  0  0  0
   36.0940   29.8330   51.0190 C   0  0  0  0  0  0  0  0  0  0  0  0
   34.2060   29.3760   47.7570 H   0  0  0  0  0  0  0  0  0  0  0  0
   33.2160   28.5280   49.8010 H   0  0  0  0  0  0  0  0  0  0  0  0
   34.4690   28.8330   51.9460 H   0  0  0  0  0  0  0  0  0  0  0  0
   36.6070   29.9450   51.9820 H   0  0  0  0  0  0  0  0  0  0  0  0
   38.3790   32.2260   44.0600 O   0  0  0  0  0  0  0  0  0  0  0  0
   39.9420   30.3810   43.7170 C   0  0  1  0  0  3  0  0  0  0  0  0
   39.5860   31.8370   43.5000 C   0  0  1  0  0  3  0  0  0  0  0  0
   39.4970   32.1350   42.1220 O   0  0  0  0  0  0  0  0  0  0  0  0
   38.5350   31.3310   41.5130 C   0  0  0  0  0  2  0  0  0  0  0  0
   39.1950   29.9500   41.4170 C   0  0  1  0  0  3  0  0  0  0  0  0
   39.2230   29.4270   42.8310 C   0  0  1  0  0  3  0  0  0  0  0  0
   41.3220   30.2230   43.4670 O   0  0  0  0  0  0  0  0  0  0  0  0
   41.6310   29.3240   43.7250 H   0  0  0  0  0  0  0  0  0  0  0  0
   38.5410   29.1150   40.5480 O   0  0  0  0  0  0  0  0  0  0  0  0
   38.7960   29.3850   39.6130 H   0  0  0  0  0  0  0  0  0  0  0  0
   39.9310   28.2100   42.8630 O   0  0  0  0  0  0  0  0  0  0  0  0
   39.5380   27.5250   42.2820 H   0  0  0  0  0  0  0  0  0  0  0  0
  1  7  1  0  0  0  0
  1  6  1  0  0  0  0
  2  1  2  0  0  0  0
  3  2  1  0  0  0  0
  3  4  2  0  0  0  0
  4  5  1  0  0  0  0
  5  6  2  0  0  0  0
  5 11  1  0  0  0  0
  8  3  1  0  0  0  0
 10  9  1  0  0  0  0
 10 15  1  0  0  0  0
 11 12  1  0  0  0  0
 11 10  2  0  0  0  0
 12 13  2  0  0  0  0
 13 14  1  0  0  0  0
 14 15  2  0  0  0  0
 14 18  1  0  0  0  0
 15 19  1  0  0  0  0
 16 12  1  0  0  0  0
 17 13  1  0  0  0  0
 20  2  1  0  0  0  0
 21 27  1  6  0  0  0
 22 21  1  0  0  0  0
 22 20  1  1  0  0  0
 23 22  1  0  0  0  0
 24 23  1  0  0  0  0
 25 29  1  6  0  0  0
 25 24  1  0  0  0  0
 25 26  1  0  0  0  0
 26 31  1  6  0  0  0
 26 21  1  0  0  0  0
 27 28  1  0  0  0  0
 30 29  1  0  0  0  0
 32 31  1  0  0  0  0
M  END
>  <minimizedAffinity>
-6.16035604

>  <minimizedRMSD>
4.39118433

$$$$
