
 OpenBabel03272502393D

 43 46  0  0  1  0  0  0  0  0999 V2000
   36.1350   30.0210   46.6910 F   0  0  0  0  0  0  0  0  0  0  0  0
   36.3860   29.8750   48.0010 C   0  0  0  0  0  0  0  0  0  0  0  0
   35.5470   29.3370   48.9430 C   0  0  0  0  0  0  0  0  0  0  0  0
   35.9920   29.2810   50.2750 C   0  0  0  0  0  0  0  0  0  0  0  0
   37.2300   29.7470   50.6490 C   0  0  0  0  0  0  0  0  0  0  0  0
   38.0660   30.2870   49.6670 C   0  0  0  0  0  0  0  0  0  0  0  0
   37.6300   30.3460   48.3320 C   0  0  0  0  0  0  0  0  0  0  0  0
   35.2550   28.8400   50.9320 H   0  0  0  0  0  0  0  0  0  0  0  0
   37.4940   29.6710   51.6800 H   0  0  0  0  0  0  0  0  0  0  0  0
   39.0100   30.6240   50.0550 H   0  0  0  0  0  0  0  0  0  0  0  0
   32.2750   27.8190   48.6770 N   0  0  0  0  0  0  0  0  0  0  0  0
   32.9870   26.9530   47.7510 C   0  0  0  0  0  0  0  0  0  0  0  0
   34.3450   27.5860   47.6660 C   0  0  0  0  0  0  0  0  0  0  0  0
   34.2140   28.9490   48.4810 C   0  0  1  0  0  0  0  0  0  0  0  0
   33.2640   28.5370   49.5130 C   0  0  0  0  0  0  0  0  0  0  0  0
   32.5280   26.9110   46.7560 H   0  0  0  0  0  0  0  0  0  0  0  0
   33.1060   25.9290   48.1690 H   0  0  0  0  0  0  0  0  0  0  0  0
   35.1270   27.0330   48.1890 H   0  0  0  0  0  0  0  0  0  0  0  0
   34.6820   27.8730   46.6760 H   0  0  0  0  0  0  0  0  0  0  0  0
   33.8370   29.6310   47.7040 H   0  0  0  0  0  0  0  0  0  0  0  0
   32.7970   29.4450   49.9490 H   0  0  0  0  0  0  0  0  0  0  0  0
   33.6640   27.8670   50.2850 H   0  0  0  0  0  0  0  0  0  0  0  0
   30.8820   27.9940   48.7940 C   0  0  0  0  0  0  0  0  0  0  0  0
   30.2030   28.2390   47.5890 C   0  0  0  0  0  0  0  0  0  0  0  0
   28.8130   28.4370   47.6110 C   0  0  0  0  0  0  0  0  0  0  0  0
   28.2160   28.3700   48.8570 N   0  0  0  0  0  0  0  0  0  0  0  0
   28.8930   28.1340   49.9820 C   0  0  0  0  0  0  0  0  0  0  0  0
   30.2270   27.9480   49.9340 N   0  0  0  0  0  0  0  0  0  0  0  0
   30.6640   28.2910   46.6200 H   0  0  0  0  0  0  0  0  0  0  0  0
   28.2290   28.6300   46.7210 H   0  0  0  0  0  0  0  0  0  0  0  0
   28.3400   28.1000   50.9100 H   0  0  0  0  0  0  0  0  0  0  0  0
   38.0700   32.2710   46.8280 C   0  0  2  0  0  3  0  0  0  0  0  0
   38.5870   30.9440   47.3460 C   0  0  2  0  0  3  0  0  0  0  0  0
   38.8600   30.1230   46.2760 O   0  0  0  0  0  0  0  0  0  0  0  0
   38.2990   30.5810   45.0970 C   0  0  0  0  0  2  0  0  0  0  0  0
   38.9630   31.8480   44.6160 C   0  0  1  0  0  3  0  0  0  0  0  0
   38.9950   32.8240   45.7630 C   0  0  2  0  0  3  0  0  0  0  0  0
   38.1380   33.1460   47.9240 O   0  0  0  0  0  0  0  0  0  0  0  0
   37.5680   33.9420   47.7990 H   0  0  0  0  0  0  0  0  0  0  0  0
   40.2280   31.6100   44.0890 O   0  0  0  0  0  0  0  0  0  0  0  0
   40.0710   31.2640   43.1540 H   0  0  0  0  0  0  0  0  0  0  0  0
   40.2880   32.9870   46.2660 O   0  0  0  0  0  0  0  0  0  0  0  0
   40.9500   32.6450   45.6200 H   0  0  0  0  0  0  0  0  0  0  0  0
  1  2  1  0  0  0  0
  2  7  2  0  0  0  0
  2  3  1  0  0  0  0
  3  4  2  0  0  0  0
  4  5  1  0  0  0  0
  4  8  1  0  0  0  0
  5  9  1  0  0  0  0
  6 10  1  0  0  0  0
  6  5  2  0  0  0  0
  7  6  1  0  0  0  0
 11 23  1  0  0  0  0
 11 15  1  0  0  0  0
 12 17  1  0  0  0  0
 12 11  1  0  0  0  0
 13 12  1  0  0  0  0
 13 18  1  0  0  0  0
 13 14  1  0  0  0  0
 14 20  1  6  0  0  0
 14  3  1  0  0  0  0
 14 15  1  0  0  0  0
 15 21  1  0  0  0  0
 15 22  1  0  0  0  0
 16 12  1  0  0  0  0
 19 13  1  0  0  0  0
 23 28  1  0  0  0  0
 24 25  1  0  0  0  0
 24 23  2  0  0  0  0
 25 26  2  0  0  0  0
 26 27  1  0  0  0  0
 27 31  1  0  0  0  0
 28 27  2  0  0  0  0
 29 24  1  0  0  0  0
 30 25  1  0  0  0  0
 32 33  1  0  0  0  0
 32 38  1  1  0  0  0
 33  7  1  1  0  0  0
 34 33  1  0  0  0  0
 35 34  1  0  0  0  0
 36 40  1  1  0  0  0
 36 35  1  0  0  0  0
 36 37  1  0  0  0  0
 37 42  1  1  0  0  0
 37 32  1  0  0  0  0
 39 38  1  0  0  0  0
 41 40  1  0  0  0  0
 43 42  1  0  0  0  0
M  END
>  <minimizedAffinity>
-7.22415543

>  <minimizedRMSD>
3.74068999

$$$$
