
     RDKit          3D

 51 54  0  0  0  0  0  0  0  0999 V2000
   34.9972   28.3856   49.4599 C   0  0  0  0  0  0  0  0  0  0  0  0
   34.2831   28.7686   48.4310 C   0  0  0  0  0  0  0  0  0  0  0  0
   37.3911   30.1631   51.5741 C   0  0  0  0  0  0  0  0  0  0  0  0
   38.0904   30.9306   50.6200 C   0  0  0  0  0  0  0  0  0  0  0  0
   37.7222   30.8189   49.2717 C   0  0  0  0  0  0  0  0  0  0  0  0
   36.6941   29.9638   48.9445 N   0  0  0  0  0  0  0  0  0  0  0  0
   36.0648   29.2542   49.9228 C   0  0  0  0  0  0  0  0  0  0  0  0
   36.4057   29.3531   51.2001 N   0  0  0  0  0  0  0  0  0  0  0  0
   38.3794   31.5681   48.1997 C   0  0  0  0  0  0  0  0  0  0  0  0
   38.5893   31.0442   46.9484 C   0  0  0  0  0  0  0  0  0  0  0  0
   39.2317   32.0169   46.1865 C   0  0  0  0  0  0  0  0  0  0  0  0
   39.3856   33.0901   47.0050 N   0  0  0  0  0  0  0  0  0  0  0  0
   38.8759   32.8137   48.1992 N   0  0  0  0  0  0  0  0  0  0  0  0
   33.1633   28.0399   47.8092 C   0  0  0  0  0  0  0  0  0  0  0  0
   33.5981   26.9466   46.9124 C   0  0  0  0  0  0  0  0  0  0  0  0
   33.7854   25.6297   47.3232 C   0  0  0  0  0  0  0  0  0  0  0  0
   34.1929   24.6563   46.4365 C   0  0  0  0  0  0  0  0  0  0  0  0
   34.4312   24.9463   45.1086 C   0  0  0  0  0  0  0  0  0  0  0  0
   34.2510   26.2246   44.7025 C   0  0  0  0  0  0  0  0  0  0  0  0
   33.8427   27.2278   45.5649 C   0  0  0  0  0  0  0  0  0  0  0  0
   34.7261   27.4137   49.9032 H   0  0  0  0  0  0  0  0  0  0  0  0
   34.5546   29.7246   48.0001 H   0  0  0  0  0  0  0  0  0  0  0  0
   37.6656   30.2425   52.6038 H   0  0  0  0  0  0  0  0  0  0  0  0
   38.8953   31.5999   50.8768 H   0  0  0  0  0  0  0  0  0  0  0  0
   38.3242   30.0739   46.5847 H   0  0  0  0  0  0  0  0  0  0  0  0
   39.5595   31.9742   45.1559 H   0  0  0  0  0  0  0  0  0  0  0  0
   39.8288   34.0293   46.7989 H   0  0  0  0  0  0  0  0  0  0  0  0
   32.4386   28.7350   47.3563 H   0  0  0  0  0  0  0  0  0  0  0  0
   32.5809   27.5279   48.6299 H   0  0  0  0  0  0  0  0  0  0  0  0
   33.5789   25.4843   48.3743 H   0  0  0  0  0  0  0  0  0  0  0  0
   34.3008   23.6770   46.8808 H   0  0  0  0  0  0  0  0  0  0  0  0
   34.7481   24.1573   44.4489 H   0  0  0  0  0  0  0  0  0  0  0  0
   34.4468   26.4246   43.6475 H   0  0  0  0  0  0  0  0  0  0  0  0
   31.3087   28.6961   44.8098 O   0  0  0  0  0  0  0  0  0  0  0  0
   32.4274   29.2826   45.3968 C   0  0  1  0  0  0  0  0  0  0  0  0
   33.6850   28.5858   44.9822 C   0  0  2  0  0  0  0  0  0  0  0  0
   33.6421   28.4771   43.5832 O   0  0  0  0  0  0  0  0  0  0  0  0
   33.7771   29.7341   43.0005 C   0  0  0  0  0  0  0  0  0  0  0  0
   32.6105   30.6059   43.3650 C   0  0  2  0  0  0  0  0  0  0  0  0
   32.7065   31.8283   42.7343 O   0  0  0  0  0  0  0  0  0  0  0  0
   32.5384   30.7078   44.8696 C   0  0  2  0  0  0  0  0  0  0  0  0
   33.6972   31.2548   45.4052 O   0  0  0  0  0  0  0  0  0  0  0  0
   31.4560   28.3241   43.9224 H   0  0  0  0  0  0  0  0  0  0  0  0
   32.2486   29.2425   46.4879 H   0  0  0  0  0  0  0  0  0  0  0  0
   34.5612   29.2345   45.1902 H   0  0  0  0  0  0  0  0  0  0  0  0
   34.7006   30.2151   43.3966 H   0  0  0  0  0  0  0  0  0  0  0  0
   33.8560   29.5549   41.9096 H   0  0  0  0  0  0  0  0  0  0  0  0
   31.6616   30.1455   43.0188 H   0  0  0  0  0  0  0  0  0  0  0  0
   32.3495   32.5961   43.2319 H   0  0  0  0  0  0  0  0  0  0  0  0
   31.6417   31.2931   45.1409 H   0  0  0  0  0  0  0  0  0  0  0  0
   33.6472   32.2401   45.5144 H   0  0  0  0  0  0  0  0  0  0  0  0
  1  7  1  0
  2  1  2  0
  4  3  2  0
  5  4  1  0
  6  5  2  0
  6  7  1  0
  7  8  2  0
  8  3  1  0
  9  5  1  0
 10  9  1  0
 11 10  2  0
 11 12  1  0
 12 13  1  0
 13  9  2  0
 14  2  1  0
 15 16  2  0
 15 14  1  0
 17 16  1  0
 18 17  2  0
 19 18  1  0
 19 20  2  0
 20 15  1  0
  1 21  1  0
  2 22  1  0
  3 23  1  0
  4 24  1  0
 10 25  1  0
 11 26  1  0
 12 27  1  0
 14 28  1  0
 14 29  1  0
 16 30  1  0
 17 31  1  0
 18 32  1  0
 19 33  1  0
 34 35  1  0
 35 36  1  0
 36 37  1  0
 37 38  1  0
 38 39  1  0
 39 40  1  0
 39 41  1  0
 41 42  1  0
 41 35  1  0
 34 43  1  0
 35 44  1  1
 36 45  1  6
 38 46  1  0
 38 47  1  0
 39 48  1  6
 40 49  1  0
 41 50  1  6
 42 51  1  0
 20 36  1  0
M  ISO  8  23  14  24  14  25  14  26  14  27   9  28   8  29   8  30  14
M  ISO  3  31  14  32  14  33  14
M  END
>  <DihAtoms>  (1) 
18,19,35,34

>  <DihDeg>  (1) 
89.81311418152589

$$$$
