
 OpenBabel03262520413D

 49 52  0  0  1  0  0  0  0  0999 V2000
   38.9450   25.7670   34.3310 C   0  0  2  0  0  0  0  0  0  0  0  0
   38.4820   26.9490   35.1160 C   0  0  0  0  0  0  0  0  0  0  0  0
   37.0230   27.3050   34.8470 C   0  0  0  0  0  0  0  0  0  0  0  0
   36.8250   27.6170   33.3850 C   0  0  0  0  0  0  0  0  0  0  0  0
   37.5130   26.6380   32.4660 C   0  0  0  0  0  0  0  0  0  0  0  0
   37.9660   25.4060   33.2270 C   0  0  1  0  0  0  0  0  0  0  0  0
   39.9100   25.9930   33.7960 H   0  0  0  0  0  0  0  0  0  0  0  0
   38.6040   27.0320   36.1550 H   0  0  0  0  0  0  0  0  0  0  0  0
   39.0340   27.8680   34.6820 H   0  0  0  0  0  0  0  0  0  0  0  0
   36.8130   28.2120   35.4340 H   0  0  0  0  0  0  0  0  0  0  0  0
   36.3890   26.4590   35.1420 H   0  0  0  0  0  0  0  0  0  0  0  0
   37.2230   28.6600   33.2260 H   0  0  0  0  0  0  0  0  0  0  0  0
   35.7370   27.6850   33.1790 H   0  0  0  0  0  0  0  0  0  0  0  0
   36.7890   26.3270   31.7090 H   0  0  0  0  0  0  0  0  0  0  0  0
   38.4050   27.1490   32.0390 H   0  0  0  0  0  0  0  0  0  0  0  0
   37.0550   25.1160   33.7840 H   0  0  0  0  0  0  0  0  0  0  0  0
   38.5050   24.4470   32.3470 N   0  0  2  0  0  0  0  0  0  0  0  0
   39.1360   25.0050   31.1620 C   0  0  0  0  0  0  0  0  0  0  0  0
   39.4460   23.7570   30.3420 C   0  0  0  0  0  0  0  0  0  0  0  0
   38.6250   22.6630   30.9660 C   0  0  0  0  0  0  0  0  0  0  0  0
   37.6420   23.4870   31.7850 C   0  0  1  0  0  0  0  0  0  0  0  0
   40.0180   25.6140   31.3580 H   0  0  0  0  0  0  0  0  0  0  0  0
   38.3770   25.5820   30.5690 H   0  0  0  0  0  0  0  0  0  0  0  0
   39.2360   23.9470   29.2740 H   0  0  0  0  0  0  0  0  0  0  0  0
   40.5560   23.5930   30.4620 H   0  0  0  0  0  0  0  0  0  0  0  0
   39.2950   22.0470   31.5820 H   0  0  0  0  0  0  0  0  0  0  0  0
   38.1610   22.1490   30.1060 H   0  0  0  0  0  0  0  0  0  0  0  0
   37.0860   24.0620   30.9570 H   0  0  0  0  0  0  0  0  0  0  0  0
   37.1240   21.4590   33.2150 C   0  0  1  0  0  3  0  0  0  0  0  0
   36.6890   22.7270   32.5790 C   0  0  2  0  0  3  0  0  0  0  0  0
   35.4840   22.6340   31.8990 O   0  0  0  0  0  0  0  0  0  0  0  0
   35.4470   21.4220   31.2290 C   0  0  0  0  0  2  0  0  0  0  0  0
   34.9900   20.4480   32.3220 C   0  0  2  0  0  3  0  0  0  0  0  0
   36.0340   20.4340   33.4020 C   0  0  2  0  0  3  0  0  0  0  0  0
   38.1590   20.7780   32.5660 O   0  0  0  0  0  0  0  0  0  0  0  0
   38.7580   20.2940   33.1650 H   0  0  0  0  0  0  0  0  0  0  0  0
   34.7280   19.1930   31.7840 O   0  0  0  0  0  0  0  0  0  0  0  0
   35.5440   18.6990   31.5260 H   0  0  0  0  0  0  0  0  0  0  0  0
   35.3630   20.5690   34.6200 O   0  0  0  0  0  0  0  0  0  0  0  0
   36.0510   20.4850   35.3300 H   0  0  0  0  0  0  0  0  0  0  0  0
   39.1260   24.5520   35.1630 C   0  0  0  0  0  0  0  0  0  0  0  0
   40.4680   24.1400   35.3060 C   0  0  0  0  0  0  0  0  0  0  0  0
   40.7000   23.0420   36.1010 C   0  0  0  0  0  0  0  0  0  0  0  0
   39.6520   22.4060   36.7090 N   0  0  0  0  0  0  0  0  0  0  0  0
   38.3710   22.8260   36.5520 C   0  0  0  0  0  0  0  0  0  0  0  0
   38.1380   23.8840   35.7850 N   0  0  0  0  0  0  0  0  0  0  0  0
   41.4240   24.4480   34.9560 H   0  0  0  0  0  0  0  0  0  0  0  0
   41.6020   22.5330   36.3730 H   0  0  0  0  0  0  0  0  0  0  0  0
   37.5370   22.3290   37.0280 H   0  0  0  0  0  0  0  0  0  0  0  0
  1  7  1  6  0  0  0
  1  2  1  0  0  0  0
  1 41  1  0  0  0  0
  2  8  1  0  0  0  0
  3  2  1  0  0  0  0
  3 11  1  0  0  0  0
  3 10  1  0  0  0  0
  4  3  1  0  0  0  0
  5  6  1  0  0  0  0
  5  4  1  0  0  0  0
  6 16  1  1  0  0  0
  6  1  1  0  0  0  0
  9  2  1  0  0  0  0
 12  4  1  0  0  0  0
 13  4  1  0  0  0  0
 14  5  1  0  0  0  0
 15  5  1  0  0  0  0
 17 18  1  6  0  0  0
 17  6  1  0  0  0  0
 18 22  1  0  0  0  0
 19 25  1  0  0  0  0
 19 20  1  0  0  0  0
 19 18  1  0  0  0  0
 20 26  1  0  0  0  0
 20 21  1  0  0  0  0
 21 28  1  6  0  0  0
 21 17  1  0  0  0  0
 21 30  1  0  0  0  0
 23 18  1  0  0  0  0
 24 19  1  0  0  0  0
 27 20  1  0  0  0  0
 29 35  1  6  0  0  0
 29 34  1  0  0  0  0
 30 31  1  6  0  0  0
 30 29  1  0  0  0  0
 32 31  1  0  0  0  0
 32 33  1  0  0  0  0
 33 37  1  6  0  0  0
 33 34  1  0  0  0  0
 34 39  1  1  0  0  0
 35 36  1  0  0  0  0
 38 37  1  0  0  0  0
 39 40  1  0  0  0  0
 41 42  2  0  0  0  0
 41 46  1  0  0  0  0
 42 43  1  0  0  0  0
 43 48  1  0  0  0  0
 43 44  2  0  0  0  0
 45 44  1  0  0  0  0
 45 49  1  0  0  0  0
 46 45  2  0  0  0  0
 47 42  1  0  0  0  0
M  END
>  <minimizedAffinity>
-6.16203642

$$$$

 OpenBabel03262520413D

 49 52  0  0  1  0  0  0  0  0999 V2000
   36.8540   25.7600   31.5550 C   0  0  2  0  0  0  0  0  0  0  0  0
   35.5920   25.3500   30.8700 C   0  0  0  0  0  0  0  0  0  0  0  0
   35.0780   23.9910   31.3380 C   0  0  0  0  0  0  0  0  0  0  0  0
   36.1120   22.9250   31.0750 C   0  0  0  0  0  0  0  0  0  0  0  0
   37.5110   23.3420   31.4590 C   0  0  0  0  0  0  0  0  0  0  0  0
   37.4890   24.6010   32.3050 C   0  0  1  0  0  0  0  0  0  0  0  0
   37.6320   26.0790   30.8060 H   0  0  0  0  0  0  0  0  0  0  0  0
   34.7450   25.9650   30.8110 H   0  0  0  0  0  0  0  0  0  0  0  0
   35.8730   25.1300   29.7700 H   0  0  0  0  0  0  0  0  0  0  0  0
   34.1840   23.7750   30.7330 H   0  0  0  0  0  0  0  0  0  0  0  0
   34.8550   24.0450   32.4110 H   0  0  0  0  0  0  0  0  0  0  0  0
   36.0540   22.6910   29.9740 H   0  0  0  0  0  0  0  0  0  0  0  0
   35.8010   21.9920   31.5890 H   0  0  0  0  0  0  0  0  0  0  0  0
   37.9460   22.5350   32.0530 H   0  0  0  0  0  0  0  0  0  0  0  0
   38.0700   23.5450   30.5170 H   0  0  0  0  0  0  0  0  0  0  0  0
   36.7380   24.3600   33.0800 H   0  0  0  0  0  0  0  0  0  0  0  0
   38.7860   24.9210   32.7540 N   0  0  2  0  0  0  0  0  0  0  0  0
   39.7200   25.2730   31.6970 C   0  0  0  0  0  0  0  0  0  0  0  0
   41.0390   25.3810   32.4540 C   0  0  0  0  0  0  0  0  0  0  0  0
   40.7890   24.7130   33.7780 C   0  0  0  0  0  0  0  0  0  0  0  0
   39.5130   23.9450   33.4640 C   0  0  1  0  0  0  0  0  0  0  0  0
   39.4680   26.1810   31.1500 H   0  0  0  0  0  0  0  0  0  0  0  0
   39.8370   24.4050   30.9950 H   0  0  0  0  0  0  0  0  0  0  0  0
   41.8540   24.9370   31.8540 H   0  0  0  0  0  0  0  0  0  0  0  0
   41.2330   26.4880   32.5530 H   0  0  0  0  0  0  0  0  0  0  0  0
   40.6490   25.5000   34.5310 H   0  0  0  0  0  0  0  0  0  0  0  0
   41.6700   24.0630   33.9230 H   0  0  0  0  0  0  0  0  0  0  0  0
   39.8800   23.2220   32.6480 H   0  0  0  0  0  0  0  0  0  0  0  0
   38.2020   23.9120   35.6330 C   0  0  1  0  0  3  0  0  0  0  0  0
   38.9420   23.1910   34.5680 C   0  0  2  0  0  3  0  0  0  0  0  0
   39.8770   22.2840   35.0450 O   0  0  0  0  0  0  0  0  0  0  0  0
   40.5160   22.8410   36.1400 C   0  0  0  0  0  2  0  0  0  0  0  0
   39.5390   22.5490   37.2850 C   0  0  2  0  0  3  0  0  0  0  0  0
   38.2490   23.2620   36.9930 C   0  0  2  0  0  3  0  0  0  0  0  0
   38.5870   25.2390   35.8480 O   0  0  0  0  0  0  0  0  0  0  0  0
   37.8590   25.8280   36.1220 H   0  0  0  0  0  0  0  0  0  0  0  0
   40.0990   22.8900   38.5100 O   0  0  0  0  0  0  0  0  0  0  0  0
   40.1560   23.8650   38.6570 H   0  0  0  0  0  0  0  0  0  0  0  0
   37.2180   22.3400   37.1920 O   0  0  0  0  0  0  0  0  0  0  0  0
   36.3690   22.8390   37.0700 H   0  0  0  0  0  0  0  0  0  0  0  0
   36.6520   26.8510   32.5380 C   0  0  0  0  0  0  0  0  0  0  0  0
   36.0080   27.9930   32.0160 C   0  0  0  0  0  0  0  0  0  0  0  0
   35.7570   29.0230   32.8920 C   0  0  0  0  0  0  0  0  0  0  0  0
   36.1290   28.9070   34.2050 N   0  0  0  0  0  0  0  0  0  0  0  0
   36.7470   27.7960   34.6780 C   0  0  0  0  0  0  0  0  0  0  0  0
   36.9940   26.7980   33.8380 N   0  0  0  0  0  0  0  0  0  0  0  0
   35.6310   28.3190   31.0750 H   0  0  0  0  0  0  0  0  0  0  0  0
   35.2920   29.9780   32.7600 H   0  0  0  0  0  0  0  0  0  0  0  0
   37.0450   27.6960   35.7120 H   0  0  0  0  0  0  0  0  0  0  0  0
  1  7  1  6  0  0  0
  1  6  1  0  0  0  0
  1 41  1  0  0  0  0
  2  3  1  0  0  0  0
  2  1  1  0  0  0  0
  3 11  1  0  0  0  0
  4  3  1  0  0  0  0
  4  5  1  0  0  0  0
  4 13  1  0  0  0  0
  5 14  1  0  0  0  0
  5  6  1  0  0  0  0
  6 17  1  0  0  0  0
  6 16  1  1  0  0  0
  8  2  1  0  0  0  0
  9  2  1  0  0  0  0
 10  3  1  0  0  0  0
 12  4  1  0  0  0  0
 15  5  1  0  0  0  0
 17 18  1  6  0  0  0
 17 21  1  0  0  0  0
 18 19  1  0  0  0  0
 19 25  1  0  0  0  0
 19 20  1  0  0  0  0
 20 27  1  0  0  0  0
 20 26  1  0  0  0  0
 21 28  1  6  0  0  0
 21 20  1  0  0  0  0
 21 30  1  0  0  0  0
 22 18  1  0  0  0  0
 23 18  1  0  0  0  0
 24 19  1  0  0  0  0
 29 35  1  1  0  0  0
 29 34  1  0  0  0  0
 30 31  1  1  0  0  0
 30 29  1  0  0  0  0
 31 32  1  0  0  0  0
 32 33  1  0  0  0  0
 33 37  1  1  0  0  0
 34 39  1  6  0  0  0
 34 33  1  0  0  0  0
 35 36  1  0  0  0  0
 37 38  1  0  0  0  0
 40 39  1  0  0  0  0
 41 46  1  0  0  0  0
 42 41  2  0  0  0  0
 42 43  1  0  0  0  0
 43 44  2  0  0  0  0
 44 45  1  0  0  0  0
 45 49  1  0  0  0  0
 46 45  2  0  0  0  0
 47 42  1  0  0  0  0
 48 43  1  0  0  0  0
M  END
>  <minimizedAffinity>
-6.05394936

$$$$

 OpenBabel03262520413D

 49 52  0  0  1  0  0  0  0  0999 V2000
   39.1090   24.9100   30.4570 C   0  0  2  0  0  0  0  0  0  0  0  0
   39.2720   23.9640   29.3130 C   0  0  0  0  0  0  0  0  0  0  0  0
   39.6700   22.5590   29.7580 C   0  0  0  0  0  0  0  0  0  0  0  0
   40.9760   22.6020   30.5100 C   0  0  0  0  0  0  0  0  0  0  0  0
   41.0530   23.7280   31.5120 C   0  0  0  0  0  0  0  0  0  0  0  0
   39.6850   24.3420   31.7430 C   0  0  1  0  0  0  0  0  0  0  0  0
   39.6870   25.8590   30.2770 H   0  0  0  0  0  0  0  0  0  0  0  0
   38.5430   23.8270   28.5720 H   0  0  0  0  0  0  0  0  0  0  0  0
   40.2150   24.3050   28.7370 H   0  0  0  0  0  0  0  0  0  0  0  0
   39.8100   21.9720   28.8380 H   0  0  0  0  0  0  0  0  0  0  0  0
   38.8780   22.1510   30.3990 H   0  0  0  0  0  0  0  0  0  0  0  0
   41.7870   22.7040   29.7340 H   0  0  0  0  0  0  0  0  0  0  0  0
   41.1480   21.6130   30.9840 H   0  0  0  0  0  0  0  0  0  0  0  0
   41.4050   23.3080   32.4570 H   0  0  0  0  0  0  0  0  0  0  0  0
   41.7340   24.5030   31.0940 H   0  0  0  0  0  0  0  0  0  0  0  0
   39.0500   23.4570   31.9340 H   0  0  0  0  0  0  0  0  0  0  0  0
   39.7410   25.3160   32.7600 N   0  0  2  0  0  0  0  0  0  0  0  0
   40.7230   26.3640   32.5380 C   0  0  0  0  0  0  0  0  0  0  0  0
   40.6790   27.1340   33.8530 C   0  0  0  0  0  0  0  0  0  0  0  0
   39.9650   26.2270   34.8160 C   0  0  0  0  0  0  0  0  0  0  0  0
   40.0570   24.9030   34.0700 C   0  0  1  0  0  0  0  0  0  0  0  0
   40.5290   26.9930   31.6700 H   0  0  0  0  0  0  0  0  0  0  0  0
   41.7490   25.9120   32.4800 H   0  0  0  0  0  0  0  0  0  0  0  0
   41.7030   27.4210   34.1550 H   0  0  0  0  0  0  0  0  0  0  0  0
   40.0980   28.0740   33.6250 H   0  0  0  0  0  0  0  0  0  0  0  0
   38.9350   26.5940   34.9240 H   0  0  0  0  0  0  0  0  0  0  0  0
   40.5830   26.2620   35.7300 H   0  0  0  0  0  0  0  0  0  0  0  0
   41.1950   24.7380   34.0440 H   0  0  0  0  0  0  0  0  0  0  0  0
   38.1900   23.9960   35.5250 C   0  0  1  0  0  3  0  0  0  0  0  0
   39.4110   23.7700   34.7130 C   0  0  2  0  0  3  0  0  0  0  0  0
   40.3660   22.9820   35.3370 O   0  0  0  0  0  0  0  0  0  0  0  0
   40.4250   23.3340   36.6760 C   0  0  0  0  0  2  0  0  0  0  0  0
   39.2640   22.5380   37.2830 C   0  0  2  0  0  3  0  0  0  0  0  0
   37.9870   23.0190   36.6550 C   0  0  2  0  0  3  0  0  0  0  0  0
   38.0750   25.2610   36.1090 O   0  0  0  0  0  0  0  0  0  0  0  0
   37.1580   25.5860   36.1860 H   0  0  0  0  0  0  0  0  0  0  0  0
   39.2740   22.6340   38.6700 O   0  0  0  0  0  0  0  0  0  0  0  0
   38.9900   23.5200   39.0030 H   0  0  0  0  0  0  0  0  0  0  0  0
   37.2670   21.8840   36.2720 O   0  0  0  0  0  0  0  0  0  0  0  0
   36.3960   22.2090   35.9270 H   0  0  0  0  0  0  0  0  0  0  0  0
   37.6920   25.2500   30.7300 C   0  0  0  0  0  0  0  0  0  0  0  0
   36.8420   24.1320   30.8740 C   0  0  0  0  0  0  0  0  0  0  0  0
   35.5240   24.3870   31.1700 C   0  0  0  0  0  0  0  0  0  0  0  0
   35.0930   25.6780   31.3120 N   0  0  0  0  0  0  0  0  0  0  0  0
   35.9340   26.7330   31.1680 C   0  0  0  0  0  0  0  0  0  0  0  0
   37.2090   26.4960   30.8810 N   0  0  0  0  0  0  0  0  0  0  0  0
   36.9240   23.0730   30.8170 H   0  0  0  0  0  0  0  0  0  0  0  0
   34.6870   23.7370   31.3280 H   0  0  0  0  0  0  0  0  0  0  0  0
   35.6030   27.7560   31.2770 H   0  0  0  0  0  0  0  0  0  0  0  0
  1  7  1  6  0  0  0
  1 41  1  0  0  0  0
  1  6  1  0  0  0  0
  2  3  1  0  0  0  0
  2  1  1  0  0  0  0
  3 11  1  0  0  0  0
  3  4  1  0  0  0  0
  4 13  1  0  0  0  0
  4  5  1  0  0  0  0
  5  6  1  0  0  0  0
  5 14  1  0  0  0  0
  6 16  1  1  0  0  0
  6 17  1  0  0  0  0
  8  2  1  0  0  0  0
  9  2  1  0  0  0  0
 10  3  1  0  0  0  0
 12  4  1  0  0  0  0
 15  5  1  0  0  0  0
 17 18  1  6  0  0  0
 17 21  1  0  0  0  0
 18 19  1  0  0  0  0
 19 24  1  0  0  0  0
 19 20  1  0  0  0  0
 20 26  1  0  0  0  0
 20 27  1  0  0  0  0
 21 28  1  6  0  0  0
 21 30  1  0  0  0  0
 21 20  1  0  0  0  0
 22 18  1  0  0  0  0
 23 18  1  0  0  0  0
 25 19  1  0  0  0  0
 29 35  1  1  0  0  0
 29 34  1  0  0  0  0
 30 31  1  1  0  0  0
 30 29  1  0  0  0  0
 31 32  1  0  0  0  0
 32 33  1  0  0  0  0
 33 37  1  1  0  0  0
 34 39  1  6  0  0  0
 34 33  1  0  0  0  0
 35 36  1  0  0  0  0
 37 38  1  0  0  0  0
 40 39  1  0  0  0  0
 41 42  2  0  0  0  0
 41 46  1  0  0  0  0
 42 43  1  0  0  0  0
 43 44  2  0  0  0  0
 43 48  1  0  0  0  0
 45 49  1  0  0  0  0
 45 44  1  0  0  0  0
 46 45  2  0  0  0  0
 47 42  1  0  0  0  0
M  END
>  <minimizedAffinity>
-5.71228504

$$$$

 OpenBabel03262520413D

 49 52  0  0  1  0  0  0  0  0999 V2000
   39.7810   23.0800   33.8970 C   0  0  2  0  0  0  0  0  0  0  0  0
   41.2200   23.4210   34.0990 C   0  0  0  0  0  0  0  0  0  0  0  0
   41.6540   24.6550   33.3130 C   0  0  0  0  0  0  0  0  0  0  0  0
   41.4350   24.4340   31.8370 C   0  0  0  0  0  0  0  0  0  0  0  0
   40.1020   23.8030   31.5180 C   0  0  0  0  0  0  0  0  0  0  0  0
   39.1830   23.8370   32.7240 C   0  0  1  0  0  0  0  0  0  0  0  0
   39.6600   21.9930   33.6300 H   0  0  0  0  0  0  0  0  0  0  0  0
   41.6580   23.5240   35.0470 H   0  0  0  0  0  0  0  0  0  0  0  0
   41.8310   22.5850   33.5830 H   0  0  0  0  0  0  0  0  0  0  0  0
   42.7320   24.7760   33.4970 H   0  0  0  0  0  0  0  0  0  0  0  0
   41.0700   25.5190   33.6560 H   0  0  0  0  0  0  0  0  0  0  0  0
   42.2820   23.7780   31.4850 H   0  0  0  0  0  0  0  0  0  0  0  0
   41.5740   25.4000   31.3080 H   0  0  0  0  0  0  0  0  0  0  0  0
   39.6420   24.3860   30.7170 H   0  0  0  0  0  0  0  0  0  0  0  0
   40.2930   22.7430   31.2360 H   0  0  0  0  0  0  0  0  0  0  0  0
   39.2460   24.8930   33.0470 H   0  0  0  0  0  0  0  0  0  0  0  0
   37.9040   23.3500   32.3890 N   0  0  2  0  0  0  0  0  0  0  0  0
   37.9110   22.2040   31.4940 C   0  0  0  0  0  0  0  0  0  0  0  0
   36.4290   22.0310   31.1780 C   0  0  0  0  0  0  0  0  0  0  0  0
   35.7810   23.3160   31.6150 C   0  0  0  0  0  0  0  0  0  0  0  0
   37.0030   24.2150   31.7370 C   0  0  1  0  0  0  0  0  0  0  0  0
   38.3650   21.3050   31.9090 H   0  0  0  0  0  0  0  0  0  0  0  0
   38.4020   22.4870   30.5250 H   0  0  0  0  0  0  0  0  0  0  0  0
   36.3000   21.7830   30.1090 H   0  0  0  0  0  0  0  0  0  0  0  0
   36.0980   21.1440   31.7920 H   0  0  0  0  0  0  0  0  0  0  0  0
   35.2800   23.1310   32.5760 H   0  0  0  0  0  0  0  0  0  0  0  0
   35.1180   23.5840   30.7740 H   0  0  0  0  0  0  0  0  0  0  0  0
   37.3760   24.2370   30.6480 H   0  0  0  0  0  0  0  0  0  0  0  0
   35.6760   26.3660   31.5430 C   0  0  1  0  0  3  0  0  0  0  0  0
   36.7460   25.5710   32.1950 C   0  0  2  0  0  3  0  0  0  0  0  0
   37.9460   26.2500   32.3380 O   0  0  0  0  0  0  0  0  0  0  0  0
   38.1740   26.9940   31.1920 C   0  0  0  0  0  2  0  0  0  0  0  0
   37.3430   28.2580   31.4410 C   0  0  2  0  0  3  0  0  0  0  0  0
   35.8990   27.8570   31.5450 C   0  0  2  0  0  3  0  0  0  0  0  0
   35.4020   26.0380   30.2120 O   0  0  0  0  0  0  0  0  0  0  0  0
   34.4670   26.1490   29.9560 H   0  0  0  0  0  0  0  0  0  0  0  0
   37.5880   29.2090   30.4570 O   0  0  0  0  0  0  0  0  0  0  0  0
   37.1860   28.9810   29.5830 H   0  0  0  0  0  0  0  0  0  0  0  0
   35.3820   28.4840   32.6820 O   0  0  0  0  0  0  0  0  0  0  0  0
   34.4130   28.2740   32.7010 H   0  0  0  0  0  0  0  0  0  0  0  0
   38.9410   23.3840   35.0810 C   0  0  0  0  0  0  0  0  0  0  0  0
   38.9190   24.7480   35.4440 C   0  0  0  0  0  0  0  0  0  0  0  0
   38.1240   25.0950   36.5110 C   0  0  0  0  0  0  0  0  0  0  0  0
   37.4000   24.1340   37.1640 N   0  0  0  0  0  0  0  0  0  0  0  0
   37.4410   22.8300   36.7910 C   0  0  0  0  0  0  0  0  0  0  0  0
   38.2080   22.4860   35.7630 N   0  0  0  0  0  0  0  0  0  0  0  0
   39.3690   25.6540   35.1150 H   0  0  0  0  0  0  0  0  0  0  0  0
   37.9290   26.0370   36.9830 H   0  0  0  0  0  0  0  0  0  0  0  0
   36.8740   22.0650   37.3010 H   0  0  0  0  0  0  0  0  0  0  0  0
  1  7  1  6  0  0  0
  1  2  1  0  0  0  0
  1 41  1  0  0  0  0
  2  8  1  0  0  0  0
  3 10  1  0  0  0  0
  3 11  1  0  0  0  0
  3  2  1  0  0  0  0
  4  3  1  0  0  0  0
  5  4  1  0  0  0  0
  5  6  1  0  0  0  0
  6 16  1  1  0  0  0
  6  1  1  0  0  0  0
  9  2  1  0  0  0  0
 12  4  1  0  0  0  0
 13  4  1  0  0  0  0
 14  5  1  0  0  0  0
 15  5  1  0  0  0  0
 17 18  1  6  0  0  0
 17  6  1  0  0  0  0
 18 22  1  0  0  0  0
 19 18  1  0  0  0  0
 19 20  1  0  0  0  0
 19 25  1  0  0  0  0
 20 21  1  0  0  0  0
 20 26  1  0  0  0  0
 21 28  1  6  0  0  0
 21 30  1  0  0  0  0
 21 17  1  0  0  0  0
 23 18  1  0  0  0  0
 24 19  1  0  0  0  0
 27 20  1  0  0  0  0
 29 35  1  6  0  0  0
 29 34  1  0  0  0  0
 29 30  1  0  0  0  0
 30 31  1  6  0  0  0
 32 33  1  0  0  0  0
 32 31  1  0  0  0  0
 33 37  1  6  0  0  0
 33 34  1  0  0  0  0
 34 39  1  1  0  0  0
 36 35  1  0  0  0  0
 38 37  1  0  0  0  0
 39 40  1  0  0  0  0
 41 42  2  0  0  0  0
 41 46  1  0  0  0  0
 42 43  1  0  0  0  0
 43 48  1  0  0  0  0
 43 44  2  0  0  0  0
 45 44  1  0  0  0  0
 45 49  1  0  0  0  0
 46 45  2  0  0  0  0
 47 42  1  0  0  0  0
M  END
>  <minimizedAffinity>
-5.45918465

$$$$

 OpenBabel03262520413D

 49 52  0  0  1  0  0  0  0  0999 V2000
   41.0100   25.4940   33.6010 C   0  0  2  0  0  0  0  0  0  0  0  0
   42.2420   26.2830   33.8950 C   0  0  0  0  0  0  0  0  0  0  0  0
   42.3700   27.5290   33.0240 C   0  0  0  0  0  0  0  0  0  0  0  0
   42.4080   27.1430   31.5660 C   0  0  0  0  0  0  0  0  0  0  0  0
   41.3800   26.1030   31.1960 C   0  0  0  0  0  0  0  0  0  0  0  0
   40.3550   25.9360   32.3030 C   0  0  1  0  0  0  0  0  0  0  0  0
   41.2580   24.4070   33.4410 H   0  0  0  0  0  0  0  0  0  0  0  0
   42.5110   26.5880   34.8620 H   0  0  0  0  0  0  0  0  0  0  0  0
   43.1350   25.6460   33.5300 H   0  0  0  0  0  0  0  0  0  0  0  0
   43.3300   27.9960   33.2920 H   0  0  0  0  0  0  0  0  0  0  0  0
   41.5150   28.1890   33.2180 H   0  0  0  0  0  0  0  0  0  0  0  0
   43.4500   26.7620   31.3660 H   0  0  0  0  0  0  0  0  0  0  0  0
   42.3090   28.0610   30.9510 H   0  0  0  0  0  0  0  0  0  0  0  0
   40.8630   26.4510   30.2990 H   0  0  0  0  0  0  0  0  0  0  0  0
   41.9170   25.1390   31.0490 H   0  0  0  0  0  0  0  0  0  0  0  0
   40.0540   26.9780   32.5150 H   0  0  0  0  0  0  0  0  0  0  0  0
   39.3350   25.0480   31.9070 N   0  0  2  0  0  0  0  0  0  0  0  0
   39.7470   24.0560   30.9270 C   0  0  0  0  0  0  0  0  0  0  0  0
   38.4250   23.3850   30.5700 C   0  0  0  0  0  0  0  0  0  0  0  0
   37.3610   24.3110   31.0920 C   0  0  0  0  0  0  0  0  0  0  0  0
   38.1760   25.5780   31.3070 C   0  0  1  0  0  0  0  0  0  0  0  0
   40.4990   23.3510   31.2790 H   0  0  0  0  0  0  0  0  0  0  0  0
   40.0920   24.5730   29.9920 H   0  0  0  0  0  0  0  0  0  0  0  0
   38.3820   23.1930   29.4820 H   0  0  0  0  0  0  0  0  0  0  0  0
   38.4430   22.3930   31.1060 H   0  0  0  0  0  0  0  0  0  0  0  0
   36.9700   23.8820   32.0260 H   0  0  0  0  0  0  0  0  0  0  0  0
   36.6370   24.3870   30.2620 H   0  0  0  0  0  0  0  0  0  0  0  0
   38.5050   25.8190   30.2300 H   0  0  0  0  0  0  0  0  0  0  0  0
   36.0250   26.9030   31.5040 C   0  0  1  0  0  3  0  0  0  0  0  0
   37.4510   26.7090   31.8640 C   0  0  2  0  0  3  0  0  0  0  0  0
   38.2230   27.8560   31.7550 O   0  0  0  0  0  0  0  0  0  0  0  0
   37.8360   28.5440   30.6160 C   0  0  0  0  0  2  0  0  0  0  0  0
   36.6080   29.3260   31.0970 C   0  0  2  0  0  3  0  0  0  0  0  0
   35.5560   28.3360   31.5120 C   0  0  2  0  0  3  0  0  0  0  0  0
   35.6380   26.3990   30.2580 O   0  0  0  0  0  0  0  0  0  0  0  0
   34.7210   26.0680   30.2270 H   0  0  0  0  0  0  0  0  0  0  0  0
   36.1790   30.2180   30.1200 O   0  0  0  0  0  0  0  0  0  0  0  0
   35.7390   29.7770   29.3530 H   0  0  0  0  0  0  0  0  0  0  0  0
   35.0800   28.7470   32.7600 O   0  0  0  0  0  0  0  0  0  0  0  0
   34.3360   28.1320   32.9920 H   0  0  0  0  0  0  0  0  0  0  0  0
   39.9810   25.6040   34.6630 C   0  0  0  0  0  0  0  0  0  0  0  0
   39.5520   26.9240   34.9220 C   0  0  0  0  0  0  0  0  0  0  0  0
   38.5690   27.0840   35.8700 C   0  0  0  0  0  0  0  0  0  0  0  0
   38.0540   25.9890   36.5110 N   0  0  0  0  0  0  0  0  0  0  0  0
   38.4870   24.7320   36.2400 C   0  0  0  0  0  0  0  0  0  0  0  0
   39.4370   24.5690   35.3270 N   0  0  0  0  0  0  0  0  0  0  0  0
   39.7800   27.9040   34.5770 H   0  0  0  0  0  0  0  0  0  0  0  0
   38.0740   27.9550   36.2480 H   0  0  0  0  0  0  0  0  0  0  0  0
   38.0880   23.8620   36.7420 H   0  0  0  0  0  0  0  0  0  0  0  0
  1  7  1  6  0  0  0
  1  2  1  0  0  0  0
  1 41  1  0  0  0  0
  2  8  1  0  0  0  0
  3 11  1  0  0  0  0
  3 10  1  0  0  0  0
  3  2  1  0  0  0  0
  4  3  1  0  0  0  0
  5  4  1  0  0  0  0
  5  6  1  0  0  0  0
  6 16  1  1  0  0  0
  6  1  1  0  0  0  0
  9  2  1  0  0  0  0
 12  4  1  0  0  0  0
 13  4  1  0  0  0  0
 14  5  1  0  0  0  0
 15  5  1  0  0  0  0
 17 18  1  6  0  0  0
 17  6  1  0  0  0  0
 18 22  1  0  0  0  0
 19 18  1  0  0  0  0
 19 20  1  0  0  0  0
 19 25  1  0  0  0  0
 20 21  1  0  0  0  0
 20 26  1  0  0  0  0
 21 28  1  6  0  0  0
 21 30  1  0  0  0  0
 21 17  1  0  0  0  0
 23 18  1  0  0  0  0
 24 19  1  0  0  0  0
 27 20  1  0  0  0  0
 29 35  1  6  0  0  0
 29 34  1  0  0  0  0
 29 30  1  0  0  0  0
 30 31  1  6  0  0  0
 32 33  1  0  0  0  0
 32 31  1  0  0  0  0
 33 37  1  6  0  0  0
 33 34  1  0  0  0  0
 34 39  1  1  0  0  0
 36 35  1  0  0  0  0
 38 37  1  0  0  0  0
 39 40  1  0  0  0  0
 41 42  2  0  0  0  0
 41 46  1  0  0  0  0
 42 43  1  0  0  0  0
 43 48  1  0  0  0  0
 43 44  2  0  0  0  0
 45 44  1  0  0  0  0
 45 49  1  0  0  0  0
 46 45  2  0  0  0  0
 47 42  1  0  0  0  0
M  END
>  <minimizedAffinity>
-5.45186663

$$$$

 OpenBabel03262520413D

 49 52  0  0  1  0  0  0  0  0999 V2000
   38.7870   23.0080   31.0710 C   0  0  2  0  0  0  0  0  0  0  0  0
   39.7120   22.0170   30.4450 C   0  0  0  0  0  0  0  0  0  0  0  0
   40.9980   21.8200   31.2420 C   0  0  0  0  0  0  0  0  0  0  0  0
   41.7390   23.1280   31.3650 C   0  0  0  0  0  0  0  0  0  0  0  0
   40.8430   24.2920   31.7100 C   0  0  0  0  0  0  0  0  0  0  0  0
   39.4770   23.8110   32.1600 C   0  0  1  0  0  0  0  0  0  0  0  0
   38.4510   23.7750   30.3170 H   0  0  0  0  0  0  0  0  0  0  0  0
   39.4110   21.0550   30.1550 H   0  0  0  0  0  0  0  0  0  0  0  0
   40.1070   22.5050   29.4740 H   0  0  0  0  0  0  0  0  0  0  0  0
   41.6150   21.1160   30.6630 H   0  0  0  0  0  0  0  0  0  0  0  0
   40.7440   21.4340   32.2380 H   0  0  0  0  0  0  0  0  0  0  0  0
   42.2490   23.2980   30.3740 H   0  0  0  0  0  0  0  0  0  0  0  0
   42.5610   23.0040   32.1000 H   0  0  0  0  0  0  0  0  0  0  0  0
   41.3080   24.8340   32.5380 H   0  0  0  0  0  0  0  0  0  0  0  0
   40.7270   24.9090   30.7900 H   0  0  0  0  0  0  0  0  0  0  0  0
   39.7260   23.0450   32.9180 H   0  0  0  0  0  0  0  0  0  0  0  0
   38.6840   24.8940   32.5880 N   0  0  2  0  0  0  0  0  0  0  0  0
   39.1240   26.1920   32.1030 C   0  0  0  0  0  0  0  0  0  0  0  0
   38.2100   27.1480   32.8620 C   0  0  0  0  0  0  0  0  0  0  0  0
   37.6140   26.3250   33.9710 C   0  0  0  0  0  0  0  0  0  0  0  0
   38.5600   25.1330   33.9710 C   0  0  1  0  0  0  0  0  0  0  0  0
   39.0680   26.3180   31.0230 H   0  0  0  0  0  0  0  0  0  0  0  0
   40.1630   26.3990   32.4750 H   0  0  0  0  0  0  0  0  0  0  0  0
   38.7850   28.0320   33.1950 H   0  0  0  0  0  0  0  0  0  0  0  0
   37.4430   27.4850   32.1070 H   0  0  0  0  0  0  0  0  0  0  0  0
   36.5860   26.0650   33.6820 H   0  0  0  0  0  0  0  0  0  0  0  0
   37.7110   26.9660   34.8650 H   0  0  0  0  0  0  0  0  0  0  0  0
   39.5550   25.6350   34.2570 H   0  0  0  0  0  0  0  0  0  0  0  0
   37.7940   24.4490   36.2880 C   0  0  1  0  0  3  0  0  0  0  0  0
   38.2490   24.0800   34.9250 C   0  0  2  0  0  3  0  0  0  0  0  0
   39.2510   23.1220   34.9040 O   0  0  0  0  0  0  0  0  0  0  0  0
   40.1410   23.3870   35.9320 C   0  0  0  0  0  2  0  0  0  0  0  0
   39.4530   22.7500   37.1440 C   0  0  2  0  0  3  0  0  0  0  0  0
   38.1460   23.4560   37.3670 C   0  0  2  0  0  3  0  0  0  0  0  0
   38.2460   25.6830   36.7660 O   0  0  0  0  0  0  0  0  0  0  0  0
   37.6140   26.1420   37.3530 H   0  0  0  0  0  0  0  0  0  0  0  0
   40.2920   22.7690   38.2530 O   0  0  0  0  0  0  0  0  0  0  0  0
   40.4020   23.6690   38.6460 H   0  0  0  0  0  0  0  0  0  0  0  0
   37.1720   22.4680   37.5370 O   0  0  0  0  0  0  0  0  0  0  0  0
   36.3280   22.9420   37.7560 H   0  0  0  0  0  0  0  0  0  0  0  0
   37.5940   22.3790   31.6870 C   0  0  0  0  0  0  0  0  0  0  0  0
   36.3620   22.8860   31.2190 C   0  0  0  0  0  0  0  0  0  0  0  0
   35.2200   22.3120   31.7260 C   0  0  0  0  0  0  0  0  0  0  0  0
   35.3140   21.2970   32.6400 N   0  0  0  0  0  0  0  0  0  0  0  0
   36.5130   20.8310   33.0710 C   0  0  0  0  0  0  0  0  0  0  0  0
   37.6210   21.3810   32.5870 N   0  0  0  0  0  0  0  0  0  0  0  0
   36.0300   23.6360   30.5420 H   0  0  0  0  0  0  0  0  0  0  0  0
   34.1820   22.5020   31.5440 H   0  0  0  0  0  0  0  0  0  0  0  0
   36.5970   20.0310   33.7920 H   0  0  0  0  0  0  0  0  0  0  0  0
  1  7  1  6  0  0  0
  1 41  1  0  0  0  0
  1  6  1  0  0  0  0
  2  1  1  0  0  0  0
  2  3  1  0  0  0  0
  3  4  1  0  0  0  0
  3 11  1  0  0  0  0
  4  5  1  0  0  0  0
  4 13  1  0  0  0  0
  5  6  1  0  0  0  0
  5 14  1  0  0  0  0
  6 17  1  0  0  0  0
  6 16  1  1  0  0  0
  8  2  1  0  0  0  0
  9  2  1  0  0  0  0
 10  3  1  0  0  0  0
 12  4  1  0  0  0  0
 15  5  1  0  0  0  0
 17 18  1  6  0  0  0
 17 21  1  0  0  0  0
 18 23  1  0  0  0  0
 18 19  1  0  0  0  0
 19 24  1  0  0  0  0
 19 20  1  0  0  0  0
 20 21  1  0  0  0  0
 20 27  1  0  0  0  0
 21 28  1  1  0  0  0
 21 30  1  0  0  0  0
 22 18  1  0  0  0  0
 25 19  1  0  0  0  0
 26 20  1  0  0  0  0
 29 35  1  1  0  0  0
 29 34  1  0  0  0  0
 30 31  1  1  0  0  0
 30 29  1  0  0  0  0
 31 32  1  0  0  0  0
 32 33  1  0  0  0  0
 33 34  1  0  0  0  0
 33 37  1  1  0  0  0
 34 39  1  6  0  0  0
 35 36  1  0  0  0  0
 37 38  1  0  0  0  0
 39 40  1  0  0  0  0
 41 46  1  0  0  0  0
 42 41  2  0  0  0  0
 42 43  1  0  0  0  0
 43 44  2  0  0  0  0
 44 45  1  0  0  0  0
 45 49  1  0  0  0  0
 46 45  2  0  0  0  0
 47 42  1  0  0  0  0
 48 43  1  0  0  0  0
M  END
>  <minimizedAffinity>
-5.43632269

$$$$

 OpenBabel03262520413D

 49 52  0  0  1  0  0  0  0  0999 V2000
   37.8660   23.4400   31.7310 C   0  0  2  0  0  0  0  0  0  0  0  0
   36.5380   23.0830   31.1480 C   0  0  0  0  0  0  0  0  0  0  0  0
   35.6840   22.2400   32.0910 C   0  0  0  0  0  0  0  0  0  0  0  0
   36.3980   20.9560   32.4320 C   0  0  0  0  0  0  0  0  0  0  0  0
   37.8580   21.1520   32.7570 C   0  0  0  0  0  0  0  0  0  0  0  0
   38.1740   22.6200   32.9720 C   0  0  1  0  0  0  0  0  0  0  0  0
   38.6980   23.1970   31.0120 H   0  0  0  0  0  0  0  0  0  0  0  0
   35.8840   23.7900   30.7340 H   0  0  0  0  0  0  0  0  0  0  0  0
   36.7470   22.3380   30.2890 H   0  0  0  0  0  0  0  0  0  0  0  0
   34.7630   21.9980   31.5390 H   0  0  0  0  0  0  0  0  0  0  0  0
   35.4870   22.8170   33.0040 H   0  0  0  0  0  0  0  0  0  0  0  0
   36.2760   20.2780   31.5390 H   0  0  0  0  0  0  0  0  0  0  0  0
   35.8530   20.4530   33.2570 H   0  0  0  0  0  0  0  0  0  0  0  0
   38.0660   20.6160   33.6870 H   0  0  0  0  0  0  0  0  0  0  0  0
   38.4480   20.7760   31.8910 H   0  0  0  0  0  0  0  0  0  0  0  0
   37.3880   22.9360   33.6840 H   0  0  0  0  0  0  0  0  0  0  0  0
   39.5100   22.7870   33.3860 N   0  0  2  0  0  0  0  0  0  0  0  0
   40.4430   21.8320   32.8100 C   0  0  0  0  0  0  0  0  0  0  0  0
   41.7310   22.1400   33.5670 C   0  0  0  0  0  0  0  0  0  0  0  0
   41.3040   22.9660   34.7490 C   0  0  0  0  0  0  0  0  0  0  0  0
   39.8080   22.6830   34.7590 C   0  0  1  0  0  0  0  0  0  0  0  0
   40.5580   21.9030   31.7290 H   0  0  0  0  0  0  0  0  0  0  0  0
   40.1490   20.7920   33.1110 H   0  0  0  0  0  0  0  0  0  0  0  0
   42.2520   21.1980   33.8190 H   0  0  0  0  0  0  0  0  0  0  0  0
   42.3710   22.7170   32.8380 H   0  0  0  0  0  0  0  0  0  0  0  0
   41.5470   24.0150   34.5320 H   0  0  0  0  0  0  0  0  0  0  0  0
   41.8430   22.5170   35.6010 H   0  0  0  0  0  0  0  0  0  0  0  0
   39.7950   21.5510   34.9630 H   0  0  0  0  0  0  0  0  0  0  0  0
   39.4430   23.2380   37.2050 C   0  0  1  0  0  3  0  0  0  0  0  0
   39.0420   23.3750   35.7830 C   0  0  2  0  0  3  0  0  0  0  0  0
   37.6870   23.1870   35.5580 O   0  0  0  0  0  0  0  0  0  0  0  0
   37.2470   22.1400   36.3510 C   0  0  0  0  0  2  0  0  0  0  0  0
   37.0040   22.8210   37.7020 C   0  0  2  0  0  3  0  0  0  0  0  0
   38.3160   23.3590   38.1990 C   0  0  2  0  0  3  0  0  0  0  0  0
   40.1000   22.0500   37.5390 O   0  0  0  0  0  0  0  0  0  0  0  0
   40.7700   22.1450   38.2420 H   0  0  0  0  0  0  0  0  0  0  0  0
   36.3880   21.9470   38.5910 O   0  0  0  0  0  0  0  0  0  0  0  0
   36.9920   21.2410   38.9280 H   0  0  0  0  0  0  0  0  0  0  0  0
   38.0890   24.6760   38.6080 O   0  0  0  0  0  0  0  0  0  0  0  0
   38.9410   24.9970   39.0020 H   0  0  0  0  0  0  0  0  0  0  0  0
   37.9640   24.8670   32.1200 C   0  0  0  0  0  0  0  0  0  0  0  0
   38.9250   25.6030   31.3950 C   0  0  0  0  0  0  0  0  0  0  0  0
   39.0320   26.9430   31.6840 C   0  0  0  0  0  0  0  0  0  0  0  0
   38.2240   27.5020   32.6380 N   0  0  0  0  0  0  0  0  0  0  0  0
   37.3080   26.7680   33.3190 C   0  0  0  0  0  0  0  0  0  0  0  0
   37.2000   25.4730   33.0460 N   0  0  0  0  0  0  0  0  0  0  0  0
   39.6460   25.4160   30.6350 H   0  0  0  0  0  0  0  0  0  0  0  0
   39.6640   27.7130   31.2900 H   0  0  0  0  0  0  0  0  0  0  0  0
   36.6670   27.2000   34.0740 H   0  0  0  0  0  0  0  0  0  0  0  0
  1  7  1  6  0  0  0
  1 41  1  0  0  0  0
  1  6  1  0  0  0  0
  2  1  1  0  0  0  0
  2  3  1  0  0  0  0
  3  4  1  0  0  0  0
  3 11  1  0  0  0  0
  4  5  1  0  0  0  0
  4 13  1  0  0  0  0
  5  6  1  0  0  0  0
  5 14  1  0  0  0  0
  6 17  1  0  0  0  0
  6 16  1  1  0  0  0
  8  2  1  0  0  0  0
  9  2  1  0  0  0  0
 10  3  1  0  0  0  0
 12  4  1  0  0  0  0
 15  5  1  0  0  0  0
 17 18  1  6  0  0  0
 17 21  1  0  0  0  0
 18 23  1  0  0  0  0
 18 19  1  0  0  0  0
 19 24  1  0  0  0  0
 19 20  1  0  0  0  0
 20 21  1  0  0  0  0
 20 27  1  0  0  0  0
 21 28  1  1  0  0  0
 21 30  1  0  0  0  0
 22 18  1  0  0  0  0
 25 19  1  0  0  0  0
 26 20  1  0  0  0  0
 29 35  1  6  0  0  0
 29 34  1  0  0  0  0
 30 31  1  1  0  0  0
 30 29  1  0  0  0  0
 31 32  1  0  0  0  0
 32 33  1  0  0  0  0
 33 34  1  0  0  0  0
 33 37  1  1  0  0  0
 34 39  1  6  0  0  0
 35 36  1  0  0  0  0
 37 38  1  0  0  0  0
 39 40  1  0  0  0  0
 41 46  1  0  0  0  0
 42 43  1  0  0  0  0
 42 41  2  0  0  0  0
 43 44  2  0  0  0  0
 44 45  1  0  0  0  0
 45 49  1  0  0  0  0
 46 45  2  0  0  0  0
 47 42  1  0  0  0  0
 48 43  1  0  0  0  0
M  END
>  <minimizedAffinity>
-5.39746332

$$$$

 OpenBabel03262520413D

 49 52  0  0  1  0  0  0  0  0999 V2000
   36.8230   22.0650   31.2420 C   0  0  2  0  0  0  0  0  0  0  0  0
   35.5350   21.3720   30.9430 C   0  0  0  0  0  0  0  0  0  0  0  0
   34.7920   20.9330   32.2020 C   0  0  0  0  0  0  0  0  0  0  0  0
   35.6470   19.9890   33.0080 C   0  0  0  0  0  0  0  0  0  0  0  0
   37.0810   20.4400   33.1340 C   0  0  0  0  0  0  0  0  0  0  0  0
   37.2360   21.8830   32.6920 C   0  0  1  0  0  0  0  0  0  0  0  0
   37.6670   21.6180   30.6440 H   0  0  0  0  0  0  0  0  0  0  0  0
   34.8020   21.7720   30.3090 H   0  0  0  0  0  0  0  0  0  0  0  0
   35.8130   20.3550   30.4660 H   0  0  0  0  0  0  0  0  0  0  0  0
   33.8950   20.3950   31.8590 H   0  0  0  0  0  0  0  0  0  0  0  0
   34.5450   21.8220   32.7970 H   0  0  0  0  0  0  0  0  0  0  0  0
   35.5880   18.9880   32.4930 H   0  0  0  0  0  0  0  0  0  0  0  0
   35.1720   19.8360   33.9990 H   0  0  0  0  0  0  0  0  0  0  0  0
   37.3600   20.3710   34.1890 H   0  0  0  0  0  0  0  0  0  0  0  0
   37.6960   19.7890   32.4730 H   0  0  0  0  0  0  0  0  0  0  0  0
   36.4310   22.3960   33.2500 H   0  0  0  0  0  0  0  0  0  0  0  0
   38.5520   22.3340   32.9180 N   0  0  2  0  0  0  0  0  0  0  0  0
   39.5310   21.2730   33.0960 C   0  0  0  0  0  0  0  0  0  0  0  0
   40.7810   22.0490   33.4940 C   0  0  0  0  0  0  0  0  0  0  0  0
   40.2900   23.4210   33.8690 C   0  0  0  0  0  0  0  0  0  0  0  0
   38.8030   23.1450   34.0420 C   0  0  1  0  0  0  0  0  0  0  0  0
   39.6830   20.6420   32.2220 H   0  0  0  0  0  0  0  0  0  0  0  0
   39.2540   20.6540   33.9910 H   0  0  0  0  0  0  0  0  0  0  0  0
   41.3180   21.5110   34.2970 H   0  0  0  0  0  0  0  0  0  0  0  0
   41.4320   22.0550   32.5720 H   0  0  0  0  0  0  0  0  0  0  0  0
   40.5120   24.0980   33.0330 H   0  0  0  0  0  0  0  0  0  0  0  0
   40.8100   23.6450   34.8160 H   0  0  0  0  0  0  0  0  0  0  0  0
   38.8120   22.4050   34.9230 H   0  0  0  0  0  0  0  0  0  0  0  0
   38.2250   25.5870   33.6830 C   0  0  1  0  0  3  0  0  0  0  0  0
   37.9820   24.2980   34.3770 C   0  0  2  0  0  3  0  0  0  0  0  0
   37.8760   24.4090   35.7550 O   0  0  0  0  0  0  0  0  0  0  0  0
   38.8200   25.3200   36.2000 C   0  0  0  0  0  2  0  0  0  0  0  0
   38.1250   26.6660   35.9630 C   0  0  2  0  0  3  0  0  0  0  0  0
   37.8860   26.8160   34.4870 C   0  0  2  0  0  3  0  0  0  0  0  0
   39.5310   25.7950   33.2290 O   0  0  0  0  0  0  0  0  0  0  0  0
   39.5910   26.3150   32.4050 H   0  0  0  0  0  0  0  0  0  0  0  0
   38.8650   27.7060   36.5160 O   0  0  0  0  0  0  0  0  0  0  0  0
   39.6880   27.9130   36.0100 H   0  0  0  0  0  0  0  0  0  0  0  0
   36.5580   27.2220   34.3290 O   0  0  0  0  0  0  0  0  0  0  0  0
   36.4310   27.3890   33.3590 H   0  0  0  0  0  0  0  0  0  0  0  0
   36.7690   23.5250   30.9870 C   0  0  0  0  0  0  0  0  0  0  0  0
   35.5660   24.1420   31.3930 C   0  0  0  0  0  0  0  0  0  0  0  0
   35.4760   25.5030   31.2190 C   0  0  0  0  0  0  0  0  0  0  0  0
   36.5250   26.1930   30.6750 N   0  0  0  0  0  0  0  0  0  0  0  0
   37.6700   25.5720   30.2950 C   0  0  0  0  0  0  0  0  0  0  0  0
   37.7650   24.2570   30.4580 N   0  0  0  0  0  0  0  0  0  0  0  0
   34.6400   23.8450   31.8250 H   0  0  0  0  0  0  0  0  0  0  0  0
   34.6940   26.2020   31.4370 H   0  0  0  0  0  0  0  0  0  0  0  0
   38.5030   26.1080   29.8640 H   0  0  0  0  0  0  0  0  0  0  0  0
  1  7  1  6  0  0  0
  1  6  1  0  0  0  0
  2  1  1  0  0  0  0
  2  3  1  0  0  0  0
  3 11  1  0  0  0  0
  3  4  1  0  0  0  0
  4  5  1  0  0  0  0
  4 13  1  0  0  0  0
  5 14  1  0  0  0  0
  6 17  1  0  0  0  0
  6  5  1  0  0  0  0
  6 16  1  1  0  0  0
  8  2  1  0  0  0  0
  9  2  1  0  0  0  0
 10  3  1  0  0  0  0
 12  4  1  0  0  0  0
 15  5  1  0  0  0  0
 17 18  1  1  0  0  0
 17 21  1  0  0  0  0
 18 19  1  0  0  0  0
 18 23  1  0  0  0  0
 19 20  1  0  0  0  0
 19 24  1  0  0  0  0
 20 21  1  0  0  0  0
 20 27  1  0  0  0  0
 21 30  1  0  0  0  0
 21 28  1  1  0  0  0
 22 18  1  0  0  0  0
 25 19  1  0  0  0  0
 26 20  1  0  0  0  0
 29 35  1  1  0  0  0
 29 30  1  0  0  0  0
 29 34  1  0  0  0  0
 30 31  1  1  0  0  0
 31 32  1  0  0  0  0
 33 32  1  0  0  0  0
 33 37  1  6  0  0  0
 34 39  1  1  0  0  0
 34 33  1  0  0  0  0
 36 35  1  0  0  0  0
 38 37  1  0  0  0  0
 40 39  1  0  0  0  0
 41  1  1  0  0  0  0
 41 42  1  0  0  0  0
 42 47  1  0  0  0  0
 43 42  2  0  0  0  0
 43 48  1  0  0  0  0
 44 43  1  0  0  0  0
 45 46  1  0  0  0  0
 45 44  2  0  0  0  0
 46 41  2  0  0  0  0
 49 45  1  0  0  0  0
M  END
>  <minimizedAffinity>
-5.35821962

$$$$

 OpenBabel03262520413D

 49 52  0  0  1  0  0  0  0  0999 V2000
   38.5800   25.4210   30.3980 C   0  0  2  0  0  0  0  0  0  0  0  0
   39.6350   25.2310   29.3600 C   0  0  0  0  0  0  0  0  0  0  0  0
   41.0410   25.1660   29.9490 C   0  0  0  0  0  0  0  0  0  0  0  0
   41.3530   26.4390   30.6950 C   0  0  0  0  0  0  0  0  0  0  0  0
   40.2200   26.9090   31.5740 C   0  0  0  0  0  0  0  0  0  0  0  0
   39.1730   25.8230   31.7370 C   0  0  1  0  0  0  0  0  0  0  0  0
   37.8930   26.2700   30.1220 H   0  0  0  0  0  0  0  0  0  0  0  0
   39.5990   24.4720   28.6370 H   0  0  0  0  0  0  0  0  0  0  0  0
   39.6790   26.2140   28.7530 H   0  0  0  0  0  0  0  0  0  0  0  0
   41.7300   25.0770   29.0950 H   0  0  0  0  0  0  0  0  0  0  0  0
   41.1040   24.3050   30.6280 H   0  0  0  0  0  0  0  0  0  0  0  0
   41.5980   27.2130   29.9130 H   0  0  0  0  0  0  0  0  0  0  0  0
   42.2910   26.2960   31.2690 H   0  0  0  0  0  0  0  0  0  0  0  0
   40.6360   27.1370   32.5580 H   0  0  0  0  0  0  0  0  0  0  0  0
   39.7550   27.7910   31.0780 H   0  0  0  0  0  0  0  0  0  0  0  0
   39.7800   24.9420   32.0190 H   0  0  0  0  0  0  0  0  0  0  0  0
   38.1760   26.2260   32.6480 N   0  0  2  0  0  0  0  0  0  0  0  0
   37.6780   27.5750   32.4390 C   0  0  0  0  0  0  0  0  0  0  0  0
   36.7780   27.7800   33.6520 C   0  0  0  0  0  0  0  0  0  0  0  0
   37.1540   26.6840   34.6100 C   0  0  0  0  0  0  0  0  0  0  0  0
   38.4880   26.2470   34.0220 C   0  0  1  0  0  0  0  0  0  0  0  0
   37.1590   27.7280   31.4930 H   0  0  0  0  0  0  0  0  0  0  0  0
   38.5210   28.3080   32.5530 H   0  0  0  0  0  0  0  0  0  0  0  0
   36.9040   28.8060   34.0440 H   0  0  0  0  0  0  0  0  0  0  0  0
   35.7250   27.6760   33.2590 H   0  0  0  0  0  0  0  0  0  0  0  0
   36.3780   25.9070   34.5540 H   0  0  0  0  0  0  0  0  0  0  0  0
   37.2470   27.1960   35.5830 H   0  0  0  0  0  0  0  0  0  0  0  0
   39.1150   27.2030   34.1510 H   0  0  0  0  0  0  0  0  0  0  0  0
   38.7540   23.7470   34.3460 C   0  0  1  0  0  3  0  0  0  0  0  0
   39.1410   25.1360   34.6960 C   0  0  2  0  0  3  0  0  0  0  0  0
   39.1900   25.3820   36.0590 O   0  0  0  0  0  0  0  0  0  0  0  0
   38.1230   24.7390   36.6640 C   0  0  0  0  0  2  0  0  0  0  0  0
   38.6430   23.3060   36.8290 C   0  0  2  0  0  3  0  0  0  0  0  0
   38.9060   22.7430   35.4610 C   0  0  2  0  0  3  0  0  0  0  0  0
   37.4460   23.5800   33.8790 O   0  0  0  0  0  0  0  0  0  0  0  0
   37.3440   22.8720   33.2160 H   0  0  0  0  0  0  0  0  0  0  0  0
   37.7580   22.5450   37.5840 O   0  0  0  0  0  0  0  0  0  0  0  0
   36.9300   22.3090   37.0980 H   0  0  0  0  0  0  0  0  0  0  0  0
   40.1740   22.1570   35.4970 O   0  0  0  0  0  0  0  0  0  0  0  0
   40.3080   21.7250   34.6140 H   0  0  0  0  0  0  0  0  0  0  0  0
   37.7700   24.2010   30.6330 C   0  0  0  0  0  0  0  0  0  0  0  0
   38.5120   23.0000   30.6260 C   0  0  0  0  0  0  0  0  0  0  0  0
   37.8200   21.8390   30.8790 C   0  0  0  0  0  0  0  0  0  0  0  0
   36.4740   21.8860   31.1240 N   0  0  0  0  0  0  0  0  0  0  0  0
   35.7880   23.0570   31.1250 C   0  0  0  0  0  0  0  0  0  0  0  0
   36.4480   24.1820   30.8800 N   0  0  0  0  0  0  0  0  0  0  0  0
   39.5220   22.7040   30.4700 H   0  0  0  0  0  0  0  0  0  0  0  0
   38.1330   20.8160   30.9320 H   0  0  0  0  0  0  0  0  0  0  0  0
   34.7250   23.1040   31.3160 H   0  0  0  0  0  0  0  0  0  0  0  0
  1  7  1  6  0  0  0
  1 41  1  0  0  0  0
  1  6  1  0  0  0  0
  2  3  1  0  0  0  0
  2  1  1  0  0  0  0
  3 11  1  0  0  0  0
  3  4  1  0  0  0  0
  4 13  1  0  0  0  0
  4  5  1  0  0  0  0
  5  6  1  0  0  0  0
  5 14  1  0  0  0  0
  6 16  1  1  0  0  0
  6 17  1  0  0  0  0
  8  2  1  0  0  0  0
  9  2  1  0  0  0  0
 10  3  1  0  0  0  0
 12  4  1  0  0  0  0
 15  5  1  0  0  0  0
 17 18  1  6  0  0  0
 17 21  1  0  0  0  0
 18 23  1  0  0  0  0
 18 19  1  0  0  0  0
 19 24  1  0  0  0  0
 19 20  1  0  0  0  0
 20 27  1  0  0  0  0
 21 28  1  1  0  0  0
 21 20  1  0  0  0  0
 21 30  1  0  0  0  0
 22 18  1  0  0  0  0
 25 19  1  0  0  0  0
 26 20  1  0  0  0  0
 29 35  1  1  0  0  0
 29 30  1  0  0  0  0
 29 34  1  0  0  0  0
 30 31  1  1  0  0  0
 31 32  1  0  0  0  0
 32 33  1  0  0  0  0
 33 37  1  6  0  0  0
 34 39  1  1  0  0  0
 34 33  1  0  0  0  0
 36 35  1  0  0  0  0
 38 37  1  0  0  0  0
 40 39  1  0  0  0  0
 41 46  1  0  0  0  0
 42 41  2  0  0  0  0
 42 43  1  0  0  0  0
 43 48  1  0  0  0  0
 43 44  2  0  0  0  0
 44 45  1  0  0  0  0
 45 49  1  0  0  0  0
 46 45  2  0  0  0  0
 47 42  1  0  0  0  0
M  END
>  <minimizedAffinity>
-5.30493593

$$$$
