
     RDKit          3D

 28 29  0  0  0  0  0  0  0  0999 V2000
   37.2978   29.9913   51.1813 C   0  0  0  0  0  0  0  0  0  0  0  0
   37.9591   30.9216   50.3523 C   0  0  0  0  0  0  0  0  0  0  0  0
   37.2738   31.3882   49.2320 C   0  0  0  0  0  0  0  0  0  0  0  0
   36.0156   30.9284   48.9965 N   0  0  0  0  0  0  0  0  0  0  0  0
   35.4095   30.0298   49.8198 C   0  0  0  0  0  0  0  0  0  0  0  0
   36.0573   29.5760   50.8966 N   0  0  0  0  0  0  0  0  0  0  0  0
   38.0810   29.6086   52.2535 O   0  0  0  0  0  0  0  0  0  0  0  0
   38.9439   31.3122   50.4941 H   0  0  0  0  0  0  0  0  0  0  0  0
   37.7067   32.1026   48.5434 H   0  0  0  0  0  0  0  0  0  0  0  0
   38.9162   29.0663   52.0011 H   0  0  0  0  0  0  0  0  0  0  0  0
   33.1423   27.3653   49.0264 O   0  0  0  0  0  0  0  0  0  0  0  0
   33.8380   28.1370   49.9233 C   0  0  1  0  0  0  0  0  0  0  0  0
   34.0308   29.5714   49.4990 C   0  0  1  0  0  0  0  0  0  0  0  0
   33.1323   30.4325   50.1245 O   0  0  0  0  0  0  0  0  0  0  0  0
   31.8843   29.7729   50.1812 C   0  0  0  0  0  0  0  0  0  0  0  0
   31.9764   28.9112   51.4334 C   0  0  1  0  0  0  0  0  0  0  0  0
   30.8040   28.2726   51.7486 O   0  0  0  0  0  0  0  0  0  0  0  0
   33.1695   28.0225   51.2723 C   0  0  2  0  0  0  0  0  0  0  0  0
   34.1552   28.3607   52.2243 O   0  0  0  0  0  0  0  0  0  0  0  0
   33.6153   27.2226   48.1675 H   0  0  0  0  0  0  0  0  0  0  0  0
   34.8510   27.6866   50.0247 H   0  0  0  0  0  0  0  0  0  0  0  0
   33.8570   29.6500   48.4100 H   0  0  0  0  0  0  0  0  0  0  0  0
   31.6802   29.1712   49.2860 H   0  0  0  0  0  0  0  0  0  0  0  0
   31.0439   30.4962   50.3430 H   0  0  0  0  0  0  0  0  0  0  0  0
   32.1745   29.6521   52.2625 H   0  0  0  0  0  0  0  0  0  0  0  0
   30.8385   27.2884   51.6566 H   0  0  0  0  0  0  0  0  0  0  0  0
   32.9110   26.9550   51.4267 H   0  0  0  0  0  0  0  0  0  0  0  0
   34.5567   27.5734   52.6389 H   0  0  0  0  0  0  0  0  0  0  0  0
  1  7  1  0
  2  1  2  0
  3  2  1  0
  4  3  2  0
  4  5  1  0
  5  6  2  0
  6  1  1  0
  2  8  1  0
  3  9  1  0
  7 10  1  0
 11 12  1  0
 12 13  1  0
 13 14  1  0
 14 15  1  0
 15 16  1  0
 16 17  1  0
 16 18  1  0
 18 19  1  0
 18 12  1  0
 11 20  1  0
 12 21  1  1
 13 22  1  6
 15 23  1  0
 15 24  1  0
 16 25  1  1
 17 26  1  0
 18 27  1  1
 19 28  1  0
  5 13  1  0
M  ISO  3   8  14   9  14  10   3
M  END
>  <DihAtoms>  (1) 
3,4,12,11

>  <DihDeg>  (1) 
-78.24753155161936

$$$$
