
     RDKit          3D

 31 32  0  0  0  0  0  0  0  0999 V2000
   36.9215   30.4301   48.9739 C   0  0  0  0  0  0  0  0  0  0  0  0
   38.1305   30.8256   48.3935 C   0  0  0  0  0  0  0  0  0  0  0  0
   38.1967   30.9972   47.0062 C   0  0  0  0  0  0  0  0  0  0  0  0
   37.0597   30.7639   46.2979 N   0  0  0  0  0  0  0  0  0  0  0  0
   35.9139   30.3830   46.9034 C   0  0  0  0  0  0  0  0  0  0  0  0
   35.8436   30.2163   48.2361 N   0  0  0  0  0  0  0  0  0  0  0  0
   37.0382   30.2624   50.7589 S   0  0  0  0  0  0  0  0  0  0  0  0
   35.6649   29.2105   51.2651 C   0  0  0  0  0  0  0  0  0  0  0  0
   39.0673   31.0230   48.9334 H   0  0  0  0  0  0  0  0  0  0  0  0
   39.1193   31.3008   46.5494 H   0  0  0  0  0  0  0  0  0  0  0  0
   35.0609   30.2203   46.2639 H   0  0  0  0  0  0  0  0  0  0  0  0
   35.7285   28.9064   52.3437 H   0  0  0  0  0  0  0  0  0  0  0  0
   35.7200   28.2573   50.7018 H   0  0  0  0  0  0  0  0  0  0  0  0
   33.8064   27.8203   50.0436 O   0  0  0  0  0  0  0  0  0  0  0  0
   33.7360   29.1939   49.8153 C   0  0  2  0  0  0  0  0  0  0  0  0
   34.3103   29.8809   51.0347 C   0  0  1  0  0  0  0  0  0  0  0  0
   33.5302   29.5701   52.1213 O   0  0  0  0  0  0  0  0  0  0  0  0
   32.2229   29.9719   52.0235 C   0  0  0  0  0  0  0  0  0  0  0  0
   31.5021   29.4865   50.7966 C   0  0  1  0  0  0  0  0  0  0  0  0
   30.3637   30.2844   50.6732 O   0  0  0  0  0  0  0  0  0  0  0  0
   32.3037   29.5946   49.5411 C   0  0  2  0  0  0  0  0  0  0  0  0
   31.8156   28.7054   48.5649 O   0  0  0  0  0  0  0  0  0  0  0  0
   33.3915   27.2974   49.3088 H   0  0  0  0  0  0  0  0  0  0  0  0
   34.3973   29.4226   48.9540 H   0  0  0  0  0  0  0  0  0  0  0  0
   34.3984   30.9587   50.9248 H   0  0  0  0  0  0  0  0  0  0  0  0
   32.1775   31.0847   52.0450 H   0  0  0  0  0  0  0  0  0  0  0  0
   31.6940   29.5545   52.9123 H   0  0  0  0  0  0  0  0  0  0  0  0
   31.2206   28.4094   50.9879 H   0  0  0  0  0  0  0  0  0  0  0  0
   30.4859   30.9766   49.9570 H   0  0  0  0  0  0  0  0  0  0  0  0
   32.2551   30.6394   49.1899 H   0  0  0  0  0  0  0  0  0  0  0  0
   32.0956   28.9695   47.6461 H   0  0  0  0  0  0  0  0  0  0  0  0
  1  7  1  0
  2  1  2  0
  3  2  1  0
  4  5  1  0
  4  3  2  0
  5  6  2  0
  6  1  1  0
  7  8  1  0
  2  9  1  0
  3 10  1  0
  5 11  1  0
  8 12  1  0
  8 13  1  0
 14 15  1  0
 15 16  1  0
 16 17  1  0
 17 18  1  0
 18 19  1  0
 19 20  1  0
 19 21  1  0
 21 22  1  0
 21 15  1  0
 14 23  1  0
 15 24  1  6
 16 25  1  6
 18 26  1  0
 18 27  1  0
 19 28  1  1
 20 29  1  0
 21 30  1  6
 22 31  1  0
  8 16  1  0
M  ISO  5   9  14  10  14  11  14  12   8  13   8
M  END
>  <DihAtoms>  (1) 
6,7,15,14

>  <DihDeg>  (1) 
179.9222906144749

$$$$
