
     RDKit          3D

 38 40  0  0  0  0  0  0  0  0999 V2000
   37.2674   29.4488   51.1211 Br  0  0  0  0  0  0  0  0  0  0  0  0
   35.9987   29.3178   49.7226 C   0  0  0  0  0  0  0  0  0  0  0  0
   36.0275   30.1921   48.6610 C   0  0  0  0  0  0  0  0  0  0  0  0
   35.0648   30.0330   47.6748 C   0  0  0  0  0  0  0  0  0  0  0  0
   34.0917   29.0579   47.6997 C   0  0  0  0  0  0  0  0  0  0  0  0
   34.0978   28.2027   48.7805 C   0  0  0  0  0  0  0  0  0  0  0  0
   35.0577   28.3406   49.7898 C   0  0  0  0  0  0  0  0  0  0  0  0
   37.8702   33.2337   49.4595 C   0  0  0  0  0  0  0  0  0  0  0  0
   38.8991   33.2802   48.4915 C   0  0  0  0  0  0  0  0  0  0  0  0
   38.9276   32.2472   47.5792 C   0  0  0  0  0  0  0  0  0  0  0  0
   37.9956   31.2563   47.6440 N   0  0  0  0  0  0  0  0  0  0  0  0
   37.0316   31.2439   48.5778 C   0  0  0  0  0  0  0  0  0  0  0  0
   36.9742   32.2495   49.4949 N   0  0  0  0  0  0  0  0  0  0  0  0
   39.7812   34.3203   48.5176 O   0  0  0  0  0  0  0  0  0  0  0  0
   35.0309   30.6904   46.8081 H   0  0  0  0  0  0  0  0  0  0  0  0
   33.3519   28.9464   46.9284 H   0  0  0  0  0  0  0  0  0  0  0  0
   33.3777   27.4019   48.8982 H   0  0  0  0  0  0  0  0  0  0  0  0
   35.0325   27.6422   50.6353 H   0  0  0  0  0  0  0  0  0  0  0  0
   37.7728   34.0037   50.2141 H   0  0  0  0  0  0  0  0  0  0  0  0
   39.6775   32.2303   46.8301 H   0  0  0  0  0  0  0  0  0  0  0  0
   41.8918   33.9738   45.6111 O   0  0  0  0  0  0  0  0  0  0  0  0
   40.6332   34.0559   46.2444 C   0  0  1  0  0  0  0  0  0  0  0  0
   40.8489   34.5426   47.6620 C   0  0  1  0  0  0  0  0  0  0  0  0
   41.0910   35.9350   47.6868 O   0  0  0  0  0  0  0  0  0  0  0  0
   40.0201   36.6239   47.1220 C   0  0  0  0  0  0  0  0  0  0  0  0
   40.1616   36.3842   45.6141 C   0  0  2  0  0  0  0  0  0  0  0  0
   39.4052   37.2523   44.8706 O   0  0  0  0  0  0  0  0  0  0  0  0
   39.7775   34.9395   45.4070 C   0  0  1  0  0  0  0  0  0  0  0  0
   40.0006   34.5875   44.0624 O   0  0  0  0  0  0  0  0  0  0  0  0
   41.8215   33.5341   44.7326 H   0  0  0  0  0  0  0  0  0  0  0  0
   40.2588   33.0272   46.3057 H   0  0  0  0  0  0  0  0  0  0  0  0
   41.8184   34.0994   47.9714 H   0  0  0  0  0  0  0  0  0  0  0  0
   40.0785   37.6822   47.3742 H   0  0  0  0  0  0  0  0  0  0  0  0
   39.0498   36.1910   47.4618 H   0  0  0  0  0  0  0  0  0  0  0  0
   41.2501   36.4820   45.3916 H   0  0  0  0  0  0  0  0  0  0  0  0
   39.8853   38.1363   44.8508 H   0  0  0  0  0  0  0  0  0  0  0  0
   38.6978   34.8095   45.5934 H   0  0  0  0  0  0  0  0  0  0  0  0
   39.4911   35.1424   43.4334 H   0  0  0  0  0  0  0  0  0  0  0  0
  2  7  2  0
  2  1  1  0
  3  2  1  0
  4  5  1  0
  4  3  2  0
  5  6  2  0
  6  7  1  0
  8 13  2  0
  9 14  1  0
  9  8  1  0
 10 11  1  0
 10  9  2  0
 11 12  2  0
 12  3  1  0
 12 13  1  0
  4 15  1  0
  5 16  1  0
  6 17  1  0
  7 18  1  0
  8 19  1  0
 10 20  1  0
 21 22  1  0
 22 23  1  0
 23 24  1  0
 24 25  1  0
 25 26  1  0
 26 27  1  0
 26 28  1  0
 28 29  1  0
 28 22  1  0
 21 30  1  0
 22 31  1  1
 23 32  1  1
 25 33  1  0
 25 34  1  0
 26 35  1  6
 27 36  1  0
 28 37  1  1
 29 38  1  0
 14 23  1  0
M  ISO  6  15  14  16  14  17  14  18  14  19  14  20  14
M  END
>  <DihAtoms>  (1) 
8,13,22,21

>  <DihDeg>  (1) 
122.46154558807362

$$$$
