REMARK  Name = 
REMARK  5 active torsions:
REMARK  status: ('A' for Active; 'I' for Inactive)
REMARK    1  A    between atoms: N_1  and  C_10
REMARK    2  A    between atoms: C_9  and  C_22
REMARK    3  A    between atoms: O_20  and  C_21
REMARK    4  A    between atoms: C_25  and  O_26
REMARK    5  A    between atoms: C_27  and  O_28
REMARK                            x       y       z     vdW  Elec       q    Type
REMARK                         _______ _______ _______ _____ _____    ______ ____
ROOT
ATOM      1  C   UNL     1      36.219  29.233  49.366  0.00  0.00    +0.000 A 
ATOM      2  C   UNL     1      36.039  30.360  48.522  0.00  0.00    +0.000 A 
ATOM      3  C   UNL     1      34.911  30.393  47.699  0.00  0.00    +0.000 A 
ATOM      4  N   UNL     1      34.036  29.359  47.735  0.00  0.00    +0.000 NA
ATOM      5  C   UNL     1      34.226  28.295  48.548  0.00  0.00    +0.000 A 
ATOM      6  N   UNL     1      35.315  28.224  49.366  0.00  0.00    +0.000 NA
ATOM      7  H   UNL     1      34.788  31.262  47.060  0.00  0.00    +0.000 HD
ATOM      8  H   UNL     1      33.493  27.488  48.541  0.00  0.00    +0.000 HD
ENDROOT
BRANCH   2   9
ATOM      9  N   UNL     1      37.008  31.390  48.563  0.00  0.00    +0.000 N 
ATOM     10  C   UNL     1      37.187  32.156  49.643  0.00  0.00    +0.000 A 
ATOM     11  C   UNL     1      38.141  33.158  49.675  0.00  0.00    +0.000 A 
ATOM     12  C   UNL     1      38.862  33.265  48.488  0.00  0.00    +0.000 A 
ATOM     13  O   UNL     1      39.751  34.175  48.474  0.00  0.00    +0.000 OA
ATOM     14  N   UNL     1      38.716  32.518  47.380  0.00  0.00    +0.000 N 
ATOM     15  C   UNL     1      37.759  31.570  47.456  0.00  0.00    +0.000 A 
ATOM     16  O   UNL     1      37.607  30.856  46.417  0.00  0.00    +0.000 OA
ATOM     17  H   UNL     1      36.577  32.005  50.510  0.00  0.00    +0.000 HD
ATOM     18  H   UNL     1      38.340  33.810  50.505  0.00  0.00    +0.000 HD
ATOM     19  H   UNL     1      39.305  32.684  46.556  0.00  0.00    +0.000 HD
ENDBRANCH   2   9
BRANCH   1  21
ATOM     20  C   UNL     1      37.861  30.248  50.976  0.00  0.00    +0.000 C 
ATOM     21  C   UNL     1      37.346  29.023  50.289  0.00  0.00    +0.000 C 
ATOM     22  O   UNL     1      38.452  28.403  49.716  0.00  0.00    +0.000 OA
ATOM     23  C   UNL     1      39.409  28.202  50.663  0.00  0.00    +0.000 C 
ATOM     24  C   UNL     1      39.030  28.433  52.091  0.00  0.00    +0.000 C 
ATOM     25  C   UNL     1      38.424  29.794  52.339  0.00  0.00    +0.000 C 
BRANCH  20  26
ATOM     26  O   UNL     1      36.855  31.171  51.114  0.00  0.00    +0.000 OA
ATOM     27  H   UNL     1      37.263  32.013  51.455  0.00  0.00    +0.000 HD
ENDBRANCH  20  26
BRANCH  24  28
ATOM     28  O   UNL     1      40.211  28.375  52.841  0.00  0.00    +0.000 OA
ATOM     29  H   UNL     1      40.746  27.557  52.625  0.00  0.00    +0.000 HD
ENDBRANCH  24  28
BRANCH  25  30
ATOM     30  O   UNL     1      39.350  30.727  52.807  0.00  0.00    +0.000 OA
ATOM     31  H   UNL     1      40.221  30.305  52.905  0.00  0.00    +0.000 HD
ENDBRANCH  25  30
ENDBRANCH   1  21
TORSDOF 5
