
 OpenBabel03272509063D

 36 38  0  0  1  0  0  0  0  0999 V2000
   39.6180   27.0940   32.9420 C   0  0  0  0  0  0  0  0  0  0  0  0
   39.7670   26.5470   34.2530 C   0  0  0  0  0  0  0  0  0  0  0  0
   39.0750   25.3570   34.5640 C   0  0  0  0  0  0  0  0  0  0  0  0
   38.3020   24.7940   33.5920 N   0  0  0  0  0  0  0  0  0  0  0  0
   38.1990   25.3570   32.3720 C   0  0  0  0  0  0  0  0  0  0  0  0
   38.8420   26.4890   32.0370 N   0  0  0  0  0  0  0  0  0  0  0  0
   40.1780   28.0050   32.7860 H   0  0  0  0  0  0  0  0  0  0  0  0
   40.3860   27.0060   35.0180 H   0  0  0  0  0  0  0  0  0  0  0  0
   39.6710   23.3410   35.7420 C   0  0  2  0  0  3  0  0  0  0  0  0
   39.2020   24.7510   35.9150 C   0  0  2  0  0  3  0  0  0  0  0  0
   37.9490   24.8430   36.5030 O   0  0  0  0  0  0  0  0  0  0  0  0
   37.7750   24.1100   37.6410 C   0  0  0  0  0  2  0  0  0  0  0  0
   38.9680   23.3140   38.0830 C   0  0  2  0  0  3  0  0  0  0  0  0
   39.3510   22.4330   36.9070 C   0  0  2  0  0  3  0  0  0  0  0  0
   41.0570   23.3510   35.5820 O   0  0  0  0  0  0  0  0  0  0  0  0
   41.2840   22.9500   34.7180 H   0  0  0  0  0  0  0  0  0  0  0  0
   38.5480   22.4940   39.1360 O   0  0  0  0  0  0  0  0  0  0  0  0
   37.7670   21.9680   38.8550 H   0  0  0  0  0  0  0  0  0  0  0  0
   40.3770   21.5780   37.2430 O   0  0  0  0  0  0  0  0  0  0  0  0
   41.2030   22.0660   37.4540 H   0  0  0  0  0  0  0  0  0  0  0  0
   37.3340   24.6640   31.4290 C   0  0  0  0  0  3  0  0  0  0  0  0
   36.6680   23.6390   31.8450 C   0  0  0  0  0  3  0  0  0  0  0  0
   35.7260   22.7890   31.0970 C   0  0  0  0  0  0  0  0  0  0  0  0
   34.6860   23.1490   31.3420 H   0  0  0  0  0  0  0  0  0  0  0  0
   35.8210   22.8920   30.0010 H   0  0  0  0  0  0  0  0  0  0  0  0
   35.7460   21.3540   31.5190 C   0  0  0  0  0  0  0  0  0  0  0  0
   36.0580   20.2800   30.7150 C   0  0  0  0  0  0  0  0  0  0  0  0
   36.0370   19.0020   31.2490 C   0  0  0  0  0  0  0  0  0  0  0  0
   35.7080   18.7650   32.5780 C   0  0  0  0  0  0  0  0  0  0  0  0
   35.3950   19.8330   33.3830 C   0  0  0  0  0  0  0  0  0  0  0  0
   35.4140   21.1210   32.8560 C   0  0  0  0  0  0  0  0  0  0  0  0
   36.3080   20.5130   29.6890 H   0  0  0  0  0  0  0  0  0  0  0  0
   36.2990   18.2460   30.5210 H   0  0  0  0  0  0  0  0  0  0  0  0
   35.7270   17.7240   32.8710 H   0  0  0  0  0  0  0  0  0  0  0  0
   35.1440   19.6160   34.4120 H   0  0  0  0  0  0  0  0  0  0  0  0
   35.1560   21.9010   33.5610 H   0  0  0  0  0  0  0  0  0  0  0  0
  1  2  1  0  0  0  0
  2  3  2  0  0  0  0
  2  8  1  0  0  0  0
  4  3  1  0  0  0  0
  5  4  2  0  0  0  0
  6  5  1  0  0  0  0
  6  1  2  0  0  0  0
  7  1  1  0  0  0  0
  9 15  1  1  0  0  0
  9 10  1  0  0  0  0
  9 14  1  0  0  0  0
 10  3  1  6  0  0  0
 10 11  1  0  0  0  0
 11 12  1  0  0  0  0
 12 13  1  0  0  0  0
 13 17  1  1  0  0  0
 14 19  1  1  0  0  0
 14 13  1  0  0  0  0
 16 15  1  0  0  0  0
 18 17  1  0  0  0  0
 19 20  1  0  0  0  0
 21 22  2  0  0  0  0
 21  5  1  0  0  0  0
 23 24  1  0  0  0  0
 23 26  1  0  0  0  0
 23 22  1  0  0  0  0
 25 23  1  0  0  0  0
 26 31  1  0  0  0  0
 27 28  1  0  0  0  0
 27 26  2  0  0  0  0
 28 29  2  0  0  0  0
 29 34  1  0  0  0  0
 29 30  1  0  0  0  0
 30 35  1  0  0  0  0
 31 30  2  0  0  0  0
 31 36  1  0  0  0  0
 32 27  1  0  0  0  0
 33 28  1  0  0  0  0
M  END
>  <minimizedAffinity>
-6.63994884

$$$$

 OpenBabel03272509063D

 36 38  0  0  1  0  0  0  0  0999 V2000
   39.4360   26.2220   32.4720 C   0  0  0  0  0  0  0  0  0  0  0  0
   39.7650   25.0540   33.2240 C   0  0  0  0  0  0  0  0  0  0  0  0
   39.1360   24.8620   34.4730 C   0  0  0  0  0  0  0  0  0  0  0  0
   38.2470   25.8070   34.8920 N   0  0  0  0  0  0  0  0  0  0  0  0
   37.9780   26.8910   34.1390 C   0  0  0  0  0  0  0  0  0  0  0  0
   38.5550   27.1100   32.9450 N   0  0  0  0  0  0  0  0  0  0  0  0
   39.9610   26.2940   31.5300 H   0  0  0  0  0  0  0  0  0  0  0  0
   40.4750   24.3080   32.8780 H   0  0  0  0  0  0  0  0  0  0  0  0
   38.9290   23.8980   36.6720 C   0  0  2  0  0  3  0  0  0  0  0  0
   39.4460   23.6590   35.2890 C   0  0  2  0  0  3  0  0  0  0  0  0
   40.8240   23.4990   35.2400 O   0  0  0  0  0  0  0  0  0  0  0  0
   41.3470   22.6120   36.1350 C   0  0  0  0  0  2  0  0  0  0  0  0
   40.3520   21.9450   37.0390 C   0  0  2  0  0  3  0  0  0  0  0  0
   39.5980   23.0620   37.7380 C   0  0  2  0  0  3  0  0  0  0  0  0
   37.5650   23.6000   36.6930 O   0  0  0  0  0  0  0  0  0  0  0  0
   37.0660   24.3990   36.9620 H   0  0  0  0  0  0  0  0  0  0  0  0
   41.0800   21.2310   37.9970 O   0  0  0  0  0  0  0  0  0  0  0  0
   41.7210   21.8300   38.4400 H   0  0  0  0  0  0  0  0  0  0  0  0
   38.7250   22.5580   38.6770 O   0  0  0  0  0  0  0  0  0  0  0  0
   38.0180   22.0160   38.2620 H   0  0  0  0  0  0  0  0  0  0  0  0
   37.0200   27.8300   34.7050 C   0  0  0  0  0  3  0  0  0  0  0  0
   36.1490   28.3690   33.9180 C   0  0  0  0  0  3  0  0  0  0  0  0
   35.0790   29.3250   34.2480 C   0  0  0  0  0  0  0  0  0  0  0  0
   34.4090   29.4010   33.3450 H   0  0  0  0  0  0  0  0  0  0  0  0
   34.4250   28.9820   35.0700 H   0  0  0  0  0  0  0  0  0  0  0  0
   35.5690   30.7190   34.4810 C   0  0  0  0  0  0  0  0  0  0  0  0
   35.8840   31.2710   35.7020 C   0  0  0  0  0  0  0  0  0  0  0  0
   36.3310   32.5810   35.7620 C   0  0  0  0  0  0  0  0  0  0  0  0
   36.4730   33.3630   34.6230 C   0  0  0  0  0  0  0  0  0  0  0  0
   36.1590   32.8170   33.4020 C   0  0  0  0  0  0  0  0  0  0  0  0
   35.7100   31.5020   33.3320 C   0  0  0  0  0  0  0  0  0  0  0  0
   35.7590   30.6260   36.5620 H   0  0  0  0  0  0  0  0  0  0  0  0
   36.5450   32.8990   36.7750 H   0  0  0  0  0  0  0  0  0  0  0  0
   36.8290   34.3680   34.8040 H   0  0  0  0  0  0  0  0  0  0  0  0
   36.2800   33.4510   32.5350 H   0  0  0  0  0  0  0  0  0  0  0  0
   35.4870   31.1540   32.3310 H   0  0  0  0  0  0  0  0  0  0  0  0
  1  6  2  0  0  0  0
  1  2  1  0  0  0  0
  2  3  2  0  0  0  0
  3  4  1  0  0  0  0
  5 21  1  0  0  0  0
  5  4  2  0  0  0  0
  6  5  1  0  0  0  0
  7  1  1  0  0  0  0
  8  2  1  0  0  0  0
  9 15  1  6  0  0  0
  9 14  1  0  0  0  0
 10  3  1  6  0  0  0
 10  9  1  0  0  0  0
 11 10  1  0  0  0  0
 11 12  1  0  0  0  0
 12 13  1  0  0  0  0
 13 14  1  0  0  0  0
 13 17  1  1  0  0  0
 14 19  1  1  0  0  0
 15 16  1  0  0  0  0
 17 18  1  0  0  0  0
 20 19  1  0  0  0  0
 22 23  1  0  0  0  0
 22 21  2  0  0  0  0
 23 26  1  0  0  0  0
 23 25  1  0  0  0  0
 24 23  1  0  0  0  0
 26 27  1  0  0  0  0
 27 28  2  0  0  0  0
 27 32  1  0  0  0  0
 28 33  1  0  0  0  0
 29 34  1  0  0  0  0
 29 28  1  0  0  0  0
 30 29  2  0  0  0  0
 31 30  1  0  0  0  0
 31 26  2  0  0  0  0
 35 30  1  0  0  0  0
 36 31  1  0  0  0  0
M  END
>  <minimizedAffinity>
-6.59619331

$$$$

 OpenBabel03272509063D

 36 38  0  0  1  0  0  0  0  0999 V2000
   37.6630   25.9020   32.3230 C   0  0  0  0  0  0  0  0  0  0  0  0
   38.1380   24.7890   33.0820 C   0  0  0  0  0  0  0  0  0  0  0  0
   38.1390   24.8900   34.4900 C   0  0  0  0  0  0  0  0  0  0  0  0
   37.6860   26.0480   35.0480 N   0  0  0  0  0  0  0  0  0  0  0  0
   37.2510   27.0660   34.2800 C   0  0  0  0  0  0  0  0  0  0  0  0
   37.2330   27.0090   32.9370 N   0  0  0  0  0  0  0  0  0  0  0  0
   37.6960   25.7440   31.2550 H   0  0  0  0  0  0  0  0  0  0  0  0
   38.4960   23.8710   32.6250 H   0  0  0  0  0  0  0  0  0  0  0  0
   38.3600   24.0930   36.7530 C   0  0  2  0  0  3  0  0  0  0  0  0
   38.6230   23.7560   35.3200 C   0  0  2  0  0  3  0  0  0  0  0  0
   39.9720   23.6070   35.0300 O   0  0  0  0  0  0  0  0  0  0  0  0
   40.6720   22.7970   35.8750 C   0  0  0  0  0  2  0  0  0  0  0  0
   39.8740   22.1890   36.9930 C   0  0  2  0  0  3  0  0  0  0  0  0
   39.2330   23.3470   37.7360 C   0  0  2  0  0  3  0  0  0  0  0  0
   37.0310   23.7820   37.0460 O   0  0  0  0  0  0  0  0  0  0  0  0
   36.5690   24.5920   37.3430 H   0  0  0  0  0  0  0  0  0  0  0  0
   40.7820   21.5570   37.8500 O   0  0  0  0  0  0  0  0  0  0  0  0
   41.4780   22.1950   38.1230 H   0  0  0  0  0  0  0  0  0  0  0  0
   38.5580   22.9050   38.8530 O   0  0  0  0  0  0  0  0  0  0  0  0
   37.8010   22.3260   38.6150 H   0  0  0  0  0  0  0  0  0  0  0  0
   36.8040   28.2510   34.9980 C   0  0  0  0  0  3  0  0  0  0  0  0
   36.1520   29.1560   34.3450 C   0  0  0  0  0  3  0  0  0  0  0  0
   35.5880   30.4210   34.8430 C   0  0  0  0  0  0  0  0  0  0  0  0
   36.1830   30.7160   35.7540 H   0  0  0  0  0  0  0  0  0  0  0  0
   35.7030   31.2600   34.1340 H   0  0  0  0  0  0  0  0  0  0  0  0
   34.1780   30.3010   35.3280 C   0  0  0  0  0  0  0  0  0  0  0  0
   33.2440   29.3950   34.8780 C   0  0  0  0  0  0  0  0  0  0  0  0
   31.9710   29.4000   35.4260 C   0  0  0  0  0  0  0  0  0  0  0  0
   31.6020   30.2960   36.4210 C   0  0  0  0  0  0  0  0  0  0  0  0
   32.5300   31.2030   36.8720 C   0  0  0  0  0  0  0  0  0  0  0  0
   33.8110   31.2050   36.3280 C   0  0  0  0  0  0  0  0  0  0  0  0
   33.5760   28.7160   34.1030 H   0  0  0  0  0  0  0  0  0  0  0  0
   31.3310   28.6430   34.9920 H   0  0  0  0  0  0  0  0  0  0  0  0
   30.5810   30.1990   36.7640 H   0  0  0  0  0  0  0  0  0  0  0  0
   32.2120   31.8880   37.6460 H   0  0  0  0  0  0  0  0  0  0  0  0
   34.4770   31.9520   36.7430 H   0  0  0  0  0  0  0  0  0  0  0  0
  1  6  2  0  0  0  0
  1  2  1  0  0  0  0
  2  3  2  0  0  0  0
  3  4  1  0  0  0  0
  5 21  1  0  0  0  0
  5  4  2  0  0  0  0
  6  5  1  0  0  0  0
  7  1  1  0  0  0  0
  8  2  1  0  0  0  0
  9 15  1  1  0  0  0
  9 14  1  0  0  0  0
 10  3  1  6  0  0  0
 10  9  1  0  0  0  0
 11 10  1  0  0  0  0
 11 12  1  0  0  0  0
 12 13  1  0  0  0  0
 13 14  1  0  0  0  0
 13 17  1  1  0  0  0
 14 19  1  1  0  0  0
 15 16  1  0  0  0  0
 17 18  1  0  0  0  0
 20 19  1  0  0  0  0
 22 23  1  0  0  0  0
 22 21  2  0  0  0  0
 23 26  1  0  0  0  0
 23 24  1  0  0  0  0
 25 23  1  0  0  0  0
 26 31  1  0  0  0  0
 27 26  2  0  0  0  0
 27 28  1  0  0  0  0
 28 29  2  0  0  0  0
 29 34  1  0  0  0  0
 29 30  1  0  0  0  0
 30 35  1  0  0  0  0
 31 36  1  0  0  0  0
 31 30  2  0  0  0  0
 32 27  1  0  0  0  0
 33 28  1  0  0  0  0
M  END
>  <minimizedAffinity>
-6.21348858

$$$$

 OpenBabel03272509063D

 36 38  0  0  1  0  0  0  0  0999 V2000
   37.1200   25.7680   32.4830 C   0  0  0  0  0  0  0  0  0  0  0  0
   37.8330   25.0230   33.4710 C   0  0  0  0  0  0  0  0  0  0  0  0
   37.9610   25.5770   34.7630 C   0  0  0  0  0  0  0  0  0  0  0  0
   37.3960   26.7960   34.9950 N   0  0  0  0  0  0  0  0  0  0  0  0
   36.7350   27.4530   34.0210 C   0  0  0  0  0  0  0  0  0  0  0  0
   36.5910   26.9590   32.7790 N   0  0  0  0  0  0  0  0  0  0  0  0
   37.0680   25.2760   31.5220 H   0  0  0  0  0  0  0  0  0  0  0  0
   38.2780   24.0530   33.2730 H   0  0  0  0  0  0  0  0  0  0  0  0
   39.8830   24.1880   35.1910 C   0  0  2  0  0  3  0  0  0  0  0  0
   38.6930   24.8370   35.8240 C   0  0  2  0  0  3  0  0  0  0  0  0
   37.7920   23.9260   36.3570 O   0  0  0  0  0  0  0  0  0  0  0  0
   38.3300   22.9650   37.1620 C   0  0  0  0  0  2  0  0  0  0  0  0
   39.8180   23.0380   37.3470 C   0  0  2  0  0  3  0  0  0  0  0  0
   40.4220   23.0000   35.9540 C   0  0  2  0  0  3  0  0  0  0  0  0
   40.9070   25.1320   35.0990 O   0  0  0  0  0  0  0  0  0  0  0  0
   41.1580   25.2440   34.1590 H   0  0  0  0  0  0  0  0  0  0  0  0
   40.2050   21.8810   38.0320 O   0  0  0  0  0  0  0  0  0  0  0  0
   39.8740   21.0880   37.5560 H   0  0  0  0  0  0  0  0  0  0  0  0
   41.7970   22.9550   36.0130 O   0  0  0  0  0  0  0  0  0  0  0  0
   42.1710   23.7710   36.4120 H   0  0  0  0  0  0  0  0  0  0  0  0
   36.1880   28.7490   34.3940 C   0  0  0  0  0  3  0  0  0  0  0  0
   35.7820   29.5380   33.4550 C   0  0  0  0  0  3  0  0  0  0  0  0
   35.1830   30.8780   33.5760 C   0  0  0  0  0  0  0  0  0  0  0  0
   36.0290   31.6230   33.5630 H   0  0  0  0  0  0  0  0  0  0  0  0
   34.5420   31.1490   32.7190 H   0  0  0  0  0  0  0  0  0  0  0  0
   34.4870   31.1090   34.8790 C   0  0  0  0  0  0  0  0  0  0  0  0
   33.2660   30.5880   35.2460 C   0  0  0  0  0  0  0  0  0  0  0  0
   32.7450   30.8900   36.4940 C   0  0  0  0  0  0  0  0  0  0  0  0
   33.4160   31.7070   37.3940 C   0  0  0  0  0  0  0  0  0  0  0  0
   34.6340   32.2310   37.0320 C   0  0  0  0  0  0  0  0  0  0  0  0
   35.1650   31.9330   35.7810 C   0  0  0  0  0  0  0  0  0  0  0  0
   32.7800   29.9570   34.5140 H   0  0  0  0  0  0  0  0  0  0  0  0
   31.7840   30.4220   36.6650 H   0  0  0  0  0  0  0  0  0  0  0  0
   32.9030   31.8660   38.3330 H   0  0  0  0  0  0  0  0  0  0  0  0
   35.1310   32.8630   37.7540 H   0  0  0  0  0  0  0  0  0  0  0  0
   36.1280   32.3870   35.5800 H   0  0  0  0  0  0  0  0  0  0  0  0
  1  6  2  0  0  0  0
  1  2  1  0  0  0  0
  2  3  2  0  0  0  0
  3  4  1  0  0  0  0
  5 21  1  0  0  0  0
  5  4  2  0  0  0  0
  6  5  1  0  0  0  0
  7  1  1  0  0  0  0
  8  2  1  0  0  0  0
  9 15  1  1  0  0  0
  9 10  1  0  0  0  0
  9 14  1  0  0  0  0
 10  3  1  6  0  0  0
 10 11  1  0  0  0  0
 11 12  1  0  0  0  0
 12 13  1  0  0  0  0
 13 17  1  1  0  0  0
 14 19  1  1  0  0  0
 14 13  1  0  0  0  0
 16 15  1  0  0  0  0
 18 17  1  0  0  0  0
 19 20  1  0  0  0  0
 22 23  1  0  0  0  0
 22 21  2  0  0  0  0
 23 26  1  0  0  0  0
 24 23  1  0  0  0  0
 25 23  1  0  0  0  0
 26 27  2  0  0  0  0
 26 31  1  0  0  0  0
 27 28  1  0  0  0  0
 28 33  1  0  0  0  0
 28 29  2  0  0  0  0
 29 34  1  0  0  0  0
 30 29  1  0  0  0  0
 30 35  1  0  0  0  0
 31 30  2  0  0  0  0
 32 27  1  0  0  0  0
 36 31  1  0  0  0  0
M  END
>  <minimizedAffinity>
-6.20072746

$$$$

 OpenBabel03272509063D

 36 38  0  0  1  0  0  0  0  0999 V2000
   38.4960   24.5910   31.8100 C   0  0  0  0  0  0  0  0  0  0  0  0
   38.7460   24.1770   33.1530 C   0  0  0  0  0  0  0  0  0  0  0  0
   38.4590   25.0830   34.1970 C   0  0  0  0  0  0  0  0  0  0  0  0
   37.9590   26.3060   33.8620 N   0  0  0  0  0  0  0  0  0  0  0  0
   37.7450   26.6420   32.5750 C   0  0  0  0  0  0  0  0  0  0  0  0
   38.0040   25.8080   31.5530 N   0  0  0  0  0  0  0  0  0  0  0  0
   38.7430   23.8420   31.0720 H   0  0  0  0  0  0  0  0  0  0  0  0
   39.1450   23.2000   33.4060 H   0  0  0  0  0  0  0  0  0  0  0  0
   39.7470   23.6240   35.6190 C   0  0  2  0  0  3  0  0  0  0  0  0
   38.7020   24.6940   35.6110 C   0  0  2  0  0  3  0  0  0  0  0  0
   37.4800   24.2700   36.1140 O   0  0  0  0  0  0  0  0  0  0  0  0
   37.5280   23.6210   37.3130 C   0  0  0  0  0  2  0  0  0  0  0  0
   38.8980   23.4620   37.9060 C   0  0  2  0  0  3  0  0  0  0  0  0
   39.7360   22.7550   36.8550 C   0  0  2  0  0  3  0  0  0  0  0  0
   41.0020   24.2280   35.5370 O   0  0  0  0  0  0  0  0  0  0  0  0
   41.4620   23.9050   34.7350 H   0  0  0  0  0  0  0  0  0  0  0  0
   38.7720   22.6200   39.0160 O   0  0  0  0  0  0  0  0  0  0  0  0
   38.3250   21.7860   38.7500 H   0  0  0  0  0  0  0  0  0  0  0  0
   40.9920   22.4630   37.3390 O   0  0  0  0  0  0  0  0  0  0  0  0
   41.5020   23.2770   37.5410 H   0  0  0  0  0  0  0  0  0  0  0  0
   37.2190   27.9800   32.3510 C   0  0  0  0  0  3  0  0  0  0  0  0
   35.9920   28.2200   32.6780 C   0  0  0  0  0  3  0  0  0  0  0  0
   35.2410   29.4830   32.5650 C   0  0  0  0  0  0  0  0  0  0  0  0
   35.5460   29.9660   31.5940 H   0  0  0  0  0  0  0  0  0  0  0  0
   34.1490   29.3360   32.4890 H   0  0  0  0  0  0  0  0  0  0  0  0
   35.5900   30.4840   33.6200 C   0  0  0  0  0  0  0  0  0  0  0  0
   35.7010   30.2320   34.9690 C   0  0  0  0  0  0  0  0  0  0  0  0
   36.0350   31.2650   35.8300 C   0  0  0  0  0  0  0  0  0  0  0  0
   36.2620   32.5570   35.3740 C   0  0  0  0  0  0  0  0  0  0  0  0
   36.1520   32.8140   34.0290 C   0  0  0  0  0  0  0  0  0  0  0  0
   35.8170   31.7830   33.1570 C   0  0  0  0  0  0  0  0  0  0  0  0
   35.5150   29.2110   35.2770 H   0  0  0  0  0  0  0  0  0  0  0  0
   36.0910   30.9410   36.8610 H   0  0  0  0  0  0  0  0  0  0  0  0
   36.5140   33.2720   36.1450 H   0  0  0  0  0  0  0  0  0  0  0  0
   36.3340   33.8300   33.7060 H   0  0  0  0  0  0  0  0  0  0  0  0
   35.7520   32.0750   32.1160 H   0  0  0  0  0  0  0  0  0  0  0  0
  1  2  1  0  0  0  0
  2  8  1  0  0  0  0
  2  3  2  0  0  0  0
  4  3  1  0  0  0  0
  5  4  2  0  0  0  0
  6  1  2  0  0  0  0
  6  5  1  0  0  0  0
  7  1  1  0  0  0  0
  9 15  1  1  0  0  0
  9 14  1  0  0  0  0
 10  3  1  6  0  0  0
 10  9  1  0  0  0  0
 10 11  1  0  0  0  0
 11 12  1  0  0  0  0
 12 13  1  0  0  0  0
 13 17  1  1  0  0  0
 14 19  1  1  0  0  0
 14 13  1  0  0  0  0
 16 15  1  0  0  0  0
 18 17  1  0  0  0  0
 19 20  1  0  0  0  0
 21  5  1  0  0  0  0
 21 22  2  0  0  0  0
 23 22  1  0  0  0  0
 23 26  1  0  0  0  0
 24 23  1  0  0  0  0
 25 23  1  0  0  0  0
 26 27  1  0  0  0  0
 27 32  1  0  0  0  0
 27 28  2  0  0  0  0
 28 33  1  0  0  0  0
 29 28  1  0  0  0  0
 29 34  1  0  0  0  0
 30 29  2  0  0  0  0
 31 26  2  0  0  0  0
 31 30  1  0  0  0  0
 35 30  1  0  0  0  0
 36 31  1  0  0  0  0
M  END
>  <minimizedAffinity>
-6.13915062

$$$$

 OpenBabel03272509063D

 36 38  0  0  1  0  0  0  0  0999 V2000
   34.7130   30.0320   33.8440 C   0  0  0  0  0  0  0  0  0  0  0  0
   35.0260   30.2860   32.4740 C   0  0  0  0  0  0  0  0  0  0  0  0
   36.0230   29.5010   31.8570 C   0  0  0  0  0  0  0  0  0  0  0  0
   36.6330   28.5400   32.6070 N   0  0  0  0  0  0  0  0  0  0  0  0
   36.2970   28.3460   33.8970 C   0  0  0  0  0  0  0  0  0  0  0  0
   35.3530   29.0720   34.5200 N   0  0  0  0  0  0  0  0  0  0  0  0
   33.9420   30.6770   34.2400 H   0  0  0  0  0  0  0  0  0  0  0  0
   34.5320   31.0560   31.8880 H   0  0  0  0  0  0  0  0  0  0  0  0
   37.2210   28.5780   29.9810 C   0  0  2  0  0  3  0  0  0  0  0  0
   36.3790   29.7290   30.4320 C   0  0  2  0  0  3  0  0  0  0  0  0
   37.0450   30.9460   30.3870 O   0  0  0  0  0  0  0  0  0  0  0  0
   37.6920   31.2220   29.2180 C   0  0  0  0  0  2  0  0  0  0  0  0
   37.5850   30.1650   28.1570 C   0  0  2  0  0  3  0  0  0  0  0  0
   38.0960   28.8800   28.7860 C   0  0  2  0  0  3  0  0  0  0  0  0
   36.3790   27.5210   29.6340 O   0  0  0  0  0  0  0  0  0  0  0  0
   36.5910   26.7440   30.1910 H   0  0  0  0  0  0  0  0  0  0  0  0
   38.4540   30.5300   27.1230 O   0  0  0  0  0  0  0  0  0  0  0  0
   39.3560   30.6800   27.4850 H   0  0  0  0  0  0  0  0  0  0  0  0
   38.1410   27.8610   27.8600 O   0  0  0  0  0  0  0  0  0  0  0  0
   37.2450   27.6260   27.5330 H   0  0  0  0  0  0  0  0  0  0  0  0
   37.0310   27.2960   34.5890 C   0  0  0  0  0  3  0  0  0  0  0  0
   38.2840   27.4850   34.8400 C   0  0  0  0  0  3  0  0  0  0  0  0
   39.2280   26.5920   35.5320 C   0  0  0  0  0  0  0  0  0  0  0  0
   40.1050   26.4350   34.8430 H   0  0  0  0  0  0  0  0  0  0  0  0
   39.6520   27.0330   36.4520 H   0  0  0  0  0  0  0  0  0  0  0  0
   38.6840   25.2210   35.7800 C   0  0  0  0  0  0  0  0  0  0  0  0
   38.0570   24.7960   36.9300 C   0  0  0  0  0  0  0  0  0  0  0  0
   37.6020   23.4900   37.0140 C   0  0  0  0  0  0  0  0  0  0  0  0
   37.7580   22.5870   35.9700 C   0  0  0  0  0  0  0  0  0  0  0  0
   38.3840   23.0060   34.8210 C   0  0  0  0  0  0  0  0  0  0  0  0
   38.8450   24.3160   34.7270 C   0  0  0  0  0  0  0  0  0  0  0  0
   37.9570   25.5330   37.7160 H   0  0  0  0  0  0  0  0  0  0  0  0
   37.1280   23.2780   37.9640 H   0  0  0  0  0  0  0  0  0  0  0  0
   37.3610   21.6000   36.1610 H   0  0  0  0  0  0  0  0  0  0  0  0
   38.4910   22.2800   34.0270 H   0  0  0  0  0  0  0  0  0  0  0  0
   39.3240   24.5590   33.7870 H   0  0  0  0  0  0  0  0  0  0  0  0
  1  7  1  0  0  0  0
  1  6  1  0  0  0  0
  2  1  2  0  0  0  0
  3  2  1  0  0  0  0
  3  4  2  0  0  0  0
  4  5  1  0  0  0  0
  5  6  2  0  0  0  0
  5 21  1  0  0  0  0
  8  2  1  0  0  0  0
  9 15  1  6  0  0  0
  9 10  1  0  0  0  0
 10  3  1  1  0  0  0
 11 10  1  0  0  0  0
 12 11  1  0  0  0  0
 13 17  1  6  0  0  0
 13 14  1  0  0  0  0
 13 12  1  0  0  0  0
 14 19  1  6  0  0  0
 14  9  1  0  0  0  0
 15 16  1  0  0  0  0
 17 18  1  0  0  0  0
 20 19  1  0  0  0  0
 21 22  2  0  0  0  0
 22 23  1  0  0  0  0
 23 26  1  0  0  0  0
 23 25  1  0  0  0  0
 24 23  1  0  0  0  0
 26 27  1  0  0  0  0
 27 28  2  0  0  0  0
 27 32  1  0  0  0  0
 28 33  1  0  0  0  0
 29 34  1  0  0  0  0
 29 28  1  0  0  0  0
 30 29  2  0  0  0  0
 31 30  1  0  0  0  0
 31 26  2  0  0  0  0
 35 30  1  0  0  0  0
 36 31  1  0  0  0  0
M  END
>  <minimizedAffinity>
-5.93874502

$$$$

 OpenBabel03272509063D

 36 38  0  0  1  0  0  0  0  0999 V2000
   37.2060   24.0610   31.8580 C   0  0  0  0  0  0  0  0  0  0  0  0
   37.8140   23.1880   32.8110 C   0  0  0  0  0  0  0  0  0  0  0  0
   38.1490   23.7090   34.0790 C   0  0  0  0  0  0  0  0  0  0  0  0
   37.8720   25.0210   34.3240 N   0  0  0  0  0  0  0  0  0  0  0  0
   37.2980   25.7980   33.3840 C   0  0  0  0  0  0  0  0  0  0  0  0
   36.9640   25.3400   32.1660 N   0  0  0  0  0  0  0  0  0  0  0  0
   36.9830   23.5860   30.9140 H   0  0  0  0  0  0  0  0  0  0  0  0
   38.0280   22.1440   32.6030 H   0  0  0  0  0  0  0  0  0  0  0  0
   38.5350   23.4500   36.4440 C   0  0  2  0  0  3  0  0  0  0  0  0
   38.7810   22.8360   35.1020 C   0  0  2  0  0  3  0  0  0  0  0  0
   40.1270   22.7600   34.7730 O   0  0  0  0  0  0  0  0  0  0  0  0
   40.9400   22.2260   35.7300 C   0  0  0  0  0  2  0  0  0  0  0  0
   40.2530   21.8010   36.9950 C   0  0  2  0  0  3  0  0  0  0  0  0
   39.5170   23.0260   37.5110 C   0  0  2  0  0  3  0  0  0  0  0  0
   37.2580   23.0830   36.8730 O   0  0  0  0  0  0  0  0  0  0  0  0
   36.7230   23.8900   37.0160 H   0  0  0  0  0  0  0  0  0  0  0  0
   41.2530   21.4640   37.9130 O   0  0  0  0  0  0  0  0  0  0  0  0
   41.8860   22.2110   38.0030 H   0  0  0  0  0  0  0  0  0  0  0  0
   38.9340   22.7750   38.7330 O   0  0  0  0  0  0  0  0  0  0  0  0
   38.2360   22.0870   38.6690 H   0  0  0  0  0  0  0  0  0  0  0  0
   37.0660   27.1830   33.7670 C   0  0  0  0  0  3  0  0  0  0  0  0
   36.2670   27.8960   33.0430 C   0  0  0  0  0  3  0  0  0  0  0  0
   35.8640   29.3000   33.2300 C   0  0  0  0  0  0  0  0  0  0  0  0
   34.7390   29.3170   33.2980 H   0  0  0  0  0  0  0  0  0  0  0  0
   36.2220   29.7340   34.1800 H   0  0  0  0  0  0  0  0  0  0  0  0
   36.1920   30.1780   32.0650 C   0  0  0  0  0  0  0  0  0  0  0  0
   36.5480   29.7500   30.8050 C   0  0  0  0  0  0  0  0  0  0  0  0
   36.8230   30.6860   29.8210 C   0  0  0  0  0  0  0  0  0  0  0  0
   36.7500   32.0520   30.0630 C   0  0  0  0  0  0  0  0  0  0  0  0
   36.3970   32.4830   31.3180 C   0  0  0  0  0  0  0  0  0  0  0  0
   36.1190   31.5510   32.3140 C   0  0  0  0  0  0  0  0  0  0  0  0
   36.5910   28.6780   30.6620 H   0  0  0  0  0  0  0  0  0  0  0  0
   37.0890   30.2270   28.8770 H   0  0  0  0  0  0  0  0  0  0  0  0
   36.9890   32.6760   29.2130 H   0  0  0  0  0  0  0  0  0  0  0  0
   36.3500   33.5520   31.4750 H   0  0  0  0  0  0  0  0  0  0  0  0
   35.8480   31.9790   33.2710 H   0  0  0  0  0  0  0  0  0  0  0  0
  1  6  2  0  0  0  0
  1  2  1  0  0  0  0
  2  3  2  0  0  0  0
  3  4  1  0  0  0  0
  5 21  1  0  0  0  0
  5  4  2  0  0  0  0
  6  5  1  0  0  0  0
  7  1  1  0  0  0  0
  8  2  1  0  0  0  0
  9 15  1  1  0  0  0
  9 14  1  0  0  0  0
 10  3  1  6  0  0  0
 10  9  1  0  0  0  0
 11 10  1  0  0  0  0
 11 12  1  0  0  0  0
 12 13  1  0  0  0  0
 13 14  1  0  0  0  0
 13 17  1  1  0  0  0
 14 19  1  1  0  0  0
 15 16  1  0  0  0  0
 17 18  1  0  0  0  0
 20 19  1  0  0  0  0
 22 23  1  0  0  0  0
 22 21  2  0  0  0  0
 23 24  1  0  0  0  0
 23 25  1  0  0  0  0
 26 31  1  0  0  0  0
 26 23  1  0  0  0  0
 27 26  2  0  0  0  0
 28 29  2  0  0  0  0
 28 27  1  0  0  0  0
 29 30  1  0  0  0  0
 30 35  1  0  0  0  0
 30 31  2  0  0  0  0
 31 36  1  0  0  0  0
 32 27  1  0  0  0  0
 33 28  1  0  0  0  0
 34 29  1  0  0  0  0
M  END
>  <minimizedAffinity>
-5.87428045

$$$$

 OpenBabel03272509063D

 36 38  0  0  1  0  0  0  0  0999 V2000
   37.8540   25.9250   35.5440 C   0  0  0  0  0  0  0  0  0  0  0  0
   37.2360   26.8830   34.6830 C   0  0  0  0  0  0  0  0  0  0  0  0
   37.0920   26.5600   33.3170 C   0  0  0  0  0  0  0  0  0  0  0  0
   37.5520   25.3480   32.8940 N   0  0  0  0  0  0  0  0  0  0  0  0
   38.1270   24.4850   33.7530 C   0  0  0  0  0  0  0  0  0  0  0  0
   38.2830   24.7540   35.0610 N   0  0  0  0  0  0  0  0  0  0  0  0
   37.9260   26.2480   36.5720 H   0  0  0  0  0  0  0  0  0  0  0  0
   36.8740   27.8450   35.0330 H   0  0  0  0  0  0  0  0  0  0  0  0
   37.1930   27.4650   31.0850 C   0  0  2  0  0  3  0  0  0  0  0  0
   36.4540   27.5260   32.3850 C   0  0  2  0  0  3  0  0  0  0  0  0
   36.5280   28.7690   32.9980 O   0  0  0  0  0  0  0  0  0  0  0  0
   36.2400   29.8390   32.2030 C   0  0  0  0  0  2  0  0  0  0  0  0
   35.8870   29.5090   30.7820 C   0  0  2  0  0  3  0  0  0  0  0  0
   37.0510   28.7040   30.2310 C   0  0  2  0  0  3  0  0  0  0  0  0
   36.7060   26.3840   30.3490 O   0  0  0  0  0  0  0  0  0  0  0  0
   37.4410   25.7640   30.1640 H   0  0  0  0  0  0  0  0  0  0  0  0
   35.8140   30.7200   30.0840 O   0  0  0  0  0  0  0  0  0  0  0  0
   36.6470   31.2250   30.2090 H   0  0  0  0  0  0  0  0  0  0  0  0
   36.8770   28.4360   28.8910 O   0  0  0  0  0  0  0  0  0  0  0  0
   36.0950   27.8640   28.7330 H   0  0  0  0  0  0  0  0  0  0  0  0
   38.5850   23.2300   33.1740 C   0  0  0  0  0  3  0  0  0  0  0  0
   37.8760   22.6900   32.2390 C   0  0  0  0  0  3  0  0  0  0  0  0
   38.1330   21.4460   31.4930 C   0  0  0  0  0  0  0  0  0  0  0  0
   38.0270   21.6870   30.3970 H   0  0  0  0  0  0  0  0  0  0  0  0
   39.1650   21.0710   31.6120 H   0  0  0  0  0  0  0  0  0  0  0  0
   37.1240   20.3730   31.7510 C   0  0  0  0  0  0  0  0  0  0  0  0
   37.3680   19.0180   31.7520 C   0  0  0  0  0  0  0  0  0  0  0  0
   36.3290   18.1390   32.0110 C   0  0  0  0  0  0  0  0  0  0  0  0
   35.0390   18.5820   32.2710 C   0  0  0  0  0  0  0  0  0  0  0  0
   34.7900   19.9330   32.2700 C   0  0  0  0  0  0  0  0  0  0  0  0
   35.8270   20.8230   32.0110 C   0  0  0  0  0  0  0  0  0  0  0  0
   38.3880   18.7190   31.5450 H   0  0  0  0  0  0  0  0  0  0  0  0
   36.6460   17.1050   31.9850 H   0  0  0  0  0  0  0  0  0  0  0  0
   34.3180   17.7970   32.4570 H   0  0  0  0  0  0  0  0  0  0  0  0
   33.7750   20.2460   32.4750 H   0  0  0  0  0  0  0  0  0  0  0  0
   35.5410   21.8680   32.0310 H   0  0  0  0  0  0  0  0  0  0  0  0
  1  7  1  0  0  0  0
  2  8  1  0  0  0  0
  2  1  2  0  0  0  0
  3  2  1  0  0  0  0
  4  3  2  0  0  0  0
  4  5  1  0  0  0  0
  5  6  2  0  0  0  0
  6  1  1  0  0  0  0
  9 15  1  6  0  0  0
  9 10  1  0  0  0  0
 10 11  1  0  0  0  0
 10  3  1  1  0  0  0
 12 11  1  0  0  0  0
 13 17  1  6  0  0  0
 13 12  1  0  0  0  0
 14 19  1  6  0  0  0
 14 13  1  0  0  0  0
 14  9  1  0  0  0  0
 16 15  1  0  0  0  0
 17 18  1  0  0  0  0
 20 19  1  0  0  0  0
 21  5  1  0  0  0  0
 22 21  2  0  0  0  0
 23 25  1  0  0  0  0
 23 26  1  0  0  0  0
 23 22  1  0  0  0  0
 24 23  1  0  0  0  0
 26 27  2  0  0  0  0
 26 31  1  0  0  0  0
 27 28  1  0  0  0  0
 28 29  2  0  0  0  0
 29 34  1  0  0  0  0
 30 29  1  0  0  0  0
 30 35  1  0  0  0  0
 31 36  1  0  0  0  0
 31 30  2  0  0  0  0
 32 27  1  0  0  0  0
 33 28  1  0  0  0  0
M  END
>  <minimizedAffinity>
-5.73686171

$$$$

 OpenBabel03272509063D

 36 38  0  0  1  0  0  0  0  0999 V2000
   36.4190   23.0450   32.0620 C   0  0  0  0  0  0  0  0  0  0  0  0
   37.1530   22.3590   33.0770 C   0  0  0  0  0  0  0  0  0  0  0  0
   37.9790   23.1180   33.9340 C   0  0  0  0  0  0  0  0  0  0  0  0
   38.0290   24.4670   33.7440 N   0  0  0  0  0  0  0  0  0  0  0  0
   37.3140   25.0590   32.7680 C   0  0  0  0  0  0  0  0  0  0  0  0
   36.5160   24.3720   31.9320 N   0  0  0  0  0  0  0  0  0  0  0  0
   35.8130   22.3930   31.4490 H   0  0  0  0  0  0  0  0  0  0  0  0
   37.1040   21.2840   33.2170 H   0  0  0  0  0  0  0  0  0  0  0  0
   38.3640   23.0560   36.3120 C   0  0  2  0  0  3  0  0  0  0  0  0
   38.7610   22.4460   35.0050 C   0  0  2  0  0  3  0  0  0  0  0  0
   40.0990   22.6410   34.6930 O   0  0  0  0  0  0  0  0  0  0  0  0
   40.9870   22.3350   35.6820 C   0  0  0  0  0  2  0  0  0  0  0  0
   40.3790   21.8350   36.9610 C   0  0  2  0  0  3  0  0  0  0  0  0
   39.3930   22.8990   37.4080 C   0  0  2  0  0  3  0  0  0  0  0  0
   37.1860   22.4480   36.7460 O   0  0  0  0  0  0  0  0  0  0  0  0
   36.4890   23.1300   36.8450 H   0  0  0  0  0  0  0  0  0  0  0  0
   41.4100   21.7590   37.9040 O   0  0  0  0  0  0  0  0  0  0  0  0
   41.8700   22.6250   37.9630 H   0  0  0  0  0  0  0  0  0  0  0  0
   38.8520   22.5870   38.6350 O   0  0  0  0  0  0  0  0  0  0  0  0
   38.3160   21.7650   38.5990 H   0  0  0  0  0  0  0  0  0  0  0  0
   37.4640   26.5030   32.6630 C   0  0  0  0  0  3  0  0  0  0  0  0
   36.5280   27.1780   32.0820 C   0  0  0  0  0  3  0  0  0  0  0  0
   36.4410   28.6320   31.8680 C   0  0  0  0  0  0  0  0  0  0  0  0
   37.4570   29.0640   32.0950 H   0  0  0  0  0  0  0  0  0  0  0  0
   36.2330   28.9070   30.8190 H   0  0  0  0  0  0  0  0  0  0  0  0
   35.5100   29.3230   32.8120 C   0  0  0  0  0  0  0  0  0  0  0  0
   35.7160   29.5060   34.1620 C   0  0  0  0  0  0  0  0  0  0  0  0
   34.7600   30.1710   34.9130 C   0  0  0  0  0  0  0  0  0  0  0  0
   33.5910   30.6640   34.3460 C   0  0  0  0  0  0  0  0  0  0  0  0
   33.3810   30.4830   33.0000 C   0  0  0  0  0  0  0  0  0  0  0  0
   34.3350   29.8160   32.2380 C   0  0  0  0  0  0  0  0  0  0  0  0
   36.6390   29.1060   34.5590 H   0  0  0  0  0  0  0  0  0  0  0  0
   35.0360   30.2510   35.9560 H   0  0  0  0  0  0  0  0  0  0  0  0
   32.9270   31.1620   35.0380 H   0  0  0  0  0  0  0  0  0  0  0  0
   32.4620   30.8770   32.5900 H   0  0  0  0  0  0  0  0  0  0  0  0
   34.0870   29.7200   31.1880 H   0  0  0  0  0  0  0  0  0  0  0  0
  1  2  1  0  0  0  0
  2  8  1  0  0  0  0
  2  3  2  0  0  0  0
  4  3  1  0  0  0  0
  5  4  2  0  0  0  0
  6  1  2  0  0  0  0
  6  5  1  0  0  0  0
  7  1  1  0  0  0  0
  9 15  1  1  0  0  0
  9 14  1  0  0  0  0
 10  3  1  6  0  0  0
 10  9  1  0  0  0  0
 11 10  1  0  0  0  0
 11 12  1  0  0  0  0
 12 13  1  0  0  0  0
 13 14  1  0  0  0  0
 13 17  1  1  0  0  0
 14 19  1  1  0  0  0
 15 16  1  0  0  0  0
 17 18  1  0  0  0  0
 20 19  1  0  0  0  0
 21  5  1  0  0  0  0
 22 21  2  0  0  0  0
 23 22  1  0  0  0  0
 23 24  1  0  0  0  0
 23 26  1  0  0  0  0
 25 23  1  0  0  0  0
 26 27  1  0  0  0  0
 27 32  1  0  0  0  0
 27 28  2  0  0  0  0
 28 33  1  0  0  0  0
 29 28  1  0  0  0  0
 29 34  1  0  0  0  0
 30 29  2  0  0  0  0
 31 26  2  0  0  0  0
 31 30  1  0  0  0  0
 35 30  1  0  0  0  0
 36 31  1  0  0  0  0
M  END
>  <minimizedAffinity>
-5.71411896

$$$$
