
     RDKit          3D

 28 29  0  0  0  0  0  0  0  0999 V2000
   37.3009   29.9948   51.1787 C   0  0  0  0  0  0  0  0  0  0  0  0
   37.9502   30.9149   50.3554 C   0  0  0  0  0  0  0  0  0  0  0  0
   37.2753   31.3838   49.2391 C   0  0  0  0  0  0  0  0  0  0  0  0
   36.0196   30.9308   48.9959 N   0  0  0  0  0  0  0  0  0  0  0  0
   35.4008   30.0270   49.8177 C   0  0  0  0  0  0  0  0  0  0  0  0
   36.0514   29.5810   50.8855 N   0  0  0  0  0  0  0  0  0  0  0  0
   38.0959   29.6116   52.2596 O   0  0  0  0  0  0  0  0  0  0  0  0
   38.9402   31.3219   50.4782 H   0  0  0  0  0  0  0  0  0  0  0  0
   34.4116   29.6631   49.6360 H   0  0  0  0  0  0  0  0  0  0  0  0
   37.6952   28.8384   52.8135 H   0  0  0  0  0  0  0  0  0  0  0  0
   37.0347   31.1633   46.4732 O   0  0  0  0  0  0  0  0  0  0  0  0
   37.0633   32.4628   47.0114 C   0  0  1  0  0  0  0  0  0  0  0  0
   37.8590   32.3638   48.2876 C   0  0  1  0  0  0  0  0  0  0  0  0
   37.8363   33.6119   48.8842 O   0  0  0  0  0  0  0  0  0  0  0  0
   38.4953   34.5929   48.1871 C   0  0  0  0  0  0  0  0  0  0  0  0
   38.7185   34.3370   46.7394 C   0  0  1  0  0  0  0  0  0  0  0  0
   39.9839   33.7668   46.5714 O   0  0  0  0  0  0  0  0  0  0  0  0
   37.7020   33.4460   46.0979 C   0  0  2  0  0  0  0  0  0  0  0  0
   36.6926   34.1923   45.4484 O   0  0  0  0  0  0  0  0  0  0  0  0
   37.6258   31.1114   45.6607 H   0  0  0  0  0  0  0  0  0  0  0  0
   36.0080   32.7085   47.2601 H   0  0  0  0  0  0  0  0  0  0  0  0
   38.8878   32.1232   48.0019 H   0  0  0  0  0  0  0  0  0  0  0  0
   39.4726   34.7882   48.7126 H   0  0  0  0  0  0  0  0  0  0  0  0
   37.9297   35.5553   48.3580 H   0  0  0  0  0  0  0  0  0  0  0  0
   38.6981   35.3402   46.2238 H   0  0  0  0  0  0  0  0  0  0  0  0
   40.0082   33.4279   45.6200 H   0  0  0  0  0  0  0  0  0  0  0  0
   38.2068   32.8955   45.2758 H   0  0  0  0  0  0  0  0  0  0  0  0
   37.1065   34.5680   44.6103 H   0  0  0  0  0  0  0  0  0  0  0  0
  1  7  1  0
  2  1  2  0
  3  2  1  0
  4  3  2  0
  4  5  1  0
  5  6  2  0
  6  1  1  0
  2  8  1  0
  5  9  1  0
  7 10  1  0
 11 12  1  0
 12 13  1  0
 13 14  1  0
 14 15  1  0
 15 16  1  0
 16 17  1  0
 16 18  1  0
 18 19  1  0
 18 12  1  0
 11 20  1  0
 12 21  1  1
 13 22  1  6
 15 23  1  0
 15 24  1  0
 16 25  1  6
 17 26  1  0
 18 27  1  6
 19 28  1  0
  3 13  1  0
M  ISO  3   8  14   9  14  10   3
M  END
>  <DihAtoms>  (1) 
1,2,12,11

>  <DihDeg>  (1) 
106.77630777056751

$$$$
