REMARK  Name = 
REMARK  7 active torsions:
REMARK  status: ('A' for Active; 'I' for Inactive)
REMARK    1  A    between atoms: C_2  and  N_7
REMARK    2  A    between atoms: C_5  and  O_15
REMARK    3  A    between atoms: O_15  and  C_16
REMARK    4  A    between atoms: C_21  and  C_33
REMARK    5  A    between atoms: O_31  and  C_32
REMARK    6  A    between atoms: C_36  and  O_37
REMARK    7  A    between atoms: C_38  and  O_39
REMARK                            x       y       z     vdW  Elec       q    Type
REMARK                         _______ _______ _______ _____ _____    ______ ____
ROOT
ATOM      1  C   UNL     1      31.211  27.558  48.279  0.00  0.00    +0.000 A 
ATOM      2  C   UNL     1      30.772  27.721  49.573  0.00  0.00    +0.000 A 
ATOM      3  C   UNL     1      29.485  28.138  49.842  0.00  0.00    +0.000 A 
ATOM      4  C   UNL     1      28.624  28.396  48.767  0.00  0.00    +0.000 A 
ATOM      5  C   UNL     1      29.077  28.229  47.462  0.00  0.00    +0.000 A 
ATOM      6  C   UNL     1      30.355  27.815  47.240  0.00  0.00    +0.000 A 
ATOM      7  H   UNL     1      31.398  27.535  50.434  0.00  0.00    +0.000 HD
ATOM      8  H   UNL     1      29.147  28.264  50.870  0.00  0.00    +0.000 HD
ATOM      9  H   UNL     1      27.632  28.720  49.056  0.00  0.00    +0.000 HD
ATOM     10  H   UNL     1      28.367  28.444  46.685  0.00  0.00    +0.000 HD
ENDROOT
BRANCH   6  12
ATOM     11  C   UNL     1      29.742  26.938  45.038  0.00  0.00    +0.000 C 
ATOM     12  C   UNL     1      30.805  27.630  45.859  0.00  0.00    +0.000 C 
ATOM     13  O   UNL     1      31.151  28.870  45.333  0.00  0.00    +0.000 OA
ATOM     14  C   UNL     1      31.048  28.918  43.947  0.00  0.00    +0.000 C 
ATOM     15  C   UNL     1      29.582  28.988  43.604  0.00  0.00    +0.000 C 
ATOM     16  C   UNL     1      28.845  27.856  44.278  0.00  0.00    +0.000 C 
BRANCH  11  17
ATOM     17  O   UNL     1      30.277  25.974  44.199  0.00  0.00    +0.000 OA
ATOM     18  H   UNL     1      31.068  25.558  44.637  0.00  0.00    +0.000 HD
ENDBRANCH  11  17
BRANCH  15  19
ATOM     19  O   UNL     1      29.009  30.178  44.052  0.00  0.00    +0.000 OA
ATOM     20  H   UNL     1      28.032  30.097  43.812  0.00  0.00    +0.000 HD
ENDBRANCH  15  19
BRANCH  16  21
ATOM     21  O   UNL     1      28.241  27.096  43.264  0.00  0.00    +0.000 OA
ATOM     22  H   UNL     1      28.505  26.144  43.289  0.00  0.00    +0.000 HD
ENDBRANCH  16  21
ENDBRANCH   6  12
BRANCH   1  23
ATOM     23  O   UNL     1      32.530  27.135  48.165  0.00  0.00    +0.000 OA
BRANCH  23  28
ATOM     24  C   UNL     1      35.497  28.916  49.150  0.00  0.00    +0.000 A 
ATOM     25  C   UNL     1      35.418  30.110  48.391  0.00  0.00    +0.000 A 
ATOM     26  C   UNL     1      34.325  30.267  47.550  0.00  0.00    +0.000 A 
ATOM     27  N   UNL     1      33.398  29.270  47.503  0.00  0.00    +0.000 NA
ATOM     28  C   UNL     1      33.496  28.155  48.227  0.00  0.00    +0.000 A 
ATOM     29  N   UNL     1      34.556  27.959  49.069  0.00  0.00    +0.000 NA
ATOM     30  H   UNL     1      36.355  28.787  49.814  0.00  0.00    +0.000 HD
ATOM     31  H   UNL     1      34.255  31.174  46.968  0.00  0.00    +0.000 HD
BRANCH  25  32
ATOM     32  N   UNL     1      36.458  31.062  48.539  0.00  0.00    +0.000 N 
ATOM     33  C   UNL     1      36.628  31.767  49.653  0.00  0.00    +0.000 A 
ATOM     34  C   UNL     1      37.672  32.680  49.722  0.00  0.00    +0.000 A 
ATOM     35  C   UNL     1      38.452  32.778  48.614  0.00  0.00    +0.000 A 
ATOM     36  O   UNL     1      39.413  33.610  48.662  0.00  0.00    +0.000 OA
ATOM     37  N   UNL     1      38.316  32.097  47.493  0.00  0.00    +0.000 N 
ATOM     38  C   UNL     1      37.284  31.206  47.447  0.00  0.00    +0.000 A 
ATOM     39  O   UNL     1      37.133  30.538  46.375  0.00  0.00    +0.000 OA
ATOM     40  H   UNL     1      35.938  31.600  50.474  0.00  0.00    +0.000 HD
ATOM     41  H   UNL     1      37.793  33.244  50.638  0.00  0.00    +0.000 HD
ATOM     42  H   UNL     1      38.956  32.228  46.684  0.00  0.00    +0.000 HD
ENDBRANCH  25  32
ENDBRANCH  23  28
ENDBRANCH   1  23
TORSDOF 7
