
     RDKit          3D

 49 52  0  0  0  0  0  0  0  0999 V2000
   33.5513   29.8681   46.4961 N   0  0  0  0  0  0  0  0  0  0  0  0
   34.7840   29.7835   45.7299 C   0  0  0  0  0  0  0  0  0  0  0  0
   35.8410   30.1088   46.7448 C   0  0  0  0  0  0  0  0  0  0  0  0
   35.0356   30.5449   48.0490 C   0  0  1  0  0  0  0  0  0  0  0  0
   33.8680   29.6739   47.9293 C   0  0  0  0  0  0  0  0  0  0  0  0
   32.2512   30.1042   46.0090 C   0  0  0  0  0  0  0  0  0  0  0  0
   32.1100   31.2376   45.1920 C   0  0  0  0  0  0  0  0  0  0  0  0
   30.8462   31.5576   44.6707 C   0  0  0  0  0  0  0  0  0  0  0  0
   29.8180   30.7003   45.0188 N   0  0  0  0  0  0  0  0  0  0  0  0
   29.9882   29.6304   45.7982 C   0  0  0  0  0  0  0  0  0  0  0  0
   31.2125   29.3453   46.2861 N   0  0  0  0  0  0  0  0  0  0  0  0
   37.3646   32.1064   48.4755 F   0  0  0  0  0  0  0  0  0  0  0  0
   36.9761   31.1556   49.3403 C   0  0  0  0  0  0  0  0  0  0  0  0
   35.8943   30.3244   49.2134 C   0  0  0  0  0  0  0  0  0  0  0  0
   35.6457   29.3951   50.2392 C   0  0  0  0  0  0  0  0  0  0  0  0
   36.4516   29.3046   51.3486 C   0  0  0  0  0  0  0  0  0  0  0  0
   37.5502   30.1638   51.4503 C   0  0  0  0  0  0  0  0  0  0  0  0
   37.8055   31.0945   50.4287 C   0  0  0  0  0  0  0  0  0  0  0  0
   34.8278   30.4985   44.8993 H   0  0  0  0  0  0  0  0  0  0  0  0
   34.9606   28.7484   45.3642 H   0  0  0  0  0  0  0  0  0  0  0  0
   36.4294   29.2481   47.0660 H   0  0  0  0  0  0  0  0  0  0  0  0
   36.4903   30.9457   46.5137 H   0  0  0  0  0  0  0  0  0  0  0  0
   34.8763   31.6169   47.8576 H   0  0  0  0  0  0  0  0  0  0  0  0
   33.0487   30.0888   48.5529 H   0  0  0  0  0  0  0  0  0  0  0  0
   34.0462   28.6111   48.1366 H   0  0  0  0  0  0  0  0  0  0  0  0
   32.9072   31.9051   44.9200 H   0  0  0  0  0  0  0  0  0  0  0  0
   30.6676   32.4146   44.0360 H   0  0  0  0  0  0  0  0  0  0  0  0
   29.1242   29.0179   46.0159 H   0  0  0  0  0  0  0  0  0  0  0  0
   34.7717   28.7915   50.0391 H   0  0  0  0  0  0  0  0  0  0  0  0
   36.1961   28.5754   52.0847 H   0  0  0  0  0  0  0  0  0  0  0  0
   38.1179   30.0178   52.3510 H   0  0  0  0  0  0  0  0  0  0  0  0
   37.7808   33.9409   50.8318 O   0  0  0  0  0  0  0  0  0  0  0  0
   38.7613   33.3492   50.0192 C   0  0  2  0  0  0  0  0  0  0  0  0
   39.0013   31.9786   50.6195 C   0  0  2  0  0  0  0  0  0  0  0  0
   40.1615   31.4577   50.0939 O   0  0  0  0  0  0  0  0  0  0  0  0
   40.5889   32.1411   48.9695 C   0  0  0  0  0  0  0  0  0  0  0  0
   41.0692   33.5305   49.3061 C   0  0  2  0  0  0  0  0  0  0  0  0
   42.3049   33.5192   49.9445 O   0  0  0  0  0  0  0  0  0  0  0  0
   40.0059   34.2062   50.1322 C   0  0  2  0  0  0  0  0  0  0  0  0
   40.3951   34.3401   51.4670 O   0  0  0  0  0  0  0  0  0  0  0  0
   37.3363   34.7000   50.3836 H   0  0  0  0  0  0  0  0  0  0  0  0
   38.4716   33.3430   48.9670 H   0  0  0  0  0  0  0  0  0  0  0  0
   39.1609   32.0942   51.7416 H   0  0  0  0  0  0  0  0  0  0  0  0
   41.4564   31.5701   48.4950 H   0  0  0  0  0  0  0  0  0  0  0  0
   39.8508   32.1804   48.1410 H   0  0  0  0  0  0  0  0  0  0  0  0
   41.1955   34.1107   48.3738 H   0  0  0  0  0  0  0  0  0  0  0  0
   42.9867   33.3946   49.2111 H   0  0  0  0  0  0  0  0  0  0  0  0
   39.7577   35.1883   49.6780 H   0  0  0  0  0  0  0  0  0  0  0  0
   41.3690   34.2108   51.5508 H   0  0  0  0  0  0  0  0  0  0  0  0
  1  5  1  0
  2  1  1  0
  2  3  1  0
  3  4  1  0
  4 14  1  0
  5  4  1  0
  6 11  1  0
  6  1  1  0
  7  6  2  0
  8  9  2  0
  8  7  1  0
  9 10  1  0
 10 11  2  0
 12 13  1  0
 13 18  2  0
 14 13  1  0
 14 15  2  0
 15 16  1  0
 16 17  2  0
 18 17  1  0
  2 19  1  0
  2 20  1  0
  3 21  1  0
  3 22  1  0
  4 23  1  6
  5 24  1  0
  5 25  1  0
  7 26  1  0
  8 27  1  0
 10 28  1  0
 15 29  1  0
 16 30  1  0
 17 31  1  0
 32 33  1  0
 33 34  1  0
 34 35  1  0
 35 36  1  0
 36 37  1  0
 37 38  1  0
 37 39  1  0
 39 40  1  0
 39 33  1  0
 32 41  1  0
 33 42  1  6
 34 43  1  1
 36 44  1  0
 36 45  1  0
 37 46  1  6
 38 47  1  0
 39 48  1  6
 40 49  1  0
 18 34  1  0
M  ISO  8  19  13  20  13  21  13  22  13  23  13  24  13  25  13  26  14
M  ISO  5  27  14  28  14  29  14  30  14  31  14
M  END
>  <DihAtoms>  (1) 
12,17,33,32

>  <DihDeg>  (1) 
-86.9384730309273

$$$$
