
 OpenBabel03272502403D

 43 46  0  0  1  0  0  0  0  0999 V2000
   36.1030   27.8650   34.1300 F   0  0  0  0  0  0  0  0  0  0  0  0
   36.2400   28.6590   33.0570 C   0  0  0  0  0  0  0  0  0  0  0  0
   36.7660   28.3100   31.8390 C   0  0  0  0  0  0  0  0  0  0  0  0
   36.8340   29.2950   30.8380 C   0  0  0  0  0  0  0  0  0  0  0  0
   36.3930   30.5790   31.0500 C   0  0  0  0  0  0  0  0  0  0  0  0
   35.8590   30.9060   32.3000 C   0  0  0  0  0  0  0  0  0  0  0  0
   35.7860   29.9280   33.3060 C   0  0  0  0  0  0  0  0  0  0  0  0
   37.2630   28.9140   29.9210 H   0  0  0  0  0  0  0  0  0  0  0  0
   36.4810   31.2700   30.2400 H   0  0  0  0  0  0  0  0  0  0  0  0
   35.5430   31.9310   32.3680 H   0  0  0  0  0  0  0  0  0  0  0  0
   37.3610   24.7710   32.2890 N   0  0  0  0  0  0  0  0  0  0  0  0
   38.4770   25.2760   33.0730 C   0  0  0  0  0  0  0  0  0  0  0  0
   38.4190   26.7570   32.8380 C   0  0  0  0  0  0  0  0  0  0  0  0
   37.2950   26.9510   31.7250 C   0  0  1  0  0  0  0  0  0  0  0  0
   36.3860   25.8670   32.0910 C   0  0  0  0  0  0  0  0  0  0  0  0
   39.4480   24.8810   32.7500 H   0  0  0  0  0  0  0  0  0  0  0  0
   38.3220   25.0910   34.1590 H   0  0  0  0  0  0  0  0  0  0  0  0
   38.0540   27.3290   33.6920 H   0  0  0  0  0  0  0  0  0  0  0  0
   39.3120   27.2160   32.4280 H   0  0  0  0  0  0  0  0  0  0  0  0
   37.8780   26.8180   30.8010 H   0  0  0  0  0  0  0  0  0  0  0  0
   35.7360   25.6370   31.2200 H   0  0  0  0  0  0  0  0  0  0  0  0
   35.8030   26.0260   33.0080 H   0  0  0  0  0  0  0  0  0  0  0  0
   37.1920   23.4730   31.7710 C   0  0  0  0  0  0  0  0  0  0  0  0
   35.8630   23.0290   31.6770 C   0  0  0  0  0  0  0  0  0  0  0  0
   35.6000   21.7420   31.1820 C   0  0  0  0  0  0  0  0  0  0  0  0
   36.7100   21.0000   30.8190 N   0  0  0  0  0  0  0  0  0  0  0  0
   37.9610   21.4530   30.9220 C   0  0  0  0  0  0  0  0  0  0  0  0
   38.1860   22.6930   31.4000 N   0  0  0  0  0  0  0  0  0  0  0  0
   35.0000   23.6040   31.9570 H   0  0  0  0  0  0  0  0  0  0  0  0
   34.6020   21.3390   31.0830 H   0  0  0  0  0  0  0  0  0  0  0  0
   38.7650   20.8000   30.6140 H   0  0  0  0  0  0  0  0  0  0  0  0
   34.1340   31.4170   34.4080 C   0  0  2  0  0  3  0  0  0  0  0  0
   35.2040   30.3650   34.6160 C   0  0  2  0  0  3  0  0  0  0  0  0
   36.1410   30.8490   35.5010 O   0  0  0  0  0  0  0  0  0  0  0  0
   36.0370   32.2170   35.6870 C   0  0  0  0  0  2  0  0  0  0  0  0
   34.7780   32.5900   36.4270 C   0  0  1  0  0  3  0  0  0  0  0  0
   33.6160   31.9220   35.7400 C   0  0  2  0  0  3  0  0  0  0  0  0
   33.0720   30.7420   33.7840 O   0  0  0  0  0  0  0  0  0  0  0  0
   32.4460   31.3640   33.3410 H   0  0  0  0  0  0  0  0  0  0  0  0
   34.8480   32.2670   37.7790 O   0  0  0  0  0  0  0  0  0  0  0  0
   35.3900   33.0040   38.2050 H   0  0  0  0  0  0  0  0  0  0  0  0
   33.1000   30.8700   36.5010 O   0  0  0  0  0  0  0  0  0  0  0  0
   33.4160   30.9380   37.4320 H   0  0  0  0  0  0  0  0  0  0  0  0
  2  7  1  0  0  0  0
  2  1  1  0  0  0  0
  3  2  2  0  0  0  0
  4  5  2  0  0  0  0
  4  3  1  0  0  0  0
  5  6  1  0  0  0  0
  6 10  1  0  0  0  0
  6  7  2  0  0  0  0
  8  4  1  0  0  0  0
  9  5  1  0  0  0  0
 11 12  1  0  0  0  0
 12 17  1  0  0  0  0
 13 12  1  0  0  0  0
 13 18  1  0  0  0  0
 14 20  1  6  0  0  0
 14  3  1  0  0  0  0
 14 15  1  0  0  0  0
 14 13  1  0  0  0  0
 15 11  1  0  0  0  0
 15 22  1  0  0  0  0
 16 12  1  0  0  0  0
 19 13  1  0  0  0  0
 21 15  1  0  0  0  0
 23 11  1  0  0  0  0
 24 23  1  0  0  0  0
 24 29  1  0  0  0  0
 25 24  2  0  0  0  0
 26 27  2  0  0  0  0
 26 25  1  0  0  0  0
 27 28  1  0  0  0  0
 28 23  2  0  0  0  0
 30 25  1  0  0  0  0
 31 27  1  0  0  0  0
 32 38  1  6  0  0  0
 32 33  1  0  0  0  0
 32 37  1  0  0  0  0
 33  7  1  6  0  0  0
 33 34  1  0  0  0  0
 34 35  1  0  0  0  0
 35 36  1  0  0  0  0
 36 40  1  1  0  0  0
 37 36  1  0  0  0  0
 37 42  1  1  0  0  0
 39 38  1  0  0  0  0
 40 41  1  0  0  0  0
 42 43  1  0  0  0  0
M  END
>  <minimizedAffinity>
-6.36425161

$$$$

 OpenBabel03272502403D

 43 46  0  0  1  0  0  0  0  0999 V2000
   35.2060   28.9960   34.8370 F   0  0  0  0  0  0  0  0  0  0  0  0
   35.6440   29.4710   33.6600 C   0  0  0  0  0  0  0  0  0  0  0  0
   36.2980   28.7660   32.6830 C   0  0  0  0  0  0  0  0  0  0  0  0
   36.6870   29.4500   31.5180 C   0  0  0  0  0  0  0  0  0  0  0  0
   36.4310   30.7890   31.3410 C   0  0  0  0  0  0  0  0  0  0  0  0
   35.7590   31.4810   32.3530 C   0  0  0  0  0  0  0  0  0  0  0  0
   35.3660   30.8050   33.5200 C   0  0  0  0  0  0  0  0  0  0  0  0
   37.1930   28.8030   30.8160 H   0  0  0  0  0  0  0  0  0  0  0  0
   36.7600   31.2370   30.4290 H   0  0  0  0  0  0  0  0  0  0  0  0
   35.6060   32.5200   32.1230 H   0  0  0  0  0  0  0  0  0  0  0  0
   37.9730   25.7410   33.7430 N   0  0  0  0  0  0  0  0  0  0  0  0
   38.1800   25.6080   32.3100 C   0  0  0  0  0  0  0  0  0  0  0  0
   37.3890   26.7500   31.7420 C   0  0  0  0  0  0  0  0  0  0  0  0
   36.6130   27.3700   32.9870 C   0  0  1  0  0  0  0  0  0  0  0  0
   37.6000   27.1420   34.0410 C   0  0  0  0  0  0  0  0  0  0  0  0
   37.8120   24.6580   31.9050 H   0  0  0  0  0  0  0  0  0  0  0  0
   39.2490   25.7580   32.0420 H   0  0  0  0  0  0  0  0  0  0  0  0
   38.0020   27.5730   31.3690 H   0  0  0  0  0  0  0  0  0  0  0  0
   36.6210   26.4940   31.0220 H   0  0  0  0  0  0  0  0  0  0  0  0
   35.7080   26.7440   33.0130 H   0  0  0  0  0  0  0  0  0  0  0  0
   37.0890   27.1930   35.0250 H   0  0  0  0  0  0  0  0  0  0  0  0
   38.4880   27.7860   34.0050 H   0  0  0  0  0  0  0  0  0  0  0  0
   38.0830   24.7370   34.7240 C   0  0  0  0  0  0  0  0  0  0  0  0
   37.9350   25.1730   36.0520 C   0  0  0  0  0  0  0  0  0  0  0  0
   38.0420   24.2420   37.0980 C   0  0  0  0  0  0  0  0  0  0  0  0
   38.2900   22.9350   36.7160 N   0  0  0  0  0  0  0  0  0  0  0  0
   38.4240   22.5560   35.4440 C   0  0  0  0  0  0  0  0  0  0  0  0
   38.3180   23.4700   34.4580 N   0  0  0  0  0  0  0  0  0  0  0  0
   37.7420   26.1860   36.3500 H   0  0  0  0  0  0  0  0  0  0  0  0
   37.9390   24.5090   38.1400 H   0  0  0  0  0  0  0  0  0  0  0  0
   38.6170   21.5120   35.2430 H   0  0  0  0  0  0  0  0  0  0  0  0
   35.3170   31.4750   35.9100 C   0  0  2  0  0  3  0  0  0  0  0  0
   34.6550   31.6240   34.5550 C   0  0  2  0  0  3  0  0  0  0  0  0
   33.3180   31.3210   34.6750 O   0  0  0  0  0  0  0  0  0  0  0  0
   33.0260   30.6690   35.8610 C   0  0  0  0  0  2  0  0  0  0  0  0
   33.1840   31.5780   37.0530 C   0  0  1  0  0  3  0  0  0  0  0  0
   34.5380   32.2310   36.9690 C   0  0  2  0  0  3  0  0  0  0  0  0
   36.5610   32.1140   35.7830 O   0  0  0  0  0  0  0  0  0  0  0  0
   37.1940   31.8370   36.4890 H   0  0  0  0  0  0  0  0  0  0  0  0
   32.1540   32.5090   37.1450 O   0  0  0  0  0  0  0  0  0  0  0  0
   31.3750   32.0120   37.5490 H   0  0  0  0  0  0  0  0  0  0  0  0
   34.4400   33.5850   36.6400 O   0  0  0  0  0  0  0  0  0  0  0  0
   33.5190   33.9030   36.7840 H   0  0  0  0  0  0  0  0  0  0  0  0
  2  1  1  0  0  0  0
  3 14  1  0  0  0  0
  3  2  2  0  0  0  0
  4  3  1  0  0  0  0
  5  4  2  0  0  0  0
  5  6  1  0  0  0  0
  6  7  2  0  0  0  0
  7  2  1  0  0  0  0
  8  4  1  0  0  0  0
  9  5  1  0  0  0  0
 10  6  1  0  0  0  0
 11 15  1  0  0  0  0
 11 23  1  0  0  0  0
 12 11  1  0  0  0  0
 13 12  1  0  0  0  0
 13 14  1  0  0  0  0
 14 20  1  1  0  0  0
 14 15  1  0  0  0  0
 15 21  1  0  0  0  0
 16 12  1  0  0  0  0
 17 12  1  0  0  0  0
 18 13  1  0  0  0  0
 19 13  1  0  0  0  0
 22 15  1  0  0  0  0
 23 24  1  0  0  0  0
 24 29  1  0  0  0  0
 24 25  2  0  0  0  0
 25 30  1  0  0  0  0
 26 25  1  0  0  0  0
 27 26  2  0  0  0  0
 28 23  2  0  0  0  0
 28 27  1  0  0  0  0
 31 27  1  0  0  0  0
 32 38  1  6  0  0  0
 32 37  1  0  0  0  0
 33  7  1  6  0  0  0
 33 34  1  0  0  0  0
 33 32  1  0  0  0  0
 34 35  1  0  0  0  0
 35 36  1  0  0  0  0
 36 40  1  6  0  0  0
 37 42  1  6  0  0  0
 37 36  1  0  0  0  0
 38 39  1  0  0  0  0
 40 41  1  0  0  0  0
 42 43  1  0  0  0  0
M  END
>  <minimizedAffinity>
-6.31900454

$$$$

 OpenBabel03272502403D

 43 46  0  0  1  0  0  0  0  0999 V2000
   34.5760   30.5410   33.5030 F   0  0  0  0  0  0  0  0  0  0  0  0
   35.4220   31.4260   32.9500 C   0  0  0  0  0  0  0  0  0  0  0  0
   36.1660   31.2500   31.8130 C   0  0  0  0  0  0  0  0  0  0  0  0
   37.0060   32.2980   31.3990 C   0  0  0  0  0  0  0  0  0  0  0  0
   37.0960   33.4780   32.1000 C   0  0  0  0  0  0  0  0  0  0  0  0
   36.3230   33.6310   33.2540 C   0  0  0  0  0  0  0  0  0  0  0  0
   35.4800   32.5880   33.6750 C   0  0  0  0  0  0  0  0  0  0  0  0
   37.5450   32.0550   30.4940 H   0  0  0  0  0  0  0  0  0  0  0  0
   37.7580   34.2250   31.7220 H   0  0  0  0  0  0  0  0  0  0  0  0
   36.4610   34.5840   33.7310 H   0  0  0  0  0  0  0  0  0  0  0  0
   36.8610   27.8650   30.7430 N   0  0  0  0  0  0  0  0  0  0  0  0
   37.2850   28.5610   29.5390 C   0  0  0  0  0  0  0  0  0  0  0  0
   36.9020   29.9860   29.8120 C   0  0  0  0  0  0  0  0  0  0  0  0
   36.0820   29.9340   31.1780 C   0  0  1  0  0  0  0  0  0  0  0  0
   36.7820   28.8420   31.8530 C   0  0  0  0  0  0  0  0  0  0  0  0
   36.7820   28.2040   28.6320 H   0  0  0  0  0  0  0  0  0  0  0  0
   38.3900   28.5160   29.4150 H   0  0  0  0  0  0  0  0  0  0  0  0
   37.7480   30.6400   30.0300 H   0  0  0  0  0  0  0  0  0  0  0  0
   36.2370   30.4530   29.0950 H   0  0  0  0  0  0  0  0  0  0  0  0
   35.0660   29.7210   30.8140 H   0  0  0  0  0  0  0  0  0  0  0  0
   36.1290   28.4440   32.6570 H   0  0  0  0  0  0  0  0  0  0  0  0
   37.7890   29.0800   32.2200 H   0  0  0  0  0  0  0  0  0  0  0  0
   36.5530   26.4990   30.8830 C   0  0  0  0  0  0  0  0  0  0  0  0
   37.6550   25.6270   30.8680 C   0  0  0  0  0  0  0  0  0  0  0  0
   37.4410   24.2450   30.9890 C   0  0  0  0  0  0  0  0  0  0  0  0
   36.1210   23.8500   31.1180 N   0  0  0  0  0  0  0  0  0  0  0  0
   35.0970   24.7060   31.1300 C   0  0  0  0  0  0  0  0  0  0  0  0
   35.3300   26.0290   31.0110 N   0  0  0  0  0  0  0  0  0  0  0  0
   38.6800   25.9320   30.7680 H   0  0  0  0  0  0  0  0  0  0  0  0
   38.2430   23.5200   30.9860 H   0  0  0  0  0  0  0  0  0  0  0  0
   34.1000   24.3040   31.2350 H   0  0  0  0  0  0  0  0  0  0  0  0
   34.7600   31.6400   35.8520 C   0  0  2  0  0  3  0  0  0  0  0  0
   34.6900   32.8350   34.9240 C   0  0  2  0  0  3  0  0  0  0  0  0
   33.3690   33.1420   34.6890 O   0  0  0  0  0  0  0  0  0  0  0  0
   32.5120   32.1240   35.0690 C   0  0  0  0  0  2  0  0  0  0  0  0
   32.4670   31.9580   36.5670 C   0  0  1  0  0  3  0  0  0  0  0  0
   33.8830   31.8590   37.0700 C   0  0  2  0  0  3  0  0  0  0  0  0
   36.0890   31.6030   36.3050 O   0  0  0  0  0  0  0  0  0  0  0  0
   36.3300   30.7200   36.6760 H   0  0  0  0  0  0  0  0  0  0  0  0
   31.7570   32.9810   37.1880 O   0  0  0  0  0  0  0  0  0  0  0  0
   30.7840   32.7450   37.0710 H   0  0  0  0  0  0  0  0  0  0  0  0
   34.2710   33.0110   37.7570 O   0  0  0  0  0  0  0  0  0  0  0  0
   33.4770   33.5420   38.0030 H   0  0  0  0  0  0  0  0  0  0  0  0
  2  1  1  0  0  0  0
  2  7  1  0  0  0  0
  3  2  2  0  0  0  0
  4  3  1  0  0  0  0
  4  5  2  0  0  0  0
  5  6  1  0  0  0  0
  6  7  2  0  0  0  0
  6 10  1  0  0  0  0
  8  4  1  0  0  0  0
  9  5  1  0  0  0  0
 11 23  1  0  0  0  0
 11 15  1  0  0  0  0
 12 13  1  0  0  0  0
 12 11  1  0  0  0  0
 13 18  1  0  0  0  0
 13 14  1  0  0  0  0
 14 20  1  6  0  0  0
 14  3  1  0  0  0  0
 14 15  1  0  0  0  0
 15 22  1  0  0  0  0
 15 21  1  0  0  0  0
 16 12  1  0  0  0  0
 17 12  1  0  0  0  0
 19 13  1  0  0  0  0
 23 28  1  0  0  0  0
 24 23  2  0  0  0  0
 24 25  1  0  0  0  0
 25 26  2  0  0  0  0
 26 27  1  0  0  0  0
 27 31  1  0  0  0  0
 28 27  2  0  0  0  0
 29 24  1  0  0  0  0
 30 25  1  0  0  0  0
 32 38  1  1  0  0  0
 32 37  1  0  0  0  0
 33  7  1  6  0  0  0
 33 32  1  0  0  0  0
 34 33  1  0  0  0  0
 34 35  1  0  0  0  0
 35 36  1  0  0  0  0
 36 37  1  0  0  0  0
 36 40  1  1  0  0  0
 37 42  1  6  0  0  0
 38 39  1  0  0  0  0
 41 40  1  0  0  0  0
 42 43  1  0  0  0  0
M  END
>  <minimizedAffinity>
-6.09088516

$$$$

 OpenBabel03272502403D

 43 46  0  0  1  0  0  0  0  0999 V2000
   38.5300   27.0610   34.8160 F   0  0  0  0  0  0  0  0  0  0  0  0
   37.9080   26.3370   33.8730 C   0  0  0  0  0  0  0  0  0  0  0  0
   37.0890   26.8110   32.8810 C   0  0  0  0  0  0  0  0  0  0  0  0
   36.5200   25.8850   31.9890 C   0  0  0  0  0  0  0  0  0  0  0  0
   36.7630   24.5360   32.0890 C   0  0  0  0  0  0  0  0  0  0  0  0
   37.6050   24.0810   33.1080 C   0  0  0  0  0  0  0  0  0  0  0  0
   38.1790   25.0000   34.0040 C   0  0  0  0  0  0  0  0  0  0  0  0
   35.8940   26.3640   31.2500 H   0  0  0  0  0  0  0  0  0  0  0  0
   36.2920   23.8970   31.3750 H   0  0  0  0  0  0  0  0  0  0  0  0
   37.7330   23.0140   33.1040 H   0  0  0  0  0  0  0  0  0  0  0  0
   35.5060   30.0300   33.3460 N   0  0  0  0  0  0  0  0  0  0  0  0
   35.2480   29.8690   31.9240 C   0  0  0  0  0  0  0  0  0  0  0  0
   35.9970   28.6150   31.5790 C   0  0  0  0  0  0  0  0  0  0  0  0
   36.8090   28.2470   32.9000 C   0  0  1  0  0  0  0  0  0  0  0  0
   35.8660   28.7110   33.9150 C   0  0  0  0  0  0  0  0  0  0  0  0
   35.6160   30.7060   31.3190 H   0  0  0  0  0  0  0  0  0  0  0  0
   34.1660   29.6920   31.7280 H   0  0  0  0  0  0  0  0  0  0  0  0
   35.3580   27.7480   31.4050 H   0  0  0  0  0  0  0  0  0  0  0  0
   36.7420   28.6980   30.7970 H   0  0  0  0  0  0  0  0  0  0  0  0
   37.7250   28.8430   32.7650 H   0  0  0  0  0  0  0  0  0  0  0  0
   36.4130   28.8530   34.8710 H   0  0  0  0  0  0  0  0  0  0  0  0
   34.9660   28.0960   34.0430 H   0  0  0  0  0  0  0  0  0  0  0  0
   35.4490   31.2170   34.1010 C   0  0  0  0  0  0  0  0  0  0  0  0
   35.6020   31.0570   35.4880 C   0  0  0  0  0  0  0  0  0  0  0  0
   35.5470   32.1860   36.3210 C   0  0  0  0  0  0  0  0  0  0  0  0
   35.3410   33.3950   35.6810 N   0  0  0  0  0  0  0  0  0  0  0  0
   35.2010   33.5110   34.3590 C   0  0  0  0  0  0  0  0  0  0  0  0
   35.2570   32.4110   33.5810 N   0  0  0  0  0  0  0  0  0  0  0  0
   35.7620   30.1190   35.9870 H   0  0  0  0  0  0  0  0  0  0  0  0
   35.6570   32.1340   37.3950 H   0  0  0  0  0  0  0  0  0  0  0  0
   35.0430   34.4990   33.9490 H   0  0  0  0  0  0  0  0  0  0  0  0
   39.8880   23.2760   34.5230 C   0  0  2  0  0  3  0  0  0  0  0  0
   39.0650   24.4260   35.0670 C   0  0  2  0  0  3  0  0  0  0  0  0
   38.3800   23.9970   36.1820 O   0  0  0  0  0  0  0  0  0  0  0  0
   38.3650   22.6170   36.2970 C   0  0  0  0  0  2  0  0  0  0  0  0
   39.7320   22.0660   36.6150 C   0  0  1  0  0  3  0  0  0  0  0  0
   40.7110   22.6410   35.6260 C   0  0  2  0  0  3  0  0  0  0  0  0
   40.7920   23.8650   33.6240 O   0  0  0  0  0  0  0  0  0  0  0  0
   41.1760   23.2050   32.9980 H   0  0  0  0  0  0  0  0  0  0  0  0
   40.1050   22.3150   37.9320 O   0  0  0  0  0  0  0  0  0  0  0  0
   39.6280   21.6190   38.4850 H   0  0  0  0  0  0  0  0  0  0  0  0
   41.5540   23.5830   36.2190 O   0  0  0  0  0  0  0  0  0  0  0  0
   41.5220   23.4960   37.2010 H   0  0  0  0  0  0  0  0  0  0  0  0
  2  7  1  0  0  0  0
  2  1  1  0  0  0  0
  3 14  1  0  0  0  0
  3  2  2  0  0  0  0
  4  5  2  0  0  0  0
  4  3  1  0  0  0  0
  5  6  1  0  0  0  0
  6  7  2  0  0  0  0
  8  4  1  0  0  0  0
  9  5  1  0  0  0  0
 10  6  1  0  0  0  0
 11 15  1  0  0  0  0
 11 23  1  0  0  0  0
 12 11  1  0  0  0  0
 13 12  1  0  0  0  0
 13 14  1  0  0  0  0
 14 20  1  1  0  0  0
 14 15  1  0  0  0  0
 15 22  1  0  0  0  0
 15 21  1  0  0  0  0
 16 12  1  0  0  0  0
 17 12  1  0  0  0  0
 18 13  1  0  0  0  0
 19 13  1  0  0  0  0
 23 24  1  0  0  0  0
 24 29  1  0  0  0  0
 24 25  2  0  0  0  0
 25 30  1  0  0  0  0
 26 25  1  0  0  0  0
 27 26  2  0  0  0  0
 28 23  2  0  0  0  0
 28 27  1  0  0  0  0
 31 27  1  0  0  0  0
 32 38  1  6  0  0  0
 32 33  1  0  0  0  0
 32 37  1  0  0  0  0
 33  7  1  6  0  0  0
 33 34  1  0  0  0  0
 34 35  1  0  0  0  0
 35 36  1  0  0  0  0
 36 40  1  1  0  0  0
 37 42  1  1  0  0  0
 37 36  1  0  0  0  0
 39 38  1  0  0  0  0
 40 41  1  0  0  0  0
 42 43  1  0  0  0  0
M  END
>  <minimizedAffinity>
-6.08237934

$$$$

 OpenBabel03272502403D

 43 46  0  0  1  0  0  0  0  0999 V2000
   35.4800   28.3680   34.9120 F   0  0  0  0  0  0  0  0  0  0  0  0
   35.7700   29.0720   33.8060 C   0  0  0  0  0  0  0  0  0  0  0  0
   36.2850   28.5830   32.6340 C   0  0  0  0  0  0  0  0  0  0  0  0
   36.5310   29.4890   31.5870 C   0  0  0  0  0  0  0  0  0  0  0  0
   36.2700   30.8330   31.7120 C   0  0  0  0  0  0  0  0  0  0  0  0
   35.7420   31.3020   32.9180 C   0  0  0  0  0  0  0  0  0  0  0  0
   35.4930   30.4040   33.9690 C   0  0  0  0  0  0  0  0  0  0  0  0
   36.9350   29.0000   30.7120 H   0  0  0  0  0  0  0  0  0  0  0  0
   36.4850   31.4560   30.8720 H   0  0  0  0  0  0  0  0  0  0  0  0
   35.5730   32.3640   32.9190 H   0  0  0  0  0  0  0  0  0  0  0  0
   37.9980   25.4180   32.9920 N   0  0  0  0  0  0  0  0  0  0  0  0
   38.2210   25.6200   31.5700 C   0  0  0  0  0  0  0  0  0  0  0  0
   37.4180   26.8520   31.2690 C   0  0  0  0  0  0  0  0  0  0  0  0
   36.6190   27.1590   32.6130 C   0  0  1  0  0  0  0  0  0  0  0  0
   37.6010   26.7080   33.5990 C   0  0  0  0  0  0  0  0  0  0  0  0
   37.8720   24.7840   30.9530 H   0  0  0  0  0  0  0  0  0  0  0  0
   39.2900   25.8430   31.3570 H   0  0  0  0  0  0  0  0  0  0  0  0
   38.0200   27.7460   31.1030 H   0  0  0  0  0  0  0  0  0  0  0  0
   36.6600   26.7580   30.5000 H   0  0  0  0  0  0  0  0  0  0  0  0
   35.7240   26.5320   32.4830 H   0  0  0  0  0  0  0  0  0  0  0  0
   37.0790   26.5240   34.5620 H   0  0  0  0  0  0  0  0  0  0  0  0
   38.4790   27.3550   33.7240 H   0  0  0  0  0  0  0  0  0  0  0  0
   38.1150   24.2170   33.7180 C   0  0  0  0  0  0  0  0  0  0  0  0
   38.3780   24.3650   35.0900 C   0  0  0  0  0  0  0  0  0  0  0  0
   38.5220   23.2210   35.8910 C   0  0  0  0  0  0  0  0  0  0  0  0
   38.3880   22.0090   35.2370 N   0  0  0  0  0  0  0  0  0  0  0  0
   38.1370   21.9050   33.9300 C   0  0  0  0  0  0  0  0  0  0  0  0
   38.0030   23.0200   33.1840 N   0  0  0  0  0  0  0  0  0  0  0  0
   38.4820   25.3050   35.6000 H   0  0  0  0  0  0  0  0  0  0  0  0
   38.7250   23.2630   36.9520 H   0  0  0  0  0  0  0  0  0  0  0  0
   38.0490   20.9140   33.5070 H   0  0  0  0  0  0  0  0  0  0  0  0
   33.6910   31.8130   34.9330 C   0  0  2  0  0  3  0  0  0  0  0  0
   34.9300   30.9930   35.2270 C   0  0  2  0  0  3  0  0  0  0  0  0
   35.8280   31.7740   35.9200 O   0  0  0  0  0  0  0  0  0  0  0  0
   35.5130   33.1210   35.8640 C   0  0  0  0  0  2  0  0  0  0  0  0
   34.2590   33.4360   36.6390 C   0  0  1  0  0  3  0  0  0  0  0  0
   33.1820   32.4810   36.1950 C   0  0  2  0  0  3  0  0  0  0  0  0
   32.7170   30.8790   34.5430 O   0  0  0  0  0  0  0  0  0  0  0  0
   31.9710   31.3030   34.0540 H   0  0  0  0  0  0  0  0  0  0  0  0
   34.4660   33.3940   38.0140 O   0  0  0  0  0  0  0  0  0  0  0  0
   34.9050   34.2720   38.2480 H   0  0  0  0  0  0  0  0  0  0  0  0
   32.8940   31.5310   37.1770 O   0  0  0  0  0  0  0  0  0  0  0  0
   33.2540   31.8240   38.0470 H   0  0  0  0  0  0  0  0  0  0  0  0
  2  7  1  0  0  0  0
  2  1  1  0  0  0  0
  3  2  2  0  0  0  0
  4  5  2  0  0  0  0
  4  3  1  0  0  0  0
  5  6  1  0  0  0  0
  6 10  1  0  0  0  0
  6  7  2  0  0  0  0
  8  4  1  0  0  0  0
  9  5  1  0  0  0  0
 11 15  1  0  0  0  0
 11 23  1  0  0  0  0
 12 11  1  0  0  0  0
 13 12  1  0  0  0  0
 13 14  1  0  0  0  0
 14 20  1  1  0  0  0
 14  3  1  0  0  0  0
 14 15  1  0  0  0  0
 15 22  1  0  0  0  0
 15 21  1  0  0  0  0
 16 12  1  0  0  0  0
 17 12  1  0  0  0  0
 18 13  1  0  0  0  0
 19 13  1  0  0  0  0
 23 24  1  0  0  0  0
 24 29  1  0  0  0  0
 24 25  2  0  0  0  0
 25 30  1  0  0  0  0
 26 25  1  0  0  0  0
 27 26  2  0  0  0  0
 28 23  2  0  0  0  0
 28 27  1  0  0  0  0
 31 27  1  0  0  0  0
 32 38  1  1  0  0  0
 32 33  1  0  0  0  0
 32 37  1  0  0  0  0
 33  7  1  6  0  0  0
 33 34  1  0  0  0  0
 35 34  1  0  0  0  0
 35 36  1  0  0  0  0
 36 40  1  1  0  0  0
 37 36  1  0  0  0  0
 37 42  1  1  0  0  0
 39 38  1  0  0  0  0
 40 41  1  0  0  0  0
 42 43  1  0  0  0  0
M  END
>  <minimizedAffinity>
-5.93614578

$$$$

 OpenBabel03272502403D

 43 46  0  0  1  0  0  0  0  0999 V2000
   35.7710   28.1450   34.7010 F   0  0  0  0  0  0  0  0  0  0  0  0
   36.3090   28.2740   33.4770 C   0  0  0  0  0  0  0  0  0  0  0  0
   37.0930   27.3570   32.8260 C   0  0  0  0  0  0  0  0  0  0  0  0
   37.5720   27.6840   31.5440 C   0  0  0  0  0  0  0  0  0  0  0  0
   37.2760   28.8840   30.9420 C   0  0  0  0  0  0  0  0  0  0  0  0
   36.4720   29.7970   31.6290 C   0  0  0  0  0  0  0  0  0  0  0  0
   35.9880   29.4790   32.9090 C   0  0  0  0  0  0  0  0  0  0  0  0
   38.1770   26.8940   31.1220 H   0  0  0  0  0  0  0  0  0  0  0  0
   37.6790   29.0580   29.9680 H   0  0  0  0  0  0  0  0  0  0  0  0
   36.2970   30.7030   31.0770 H   0  0  0  0  0  0  0  0  0  0  0  0
   38.8220   24.8910   34.8270 N   0  0  0  0  0  0  0  0  0  0  0  0
   39.0540   24.3030   33.5180 C   0  0  0  0  0  0  0  0  0  0  0  0
   38.2460   25.1750   32.6020 C   0  0  0  0  0  0  0  0  0  0  0  0
   37.4360   26.1460   33.5710 C   0  0  1  0  0  0  0  0  0  0  0  0
   38.4120   26.3020   34.6480 C   0  0  0  0  0  0  0  0  0  0  0  0
   38.7150   23.2630   33.4430 H   0  0  0  0  0  0  0  0  0  0  0  0
   40.1240   24.3870   33.2220 H   0  0  0  0  0  0  0  0  0  0  0  0
   38.8440   25.8470   31.9850 H   0  0  0  0  0  0  0  0  0  0  0  0
   37.4950   24.6770   32.0000 H   0  0  0  0  0  0  0  0  0  0  0  0
   36.5460   25.5390   33.7940 H   0  0  0  0  0  0  0  0  0  0  0  0
   37.8850   26.6570   35.5580 H   0  0  0  0  0  0  0  0  0  0  0  0
   39.2860   26.9230   34.4100 H   0  0  0  0  0  0  0  0  0  0  0  0
   38.9410   24.2660   36.0830 C   0  0  0  0  0  0  0  0  0  0  0  0
   38.0060   24.6720   37.0490 C   0  0  0  0  0  0  0  0  0  0  0  0
   38.0570   24.1100   38.3350 C   0  0  0  0  0  0  0  0  0  0  0  0
   39.0550   23.1760   38.5440 N   0  0  0  0  0  0  0  0  0  0  0  0
   39.9280   22.8130   37.6010 C   0  0  0  0  0  0  0  0  0  0  0  0
   39.8580   23.3680   36.3750 N   0  0  0  0  0  0  0  0  0  0  0  0
   37.2290   25.3970   36.8900 H   0  0  0  0  0  0  0  0  0  0  0  0
   37.3680   24.3770   39.1250 H   0  0  0  0  0  0  0  0  0  0  0  0
   40.6750   22.0740   37.8580 H   0  0  0  0  0  0  0  0  0  0  0  0
   33.9770   30.9170   32.6850 C   0  0  2  0  0  3  0  0  0  0  0  0
   35.1360   30.5170   33.5750 C   0  0  2  0  0  3  0  0  0  0  0  0
   35.8310   31.6480   33.9390 O   0  0  0  0  0  0  0  0  0  0  0  0
   35.5030   32.7450   33.1620 C   0  0  0  0  0  2  0  0  0  0  0  0
   34.0970   33.2200   33.4260 C   0  0  1  0  0  3  0  0  0  0  0  0
   33.1750   32.0330   33.3250 C   0  0  2  0  0  3  0  0  0  0  0  0
   33.1430   29.7880   32.6390 O   0  0  0  0  0  0  0  0  0  0  0  0
   32.5190   29.8190   31.8740 H   0  0  0  0  0  0  0  0  0  0  0  0
   33.9840   33.8730   34.6500 O   0  0  0  0  0  0  0  0  0  0  0  0
   34.3340   34.8050   34.4930 H   0  0  0  0  0  0  0  0  0  0  0  0
   32.6940   31.6420   34.5770 O   0  0  0  0  0  0  0  0  0  0  0  0
   32.8360   32.3630   35.2340 H   0  0  0  0  0  0  0  0  0  0  0  0
  2  1  1  0  0  0  0
  3  2  2  0  0  0  0
  3 14  1  0  0  0  0
  4  3  1  0  0  0  0
  5  4  2  0  0  0  0
  5  6  1  0  0  0  0
  6  7  2  0  0  0  0
  7  2  1  0  0  0  0
  8  4  1  0  0  0  0
  9  5  1  0  0  0  0
 10  6  1  0  0  0  0
 11 23  1  0  0  0  0
 12 11  1  0  0  0  0
 13 12  1  0  0  0  0
 13 14  1  0  0  0  0
 14 20  1  1  0  0  0
 14 15  1  0  0  0  0
 15 11  1  0  0  0  0
 15 21  1  0  0  0  0
 16 12  1  0  0  0  0
 17 12  1  0  0  0  0
 18 13  1  0  0  0  0
 19 13  1  0  0  0  0
 22 15  1  0  0  0  0
 23 28  2  0  0  0  0
 23 24  1  0  0  0  0
 24 25  2  0  0  0  0
 25 26  1  0  0  0  0
 25 30  1  0  0  0  0
 27 31  1  0  0  0  0
 27 26  2  0  0  0  0
 28 27  1  0  0  0  0
 29 24  1  0  0  0  0
 32 38  1  1  0  0  0
 32 37  1  0  0  0  0
 32 33  1  0  0  0  0
 33  7  1  6  0  0  0
 33 34  1  0  0  0  0
 35 36  1  0  0  0  0
 35 34  1  0  0  0  0
 36 40  1  1  0  0  0
 37 36  1  0  0  0  0
 37 42  1  1  0  0  0
 39 38  1  0  0  0  0
 41 40  1  0  0  0  0
 42 43  1  0  0  0  0
M  END
>  <minimizedAffinity>
-5.92417002

$$$$

 OpenBabel03272502403D

 43 46  0  0  1  0  0  0  0  0999 V2000
   36.1880   27.6810   34.9120 F   0  0  0  0  0  0  0  0  0  0  0  0
   36.3080   28.2800   33.7170 C   0  0  0  0  0  0  0  0  0  0  0  0
   36.8430   27.7370   32.5770 C   0  0  0  0  0  0  0  0  0  0  0  0
   36.8890   28.5340   31.4200 C   0  0  0  0  0  0  0  0  0  0  0  0
   36.4160   29.8250   31.4060 C   0  0  0  0  0  0  0  0  0  0  0  0
   35.8730   30.3510   32.5820 C   0  0  0  0  0  0  0  0  0  0  0  0
   35.8230   29.5610   33.7430 C   0  0  0  0  0  0  0  0  0  0  0  0
   37.3280   28.0100   30.5820 H   0  0  0  0  0  0  0  0  0  0  0  0
   36.4880   30.3650   30.4880 H   0  0  0  0  0  0  0  0  0  0  0  0
   35.5310   31.3640   32.4720 H   0  0  0  0  0  0  0  0  0  0  0  0
   39.1210   24.9520   32.9430 N   0  0  0  0  0  0  0  0  0  0  0  0
   38.9200   24.8750   31.5050 C   0  0  0  0  0  0  0  0  0  0  0  0
   37.8610   25.9080   31.2510 C   0  0  0  0  0  0  0  0  0  0  0  0
   37.4060   26.3920   32.6990 C   0  0  1  0  0  0  0  0  0  0  0  0
   38.6760   26.2830   33.4140 C   0  0  0  0  0  0  0  0  0  0  0  0
   38.5740   23.8910   31.1670 H   0  0  0  0  0  0  0  0  0  0  0  0
   39.8380   25.1760   30.9530 H   0  0  0  0  0  0  0  0  0  0  0  0
   38.2310   26.8140   30.7670 H   0  0  0  0  0  0  0  0  0  0  0  0
   36.9560   25.5620   30.7650 H   0  0  0  0  0  0  0  0  0  0  0  0
   36.6340   25.6480   32.9450 H   0  0  0  0  0  0  0  0  0  0  0  0
   38.4690   26.2440   34.5040 H   0  0  0  0  0  0  0  0  0  0  0  0
   39.4280   27.0430   33.1650 H   0  0  0  0  0  0  0  0  0  0  0  0
   39.6360   23.9540   33.7930 C   0  0  0  0  0  0  0  0  0  0  0  0
   39.0480   23.8860   35.0670 C   0  0  0  0  0  0  0  0  0  0  0  0
   39.5060   22.9290   35.9870 C   0  0  0  0  0  0  0  0  0  0  0  0
   40.5300   22.1110   35.5420 N   0  0  0  0  0  0  0  0  0  0  0  0
   41.0650   22.2030   34.3230 C   0  0  0  0  0  0  0  0  0  0  0  0
   40.6070   23.1310   33.4590 N   0  0  0  0  0  0  0  0  0  0  0  0
   38.2530   24.5200   35.4140 H   0  0  0  0  0  0  0  0  0  0  0  0
   39.0980   22.8220   36.9820 H   0  0  0  0  0  0  0  0  0  0  0  0
   41.8620   21.5200   34.0660 H   0  0  0  0  0  0  0  0  0  0  0  0
   34.1510   31.1980   34.5720 C   0  0  2  0  0  3  0  0  0  0  0  0
   35.2280   30.2050   34.9590 C   0  0  2  0  0  3  0  0  0  0  0  0
   36.1550   30.8390   35.7560 O   0  0  0  0  0  0  0  0  0  0  0  0
   36.0400   32.2170   35.7100 C   0  0  0  0  0  2  0  0  0  0  0  0
   34.7720   32.6970   36.3710 C   0  0  1  0  0  3  0  0  0  0  0  0
   33.6200   31.9130   35.7990 C   0  0  2  0  0  3  0  0  0  0  0  0
   33.0980   30.4200   34.0640 O   0  0  0  0  0  0  0  0  0  0  0  0
   32.4710   30.9540   33.5200 H   0  0  0  0  0  0  0  0  0  0  0  0
   34.8360   32.6040   37.7580 O   0  0  0  0  0  0  0  0  0  0  0  0
   35.3690   33.4060   38.0590 H   0  0  0  0  0  0  0  0  0  0  0  0
   33.1070   30.9990   36.7220 O   0  0  0  0  0  0  0  0  0  0  0  0
   33.4170   31.2240   37.6300 H   0  0  0  0  0  0  0  0  0  0  0  0
  2  7  1  0  0  0  0
  2  1  1  0  0  0  0
  3 14  1  0  0  0  0
  3  2  2  0  0  0  0
  4  3  1  0  0  0  0
  5  4  2  0  0  0  0
  5  6  1  0  0  0  0
  6  7  2  0  0  0  0
  8  4  1  0  0  0  0
  9  5  1  0  0  0  0
 10  6  1  0  0  0  0
 11 15  1  0  0  0  0
 11 23  1  0  0  0  0
 12 11  1  0  0  0  0
 13 12  1  0  0  0  0
 13 14  1  0  0  0  0
 14 20  1  1  0  0  0
 14 15  1  0  0  0  0
 15 21  1  0  0  0  0
 16 12  1  0  0  0  0
 17 12  1  0  0  0  0
 18 13  1  0  0  0  0
 19 13  1  0  0  0  0
 22 15  1  0  0  0  0
 23 24  1  0  0  0  0
 24 29  1  0  0  0  0
 24 25  2  0  0  0  0
 25 30  1  0  0  0  0
 26 25  1  0  0  0  0
 27 26  2  0  0  0  0
 28 23  2  0  0  0  0
 28 27  1  0  0  0  0
 31 27  1  0  0  0  0
 32 38  1  1  0  0  0
 32 33  1  0  0  0  0
 32 37  1  0  0  0  0
 33  7  1  6  0  0  0
 33 34  1  0  0  0  0
 35 34  1  0  0  0  0
 35 36  1  0  0  0  0
 36 40  1  1  0  0  0
 37 36  1  0  0  0  0
 37 42  1  1  0  0  0
 39 38  1  0  0  0  0
 40 41  1  0  0  0  0
 42 43  1  0  0  0  0
M  END
>  <minimizedAffinity>
-5.91226816

$$$$

 OpenBabel03272502403D

 43 46  0  0  1  0  0  0  0  0999 V2000
   38.7510   24.2190   33.3670 F   0  0  0  0  0  0  0  0  0  0  0  0
   38.2100   23.1460   32.7690 C   0  0  0  0  0  0  0  0  0  0  0  0
   37.3160   23.1500   31.7290 C   0  0  0  0  0  0  0  0  0  0  0  0
   36.8550   21.9130   31.2450 C   0  0  0  0  0  0  0  0  0  0  0  0
   37.2740   20.7200   31.7830 C   0  0  0  0  0  0  0  0  0  0  0  0
   38.1890   20.7460   32.8400 C   0  0  0  0  0  0  0  0  0  0  0  0
   38.6560   21.9780   33.3300 C   0  0  0  0  0  0  0  0  0  0  0  0
   36.1570   22.0300   30.4280 H   0  0  0  0  0  0  0  0  0  0  0  0
   36.8760   19.8230   31.3610 H   0  0  0  0  0  0  0  0  0  0  0  0
   38.4550   19.7660   33.1920 H   0  0  0  0  0  0  0  0  0  0  0  0
   35.7820   26.4210   31.5710 N   0  0  0  0  0  0  0  0  0  0  0  0
   34.7580   25.6710   30.8610 C   0  0  0  0  0  0  0  0  0  0  0  0
   35.3610   24.3020   30.7350 C   0  0  0  0  0  0  0  0  0  0  0  0
   36.8520   24.4610   31.2750 C   0  0  1  0  0  0  0  0  0  0  0  0
   36.6400   25.4690   32.3120 C   0  0  0  0  0  0  0  0  0  0  0  0
   34.5330   26.0770   29.8680 H   0  0  0  0  0  0  0  0  0  0  0  0
   33.8280   25.5860   31.4670 H   0  0  0  0  0  0  0  0  0  0  0  0
   34.9130   23.5560   31.3920 H   0  0  0  0  0  0  0  0  0  0  0  0
   35.4600   23.9100   29.7290 H   0  0  0  0  0  0  0  0  0  0  0  0
   37.3790   24.7880   30.3670 H   0  0  0  0  0  0  0  0  0  0  0  0
   37.6130   25.9480   32.5470 H   0  0  0  0  0  0  0  0  0  0  0  0
   36.1240   25.1190   33.2160 H   0  0  0  0  0  0  0  0  0  0  0  0
   35.9760   27.8160   31.5770 C   0  0  0  0  0  0  0  0  0  0  0  0
   35.6420   28.4660   32.7760 C   0  0  0  0  0  0  0  0  0  0  0  0
   35.7930   29.8590   32.8690 C   0  0  0  0  0  0  0  0  0  0  0  0
   36.2740   30.4880   31.7350 N   0  0  0  0  0  0  0  0  0  0  0  0
   36.5830   29.8380   30.6110 C   0  0  0  0  0  0  0  0  0  0  0  0
   36.4280   28.5000   30.5470 N   0  0  0  0  0  0  0  0  0  0  0  0
   35.2690   27.9790   33.6580 H   0  0  0  0  0  0  0  0  0  0  0  0
   35.5550   30.4210   33.7610 H   0  0  0  0  0  0  0  0  0  0  0  0
   36.9510   30.4160   29.7750 H   0  0  0  0  0  0  0  0  0  0  0  0
   39.1220   22.7000   35.6580 C   0  0  2  0  0  3  0  0  0  0  0  0
   39.6300   21.9150   34.4660 C   0  0  2  0  0  3  0  0  0  0  0  0
   40.8890   22.3650   34.1380 O   0  0  0  0  0  0  0  0  0  0  0  0
   41.1930   23.5750   34.7380 C   0  0  0  0  0  2  0  0  0  0  0  0
   41.3580   23.4360   36.2300 C   0  0  1  0  0  3  0  0  0  0  0  0
   40.1540   22.7100   36.7690 C   0  0  2  0  0  3  0  0  0  0  0  0
   38.0170   21.9740   36.1320 O   0  0  0  0  0  0  0  0  0  0  0  0
   37.4340   22.5220   36.7110 H   0  0  0  0  0  0  0  0  0  0  0  0
   42.5510   22.8050   36.5700 O   0  0  0  0  0  0  0  0  0  0  0  0
   43.2630   23.5150   36.4950 H   0  0  0  0  0  0  0  0  0  0  0  0
   40.4690   21.4070   37.1640 O   0  0  0  0  0  0  0  0  0  0  0  0
   41.4450   21.3080   37.2580 H   0  0  0  0  0  0  0  0  0  0  0  0
  2  7  1  0  0  0  0
  2  1  1  0  0  0  0
  3  2  2  0  0  0  0
  4  3  1  0  0  0  0
  4  5  2  0  0  0  0
  5  6  1  0  0  0  0
  6 10  1  0  0  0  0
  6  7  2  0  0  0  0
  8  4  1  0  0  0  0
  9  5  1  0  0  0  0
 11 23  1  0  0  0  0
 11 15  1  0  0  0  0
 12 17  1  0  0  0  0
 12 11  1  0  0  0  0
 13 12  1  0  0  0  0
 13 14  1  0  0  0  0
 13 18  1  0  0  0  0
 14 20  1  6  0  0  0
 14  3  1  0  0  0  0
 14 15  1  0  0  0  0
 15 21  1  0  0  0  0
 15 22  1  0  0  0  0
 16 12  1  0  0  0  0
 19 13  1  0  0  0  0
 23 24  1  0  0  0  0
 24 25  2  0  0  0  0
 24 29  1  0  0  0  0
 25 30  1  0  0  0  0
 26 25  1  0  0  0  0
 27 26  2  0  0  0  0
 28 27  1  0  0  0  0
 28 23  2  0  0  0  0
 31 27  1  0  0  0  0
 32 38  1  1  0  0  0
 32 37  1  0  0  0  0
 33  7  1  6  0  0  0
 33 32  1  0  0  0  0
 34 33  1  0  0  0  0
 34 35  1  0  0  0  0
 35 36  1  0  0  0  0
 36 40  1  6  0  0  0
 36 37  1  0  0  0  0
 37 42  1  6  0  0  0
 38 39  1  0  0  0  0
 41 40  1  0  0  0  0
 42 43  1  0  0  0  0
M  END
>  <minimizedAffinity>
-5.8477006

$$$$

 OpenBabel03272502403D

 43 46  0  0  1  0  0  0  0  0999 V2000
   35.9150   27.9600   34.9070 F   0  0  0  0  0  0  0  0  0  0  0  0
   36.3150   28.3240   33.6790 C   0  0  0  0  0  0  0  0  0  0  0  0
   35.9130   29.4320   32.9790 C   0  0  0  0  0  0  0  0  0  0  0  0
   36.4430   29.6350   31.6930 C   0  0  0  0  0  0  0  0  0  0  0  0
   37.3420   28.7600   31.1310 C   0  0  0  0  0  0  0  0  0  0  0  0
   37.7370   27.6400   31.8680 C   0  0  0  0  0  0  0  0  0  0  0  0
   37.2120   27.4300   33.1550 C   0  0  0  0  0  0  0  0  0  0  0  0
   36.0610   30.5350   31.2320 H   0  0  0  0  0  0  0  0  0  0  0  0
   37.6970   28.9830   30.1490 H   0  0  0  0  0  0  0  0  0  0  0  0
   38.4400   27.0170   31.3450 H   0  0  0  0  0  0  0  0  0  0  0  0
   33.7100   30.9890   35.3880 N   0  0  0  0  0  0  0  0  0  0  0  0
   32.7700   30.0310   34.8280 C   0  0  0  0  0  0  0  0  0  0  0  0
   33.5410   29.4140   33.6980 C   0  0  0  0  0  0  0  0  0  0  0  0
   34.8870   30.2630   33.6100 C   0  0  1  0  0  0  0  0  0  0  0  0
   35.0840   30.5740   35.0250 C   0  0  0  0  0  0  0  0  0  0  0  0
   31.8520   30.4950   34.4480 H   0  0  0  0  0  0  0  0  0  0  0  0
   32.5270   29.2300   35.5610 H   0  0  0  0  0  0  0  0  0  0  0  0
   33.8770   28.3950   33.8930 H   0  0  0  0  0  0  0  0  0  0  0  0
   33.0930   29.4840   32.7140 H   0  0  0  0  0  0  0  0  0  0  0  0
   34.5780   31.0940   32.9580 H   0  0  0  0  0  0  0  0  0  0  0  0
   35.7700   31.4430   35.1060 H   0  0  0  0  0  0  0  0  0  0  0  0
   35.4050   29.7350   35.6550 H   0  0  0  0  0  0  0  0  0  0  0  0
   33.4160   32.1390   36.1450 C   0  0  0  0  0  0  0  0  0  0  0  0
   34.4990   32.6900   36.8500 C   0  0  0  0  0  0  0  0  0  0  0  0
   34.2960   33.8320   37.6410 C   0  0  0  0  0  0  0  0  0  0  0  0
   33.0060   34.3310   37.6570 N   0  0  0  0  0  0  0  0  0  0  0  0
   31.9990   33.7820   36.9740 C   0  0  0  0  0  0  0  0  0  0  0  0
   32.2200   32.6850   36.2220 N   0  0  0  0  0  0  0  0  0  0  0  0
   35.5020   32.3060   36.8380 H   0  0  0  0  0  0  0  0  0  0  0  0
   35.0860   34.3070   38.2080 H   0  0  0  0  0  0  0  0  0  0  0  0
   31.0240   34.2420   37.0490 H   0  0  0  0  0  0  0  0  0  0  0  0
   39.1640   26.3010   34.1920 C   0  0  2  0  0  3  0  0  0  0  0  0
   37.6870   26.2030   33.8740 C   0  0  2  0  0  3  0  0  0  0  0  0
   37.4550   25.0360   33.1820 O   0  0  0  0  0  0  0  0  0  0  0  0
   38.6190   24.4670   32.6960 C   0  0  0  0  0  2  0  0  0  0  0  0
   39.4880   23.9320   33.8060 C   0  0  1  0  0  3  0  0  0  0  0  0
   39.6570   25.0190   34.8340 C   0  0  2  0  0  3  0  0  0  0  0  0
   39.2650   27.3110   35.1630 O   0  0  0  0  0  0  0  0  0  0  0  0
   40.1840   27.6650   35.2370 H   0  0  0  0  0  0  0  0  0  0  0  0
   38.9760   22.7610   34.3560 O   0  0  0  0  0  0  0  0  0  0  0  0
   39.2350   22.0250   33.7160 H   0  0  0  0  0  0  0  0  0  0  0  0
   38.9420   24.7440   36.0020 O   0  0  0  0  0  0  0  0  0  0  0  0
   38.6870   23.7920   36.0270 H   0  0  0  0  0  0  0  0  0  0  0  0
  2  1  1  0  0  0  0
  3 14  1  0  0  0  0
  3  2  2  0  0  0  0
  4  3  1  0  0  0  0
  5  4  2  0  0  0  0
  5  6  1  0  0  0  0
  6  7  2  0  0  0  0
  7  2  1  0  0  0  0
  8  4  1  0  0  0  0
  9  5  1  0  0  0  0
 10  6  1  0  0  0  0
 11 23  1  0  0  0  0
 12 11  1  0  0  0  0
 12 17  1  0  0  0  0
 13 18  1  0  0  0  0
 13 12  1  0  0  0  0
 14 20  1  6  0  0  0
 14 13  1  0  0  0  0
 14 15  1  0  0  0  0
 15 21  1  0  0  0  0
 15 11  1  0  0  0  0
 15 22  1  0  0  0  0
 16 12  1  0  0  0  0
 19 13  1  0  0  0  0
 23 28  2  0  0  0  0
 23 24  1  0  0  0  0
 24 25  2  0  0  0  0
 25 26  1  0  0  0  0
 25 30  1  0  0  0  0
 27 31  1  0  0  0  0
 27 26  2  0  0  0  0
 28 27  1  0  0  0  0
 29 24  1  0  0  0  0
 32 37  1  0  0  0  0
 32 38  1  1  0  0  0
 33  7  1  6  0  0  0
 33 32  1  0  0  0  0
 34 33  1  0  0  0  0
 35 34  1  0  0  0  0
 35 36  1  0  0  0  0
 36 40  1  1  0  0  0
 36 37  1  0  0  0  0
 37 42  1  1  0  0  0
 38 39  1  0  0  0  0
 41 40  1  0  0  0  0
 42 43  1  0  0  0  0
M  END
>  <minimizedAffinity>
-5.71929455

$$$$
