
 OpenBabel03272501173D

 38 41  0  0  1  0  0  0  0  0999 V2000
   37.2240   27.0400   33.3990 C   0  0  0  0  0  0  0  0  0  0  0  0
   38.0970   27.3880   32.7830 H   0  0  0  0  0  0  0  0  0  0  0  0
   36.8150   26.1650   32.8820 H   0  0  0  0  0  0  0  0  0  0  0  0
   38.7230   25.6670   34.9090 C   0  0  1  0  0  0  0  0  0  0  0  0
   37.7200   26.6730   34.7590 C   0  0  1  0  0  0  0  0  0  0  0  0
   39.0690   27.1200   35.2640 C   0  0  0  0  0  0  0  0  0  0  0  0
   39.2590   25.2430   34.0380 H   0  0  0  0  0  0  0  0  0  0  0  0
   36.9290   26.8070   35.5530 H   0  0  0  0  0  0  0  0  0  0  0  0
   39.7830   27.5820   34.5850 H   0  0  0  0  0  0  0  0  0  0  0  0
   39.2160   27.3850   36.3250 H   0  0  0  0  0  0  0  0  0  0  0  0
   38.7780   24.7600   36.1240 C   0  0  0  0  0  0  0  0  0  0  0  0
   39.7080   23.7330   36.0520 C   0  0  0  0  0  0  0  0  0  0  0  0
   39.7130   22.8910   37.1910 C   0  0  0  0  0  0  0  0  0  0  0  0
   38.8750   23.1030   38.2280 N   0  0  0  0  0  0  0  0  0  0  0  0
   37.9770   24.1370   38.2360 C   0  0  0  0  0  0  0  0  0  0  0  0
   37.9300   24.9850   37.1560 N   0  0  0  0  0  0  0  0  0  0  0  0
   40.3420   23.6170   35.2080 H   0  0  0  0  0  0  0  0  0  0  0  0
   40.4180   22.0700   37.1970 H   0  0  0  0  0  0  0  0  0  0  0  0
   37.2890   24.3650   39.0130 H   0  0  0  0  0  0  0  0  0  0  0  0
   36.2960   28.2080   33.4170 C   0  0  0  0  0  0  0  0  0  0  0  0
   35.5480   28.5750   32.3140 C   0  0  0  0  0  0  0  0  0  0  0  0
   34.7890   29.6480   32.5560 N   0  0  0  0  0  0  0  0  0  0  0  0
   35.0610   29.9650   33.8390 C   0  0  0  0  0  0  0  0  0  0  0  0
   35.9640   29.1070   34.3600 N   0  0  0  0  0  0  0  0  0  0  0  0
   35.5480   28.0810   31.3460 H   0  0  0  0  0  0  0  0  0  0  0  0
   34.1390   30.1220   31.8950 H   0  0  0  0  0  0  0  0  0  0  0  0
   34.7660   31.1790   35.9820 C   0  0  2  0  0  3  0  0  0  0  0  0
   34.4170   31.1240   34.5270 C   0  0  2  0  0  3  0  0  0  0  0  0
   33.0600   31.1890   34.3400 O   0  0  0  0  0  0  0  0  0  0  0  0
   32.2920   30.7820   35.4120 C   0  0  0  0  0  2  0  0  0  0  0  0
   32.4770   31.6180   36.6530 C   0  0  2  0  0  3  0  0  0  0  0  0
   33.8510   32.2360   36.6000 C   0  0  1  0  0  3  0  0  0  0  0  0
   36.0690   31.5390   36.2320 O   0  0  0  0  0  0  0  0  0  0  0  0
   36.1280   32.3980   36.6920 H   0  0  0  0  0  0  0  0  0  0  0  0
   32.4880   30.7330   37.7420 O   0  0  0  0  0  0  0  0  0  0  0  0
   32.0540   31.1400   38.5440 H   0  0  0  0  0  0  0  0  0  0  0  0
   34.3100   32.6910   37.8200 O   0  0  0  0  0  0  0  0  0  0  0  0
   34.5900   33.6460   37.7230 H   0  0  0  0  0  0  0  0  0  0  0  0
  1 20  1  0  0  0  0
  1  5  1  0  0  0  0
  2  1  1  0  0  0  0
  3  1  1  0  0  0  0
  4  7  1  6  0  0  0
  4  6  1  0  0  0  0
  4 11  1  0  0  0  0
  5  4  1  0  0  0  0
  5  6  1  0  0  0  0
  5  8  1  1  0  0  0
  6 10  1  0  0  0  0
  9  6  1  0  0  0  0
 11 16  1  0  0  0  0
 12 11  2  0  0  0  0
 12 13  1  0  0  0  0
 13 18  1  0  0  0  0
 13 14  2  0  0  0  0
 14 15  1  0  0  0  0
 15 19  1  0  0  0  0
 16 15  2  0  0  0  0
 17 12  1  0  0  0  0
 20 24  1  0  0  0  0
 21 22  1  0  0  0  0
 21 20  2  0  0  0  0
 22 23  1  0  0  0  0
 23 24  2  0  0  0  0
 25 21  1  0  0  0  0
 26 22  1  0  0  0  0
 27 33  1  6  0  0  0
 27 32  1  0  0  0  0
 28 23  1  1  0  0  0
 28 27  1  0  0  0  0
 29 28  1  0  0  0  0
 29 30  1  0  0  0  0
 30 31  1  0  0  0  0
 31 35  1  1  0  0  0
 32 31  1  0  0  0  0
 32 37  1  1  0  0  0
 33 34  1  0  0  0  0
 35 36  1  0  0  0  0
 38 37  1  0  0  0  0
M  END
>  <minimizedAffinity>
-6.23849726

$$$$

 OpenBabel03272501173D

 38 41  0  0  1  0  0  0  0  0999 V2000
   36.6360   28.2540   33.0070 C   0  0  0  0  0  0  0  0  0  0  0  0
   36.2870   27.6410   32.1320 H   0  0  0  0  0  0  0  0  0  0  0  0
   37.3850   28.9490   32.6140 H   0  0  0  0  0  0  0  0  0  0  0  0
   35.6270   30.3120   34.0830 C   0  0  1  0  0  0  0  0  0  0  0  0
   35.4640   28.9910   33.5660 C   0  0  1  0  0  0  0  0  0  0  0  0
   34.7910   30.1110   32.8110 C   0  0  0  0  0  0  0  0  0  0  0  0
   36.5720   30.8760   33.9550 H   0  0  0  0  0  0  0  0  0  0  0  0
   34.6970   28.2960   34.0190 H   0  0  0  0  0  0  0  0  0  0  0  0
   35.2500   30.5190   31.9120 H   0  0  0  0  0  0  0  0  0  0  0  0
   33.6990   30.2550   32.8680 H   0  0  0  0  0  0  0  0  0  0  0  0
   34.7890   30.8350   35.2340 C   0  0  0  0  0  0  0  0  0  0  0  0
   35.4130   31.7780   36.0380 C   0  0  0  0  0  0  0  0  0  0  0  0
   34.6110   32.2250   37.1160 C   0  0  0  0  0  0  0  0  0  0  0  0
   33.3600   31.7520   37.3090 N   0  0  0  0  0  0  0  0  0  0  0  0
   32.8020   30.8190   36.4760 C   0  0  0  0  0  0  0  0  0  0  0  0
   33.5360   30.3510   35.4140 N   0  0  0  0  0  0  0  0  0  0  0  0
   36.4000   32.1130   35.8360 H   0  0  0  0  0  0  0  0  0  0  0  0
   35.0400   32.9620   37.7810 H   0  0  0  0  0  0  0  0  0  0  0  0
   31.8290   30.4010   36.5650 H   0  0  0  0  0  0  0  0  0  0  0  0
   37.1970   27.2510   33.9600 C   0  0  0  0  0  0  0  0  0  0  0  0
   37.6950   27.6080   35.1980 C   0  0  0  0  0  0  0  0  0  0  0  0
   38.1460   26.5520   35.8820 N   0  0  0  0  0  0  0  0  0  0  0  0
   37.9270   25.5060   35.0590 C   0  0  0  0  0  0  0  0  0  0  0  0
   37.3600   25.9180   33.9050 N   0  0  0  0  0  0  0  0  0  0  0  0
   37.7360   28.6140   35.6080 H   0  0  0  0  0  0  0  0  0  0  0  0
   38.5670   26.5510   36.8350 H   0  0  0  0  0  0  0  0  0  0  0  0
   38.9790   24.0410   36.7620 C   0  0  2  0  0  3  0  0  0  0  0  0
   38.2900   24.1060   35.4350 C   0  0  2  0  0  3  0  0  0  0  0  0
   39.0080   23.4460   34.4700 O   0  0  0  0  0  0  0  0  0  0  0  0
   40.3600   23.3210   34.7190 C   0  0  0  0  0  2  0  0  0  0  0  0
   40.6860   22.5190   35.9540 C   0  0  2  0  0  3  0  0  0  0  0  0
   39.5130   22.6150   36.8970 C   0  0  1  0  0  3  0  0  0  0  0  0
   38.1570   24.2950   37.8330 O   0  0  0  0  0  0  0  0  0  0  0  0
   38.0510   23.5100   38.4060 H   0  0  0  0  0  0  0  0  0  0  0  0
   41.7530   23.1700   36.5900 O   0  0  0  0  0  0  0  0  0  0  0  0
   42.3750   22.5140   37.0180 H   0  0  0  0  0  0  0  0  0  0  0  0
   39.8130   22.2780   38.2020 O   0  0  0  0  0  0  0  0  0  0  0  0
   39.1670   21.5800   38.5090 H   0  0  0  0  0  0  0  0  0  0  0  0
  1  5  1  0  0  0  0
  1 20  1  0  0  0  0
  2  1  1  0  0  0  0
  3  1  1  0  0  0  0
  4  7  1  6  0  0  0
  4 11  1  0  0  0  0
  5  8  1  1  0  0  0
  5  4  1  0  0  0  0
  6 10  1  0  0  0  0
  6  5  1  0  0  0  0
  6  4  1  0  0  0  0
  9  6  1  0  0  0  0
 11 16  2  0  0  0  0
 11 12  1  0  0  0  0
 12 13  2  0  0  0  0
 13 14  1  0  0  0  0
 13 18  1  0  0  0  0
 15 19  1  0  0  0  0
 15 14  2  0  0  0  0
 16 15  1  0  0  0  0
 17 12  1  0  0  0  0
 20 21  2  0  0  0  0
 21 25  1  0  0  0  0
 21 22  1  0  0  0  0
 22 26  1  0  0  0  0
 23 22  1  0  0  0  0
 24 20  1  0  0  0  0
 24 23  2  0  0  0  0
 27 32  1  0  0  0  0
 27 33  1  1  0  0  0
 28 23  1  6  0  0  0
 28 27  1  0  0  0  0
 29 30  1  0  0  0  0
 29 28  1  0  0  0  0
 30 31  1  0  0  0  0
 31 35  1  1  0  0  0
 31 32  1  0  0  0  0
 32 37  1  1  0  0  0
 33 34  1  0  0  0  0
 35 36  1  0  0  0  0
 37 38  1  0  0  0  0
M  END
>  <minimizedAffinity>
-6.04223776

$$$$

 OpenBabel03272501173D

 38 41  0  0  1  0  0  0  0  0999 V2000
   35.7530   27.7220   32.1180 C   0  0  0  0  0  0  0  0  0  0  0  0
   34.9860   26.9100   32.2380 H   0  0  0  0  0  0  0  0  0  0  0  0
   35.9150   27.8320   31.0400 H   0  0  0  0  0  0  0  0  0  0  0  0
   35.8740   29.6060   33.8050 C   0  0  1  0  0  0  0  0  0  0  0  0
   35.2080   28.9810   32.7070 C   0  0  1  0  0  0  0  0  0  0  0  0
   35.8450   30.3240   32.4490 C   0  0  0  0  0  0  0  0  0  0  0  0
   36.8710   29.2690   34.1520 H   0  0  0  0  0  0  0  0  0  0  0  0
   34.0850   29.0450   32.6150 H   0  0  0  0  0  0  0  0  0  0  0  0
   36.8170   30.3860   31.9610 H   0  0  0  0  0  0  0  0  0  0  0  0
   35.2270   31.2320   32.3440 H   0  0  0  0  0  0  0  0  0  0  0  0
   35.1180   30.3780   34.8710 C   0  0  0  0  0  0  0  0  0  0  0  0
   35.8960   31.2230   35.6500 C   0  0  0  0  0  0  0  0  0  0  0  0
   35.1620   31.9070   36.6500 C   0  0  0  0  0  0  0  0  0  0  0  0
   33.8320   31.7260   36.7970 N   0  0  0  0  0  0  0  0  0  0  0  0
   33.1220   30.8750   35.9930 C   0  0  0  0  0  0  0  0  0  0  0  0
   33.7840   30.1860   35.0060 N   0  0  0  0  0  0  0  0  0  0  0  0
   36.9400   31.3240   35.4860 H   0  0  0  0  0  0  0  0  0  0  0  0
   35.7120   32.5820   37.2920 H   0  0  0  0  0  0  0  0  0  0  0  0
   32.0790   30.6820   36.0490 H   0  0  0  0  0  0  0  0  0  0  0  0
   36.9490   27.2110   32.8500 C   0  0  0  0  0  0  0  0  0  0  0  0
   38.2370   27.4100   32.3900 C   0  0  0  0  0  0  0  0  0  0  0  0
   39.1500   26.8670   33.2010 N   0  0  0  0  0  0  0  0  0  0  0  0
   38.4240   26.3140   34.1950 C   0  0  0  0  0  0  0  0  0  0  0  0
   37.1050   26.5160   33.9900 N   0  0  0  0  0  0  0  0  0  0  0  0
   38.5210   27.9380   31.4830 H   0  0  0  0  0  0  0  0  0  0  0  0
   40.1850   26.8770   33.0820 H   0  0  0  0  0  0  0  0  0  0  0  0
   39.5230   24.2210   34.9460 C   0  0  2  0  0  3  0  0  0  0  0  0
   39.0580   25.5890   35.3370 C   0  0  2  0  0  3  0  0  0  0  0  0
   38.2740   25.5440   36.4630 O   0  0  0  0  0  0  0  0  0  0  0  0
   37.6540   24.3350   36.7050 C   0  0  0  0  0  2  0  0  0  0  0  0
   38.6070   23.1910   36.9420 C   0  0  2  0  0  3  0  0  0  0  0  0
   39.9060   23.5130   36.2460 C   0  0  1  0  0  3  0  0  0  0  0  0
   40.6190   24.2190   34.1170 O   0  0  0  0  0  0  0  0  0  0  0  0
   41.4010   23.8220   34.5470 H   0  0  0  0  0  0  0  0  0  0  0  0
   38.0750   22.0750   36.2810 O   0  0  0  0  0  0  0  0  0  0  0  0
   38.2560   21.2330   36.7870 H   0  0  0  0  0  0  0  0  0  0  0  0
   40.7170   22.4160   36.0360 O   0  0  0  0  0  0  0  0  0  0  0  0
   41.6240   22.6110   36.4090 H   0  0  0  0  0  0  0  0  0  0  0  0
  1  2  1  0  0  0  0
  1  5  1  0  0  0  0
  1 20  1  0  0  0  0
  3  1  1  0  0  0  0
  4  7  1  1  0  0  0
  4 11  1  0  0  0  0
  5  8  1  1  0  0  0
  5  4  1  0  0  0  0
  6  5  1  0  0  0  0
  6  4  1  0  0  0  0
  9  6  1  0  0  0  0
 10  6  1  0  0  0  0
 11 16  2  0  0  0  0
 11 12  1  0  0  0  0
 12 13  2  0  0  0  0
 13 14  1  0  0  0  0
 13 18  1  0  0  0  0
 15 19  1  0  0  0  0
 15 14  2  0  0  0  0
 16 15  1  0  0  0  0
 17 12  1  0  0  0  0
 20 24  1  0  0  0  0
 21 20  2  0  0  0  0
 21 22  1  0  0  0  0
 22 23  1  0  0  0  0
 24 23  2  0  0  0  0
 25 21  1  0  0  0  0
 26 22  1  0  0  0  0
 27 33  1  6  0  0  0
 27 28  1  0  0  0  0
 27 32  1  0  0  0  0
 28 23  1  6  0  0  0
 28 29  1  0  0  0  0
 29 30  1  0  0  0  0
 30 31  1  0  0  0  0
 31 35  1  6  0  0  0
 32 37  1  6  0  0  0
 32 31  1  0  0  0  0
 33 34  1  0  0  0  0
 35 36  1  0  0  0  0
 37 38  1  0  0  0  0
M  END
>  <minimizedAffinity>
-5.59027195

$$$$

 OpenBabel03272501173D

 38 41  0  0  1  0  0  0  0  0999 V2000
   36.0020   28.9200   31.2120 C   0  0  0  0  0  0  0  0  0  0  0  0
   36.4600   29.7410   30.5970 H   0  0  0  0  0  0  0  0  0  0  0  0
   35.6690   28.1550   30.5030 H   0  0  0  0  0  0  0  0  0  0  0  0
   37.0420   26.9940   32.4840 C   0  0  1  0  0  0  0  0  0  0  0  0
   37.0460   28.3780   32.1310 C   0  0  1  0  0  0  0  0  0  0  0  0
   38.1940   27.5390   31.6280 C   0  0  0  0  0  0  0  0  0  0  0  0
   36.3730   26.2660   31.9840 H   0  0  0  0  0  0  0  0  0  0  0  0
   37.4080   29.1500   32.8720 H   0  0  0  0  0  0  0  0  0  0  0  0
   38.1960   27.1690   30.6030 H   0  0  0  0  0  0  0  0  0  0  0  0
   39.1960   27.6220   32.0810 H   0  0  0  0  0  0  0  0  0  0  0  0
   37.5250   26.5060   33.8370 C   0  0  0  0  0  0  0  0  0  0  0  0
   37.6920   27.4950   34.7950 C   0  0  0  0  0  0  0  0  0  0  0  0
   38.1680   27.0070   36.0370 C   0  0  0  0  0  0  0  0  0  0  0  0
   38.4210   25.6950   36.2290 N   0  0  0  0  0  0  0  0  0  0  0  0
   38.2350   24.7670   35.2380 C   0  0  0  0  0  0  0  0  0  0  0  0
   37.7750   25.1860   34.0140 N   0  0  0  0  0  0  0  0  0  0  0  0
   37.4760   28.5130   34.5850 H   0  0  0  0  0  0  0  0  0  0  0  0
   38.3200   27.7300   36.8280 H   0  0  0  0  0  0  0  0  0  0  0  0
   38.4130   23.7230   35.3150 H   0  0  0  0  0  0  0  0  0  0  0  0
   34.8810   29.5860   31.9390 C   0  0  0  0  0  0  0  0  0  0  0  0
   34.3970   30.8270   31.5710 C   0  0  0  0  0  0  0  0  0  0  0  0
   33.3950   31.2290   32.3590 N   0  0  0  0  0  0  0  0  0  0  0  0
   33.2420   30.2210   33.2420 C   0  0  0  0  0  0  0  0  0  0  0  0
   34.1300   29.2330   32.9960 N   0  0  0  0  0  0  0  0  0  0  0  0
   34.7580   31.4390   30.7480 H   0  0  0  0  0  0  0  0  0  0  0  0
   32.8610   32.1210   32.2940 H   0  0  0  0  0  0  0  0  0  0  0  0
   32.7940   29.9520   35.6670 C   0  0  2  0  0  3  0  0  0  0  0  0
   32.2100   30.2570   34.3220 C   0  0  2  0  0  3  0  0  0  0  0  0
   31.1170   29.4690   34.0650 O   0  0  0  0  0  0  0  0  0  0  0  0
   31.0670   28.2780   34.7610 C   0  0  0  0  0  2  0  0  0  0  0  0
   30.9880   28.4430   36.2580 C   0  0  2  0  0  3  0  0  0  0  0  0
   31.6080   29.7710   36.6150 C   0  0  1  0  0  3  0  0  0  0  0  0
   33.5970   30.9480   36.1680 O   0  0  0  0  0  0  0  0  0  0  0  0
   33.2180   31.3510   36.9730 H   0  0  0  0  0  0  0  0  0  0  0  0
   31.8170   27.4610   36.8190 O   0  0  0  0  0  0  0  0  0  0  0  0
   31.4390   27.1140   37.6770 H   0  0  0  0  0  0  0  0  0  0  0  0
   31.9660   29.8840   37.9430 O   0  0  0  0  0  0  0  0  0  0  0  0
   31.5530   30.7140   38.3170 H   0  0  0  0  0  0  0  0  0  0  0  0
  1 20  1  0  0  0  0
  1  5  1  0  0  0  0
  2  1  1  0  0  0  0
  3  1  1  0  0  0  0
  4  7  1  6  0  0  0
  4 11  1  0  0  0  0
  5  4  1  0  0  0  0
  5  8  1  1  0  0  0
  6 10  1  0  0  0  0
  6  5  1  0  0  0  0
  6  4  1  0  0  0  0
  9  6  1  0  0  0  0
 11 16  2  0  0  0  0
 11 12  1  0  0  0  0
 12 13  2  0  0  0  0
 13 14  1  0  0  0  0
 13 18  1  0  0  0  0
 15 19  1  0  0  0  0
 15 14  2  0  0  0  0
 16 15  1  0  0  0  0
 17 12  1  0  0  0  0
 20 24  1  0  0  0  0
 21 20  2  0  0  0  0
 21 22  1  0  0  0  0
 22 23  1  0  0  0  0
 24 23  2  0  0  0  0
 25 21  1  0  0  0  0
 26 22  1  0  0  0  0
 27 33  1  1  0  0  0
 27 32  1  0  0  0  0
 28 23  1  6  0  0  0
 28 27  1  0  0  0  0
 29 28  1  0  0  0  0
 29 30  1  0  0  0  0
 30 31  1  0  0  0  0
 31 32  1  0  0  0  0
 31 35  1  1  0  0  0
 32 37  1  1  0  0  0
 33 34  1  0  0  0  0
 35 36  1  0  0  0  0
 37 38  1  0  0  0  0
M  END
>  <minimizedAffinity>
-5.48191309

$$$$

 OpenBabel03272501173D

 38 41  0  0  1  0  0  0  0  0999 V2000
   38.2040   26.6460   32.9110 C   0  0  0  0  0  0  0  0  0  0  0  0
   39.1340   26.9800   32.3760 H   0  0  0  0  0  0  0  0  0  0  0  0
   37.8770   25.7280   32.4120 H   0  0  0  0  0  0  0  0  0  0  0  0
   39.3300   25.2430   34.6920 C   0  0  1  0  0  0  0  0  0  0  0  0
   38.5470   26.3840   34.3400 C   0  0  1  0  0  0  0  0  0  0  0  0
   39.9280   26.6430   34.8900 C   0  0  0  0  0  0  0  0  0  0  0  0
   39.8200   24.6120   33.9250 H   0  0  0  0  0  0  0  0  0  0  0  0
   37.7550   26.7680   35.0480 H   0  0  0  0  0  0  0  0  0  0  0  0
   40.7530   26.8690   34.2160 H   0  0  0  0  0  0  0  0  0  0  0  0
   40.0660   27.0190   35.9170 H   0  0  0  0  0  0  0  0  0  0  0  0
   39.1450   24.5150   36.0110 C   0  0  0  0  0  0  0  0  0  0  0  0
   40.0260   23.4670   36.2350 C   0  0  0  0  0  0  0  0  0  0  0  0
   39.8070   22.7950   37.4620 C   0  0  0  0  0  0  0  0  0  0  0  0
   38.8230   23.1710   38.3070 N   0  0  0  0  0  0  0  0  0  0  0  0
   37.9850   24.2170   38.0250 C   0  0  0  0  0  0  0  0  0  0  0  0
   38.1520   24.9040   36.8470 N   0  0  0  0  0  0  0  0  0  0  0  0
   40.7820   23.2180   35.5320 H   0  0  0  0  0  0  0  0  0  0  0  0
   40.4630   21.9670   37.6970 H   0  0  0  0  0  0  0  0  0  0  0  0
   37.1910   24.5680   38.6370 H   0  0  0  0  0  0  0  0  0  0  0  0
   37.2530   27.7840   32.7430 C   0  0  0  0  0  0  0  0  0  0  0  0
   37.0790   28.4300   31.5340 C   0  0  0  0  0  0  0  0  0  0  0  0
   36.1810   29.4160   31.6140 N   0  0  0  0  0  0  0  0  0  0  0  0
   35.7780   29.3930   32.9020 C   0  0  0  0  0  0  0  0  0  0  0  0
   36.4170   28.4180   33.5830 N   0  0  0  0  0  0  0  0  0  0  0  0
   37.5910   28.1970   30.6030 H   0  0  0  0  0  0  0  0  0  0  0  0
   35.8710   30.0510   30.8490 H   0  0  0  0  0  0  0  0  0  0  0  0
   34.7140   30.3430   34.9310 C   0  0  2  0  0  3  0  0  0  0  0  0
   34.7600   30.3480   33.4350 C   0  0  2  0  0  3  0  0  0  0  0  0
   33.5090   30.1730   32.8990 O   0  0  0  0  0  0  0  0  0  0  0  0
   32.5960   29.5390   33.7180 C   0  0  0  0  0  2  0  0  0  0  0  0
   32.2890   30.2860   34.9910 C   0  0  2  0  0  3  0  0  0  0  0  0
   33.4780   31.1530   35.3230 C   0  0  1  0  0  3  0  0  0  0  0  0
   35.8100   30.9170   35.5270 O   0  0  0  0  0  0  0  0  0  0  0  0
   35.5760   31.7290   36.0160 H   0  0  0  0  0  0  0  0  0  0  0  0
   32.2060   29.3290   36.0140 O   0  0  0  0  0  0  0  0  0  0  0  0
   31.5110   29.5770   36.6870 H   0  0  0  0  0  0  0  0  0  0  0  0
   33.5130   31.5790   36.6350 O   0  0  0  0  0  0  0  0  0  0  0  0
   33.6080   32.5740   36.6470 H   0  0  0  0  0  0  0  0  0  0  0  0
  1  5  1  0  0  0  0
  2  1  1  0  0  0  0
  3  1  1  0  0  0  0
  4  7  1  6  0  0  0
  4  6  1  0  0  0  0
  4 11  1  0  0  0  0
  5  4  1  0  0  0  0
  5  6  1  0  0  0  0
  5  8  1  1  0  0  0
  6 10  1  0  0  0  0
  9  6  1  0  0  0  0
 11 12  2  0  0  0  0
 11 16  1  0  0  0  0
 12 13  1  0  0  0  0
 13 18  1  0  0  0  0
 13 14  2  0  0  0  0
 15 14  1  0  0  0  0
 15 19  1  0  0  0  0
 16 15  2  0  0  0  0
 17 12  1  0  0  0  0
 20  1  1  0  0  0  0
 20 24  1  0  0  0  0
 21 22  1  0  0  0  0
 21 20  2  0  0  0  0
 22 23  1  0  0  0  0
 23 24  2  0  0  0  0
 25 21  1  0  0  0  0
 26 22  1  0  0  0  0
 27 32  1  0  0  0  0
 27 33  1  1  0  0  0
 28 23  1  1  0  0  0
 28 27  1  0  0  0  0
 29 28  1  0  0  0  0
 29 30  1  0  0  0  0
 30 31  1  0  0  0  0
 31 32  1  0  0  0  0
 31 35  1  1  0  0  0
 32 37  1  1  0  0  0
 33 34  1  0  0  0  0
 35 36  1  0  0  0  0
 37 38  1  0  0  0  0
M  END
>  <minimizedAffinity>
-5.42252064

$$$$

 OpenBabel03272501173D

 38 41  0  0  1  0  0  0  0  0999 V2000
   37.3330   26.4690   33.2430 C   0  0  0  0  0  0  0  0  0  0  0  0
   38.1650   26.6350   32.5060 H   0  0  0  0  0  0  0  0  0  0  0  0
   36.7980   25.5760   32.9050 H   0  0  0  0  0  0  0  0  0  0  0  0
   38.7820   25.1280   34.8290 C   0  0  1  0  0  0  0  0  0  0  0  0
   37.9330   26.2520   34.5930 C   0  0  1  0  0  0  0  0  0  0  0  0
   39.3880   26.5380   34.8750 C   0  0  0  0  0  0  0  0  0  0  0  0
   39.1330   24.4790   34.0030 H   0  0  0  0  0  0  0  0  0  0  0  0
   37.2780   26.6510   35.4220 H   0  0  0  0  0  0  0  0  0  0  0  0
   40.0740   26.7510   34.0570 H   0  0  0  0  0  0  0  0  0  0  0  0
   39.7050   26.9450   35.8500 H   0  0  0  0  0  0  0  0  0  0  0  0
   38.8480   24.4380   36.1790 C   0  0  0  0  0  0  0  0  0  0  0  0
   39.8250   23.4600   36.2940 C   0  0  0  0  0  0  0  0  0  0  0  0
   39.8410   22.8200   37.5570 C   0  0  0  0  0  0  0  0  0  0  0  0
   38.9700   23.1610   38.5320 N   0  0  0  0  0  0  0  0  0  0  0  0
   38.0270   24.1380   38.3530 C   0  0  0  0  0  0  0  0  0  0  0  0
   37.9680   24.7910   37.1460 N   0  0  0  0  0  0  0  0  0  0  0  0
   40.4830   23.2360   35.4910 H   0  0  0  0  0  0  0  0  0  0  0  0
   40.5810   22.0460   37.7120 H   0  0  0  0  0  0  0  0  0  0  0  0
   37.3120   24.4580   39.0700 H   0  0  0  0  0  0  0  0  0  0  0  0
   36.5170   27.7170   33.1660 C   0  0  0  0  0  0  0  0  0  0  0  0
   35.8190   28.0740   32.0280 C   0  0  0  0  0  0  0  0  0  0  0  0
   35.1600   29.2260   32.1830 N   0  0  0  0  0  0  0  0  0  0  0  0
   35.4460   29.6040   33.4460 C   0  0  0  0  0  0  0  0  0  0  0  0
   36.2600   28.7050   34.0400 N   0  0  0  0  0  0  0  0  0  0  0  0
   35.7840   27.5150   31.0960 H   0  0  0  0  0  0  0  0  0  0  0  0
   34.5640   29.7100   31.4800 H   0  0  0  0  0  0  0  0  0  0  0  0
   35.5640   32.0820   33.4780 C   0  0  2  0  0  3  0  0  0  0  0  0
   34.9050   30.8620   34.0430 C   0  0  2  0  0  3  0  0  0  0  0  0
   34.9300   30.8750   35.4150 O   0  0  0  0  0  0  0  0  0  0  0  0
   35.9290   31.6400   35.9830 C   0  0  0  0  0  2  0  0  0  0  0  0
   35.8380   33.1100   35.6590 C   0  0  2  0  0  3  0  0  0  0  0  0
   35.1080   33.2550   34.3470 C   0  0  1  0  0  3  0  0  0  0  0  0
   35.2190   32.3520   32.1760 O   0  0  0  0  0  0  0  0  0  0  0  0
   34.7220   33.1890   32.0970 H   0  0  0  0  0  0  0  0  0  0  0  0
   37.1470   33.5570   35.4290 O   0  0  0  0  0  0  0  0  0  0  0  0
   37.2740   34.4920   35.7570 H   0  0  0  0  0  0  0  0  0  0  0  0
   35.2930   34.4770   33.7330 O   0  0  0  0  0  0  0  0  0  0  0  0
   34.3980   34.8720   33.5280 H   0  0  0  0  0  0  0  0  0  0  0  0
  1  5  1  0  0  0  0
  2  1  1  0  0  0  0
  3  1  1  0  0  0  0
  4  7  1  6  0  0  0
  4  6  1  0  0  0  0
  4 11  1  0  0  0  0
  5  4  1  0  0  0  0
  5  6  1  0  0  0  0
  5  8  1  1  0  0  0
  6 10  1  0  0  0  0
  9  6  1  0  0  0  0
 11 12  2  0  0  0  0
 11 16  1  0  0  0  0
 12 13  1  0  0  0  0
 13 18  1  0  0  0  0
 13 14  2  0  0  0  0
 15 14  1  0  0  0  0
 15 19  1  0  0  0  0
 16 15  2  0  0  0  0
 17 12  1  0  0  0  0
 20  1  1  0  0  0  0
 20 24  1  0  0  0  0
 21 22  1  0  0  0  0
 21 20  2  0  0  0  0
 22 23  1  0  0  0  0
 23 24  2  0  0  0  0
 25 21  1  0  0  0  0
 26 22  1  0  0  0  0
 27 33  1  6  0  0  0
 27 28  1  0  0  0  0
 27 32  1  0  0  0  0
 28 23  1  6  0  0  0
 28 29  1  0  0  0  0
 29 30  1  0  0  0  0
 31 35  1  6  0  0  0
 31 30  1  0  0  0  0
 32 37  1  6  0  0  0
 32 31  1  0  0  0  0
 34 33  1  0  0  0  0
 35 36  1  0  0  0  0
 38 37  1  0  0  0  0
M  END
>  <minimizedAffinity>
-5.41564322

$$$$

 OpenBabel03272501173D

 38 41  0  0  1  0  0  0  0  0999 V2000
   38.6940   26.7450   33.1330 C   0  0  0  0  0  0  0  0  0  0  0  0
   39.4440   27.4600   32.6990 H   0  0  0  0  0  0  0  0  0  0  0  0
   38.6060   25.9220   32.4160 H   0  0  0  0  0  0  0  0  0  0  0  0
   39.3420   24.8550   34.6880 C   0  0  1  0  0  0  0  0  0  0  0  0
   39.2100   26.2560   34.4460 C   0  0  1  0  0  0  0  0  0  0  0  0
   40.6100   25.7160   34.6020 C   0  0  0  0  0  0  0  0  0  0  0  0
   39.2100   24.1080   33.8810 H   0  0  0  0  0  0  0  0  0  0  0  0
   38.9530   26.9560   35.2940 H   0  0  0  0  0  0  0  0  0  0  0  0
   41.2210   25.5140   33.7240 H   0  0  0  0  0  0  0  0  0  0  0  0
   41.1870   25.9000   35.5240 H   0  0  0  0  0  0  0  0  0  0  0  0
   39.1570   24.2550   36.0700 C   0  0  0  0  0  0  0  0  0  0  0  0
   38.1230   24.8020   36.8160 C   0  0  0  0  0  0  0  0  0  0  0  0
   37.9970   24.2360   38.1090 C   0  0  0  0  0  0  0  0  0  0  0  0
   38.8260   23.2590   38.5360 N   0  0  0  0  0  0  0  0  0  0  0  0
   39.8300   22.7640   37.7470 C   0  0  0  0  0  0  0  0  0  0  0  0
   39.9970   23.2760   36.4840 N   0  0  0  0  0  0  0  0  0  0  0  0
   37.5030   25.5700   36.4260 H   0  0  0  0  0  0  0  0  0  0  0  0
   37.2080   24.6190   38.7430 H   0  0  0  0  0  0  0  0  0  0  0  0
   40.5180   22.0000   38.0140 H   0  0  0  0  0  0  0  0  0  0  0  0
   37.4460   27.5540   33.2660 C   0  0  0  0  0  0  0  0  0  0  0  0
   36.8810   27.8430   34.4930 C   0  0  0  0  0  0  0  0  0  0  0  0
   35.7720   28.5780   34.3750 N   0  0  0  0  0  0  0  0  0  0  0  0
   35.6330   28.7570   33.0450 C   0  0  0  0  0  0  0  0  0  0  0  0
   36.6330   28.1450   32.3750 N   0  0  0  0  0  0  0  0  0  0  0  0
   37.2590   27.5300   35.4630 H   0  0  0  0  0  0  0  0  0  0  0  0
   35.1610   28.9260   35.1430 H   0  0  0  0  0  0  0  0  0  0  0  0
   34.9780   30.6080   31.5280 C   0  0  2  0  0  3  0  0  0  0  0  0
   34.5010   29.5370   32.4590 C   0  0  2  0  0  3  0  0  0  0  0  0
   33.6390   30.0440   33.3990 O   0  0  0  0  0  0  0  0  0  0  0  0
   33.7660   31.3950   33.6540 C   0  0  0  0  0  2  0  0  0  0  0  0
   33.4820   32.2750   32.4630 C   0  0  2  0  0  3  0  0  0  0  0  0
   33.7580   31.4750   31.2140 C   0  0  1  0  0  3  0  0  0  0  0  0
   35.4850   30.1340   30.3430 O   0  0  0  0  0  0  0  0  0  0  0  0
   34.9380   30.4030   29.5790 H   0  0  0  0  0  0  0  0  0  0  0  0
   34.4330   33.3060   32.4830 O   0  0  0  0  0  0  0  0  0  0  0  0
   34.0420   34.1660   32.1570 H   0  0  0  0  0  0  0  0  0  0  0  0
   33.9270   32.2430   30.0800 O   0  0  0  0  0  0  0  0  0  0  0  0
   33.3060   31.9120   29.3720 H   0  0  0  0  0  0  0  0  0  0  0  0
  1 20  1  0  0  0  0
  1  5  1  0  0  0  0
  2  1  1  0  0  0  0
  3  1  1  0  0  0  0
  4  7  1  6  0  0  0
  4 11  1  0  0  0  0
  5  6  1  0  0  0  0
  5  4  1  0  0  0  0
  5  8  1  1  0  0  0
  6  4  1  0  0  0  0
  6 10  1  0  0  0  0
  9  6  1  0  0  0  0
 11 16  2  0  0  0  0
 11 12  1  0  0  0  0
 12 13  2  0  0  0  0
 13 14  1  0  0  0  0
 13 18  1  0  0  0  0
 15 19  1  0  0  0  0
 15 14  2  0  0  0  0
 16 15  1  0  0  0  0
 17 12  1  0  0  0  0
 20 21  2  0  0  0  0
 21 25  1  0  0  0  0
 22 21  1  0  0  0  0
 22 26  1  0  0  0  0
 23 22  1  0  0  0  0
 24 23  2  0  0  0  0
 24 20  1  0  0  0  0
 27 33  1  6  0  0  0
 27 28  1  0  0  0  0
 28 23  1  1  0  0  0
 28 29  1  0  0  0  0
 29 30  1  0  0  0  0
 31 35  1  1  0  0  0
 31 30  1  0  0  0  0
 32 37  1  6  0  0  0
 32 27  1  0  0  0  0
 32 31  1  0  0  0  0
 34 33  1  0  0  0  0
 36 35  1  0  0  0  0
 38 37  1  0  0  0  0
M  END
>  <minimizedAffinity>
-5.39843464

$$$$

 OpenBabel03272501173D

 38 41  0  0  1  0  0  0  0  0999 V2000
   37.4260   27.5590   33.1830 C   0  0  0  0  0  0  0  0  0  0  0  0
   38.2770   28.2750   33.0210 H   0  0  0  0  0  0  0  0  0  0  0  0
   37.4850   26.8250   32.3720 H   0  0  0  0  0  0  0  0  0  0  0  0
   38.8280   26.2290   34.8200 C   0  0  1  0  0  0  0  0  0  0  0  0
   37.6070   26.9020   34.5120 C   0  0  1  0  0  0  0  0  0  0  0  0
   38.4710   27.5080   35.5900 C   0  0  0  0  0  0  0  0  0  0  0  0
   39.7140   26.2960   34.1580 H   0  0  0  0  0  0  0  0  0  0  0  0
   36.6310   26.5300   34.9410 H   0  0  0  0  0  0  0  0  0  0  0  0
   39.1170   28.3540   35.3650 H   0  0  0  0  0  0  0  0  0  0  0  0
   38.1900   27.4220   36.6540 H   0  0  0  0  0  0  0  0  0  0  0  0
   38.8720   25.0140   35.7270 C   0  0  0  0  0  0  0  0  0  0  0  0
   39.9890   24.2050   35.5780 C   0  0  0  0  0  0  0  0  0  0  0  0
   39.9830   23.0680   36.4220 C   0  0  0  0  0  0  0  0  0  0  0  0
   38.9660   22.8300   37.2780 N   0  0  0  0  0  0  0  0  0  0  0  0
   37.8890   23.6700   37.3760 C   0  0  0  0  0  0  0  0  0  0  0  0
   37.8430   24.7890   36.5800 N   0  0  0  0  0  0  0  0  0  0  0  0
   40.7580   24.4450   34.8870 H   0  0  0  0  0  0  0  0  0  0  0  0
   40.8280   22.3960   36.3540 H   0  0  0  0  0  0  0  0  0  0  0  0
   37.0550   23.5480   38.0230 H   0  0  0  0  0  0  0  0  0  0  0  0
   36.2050   28.4150   33.1220 C   0  0  0  0  0  0  0  0  0  0  0  0
   35.7650   28.9910   31.9450 C   0  0  0  0  0  0  0  0  0  0  0  0
   34.6570   29.7150   32.1230 N   0  0  0  0  0  0  0  0  0  0  0  0
   34.3900   29.5940   33.4410 C   0  0  0  0  0  0  0  0  0  0  0  0
   35.3150   28.8170   34.0440 N   0  0  0  0  0  0  0  0  0  0  0  0
   36.2340   28.8930   30.9690 H   0  0  0  0  0  0  0  0  0  0  0  0
   34.1280   30.2470   31.4010 H   0  0  0  0  0  0  0  0  0  0  0  0
   33.3390   30.3100   35.5700 C   0  0  2  0  0  3  0  0  0  0  0  0
   33.2140   30.2590   34.0800 C   0  0  2  0  0  3  0  0  0  0  0  0
   32.0080   29.7260   33.7010 O   0  0  0  0  0  0  0  0  0  0  0  0
   31.4040   28.9050   34.6310 C   0  0  0  0  0  2  0  0  0  0  0  0
   31.0470   29.5980   35.9220 C   0  0  2  0  0  3  0  0  0  0  0  0
   31.9800   30.7700   36.0970 C   0  0  1  0  0  3  0  0  0  0  0  0
   34.2950   31.1880   36.0220 O   0  0  0  0  0  0  0  0  0  0  0  0
   33.9020   31.9280   36.5250 H   0  0  0  0  0  0  0  0  0  0  0  0
   31.3460   28.7030   36.9600 O   0  0  0  0  0  0  0  0  0  0  0  0
   30.6900   28.7830   37.7090 H   0  0  0  0  0  0  0  0  0  0  0  0
   32.0430   31.2500   37.3900 O   0  0  0  0  0  0  0  0  0  0  0  0
   31.8610   32.2320   37.3770 H   0  0  0  0  0  0  0  0  0  0  0  0
  1  5  1  0  0  0  0
  2  1  1  0  0  0  0
  3  1  1  0  0  0  0
  4  7  1  6  0  0  0
  4  6  1  0  0  0  0
  4 11  1  0  0  0  0
  5  4  1  0  0  0  0
  5  8  1  1  0  0  0
  5  6  1  0  0  0  0
  6 10  1  0  0  0  0
  9  6  1  0  0  0  0
 11 16  1  0  0  0  0
 12 11  2  0  0  0  0
 12 13  1  0  0  0  0
 13 14  2  0  0  0  0
 14 15  1  0  0  0  0
 15 19  1  0  0  0  0
 16 15  2  0  0  0  0
 17 12  1  0  0  0  0
 18 13  1  0  0  0  0
 20  1  1  0  0  0  0
 20 24  1  0  0  0  0
 21 22  1  0  0  0  0
 21 20  2  0  0  0  0
 22 23  1  0  0  0  0
 23 24  2  0  0  0  0
 25 21  1  0  0  0  0
 26 22  1  0  0  0  0
 27 33  1  6  0  0  0
 27 32  1  0  0  0  0
 28 23  1  6  0  0  0
 28 27  1  0  0  0  0
 29 28  1  0  0  0  0
 29 30  1  0  0  0  0
 30 31  1  0  0  0  0
 31 32  1  0  0  0  0
 31 35  1  1  0  0  0
 32 37  1  1  0  0  0
 33 34  1  0  0  0  0
 35 36  1  0  0  0  0
 38 37  1  0  0  0  0
M  END
>  <minimizedAffinity>
-5.38836241

$$$$

 OpenBabel03272501173D

 38 41  0  0  1  0  0  0  0  0999 V2000
   36.8250   28.5620   34.8460 C   0  0  0  0  0  0  0  0  0  0  0  0
   37.7030   29.1480   34.4640 H   0  0  0  0  0  0  0  0  0  0  0  0
   36.7210   28.8220   35.9050 H   0  0  0  0  0  0  0  0  0  0  0  0
   34.7750   30.0200   34.5580 C   0  0  1  0  0  0  0  0  0  0  0  0
   35.6120   28.9680   34.0760 C   0  0  1  0  0  0  0  0  0  0  0  0
   35.5710   30.2390   33.2640 C   0  0  0  0  0  0  0  0  0  0  0  0
   35.0690   30.6520   35.4190 H   0  0  0  0  0  0  0  0  0  0  0  0
   35.1650   28.1080   33.4970 H   0  0  0  0  0  0  0  0  0  0  0  0
   36.3690   30.9740   33.3560 H   0  0  0  0  0  0  0  0  0  0  0  0
   35.0240   30.2810   32.3070 H   0  0  0  0  0  0  0  0  0  0  0  0
   33.2780   30.0350   34.3110 C   0  0  0  0  0  0  0  0  0  0  0  0
   32.5790   31.0280   34.9820 C   0  0  0  0  0  0  0  0  0  0  0  0
   31.1830   30.9950   34.7480 C   0  0  0  0  0  0  0  0  0  0  0  0
   30.6240   30.0690   33.9400 N   0  0  0  0  0  0  0  0  0  0  0  0
   31.3720   29.1130   33.3060 C   0  0  0  0  0  0  0  0  0  0  0  0
   32.7320   29.0990   33.4980 N   0  0  0  0  0  0  0  0  0  0  0  0
   33.0740   31.7300   35.6050 H   0  0  0  0  0  0  0  0  0  0  0  0
   30.5800   31.7450   35.2440 H   0  0  0  0  0  0  0  0  0  0  0  0
   31.0040   28.3550   32.6590 H   0  0  0  0  0  0  0  0  0  0  0  0
   37.2040   27.1360   34.6190 C   0  0  0  0  0  0  0  0  0  0  0  0
   37.1190   26.5380   33.3760 C   0  0  0  0  0  0  0  0  0  0  0  0
   37.5090   25.2610   33.4050 N   0  0  0  0  0  0  0  0  0  0  0  0
   37.8480   25.0460   34.6930 C   0  0  0  0  0  0  0  0  0  0  0  0
   37.6670   26.1660   35.4260 N   0  0  0  0  0  0  0  0  0  0  0  0
   36.7810   27.0120   32.4580 H   0  0  0  0  0  0  0  0  0  0  0  0
   37.5390   24.5930   32.6060 H   0  0  0  0  0  0  0  0  0  0  0  0
   38.9970   23.8250   36.5210 C   0  0  2  0  0  3  0  0  0  0  0  0
   38.3470   23.7240   35.1760 C   0  0  2  0  0  3  0  0  0  0  0  0
   39.1630   23.0830   34.2780 O   0  0  0  0  0  0  0  0  0  0  0  0
   40.5120   23.1230   34.5680 C   0  0  0  0  0  2  0  0  0  0  0  0
   40.8830   22.4480   35.8640 C   0  0  2  0  0  3  0  0  0  0  0  0
   39.6770   22.4780   36.7690 C   0  0  1  0  0  3  0  0  0  0  0  0
   38.1180   24.0580   37.5510 O   0  0  0  0  0  0  0  0  0  0  0  0
   38.0800   23.3080   38.1750 H   0  0  0  0  0  0  0  0  0  0  0  0
   41.8530   23.2530   36.4780 O   0  0  0  0  0  0  0  0  0  0  0  0
   42.5270   22.7000   36.9660 H   0  0  0  0  0  0  0  0  0  0  0  0
   39.9690   22.2650   38.1010 O   0  0  0  0  0  0  0  0  0  0  0  0
   39.3930   21.5220   38.4410 H   0  0  0  0  0  0  0  0  0  0  0  0
  1  3  1  0  0  0  0
  2  1  1  0  0  0  0
  4  7  1  1  0  0  0
  5  8  1  6  0  0  0
  5  4  1  0  0  0  0
  5  1  1  0  0  0  0
  6  9  1  0  0  0  0
  6  5  1  0  0  0  0
  6  4  1  0  0  0  0
 10  6  1  0  0  0  0
 11  4  1  0  0  0  0
 11 12  1  0  0  0  0
 12 17  1  0  0  0  0
 13 12  2  0  0  0  0
 13 18  1  0  0  0  0
 14 13  1  0  0  0  0
 15 16  1  0  0  0  0
 15 14  2  0  0  0  0
 16 11  2  0  0  0  0
 19 15  1  0  0  0  0
 20  1  1  0  0  0  0
 20 24  1  0  0  0  0
 21 22  1  0  0  0  0
 21 20  2  0  0  0  0
 22 23  1  0  0  0  0
 23 24  2  0  0  0  0
 25 21  1  0  0  0  0
 26 22  1  0  0  0  0
 27 32  1  0  0  0  0
 27 33  1  1  0  0  0
 28 23  1  6  0  0  0
 28 27  1  0  0  0  0
 29 30  1  0  0  0  0
 29 28  1  0  0  0  0
 30 31  1  0  0  0  0
 31 35  1  1  0  0  0
 31 32  1  0  0  0  0
 32 37  1  1  0  0  0
 33 34  1  0  0  0  0
 35 36  1  0  0  0  0
 37 38  1  0  0  0  0
M  END
>  <minimizedAffinity>
-5.38820219

$$$$
