
     RDKit          3D

 44 46  0  0  0  0  0  0  0  0999 V2000
   33.2881   27.2904   47.9884 C   0  0  0  0  0  0  0  0  0  0  0  0
   33.7112   26.2044   47.0511 C   0  0  0  0  0  0  0  0  0  0  0  0
   33.9396   24.8886   47.3890 C   0  0  0  0  0  0  0  0  0  0  0  0
   34.3268   23.9914   46.4072 C   0  0  0  0  0  0  0  0  0  0  0  0
   34.4942   24.3758   45.0834 C   0  0  0  0  0  0  0  0  0  0  0  0
   34.2678   25.6868   44.7411 C   0  0  0  0  0  0  0  0  0  0  0  0
   33.8785   26.5959   45.7196 C   0  0  0  0  0  0  0  0  0  0  0  0
   34.6953   28.3849   49.7304 C   0  0  0  0  0  0  0  0  0  0  0  0
   34.4078   28.0953   48.5036 C   0  0  0  0  0  0  0  0  0  0  0  0
   37.3625   30.2265   51.4336 C   0  0  0  0  0  0  0  0  0  0  0  0
   38.1210   30.6980   50.3200 C   0  0  0  0  0  0  0  0  0  0  0  0
   37.6805   30.3654   49.0211 C   0  0  0  0  0  0  0  0  0  0  0  0
   36.5518   29.6099   48.9031 N   0  0  0  0  0  0  0  0  0  0  0  0
   35.8766   29.1930   49.9923 C   0  0  0  0  0  0  0  0  0  0  0  0
   36.2631   29.4886   51.2450 N   0  0  0  0  0  0  0  0  0  0  0  0
   32.8315   26.7534   48.8666 H   0  0  0  0  0  0  0  0  0  0  0  0
   32.4718   27.8999   47.5613 H   0  0  0  0  0  0  0  0  0  0  0  0
   33.7971   24.6352   48.4311 H   0  0  0  0  0  0  0  0  0  0  0  0
   34.4751   22.9917   46.7957 H   0  0  0  0  0  0  0  0  0  0  0  0
   34.7987   23.5816   44.4146 H   0  0  0  0  0  0  0  0  0  0  0  0
   34.4066   25.9549   43.7027 H   0  0  0  0  0  0  0  0  0  0  0  0
   33.7222   27.6056   45.3616 H   0  0  0  0  0  0  0  0  0  0  0  0
   34.1001   28.0446   50.5949 H   0  0  0  0  0  0  0  0  0  0  0  0
   34.9725   28.4158   47.6348 H   0  0  0  0  0  0  0  0  0  0  0  0
   37.7663   30.5244   52.3913 H   0  0  0  0  0  0  0  0  0  0  0  0
   39.0189   31.2994   50.4280 H   0  0  0  0  0  0  0  0  0  0  0  0
   36.7753   30.6874   46.1812 O   0  0  0  0  0  0  0  0  0  0  0  0
   37.9415   30.0757   46.6432 C   0  0  2  0  0  0  0  0  0  0  0  0
   38.4392   30.8350   47.8322 C   0  0  2  0  0  0  0  0  0  0  0  0
   39.7800   30.6045   48.1074 O   0  0  0  0  0  0  0  0  0  0  0  0
   40.6290   30.7173   47.0456 C   0  0  0  0  0  0  0  0  0  0  0  0
   39.9818   31.0729   45.7387 C   0  0  1  0  0  0  0  0  0  0  0  0
   40.9636   30.9561   44.7486 O   0  0  0  0  0  0  0  0  0  0  0  0
   38.9167   30.0188   45.4906 C   0  0  2  0  0  0  0  0  0  0  0  0
   38.3292   30.1905   44.2566 O   0  0  0  0  0  0  0  0  0  0  0  0
   36.0403   30.0425   46.2109 H   0  0  0  0  0  0  0  0  0  0  0  0
   37.7092   29.0248   46.9722 H   0  0  0  0  0  0  0  0  0  0  0  0
   38.2548   31.9217   47.7135 H   0  0  0  0  0  0  0  0  0  0  0  0
   41.4583   31.4318   47.2905 H   0  0  0  0  0  0  0  0  0  0  0  0
   41.1433   29.7232   46.9164 H   0  0  0  0  0  0  0  0  0  0  0  0
   39.5901   32.0909   45.7901 H   0  0  0  0  0  0  0  0  0  0  0  0
   41.3724   30.0636   44.7907 H   0  0  0  0  0  0  0  0  0  0  0  0
   39.4358   29.0358   45.5223 H   0  0  0  0  0  0  0  0  0  0  0  0
   37.8404   31.0398   44.2023 H   0  0  0  0  0  0  0  0  0  0  0  0
  1  9  1  0
  2  3  2  0
  2  1  1  0
  4  3  1  0
  5  4  2  0
  6  5  1  0
  6  7  2  0
  7  2  1  0
  8 14  1  0
  9  8  2  0
 11 10  2  0
 12 11  1  0
 13 12  2  0
 13 14  1  0
 14 15  2  0
 15 10  1  0
  1 16  1  0
  1 17  1  0
  3 18  1  0
  4 19  1  0
  5 20  1  0
  6 21  1  0
  7 22  1  0
  8 23  1  0
  9 24  1  0
 10 25  1  0
 11 26  1  0
 27 28  1  0
 28 29  1  0
 29 30  1  0
 30 31  1  0
 31 32  1  0
 32 33  1  0
 32 34  1  0
 34 35  1  0
 34 28  1  0
 27 36  1  0
 28 37  1  1
 29 38  1  6
 31 39  1  0
 31 40  1  0
 32 41  1  1
 33 42  1  0
 34 43  1  6
 35 44  1  0
 12 29  1  0
M  ISO  8  16   8  17   8  18  14  19  14  20  14  21  14  22  14  25  14
M  ISO  1  26  14
M  END
>  <DihAtoms>  (1) 
10,11,28,27

>  <DihDeg>  (1) 
76.76908655258022

$$$$
