
 OpenBabel03272502063D

 42 45  0  0  1  0  0  0  0  0999 V2000
   34.1170   30.9610   46.7220 F   0  0  0  0  0  0  0  0  0  0  0  0
   34.6400   30.2810   45.6510 C   0  0  0  0  0  0  0  0  0  0  0  0
   33.8330   29.7720   44.6520 C   0  0  0  0  0  0  0  0  0  0  0  0
   34.4210   29.1120   43.5990 C   0  0  0  0  0  0  0  0  0  0  0  0
   35.8080   28.9610   43.5420 C   0  0  0  0  0  0  0  0  0  0  0  0
   36.5630   29.4910   44.5730 C   0  0  0  0  0  0  0  0  0  0  0  0
   36.0250   30.1430   45.6200 C   0  0  0  0  0  0  0  0  0  0  0  0
   33.7570   28.7300   42.8380 H   0  0  0  0  0  0  0  0  0  0  0  0
   36.2230   28.4370   42.6980 H   0  0  0  0  0  0  0  0  0  0  0  0
   37.6260   29.3290   44.4500 H   0  0  0  0  0  0  0  0  0  0  0  0
   38.0440   32.4180   44.8810 Br  0  0  0  0  0  0  0  0  0  0  0  0
   37.7870   31.6810   46.6160 C   0  0  0  0  0  0  0  0  0  0  0  0
   36.8600   30.6740   46.6830 C   0  0  0  0  0  0  0  0  0  0  0  0
   36.6420   30.0620   47.9280 C   0  0  0  0  0  0  0  0  0  0  0  0
   37.3320   30.4580   49.0280 C   0  0  0  0  0  0  0  0  0  0  0  0
   38.2570   31.4860   48.8930 C   0  0  0  0  0  0  0  0  0  0  0  0
   38.4930   32.1140   47.6610 C   0  0  0  0  0  0  0  0  0  0  0  0
   35.9330   29.2620   48.0710 H   0  0  0  0  0  0  0  0  0  0  0  0
   37.1880   30.0080   49.9920 H   0  0  0  0  0  0  0  0  0  0  0  0
   38.8250   31.8270   49.7510 H   0  0  0  0  0  0  0  0  0  0  0  0
   39.3820   33.1260   47.4630 O   0  0  0  0  0  0  0  0  0  0  0  0
   40.3760   32.9190   47.5280 H   0  0  0  0  0  0  0  0  0  0  0  0
   31.6180   28.8630   44.9840 C   0  0  0  0  0  0  0  0  0  0  0  0
   32.4280   29.9930   44.8250 C   0  0  0  0  0  0  0  0  0  0  0  0
   31.8100   31.2300   44.8520 C   0  0  0  0  0  0  0  0  0  0  0  0
   30.4730   31.3140   45.0270 N   0  0  0  0  0  0  0  0  0  0  0  0
   29.7220   30.2140   45.1770 C   0  0  0  0  0  0  0  0  0  0  0  0
   30.2870   29.0160   45.1550 N   0  0  0  0  0  0  0  0  0  0  0  0
   32.0450   27.8690   44.9700 H   0  0  0  0  0  0  0  0  0  0  0  0
   32.4160   32.1010   44.7310 H   0  0  0  0  0  0  0  0  0  0  0  0
   27.9080   29.4460   46.5710 C   0  0  1  0  0  3  0  0  0  0  0  0
   28.2500   30.2960   45.3710 C   0  0  2  0  0  3  0  0  0  0  0  0
   27.5030   30.0310   44.2630 O   0  0  0  0  0  0  0  0  0  0  0  0
   27.2930   28.7280   43.9270 C   0  0  0  0  0  2  0  0  0  0  0  0
   26.9810   27.7940   45.0430 C   0  0  1  0  0  3  0  0  0  0  0  0
   27.8760   27.9750   46.2460 C   0  0  2  0  0  3  0  0  0  0  0  0
   28.9170   29.6460   47.5140 O   0  0  0  0  0  0  0  0  0  0  0  0
   29.7670   29.3820   47.0770 H   0  0  0  0  0  0  0  0  0  0  0  0
   25.6470   27.8360   45.4410 O   0  0  0  0  0  0  0  0  0  0  0  0
   25.6170   27.4850   46.3690 H   0  0  0  0  0  0  0  0  0  0  0  0
   27.2870   27.3150   47.3250 O   0  0  0  0  0  0  0  0  0  0  0  0
   27.7390   26.4600   47.5360 H   0  0  0  0  0  0  0  0  0  0  0  0
  2  1  1  0  0  0  0
  3 24  1  0  0  0  0
  3  2  2  0  0  0  0
  4  3  1  0  0  0  0
  5  4  2  0  0  0  0
  5  6  1  0  0  0  0
  6  7  2  0  0  0  0
  7  2  1  0  0  0  0
  7 13  1  0  0  0  0
  8  4  1  0  0  0  0
  9  5  1  0  0  0  0
 10  6  1  0  0  0  0
 11 12  1  0  0  0  0
 12 13  2  0  0  0  0
 12 17  1  0  0  0  0
 13 14  1  0  0  0  0
 14 18  1  0  0  0  0
 14 15  2  0  0  0  0
 15 19  1  0  0  0  0
 16 15  1  0  0  0  0
 16 20  1  0  0  0  0
 17 16  2  0  0  0  0
 21 22  1  0  0  0  0
 21 17  1  0  0  0  0
 23 28  1  0  0  0  0
 24 25  1  0  0  0  0
 24 23  2  0  0  0  0
 25 26  2  0  0  0  0
 26 27  1  0  0  0  0
 28 27  2  0  0  0  0
 29 23  1  0  0  0  0
 30 25  1  0  0  0  0
 31 37  1  1  0  0  0
 32 27  1  6  0  0  0
 32 31  1  0  0  0  0
 33 32  1  0  0  0  0
 34 33  1  0  0  0  0
 34 35  1  0  0  0  0
 35 39  1  1  0  0  0
 35 36  1  0  0  0  0
 36 31  1  0  0  0  0
 36 41  1  1  0  0  0
 38 37  1  0  0  0  0
 39 40  1  0  0  0  0
 41 42  1  0  0  0  0
M  END
>  <minimizedAffinity>
-5.63901806

>  <minimizedRMSD>
1.73206556

$$$$
