
 OpenBabel03272507343D

 39 42  0  0  1  0  0  0  0  0999 V2000
   33.0550   27.4520   48.1930 C   0  0  0  0  0  0  0  0  0  0  0  0
   31.8250   27.3940   48.5250 O   0  0  0  0  0  0  0  0  0  0  0  0
   35.8030   29.1070   49.7760 C   0  0  0  0  0  0  0  0  0  0  0  0
   34.7770   29.6330   50.5330 C   0  0  0  0  0  0  0  0  0  0  0  0
   33.5770   29.0880   50.0490 C   0  0  0  0  0  0  0  0  0  0  0  0
   33.9560   28.2580   49.0180 C   0  0  0  0  0  0  0  0  0  0  0  0
   35.2650   28.3000   48.8940 O   0  0  0  0  0  0  0  0  0  0  0  0
   34.8380   30.3390   51.3610 H   0  0  0  0  0  0  0  0  0  0  0  0
   32.5810   29.2550   50.3770 H   0  0  0  0  0  0  0  0  0  0  0  0
   37.1940   29.4590   50.0070 C   0  0  0  0  0  0  0  0  0  0  0  0
   37.8350   28.8520   50.8780 O   0  0  0  0  0  0  0  0  0  0  0  0
   37.7450   30.5080   49.1960 C   0  0  0  0  0  0  0  0  0  0  0  0
   38.0920   31.6870   49.8400 C   0  0  0  0  0  0  0  0  0  0  0  0
   38.6290   32.7310   49.0760 C   0  0  0  0  0  0  0  0  0  0  0  0
   38.7830   32.5260   47.7260 N   0  0  0  0  0  0  0  0  0  0  0  0
   38.4380   31.3800   47.1420 C   0  0  0  0  0  0  0  0  0  0  0  0
   37.9220   30.3700   47.8630 N   0  0  0  0  0  0  0  0  0  0  0  0
   37.9660   31.8300   50.8890 H   0  0  0  0  0  0  0  0  0  0  0  0
   38.9160   33.6740   49.5380 H   0  0  0  0  0  0  0  0  0  0  0  0
   38.5710   31.2490   46.0820 H   0  0  0  0  0  0  0  0  0  0  0  0
   33.5740   26.7120   46.9970 C   0  0  1  0  0  0  0  0  0  0  0  0
   33.8000   25.1940   47.3630 C   0  0  0  0  0  0  0  0  0  0  0  0
   32.7880   25.6440   46.3740 C   0  0  2  0  0  0  0  0  0  0  0  0
   34.5650   27.1020   46.6180 H   0  0  0  0  0  0  0  0  0  0  0  0
   33.5440   24.8730   48.3650 H   0  0  0  0  0  0  0  0  0  0  0  0
   34.6770   24.7040   46.9310 H   0  0  0  0  0  0  0  0  0  0  0  0
   31.7280   25.5860   46.7340 H   0  0  0  0  0  0  0  0  0  0  0  0
   34.1700   24.4050   44.7990 C   0  0  1  0  0  3  0  0  0  0  0  0
   33.0250   25.3130   44.9050 C   0  0  1  0  0  3  0  0  0  0  0  0
   31.8420   24.9540   44.3590 O   0  0  0  0  0  0  0  0  0  0  0  0
   31.7890   24.0250   43.3850 C   0  0  0  0  0  2  0  0  0  0  0  0
   33.0770   23.6870   42.6970 C   0  0  2  0  0  3  0  0  0  0  0  0
   34.0390   23.2880   43.8030 C   0  0  2  0  0  3  0  0  0  0  0  0
   35.3440   25.1000   44.4820 O   0  0  0  0  0  0  0  0  0  0  0  0
   36.1000   24.4550   44.5680 H   0  0  0  0  0  0  0  0  0  0  0  0
   33.5570   24.7730   41.9740 O   0  0  0  0  0  0  0  0  0  0  0  0
   33.7160   24.4440   41.0600 H   0  0  0  0  0  0  0  0  0  0  0  0
   33.4750   22.1650   44.4320 O   0  0  0  0  0  0  0  0  0  0  0  0
   33.2610   21.4780   43.7440 H   0  0  0  0  0  0  0  0  0  0  0  0
  1  2  2  0  0  0  0
  1  6  1  0  0  0  0
  3 10  1  0  0  0  0
  3  4  2  0  0  0  0
  4  8  1  0  0  0  0
  5  9  1  0  0  0  0
  5  4  1  0  0  0  0
  6  5  2  0  0  0  0
  7  6  1  0  0  0  0
  7  3  1  0  0  0  0
 10 11  2  0  0  0  0
 12 13  1  0  0  0  0
 12 10  1  0  0  0  0
 13 18  1  0  0  0  0
 14 19  1  0  0  0  0
 14 13  2  0  0  0  0
 15 14  1  0  0  0  0
 16 15  2  0  0  0  0
 16 17  1  0  0  0  0
 17 12  2  0  0  0  0
 20 16  1  0  0  0  0
 21 24  1  6  0  0  0
 21 22  1  0  0  0  0
 21  1  1  0  0  0  0
 22 25  1  0  0  0  0
 23 27  1  1  0  0  0
 23 21  1  0  0  0  0
 23 22  1  0  0  0  0
 26 22  1  0  0  0  0
 28 34  1  6  0  0  0
 28 29  1  0  0  0  0
 29 30  1  1  0  0  0
 29 23  1  0  0  0  0
 31 30  1  0  0  0  0
 32 36  1  1  0  0  0
 32 31  1  0  0  0  0
 32 33  1  0  0  0  0
 33 38  1  1  0  0  0
 33 28  1  0  0  0  0
 34 35  1  0  0  0  0
 37 36  1  0  0  0  0
 39 38  1  0  0  0  0
M  END
>  <minimizedAffinity>
-4.95533276

>  <minimizedRMSD>
0.203982025

$$$$
