
     RDKit          3D

 32 33  0  0  0  0  0  0  0  0999 V2000
   35.6177   29.0130   50.1699 C   0  0  0  0  0  0  0  0  0  0  0  0
   36.2827   30.1552   49.6488 C   0  0  0  0  0  0  0  0  0  0  0  0
   36.0347   30.5195   48.3340 C   0  0  0  0  0  0  0  0  0  0  0  0
   35.1606   29.7528   47.6146 N   0  0  0  0  0  0  0  0  0  0  0  0
   34.5444   28.6656   48.1497 C   0  0  0  0  0  0  0  0  0  0  0  0
   34.7665   28.2920   49.4198 N   0  0  0  0  0  0  0  0  0  0  0  0
   33.7059   28.0162   47.2206 N   0  0  0  0  0  0  0  0  0  0  0  0
   37.2164   30.9058   50.5245 C   0  0  0  0  0  0  0  0  0  0  0  0
   38.5369   30.7808   50.1142 F   0  0  0  0  0  0  0  0  0  0  0  0
   36.8627   32.2224   50.5103 F   0  0  0  0  0  0  0  0  0  0  0  0
   37.1845   30.4696   51.8376 F   0  0  0  0  0  0  0  0  0  0  0  0
   35.8264   28.7479   51.1988 H   0  0  0  0  0  0  0  0  0  0  0  0
   34.2288   27.1022   47.0740 H   0  0  0  0  0  0  0  0  0  0  0  0
   32.8326   28.3598   46.8144 H   0  0  0  0  0  0  0  0  0  0  0  0
   36.0734   30.6202   45.7002 O   0  0  0  0  0  0  0  0  0  0  0  0
   36.6753   31.7671   46.2552 C   0  0  1  0  0  0  0  0  0  0  0  0
   36.7062   31.7087   47.7467 C   0  0  2  0  0  0  0  0  0  0  0  0
   38.0542   31.6061   48.1112 O   0  0  0  0  0  0  0  0  0  0  0  0
   38.7484   32.7684   47.8364 C   0  0  0  0  0  0  0  0  0  0  0  0
   38.9704   32.7989   46.3490 C   0  0  2  0  0  0  0  0  0  0  0  0
   38.6837   34.0631   45.8479 O   0  0  0  0  0  0  0  0  0  0  0  0
   38.0856   31.7632   45.6428 C   0  0  1  0  0  0  0  0  0  0  0  0
   38.6610   30.5269   45.8861 O   0  0  0  0  0  0  0  0  0  0  0  0
   35.8838   30.8182   44.7364 H   0  0  0  0  0  0  0  0  0  0  0  0
   36.2397   32.7145   45.8375 H   0  0  0  0  0  0  0  0  0  0  0  0
   36.3935   32.6546   48.2321 H   0  0  0  0  0  0  0  0  0  0  0  0
   39.7073   32.6981   48.4005 H   0  0  0  0  0  0  0  0  0  0  0  0
   38.2169   33.6557   48.2368 H   0  0  0  0  0  0  0  0  0  0  0  0
   40.0029   32.4933   46.1481 H   0  0  0  0  0  0  0  0  0  0  0  0
   39.0622   34.7533   46.4443 H   0  0  0  0  0  0  0  0  0  0  0  0
   38.0595   32.0724   44.5954 H   0  0  0  0  0  0  0  0  0  0  0  0
   39.4627   30.3703   45.3469 H   0  0  0  0  0  0  0  0  0  0  0  0
  2  1  2  0
  2  8  1  0
  3  2  1  0
  4  5  1  0
  4  3  2  0
  5  6  2  0
  6  1  1  0
  7  5  1  0
  8 11  1  0
  9  8  1  0
 10  8  1  0
  1 12  1  0
  7 13  1  0
  7 14  1  0
 15 16  1  0
 16 17  1  0
 17 18  1  0
 18 19  1  0
 19 20  1  0
 20 21  1  0
 20 22  1  0
 22 23  1  0
 22 16  1  0
 15 24  1  0
 16 25  1  1
 17 26  1  1
 19 27  1  0
 19 28  1  0
 20 29  1  1
 21 30  1  0
 22 31  1  6
 23 32  1  0
  3 17  1  0
M  ISO  1  12  14
M  END
>  <DihAtoms>  (1) 
1,2,16,15

>  <DihDeg>  (1) 
-91.90979488336156

$$$$
