REMARK  Name = 
REMARK  5 active torsions:
REMARK  status: ('A' for Active; 'I' for Inactive)
REMARK    1  A    between atoms: C_1  and  O_7
REMARK    2  A    between atoms: C_5  and  C_13
REMARK    3  A    between atoms: O_11  and  C_12
REMARK    4  A    between atoms: C_16  and  O_17
REMARK    5  A    between atoms: C_18  and  O_19
REMARK                            x       y       z     vdW  Elec       q    Type
REMARK                         _______ _______ _______ _____ _____    ______ ____
ROOT
ATOM      1  C   UNL     1      33.981  28.974  48.115  0.00  0.00    +0.000 C 
ATOM      2  C   UNL     1      34.031  29.571  49.499  0.00  0.00    +0.000 C 
ATOM      3  O   UNL     1      33.637  28.665  50.480  0.00  0.00    +0.000 OA
ATOM      4  C   UNL     1      32.548  27.928  49.963  0.00  0.00    +0.000 C 
ATOM      5  C   UNL     1      33.203  26.815  49.156  0.00  0.00    +0.000 C 
ATOM      6  C   UNL     1      34.084  27.467  48.137  0.00  0.00    +0.000 C 
ENDROOT
BRANCH   2  11
ATOM      7  C   UNL     1      37.298  29.991  51.181  0.00  0.00    +0.000 A 
ATOM      8  C   UNL     1      37.959  30.922  50.352  0.00  0.00    +0.000 A 
ATOM      9  C   UNL     1      37.274  31.388  49.232  0.00  0.00    +0.000 A 
ATOM     10  N   UNL     1      36.016  30.928  48.996  0.00  0.00    +0.000 NA
ATOM     11  C   UNL     1      35.410  30.030  49.820  0.00  0.00    +0.000 A 
ATOM     12  N   UNL     1      36.057  29.576  50.897  0.00  0.00    +0.000 NA
ATOM     13  H   UNL     1      38.944  31.312  50.494  0.00  0.00    +0.000 HD
ATOM     14  H   UNL     1      37.707  32.103  48.543  0.00  0.00    +0.000 HD
BRANCH   7  15
ATOM     15  O   UNL     1      38.081  29.609  52.254  0.00  0.00    +0.000 OA
ATOM     16  H   UNL     1      38.916  29.066  52.001  0.00  0.00    +0.000 HD
ENDBRANCH   7  15
ENDBRANCH   2  11
BRANCH   1  17
ATOM     17  O   UNL     1      32.874  29.323  47.383  0.00  0.00    +0.000 OA
ATOM     18  H   UNL     1      32.834  30.286  47.150  0.00  0.00    +0.000 HD
ENDBRANCH   1  17
BRANCH   5  19
ATOM     19  O   UNL     1      32.312  25.896  48.663  0.00  0.00    +0.000 OA
ATOM     20  H   UNL     1      32.226  25.899  47.678  0.00  0.00    +0.000 HD
ENDBRANCH   5  19
BRANCH   6  21
ATOM     21  O   UNL     1      35.437  27.174  48.410  0.00  0.00    +0.000 OA
ATOM     22  H   UNL     1      35.937  26.944  47.604  0.00  0.00    +0.000 HD
ENDBRANCH   6  21
TORSDOF 5
