
 OpenBabel03272507333D

 39 42  0  0  1  0  0  0  0  0999 V2000
   33.0890   27.4780   48.2000 C   0  0  0  0  0  0  0  0  0  0  0  0
   31.8570   27.4190   48.5240 O   0  0  0  0  0  0  0  0  0  0  0  0
   35.8270   29.1310   49.8000 C   0  0  0  0  0  0  0  0  0  0  0  0
   34.8000   29.6390   50.5680 C   0  0  0  0  0  0  0  0  0  0  0  0
   33.6030   29.0910   50.0780 C   0  0  0  0  0  0  0  0  0  0  0  0
   33.9850   28.2790   49.0350 C   0  0  0  0  0  0  0  0  0  0  0  0
   35.2940   28.3330   48.9080 O   0  0  0  0  0  0  0  0  0  0  0  0
   34.8570   30.3330   51.4050 H   0  0  0  0  0  0  0  0  0  0  0  0
   32.6060   29.2460   50.4110 H   0  0  0  0  0  0  0  0  0  0  0  0
   37.2160   29.4910   50.0340 C   0  0  0  0  0  0  0  0  0  0  0  0
   37.8560   28.8950   50.9140 O   0  0  0  0  0  0  0  0  0  0  0  0
   37.7670   30.5330   49.2140 C   0  0  0  0  0  0  0  0  0  0  0  0
   38.1130   31.7180   49.8480 C   0  0  0  0  0  0  0  0  0  0  0  0
   38.6500   32.7560   49.0760 C   0  0  0  0  0  0  0  0  0  0  0  0
   38.8040   32.5400   47.7280 N   0  0  0  0  0  0  0  0  0  0  0  0
   38.4610   31.3890   47.1530 C   0  0  0  0  0  0  0  0  0  0  0  0
   37.9440   30.3850   47.8830 N   0  0  0  0  0  0  0  0  0  0  0  0
   37.9860   31.8690   50.8960 H   0  0  0  0  0  0  0  0  0  0  0  0
   38.9350   33.7030   49.5300 H   0  0  0  0  0  0  0  0  0  0  0  0
   38.5940   31.2490   46.0940 H   0  0  0  0  0  0  0  0  0  0  0  0
   33.6150   26.7460   47.0020 C   0  0  1  0  0  0  0  0  0  0  0  0
   33.8120   25.2200   47.3520 C   0  0  0  0  0  0  0  0  0  0  0  0
   32.8210   25.6980   46.3540 C   0  0  2  0  0  0  0  0  0  0  0  0
   34.6170   27.1240   46.6420 H   0  0  0  0  0  0  0  0  0  0  0  0
   33.5350   24.8910   48.3460 H   0  0  0  0  0  0  0  0  0  0  0  0
   34.6870   24.7220   46.9270 H   0  0  0  0  0  0  0  0  0  0  0  0
   31.7550   25.6510   46.6970 H   0  0  0  0  0  0  0  0  0  0  0  0
   33.4750   23.9780   44.7600 C   0  0  1  0  0  3  0  0  0  0  0  0
   33.0750   25.3810   44.8850 C   0  0  1  0  0  3  0  0  0  0  0  0
   32.0230   25.8370   44.1680 O   0  0  0  0  0  0  0  0  0  0  0  0
   31.6110   25.1870   43.0640 C   0  0  0  0  0  2  0  0  0  0  0  0
   32.5580   24.1870   42.4700 C   0  0  2  0  0  3  0  0  0  0  0  0
   32.8960   23.2250   43.5960 C   0  0  2  0  0  3  0  0  0  0  0  0
   34.8660   23.8480   44.6800 O   0  0  0  0  0  0  0  0  0  0  0  0
   35.0770   22.8750   44.7430 H   0  0  0  0  0  0  0  0  0  0  0  0
   33.6980   24.8120   41.9770 O   0  0  0  0  0  0  0  0  0  0  0  0
   33.7930   24.5100   41.0450 H   0  0  0  0  0  0  0  0  0  0  0  0
   31.6820   22.6280   43.9830 O   0  0  0  0  0  0  0  0  0  0  0  0
   31.2350   22.2500   43.1790 H   0  0  0  0  0  0  0  0  0  0  0  0
  1  2  2  0  0  0  0
  1  6  1  0  0  0  0
  3 10  1  0  0  0  0
  3  4  2  0  0  0  0
  4  8  1  0  0  0  0
  5  9  1  0  0  0  0
  5  4  1  0  0  0  0
  6  5  2  0  0  0  0
  7  6  1  0  0  0  0
  7  3  1  0  0  0  0
 10 11  2  0  0  0  0
 12 13  1  0  0  0  0
 12 10  1  0  0  0  0
 13 18  1  0  0  0  0
 14 19  1  0  0  0  0
 14 13  2  0  0  0  0
 15 14  1  0  0  0  0
 16 15  2  0  0  0  0
 16 17  1  0  0  0  0
 17 12  2  0  0  0  0
 20 16  1  0  0  0  0
 21 24  1  6  0  0  0
 21 22  1  0  0  0  0
 21  1  1  0  0  0  0
 22 25  1  0  0  0  0
 23 27  1  1  0  0  0
 23 21  1  0  0  0  0
 23 22  1  0  0  0  0
 26 22  1  0  0  0  0
 28 34  1  6  0  0  0
 28 29  1  0  0  0  0
 29 30  1  6  0  0  0
 29 23  1  0  0  0  0
 31 30  1  0  0  0  0
 32 36  1  1  0  0  0
 32 31  1  0  0  0  0
 32 33  1  0  0  0  0
 33 38  1  1  0  0  0
 33 28  1  0  0  0  0
 34 35  1  0  0  0  0
 37 36  1  0  0  0  0
 39 38  1  0  0  0  0
M  END
>  <minimizedAffinity>
-4.92554808

>  <minimizedRMSD>
0.118815809

$$$$
