
 OpenBabel03272509083D

 43 46  0  0  1  0  0  0  0  0999 V2000
   33.2920   26.9350   46.9970 C   0  0  0  0  0  0  0  0  0  0  0  0
   34.3200   26.0200   47.2090 C   0  0  0  0  0  0  0  0  0  0  0  0
   34.5590   24.9950   46.3190 C   0  0  0  0  0  0  0  0  0  0  0  0
   33.7900   24.8340   45.1850 C   0  0  0  0  0  0  0  0  0  0  0  0
   32.7890   25.7200   44.9730 C   0  0  0  0  0  0  0  0  0  0  0  0
   32.5210   26.7610   45.8450 C   0  0  0  0  0  0  0  0  0  0  0  0
   34.8750   26.2130   48.1170 H   0  0  0  0  0  0  0  0  0  0  0  0
   35.3840   24.3560   46.5990 H   0  0  0  0  0  0  0  0  0  0  0  0
   34.0090   24.0200   44.5150 H   0  0  0  0  0  0  0  0  0  0  0  0
   32.1980   25.5680   44.0680 H   0  0  0  0  0  0  0  0  0  0  0  0
   30.3390   27.7590   46.5460 C   0  0  1  0  0  3  0  0  0  0  0  0
   31.3910   27.6580   45.4870 C   0  0  2  0  0  3  0  0  0  0  0  0
   30.7590   27.1550   44.3380 O   0  0  0  0  0  0  0  0  0  0  0  0
   29.8860   28.1060   43.8170 C   0  0  0  0  0  2  0  0  0  0  0  0
   28.7760   28.3840   44.7900 C   0  0  1  0  0  3  0  0  0  0  0  0
   29.3830   28.8550   46.0890 C   0  0  2  0  0  3  0  0  0  0  0  0
   29.6120   26.5770   46.6510 O   0  0  0  0  0  0  0  0  0  0  0  0
   29.4980   26.0870   45.8170 H   0  0  0  0  0  0  0  0  0  0  0  0
   27.8730   29.2730   44.2480 O   0  0  0  0  0  0  0  0  0  0  0  0
   27.4400   29.8850   44.8840 H   0  0  0  0  0  0  0  0  0  0  0  0
   30.1340   30.0110   45.9170 O   0  0  0  0  0  0  0  0  0  0  0  0
   29.6100   30.8400   46.0670 H   0  0  0  0  0  0  0  0  0  0  0  0
   32.9820   28.0570   47.9100 C   0  0  0  0  0  0  0  0  0  0  0  0
   32.2250   28.7570   47.5240 H   0  0  0  0  0  0  0  0  0  0  0  0
   32.4860   27.5760   48.8040 H   0  0  0  0  0  0  0  0  0  0  0  0
   34.9490   28.4430   49.3900 C   0  0  0  0  0  3  0  0  0  0  0  0
   34.1780   28.7750   48.3850 C   0  0  0  0  0  3  0  0  0  0  0  0
   37.5450   30.3030   51.1680 C   0  0  0  0  0  0  0  0  0  0  0  0
   38.2420   30.9020   50.0980 C   0  0  0  0  0  0  0  0  0  0  0  0
   37.8030   30.6510   48.7910 C   0  0  0  0  0  0  0  0  0  0  0  0
   36.7110   29.8320   48.6130 N   0  0  0  0  0  0  0  0  0  0  0  0
   36.0880   29.2890   49.6980 C   0  0  0  0  0  0  0  0  0  0  0  0
   36.4960   29.5200   50.9380 N   0  0  0  0  0  0  0  0  0  0  0  0
   37.8730   30.4880   52.1680 H   0  0  0  0  0  0  0  0  0  0  0  0
   39.0970   31.5430   50.2380 H   0  0  0  0  0  0  0  0  0  0  0  0
   38.4520   31.2190   47.6080 C   0  0  0  0  0  0  0  0  0  0  0  0
   38.6000   30.5220   46.4350 C   0  0  0  0  0  0  0  0  0  0  0  0
   39.2530   31.3550   45.5300 C   0  0  0  0  0  0  0  0  0  0  0  0
   39.4750   32.5210   46.1880 N   0  0  0  0  0  0  0  0  0  0  0  0
   38.9950   32.4320   47.4230 N   0  0  0  0  0  0  0  0  0  0  0  0
   38.2860   29.5230   46.2150 H   0  0  0  0  0  0  0  0  0  0  0  0
   39.5440   31.1580   44.5060 H   0  0  0  0  0  0  0  0  0  0  0  0
   39.9460   33.4040   45.8430 H   0  0  0  0  0  0  0  0  0  0  0  0
  1  2  1  0  0  0  0
  1 23  1  0  0  0  0
  2  7  1  0  0  0  0
  3  8  1  0  0  0  0
  3  2  2  0  0  0  0
  4  3  1  0  0  0  0
  5  4  2  0  0  0  0
  5  6  1  0  0  0  0
  6  1  2  0  0  0  0
  9  4  1  0  0  0  0
 10  5  1  0  0  0  0
 11 17  1  6  0  0  0
 12  6  1  1  0  0  0
 12 11  1  0  0  0  0
 13 12  1  0  0  0  0
 14 13  1  0  0  0  0
 14 15  1  0  0  0  0
 15 19  1  6  0  0  0
 15 16  1  0  0  0  0
 16 21  1  6  0  0  0
 16 11  1  0  0  0  0
 18 17  1  0  0  0  0
 19 20  1  0  0  0  0
 21 22  1  0  0  0  0
 23 27  1  0  0  0  0
 23 25  1  0  0  0  0
 24 23  1  0  0  0  0
 26 32  1  0  0  0  0
 27 26  2  0  0  0  0
 28 34  1  0  0  0  0
 29 35  1  0  0  0  0
 29 28  2  0  0  0  0
 30 29  1  0  0  0  0
 31 30  2  0  0  0  0
 31 32  1  0  0  0  0
 32 33  2  0  0  0  0
 33 28  1  0  0  0  0
 36 30  1  0  0  0  0
 37 36  1  0  0  0  0
 38 39  1  0  0  0  0
 38 37  2  0  0  0  0
 39 40  1  0  0  0  0
 40 36  2  0  0  0  0
 41 37  1  0  0  0  0
 42 38  1  0  0  0  0
 43 39  1  0  0  0  0
M  END
>  <minimizedAffinity>
-5.6850543

>  <minimizedRMSD>
2.43946552

$$$$
