
 OpenBabel03272500083D

 42 45  0  0  1  0  0  0  0  0999 V2000
   30.6200   27.7120   48.2200 C   0  0  0  0  0  0  0  0  0  0  0  0
   30.4620   27.5890   49.5820 C   0  0  0  0  0  0  0  0  0  0  0  0
   29.2890   27.9690   50.2010 C   0  0  0  0  0  0  0  0  0  0  0  0
   28.2520   28.4880   49.4140 C   0  0  0  0  0  0  0  0  0  0  0  0
   28.4210   28.6090   48.0380 C   0  0  0  0  0  0  0  0  0  0  0  0
   29.5950   28.2220   47.4670 C   0  0  0  0  0  0  0  0  0  0  0  0
   31.2320   27.1950   50.2300 H   0  0  0  0  0  0  0  0  0  0  0  0
   29.1740   27.8670   51.2790 H   0  0  0  0  0  0  0  0  0  0  0  0
   27.3650   28.7650   49.9690 H   0  0  0  0  0  0  0  0  0  0  0  0
   27.5880   29.0140   47.4940 H   0  0  0  0  0  0  0  0  0  0  0  0
   29.1010   27.1710   45.3100 C   0  0  1  0  0  3  0  0  0  0  0  0
   29.7440   28.3430   46.0150 C   0  0  1  0  0  3  0  0  0  0  0  0
   29.2050   29.5590   45.6120 O   0  0  0  0  0  0  0  0  0  0  0  0
   28.7820   29.5520   44.2870 C   0  0  0  0  0  2  0  0  0  0  0  0
   27.4990   28.7640   44.2250 C   0  0  1  0  0  3  0  0  0  0  0  0
   27.7000   27.4080   44.8580 C   0  0  1  0  0  3  0  0  0  0  0  0
   29.8790   26.7020   44.2650 O   0  0  0  0  0  0  0  0  0  0  0  0
   30.8410   26.8150   44.4920 H   0  0  0  0  0  0  0  0  0  0  0  0
   26.4750   29.4000   44.9290 O   0  0  0  0  0  0  0  0  0  0  0  0
   25.6900   28.7710   44.8600 H   0  0  0  0  0  0  0  0  0  0  0  0
   27.4160   26.4480   43.8740 O   0  0  0  0  0  0  0  0  0  0  0  0
   28.1660   25.8240   43.7210 H   0  0  0  0  0  0  0  0  0  0  0  0
   31.8540   27.2900   47.7410 O   0  0  0  0  0  0  0  0  0  0  0  0
   34.8780   28.8000   48.9740 C   0  0  0  0  0  0  0  0  0  0  0  0
   34.9780   29.9860   48.2050 C   0  0  0  0  0  0  0  0  0  0  0  0
   33.9820   30.2330   47.2700 C   0  0  0  0  0  0  0  0  0  0  0  0
   32.9740   29.3260   47.1470 N   0  0  0  0  0  0  0  0  0  0  0  0
   32.9030   28.2160   47.8820 C   0  0  0  0  0  0  0  0  0  0  0  0
   33.8620   27.9340   48.8160 N   0  0  0  0  0  0  0  0  0  0  0  0
   35.6590   28.6010   49.7120 H   0  0  0  0  0  0  0  0  0  0  0  0
   34.0490   31.1340   46.6790 H   0  0  0  0  0  0  0  0  0  0  0  0
   36.0860   30.8390   48.4390 N   0  0  0  0  0  0  0  0  0  0  0  0
   36.3010   31.4260   49.6120 C   0  0  0  0  0  0  0  0  0  0  0  0
   37.4100   32.2470   49.7640 C   0  0  0  0  0  0  0  0  0  0  0  0
   38.2040   32.3850   48.6700 C   0  0  0  0  0  0  0  0  0  0  0  0
   39.2250   33.1330   48.7930 O   0  0  0  0  0  0  0  0  0  0  0  0
   38.0250   31.8200   47.4920 N   0  0  0  0  0  0  0  0  0  0  0  0
   36.9290   31.0170   47.3650 C   0  0  0  0  0  0  0  0  0  0  0  0
   36.7360   30.4620   46.2370 O   0  0  0  0  0  0  0  0  0  0  0  0
   35.5940   31.2380   50.4140 H   0  0  0  0  0  0  0  0  0  0  0  0
   37.5670   32.7150   50.7270 H   0  0  0  0  0  0  0  0  0  0  0  0
   38.6790   31.9740   46.6980 H   0  0  0  0  0  0  0  0  0  0  0  0
  1  2  1  0  0  0  0
  2  3  2  0  0  0  0
  2  7  1  0  0  0  0
  3  8  1  0  0  0  0
  4  9  1  0  0  0  0
  4  3  1  0  0  0  0
  5  4  2  0  0  0  0
  6  5  1  0  0  0  0
  6  1  2  0  0  0  0
 10  5  1  0  0  0  0
 11 17  1  6  0  0  0
 11 12  1  0  0  0  0
 12  6  1  1  0  0  0
 13 12  1  0  0  0  0
 14 13  1  0  0  0  0
 15 14  1  0  0  0  0
 15 16  1  0  0  0  0
 15 19  1  1  0  0  0
 16 21  1  6  0  0  0
 16 11  1  0  0  0  0
 17 18  1  0  0  0  0
 20 19  1  0  0  0  0
 22 21  1  0  0  0  0
 23 28  1  0  0  0  0
 23  1  1  0  0  0  0
 24 30  1  0  0  0  0
 25 32  1  0  0  0  0
 25 24  2  0  0  0  0
 26 25  1  0  0  0  0
 27 26  2  0  0  0  0
 27 28  1  0  0  0  0
 28 29  2  0  0  0  0
 29 24  1  0  0  0  0
 31 26  1  0  0  0  0
 32 33  1  0  0  0  0
 33 34  2  0  0  0  0
 33 40  1  0  0  0  0
 34 41  1  0  0  0  0
 35 36  2  0  0  0  0
 35 34  1  0  0  0  0
 37 35  1  0  0  0  0
 38 37  1  0  0  0  0
 38 32  1  0  0  0  0
 39 38  2  0  0  0  0
 42 37  1  0  0  0  0
M  END
>  <minimizedAffinity>
-6.23178101

>  <minimizedRMSD>
1.28805161

$$$$
