
     RDKit          3D

 49 52  0  0  0  0  0  0  0  0999 V2000
   37.3694   31.0640   47.1488 N   0  0  0  0  0  0  0  0  0  0  0  0
   36.7788   30.7259   45.9724 C   0  0  0  0  0  0  0  0  0  0  0  0
   37.2354   31.1929   44.7538 C   0  0  0  0  0  0  0  0  0  0  0  0
   38.3553   32.0487   44.7621 C   0  0  0  0  0  0  0  0  0  0  0  0
   38.8101   32.5007   43.6848 O   0  0  0  0  0  0  0  0  0  0  0  0
   38.9461   32.3851   45.9590 N   0  0  0  0  0  0  0  0  0  0  0  0
   38.4154   31.8730   47.0575 C   0  0  0  0  0  0  0  0  0  0  0  0
   38.9807   32.2023   48.1250 O   0  0  0  0  0  0  0  0  0  0  0  0
   37.2507   29.4685   50.5031 C   0  0  0  0  0  0  0  0  0  0  0  0
   37.7447   29.9553   49.2767 C   0  0  0  0  0  0  0  0  0  0  0  0
   36.8881   30.5781   48.3676 C   0  0  0  0  0  0  0  0  0  0  0  0
   35.5846   30.6952   48.7031 N   0  0  0  0  0  0  0  0  0  0  0  0
   35.0945   30.2283   49.8865 C   0  0  0  0  0  0  0  0  0  0  0  0
   35.9327   29.6221   50.7696 N   0  0  0  0  0  0  0  0  0  0  0  0
   36.6444   30.8648   43.4697 C   0  0  0  0  0  0  0  0  0  0  0  0
   37.0076   29.7711   42.7345 C   0  0  0  0  0  0  0  0  0  0  0  0
   36.4792   29.4190   41.5175 C   0  0  0  0  0  0  0  0  0  0  0  0
   35.4796   30.2449   40.9706 C   0  0  0  0  0  0  0  0  0  0  0  0
   35.1364   31.3486   41.7480 C   0  0  0  0  0  0  0  0  0  0  0  0
   35.6970   31.6278   42.9283 N   0  0  0  0  0  0  0  0  0  0  0  0
   40.0919   33.2613   45.9614 C   0  0  0  0  0  0  0  0  0  0  0  0
   39.9668   34.2322   45.0278 F   0  0  0  0  0  0  0  0  0  0  0  0
   41.2916   32.6044   45.6850 F   0  0  0  0  0  0  0  0  0  0  0  0
   40.1801   33.8767   47.2141 F   0  0  0  0  0  0  0  0  0  0  0  0
   35.9082   30.0611   45.9597 H   0  0  0  0  0  0  0  0  0  0  0  0
   37.9349   28.9968   51.1761 H   0  0  0  0  0  0  0  0  0  0  0  0
   38.7720   29.8808   48.9755 H   0  0  0  0  0  0  0  0  0  0  0  0
   34.0741   30.3093   50.1713 H   0  0  0  0  0  0  0  0  0  0  0  0
   37.7784   29.1037   43.1203 H   0  0  0  0  0  0  0  0  0  0  0  0
   36.7677   28.5546   40.9386 H   0  0  0  0  0  0  0  0  0  0  0  0
   34.9844   30.0837   40.0288 H   0  0  0  0  0  0  0  0  0  0  0  0
   32.8335   30.2773   41.5036 O   0  0  0  0  0  0  0  0  0  0  0  0
   32.7917   31.5962   41.0386 C   0  0  2  0  0  0  0  0  0  0  0  0
   34.0898   32.3285   41.3111 C   0  0  1  0  0  0  0  0  0  0  0  0
   33.9545   33.3227   42.2753 O   0  0  0  0  0  0  0  0  0  0  0  0
   33.1066   34.3127   41.8537 C   0  0  0  0  0  0  0  0  0  0  0  0
   31.8072   33.8052   41.2520 C   0  0  1  0  0  0  0  0  0  0  0  0
   32.0020   33.7714   39.8554 O   0  0  0  0  0  0  0  0  0  0  0  0
   31.6562   32.3662   41.6904 C   0  0  1  0  0  0  0  0  0  0  0  0
   30.4579   31.8017   41.2577 O   0  0  0  0  0  0  0  0  0  0  0  0
   32.9932   29.6892   40.6983 H   0  0  0  0  0  0  0  0  0  0  0  0
   32.6194   31.6188   39.9244 H   0  0  0  0  0  0  0  0  0  0  0  0
   34.5025   32.7927   40.3752 H   0  0  0  0  0  0  0  0  0  0  0  0
   32.8004   34.9187   42.7533 H   0  0  0  0  0  0  0  0  0  0  0  0
   33.5731   35.0165   41.1274 H   0  0  0  0  0  0  0  0  0  0  0  0
   30.9307   34.4289   41.5219 H   0  0  0  0  0  0  0  0  0  0  0  0
   32.2954   34.6821   39.5464 H   0  0  0  0  0  0  0  0  0  0  0  0
   31.8008   32.2682   42.7917 H   0  0  0  0  0  0  0  0  0  0  0  0
   29.9259   31.5398   42.0588 H   0  0  0  0  0  0  0  0  0  0  0  0
  1 11  1  0
  2  1  1  0
  3  4  1  0
  3  2  2  0
  4  6  1  0
  5  4  2  0
  6 21  1  0
  6  7  1  0
  7  1  1  0
  7  8  2  0
  9 14  2  0
 10  9  1  0
 11 12  1  0
 11 10  2  0
 12 13  2  0
 13 14  1  0
 15  3  1  0
 16 15  2  0
 17 16  1  0
 18 17  2  0
 18 19  1  0
 19 20  2  0
 20 15  1  0
 21 24  1  0
 22 21  1  0
 23 21  1  0
  2 25  1  0
  9 26  1  0
 10 27  1  0
 13 28  1  0
 16 29  1  0
 17 30  1  0
 18 31  1  0
 32 33  1  0
 33 34  1  0
 34 35  1  0
 35 36  1  0
 36 37  1  0
 37 38  1  0
 37 39  1  0
 39 40  1  0
 39 33  1  0
 32 41  1  0
 33 42  1  6
 34 43  1  6
 36 44  1  0
 36 45  1  0
 37 46  1  6
 38 47  1  0
 39 48  1  1
 40 49  1  0
 19 34  1  0
M  ISO  7  25  14  26  14  27  14  28  14  29  14  30  14  31  14
M  END
>  <DihAtoms>  (1) 
17,18,33,32

>  <DihDeg>  (1) 
100.90870867743268

$$$$
