
 OpenBabel03272502393D

 43 46  0  0  1  0  0  0  0  0999 V2000
   36.1510   30.0300   46.7090 F   0  0  0  0  0  0  0  0  0  0  0  0
   36.3970   29.8890   48.0210 C   0  0  0  0  0  0  0  0  0  0  0  0
   35.5560   29.3530   48.9600 C   0  0  0  0  0  0  0  0  0  0  0  0
   35.9950   29.3020   50.2950 C   0  0  0  0  0  0  0  0  0  0  0  0
   37.2320   29.7710   50.6720 C   0  0  0  0  0  0  0  0  0  0  0  0
   38.0700   30.3090   49.6910 C   0  0  0  0  0  0  0  0  0  0  0  0
   37.6390   30.3630   48.3550 C   0  0  0  0  0  0  0  0  0  0  0  0
   35.2570   28.8620   50.9510 H   0  0  0  0  0  0  0  0  0  0  0  0
   37.4910   29.6990   51.7050 H   0  0  0  0  0  0  0  0  0  0  0  0
   39.0120   30.6480   50.0820 H   0  0  0  0  0  0  0  0  0  0  0  0
   32.2890   27.8250   48.6840 N   0  0  0  0  0  0  0  0  0  0  0  0
   33.0060   26.9630   47.7580 C   0  0  0  0  0  0  0  0  0  0  0  0
   34.3630   27.6010   47.6770 C   0  0  0  0  0  0  0  0  0  0  0  0
   34.2250   28.9610   48.4950 C   0  0  1  0  0  0  0  0  0  0  0  0
   33.2740   28.5430   49.5240 C   0  0  0  0  0  0  0  0  0  0  0  0
   32.5500   26.9220   46.7620 H   0  0  0  0  0  0  0  0  0  0  0  0
   33.1280   25.9380   48.1740 H   0  0  0  0  0  0  0  0  0  0  0  0
   35.1450   27.0490   48.2000 H   0  0  0  0  0  0  0  0  0  0  0  0
   34.7000   27.8920   46.6890 H   0  0  0  0  0  0  0  0  0  0  0  0
   33.8470   29.6440   47.7190 H   0  0  0  0  0  0  0  0  0  0  0  0
   32.8040   29.4480   49.9620 H   0  0  0  0  0  0  0  0  0  0  0  0
   33.6750   27.8730   50.2950 H   0  0  0  0  0  0  0  0  0  0  0  0
   30.8960   27.9940   48.7980 C   0  0  0  0  0  0  0  0  0  0  0  0
   30.2170   28.2310   47.5910 C   0  0  0  0  0  0  0  0  0  0  0  0
   28.8260   28.4240   47.6110 C   0  0  0  0  0  0  0  0  0  0  0  0
   28.2280   28.3600   48.8560 N   0  0  0  0  0  0  0  0  0  0  0  0
   28.9040   28.1310   49.9840 C   0  0  0  0  0  0  0  0  0  0  0  0
   30.2400   27.9500   49.9380 N   0  0  0  0  0  0  0  0  0  0  0  0
   30.6800   28.2810   46.6230 H   0  0  0  0  0  0  0  0  0  0  0  0
   28.2430   28.6100   46.7190 H   0  0  0  0  0  0  0  0  0  0  0  0
   28.3500   28.0990   50.9110 H   0  0  0  0  0  0  0  0  0  0  0  0
   38.0920   32.2920   46.8600 C   0  0  2  0  0  0  0  0  0  0  0  0
   38.5990   30.9590   47.3710 C   0  0  2  0  0  0  0  0  0  0  0  0
   38.8650   30.1410   46.2960 O   0  0  0  0  0  0  0  0  0  0  0  0
   38.3060   30.6110   45.1200 C   0  0  0  0  0  0  0  0  0  0  0  0
   38.9780   31.8740   44.6450 C   0  0  1  0  0  0  0  0  0  0  0  0
   39.0210   32.8440   45.7970 C   0  0  2  0  0  0  0  0  0  0  0  0
   38.1690   33.1610   47.9610 O   0  0  0  0  0  0  0  0  0  0  0  0
   37.6050   33.9620   47.8420 H   0  0  0  0  0  0  0  0  0  0  0  0
   40.2410   31.6290   44.1140 O   0  0  0  0  0  0  0  0  0  0  0  0
   40.0800   31.2900   43.1780 H   0  0  0  0  0  0  0  0  0  0  0  0
   40.3150   32.9940   46.2990 O   0  0  0  0  0  0  0  0  0  0  0  0
   40.9730   32.6500   45.6500 H   0  0  0  0  0  0  0  0  0  0  0  0
  1  2  1  0  0  0  0
  2  7  2  0  0  0  0
  2  3  1  0  0  0  0
  3  4  2  0  0  0  0
  4  5  1  0  0  0  0
  4  8  1  0  0  0  0
  5  9  1  0  0  0  0
  6 10  1  0  0  0  0
  6  5  2  0  0  0  0
  7  6  1  0  0  0  0
 11 23  1  0  0  0  0
 11 15  1  0  0  0  0
 12 17  1  0  0  0  0
 12 11  1  0  0  0  0
 13 12  1  0  0  0  0
 13 18  1  0  0  0  0
 13 14  1  0  0  0  0
 14 20  1  6  0  0  0
 14  3  1  0  0  0  0
 14 15  1  0  0  0  0
 15 21  1  0  0  0  0
 15 22  1  0  0  0  0
 16 12  1  0  0  0  0
 19 13  1  0  0  0  0
 23 28  1  0  0  0  0
 24 25  1  0  0  0  0
 24 23  2  0  0  0  0
 25 26  2  0  0  0  0
 26 27  1  0  0  0  0
 27 31  1  0  0  0  0
 28 27  2  0  0  0  0
 29 24  1  0  0  0  0
 30 25  1  0  0  0  0
 32 33  1  0  0  0  0
 32 38  1  1  0  0  0
 33  7  1  1  0  0  0
 34 33  1  0  0  0  0
 35 34  1  0  0  0  0
 36 40  1  1  0  0  0
 36 35  1  0  0  0  0
 36 37  1  0  0  0  0
 37 42  1  1  0  0  0
 37 32  1  0  0  0  0
 39 38  1  0  0  0  0
 41 40  1  0  0  0  0
 43 42  1  0  0  0  0
M  END
>  <minimizedAffinity>
-7.24417448

>  <minimizedRMSD>
3.76307631

$$$$
