
 OpenBabel03272506023D

 49 52  0  0  1  0  0  0  0  0999 V2000
   35.1180   30.1030   49.5420 C   0  0  2  0  0  0  0  0  0  0  0  0
   36.0510   31.1730   49.2210 C   0  0  0  0  0  0  0  0  0  0  0  0
   37.5320   30.6840   49.1780 C   0  0  2  0  0  0  0  0  0  0  0  0
   37.9830   30.0880   50.4130 C   0  0  0  0  0  0  0  0  0  0  0  0
   36.9180   29.2340   51.1080 C   0  0  0  0  0  0  0  0  0  0  0  0
   35.8150   28.8780   50.1540 C   0  0  0  0  0  0  0  0  0  0  0  0
   34.4050   30.4060   50.3670 H   0  0  0  0  0  0  0  0  0  0  0  0
   36.0930   31.8800   50.1210 H   0  0  0  0  0  0  0  0  0  0  0  0
   35.9580   31.8140   48.3770 H   0  0  0  0  0  0  0  0  0  0  0  0
   37.6270   30.0180   48.3060 H   0  0  0  0  0  0  0  0  0  0  0  0
   38.2710   30.8490   51.1620 H   0  0  0  0  0  0  0  0  0  0  0  0
   38.9060   29.5030   50.2230 H   0  0  0  0  0  0  0  0  0  0  0  0
   36.5500   29.6790   52.0340 H   0  0  0  0  0  0  0  0  0  0  0  0
   37.4090   28.2760   51.3720 H   0  0  0  0  0  0  0  0  0  0  0  0
   36.2170   28.2870   49.3210 H   0  0  0  0  0  0  0  0  0  0  0  0
   35.0680   28.2810   50.6860 H   0  0  0  0  0  0  0  0  0  0  0  0
   38.4180   30.9860   46.3800 Cl  0  0  0  0  0  0  0  0  0  0  0  0
   38.7910   32.1640   47.6110 C   0  0  0  0  0  0  0  0  0  0  0  0
   38.2880   31.9370   48.8670 C   0  0  0  0  0  0  0  0  0  0  0  0
   38.6000   32.9380   49.7750 C   0  0  0  0  0  0  0  0  0  0  0  0
   39.3450   34.0540   49.4520 C   0  0  0  0  0  0  0  0  0  0  0  0
   39.8220   34.2070   48.1480 C   0  0  0  0  0  0  0  0  0  0  0  0
   39.5320   33.2260   47.2000 C   0  0  0  0  0  0  0  0  0  0  0  0
   38.2320   32.8300   50.7880 H   0  0  0  0  0  0  0  0  0  0  0  0
   39.5300   34.7710   50.2340 H   0  0  0  0  0  0  0  0  0  0  0  0
   40.4020   35.0720   47.8880 H   0  0  0  0  0  0  0  0  0  0  0  0
   40.0170   33.3850   45.8790 N   0  0  0  0  0  0  0  0  0  0  0  0
   39.3520   34.0670   45.5020 H   0  0  0  0  0  0  0  0  0  0  0  0
   40.8210   32.9590   45.3660 H   0  0  0  0  0  0  0  0  0  0  0  0
   34.2940   29.6050   48.4440 C   0  0  0  0  0  0  0  0  0  0  0  0
   34.2940   30.4130   47.3170 C   0  0  0  0  0  0  0  0  0  0  0  0
   33.5630   30.0150   46.2030 C   0  0  0  0  0  0  0  0  0  0  0  0
   32.8590   28.8090   46.2750 N   0  0  0  0  0  0  0  0  0  0  0  0
   32.8820   28.0510   47.3860 C   0  0  0  0  0  0  0  0  0  0  0  0
   33.6010   28.4790   48.4340 N   0  0  0  0  0  0  0  0  0  0  0  0
   34.7240   31.3510   46.9990 H   0  0  0  0  0  0  0  0  0  0  0  0
   33.4070   30.4470   45.2420 H   0  0  0  0  0  0  0  0  0  0  0  0
   32.8740   25.7190   46.7110 C   0  0  2  0  0  3  0  0  0  0  0  0
   32.1360   26.7770   47.4620 C   0  0  2  0  0  3  0  0  0  0  0  0
   30.8180   26.9250   47.0370 O   0  0  0  0  0  0  0  0  0  0  0  0
   30.4590   26.0060   46.0710 C   0  0  0  0  0  2  0  0  0  0  0  0
   30.7150   24.5690   46.4680 C   0  0  2  0  0  3  0  0  0  0  0  0
   32.1860   24.3960   46.6910 C   0  0  2  0  0  3  0  0  0  0  0  0
   34.1060   25.5360   47.3540 O   0  0  0  0  0  0  0  0  0  0  0  0
   34.8740   25.6630   46.7280 H   0  0  0  0  0  0  0  0  0  0  0  0
   30.3140   23.7760   45.4100 O   0  0  0  0  0  0  0  0  0  0  0  0
   30.9870   23.0660   45.2740 H   0  0  0  0  0  0  0  0  0  0  0  0
   32.4210   23.6880   47.8730 O   0  0  0  0  0  0  0  0  0  0  0  0
   33.1090   24.1570   48.4070 H   0  0  0  0  0  0  0  0  0  0  0  0
  1  6  1  0  0  0  0
  1  7  1  1  0  0  0
  2  1  1  0  0  0  0
  2  8  1  0  0  0  0
  3 10  1  6  0  0  0
  3  2  1  0  0  0  0
  3  4  1  0  0  0  0
  4  5  1  0  0  0  0
  4 11  1  0  0  0  0
  5 14  1  0  0  0  0
  5 13  1  0  0  0  0
  6 16  1  0  0  0  0
  6  5  1  0  0  0  0
  9  2  1  0  0  0  0
 12  4  1  0  0  0  0
 15  6  1  0  0  0  0
 17 18  1  0  0  0  0
 18 19  1  0  0  0  0
 19  3  1  0  0  0  0
 19 20  2  0  0  0  0
 20 24  1  0  0  0  0
 21 20  1  0  0  0  0
 21 25  1  0  0  0  0
 22 21  2  0  0  0  0
 23 18  2  0  0  0  0
 23 22  1  0  0  0  0
 26 22  1  0  0  0  0
 27 23  1  0  0  0  0
 28 27  1  0  0  0  0
 29 27  1  0  0  0  0
 30  1  1  0  0  0  0
 31 30  2  0  0  0  0
 32 33  2  0  0  0  0
 32 31  1  0  0  0  0
 33 34  1  0  0  0  0
 34 35  2  0  0  0  0
 35 30  1  0  0  0  0
 36 31  1  0  0  0  0
 37 32  1  0  0  0  0
 38 44  1  1  0  0  0
 38 39  1  0  0  0  0
 39 34  1  6  0  0  0
 40 39  1  0  0  0  0
 41 42  1  0  0  0  0
 41 40  1  0  0  0  0
 42 46  1  6  0  0  0
 42 43  1  0  0  0  0
 43 38  1  0  0  0  0
 43 48  1  1  0  0  0
 45 44  1  0  0  0  0
 47 46  1  0  0  0  0
 48 49  1  0  0  0  0
M  END
>  <minimizedAffinity>
-7.54991388

>  <minimizedRMSD>
1.01572621

$$$$
