
 OpenBabel03272507563D

 26 27  0  0  1  0  0  0  0  0999 V2000
   39.3120   26.0060   32.2250 C   0  0  0  0  0  0  0  0  0  0  0  0
   39.5040   25.8710   33.6260 C   0  0  0  0  0  0  0  0  0  0  0  0
   38.8810   24.8180   34.2790 C   0  0  0  0  0  0  0  0  0  0  0  0
   38.1160   23.9690   33.5300 N   0  0  0  0  0  0  0  0  0  0  0  0
   37.9560   24.1310   32.1890 C   0  0  0  0  0  0  0  0  0  0  0  0
   38.5480   25.1420   31.5340 N   0  0  0  0  0  0  0  0  0  0  0  0
   37.1090   23.1530   31.6290 N   0  0  0  0  0  0  0  0  0  0  0  0
   39.8090   26.8340   31.7360 H   0  0  0  0  0  0  0  0  0  0  0  0
   36.2650   23.7410   31.3590 H   0  0  0  0  0  0  0  0  0  0  0  0
   37.2870   22.1510   31.5270 H   0  0  0  0  0  0  0  0  0  0  0  0
   39.9460   23.5020   36.1280 C   0  0  1  0  0  3  0  0  0  0  0  0
   39.0550   24.6370   35.7440 C   0  0  2  0  0  3  0  0  0  0  0  0
   37.7840   24.3300   36.2450 O   0  0  0  0  0  0  0  0  0  0  0  0
   37.7550   24.3720   37.6250 C   0  0  0  0  0  2  0  0  0  0  0  0
   38.4420   23.1250   38.1120 C   0  0  1  0  0  3  0  0  0  0  0  0
   39.2140   22.4460   36.9730 C   0  0  1  0  0  3  0  0  0  0  0  0
   40.3820   22.7760   35.0020 O   0  0  0  0  0  0  0  0  0  0  0  0
   41.1360   22.1860   35.3000 H   0  0  0  0  0  0  0  0  0  0  0  0
   39.3220   23.4330   39.1410 O   0  0  0  0  0  0  0  0  0  0  0  0
   38.8980   24.0710   39.7650 H   0  0  0  0  0  0  0  0  0  0  0  0
   38.2670   21.8300   36.1710 O   0  0  0  0  0  0  0  0  0  0  0  0
   37.9130   21.0070   36.5670 H   0  0  0  0  0  0  0  0  0  0  0  0
   40.3530   26.8610   34.3340 C   0  0  0  0  0  0  0  0  0  0  0  0
   40.9040   27.7960   33.4660 F   0  0  0  0  0  0  0  0  0  0  0  0
   39.5910   27.5030   35.2630 F   0  0  0  0  0  0  0  0  0  0  0  0
   41.4230   26.2760   34.9890 F   0  0  0  0  0  0  0  0  0  0  0  0
  1  2  1  0  0  0  0
  2  3  2  0  0  0  0
  2 23  1  0  0  0  0
  4  3  1  0  0  0  0
  5  4  2  0  0  0  0
  6  5  1  0  0  0  0
  6  1  2  0  0  0  0
  7  5  1  0  0  0  0
  8  1  1  0  0  0  0
  9  7  1  0  0  0  0
 10  7  1  0  0  0  0
 11 17  1  6  0  0  0
 11 16  1  0  0  0  0
 12  3  1  6  0  0  0
 12 11  1  0  0  0  0
 12 13  1  0  0  0  0
 13 14  1  0  0  0  0
 14 15  1  0  0  0  0
 15 19  1  1  0  0  0
 16 21  1  6  0  0  0
 16 15  1  0  0  0  0
 17 18  1  0  0  0  0
 19 20  1  0  0  0  0
 21 22  1  0  0  0  0
 23 26  1  0  0  0  0
 23 25  1  0  0  0  0
 24 23  1  0  0  0  0
M  END
>  <minimizedAffinity>
-5.19983816

$$$$

 OpenBabel03272507563D

 26 27  0  0  1  0  0  0  0  0999 V2000
   37.0720   26.8820   33.4830 C   0  0  0  0  0  0  0  0  0  0  0  0
   37.8980   26.3260   34.4970 C   0  0  0  0  0  0  0  0  0  0  0  0
   38.2440   24.9860   34.4050 C   0  0  0  0  0  0  0  0  0  0  0  0
   37.7650   24.2770   33.3380 N   0  0  0  0  0  0  0  0  0  0  0  0
   36.9760   24.8460   32.3880 C   0  0  0  0  0  0  0  0  0  0  0  0
   36.6270   26.1410   32.4540 N   0  0  0  0  0  0  0  0  0  0  0  0
   36.5830   23.9230   31.3970 N   0  0  0  0  0  0  0  0  0  0  0  0
   36.8160   27.9300   33.5750 H   0  0  0  0  0  0  0  0  0  0  0  0
   35.5410   23.8420   31.5910 H   0  0  0  0  0  0  0  0  0  0  0  0
   37.1700   23.4680   30.6940 H   0  0  0  0  0  0  0  0  0  0  0  0
   40.4750   23.9920   34.9680 C   0  0  1  0  0  3  0  0  0  0  0  0
   39.1080   24.3630   35.4400 C   0  0  2  0  0  3  0  0  0  0  0  0
   38.4740   23.1660   35.7980 O   0  0  0  0  0  0  0  0  0  0  0  0
   39.0430   22.6030   36.9230 C   0  0  0  0  0  2  0  0  0  0  0  0
   40.3460   21.9880   36.4880 C   0  0  1  0  0  3  0  0  0  0  0  0
   40.7440   22.4830   35.0920 C   0  0  1  0  0  3  0  0  0  0  0  0
   40.6380   24.2420   33.5920 O   0  0  0  0  0  0  0  0  0  0  0  0
   41.6190   24.1880   33.3910 H   0  0  0  0  0  0  0  0  0  0  0  0
   41.3520   22.3090   37.3910 O   0  0  0  0  0  0  0  0  0  0  0  0
   41.0150   22.2140   38.3150 H   0  0  0  0  0  0  0  0  0  0  0  0
   39.9240   21.8210   34.1930 O   0  0  0  0  0  0  0  0  0  0  0  0
   40.1870   20.8870   34.0570 H   0  0  0  0  0  0  0  0  0  0  0  0
   38.3510   27.1950   35.6110 C   0  0  0  0  0  0  0  0  0  0  0  0
   38.1470   26.6050   36.8520 F   0  0  0  0  0  0  0  0  0  0  0  0
   39.6790   27.4530   35.4490 F   0  0  0  0  0  0  0  0  0  0  0  0
   37.6830   28.4060   35.6510 F   0  0  0  0  0  0  0  0  0  0  0  0
  1  8  1  0  0  0  0
  1  2  1  0  0  0  0
  2 23  1  0  0  0  0
  3  2  2  0  0  0  0
  4  3  1  0  0  0  0
  5  6  1  0  0  0  0
  5  4  2  0  0  0  0
  6  1  2  0  0  0  0
  7  9  1  0  0  0  0
  7  5  1  0  0  0  0
 10  7  1  0  0  0  0
 11 17  1  6  0  0  0
 11 16  1  0  0  0  0
 11 12  1  0  0  0  0
 12  3  1  6  0  0  0
 12 13  1  0  0  0  0
 13 14  1  0  0  0  0
 15 14  1  0  0  0  0
 15 19  1  1  0  0  0
 16 21  1  6  0  0  0
 16 15  1  0  0  0  0
 18 17  1  0  0  0  0
 19 20  1  0  0  0  0
 22 21  1  0  0  0  0
 23 26  1  0  0  0  0
 23 24  1  0  0  0  0
 25 23  1  0  0  0  0
M  END
>  <minimizedAffinity>
-5.02354527

$$$$

 OpenBabel03272507563D

 26 27  0  0  1  0  0  0  0  0999 V2000
   40.3750   22.3400   37.5910 C   0  0  0  0  0  0  0  0  0  0  0  0
   39.4270   23.2970   37.1380 C   0  0  0  0  0  0  0  0  0  0  0  0
   39.6860   23.9730   35.9550 C   0  0  0  0  0  0  0  0  0  0  0  0
   40.8460   23.6770   35.2940 N   0  0  0  0  0  0  0  0  0  0  0  0
   41.7290   22.7550   35.7600 C   0  0  0  0  0  0  0  0  0  0  0  0
   41.5010   22.0860   36.9020 N   0  0  0  0  0  0  0  0  0  0  0  0
   42.8610   22.6310   34.9290 N   0  0  0  0  0  0  0  0  0  0  0  0
   40.1510   21.8240   38.5150 H   0  0  0  0  0  0  0  0  0  0  0  0
   43.6220   23.0330   35.5540 H   0  0  0  0  0  0  0  0  0  0  0  0
   42.9060   22.2520   33.9810 H   0  0  0  0  0  0  0  0  0  0  0  0
   38.0970   24.6310   34.1320 C   0  0  1  0  0  3  0  0  0  0  0  0
   38.7220   24.9810   35.4410 C   0  0  2  0  0  3  0  0  0  0  0  0
   39.4660   26.1480   35.2270 O   0  0  0  0  0  0  0  0  0  0  0  0
   38.6510   27.2340   34.9770 C   0  0  0  0  0  2  0  0  0  0  0  0
   38.1480   27.0850   33.5670 C   0  0  1  0  0  3  0  0  0  0  0  0
   38.4110   25.6680   33.0410 C   0  0  1  0  0  3  0  0  0  0  0  0
   38.6200   23.4340   33.6060 O   0  0  0  0  0  0  0  0  0  0  0  0
   38.0150   23.1430   32.8610 H   0  0  0  0  0  0  0  0  0  0  0  0
   36.7850   27.3460   33.5150 O   0  0  0  0  0  0  0  0  0  0  0  0
   36.5750   28.1430   34.0600 H   0  0  0  0  0  0  0  0  0  0  0  0
   39.7650   25.6010   32.7570 O   0  0  0  0  0  0  0  0  0  0  0  0
   40.0030   26.0700   31.9300 H   0  0  0  0  0  0  0  0  0  0  0  0
   38.2060   23.5370   37.9460 C   0  0  0  0  0  0  0  0  0  0  0  0
   37.0470   23.2050   37.2570 F   0  0  0  0  0  0  0  0  0  0  0  0
   38.2830   22.7910   39.0830 F   0  0  0  0  0  0  0  0  0  0  0  0
   38.0620   24.8640   38.3140 F   0  0  0  0  0  0  0  0  0  0  0  0
  1  8  1  0  0  0  0
  2  1  1  0  0  0  0
  2 23  1  0  0  0  0
  3  2  2  0  0  0  0
  4  5  2  0  0  0  0
  4  3  1  0  0  0  0
  5  6  1  0  0  0  0
  6  1  2  0  0  0  0
  7  9  1  0  0  0  0
  7  5  1  0  0  0  0
 10  7  1  0  0  0  0
 11 17  1  6  0  0  0
 11 12  1  0  0  0  0
 12  3  1  6  0  0  0
 13 12  1  0  0  0  0
 14 13  1  0  0  0  0
 15 19  1  1  0  0  0
 15 14  1  0  0  0  0
 16 21  1  1  0  0  0
 16 15  1  0  0  0  0
 16 11  1  0  0  0  0
 18 17  1  0  0  0  0
 19 20  1  0  0  0  0
 22 21  1  0  0  0  0
 23 26  1  0  0  0  0
 23 25  1  0  0  0  0
 24 23  1  0  0  0  0
M  END
>  <minimizedAffinity>
-4.96894884

$$$$

 OpenBabel03272507563D

 26 27  0  0  1  0  0  0  0  0999 V2000
   38.1940   25.3460   36.3390 C   0  0  0  0  0  0  0  0  0  0  0  0
   38.4900   25.7030   34.9970 C   0  0  0  0  0  0  0  0  0  0  0  0
   38.4770   24.7080   34.0310 C   0  0  0  0  0  0  0  0  0  0  0  0
   38.1790   23.4350   34.4330 N   0  0  0  0  0  0  0  0  0  0  0  0
   37.9010   23.1330   35.7290 C   0  0  0  0  0  0  0  0  0  0  0  0
   37.9070   24.0790   36.6830 N   0  0  0  0  0  0  0  0  0  0  0  0
   37.6450   21.7590   35.9150 N   0  0  0  0  0  0  0  0  0  0  0  0
   38.2080   26.1400   37.0760 H   0  0  0  0  0  0  0  0  0  0  0  0
   38.4930   21.4660   36.4860 H   0  0  0  0  0  0  0  0  0  0  0  0
   36.8470   21.2170   35.5760 H   0  0  0  0  0  0  0  0  0  0  0  0
   37.5890   25.0440   31.7110 C   0  0  1  0  0  3  0  0  0  0  0  0
   38.7790   25.0350   32.6130 C   0  0  2  0  0  3  0  0  0  0  0  0
   39.6170   24.0110   32.1540 O   0  0  0  0  0  0  0  0  0  0  0  0
   40.1680   24.3150   30.9250 C   0  0  0  0  0  2  0  0  0  0  0  0
   39.0800   24.1230   29.9020 C   0  0  1  0  0  3  0  0  0  0  0  0
   37.7080   24.0100   30.5800 C   0  0  1  0  0  3  0  0  0  0  0  0
   36.4170   24.6550   32.3890 O   0  0  0  0  0  0  0  0  0  0  0  0
   35.6390   24.8950   31.8030 H   0  0  0  0  0  0  0  0  0  0  0  0
   39.0650   25.1910   29.0140 O   0  0  0  0  0  0  0  0  0  0  0  0
   39.9890   25.4240   28.7530 H   0  0  0  0  0  0  0  0  0  0  0  0
   37.6530   22.7450   31.1410 O   0  0  0  0  0  0  0  0  0  0  0  0
   37.5040   22.0410   30.4760 H   0  0  0  0  0  0  0  0  0  0  0  0
   38.8060   27.1190   34.6820 C   0  0  0  0  0  0  0  0  0  0  0  0
   37.9290   27.6570   33.7490 F   0  0  0  0  0  0  0  0  0  0  0  0
   38.7390   27.8460   35.8330 F   0  0  0  0  0  0  0  0  0  0  0  0
   40.0720   27.2780   34.1480 F   0  0  0  0  0  0  0  0  0  0  0  0
  1  6  1  0  0  0  0
  1  8  1  0  0  0  0
  2  1  2  0  0  0  0
  3  4  2  0  0  0  0
  3  2  1  0  0  0  0
  4  5  1  0  0  0  0
  5  7  1  0  0  0  0
  5  6  2  0  0  0  0
  7  9  1  0  0  0  0
 10  7  1  0  0  0  0
 11 17  1  1  0  0  0
 11 12  1  0  0  0  0
 12  3  1  1  0  0  0
 13 12  1  0  0  0  0
 14 13  1  0  0  0  0
 15 19  1  6  0  0  0
 15 16  1  0  0  0  0
 15 14  1  0  0  0  0
 16 21  1  1  0  0  0
 16 11  1  0  0  0  0
 18 17  1  0  0  0  0
 20 19  1  0  0  0  0
 22 21  1  0  0  0  0
 23  2  1  0  0  0  0
 23 25  1  0  0  0  0
 24 23  1  0  0  0  0
 26 23  1  0  0  0  0
M  END
>  <minimizedAffinity>
-4.88687086

$$$$

 OpenBabel03272507563D

 26 27  0  0  1  0  0  0  0  0999 V2000
   38.0470   24.3620   36.1870 C   0  0  0  0  0  0  0  0  0  0  0  0
   38.2430   25.4750   35.3260 C   0  0  0  0  0  0  0  0  0  0  0  0
   38.3300   25.2450   33.9610 C   0  0  0  0  0  0  0  0  0  0  0  0
   38.2220   23.9540   33.5250 N   0  0  0  0  0  0  0  0  0  0  0  0
   38.0350   22.9150   34.3820 C   0  0  0  0  0  0  0  0  0  0  0  0
   37.9470   23.1110   35.7070 N   0  0  0  0  0  0  0  0  0  0  0  0
   37.9750   21.6750   33.7130 N   0  0  0  0  0  0  0  0  0  0  0  0
   37.9810   24.5660   37.2480 H   0  0  0  0  0  0  0  0  0  0  0  0
   38.8750   21.2170   34.0450 H   0  0  0  0  0  0  0  0  0  0  0  0
   37.2450   21.3360   33.0810 H   0  0  0  0  0  0  0  0  0  0  0  0
   37.3540   26.6920   32.1610 C   0  0  1  0  0  3  0  0  0  0  0  0
   38.5330   26.3790   33.0210 C   0  0  2  0  0  3  0  0  0  0  0  0
   39.5600   25.9800   32.1560 O   0  0  0  0  0  0  0  0  0  0  0  0
   40.0140   27.0310   31.3840 C   0  0  0  0  0  2  0  0  0  0  0  0
   38.9750   27.2720   30.3240 C   0  0  1  0  0  3  0  0  0  0  0  0
   37.6680   26.5430   30.6640 C   0  0  1  0  0  3  0  0  0  0  0  0
   36.3000   25.7790   32.3670 O   0  0  0  0  0  0  0  0  0  0  0  0
   35.4800   26.1670   31.9410 H   0  0  0  0  0  0  0  0  0  0  0  0
   38.7200   28.6330   30.2030 O   0  0  0  0  0  0  0  0  0  0  0  0
   39.5700   29.1350   30.2210 H   0  0  0  0  0  0  0  0  0  0  0  0
   37.8890   25.2010   30.3990 O   0  0  0  0  0  0  0  0  0  0  0  0
   37.8810   24.9980   29.4400 H   0  0  0  0  0  0  0  0  0  0  0  0
   38.3530   26.8310   35.9170 C   0  0  0  0  0  0  0  0  0  0  0  0
   37.3840   27.6970   35.4260 F   0  0  0  0  0  0  0  0  0  0  0  0
   38.2200   26.7290   37.2690 F   0  0  0  0  0  0  0  0  0  0  0  0
   39.5700   27.4340   35.6510 F   0  0  0  0  0  0  0  0  0  0  0  0
  1  8  1  0  0  0  0
  2 23  1  0  0  0  0
  2  1  2  0  0  0  0
  3  2  1  0  0  0  0
  4  3  2  0  0  0  0
  4  5  1  0  0  0  0
  5  6  2  0  0  0  0
  6  1  1  0  0  0  0
  7  9  1  0  0  0  0
  7  5  1  0  0  0  0
 10  7  1  0  0  0  0
 11 17  1  1  0  0  0
 11 12  1  0  0  0  0
 12  3  1  1  0  0  0
 13 12  1  0  0  0  0
 14 13  1  0  0  0  0
 15 19  1  1  0  0  0
 15 16  1  0  0  0  0
 15 14  1  0  0  0  0
 16 21  1  1  0  0  0
 16 11  1  0  0  0  0
 18 17  1  0  0  0  0
 19 20  1  0  0  0  0
 22 21  1  0  0  0  0
 23 25  1  0  0  0  0
 24 23  1  0  0  0  0
 26 23  1  0  0  0  0
M  END
>  <minimizedAffinity>
-4.83532381

$$$$

 OpenBabel03272507563D

 26 27  0  0  1  0  0  0  0  0999 V2000
   37.6480   21.8220   33.6170 C   0  0  0  0  0  0  0  0  0  0  0  0
   37.2710   22.6960   32.5630 C   0  0  0  0  0  0  0  0  0  0  0  0
   37.4430   24.0600   32.7440 C   0  0  0  0  0  0  0  0  0  0  0  0
   37.9670   24.4830   33.9340 N   0  0  0  0  0  0  0  0  0  0  0  0
   38.3150   23.6130   34.9200 C   0  0  0  0  0  0  0  0  0  0  0  0
   38.1590   22.2880   34.7690 N   0  0  0  0  0  0  0  0  0  0  0  0
   38.8110   24.2730   36.0630 N   0  0  0  0  0  0  0  0  0  0  0  0
   37.5070   20.7610   33.4520 H   0  0  0  0  0  0  0  0  0  0  0  0
   38.0380   24.0780   36.7670 H   0  0  0  0  0  0  0  0  0  0  0  0
   39.6870   24.7930   36.1590 H   0  0  0  0  0  0  0  0  0  0  0  0
   38.2190   25.6700   30.9860 C   0  0  1  0  0  3  0  0  0  0  0  0
   37.0650   25.0130   31.6680 C   0  0  2  0  0  3  0  0  0  0  0  0
   36.3430   26.0350   32.2970 O   0  0  0  0  0  0  0  0  0  0  0  0
   35.7260   26.8630   31.3810 C   0  0  0  0  0  2  0  0  0  0  0  0
   36.7990   27.7410   30.7980 C   0  0  1  0  0  3  0  0  0  0  0  0
   38.1930   27.2000   31.1400 C   0  0  1  0  0  3  0  0  0  0  0  0
   39.4480   25.3030   31.5690 O   0  0  0  0  0  0  0  0  0  0  0  0
   40.1750   25.5890   30.9410 H   0  0  0  0  0  0  0  0  0  0  0  0
   36.6620   27.8110   29.4170 O   0  0  0  0  0  0  0  0  0  0  0  0
   35.7100   27.9270   29.1800 H   0  0  0  0  0  0  0  0  0  0  0  0
   38.4150   27.5050   32.4730 O   0  0  0  0  0  0  0  0  0  0  0  0
   38.6280   28.4510   32.6150 H   0  0  0  0  0  0  0  0  0  0  0  0
   36.7070   22.1200   31.3170 C   0  0  0  0  0  0  0  0  0  0  0  0
   35.5160   22.7330   30.9490 F   0  0  0  0  0  0  0  0  0  0  0  0
   37.6190   22.2700   30.3160 F   0  0  0  0  0  0  0  0  0  0  0  0
   36.4200   20.7710   31.4340 F   0  0  0  0  0  0  0  0  0  0  0  0
  1  6  1  0  0  0  0
  2  3  1  0  0  0  0
  2  1  2  0  0  0  0
  3  4  2  0  0  0  0
  4  5  1  0  0  0  0
  5  7  1  0  0  0  0
  6  5  2  0  0  0  0
  7 10  1  0  0  0  0
  7  9  1  0  0  0  0
  8  1  1  0  0  0  0
 11 16  1  0  0  0  0
 11 17  1  1  0  0  0
 11 12  1  0  0  0  0
 12 13  1  0  0  0  0
 12  3  1  1  0  0  0
 14 13  1  0  0  0  0
 15 19  1  6  0  0  0
 15 16  1  0  0  0  0
 15 14  1  0  0  0  0
 16 21  1  1  0  0  0
 18 17  1  0  0  0  0
 20 19  1  0  0  0  0
 21 22  1  0  0  0  0
 23 26  1  0  0  0  0
 23  2  1  0  0  0  0
 24 23  1  0  0  0  0
 25 23  1  0  0  0  0
M  END
>  <minimizedAffinity>
-4.82360649

$$$$

 OpenBabel03272507563D

 26 27  0  0  1  0  0  0  0  0999 V2000
   36.8020   21.9060   36.5560 C   0  0  0  0  0  0  0  0  0  0  0  0
   37.8260   22.8880   36.6340 C   0  0  0  0  0  0  0  0  0  0  0  0
   38.4960   23.2360   35.4700 C   0  0  0  0  0  0  0  0  0  0  0  0
   38.1290   22.6080   34.3130 N   0  0  0  0  0  0  0  0  0  0  0  0
   37.1420   21.6730   34.2790 C   0  0  0  0  0  0  0  0  0  0  0  0
   36.4790   21.3180   35.3910 N   0  0  0  0  0  0  0  0  0  0  0  0
   36.9500   21.1450   32.9860 N   0  0  0  0  0  0  0  0  0  0  0  0
   36.2920   21.6520   37.4770 H   0  0  0  0  0  0  0  0  0  0  0  0
   37.2920   20.1470   33.1160 H   0  0  0  0  0  0  0  0  0  0  0  0
   36.5790   21.6220   32.1610 H   0  0  0  0  0  0  0  0  0  0  0  0
   39.2160   25.5580   34.8590 C   0  0  1  0  0  3  0  0  0  0  0  0
   39.5730   24.2590   35.5030 C   0  0  2  0  0  3  0  0  0  0  0  0
   40.6320   23.7250   34.7580 O   0  0  0  0  0  0  0  0  0  0  0  0
   41.7860   24.4680   34.9070 C   0  0  0  0  0  2  0  0  0  0  0  0
   41.6080   25.7170   34.0870 C   0  0  1  0  0  3  0  0  0  0  0  0
   40.1400   25.8950   33.6770 C   0  0  1  0  0  3  0  0  0  0  0  0
   37.9360   25.5150   34.2720 O   0  0  0  0  0  0  0  0  0  0  0  0
   37.6700   26.4590   34.0630 H   0  0  0  0  0  0  0  0  0  0  0  0
   42.0180   26.8290   34.8110 O   0  0  0  0  0  0  0  0  0  0  0  0
   42.8660   26.6300   35.2780 H   0  0  0  0  0  0  0  0  0  0  0  0
   39.9010   24.9800   32.6650 O   0  0  0  0  0  0  0  0  0  0  0  0
   40.2880   25.2540   31.8080 H   0  0  0  0  0  0  0  0  0  0  0  0
   38.1410   23.4950   37.9500 C   0  0  0  0  0  0  0  0  0  0  0  0
   37.9590   24.8720   37.9500 F   0  0  0  0  0  0  0  0  0  0  0  0
   37.3330   22.9350   38.8930 F   0  0  0  0  0  0  0  0  0  0  0  0
   39.4540   23.2870   38.3350 F   0  0  0  0  0  0  0  0  0  0  0  0
  1  2  1  0  0  0  0
  1  8  1  0  0  0  0
  2 23  1  0  0  0  0
  3  2  2  0  0  0  0
  4  3  1  0  0  0  0
  5  4  2  0  0  0  0
  5  6  1  0  0  0  0
  6  1  2  0  0  0  0
  7  9  1  0  0  0  0
  7  5  1  0  0  0  0
 10  7  1  0  0  0  0
 11 17  1  6  0  0  0
 11 12  1  0  0  0  0
 12  3  1  6  0  0  0
 13 14  1  0  0  0  0
 13 12  1  0  0  0  0
 15 19  1  1  0  0  0
 15 14  1  0  0  0  0
 16 21  1  6  0  0  0
 16 15  1  0  0  0  0
 16 11  1  0  0  0  0
 18 17  1  0  0  0  0
 19 20  1  0  0  0  0
 22 21  1  0  0  0  0
 23 24  1  0  0  0  0
 23 26  1  0  0  0  0
 23 25  1  0  0  0  0
M  END
>  <minimizedAffinity>
-4.76051807

$$$$

 OpenBabel03272507563D

 26 27  0  0  1  0  0  0  0  0999 V2000
   36.5490   27.8750   33.3350 C   0  0  0  0  0  0  0  0  0  0  0  0
   37.3910   26.9410   33.9950 C   0  0  0  0  0  0  0  0  0  0  0  0
   37.5590   25.6870   33.4260 C   0  0  0  0  0  0  0  0  0  0  0  0
   36.8980   25.4250   32.2580 N   0  0  0  0  0  0  0  0  0  0  0  0
   36.0990   26.3470   31.6570 C   0  0  0  0  0  0  0  0  0  0  0  0
   35.9210   27.5670   32.1870 N   0  0  0  0  0  0  0  0  0  0  0  0
   35.5040   25.8510   30.4790 N   0  0  0  0  0  0  0  0  0  0  0  0
   36.4350   28.8480   33.7970 H   0  0  0  0  0  0  0  0  0  0  0  0
   34.4820   25.7980   30.7690 H   0  0  0  0  0  0  0  0  0  0  0  0
   35.9610   25.6130   29.5950 H   0  0  0  0  0  0  0  0  0  0  0  0
   39.7390   24.4500   33.3930 C   0  0  1  0  0  3  0  0  0  0  0  0
   38.4320   24.6780   34.0790 C   0  0  2  0  0  3  0  0  0  0  0  0
   37.7330   23.4660   34.0130 O   0  0  0  0  0  0  0  0  0  0  0  0
   38.3240   22.4930   34.7950 C   0  0  0  0  0  2  0  0  0  0  0  0
   39.5500   22.0280   34.0580 C   0  0  1  0  0  3  0  0  0  0  0  0
   39.9030   22.9960   32.9210 C   0  0  1  0  0  3  0  0  0  0  0  0
   39.8410   25.1950   32.2020 O   0  0  0  0  0  0  0  0  0  0  0  0
   40.8020   25.1750   31.9180 H   0  0  0  0  0  0  0  0  0  0  0  0
   40.6270   21.9360   34.9310 O   0  0  0  0  0  0  0  0  0  0  0  0
   40.3380   21.5150   35.7760 H   0  0  0  0  0  0  0  0  0  0  0  0
   38.9860   22.7630   31.9100 O   0  0  0  0  0  0  0  0  0  0  0  0
   39.1710   21.9390   31.4130 H   0  0  0  0  0  0  0  0  0  0  0  0
   38.0520   27.3380   35.2630 C   0  0  0  0  0  0  0  0  0  0  0  0
   39.4310   27.4370   35.1270 F   0  0  0  0  0  0  0  0  0  0  0  0
   37.5510   28.5430   35.6560 F   0  0  0  0  0  0  0  0  0  0  0  0
   37.8350   26.4310   36.2850 F   0  0  0  0  0  0  0  0  0  0  0  0
  1  8  1  0  0  0  0
  1  2  1  0  0  0  0
  2 23  1  0  0  0  0
  3  2  2  0  0  0  0
  4  3  1  0  0  0  0
  5  6  1  0  0  0  0
  5  4  2  0  0  0  0
  6  1  2  0  0  0  0
  7  9  1  0  0  0  0
  7  5  1  0  0  0  0
 10  7  1  0  0  0  0
 11 17  1  6  0  0  0
 11 12  1  0  0  0  0
 12  3  1  6  0  0  0
 13 12  1  0  0  0  0
 13 14  1  0  0  0  0
 15 14  1  0  0  0  0
 15 19  1  1  0  0  0
 16 21  1  6  0  0  0
 16 11  1  0  0  0  0
 16 15  1  0  0  0  0
 18 17  1  0  0  0  0
 19 20  1  0  0  0  0
 22 21  1  0  0  0  0
 23 25  1  0  0  0  0
 23 26  1  0  0  0  0
 24 23  1  0  0  0  0
M  END
>  <minimizedAffinity>
-4.73526621

$$$$

 OpenBabel03272507563D

 26 27  0  0  1  0  0  0  0  0999 V2000
   37.3350   25.6250   33.0530 C   0  0  0  0  0  0  0  0  0  0  0  0
   36.3890   26.4170   32.3490 C   0  0  0  0  0  0  0  0  0  0  0  0
   36.0700   27.6690   32.8560 C   0  0  0  0  0  0  0  0  0  0  0  0
   36.6880   28.0640   34.0090 N   0  0  0  0  0  0  0  0  0  0  0  0
   37.5890   27.2750   34.6540 C   0  0  0  0  0  0  0  0  0  0  0  0
   37.9150   26.0610   34.1840 N   0  0  0  0  0  0  0  0  0  0  0  0
   38.0800   27.8770   35.8310 N   0  0  0  0  0  0  0  0  0  0  0  0
   37.5690   24.6520   32.6370 H   0  0  0  0  0  0  0  0  0  0  0  0
   37.6550   27.2500   36.5770 H   0  0  0  0  0  0  0  0  0  0  0  0
   38.6830   28.6990   35.9120 H   0  0  0  0  0  0  0  0  0  0  0  0
   35.6950   29.6150   31.3220 C   0  0  1  0  0  3  0  0  0  0  0  0
   35.0880   28.5340   32.1530 C   0  0  2  0  0  3  0  0  0  0  0  0
   34.3520   29.1730   33.1580 O   0  0  0  0  0  0  0  0  0  0  0  0
   33.2460   29.8240   32.6460 C   0  0  0  0  0  2  0  0  0  0  0  0
   33.7490   31.0730   31.9760 C   0  0  1  0  0  3  0  0  0  0  0  0
   35.2710   31.0170   31.7890 C   0  0  1  0  0  3  0  0  0  0  0  0
   37.0990   29.6410   31.4420 O   0  0  0  0  0  0  0  0  0  0  0  0
   37.4520   30.2220   30.7060 H   0  0  0  0  0  0  0  0  0  0  0  0
   33.1420   31.2300   30.7370 O   0  0  0  0  0  0  0  0  0  0  0  0
   32.1760   31.0310   30.8090 H   0  0  0  0  0  0  0  0  0  0  0  0
   35.8280   31.2460   33.0360 O   0  0  0  0  0  0  0  0  0  0  0  0
   35.7860   32.1870   33.3040 H   0  0  0  0  0  0  0  0  0  0  0  0
   35.7780   25.8780   31.1090 C   0  0  0  0  0  0  0  0  0  0  0  0
   34.4040   25.7160   31.2290 F   0  0  0  0  0  0  0  0  0  0  0  0
   36.0430   26.7360   30.0840 F   0  0  0  0  0  0  0  0  0  0  0  0
   36.2780   24.6340   30.7650 F   0  0  0  0  0  0  0  0  0  0  0  0
  1  6  1  0  0  0  0
  2  3  1  0  0  0  0
  2  1  2  0  0  0  0
  3  4  2  0  0  0  0
  4  5  1  0  0  0  0
  5  7  1  0  0  0  0
  6  5  2  0  0  0  0
  7 10  1  0  0  0  0
  7  9  1  0  0  0  0
  8  1  1  0  0  0  0
 11 17  1  1  0  0  0
 11 16  1  0  0  0  0
 11 12  1  0  0  0  0
 12  3  1  1  0  0  0
 12 13  1  0  0  0  0
 14 13  1  0  0  0  0
 15 19  1  6  0  0  0
 15 14  1  0  0  0  0
 16 15  1  0  0  0  0
 16 21  1  1  0  0  0
 18 17  1  0  0  0  0
 19 20  1  0  0  0  0
 21 22  1  0  0  0  0
 23 24  1  0  0  0  0
 23  2  1  0  0  0  0
 25 23  1  0  0  0  0
 26 23  1  0  0  0  0
M  END
>  <minimizedAffinity>
-4.69437695

$$$$
