
 OpenBabel03272506353D

 22 23  0  0  1  0  0  0  0  0999 V2000
   34.2290   27.7620   48.3780 C   0  0  1  0  0  3  0  0  0  0  0  0
   34.9500   28.9040   47.7080 C   0  0  1  0  0  3  0  0  0  0  0  0
   34.0710   29.8550   47.1950 O   0  0  0  0  0  0  0  0  0  0  0  0
   32.9740   29.1610   46.6370 C   0  0  0  0  0  2  0  0  0  0  0  0
   32.0540   28.9070   47.8250 C   0  0  2  0  0  3  0  0  0  0  0  0
   32.8460   28.1520   48.8440 C   0  0  2  0  0  3  0  0  0  0  0  0
   37.1960   29.5490   50.5750 C   0  0  0  0  0  0  0  0  0  0  0  0
   37.5310   30.9090   50.4090 C   0  0  0  0  0  0  0  0  0  0  0  0
   36.9820   31.5800   49.3190 C   0  0  0  0  0  0  0  0  0  0  0  0
   36.1600   30.8990   48.4770 N   0  0  0  0  0  0  0  0  0  0  0  0
   35.8580   29.5860   48.6700 C   0  0  0  0  0  0  0  0  0  0  0  0
   36.3780   28.9310   49.7120 N   0  0  0  0  0  0  0  0  0  0  0  0
   38.1710   31.4870   51.0410 H   0  0  0  0  0  0  0  0  0  0  0  0
   37.1870   32.6250   49.1170 H   0  0  0  0  0  0  0  0  0  0  0  0
   37.8010   29.0000   51.6900 O   0  0  0  0  0  0  0  0  0  0  0  0
   38.8250   28.9290   51.6270 H   0  0  0  0  0  0  0  0  0  0  0  0
   34.1260   26.6250   47.6150 O   0  0  0  0  0  0  0  0  0  0  0  0
   34.9950   26.1870   47.4290 H   0  0  0  0  0  0  0  0  0  0  0  0
   30.8520   28.3460   47.4770 O   0  0  0  0  0  0  0  0  0  0  0  0
   30.7250   27.4200   47.8020 H   0  0  0  0  0  0  0  0  0  0  0  0
   33.0340   28.9460   49.9960 O   0  0  0  0  0  0  0  0  0  0  0  0
   32.8950   28.4440   50.8210 H   0  0  0  0  0  0  0  0  0  0  0  0
  1 17  1  6  0  0  0
  1  6  1  0  0  0  0
  2  1  1  0  0  0  0
  2 11  1  1  0  0  0
  3  2  1  0  0  0  0
  4  3  1  0  0  0  0
  4  5  1  0  0  0  0
  5 19  1  6  0  0  0
  5  6  1  0  0  0  0
  6 21  1  1  0  0  0
  7 15  1  0  0  0  0
  8  7  1  0  0  0  0
  8 13  1  0  0  0  0
  9  8  2  0  0  0  0
 10 11  2  0  0  0  0
 10  9  1  0  0  0  0
 11 12  1  0  0  0  0
 12  7  2  0  0  0  0
 14  9  1  0  0  0  0
 16 15  1  0  0  0  0
 18 17  1  0  0  0  0
 19 20  1  0  0  0  0
 21 22  1  0  0  0  0
M  END
>  <minimizedAffinity>
-4.4902873

>  <minimizedRMSD>
2.26997852

$$$$
