
 OpenBabel03272500083D

 42 45  0  0  1  0  0  0  0  0999 V2000
   30.6840   27.6450   48.1910 C   0  0  0  0  0  0  0  0  0  0  0  0
   30.5960   27.6580   49.5650 C   0  0  0  0  0  0  0  0  0  0  0  0
   29.4340   28.0430   50.2010 C   0  0  0  0  0  0  0  0  0  0  0  0
   28.3360   28.4250   49.4190 C   0  0  0  0  0  0  0  0  0  0  0  0
   28.4350   28.4090   48.0310 C   0  0  0  0  0  0  0  0  0  0  0  0
   29.6000   28.0210   47.4430 C   0  0  0  0  0  0  0  0  0  0  0  0
   31.4150   27.3720   50.2090 H   0  0  0  0  0  0  0  0  0  0  0  0
   29.3750   28.0500   51.2880 H   0  0  0  0  0  0  0  0  0  0  0  0
   27.4610   28.7150   49.9880 H   0  0  0  0  0  0  0  0  0  0  0  0
   27.5570   28.7140   47.4920 H   0  0  0  0  0  0  0  0  0  0  0  0
   29.3980   26.6070   45.4540 C   0  0  1  0  0  3  0  0  0  0  0  0
   29.6760   27.9960   45.9810 C   0  0  1  0  0  3  0  0  0  0  0  0
   28.7890   28.9380   45.4730 O   0  0  0  0  0  0  0  0  0  0  0  0
   28.3600   28.6390   44.1840 C   0  0  0  0  0  2  0  0  0  0  0  0
   27.3700   27.5070   44.2880 C   0  0  1  0  0  3  0  0  0  0  0  0
   27.9810   26.3630   45.0600 C   0  0  1  0  0  3  0  0  0  0  0  0
   30.2580   26.2590   44.4260 O   0  0  0  0  0  0  0  0  0  0  0  0
   31.1480   26.6790   44.5830 H   0  0  0  0  0  0  0  0  0  0  0  0
   26.2180   27.8970   44.9720 O   0  0  0  0  0  0  0  0  0  0  0  0
   25.6550   27.0600   45.0210 H   0  0  0  0  0  0  0  0  0  0  0  0
   27.9770   25.2440   44.2110 O   0  0  0  0  0  0  0  0  0  0  0  0
   28.8760   24.8540   44.0870 H   0  0  0  0  0  0  0  0  0  0  0  0
   31.9170   27.2350   47.6950 O   0  0  0  0  0  0  0  0  0  0  0  0
   34.9920   28.7200   48.8280 C   0  0  0  0  0  0  0  0  0  0  0  0
   35.0260   29.9530   48.1290 C   0  0  0  0  0  0  0  0  0  0  0  0
   33.9690   30.2390   47.2770 C   0  0  0  0  0  0  0  0  0  0  0  0
   32.9670   29.3240   47.1610 N   0  0  0  0  0  0  0  0  0  0  0  0
   32.9590   28.1700   47.8280 C   0  0  0  0  0  0  0  0  0  0  0  0
   33.9800   27.8480   48.6790 N   0  0  0  0  0  0  0  0  0  0  0  0
   35.8210   28.4900   49.5000 H   0  0  0  0  0  0  0  0  0  0  0  0
   33.9840   31.1770   46.7410 H   0  0  0  0  0  0  0  0  0  0  0  0
   36.1340   30.8100   48.3460 N   0  0  0  0  0  0  0  0  0  0  0  0
   36.3790   31.3780   49.5230 C   0  0  0  0  0  0  0  0  0  0  0  0
   37.4870   32.2040   49.6570 C   0  0  0  0  0  0  0  0  0  0  0  0
   38.2470   32.3660   48.5430 C   0  0  0  0  0  0  0  0  0  0  0  0
   39.2660   33.1200   48.6500 O   0  0  0  0  0  0  0  0  0  0  0  0
   38.0390   31.8200   47.3610 N   0  0  0  0  0  0  0  0  0  0  0  0
   36.9450   31.0120   47.2520 C   0  0  0  0  0  0  0  0  0  0  0  0
   36.7230   30.4750   46.1200 O   0  0  0  0  0  0  0  0  0  0  0  0
   35.6960   31.1730   50.3410 H   0  0  0  0  0  0  0  0  0  0  0  0
   37.6680   32.6580   50.6230 H   0  0  0  0  0  0  0  0  0  0  0  0
   38.6690   31.9920   46.5520 H   0  0  0  0  0  0  0  0  0  0  0  0
  1  2  1  0  0  0  0
  2  3  2  0  0  0  0
  2  7  1  0  0  0  0
  3  8  1  0  0  0  0
  4  9  1  0  0  0  0
  4  3  1  0  0  0  0
  5  4  2  0  0  0  0
  6  5  1  0  0  0  0
  6  1  2  0  0  0  0
 10  5  1  0  0  0  0
 11 17  1  6  0  0  0
 11 12  1  0  0  0  0
 12  6  1  1  0  0  0
 13 12  1  0  0  0  0
 14 15  1  0  0  0  0
 14 13  1  0  0  0  0
 15 19  1  1  0  0  0
 15 16  1  0  0  0  0
 16 21  1  6  0  0  0
 16 11  1  0  0  0  0
 17 18  1  0  0  0  0
 19 20  1  0  0  0  0
 22 21  1  0  0  0  0
 23 28  1  0  0  0  0
 23  1  1  0  0  0  0
 24 30  1  0  0  0  0
 25 32  1  0  0  0  0
 25 24  2  0  0  0  0
 26 25  1  0  0  0  0
 27 26  2  0  0  0  0
 27 28  1  0  0  0  0
 28 29  2  0  0  0  0
 29 24  1  0  0  0  0
 31 26  1  0  0  0  0
 32 33  1  0  0  0  0
 33 34  2  0  0  0  0
 33 40  1  0  0  0  0
 34 41  1  0  0  0  0
 35 36  2  0  0  0  0
 35 34  1  0  0  0  0
 37 35  1  0  0  0  0
 38 37  1  0  0  0  0
 38 32  1  0  0  0  0
 39 38  2  0  0  0  0
 42 37  1  0  0  0  0
M  END
>  <minimizedAffinity>
-6.2371192

>  <minimizedRMSD>
1.09469569

$$$$
