REMARK  Name = 
REMARK  7 active torsions:
REMARK  status: ('A' for Active; 'I' for Inactive)
REMARK    1  A    between atoms: N_1  and  C_11
REMARK    2  A    between atoms: C_3  and  C_15
REMARK    3  A    between atoms: N_6  and  C_21
REMARK    4  A    between atoms: C_19  and  C_34
REMARK    5  A    between atoms: O_32  and  C_33
REMARK    6  A    between atoms: C_37  and  O_38
REMARK    7  A    between atoms: C_39  and  O_40
REMARK                            x       y       z     vdW  Elec       q    Type
REMARK                         _______ _______ _______ _____ _____    ______ ____
ROOT
ATOM      1  N   UNL     1      37.369  31.064  47.149  0.00  0.00    +0.000 N 
ATOM      2  C   UNL     1      36.779  30.726  45.972  0.00  0.00    +0.000 A 
ATOM      3  C   UNL     1      37.235  31.193  44.754  0.00  0.00    +0.000 A 
ATOM      4  C   UNL     1      38.355  32.049  44.762  0.00  0.00    +0.000 A 
ATOM      5  O   UNL     1      38.810  32.501  43.685  0.00  0.00    +0.000 OA
ATOM      6  N   UNL     1      38.946  32.385  45.959  0.00  0.00    +0.000 N 
ATOM      7  C   UNL     1      38.415  31.873  47.057  0.00  0.00    +0.000 A 
ATOM      8  O   UNL     1      38.981  32.202  48.125  0.00  0.00    +0.000 OA
ATOM      9  H   UNL     1      35.908  30.061  45.960  0.00  0.00    +0.000 HD
ENDROOT
BRANCH   1  12
ATOM     10  C   UNL     1      37.251  29.468  50.503  0.00  0.00    +0.000 A 
ATOM     11  C   UNL     1      37.745  29.955  49.277  0.00  0.00    +0.000 A 
ATOM     12  C   UNL     1      36.888  30.578  48.368  0.00  0.00    +0.000 A 
ATOM     13  N   UNL     1      35.585  30.695  48.703  0.00  0.00    +0.000 NA
ATOM     14  C   UNL     1      35.094  30.228  49.886  0.00  0.00    +0.000 A 
ATOM     15  N   UNL     1      35.933  29.622  50.770  0.00  0.00    +0.000 NA
ATOM     16  H   UNL     1      37.935  28.997  51.176  0.00  0.00    +0.000 HD
ATOM     17  H   UNL     1      38.772  29.881  48.975  0.00  0.00    +0.000 HD
ATOM     18  H   UNL     1      34.074  30.309  50.171  0.00  0.00    +0.000 HD
ENDBRANCH   1  12
BRANCH   3  19
ATOM     19  C   UNL     1      36.644  30.865  43.470  0.00  0.00    +0.000 A 
ATOM     20  C   UNL     1      37.008  29.771  42.734  0.00  0.00    +0.000 A 
ATOM     21  C   UNL     1      36.479  29.419  41.517  0.00  0.00    +0.000 A 
ATOM     22  C   UNL     1      35.480  30.245  40.971  0.00  0.00    +0.000 A 
ATOM     23  C   UNL     1      35.136  31.349  41.748  0.00  0.00    +0.000 A 
ATOM     24  N   UNL     1      35.697  31.628  42.928  0.00  0.00    +0.000 NA
ATOM     25  H   UNL     1      37.778  29.104  43.120  0.00  0.00    +0.000 HD
ATOM     26  H   UNL     1      36.768  28.555  40.939  0.00  0.00    +0.000 HD
ATOM     27  H   UNL     1      34.984  30.084  40.029  0.00  0.00    +0.000 HD
BRANCH  23  29
ATOM     28  C   UNL     1      32.722  31.833  41.735  0.00  0.00    +0.000 C 
ATOM     29  C   UNL     1      34.090  32.328  41.311  0.00  0.00    +0.000 C 
ATOM     30  O   UNL     1      34.389  33.586  41.825  0.00  0.00    +0.000 OA
ATOM     31  C   UNL     1      33.534  34.539  41.338  0.00  0.00    +0.000 C 
ATOM     32  C   UNL     1      32.068  34.145  41.390  0.00  0.00    +0.000 C 
ATOM     33  C   UNL     1      31.961  32.990  42.359  0.00  0.00    +0.000 C 
BRANCH  28  34
ATOM     34  O   UNL     1      32.814  30.757  42.625  0.00  0.00    +0.000 OA
ATOM     35  H   UNL     1      32.628  29.920  42.091  0.00  0.00    +0.000 HD
ENDBRANCH  28  34
BRANCH  32  36
ATOM     36  O   UNL     1      31.752  33.622  40.119  0.00  0.00    +0.000 OA
ATOM     37  H   UNL     1      31.993  34.302  39.419  0.00  0.00    +0.000 HD
ENDBRANCH  32  36
BRANCH  33  38
ATOM     38  O   UNL     1      30.644  32.576  42.550  0.00  0.00    +0.000 OA
ATOM     39  H   UNL     1      30.410  32.704  43.510  0.00  0.00    +0.000 HD
ENDBRANCH  33  38
ENDBRANCH  23  29
ENDBRANCH   3  19
BRANCH   6  40
ATOM     40  C   UNL     1      40.092  33.261  45.961  0.00  0.00    +0.000 C 
ATOM     41  F   UNL     1      39.967  34.232  45.028  0.00  0.00    +0.000 F 
ATOM     42  F   UNL     1      41.292  32.604  45.685  0.00  0.00    +0.000 F 
ATOM     43  F   UNL     1      40.180  33.877  47.214  0.00  0.00    +0.000 F 
ENDBRANCH   6  40
TORSDOF 7
