
 OpenBabel03262521513D

 25 26  0  0  1  0  0  0  0  0999 V2000
   36.1990   30.2640   50.2500 C   0  0  0  0  0  0  0  0  0  0  0  0
   36.1230   30.0690   51.3530 H   0  0  0  0  0  0  0  0  0  0  0  0
   36.8920   29.4840   49.8760 H   0  0  0  0  0  0  0  0  0  0  0  0
   35.0010   29.0330   48.5540 C   0  0  2  0  0  3  0  0  0  0  0  0
   34.8110   30.0760   49.6340 C   0  0  1  0  0  3  0  0  0  0  0  0
   34.0140   29.5480   50.6190 O   0  0  0  0  0  0  0  0  0  0  0  0
   32.7600   29.1790   50.2060 C   0  0  0  0  0  2  0  0  0  0  0  0
   32.7320   28.2250   49.0450 C   0  0  2  0  0  3  0  0  0  0  0  0
   33.6920   28.5720   47.9530 C   0  0  2  0  0  3  0  0  0  0  0  0
   35.6590   27.9500   49.1380 O   0  0  0  0  0  0  0  0  0  0  0  0
   35.7690   27.1940   48.5040 H   0  0  0  0  0  0  0  0  0  0  0  0
   31.4350   28.2730   48.5330 O   0  0  0  0  0  0  0  0  0  0  0  0
   31.3990   28.8220   47.6930 H   0  0  0  0  0  0  0  0  0  0  0  0
   33.9840   27.4370   47.1730 O   0  0  0  0  0  0  0  0  0  0  0  0
   34.3420   27.6840   46.2760 H   0  0  0  0  0  0  0  0  0  0  0  0
   36.8940   31.8840   49.8760 S   0  0  0  0  0  0  0  0  0  0  0  0
   37.8740   31.6880   48.3830 C   0  0  0  0  0  0  0  0  0  0  0  0
   38.7120   32.7800   48.1460 C   0  0  0  0  0  0  0  0  0  0  0  0
   39.5410   32.7720   47.0180 C   0  0  0  0  0  0  0  0  0  0  0  0
   39.4740   31.6810   46.2090 N   0  0  0  0  0  0  0  0  0  0  0  0
   38.6470   30.6480   46.4790 C   0  0  0  0  0  0  0  0  0  0  0  0
   37.8490   30.6500   47.5620 N   0  0  0  0  0  0  0  0  0  0  0  0
   38.7930   33.6770   48.7760 H   0  0  0  0  0  0  0  0  0  0  0  0
   40.1890   33.6050   46.8250 H   0  0  0  0  0  0  0  0  0  0  0  0
   38.6590   29.8240   45.7830 H   0  0  0  0  0  0  0  0  0  0  0  0
  1  2  1  0  0  0  0
  3  1  1  0  0  0  0
  4 10  1  1  0  0  0
  4  5  1  0  0  0  0
  5  1  1  1  0  0  0
  5  6  1  0  0  0  0
  7  6  1  0  0  0  0
  8 12  1  6  0  0  0
  8  7  1  0  0  0  0
  9 14  1  6  0  0  0
  9  4  1  0  0  0  0
  9  8  1  0  0  0  0
 11 10  1  0  0  0  0
 13 12  1  0  0  0  0
 15 14  1  0  0  0  0
 16  1  1  0  0  0  0
 17 16  1  0  0  0  0
 18 17  1  0  0  0  0
 18 23  1  0  0  0  0
 19 18  2  0  0  0  0
 20 21  2  0  0  0  0
 20 19  1  0  0  0  0
 21 22  1  0  0  0  0
 22 17  2  0  0  0  0
 24 19  1  0  0  0  0
 25 21  1  0  0  0  0
M  END
>  <minimizedAffinity>
-3.47542405

>  <minimizedRMSD>
2.21045351

$$$$
