
 OpenBabel03272505333D

 43 46  0  0  1  0  0  0  0  0999 V2000
   38.0900   23.6400   34.2710 N   0  0  0  0  0  0  0  0  0  0  0  0
   37.9490   24.9220   33.8400 C   0  0  0  0  0  0  0  0  0  0  0  0
   37.3090   25.2390   32.6570 C   0  0  0  0  0  0  0  0  0  0  0  0
   36.7930   24.1750   31.8890 C   0  0  0  0  0  0  0  0  0  0  0  0
   36.2030   24.4060   30.8080 O   0  0  0  0  0  0  0  0  0  0  0  0
   36.9400   22.8810   32.3350 N   0  0  0  0  0  0  0  0  0  0  0  0
   37.5730   22.7080   33.4830 C   0  0  0  0  0  0  0  0  0  0  0  0
   37.6870   21.5170   33.8540 O   0  0  0  0  0  0  0  0  0  0  0  0
   38.3480   25.7520   34.4320 H   0  0  0  0  0  0  0  0  0  0  0  0
   38.7600   23.2160   37.9020 C   0  0  0  0  0  0  0  0  0  0  0  0
   38.0940   23.5150   36.6960 C   0  0  0  0  0  0  0  0  0  0  0  0
   38.7420   23.3460   35.4720 C   0  0  0  0  0  0  0  0  0  0  0  0
   40.0140   22.8920   35.4840 N   0  0  0  0  0  0  0  0  0  0  0  0
   40.6690   22.5990   36.6430 C   0  0  0  0  0  0  0  0  0  0  0  0
   40.0340   22.7640   37.8360 N   0  0  0  0  0  0  0  0  0  0  0  0
   38.2340   23.3560   38.8210 H   0  0  0  0  0  0  0  0  0  0  0  0
   37.0860   23.8780   36.6450 H   0  0  0  0  0  0  0  0  0  0  0  0
   41.6690   22.2400   36.6780 H   0  0  0  0  0  0  0  0  0  0  0  0
   37.1310   26.5870   32.1500 C   0  0  0  0  0  0  0  0  0  0  0  0
   38.0360   27.2070   31.3340 C   0  0  0  0  0  0  0  0  0  0  0  0
   37.9120   28.4780   30.8290 C   0  0  0  0  0  0  0  0  0  0  0  0
   36.7640   29.2130   31.1740 C   0  0  0  0  0  0  0  0  0  0  0  0
   35.8650   28.5490   32.0060 C   0  0  0  0  0  0  0  0  0  0  0  0
   36.0540   27.3060   32.4590 N   0  0  0  0  0  0  0  0  0  0  0  0
   38.9400   26.6740   31.0420 H   0  0  0  0  0  0  0  0  0  0  0  0
   38.6280   28.9650   30.1850 H   0  0  0  0  0  0  0  0  0  0  0  0
   36.5440   30.2150   30.8480 H   0  0  0  0  0  0  0  0  0  0  0  0
   34.6680   29.4560   33.9560 C   0  0  2  0  0  3  0  0  0  0  0  0
   34.5920   29.1900   32.4660 C   0  0  1  0  0  3  0  0  0  0  0  0
   34.3610   30.3460   31.7260 O   0  0  0  0  0  0  0  0  0  0  0  0
   33.1380   30.8900   32.0210 C   0  0  0  0  0  2  0  0  0  0  0  0
   32.8480   30.9980   33.5080 C   0  0  2  0  0  3  0  0  0  0  0  0
   34.1730   30.8670   34.2230 C   0  0  1  0  0  3  0  0  0  0  0  0
   35.9660   29.2790   34.4490 O   0  0  0  0  0  0  0  0  0  0  0  0
   35.9840   28.3770   34.9050 H   0  0  0  0  0  0  0  0  0  0  0  0
   32.1010   29.8520   33.8520 O   0  0  0  0  0  0  0  0  0  0  0  0
   31.2930   29.8000   33.2560 H   0  0  0  0  0  0  0  0  0  0  0  0
   34.0520   31.0200   35.6030 O   0  0  0  0  0  0  0  0  0  0  0  0
   34.5900   31.8110   35.8800 H   0  0  0  0  0  0  0  0  0  0  0  0
   36.4100   21.7960   31.5450 C   0  0  0  0  0  0  0  0  0  0  0  0
   35.3160   22.1850   30.8520 F   0  0  0  0  0  0  0  0  0  0  0  0
   36.0190   20.6950   32.3090 F   0  0  0  0  0  0  0  0  0  0  0  0
   37.3840   21.3970   30.6240 F   0  0  0  0  0  0  0  0  0  0  0  0
  1 12  1  0  0  0  0
  2  1  1  0  0  0  0
  2  9  1  0  0  0  0
  3  2  2  0  0  0  0
  4  6  1  0  0  0  0
  4  3  1  0  0  0  0
  5  4  2  0  0  0  0
  6  7  1  0  0  0  0
  7  8  2  0  0  0  0
  7  1  1  0  0  0  0
 10 16  1  0  0  0  0
 11 10  2  0  0  0  0
 12 13  2  0  0  0  0
 12 11  1  0  0  0  0
 13 14  1  0  0  0  0
 14 18  1  0  0  0  0
 14 15  2  0  0  0  0
 15 10  1  0  0  0  0
 17 11  1  0  0  0  0
 19 24  1  0  0  0  0
 19  3  1  0  0  0  0
 20 19  2  0  0  0  0
 21 22  2  0  0  0  0
 21 20  1  0  0  0  0
 22 23  1  0  0  0  0
 23 24  2  0  0  0  0
 25 20  1  0  0  0  0
 26 21  1  0  0  0  0
 27 22  1  0  0  0  0
 28 33  1  0  0  0  0
 28 34  1  6  0  0  0
 29 23  1  6  0  0  0
 29 28  1  0  0  0  0
 30 31  1  0  0  0  0
 30 29  1  0  0  0  0
 31 32  1  0  0  0  0
 32 36  1  1  0  0  0
 32 33  1  0  0  0  0
 33 38  1  1  0  0  0
 34 35  1  0  0  0  0
 37 36  1  0  0  0  0
 38 39  1  0  0  0  0
 40 42  1  0  0  0  0
 40  6  1  0  0  0  0
 41 40  1  0  0  0  0
 43 40  1  0  0  0  0
M  END
>  <minimizedAffinity>
-6.94445658

$$$$

 OpenBabel03272505333D

 43 46  0  0  1  0  0  0  0  0999 V2000
   37.0780   23.5010   32.6430 N   0  0  0  0  0  0  0  0  0  0  0  0
   36.7360   24.6940   32.0870 C   0  0  0  0  0  0  0  0  0  0  0  0
   37.1120   25.9030   32.6380 C   0  0  0  0  0  0  0  0  0  0  0  0
   37.8800   25.8700   33.8210 C   0  0  0  0  0  0  0  0  0  0  0  0
   38.2480   26.9380   34.3630 O   0  0  0  0  0  0  0  0  0  0  0  0
   38.2210   24.6570   34.3760 N   0  0  0  0  0  0  0  0  0  0  0  0
   37.7990   23.5700   33.7520 C   0  0  0  0  0  0  0  0  0  0  0  0
   38.1310   22.4870   34.2880 O   0  0  0  0  0  0  0  0  0  0  0  0
   36.1390   24.7260   31.1680 H   0  0  0  0  0  0  0  0  0  0  0  0
   35.0730   20.4840   31.8110 C   0  0  0  0  0  0  0  0  0  0  0  0
   35.4620   21.7040   32.3990 C   0  0  0  0  0  0  0  0  0  0  0  0
   36.6830   22.2910   32.0650 C   0  0  0  0  0  0  0  0  0  0  0  0
   37.4690   21.6550   31.1690 N   0  0  0  0  0  0  0  0  0  0  0  0
   37.1050   20.4740   30.5930 C   0  0  0  0  0  0  0  0  0  0  0  0
   35.9120   19.9050   30.9210 N   0  0  0  0  0  0  0  0  0  0  0  0
   34.1310   20.0630   32.0890 H   0  0  0  0  0  0  0  0  0  0  0  0
   34.8670   22.2400   33.1130 H   0  0  0  0  0  0  0  0  0  0  0  0
   37.7050   19.9560   29.8870 H   0  0  0  0  0  0  0  0  0  0  0  0
   36.7750   27.2030   32.0880 C   0  0  0  0  0  0  0  0  0  0  0  0
   36.9990   27.5460   30.7830 C   0  0  0  0  0  0  0  0  0  0  0  0
   36.6980   28.7600   30.2160 C   0  0  0  0  0  0  0  0  0  0  0  0
   36.1110   29.7400   31.0370 C   0  0  0  0  0  0  0  0  0  0  0  0
   35.8990   29.3550   32.3590 C   0  0  0  0  0  0  0  0  0  0  0  0
   36.2200   28.1510   32.8400 N   0  0  0  0  0  0  0  0  0  0  0  0
   37.4520   26.8160   30.1130 H   0  0  0  0  0  0  0  0  0  0  0  0
   36.8760   29.0270   29.1860 H   0  0  0  0  0  0  0  0  0  0  0  0
   35.8270   30.7290   30.7200 H   0  0  0  0  0  0  0  0  0  0  0  0
   33.7900   30.0340   33.4300 C   0  0  2  0  0  3  0  0  0  0  0  0
   35.2830   30.2810   33.3620 C   0  0  1  0  0  3  0  0  0  0  0  0
   35.9110   30.1150   34.5930 O   0  0  0  0  0  0  0  0  0  0  0  0
   35.4710   31.0390   35.5050 C   0  0  0  0  0  2  0  0  0  0  0  0
   33.9610   31.1890   35.5580 C   0  0  2  0  0  3  0  0  0  0  0  0
   33.3750   29.9660   34.8900 C   0  0  1  0  0  3  0  0  0  0  0  0
   33.4260   28.8650   32.7520 O   0  0  0  0  0  0  0  0  0  0  0  0
   33.0430   29.1510   31.8620 H   0  0  0  0  0  0  0  0  0  0  0  0
   33.6400   32.2820   34.7260 O   0  0  0  0  0  0  0  0  0  0  0  0
   34.1670   33.0850   35.0270 H   0  0  0  0  0  0  0  0  0  0  0  0
   31.9830   29.9500   34.9350 O   0  0  0  0  0  0  0  0  0  0  0  0
   31.6940   29.1470   35.4490 H   0  0  0  0  0  0  0  0  0  0  0  0
   39.0070   24.6290   35.5850 C   0  0  0  0  0  0  0  0  0  0  0  0
   39.0200   23.3920   36.1310 F   0  0  0  0  0  0  0  0  0  0  0  0
   38.5300   25.4900   36.5750 F   0  0  0  0  0  0  0  0  0  0  0  0
   40.3250   24.9730   35.2690 F   0  0  0  0  0  0  0  0  0  0  0  0
  1  7  1  0  0  0  0
  2  3  2  0  0  0  0
  2  1  1  0  0  0  0
  3  4  1  0  0  0  0
  4  5  2  0  0  0  0
  4  6  1  0  0  0  0
  6 40  1  0  0  0  0
  7  8  2  0  0  0  0
  7  6  1  0  0  0  0
  9  2  1  0  0  0  0
 10 16  1  0  0  0  0
 10 11  1  0  0  0  0
 11 17  1  0  0  0  0
 12 11  2  0  0  0  0
 12  1  1  0  0  0  0
 13 12  1  0  0  0  0
 14 15  1  0  0  0  0
 14 13  2  0  0  0  0
 15 10  2  0  0  0  0
 18 14  1  0  0  0  0
 19  3  1  0  0  0  0
 19 24  1  0  0  0  0
 20 19  2  0  0  0  0
 21 20  1  0  0  0  0
 21 22  2  0  0  0  0
 22 23  1  0  0  0  0
 23 24  2  0  0  0  0
 25 20  1  0  0  0  0
 26 21  1  0  0  0  0
 27 22  1  0  0  0  0
 28 34  1  1  0  0  0
 28 33  1  0  0  0  0
 29 23  1  6  0  0  0
 29 28  1  0  0  0  0
 29 30  1  0  0  0  0
 30 31  1  0  0  0  0
 31 32  1  0  0  0  0
 32 36  1  6  0  0  0
 33 38  1  6  0  0  0
 33 32  1  0  0  0  0
 35 34  1  0  0  0  0
 36 37  1  0  0  0  0
 38 39  1  0  0  0  0
 40 41  1  0  0  0  0
 40 42  1  0  0  0  0
 43 40  1  0  0  0  0
M  END
>  <minimizedAffinity>
-6.76643753

$$$$

 OpenBabel03272505333D

 43 46  0  0  1  0  0  0  0  0999 V2000
   37.7180   25.4160   34.6980 N   0  0  0  0  0  0  0  0  0  0  0  0
   37.2530   26.6640   34.9670 C   0  0  0  0  0  0  0  0  0  0  0  0
   36.6740   27.4630   33.9990 C   0  0  0  0  0  0  0  0  0  0  0  0
   36.5750   26.9390   32.6950 C   0  0  0  0  0  0  0  0  0  0  0  0
   36.0580   27.6210   31.7790 O   0  0  0  0  0  0  0  0  0  0  0  0
   37.0490   25.6730   32.4320 N   0  0  0  0  0  0  0  0  0  0  0  0
   37.5820   25.0080   33.4440 C   0  0  0  0  0  0  0  0  0  0  0  0
   38.0010   23.8610   33.1650 O   0  0  0  0  0  0  0  0  0  0  0  0
   37.3280   27.0770   35.9800 H   0  0  0  0  0  0  0  0  0  0  0  0
   38.1920   23.5210   37.8600 C   0  0  0  0  0  0  0  0  0  0  0  0
   37.5980   24.3160   36.8600 C   0  0  0  0  0  0  0  0  0  0  0  0
   38.3000   24.6270   35.6950 C   0  0  0  0  0  0  0  0  0  0  0  0
   39.5540   24.1450   35.5630 N   0  0  0  0  0  0  0  0  0  0  0  0
   40.1420   23.3740   36.5220 C   0  0  0  0  0  0  0  0  0  0  0  0
   39.4530   23.0720   37.6570 N   0  0  0  0  0  0  0  0  0  0  0  0
   37.6260   23.3010   38.7390 H   0  0  0  0  0  0  0  0  0  0  0  0
   36.6050   24.7180   36.9280 H   0  0  0  0  0  0  0  0  0  0  0  0
   41.1260   22.9840   36.4400 H   0  0  0  0  0  0  0  0  0  0  0  0
   36.1620   28.8010   34.2310 C   0  0  0  0  0  0  0  0  0  0  0  0
   36.4790   29.5450   35.3340 C   0  0  0  0  0  0  0  0  0  0  0  0
   36.0220   30.8130   35.5970 C   0  0  0  0  0  0  0  0  0  0  0  0
   35.1530   31.4040   34.6630 C   0  0  0  0  0  0  0  0  0  0  0  0
   34.8520   30.6170   33.5540 C   0  0  0  0  0  0  0  0  0  0  0  0
   35.3380   29.3870   33.3650 N   0  0  0  0  0  0  0  0  0  0  0  0
   37.1500   29.1250   36.0830 H   0  0  0  0  0  0  0  0  0  0  0  0
   36.2740   31.3970   36.4680 H   0  0  0  0  0  0  0  0  0  0  0  0
   34.7230   32.3880   34.7470 H   0  0  0  0  0  0  0  0  0  0  0  0
   32.6610   30.2890   32.4810 C   0  0  2  0  0  3  0  0  0  0  0  0
   33.9420   31.0980   32.4660 C   0  0  1  0  0  3  0  0  0  0  0  0
   33.7160   32.4630   32.6200 O   0  0  0  0  0  0  0  0  0  0  0  0
   33.0000   32.9710   31.5680 C   0  0  0  0  0  2  0  0  0  0  0  0
   31.7810   32.1470   31.1900 C   0  0  2  0  0  3  0  0  0  0  0  0
   31.4840   31.2420   32.3630 C   0  0  1  0  0  3  0  0  0  0  0  0
   32.5570   29.5040   33.6350 O   0  0  0  0  0  0  0  0  0  0  0  0
   32.8050   28.5620   33.3700 H   0  0  0  0  0  0  0  0  0  0  0  0
   32.1840   31.3010   30.1340 O   0  0  0  0  0  0  0  0  0  0  0  0
   32.5720   31.8650   29.3970 H   0  0  0  0  0  0  0  0  0  0  0  0
   30.3360   30.4760   32.1680 O   0  0  0  0  0  0  0  0  0  0  0  0
   29.6750   30.7150   32.8730 H   0  0  0  0  0  0  0  0  0  0  0  0
   36.9440   25.1420   31.0950 C   0  0  0  0  0  0  0  0  0  0  0  0
   35.7660   25.4820   30.5240 F   0  0  0  0  0  0  0  0  0  0  0  0
   37.0160   23.7490   31.0460 F   0  0  0  0  0  0  0  0  0  0  0  0
   37.9720   25.6850   30.3180 F   0  0  0  0  0  0  0  0  0  0  0  0
  1  2  1  0  0  0  0
  1 12  1  0  0  0  0
  2  9  1  0  0  0  0
  3 19  1  0  0  0  0
  3  2  2  0  0  0  0
  4  3  1  0  0  0  0
  5  4  2  0  0  0  0
  6  4  1  0  0  0  0
  6  7  1  0  0  0  0
  7  1  1  0  0  0  0
  8  7  2  0  0  0  0
 10 16  1  0  0  0  0
 11 17  1  0  0  0  0
 11 10  2  0  0  0  0
 12 11  1  0  0  0  0
 13 12  2  0  0  0  0
 13 14  1  0  0  0  0
 14 15  2  0  0  0  0
 15 10  1  0  0  0  0
 18 14  1  0  0  0  0
 19 20  1  0  0  0  0
 20 21  2  0  0  0  0
 20 25  1  0  0  0  0
 21 26  1  0  0  0  0
 22 27  1  0  0  0  0
 22 21  1  0  0  0  0
 23 22  2  0  0  0  0
 24 23  1  0  0  0  0
 24 19  2  0  0  0  0
 28 34  1  1  0  0  0
 29 28  1  0  0  0  0
 29 30  1  0  0  0  0
 29 23  1  1  0  0  0
 31 30  1  0  0  0  0
 32 36  1  6  0  0  0
 32 31  1  0  0  0  0
 32 33  1  0  0  0  0
 33 38  1  6  0  0  0
 33 28  1  0  0  0  0
 35 34  1  0  0  0  0
 37 36  1  0  0  0  0
 38 39  1  0  0  0  0
 40  6  1  0  0  0  0
 41 40  1  0  0  0  0
 42 40  1  0  0  0  0
 43 40  1  0  0  0  0
M  END
>  <minimizedAffinity>
-6.70619297

$$$$

 OpenBabel03272505333D

 43 46  0  0  1  0  0  0  0  0999 V2000
   36.0040   29.1510   33.7330 N   0  0  0  0  0  0  0  0  0  0  0  0
   36.6540   28.0270   34.1350 C   0  0  0  0  0  0  0  0  0  0  0  0
   37.4570   27.2920   33.2840 C   0  0  0  0  0  0  0  0  0  0  0  0
   37.5910   27.7490   31.9580 C   0  0  0  0  0  0  0  0  0  0  0  0
   38.3090   27.1200   31.1440 O   0  0  0  0  0  0  0  0  0  0  0  0
   36.9300   28.8890   31.5600 N   0  0  0  0  0  0  0  0  0  0  0  0
   36.1900   29.5030   32.4690 C   0  0  0  0  0  0  0  0  0  0  0  0
   35.6050   30.5360   32.0690 O   0  0  0  0  0  0  0  0  0  0  0  0
   36.5530   27.6670   35.1650 H   0  0  0  0  0  0  0  0  0  0  0  0
   34.9170   31.6070   36.3020 C   0  0  0  0  0  0  0  0  0  0  0  0
   35.7390   30.8810   35.4180 C   0  0  0  0  0  0  0  0  0  0  0  0
   35.1970   29.8770   34.6140 C   0  0  0  0  0  0  0  0  0  0  0  0
   33.8730   29.6300   34.7140 N   0  0  0  0  0  0  0  0  0  0  0  0
   33.0660   30.3250   35.5660 C   0  0  0  0  0  0  0  0  0  0  0  0
   33.5990   31.3040   36.3480 N   0  0  0  0  0  0  0  0  0  0  0  0
   35.3650   32.3700   36.9030 H   0  0  0  0  0  0  0  0  0  0  0  0
   36.7930   31.0480   35.3090 H   0  0  0  0  0  0  0  0  0  0  0  0
   32.0230   30.1480   35.6620 H   0  0  0  0  0  0  0  0  0  0  0  0
   38.1720   26.0860   33.6600 C   0  0  0  0  0  0  0  0  0  0  0  0
   39.2790   26.0890   34.4640 C   0  0  0  0  0  0  0  0  0  0  0  0
   39.9870   24.9780   34.8460 C   0  0  0  0  0  0  0  0  0  0  0  0
   39.5490   23.7260   34.3780 C   0  0  0  0  0  0  0  0  0  0  0  0
   38.4210   23.7620   33.5620 C   0  0  0  0  0  0  0  0  0  0  0  0
   37.7810   24.8880   33.2320 N   0  0  0  0  0  0  0  0  0  0  0  0
   39.6520   27.0380   34.8490 H   0  0  0  0  0  0  0  0  0  0  0  0
   40.8600   24.9830   35.4810 H   0  0  0  0  0  0  0  0  0  0  0  0
   40.0120   22.7800   34.6020 H   0  0  0  0  0  0  0  0  0  0  0  0
   37.2760   21.6490   34.0950 C   0  0  2  0  0  3  0  0  0  0  0  0
   37.8260   22.5160   32.9800 C   0  0  1  0  0  3  0  0  0  0  0  0
   36.8590   22.8590   32.0400 O   0  0  0  0  0  0  0  0  0  0  0  0
   36.3860   21.7530   31.3850 C   0  0  0  0  0  2  0  0  0  0  0  0
   36.0240   20.5960   32.3010 C   0  0  2  0  0  3  0  0  0  0  0  0
   35.8920   21.1660   33.6950 C   0  0  1  0  0  3  0  0  0  0  0  0
   37.2340   22.3350   35.3130 O   0  0  0  0  0  0  0  0  0  0  0  0
   38.0260   22.0190   35.8540 H   0  0  0  0  0  0  0  0  0  0  0  0
   37.1490   19.7450   32.3300 O   0  0  0  0  0  0  0  0  0  0  0  0
   37.3890   19.4920   31.3860 H   0  0  0  0  0  0  0  0  0  0  0  0
   35.4920   20.2090   34.6260 O   0  0  0  0  0  0  0  0  0  0  0  0
   34.6160   20.4890   35.0080 H   0  0  0  0  0  0  0  0  0  0  0  0
   37.0710   29.3520   30.2020 C   0  0  0  0  0  0  0  0  0  0  0  0
   38.3520   29.6910   29.9310 F   0  0  0  0  0  0  0  0  0  0  0  0
   36.2980   30.4790   29.9170 F   0  0  0  0  0  0  0  0  0  0  0  0
   36.7090   28.3130   29.3370 F   0  0  0  0  0  0  0  0  0  0  0  0
  1  2  1  0  0  0  0
  1 12  1  0  0  0  0
  2  9  1  0  0  0  0
  3 19  1  0  0  0  0
  3  2  2  0  0  0  0
  4  3  1  0  0  0  0
  5  4  2  0  0  0  0
  6  4  1  0  0  0  0
  6  7  1  0  0  0  0
  7  1  1  0  0  0  0
  8  7  2  0  0  0  0
 10 15  1  0  0  0  0
 10 16  1  0  0  0  0
 11 10  2  0  0  0  0
 12 13  2  0  0  0  0
 12 11  1  0  0  0  0
 13 14  1  0  0  0  0
 14 18  1  0  0  0  0
 14 15  2  0  0  0  0
 17 11  1  0  0  0  0
 19 20  1  0  0  0  0
 20 21  2  0  0  0  0
 20 25  1  0  0  0  0
 21 26  1  0  0  0  0
 22 27  1  0  0  0  0
 22 21  1  0  0  0  0
 23 22  2  0  0  0  0
 24 23  1  0  0  0  0
 24 19  2  0  0  0  0
 28 34  1  1  0  0  0
 29 23  1  1  0  0  0
 29 28  1  0  0  0  0
 30 29  1  0  0  0  0
 31 30  1  0  0  0  0
 31 32  1  0  0  0  0
 32 36  1  1  0  0  0
 32 33  1  0  0  0  0
 33 28  1  0  0  0  0
 33 38  1  1  0  0  0
 34 35  1  0  0  0  0
 37 36  1  0  0  0  0
 38 39  1  0  0  0  0
 40  6  1  0  0  0  0
 41 40  1  0  0  0  0
 42 40  1  0  0  0  0
 43 40  1  0  0  0  0
M  END
>  <minimizedAffinity>
-6.70080042

$$$$

 OpenBabel03272505333D

 43 46  0  0  1  0  0  0  0  0999 V2000
   37.2500   24.8320   32.7870 N   0  0  0  0  0  0  0  0  0  0  0  0
   36.5970   25.9660   32.4180 C   0  0  0  0  0  0  0  0  0  0  0  0
   36.6680   27.1340   33.1520 C   0  0  0  0  0  0  0  0  0  0  0  0
   37.4540   27.1210   34.3230 C   0  0  0  0  0  0  0  0  0  0  0  0
   37.5530   28.1540   35.0260 O   0  0  0  0  0  0  0  0  0  0  0  0
   38.1120   25.9690   34.6880 N   0  0  0  0  0  0  0  0  0  0  0  0
   37.9640   24.9160   33.9010 C   0  0  0  0  0  0  0  0  0  0  0  0
   38.5780   23.8880   34.2670 O   0  0  0  0  0  0  0  0  0  0  0  0
   35.9840   25.9810   31.5090 H   0  0  0  0  0  0  0  0  0  0  0  0
   38.1290   22.0700   30.4620 C   0  0  0  0  0  0  0  0  0  0  0  0
   38.2280   23.2490   31.2260 C   0  0  0  0  0  0  0  0  0  0  0  0
   37.1620   23.6630   32.0270 C   0  0  0  0  0  0  0  0  0  0  0  0
   36.0470   22.9000   32.0420 N   0  0  0  0  0  0  0  0  0  0  0  0
   35.9390   21.7560   31.3080 C   0  0  0  0  0  0  0  0  0  0  0  0
   36.9810   21.3560   30.5290 N   0  0  0  0  0  0  0  0  0  0  0  0
   38.9650   21.7820   29.8610 H   0  0  0  0  0  0  0  0  0  0  0  0
   39.0950   23.8810   31.2400 H   0  0  0  0  0  0  0  0  0  0  0  0
   35.0730   21.1410   31.3050 H   0  0  0  0  0  0  0  0  0  0  0  0
   35.9920   28.3700   32.8050 C   0  0  0  0  0  0  0  0  0  0  0  0
   36.1130   28.9730   31.5830 C   0  0  0  0  0  0  0  0  0  0  0  0
   35.4940   30.1400   31.2080 C   0  0  0  0  0  0  0  0  0  0  0  0
   34.6670   30.7780   32.1500 C   0  0  0  0  0  0  0  0  0  0  0  0
   34.5690   30.1350   33.3820 C   0  0  0  0  0  0  0  0  0  0  0  0
   35.2030   28.9970   33.6760 N   0  0  0  0  0  0  0  0  0  0  0  0
   36.7430   28.5130   30.8240 H   0  0  0  0  0  0  0  0  0  0  0  0
   35.5910   30.6130   30.2430 H   0  0  0  0  0  0  0  0  0  0  0  0
   34.1260   31.6940   31.9850 H   0  0  0  0  0  0  0  0  0  0  0  0
   34.5920   30.9030   35.7200 C   0  0  2  0  0  3  0  0  0  0  0  0
   33.7290   30.6830   34.4940 C   0  0  1  0  0  3  0  0  0  0  0  0
   33.0960   31.8460   34.0680 O   0  0  0  0  0  0  0  0  0  0  0  0
   32.2110   32.3050   35.0080 C   0  0  0  0  0  2  0  0  0  0  0  0
   32.7700   32.3470   36.4200 C   0  0  2  0  0  3  0  0  0  0  0  0
   34.2750   32.2720   36.2970 C   0  0  1  0  0  3  0  0  0  0  0  0
   35.9550   30.7890   35.4220 O   0  0  0  0  0  0  0  0  0  0  0  0
   36.2470   29.8760   35.7410 H   0  0  0  0  0  0  0  0  0  0  0  0
   32.3680   31.1470   37.0430 O   0  0  0  0  0  0  0  0  0  0  0  0
   31.3680   31.0650   36.9750 H   0  0  0  0  0  0  0  0  0  0  0  0
   34.9160   32.3720   37.5300 O   0  0  0  0  0  0  0  0  0  0  0  0
   35.4920   33.1850   37.5200 H   0  0  0  0  0  0  0  0  0  0  0  0
   38.9150   25.9620   35.8860 C   0  0  0  0  0  0  0  0  0  0  0  0
   39.3190   24.7100   36.1970 F   0  0  0  0  0  0  0  0  0  0  0  0
   38.2410   26.4470   37.0080 F   0  0  0  0  0  0  0  0  0  0  0  0
   40.0570   26.7390   35.6620 F   0  0  0  0  0  0  0  0  0  0  0  0
  1  7  1  0  0  0  0
  2  1  1  0  0  0  0
  2  3  2  0  0  0  0
  3  4  1  0  0  0  0
  4  6  1  0  0  0  0
  4  5  2  0  0  0  0
  6 40  1  0  0  0  0
  7  8  2  0  0  0  0
  7  6  1  0  0  0  0
  9  2  1  0  0  0  0
 10 15  2  0  0  0  0
 10 11  1  0  0  0  0
 11 17  1  0  0  0  0
 11 12  2  0  0  0  0
 12 13  1  0  0  0  0
 12  1  1  0  0  0  0
 14 13  2  0  0  0  0
 15 14  1  0  0  0  0
 16 10  1  0  0  0  0
 18 14  1  0  0  0  0
 19  3  1  0  0  0  0
 19 24  1  0  0  0  0
 20 19  2  0  0  0  0
 21 20  1  0  0  0  0
 21 22  2  0  0  0  0
 22 23  1  0  0  0  0
 23 24  2  0  0  0  0
 25 20  1  0  0  0  0
 26 21  1  0  0  0  0
 27 22  1  0  0  0  0
 28 34  1  6  0  0  0
 28 33  1  0  0  0  0
 29 23  1  6  0  0  0
 29 28  1  0  0  0  0
 30 29  1  0  0  0  0
 30 31  1  0  0  0  0
 31 32  1  0  0  0  0
 32 36  1  1  0  0  0
 33 32  1  0  0  0  0
 33 38  1  1  0  0  0
 34 35  1  0  0  0  0
 37 36  1  0  0  0  0
 39 38  1  0  0  0  0
 40 41  1  0  0  0  0
 40 42  1  0  0  0  0
 43 40  1  0  0  0  0
M  END
>  <minimizedAffinity>
-6.69007063

$$$$

 OpenBabel03272505333D

 43 46  0  0  1  0  0  0  0  0999 V2000
   37.1440   23.0630   32.7860 N   0  0  0  0  0  0  0  0  0  0  0  0
   36.8910   24.2710   32.2160 C   0  0  0  0  0  0  0  0  0  0  0  0
   37.3030   25.4600   32.7870 C   0  0  0  0  0  0  0  0  0  0  0  0
   38.0090   25.3890   34.0040 C   0  0  0  0  0  0  0  0  0  0  0  0
   38.4060   26.4370   34.5650 O   0  0  0  0  0  0  0  0  0  0  0  0
   38.2610   24.1610   34.5740 N   0  0  0  0  0  0  0  0  0  0  0  0
   37.8130   23.0960   33.9300 C   0  0  0  0  0  0  0  0  0  0  0  0
   38.0620   21.9980   34.4800 O   0  0  0  0  0  0  0  0  0  0  0  0
   36.3430   24.3320   31.2690 H   0  0  0  0  0  0  0  0  0  0  0  0
   35.0480   20.1280   31.8910 C   0  0  0  0  0  0  0  0  0  0  0  0
   35.4700   21.3270   32.4980 C   0  0  0  0  0  0  0  0  0  0  0  0
   36.7160   21.8750   32.1890 C   0  0  0  0  0  0  0  0  0  0  0  0
   37.4920   21.2210   31.2970 N   0  0  0  0  0  0  0  0  0  0  0  0
   37.0950   20.0600   30.7020 C   0  0  0  0  0  0  0  0  0  0  0  0
   35.8790   19.5300   31.0060 N   0  0  0  0  0  0  0  0  0  0  0  0
   34.0870   19.7370   32.1500 H   0  0  0  0  0  0  0  0  0  0  0  0
   34.8830   21.8750   33.2100 H   0  0  0  0  0  0  0  0  0  0  0  0
   37.6880   19.5290   29.9980 H   0  0  0  0  0  0  0  0  0  0  0  0
   37.0610   26.7750   32.2220 C   0  0  0  0  0  0  0  0  0  0  0  0
   37.9140   27.3830   31.3420 C   0  0  0  0  0  0  0  0  0  0  0  0
   37.7290   28.6220   30.7820 C   0  0  0  0  0  0  0  0  0  0  0  0
   36.5690   29.3360   31.1340 C   0  0  0  0  0  0  0  0  0  0  0  0
   35.7250   28.6860   32.0320 C   0  0  0  0  0  0  0  0  0  0  0  0
   35.9730   27.4750   32.5370 N   0  0  0  0  0  0  0  0  0  0  0  0
   38.8240   26.8640   31.0420 H   0  0  0  0  0  0  0  0  0  0  0  0
   38.4030   29.0980   30.0880 H   0  0  0  0  0  0  0  0  0  0  0  0
   36.3040   30.3130   30.7690 H   0  0  0  0  0  0  0  0  0  0  0  0
   34.5690   29.6460   33.9820 C   0  0  2  0  0  3  0  0  0  0  0  0
   34.4490   29.3090   32.5090 C   0  0  1  0  0  3  0  0  0  0  0  0
   34.1540   30.4210   31.7270 O   0  0  0  0  0  0  0  0  0  0  0  0
   32.9260   30.9400   32.0410 C   0  0  0  0  0  2  0  0  0  0  0  0
   32.6850   31.1090   33.5310 C   0  0  2  0  0  3  0  0  0  0  0  0
   34.0390   31.0520   34.2020 C   0  0  1  0  0  3  0  0  0  0  0  0
   35.8890   29.5320   34.4330 O   0  0  0  0  0  0  0  0  0  0  0  0
   35.9530   28.6540   34.9290 H   0  0  0  0  0  0  0  0  0  0  0  0
   31.9890   29.9580   33.9550 O   0  0  0  0  0  0  0  0  0  0  0  0
   31.1620   29.8530   33.3920 H   0  0  0  0  0  0  0  0  0  0  0  0
   33.9620   31.2660   35.5770 O   0  0  0  0  0  0  0  0  0  0  0  0
   34.4830   32.0850   35.7980 H   0  0  0  0  0  0  0  0  0  0  0  0
   38.9840   24.0940   35.8200 C   0  0  0  0  0  0  0  0  0  0  0  0
   38.8970   22.8620   36.3710 F   0  0  0  0  0  0  0  0  0  0  0  0
   38.5130   24.9880   36.7830 F   0  0  0  0  0  0  0  0  0  0  0  0
   40.3340   24.3570   35.5670 F   0  0  0  0  0  0  0  0  0  0  0  0
  1  7  1  0  0  0  0
  2  1  1  0  0  0  0
  2  3  2  0  0  0  0
  3  4  1  0  0  0  0
  4  5  2  0  0  0  0
  4  6  1  0  0  0  0
  6 40  1  0  0  0  0
  7  8  2  0  0  0  0
  7  6  1  0  0  0  0
  9  2  1  0  0  0  0
 10 16  1  0  0  0  0
 10 11  1  0  0  0  0
 11 17  1  0  0  0  0
 12 11  2  0  0  0  0
 12  1  1  0  0  0  0
 13 12  1  0  0  0  0
 14 15  1  0  0  0  0
 14 13  2  0  0  0  0
 15 10  2  0  0  0  0
 18 14  1  0  0  0  0
 19 24  1  0  0  0  0
 19  3  1  0  0  0  0
 20 19  2  0  0  0  0
 21 22  2  0  0  0  0
 21 20  1  0  0  0  0
 22 23  1  0  0  0  0
 23 24  2  0  0  0  0
 25 20  1  0  0  0  0
 26 21  1  0  0  0  0
 27 22  1  0  0  0  0
 28 33  1  0  0  0  0
 28 34  1  6  0  0  0
 29 23  1  6  0  0  0
 29 28  1  0  0  0  0
 30 31  1  0  0  0  0
 30 29  1  0  0  0  0
 31 32  1  0  0  0  0
 32 36  1  1  0  0  0
 32 33  1  0  0  0  0
 33 38  1  1  0  0  0
 34 35  1  0  0  0  0
 37 36  1  0  0  0  0
 38 39  1  0  0  0  0
 40 41  1  0  0  0  0
 40 42  1  0  0  0  0
 43 40  1  0  0  0  0
M  END
>  <minimizedAffinity>
-6.6233263

$$$$

 OpenBabel03272505333D

 43 46  0  0  1  0  0  0  0  0999 V2000
   38.5610   25.8780   33.1060 N   0  0  0  0  0  0  0  0  0  0  0  0
   38.0760   27.1480   33.1250 C   0  0  0  0  0  0  0  0  0  0  0  0
   36.8790   27.4930   32.5260 C   0  0  0  0  0  0  0  0  0  0  0  0
   36.1560   26.4710   31.8780 C   0  0  0  0  0  0  0  0  0  0  0  0
   35.0650   26.7290   31.3180 O   0  0  0  0  0  0  0  0  0  0  0  0
   36.6550   25.1880   31.8640 N   0  0  0  0  0  0  0  0  0  0  0  0
   37.8120   24.9860   32.4730 C   0  0  0  0  0  0  0  0  0  0  0  0
   38.2320   23.8060   32.4390 O   0  0  0  0  0  0  0  0  0  0  0  0
   38.6340   27.9460   33.6270 H   0  0  0  0  0  0  0  0  0  0  0  0
   42.2000   25.7030   33.8360 C   0  0  0  0  0  0  0  0  0  0  0  0
   40.9820   26.0340   33.2110 C   0  0  0  0  0  0  0  0  0  0  0  0
   39.7740   25.5550   33.7200 C   0  0  0  0  0  0  0  0  0  0  0  0
   39.8150   24.7730   34.8200 N   0  0  0  0  0  0  0  0  0  0  0  0
   40.9870   24.4450   35.4350 C   0  0  0  0  0  0  0  0  0  0  0  0
   42.1630   24.9150   34.9360 N   0  0  0  0  0  0  0  0  0  0  0  0
   43.1070   26.0880   33.4210 H   0  0  0  0  0  0  0  0  0  0  0  0
   40.9080   26.6520   32.3370 H   0  0  0  0  0  0  0  0  0  0  0  0
   41.0440   23.8320   36.3000 H   0  0  0  0  0  0  0  0  0  0  0  0
   36.3160   28.8300   32.5160 C   0  0  0  0  0  0  0  0  0  0  0  0
   36.5980   29.7560   31.5500 C   0  0  0  0  0  0  0  0  0  0  0  0
   36.0910   31.0310   31.4980 C   0  0  0  0  0  0  0  0  0  0  0  0
   35.2070   31.4290   32.5170 C   0  0  0  0  0  0  0  0  0  0  0  0
   34.9440   30.4600   33.4820 C   0  0  0  0  0  0  0  0  0  0  0  0
   35.4770   29.2350   33.4670 N   0  0  0  0  0  0  0  0  0  0  0  0
   37.2780   29.4900   30.7420 H   0  0  0  0  0  0  0  0  0  0  0  0
   36.3160   31.7590   30.7340 H   0  0  0  0  0  0  0  0  0  0  0  0
   34.7400   32.3960   32.5940 H   0  0  0  0  0  0  0  0  0  0  0  0
   34.8390   31.0320   35.8740 C   0  0  2  0  0  3  0  0  0  0  0  0
   34.0240   30.7220   34.6350 C   0  0  1  0  0  3  0  0  0  0  0  0
   33.1430   31.7470   34.3020 O   0  0  0  0  0  0  0  0  0  0  0  0
   32.1960   31.9270   35.2760 C   0  0  0  0  0  2  0  0  0  0  0  0
   32.7580   31.9820   36.6860 C   0  0  2  0  0  3  0  0  0  0  0  0
   34.2400   32.2500   36.5560 C   0  0  1  0  0  3  0  0  0  0  0  0
   36.1880   31.2440   35.5670 O   0  0  0  0  0  0  0  0  0  0  0  0
   36.6790   30.3960   35.8120 H   0  0  0  0  0  0  0  0  0  0  0  0
   32.6390   30.6780   37.2130 O   0  0  0  0  0  0  0  0  0  0  0  0
   31.6800   30.3840   37.1390 H   0  0  0  0  0  0  0  0  0  0  0  0
   34.8650   32.3930   37.7930 O   0  0  0  0  0  0  0  0  0  0  0  0
   35.2490   33.3110   37.8470 H   0  0  0  0  0  0  0  0  0  0  0  0
   35.9110   24.1460   31.2000 C   0  0  0  0  0  0  0  0  0  0  0  0
   35.2700   23.3580   32.0930 F   0  0  0  0  0  0  0  0  0  0  0  0
   36.7100   23.2990   30.4310 F   0  0  0  0  0  0  0  0  0  0  0  0
   34.9460   24.7410   30.3810 F   0  0  0  0  0  0  0  0  0  0  0  0
  1  2  1  0  0  0  0
  1 12  1  0  0  0  0
  2  9  1  0  0  0  0
  3  2  2  0  0  0  0
  4  3  1  0  0  0  0
  5  4  2  0  0  0  0
  6  4  1  0  0  0  0
  6  7  1  0  0  0  0
  7  1  1  0  0  0  0
  8  7  2  0  0  0  0
 10 15  1  0  0  0  0
 11 12  1  0  0  0  0
 11 10  2  0  0  0  0
 12 13  2  0  0  0  0
 13 14  1  0  0  0  0
 14 18  1  0  0  0  0
 15 14  2  0  0  0  0
 16 10  1  0  0  0  0
 17 11  1  0  0  0  0
 19  3  1  0  0  0  0
 19 24  1  0  0  0  0
 20 19  2  0  0  0  0
 21 20  1  0  0  0  0
 21 22  2  0  0  0  0
 22 27  1  0  0  0  0
 22 23  1  0  0  0  0
 24 23  2  0  0  0  0
 25 20  1  0  0  0  0
 26 21  1  0  0  0  0
 28 34  1  6  0  0  0
 28 33  1  0  0  0  0
 29 23  1  6  0  0  0
 29 28  1  0  0  0  0
 30 29  1  0  0  0  0
 30 31  1  0  0  0  0
 31 32  1  0  0  0  0
 32 36  1  6  0  0  0
 33 32  1  0  0  0  0
 33 38  1  1  0  0  0
 34 35  1  0  0  0  0
 37 36  1  0  0  0  0
 38 39  1  0  0  0  0
 40  6  1  0  0  0  0
 40 41  1  0  0  0  0
 42 40  1  0  0  0  0
 43 40  1  0  0  0  0
M  END
>  <minimizedAffinity>
-6.5006814

$$$$

 OpenBabel03272505333D

 43 46  0  0  1  0  0  0  0  0999 V2000
   36.0910   28.6930   33.0200 N   0  0  0  0  0  0  0  0  0  0  0  0
   36.3150   27.3740   33.2620 C   0  0  0  0  0  0  0  0  0  0  0  0
   37.0660   26.5820   32.4140 C   0  0  0  0  0  0  0  0  0  0  0  0
   37.6080   27.1910   31.2640 C   0  0  0  0  0  0  0  0  0  0  0  0
   38.2980   26.5190   30.4620 O   0  0  0  0  0  0  0  0  0  0  0  0
   37.3770   28.5270   31.0280 N   0  0  0  0  0  0  0  0  0  0  0  0
   36.6410   29.1760   31.9150 C   0  0  0  0  0  0  0  0  0  0  0  0
   36.4540   30.3900   31.6650 O   0  0  0  0  0  0  0  0  0  0  0  0
   35.8960   26.8960   34.1550 H   0  0  0  0  0  0  0  0  0  0  0  0
   35.1640   31.0830   35.7110 C   0  0  0  0  0  0  0  0  0  0  0  0
   35.9420   30.3010   34.8340 C   0  0  0  0  0  0  0  0  0  0  0  0
   35.3280   29.4720   33.8940 C   0  0  0  0  0  0  0  0  0  0  0  0
   33.9780   29.4470   33.8560 N   0  0  0  0  0  0  0  0  0  0  0  0
   33.2140   30.1980   34.6990 C   0  0  0  0  0  0  0  0  0  0  0  0
   33.8160   31.0060   35.6130 N   0  0  0  0  0  0  0  0  0  0  0  0
   35.6670   31.7070   36.4180 H   0  0  0  0  0  0  0  0  0  0  0  0
   37.0150   30.2940   34.8330 H   0  0  0  0  0  0  0  0  0  0  0  0
   32.1510   30.1950   34.6870 H   0  0  0  0  0  0  0  0  0  0  0  0
   37.3350   25.1720   32.6240 C   0  0  0  0  0  0  0  0  0  0  0  0
   36.5840   24.1740   32.0670 C   0  0  0  0  0  0  0  0  0  0  0  0
   36.7990   22.8280   32.2350 C   0  0  0  0  0  0  0  0  0  0  0  0
   37.8770   22.4310   33.0450 C   0  0  0  0  0  0  0  0  0  0  0  0
   38.6190   23.4750   33.5950 C   0  0  0  0  0  0  0  0  0  0  0  0
   38.3490   24.7660   33.3860 N   0  0  0  0  0  0  0  0  0  0  0  0
   35.7390   24.4370   31.4320 H   0  0  0  0  0  0  0  0  0  0  0  0
   36.2040   22.0430   31.7940 H   0  0  0  0  0  0  0  0  0  0  0  0
   38.1550   21.4130   33.2590 H   0  0  0  0  0  0  0  0  0  0  0  0
   39.3940   23.4000   35.9300 C   0  0  2  0  0  3  0  0  0  0  0  0
   39.8000   23.2230   34.4810 C   0  0  1  0  0  3  0  0  0  0  0  0
   40.3160   21.9580   34.2190 O   0  0  0  0  0  0  0  0  0  0  0  0
   41.4790   21.7410   34.9110 C   0  0  0  0  0  2  0  0  0  0  0  0
   41.4120   22.1270   36.3780 C   0  0  2  0  0  3  0  0  0  0  0  0
   39.9460   22.2360   36.7340 C   0  0  1  0  0  3  0  0  0  0  0  0
   38.0050   23.4920   36.0710 O   0  0  0  0  0  0  0  0  0  0  0  0
   37.7880   24.4700   36.1960 H   0  0  0  0  0  0  0  0  0  0  0  0
   41.9360   23.4330   36.4710 O   0  0  0  0  0  0  0  0  0  0  0  0
   42.8550   23.4430   36.0620 H   0  0  0  0  0  0  0  0  0  0  0  0
   39.7460   22.5200   38.0840 O   0  0  0  0  0  0  0  0  0  0  0  0
   39.2380   21.7660   38.4920 H   0  0  0  0  0  0  0  0  0  0  0  0
   37.9350   29.1440   29.8500 C   0  0  0  0  0  0  0  0  0  0  0  0
   39.2350   28.8100   29.6910 F   0  0  0  0  0  0  0  0  0  0  0  0
   37.8900   30.5390   29.8810 F   0  0  0  0  0  0  0  0  0  0  0  0
   37.2330   28.6840   28.7300 F   0  0  0  0  0  0  0  0  0  0  0  0
  1  2  1  0  0  0  0
  1 12  1  0  0  0  0
  2  9  1  0  0  0  0
  3 19  1  0  0  0  0
  3  2  2  0  0  0  0
  4  3  1  0  0  0  0
  5  4  2  0  0  0  0
  6  4  1  0  0  0  0
  6  7  1  0  0  0  0
  7  1  1  0  0  0  0
  8  7  2  0  0  0  0
 10 16  1  0  0  0  0
 11 10  2  0  0  0  0
 12 11  1  0  0  0  0
 13 12  2  0  0  0  0
 13 14  1  0  0  0  0
 14 15  2  0  0  0  0
 15 10  1  0  0  0  0
 17 11  1  0  0  0  0
 18 14  1  0  0  0  0
 19 24  1  0  0  0  0
 20 21  1  0  0  0  0
 20 19  2  0  0  0  0
 21 22  2  0  0  0  0
 22 27  1  0  0  0  0
 22 23  1  0  0  0  0
 24 23  2  0  0  0  0
 25 20  1  0  0  0  0
 26 21  1  0  0  0  0
 28 34  1  6  0  0  0
 28 33  1  0  0  0  0
 29 23  1  6  0  0  0
 29 28  1  0  0  0  0
 30 29  1  0  0  0  0
 30 31  1  0  0  0  0
 31 32  1  0  0  0  0
 32 36  1  6  0  0  0
 32 33  1  0  0  0  0
 33 38  1  1  0  0  0
 34 35  1  0  0  0  0
 37 36  1  0  0  0  0
 38 39  1  0  0  0  0
 40 42  1  0  0  0  0
 40  6  1  0  0  0  0
 41 40  1  0  0  0  0
 43 40  1  0  0  0  0
M  END
>  <minimizedAffinity>
-6.47566938

$$$$

 OpenBabel03272505333D

 43 46  0  0  1  0  0  0  0  0999 V2000
   37.5100   26.1210   34.3910 N   0  0  0  0  0  0  0  0  0  0  0  0
   36.9940   27.2610   34.9230 C   0  0  0  0  0  0  0  0  0  0  0  0
   36.2960   28.1830   34.1660 C   0  0  0  0  0  0  0  0  0  0  0  0
   36.1270   27.9050   32.7950 C   0  0  0  0  0  0  0  0  0  0  0  0
   35.5020   28.7080   32.0620 O   0  0  0  0  0  0  0  0  0  0  0  0
   36.6520   26.7480   32.2650 N   0  0  0  0  0  0  0  0  0  0  0  0
   37.3000   25.9470   33.0930 C   0  0  0  0  0  0  0  0  0  0  0  0
   37.7620   24.9050   32.5730 O   0  0  0  0  0  0  0  0  0  0  0  0
   37.1230   27.4810   35.9890 H   0  0  0  0  0  0  0  0  0  0  0  0
   38.3430   23.7220   37.1030 C   0  0  0  0  0  0  0  0  0  0  0  0
   37.6280   24.6450   36.3160 C   0  0  0  0  0  0  0  0  0  0  0  0
   38.2120   25.2050   35.1780 C   0  0  0  0  0  0  0  0  0  0  0  0
   39.4720   24.8340   34.8650 N   0  0  0  0  0  0  0  0  0  0  0  0
   40.1760   23.9420   35.6190 C   0  0  0  0  0  0  0  0  0  0  0  0
   39.6020   23.3980   36.7270 N   0  0  0  0  0  0  0  0  0  0  0  0
   37.8650   23.3130   37.9670 H   0  0  0  0  0  0  0  0  0  0  0  0
   36.6260   24.9640   36.5310 H   0  0  0  0  0  0  0  0  0  0  0  0
   41.1670   23.6350   35.3920 H   0  0  0  0  0  0  0  0  0  0  0  0
   35.7260   29.4130   34.6830 C   0  0  0  0  0  0  0  0  0  0  0  0
   36.4350   30.3110   35.4320 C   0  0  0  0  0  0  0  0  0  0  0  0
   35.9410   31.4870   35.9420 C   0  0  0  0  0  0  0  0  0  0  0  0
   34.5960   31.8040   35.6790 C   0  0  0  0  0  0  0  0  0  0  0  0
   33.9070   30.8660   34.9130 C   0  0  0  0  0  0  0  0  0  0  0  0
   34.4570   29.7390   34.4500 N   0  0  0  0  0  0  0  0  0  0  0  0
   37.4800   30.1060   35.6590 H   0  0  0  0  0  0  0  0  0  0  0  0
   36.5030   32.1940   36.5330 H   0  0  0  0  0  0  0  0  0  0  0  0
   34.0870   32.6900   36.0170 H   0  0  0  0  0  0  0  0  0  0  0  0
   32.3680   31.4990   33.1000 C   0  0  2  0  0  3  0  0  0  0  0  0
   32.4670   31.0510   34.5440 C   0  0  1  0  0  3  0  0  0  0  0  0
   31.7700   29.8730   34.7890 O   0  0  0  0  0  0  0  0  0  0  0  0
   30.4240   30.0400   34.5940 C   0  0  0  0  0  2  0  0  0  0  0  0
   30.0670   30.7520   33.3010 C   0  0  2  0  0  3  0  0  0  0  0  0
   31.2880   30.6820   32.4120 C   0  0  1  0  0  3  0  0  0  0  0  0
   33.5920   31.3730   32.4330 O   0  0  0  0  0  0  0  0  0  0  0  0
   33.9950   32.2980   32.3860 H   0  0  0  0  0  0  0  0  0  0  0  0
   29.8990   32.1140   33.6290 O   0  0  0  0  0  0  0  0  0  0  0  0
   29.2190   32.1880   34.3660 H   0  0  0  0  0  0  0  0  0  0  0  0
   31.0660   31.2440   31.1560 O   0  0  0  0  0  0  0  0  0  0  0  0
   31.1860   30.5340   30.4680 H   0  0  0  0  0  0  0  0  0  0  0  0
   36.4760   26.4700   30.8600 C   0  0  0  0  0  0  0  0  0  0  0  0
   37.4280   25.6240   30.4060 F   0  0  0  0  0  0  0  0  0  0  0  0
   36.5460   27.6090   30.0560 F   0  0  0  0  0  0  0  0  0  0  0  0
   35.2330   25.8540   30.6810 F   0  0  0  0  0  0  0  0  0  0  0  0
  1  2  1  0  0  0  0
  1 12  1  0  0  0  0
  2  9  1  0  0  0  0
  3 19  1  0  0  0  0
  3  2  2  0  0  0  0
  4  3  1  0  0  0  0
  5  4  2  0  0  0  0
  6  4  1  0  0  0  0
  6  7  1  0  0  0  0
  7  1  1  0  0  0  0
  8  7  2  0  0  0  0
 10 16  1  0  0  0  0
 11 17  1  0  0  0  0
 11 10  2  0  0  0  0
 12 11  1  0  0  0  0
 13 12  2  0  0  0  0
 13 14  1  0  0  0  0
 14 15  2  0  0  0  0
 15 10  1  0  0  0  0
 18 14  1  0  0  0  0
 19 20  1  0  0  0  0
 20 25  1  0  0  0  0
 20 21  2  0  0  0  0
 21 26  1  0  0  0  0
 22 21  1  0  0  0  0
 22 27  1  0  0  0  0
 23 22  2  0  0  0  0
 24 19  2  0  0  0  0
 24 23  1  0  0  0  0
 28 34  1  6  0  0  0
 28 29  1  0  0  0  0
 29 30  1  0  0  0  0
 29 23  1  6  0  0  0
 31 30  1  0  0  0  0
 32 36  1  1  0  0  0
 32 31  1  0  0  0  0
 33 38  1  6  0  0  0
 33 28  1  0  0  0  0
 33 32  1  0  0  0  0
 35 34  1  0  0  0  0
 36 37  1  0  0  0  0
 39 38  1  0  0  0  0
 40  6  1  0  0  0  0
 41 40  1  0  0  0  0
 42 40  1  0  0  0  0
 43 40  1  0  0  0  0
M  END
>  <minimizedAffinity>
-6.45965767

$$$$
