
 OpenBabel03272507343D

 39 42  0  0  1  0  0  0  0  0999 V2000
   33.1750   27.5010   48.2170 C   0  0  0  0  0  0  0  0  0  0  0  0
   31.9450   27.4150   48.5450 O   0  0  0  0  0  0  0  0  0  0  0  0
   35.8890   29.1810   49.8300 C   0  0  0  0  0  0  0  0  0  0  0  0
   34.8570   29.6480   50.6170 C   0  0  0  0  0  0  0  0  0  0  0  0
   33.6690   29.0850   50.1250 C   0  0  0  0  0  0  0  0  0  0  0  0
   34.0600   28.3040   49.0620 C   0  0  0  0  0  0  0  0  0  0  0  0
   35.3670   28.3900   48.9260 O   0  0  0  0  0  0  0  0  0  0  0  0
   34.9060   30.3260   51.4690 H   0  0  0  0  0  0  0  0  0  0  0  0
   32.6720   29.2100   50.4700 H   0  0  0  0  0  0  0  0  0  0  0  0
   37.2720   29.5660   50.0610 C   0  0  0  0  0  0  0  0  0  0  0  0
   37.9160   29.0040   50.9590 O   0  0  0  0  0  0  0  0  0  0  0  0
   37.8120   30.5930   49.2140 C   0  0  0  0  0  0  0  0  0  0  0  0
   38.1650   31.7890   49.8220 C   0  0  0  0  0  0  0  0  0  0  0  0
   38.6920   32.8120   49.0240 C   0  0  0  0  0  0  0  0  0  0  0  0
   38.8300   32.5710   47.6780 N   0  0  0  0  0  0  0  0  0  0  0  0
   38.4810   31.4090   47.1290 C   0  0  0  0  0  0  0  0  0  0  0  0
   37.9740   30.4190   47.8840 N   0  0  0  0  0  0  0  0  0  0  0  0
   38.0510   31.9610   50.8680 H   0  0  0  0  0  0  0  0  0  0  0  0
   38.9830   33.7680   49.4560 H   0  0  0  0  0  0  0  0  0  0  0  0
   38.6010   31.2500   46.0720 H   0  0  0  0  0  0  0  0  0  0  0  0
   33.7080   26.7980   47.0050 C   0  0  1  0  0  0  0  0  0  0  0  0
   33.8180   25.2500   47.2900 C   0  0  0  0  0  0  0  0  0  0  0  0
   32.8890   25.8220   46.2820 C   0  0  2  0  0  0  0  0  0  0  0  0
   34.7410   27.1420   46.6990 H   0  0  0  0  0  0  0  0  0  0  0  0
   33.4890   24.8900   48.2570 H   0  0  0  0  0  0  0  0  0  0  0  0
   34.6830   24.7290   46.8720 H   0  0  0  0  0  0  0  0  0  0  0  0
   31.8100   25.8140   46.5850 H   0  0  0  0  0  0  0  0  0  0  0  0
   33.1120   26.8270   44.0750 C   0  0  1  0  0  3  0  0  0  0  0  0
   33.1820   25.5600   44.8080 C   0  0  1  0  0  3  0  0  0  0  0  0
   34.3020   24.8100   44.7290 O   0  0  0  0  0  0  0  0  0  0  0  0
   35.1590   24.9610   43.7000 C   0  0  0  0  0  2  0  0  0  0  0  0
   34.6550   25.7040   42.4990 C   0  0  2  0  0  3  0  0  0  0  0  0
   34.1610   27.0420   43.0230 C   0  0  2  0  0  3  0  0  0  0  0  0
   31.8680   26.9880   43.4520 O   0  0  0  0  0  0  0  0  0  0  0  0
   31.8350   27.9210   43.0980 H   0  0  0  0  0  0  0  0  0  0  0  0
   33.6370   24.9990   41.8690 O   0  0  0  0  0  0  0  0  0  0  0  0
   33.9010   24.9230   40.9230 H   0  0  0  0  0  0  0  0  0  0  0  0
   35.2760   27.6770   43.5980 O   0  0  0  0  0  0  0  0  0  0  0  0
   36.0200   27.6920   42.9360 H   0  0  0  0  0  0  0  0  0  0  0  0
  1  2  2  0  0  0  0
  1  6  1  0  0  0  0
  3 10  1  0  0  0  0
  3  4  2  0  0  0  0
  4  8  1  0  0  0  0
  5  9  1  0  0  0  0
  5  4  1  0  0  0  0
  6  5  2  0  0  0  0
  7  6  1  0  0  0  0
  7  3  1  0  0  0  0
 10 11  2  0  0  0  0
 12 13  1  0  0  0  0
 12 10  1  0  0  0  0
 13 18  1  0  0  0  0
 14 19  1  0  0  0  0
 14 13  2  0  0  0  0
 15 14  1  0  0  0  0
 16 15  2  0  0  0  0
 16 17  1  0  0  0  0
 17 12  2  0  0  0  0
 20 16  1  0  0  0  0
 21 24  1  6  0  0  0
 21 22  1  0  0  0  0
 21  1  1  0  0  0  0
 22 25  1  0  0  0  0
 23 27  1  1  0  0  0
 23 21  1  0  0  0  0
 23 22  1  0  0  0  0
 26 22  1  0  0  0  0
 28 34  1  6  0  0  0
 28 29  1  0  0  0  0
 29 30  1  1  0  0  0
 29 23  1  0  0  0  0
 31 30  1  0  0  0  0
 32 36  1  1  0  0  0
 32 33  1  0  0  0  0
 32 31  1  0  0  0  0
 33 38  1  1  0  0  0
 33 28  1  0  0  0  0
 35 34  1  0  0  0  0
 37 36  1  0  0  0  0
 39 38  1  0  0  0  0
M  END
>  <minimizedAffinity>
-5.03559303

>  <minimizedRMSD>
0.262471735

$$$$
