
 OpenBabel03262521203D

 32 33  0  0  1  0  0  0  0  0999 V2000
   37.5350   25.7110   33.9100 C   0  0  0  0  0  0  0  0  0  0  0  0
   37.7340   26.8770   34.6260 C   0  0  0  0  0  0  0  0  0  0  0  0
   38.2180   26.8190   35.9450 C   0  0  0  0  0  0  0  0  0  0  0  0
   38.4640   25.5630   36.4360 N   0  0  0  0  0  0  0  0  0  0  0  0
   38.2580   24.4430   35.7100 C   0  0  0  0  0  0  0  0  0  0  0  0
   37.8060   24.5300   34.4820 N   0  0  0  0  0  0  0  0  0  0  0  0
   37.5480   27.8800   34.2590 H   0  0  0  0  0  0  0  0  0  0  0  0
   38.3820   27.7090   36.5250 H   0  0  0  0  0  0  0  0  0  0  0  0
   39.1930   23.2130   37.6560 C   0  0  2  0  0  3  0  0  0  0  0  0
   38.5440   23.0980   36.3000 C   0  0  2  0  0  3  0  0  0  0  0  0
   39.2150   22.2570   35.4260 O   0  0  0  0  0  0  0  0  0  0  0  0
   40.5160   22.6040   35.1660 C   0  0  0  0  0  2  0  0  0  0  0  0
   41.3170   23.0410   36.3470 C   0  0  1  0  0  3  0  0  0  0  0  0
   40.6270   22.7480   37.6620 C   0  0  2  0  0  3  0  0  0  0  0  0
   38.4980   22.5640   38.6650 O   0  0  0  0  0  0  0  0  0  0  0  0
   37.7850   22.0000   38.2320 H   0  0  0  0  0  0  0  0  0  0  0  0
   42.5750   22.4030   36.3930 O   0  0  0  0  0  0  0  0  0  0  0  0
   42.5170   21.4960   36.7800 H   0  0  0  0  0  0  0  0  0  0  0  0
   40.6810   21.3830   37.8820 O   0  0  0  0  0  0  0  0  0  0  0  0
   40.1000   20.9480   37.2290 H   0  0  0  0  0  0  0  0  0  0  0  0
   37.0580   25.9520   32.6370 O   0  0  0  0  0  0  0  0  0  0  0  0
   37.3510   25.0070   31.6710 C   0  0  0  0  0  0  0  0  0  0  0  0
   37.9470   24.1390   32.0270 H   0  0  0  0  0  0  0  0  0  0  0  0
   38.0130   25.4920   30.9090 H   0  0  0  0  0  0  0  0  0  0  0  0
   36.0940   24.7320   31.2620 C   0  0  0  0  0  0  0  0  0  0  0  0
   35.8610   25.0060   30.2010 H   0  0  0  0  0  0  0  0  0  0  0  0
   35.3540   25.3980   31.8010 H   0  0  0  0  0  0  0  0  0  0  0  0
   35.6100   23.3320   31.4510 C   0  0  0  0  0  0  0  0  0  0  0  0
   34.8970   23.2180   32.3130 H   0  0  0  0  0  0  0  0  0  0  0  0
   35.0270   22.9410   30.5650 H   0  0  0  0  0  0  0  0  0  0  0  0
   36.9390   22.1640   31.7360 S   0  0  0  0  0  0  0  0  0  0  0  0
   37.9230   22.8010   32.5250 H   0  0  0  0  0  0  0  0  0  0  0  0
  1  6  2  0  0  0  0
  1  2  1  0  0  0  0
  2  3  2  0  0  0  0
  3  4  1  0  0  0  0
  3  8  1  0  0  0  0
  5  4  2  0  0  0  0
  6  5  1  0  0  0  0
  7  2  1  0  0  0  0
  9 14  1  0  0  0  0
  9 15  1  1  0  0  0
 10  5  1  6  0  0  0
 10  9  1  0  0  0  0
 11 10  1  0  0  0  0
 12 11  1  0  0  0  0
 12 13  1  0  0  0  0
 13 17  1  1  0  0  0
 13 14  1  0  0  0  0
 14 19  1  6  0  0  0
 16 15  1  0  0  0  0
 17 18  1  0  0  0  0
 20 19  1  0  0  0  0
 21  1  1  0  0  0  0
 22 23  1  0  0  0  0
 22 21  1  0  0  0  0
 24 22  1  0  0  0  0
 25 28  1  0  0  0  0
 25 22  1  0  0  0  0
 25 27  1  0  0  0  0
 26 25  1  0  0  0  0
 28 31  1  0  0  0  0
 28 29  1  0  0  0  0
 30 28  1  0  0  0  0
 31 32  1  0  0  0  0
M  END
>  <minimizedAffinity>
-5.14508724

$$$$

 OpenBabel03262521203D

 32 33  0  0  1  0  0  0  0  0999 V2000
   37.8740   25.8570   33.8790 C   0  0  0  0  0  0  0  0  0  0  0  0
   37.9530   26.9980   34.6550 C   0  0  0  0  0  0  0  0  0  0  0  0
   38.2490   26.8980   36.0270 C   0  0  0  0  0  0  0  0  0  0  0  0
   38.4440   25.6280   36.5040 N   0  0  0  0  0  0  0  0  0  0  0  0
   38.3600   24.5330   35.7180 C   0  0  0  0  0  0  0  0  0  0  0  0
   38.0820   24.6590   34.4420 N   0  0  0  0  0  0  0  0  0  0  0  0
   37.8030   28.0120   34.3010 H   0  0  0  0  0  0  0  0  0  0  0  0
   38.3170   27.7680   36.6530 H   0  0  0  0  0  0  0  0  0  0  0  0
   39.2140   23.2440   37.6620 C   0  0  2  0  0  3  0  0  0  0  0  0
   38.5820   23.1700   36.2950 C   0  0  2  0  0  3  0  0  0  0  0  0
   39.2320   22.3130   35.4220 O   0  0  0  0  0  0  0  0  0  0  0  0
   40.5510   22.6100   35.1860 C   0  0  0  0  0  2  0  0  0  0  0  0
   41.3490   23.0010   36.3850 C   0  0  1  0  0  3  0  0  0  0  0  0
   40.6270   22.7210   37.6850 C   0  0  2  0  0  3  0  0  0  0  0  0
   38.4770   22.6110   38.6530 O   0  0  0  0  0  0  0  0  0  0  0  0
   37.7490   22.0820   38.2020 H   0  0  0  0  0  0  0  0  0  0  0  0
   42.5800   22.3130   36.4430 O   0  0  0  0  0  0  0  0  0  0  0  0
   42.4790   21.4050   36.8170 H   0  0  0  0  0  0  0  0  0  0  0  0
   40.6230   21.3530   37.8890 O   0  0  0  0  0  0  0  0  0  0  0  0
   40.0350   20.9490   37.2220 H   0  0  0  0  0  0  0  0  0  0  0  0
   37.5760   26.1390   32.5610 O   0  0  0  0  0  0  0  0  0  0  0  0
   36.4420   25.5470   32.0360 C   0  0  0  0  0  0  0  0  0  0  0  0
   35.8220   24.9850   32.7690 H   0  0  0  0  0  0  0  0  0  0  0  0
   36.7710   24.7640   31.3080 H   0  0  0  0  0  0  0  0  0  0  0  0
   35.8670   26.6420   31.4960 C   0  0  0  0  0  0  0  0  0  0  0  0
   35.3240   27.3070   32.2150 H   0  0  0  0  0  0  0  0  0  0  0  0
   35.0070   26.3400   30.8240 H   0  0  0  0  0  0  0  0  0  0  0  0
   36.7410   27.5340   30.6770 C   0  0  0  0  0  0  0  0  0  0  0  0
   37.8300   27.4690   30.9530 H   0  0  0  0  0  0  0  0  0  0  0  0
   36.7270   27.2800   29.5760 H   0  0  0  0  0  0  0  0  0  0  0  0
   36.2890   29.2640   30.8020 S   0  0  0  0  0  0  0  0  0  0  0  0
   35.8810   29.5160   32.1320 H   0  0  0  0  0  0  0  0  0  0  0  0
  1  6  2  0  0  0  0
  1  2  1  0  0  0  0
  2  3  2  0  0  0  0
  3  4  1  0  0  0  0
  3  8  1  0  0  0  0
  5  4  2  0  0  0  0
  6  5  1  0  0  0  0
  7  2  1  0  0  0  0
  9 14  1  0  0  0  0
  9 15  1  1  0  0  0
 10  5  1  6  0  0  0
 10  9  1  0  0  0  0
 11 10  1  0  0  0  0
 12 11  1  0  0  0  0
 12 13  1  0  0  0  0
 13 17  1  1  0  0  0
 13 14  1  0  0  0  0
 14 19  1  6  0  0  0
 16 15  1  0  0  0  0
 17 18  1  0  0  0  0
 20 19  1  0  0  0  0
 21  1  1  0  0  0  0
 22 21  1  0  0  0  0
 22 23  1  0  0  0  0
 24 22  1  0  0  0  0
 25 22  1  0  0  0  0
 25 26  1  0  0  0  0
 27 25  1  0  0  0  0
 28 31  1  0  0  0  0
 28 29  1  0  0  0  0
 28 25  1  0  0  0  0
 30 28  1  0  0  0  0
 31 32  1  0  0  0  0
M  END
>  <minimizedAffinity>
-5.11441898

$$$$

 OpenBabel03262521203D

 32 33  0  0  1  0  0  0  0  0999 V2000
   38.4010   25.9410   35.1810 C   0  0  0  0  0  0  0  0  0  0  0  0
   39.6290   26.5650   35.2960 C   0  0  0  0  0  0  0  0  0  0  0  0
   40.2390   27.1350   34.1650 C   0  0  0  0  0  0  0  0  0  0  0  0
   39.5400   27.0220   32.9900 N   0  0  0  0  0  0  0  0  0  0  0  0
   38.3410   26.4050   32.9110 C   0  0  0  0  0  0  0  0  0  0  0  0
   37.7980   25.8840   33.9860 N   0  0  0  0  0  0  0  0  0  0  0  0
   40.1990   26.6670   36.2130 H   0  0  0  0  0  0  0  0  0  0  0  0
   41.1920   27.6260   34.2260 H   0  0  0  0  0  0  0  0  0  0  0  0
   38.3220   27.1120   30.5290 C   0  0  2  0  0  3  0  0  0  0  0  0
   37.6250   26.3130   31.6010 C   0  0  2  0  0  3  0  0  0  0  0  0
   36.2690   26.5780   31.7060 O   0  0  0  0  0  0  0  0  0  0  0  0
   35.9500   27.8850   31.9770 C   0  0  0  0  0  2  0  0  0  0  0  0
   36.7280   28.9100   31.2220 C   0  0  1  0  0  3  0  0  0  0  0  0
   37.5300   28.3150   30.0850 C   0  0  2  0  0  3  0  0  0  0  0  0
   38.6800   26.3650   29.4170 O   0  0  0  0  0  0  0  0  0  0  0  0
   38.2340   25.4650   29.4970 H   0  0  0  0  0  0  0  0  0  0  0  0
   35.8900   29.8970   30.6610 O   0  0  0  0  0  0  0  0  0  0  0  0
   35.4800   29.5970   29.8140 H   0  0  0  0  0  0  0  0  0  0  0  0
   36.6500   27.9560   29.0790 O   0  0  0  0  0  0  0  0  0  0  0  0
   36.1220   27.1970   29.3950 H   0  0  0  0  0  0  0  0  0  0  0  0
   37.9510   25.4400   36.3860 O   0  0  0  0  0  0  0  0  0  0  0  0
   37.8470   24.0650   36.4920 C   0  0  0  0  0  0  0  0  0  0  0  0
   38.6680   23.4930   36.0070 H   0  0  0  0  0  0  0  0  0  0  0  0
   36.9320   23.7480   35.9320 H   0  0  0  0  0  0  0  0  0  0  0  0
   37.7730   23.9650   37.8360 C   0  0  0  0  0  0  0  0  0  0  0  0
   36.8750   23.4250   38.2310 H   0  0  0  0  0  0  0  0  0  0  0  0
   37.6020   24.9860   38.2940 H   0  0  0  0  0  0  0  0  0  0  0  0
   38.9560   23.3840   38.5400 C   0  0  0  0  0  0  0  0  0  0  0  0
   39.5280   24.1380   39.1490 H   0  0  0  0  0  0  0  0  0  0  0  0
   38.6770   22.5870   39.2910 H   0  0  0  0  0  0  0  0  0  0  0  0
   40.1380   22.6350   37.4210 S   0  0  0  0  0  0  0  0  0  0  0  0
   40.1910   23.4190   36.2470 H   0  0  0  0  0  0  0  0  0  0  0  0
  1  2  1  0  0  0  0
  1 21  1  0  0  0  0
  2  7  1  0  0  0  0
  3  8  1  0  0  0  0
  3  2  2  0  0  0  0
  4  3  1  0  0  0  0
  5  4  2  0  0  0  0
  5  6  1  0  0  0  0
  6  1  2  0  0  0  0
  9 15  1  6  0  0  0
  9 10  1  0  0  0  0
 10 11  1  0  0  0  0
 10  5  1  1  0  0  0
 11 12  1  0  0  0  0
 13 17  1  6  0  0  0
 13 12  1  0  0  0  0
 14 19  1  6  0  0  0
 14  9  1  0  0  0  0
 14 13  1  0  0  0  0
 15 16  1  0  0  0  0
 18 17  1  0  0  0  0
 19 20  1  0  0  0  0
 21 22  1  0  0  0  0
 22 25  1  0  0  0  0
 23 22  1  0  0  0  0
 24 22  1  0  0  0  0
 25 26  1  0  0  0  0
 25 27  1  0  0  0  0
 25 28  1  0  0  0  0
 28 29  1  0  0  0  0
 28 30  1  0  0  0  0
 31 28  1  0  0  0  0
 32 31  1  0  0  0  0
M  END
>  <minimizedAffinity>
-4.84625864

$$$$

 OpenBabel03262521203D

 32 33  0  0  1  0  0  0  0  0999 V2000
   37.3130   23.7810   32.4650 C   0  0  0  0  0  0  0  0  0  0  0  0
   36.7330   24.9820   32.1020 C   0  0  0  0  0  0  0  0  0  0  0  0
   36.9560   26.1350   32.8770 C   0  0  0  0  0  0  0  0  0  0  0  0
   37.7620   25.9710   33.9730 N   0  0  0  0  0  0  0  0  0  0  0  0
   38.3140   24.7820   34.3010 C   0  0  0  0  0  0  0  0  0  0  0  0
   38.0870   23.7250   33.5580 N   0  0  0  0  0  0  0  0  0  0  0  0
   36.0930   25.1370   31.2410 H   0  0  0  0  0  0  0  0  0  0  0  0
   36.5180   27.0810   32.6170 H   0  0  0  0  0  0  0  0  0  0  0  0
   39.6890   23.2530   35.6960 C   0  0  2  0  0  3  0  0  0  0  0  0
   39.1870   24.6630   35.5100 C   0  0  2  0  0  3  0  0  0  0  0  0
   38.6120   25.2090   36.6470 O   0  0  0  0  0  0  0  0  0  0  0  0
   37.5400   24.5170   37.1480 C   0  0  0  0  0  2  0  0  0  0  0  0
   37.6860   23.0310   37.1760 C   0  0  1  0  0  3  0  0  0  0  0  0
   39.1040   22.5780   36.9110 C   0  0  2  0  0  3  0  0  0  0  0  0
   41.0710   23.1530   35.7390 O   0  0  0  0  0  0  0  0  0  0  0  0
   41.4440   24.0860   35.8080 H   0  0  0  0  0  0  0  0  0  0  0  0
   37.3090   22.4910   38.4240 O   0  0  0  0  0  0  0  0  0  0  0  0
   38.0310   22.5650   39.0940 H   0  0  0  0  0  0  0  0  0  0  0  0
   39.8670   22.8720   38.0280 O   0  0  0  0  0  0  0  0  0  0  0  0
   39.9550   23.8420   38.0870 H   0  0  0  0  0  0  0  0  0  0  0  0
   36.9900   22.7580   31.5970 O   0  0  0  0  0  0  0  0  0  0  0  0
   35.6480   22.5740   31.3200 C   0  0  0  0  0  0  0  0  0  0  0  0
   35.2610   23.1570   30.4560 H   0  0  0  0  0  0  0  0  0  0  0  0
   35.0630   22.9660   32.1910 H   0  0  0  0  0  0  0  0  0  0  0  0
   35.6480   21.2320   31.1730 C   0  0  0  0  0  0  0  0  0  0  0  0
   36.6580   20.7560   31.0850 H   0  0  0  0  0  0  0  0  0  0  0  0
   35.2140   20.9510   30.1660 H   0  0  0  0  0  0  0  0  0  0  0  0
   34.8950   20.4370   32.1890 C   0  0  0  0  0  0  0  0  0  0  0  0
   33.8250   20.7620   32.3080 H   0  0  0  0  0  0  0  0  0  0  0  0
   34.8170   19.3410   31.9240 H   0  0  0  0  0  0  0  0  0  0  0  0
   35.6310   20.5120   33.8210 S   0  0  0  0  0  0  0  0  0  0  0  0
   36.1360   21.8170   34.0160 H   0  0  0  0  0  0  0  0  0  0  0  0
  1  6  1  0  0  0  0
  2  1  2  0  0  0  0
  2  3  1  0  0  0  0
  3  4  2  0  0  0  0
  4  5  1  0  0  0  0
  6  5  2  0  0  0  0
  7  2  1  0  0  0  0
  8  3  1  0  0  0  0
  9 15  1  1  0  0  0
  9 14  1  0  0  0  0
 10  5  1  6  0  0  0
 10  9  1  0  0  0  0
 10 11  1  0  0  0  0
 11 12  1  0  0  0  0
 12 13  1  0  0  0  0
 13 17  1  1  0  0  0
 14 13  1  0  0  0  0
 14 19  1  1  0  0  0
 15 16  1  0  0  0  0
 17 18  1  0  0  0  0
 19 20  1  0  0  0  0
 21  1  1  0  0  0  0
 22 21  1  0  0  0  0
 22 24  1  0  0  0  0
 23 22  1  0  0  0  0
 25 22  1  0  0  0  0
 25 28  1  0  0  0  0
 26 25  1  0  0  0  0
 27 25  1  0  0  0  0
 28 29  1  0  0  0  0
 28 31  1  0  0  0  0
 30 28  1  0  0  0  0
 31 32  1  0  0  0  0
M  END
>  <minimizedAffinity>
-4.69691706

$$$$

 OpenBabel03262521203D

 32 33  0  0  1  0  0  0  0  0999 V2000
   38.2560   25.6730   33.1930 C   0  0  0  0  0  0  0  0  0  0  0  0
   39.2430   26.6110   33.4280 C   0  0  0  0  0  0  0  0  0  0  0  0
   39.7760   26.7650   34.7210 C   0  0  0  0  0  0  0  0  0  0  0  0
   39.2540   25.9400   35.6830 N   0  0  0  0  0  0  0  0  0  0  0  0
   38.2890   25.0320   35.4200 C   0  0  0  0  0  0  0  0  0  0  0  0
   37.8120   24.9130   34.2040 N   0  0  0  0  0  0  0  0  0  0  0  0
   39.6720   27.2740   32.6850 H   0  0  0  0  0  0  0  0  0  0  0  0
   40.5440   27.4860   34.9320 H   0  0  0  0  0  0  0  0  0  0  0  0
   38.3850   24.4880   37.8430 C   0  0  2  0  0  3  0  0  0  0  0  0
   37.7570   24.1580   36.5120 C   0  0  2  0  0  3  0  0  0  0  0  0
   37.7950   22.8100   36.1920 O   0  0  0  0  0  0  0  0  0  0  0  0
   39.0500   22.2600   36.1350 C   0  0  0  0  0  2  0  0  0  0  0  0
   39.9840   22.6670   37.2260 C   0  0  1  0  0  3  0  0  0  0  0  0
   39.2840   23.3920   38.3540 C   0  0  2  0  0  3  0  0  0  0  0  0
   37.4670   24.8230   38.8270 O   0  0  0  0  0  0  0  0  0  0  0  0
   36.5490   24.6030   38.4770 H   0  0  0  0  0  0  0  0  0  0  0  0
   40.6410   21.5560   37.7960 O   0  0  0  0  0  0  0  0  0  0  0  0
   40.0770   21.0950   38.4630 H   0  0  0  0  0  0  0  0  0  0  0  0
   38.5430   22.4660   39.0670 O   0  0  0  0  0  0  0  0  0  0  0  0
   37.8010   22.1730   38.5030 H   0  0  0  0  0  0  0  0  0  0  0  0
   37.8510   25.6570   31.8740 O   0  0  0  0  0  0  0  0  0  0  0  0
   38.8340   25.4700   30.9190 C   0  0  0  0  0  0  0  0  0  0  0  0
   39.8570   25.7740   31.2320 H   0  0  0  0  0  0  0  0  0  0  0  0
   38.6050   26.1470   30.0570 H   0  0  0  0  0  0  0  0  0  0  0  0
   38.6540   24.1520   30.6910 C   0  0  0  0  0  0  0  0  0  0  0  0
   37.5910   23.8240   30.5650 H   0  0  0  0  0  0  0  0  0  0  0  0
   38.9330   23.5550   31.6110 H   0  0  0  0  0  0  0  0  0  0  0  0
   39.4160   23.5490   29.5560 C   0  0  0  0  0  0  0  0  0  0  0  0
   39.1030   23.9410   28.5490 H   0  0  0  0  0  0  0  0  0  0  0  0
   40.5240   23.7700   29.5990 H   0  0  0  0  0  0  0  0  0  0  0  0
   39.2590   21.7660   29.4770 S   0  0  0  0  0  0  0  0  0  0  0  0
   37.9390   21.4240   29.8470 H   0  0  0  0  0  0  0  0  0  0  0  0
  1  2  2  0  0  0  0
  1  6  1  0  0  0  0
  2  3  1  0  0  0  0
  3  8  1  0  0  0  0
  3  4  2  0  0  0  0
  5  4  1  0  0  0  0
  6  5  2  0  0  0  0
  7  2  1  0  0  0  0
  9 14  1  0  0  0  0
  9 15  1  1  0  0  0
 10  5  1  6  0  0  0
 10  9  1  0  0  0  0
 11 10  1  0  0  0  0
 12 11  1  0  0  0  0
 12 13  1  0  0  0  0
 13 17  1  1  0  0  0
 13 14  1  0  0  0  0
 14 19  1  6  0  0  0
 16 15  1  0  0  0  0
 17 18  1  0  0  0  0
 20 19  1  0  0  0  0
 21  1  1  0  0  0  0
 22 23  1  0  0  0  0
 22 21  1  0  0  0  0
 24 22  1  0  0  0  0
 25 22  1  0  0  0  0
 25 27  1  0  0  0  0
 26 25  1  0  0  0  0
 28 30  1  0  0  0  0
 28 25  1  0  0  0  0
 29 28  1  0  0  0  0
 31 28  1  0  0  0  0
 31 32  1  0  0  0  0
M  END
>  <minimizedAffinity>
-4.63454866

$$$$

 OpenBabel03262521203D

 32 33  0  0  1  0  0  0  0  0999 V2000
   37.2520   26.8000   32.8910 C   0  0  0  0  0  0  0  0  0  0  0  0
   36.4510   26.0640   32.0380 C   0  0  0  0  0  0  0  0  0  0  0  0
   36.5470   24.6610   32.0150 C   0  0  0  0  0  0  0  0  0  0  0  0
   37.4640   24.1120   32.8740 N   0  0  0  0  0  0  0  0  0  0  0  0
   38.2330   24.8600   33.6950 C   0  0  0  0  0  0  0  0  0  0  0  0
   38.1190   26.1670   33.6930 N   0  0  0  0  0  0  0  0  0  0  0  0
   35.7190   26.4760   31.3510 H   0  0  0  0  0  0  0  0  0  0  0  0
   35.9350   24.0650   31.3630 H   0  0  0  0  0  0  0  0  0  0  0  0
   39.0920   22.7020   34.5770 C   0  0  2  0  0  3  0  0  0  0  0  0
   39.2170   24.2040   34.6120 C   0  0  2  0  0  3  0  0  0  0  0  0
   39.2050   24.7390   35.8900 O   0  0  0  0  0  0  0  0  0  0  0  0
   38.0820   24.4620   36.6270 C   0  0  0  0  0  2  0  0  0  0  0  0
   37.5780   23.0600   36.5340 C   0  0  1  0  0  3  0  0  0  0  0  0
   38.5640   22.1270   35.8660 C   0  0  2  0  0  3  0  0  0  0  0  0
   40.2680   22.0500   34.2340 O   0  0  0  0  0  0  0  0  0  0  0  0
   41.0100   22.7310   34.2490 H   0  0  0  0  0  0  0  0  0  0  0  0
   37.2960   22.5180   37.8070 O   0  0  0  0  0  0  0  0  0  0  0  0
   38.1110   22.1860   38.2560 H   0  0  0  0  0  0  0  0  0  0  0  0
   39.6080   21.9020   36.7460 O   0  0  0  0  0  0  0  0  0  0  0  0
   40.1160   22.7320   36.8320 H   0  0  0  0  0  0  0  0  0  0  0  0
   37.0270   28.1570   32.7830 O   0  0  0  0  0  0  0  0  0  0  0  0
   35.7220   28.5890   32.9300 C   0  0  0  0  0  0  0  0  0  0  0  0
   34.9510   27.7920   32.8450 H   0  0  0  0  0  0  0  0  0  0  0  0
   35.4920   29.2770   32.0780 H   0  0  0  0  0  0  0  0  0  0  0  0
   35.8320   29.1750   34.1410 C   0  0  0  0  0  0  0  0  0  0  0  0
   36.8590   29.1710   34.5880 H   0  0  0  0  0  0  0  0  0  0  0  0
   35.2790   28.5680   34.9200 H   0  0  0  0  0  0  0  0  0  0  0  0
   35.3250   30.5750   34.2660 C   0  0  0  0  0  0  0  0  0  0  0  0
   35.6290   31.2390   33.4110 H   0  0  0  0  0  0  0  0  0  0  0  0
   34.1970   30.6390   34.2700 H   0  0  0  0  0  0  0  0  0  0  0  0
   35.8830   31.3890   35.7620 S   0  0  0  0  0  0  0  0  0  0  0  0
   37.2090   30.9750   36.0200 H   0  0  0  0  0  0  0  0  0  0  0  0
  1  6  1  0  0  0  0
  2  1  2  0  0  0  0
  3  2  1  0  0  0  0
  3  4  2  0  0  0  0
  4  5  1  0  0  0  0
  6  5  2  0  0  0  0
  7  2  1  0  0  0  0
  8  3  1  0  0  0  0
  9 15  1  1  0  0  0
  9 10  1  0  0  0  0
  9 14  1  0  0  0  0
 10  5  1  6  0  0  0
 10 11  1  0  0  0  0
 11 12  1  0  0  0  0
 13 12  1  0  0  0  0
 13 17  1  1  0  0  0
 14 13  1  0  0  0  0
 14 19  1  1  0  0  0
 15 16  1  0  0  0  0
 17 18  1  0  0  0  0
 19 20  1  0  0  0  0
 21  1  1  0  0  0  0
 21 22  1  0  0  0  0
 22 25  1  0  0  0  0
 23 22  1  0  0  0  0
 24 22  1  0  0  0  0
 25 28  1  0  0  0  0
 25 26  1  0  0  0  0
 25 27  1  0  0  0  0
 28 30  1  0  0  0  0
 28 31  1  0  0  0  0
 29 28  1  0  0  0  0
 31 32  1  0  0  0  0
M  END
>  <minimizedAffinity>
-4.61204004

$$$$

 OpenBabel03262521203D

 32 33  0  0  1  0  0  0  0  0999 V2000
   36.8890   25.5160   32.3930 C   0  0  0  0  0  0  0  0  0  0  0  0
   36.4190   24.3410   31.8370 C   0  0  0  0  0  0  0  0  0  0  0  0
   36.8790   23.1010   32.3160 C   0  0  0  0  0  0  0  0  0  0  0  0
   37.7930   23.1590   33.3370 N   0  0  0  0  0  0  0  0  0  0  0  0
   38.2320   24.3250   33.8580 C   0  0  0  0  0  0  0  0  0  0  0  0
   37.7840   25.4650   33.3890 N   0  0  0  0  0  0  0  0  0  0  0  0
   35.6980   24.2710   31.0300 H   0  0  0  0  0  0  0  0  0  0  0  0
   36.5300   22.1730   31.9030 H   0  0  0  0  0  0  0  0  0  0  0  0
   39.6870   22.9270   35.3090 C   0  0  2  0  0  3  0  0  0  0  0  0
   39.2300   24.3240   34.9730 C   0  0  2  0  0  3  0  0  0  0  0  0
   38.8140   25.0590   36.0720 O   0  0  0  0  0  0  0  0  0  0  0  0
   37.7750   24.5090   36.7800 C   0  0  0  0  0  2  0  0  0  0  0  0
   37.8580   23.0370   37.0100 C   0  0  1  0  0  3  0  0  0  0  0  0
   39.2150   22.4660   36.6640 C   0  0  2  0  0  3  0  0  0  0  0  0
   41.0600   22.7500   35.2180 O   0  0  0  0  0  0  0  0  0  0  0  0
   41.4790   23.6590   35.1100 H   0  0  0  0  0  0  0  0  0  0  0  0
   37.6010   22.7010   38.3560 O   0  0  0  0  0  0  0  0  0  0  0  0
   38.3980   22.8250   38.9270 H   0  0  0  0  0  0  0  0  0  0  0  0
   40.1120   22.8670   37.6390 O   0  0  0  0  0  0  0  0  0  0  0  0
   40.2500   23.8290   37.5460 H   0  0  0  0  0  0  0  0  0  0  0  0
   36.3340   26.6350   31.8030 O   0  0  0  0  0  0  0  0  0  0  0  0
   36.6560   27.8590   32.3590 C   0  0  0  0  0  0  0  0  0  0  0  0
   37.1610   27.8090   33.3490 H   0  0  0  0  0  0  0  0  0  0  0  0
   35.6990   28.3980   32.5750 H   0  0  0  0  0  0  0  0  0  0  0  0
   37.3930   28.3600   31.3460 C   0  0  0  0  0  0  0  0  0  0  0  0
   38.4120   27.9120   31.2220 H   0  0  0  0  0  0  0  0  0  0  0  0
   37.6800   29.4330   31.5660 H   0  0  0  0  0  0  0  0  0  0  0  0
   36.7680   28.3650   29.9890 C   0  0  0  0  0  0  0  0  0  0  0  0
   36.5380   27.3360   29.5990 H   0  0  0  0  0  0  0  0  0  0  0  0
   35.7700   28.8930   29.9630 H   0  0  0  0  0  0  0  0  0  0  0  0
   37.7920   29.1590   28.7510 S   0  0  0  0  0  0  0  0  0  0  0  0
   39.1420   28.8430   29.0270 H   0  0  0  0  0  0  0  0  0  0  0  0
  1  6  1  0  0  0  0
  2  3  1  0  0  0  0
  2  1  2  0  0  0  0
  3  4  2  0  0  0  0
  4  5  1  0  0  0  0
  6  5  2  0  0  0  0
  7  2  1  0  0  0  0
  8  3  1  0  0  0  0
  9 15  1  1  0  0  0
  9 14  1  0  0  0  0
 10  5  1  6  0  0  0
 10  9  1  0  0  0  0
 10 11  1  0  0  0  0
 11 12  1  0  0  0  0
 12 13  1  0  0  0  0
 13 17  1  1  0  0  0
 14 13  1  0  0  0  0
 14 19  1  1  0  0  0
 16 15  1  0  0  0  0
 17 18  1  0  0  0  0
 20 19  1  0  0  0  0
 21 22  1  0  0  0  0
 21  1  1  0  0  0  0
 22 24  1  0  0  0  0
 22 23  1  0  0  0  0
 25 27  1  0  0  0  0
 25 22  1  0  0  0  0
 26 25  1  0  0  0  0
 28 25  1  0  0  0  0
 29 28  1  0  0  0  0
 30 28  1  0  0  0  0
 31 32  1  0  0  0  0
 31 28  1  0  0  0  0
M  END
>  <minimizedAffinity>
-4.45855904

$$$$

 OpenBabel03262521203D

 32 33  0  0  1  0  0  0  0  0999 V2000
   36.3510   23.5070   31.8840 C   0  0  0  0  0  0  0  0  0  0  0  0
   35.2590   23.9510   31.1610 C   0  0  0  0  0  0  0  0  0  0  0  0
   35.0630   25.3280   30.9560 C   0  0  0  0  0  0  0  0  0  0  0  0
   36.0070   26.1540   31.5100 N   0  0  0  0  0  0  0  0  0  0  0  0
   37.0630   25.6880   32.2110 C   0  0  0  0  0  0  0  0  0  0  0  0
   37.2180   24.3970   32.3850 N   0  0  0  0  0  0  0  0  0  0  0  0
   34.5010   23.3180   30.7140 H   0  0  0  0  0  0  0  0  0  0  0  0
   34.2240   25.7010   30.3980 H   0  0  0  0  0  0  0  0  0  0  0  0
   39.2610   25.9130   33.3480 C   0  0  2  0  0  3  0  0  0  0  0  0
   38.0610   26.6380   32.7930 C   0  0  2  0  0  3  0  0  0  0  0  0
   37.4950   27.5430   33.6770 O   0  0  0  0  0  0  0  0  0  0  0  0
   37.0650   27.0080   34.8640 C   0  0  0  0  0  2  0  0  0  0  0  0
   37.9830   26.0140   35.4940 C   0  0  1  0  0  3  0  0  0  0  0  0
   39.3510   25.9910   34.8500 C   0  0  2  0  0  3  0  0  0  0  0  0
   40.4660   26.3210   32.7950 O   0  0  0  0  0  0  0  0  0  0  0  0
   40.2890   27.1510   32.2540 H   0  0  0  0  0  0  0  0  0  0  0  0
   38.1790   26.2770   36.8670 O   0  0  0  0  0  0  0  0  0  0  0  0
   38.8550   26.9820   37.0160 H   0  0  0  0  0  0  0  0  0  0  0  0
   40.0220   27.1420   35.2240 O   0  0  0  0  0  0  0  0  0  0  0  0
   39.5890   27.9010   34.7880 H   0  0  0  0  0  0  0  0  0  0  0  0
   36.3880   22.1310   31.9870 O   0  0  0  0  0  0  0  0  0  0  0  0
   36.7750   21.6050   33.2060 C   0  0  0  0  0  0  0  0  0  0  0  0
   37.0580   22.3580   33.9740 H   0  0  0  0  0  0  0  0  0  0  0  0
   37.7170   21.0230   33.0430 H   0  0  0  0  0  0  0  0  0  0  0  0
   35.6750   20.8720   33.4750 C   0  0  0  0  0  0  0  0  0  0  0  0
   34.8240   21.4320   33.9420 H   0  0  0  0  0  0  0  0  0  0  0  0
   35.8940   20.1300   34.3020 H   0  0  0  0  0  0  0  0  0  0  0  0
   35.0920   20.0830   32.3490 C   0  0  0  0  0  0  0  0  0  0  0  0
   33.9790   20.2100   32.2430 H   0  0  0  0  0  0  0  0  0  0  0  0
   35.4960   20.3870   31.3390 H   0  0  0  0  0  0  0  0  0  0  0  0
   35.3870   18.3220   32.5030 S   0  0  0  0  0  0  0  0  0  0  0  0
   35.3010   17.9790   33.8710 H   0  0  0  0  0  0  0  0  0  0  0  0
  1 21  1  0  0  0  0
  1  6  1  0  0  0  0
  2  1  2  0  0  0  0
  3  2  1  0  0  0  0
  3  4  2  0  0  0  0
  4  5  1  0  0  0  0
  5  6  2  0  0  0  0
  7  2  1  0  0  0  0
  8  3  1  0  0  0  0
  9 15  1  6  0  0  0
  9 14  1  0  0  0  0
 10  5  1  1  0  0  0
 10  9  1  0  0  0  0
 10 11  1  0  0  0  0
 11 12  1  0  0  0  0
 12 13  1  0  0  0  0
 13 17  1  1  0  0  0
 14 19  1  6  0  0  0
 14 13  1  0  0  0  0
 16 15  1  0  0  0  0
 17 18  1  0  0  0  0
 20 19  1  0  0  0  0
 21 22  1  0  0  0  0
 22 25  1  0  0  0  0
 22 23  1  0  0  0  0
 24 22  1  0  0  0  0
 25 26  1  0  0  0  0
 25 27  1  0  0  0  0
 28 31  1  0  0  0  0
 28 25  1  0  0  0  0
 29 28  1  0  0  0  0
 30 28  1  0  0  0  0
 31 32  1  0  0  0  0
M  END
>  <minimizedAffinity>
-4.4472394

$$$$

 OpenBabel03262521203D

 32 33  0  0  1  0  0  0  0  0999 V2000
   37.2190   26.2760   33.1320 C   0  0  0  0  0  0  0  0  0  0  0  0
   36.8420   27.5150   33.6160 C   0  0  0  0  0  0  0  0  0  0  0  0
   37.1930   27.8990   34.9220 C   0  0  0  0  0  0  0  0  0  0  0  0
   37.9110   26.9780   35.6420 N   0  0  0  0  0  0  0  0  0  0  0  0
   38.2640   25.7750   35.1390 C   0  0  0  0  0  0  0  0  0  0  0  0
   37.9210   25.4460   33.9160 N   0  0  0  0  0  0  0  0  0  0  0  0
   36.2750   28.2590   33.0670 H   0  0  0  0  0  0  0  0  0  0  0  0
   36.9140   28.8550   35.3230 H   0  0  0  0  0  0  0  0  0  0  0  0
   39.5090   23.6240   35.1620 C   0  0  2  0  0  3  0  0  0  0  0  0
   39.0480   24.8100   35.9720 C   0  0  2  0  0  3  0  0  0  0  0  0
   38.4070   24.4690   37.1520 O   0  0  0  0  0  0  0  0  0  0  0  0
   37.2890   23.6880   37.0030 C   0  0  0  0  0  2  0  0  0  0  0  0
   37.4040   22.5770   36.0140 C   0  0  1  0  0  3  0  0  0  0  0  0
   38.8290   22.3400   35.5630 C   0  0  2  0  0  3  0  0  0  0  0  0
   40.8830   23.4370   35.1760 O   0  0  0  0  0  0  0  0  0  0  0  0
   41.2680   24.0470   35.8790 H   0  0  0  0  0  0  0  0  0  0  0  0
   36.9310   21.3560   36.5390 O   0  0  0  0  0  0  0  0  0  0  0  0
   37.6060   20.9100   37.1050 H   0  0  0  0  0  0  0  0  0  0  0  0
   39.5170   21.7460   36.6060 O   0  0  0  0  0  0  0  0  0  0  0  0
   39.6200   22.4080   37.3170 H   0  0  0  0  0  0  0  0  0  0  0  0
   36.7920   26.0660   31.8370 O   0  0  0  0  0  0  0  0  0  0  0  0
   36.1580   24.8650   31.5750 C   0  0  0  0  0  0  0  0  0  0  0  0
   35.1260   24.9560   31.1700 H   0  0  0  0  0  0  0  0  0  0  0  0
   36.0180   24.3340   32.5500 H   0  0  0  0  0  0  0  0  0  0  0  0
   37.0720   24.3250   30.7420 C   0  0  0  0  0  0  0  0  0  0  0  0
   38.0590   24.8530   30.7000 H   0  0  0  0  0  0  0  0  0  0  0  0
   36.7410   24.4480   29.6660 H   0  0  0  0  0  0  0  0  0  0  0  0
   37.3800   22.8740   30.9200 C   0  0  0  0  0  0  0  0  0  0  0  0
   37.0690   22.2400   30.0440 H   0  0  0  0  0  0  0  0  0  0  0  0
   38.4860   22.6650   31.0250 H   0  0  0  0  0  0  0  0  0  0  0  0
   36.5920   22.1630   32.3640 S   0  0  0  0  0  0  0  0  0  0  0  0
   35.3130   22.7500   32.5000 H   0  0  0  0  0  0  0  0  0  0  0  0
  1  2  2  0  0  0  0
  1  6  1  0  0  0  0
  2  3  1  0  0  0  0
  3  8  1  0  0  0  0
  3  4  2  0  0  0  0
  5  4  1  0  0  0  0
  6  5  2  0  0  0  0
  7  2  1  0  0  0  0
  9 15  1  1  0  0  0
  9 14  1  0  0  0  0
  9 10  1  0  0  0  0
 10  5  1  6  0  0  0
 10 11  1  0  0  0  0
 12 11  1  0  0  0  0
 13 17  1  1  0  0  0
 13 12  1  0  0  0  0
 14 13  1  0  0  0  0
 14 19  1  1  0  0  0
 15 16  1  0  0  0  0
 17 18  1  0  0  0  0
 19 20  1  0  0  0  0
 21  1  1  0  0  0  0
 22 21  1  0  0  0  0
 22 24  1  0  0  0  0
 23 22  1  0  0  0  0
 25 28  1  0  0  0  0
 25 22  1  0  0  0  0
 26 25  1  0  0  0  0
 27 25  1  0  0  0  0
 28 30  1  0  0  0  0
 28 31  1  0  0  0  0
 29 28  1  0  0  0  0
 31 32  1  0  0  0  0
M  END
>  <minimizedAffinity>
-4.40615082

$$$$
