
 OpenBabel03272509083D

 43 46  0  0  1  0  0  0  0  0999 V2000
   33.3750   26.8990   47.3500 C   0  0  0  0  0  0  0  0  0  0  0  0
   33.5500   25.5280   47.5200 C   0  0  0  0  0  0  0  0  0  0  0  0
   33.9340   24.7210   46.4710 C   0  0  0  0  0  0  0  0  0  0  0  0
   34.1590   25.2370   45.2120 C   0  0  0  0  0  0  0  0  0  0  0  0
   33.9910   26.5690   45.0390 C   0  0  0  0  0  0  0  0  0  0  0  0
   33.6060   27.4100   46.0700 C   0  0  0  0  0  0  0  0  0  0  0  0
   33.3550   25.2020   48.5320 H   0  0  0  0  0  0  0  0  0  0  0  0
   34.0350   23.6780   46.7350 H   0  0  0  0  0  0  0  0  0  0  0  0
   34.4570   24.5730   44.4190 H   0  0  0  0  0  0  0  0  0  0  0  0
   34.1760   26.9500   44.0330 H   0  0  0  0  0  0  0  0  0  0  0  0
   32.0380   29.3060   45.6240 C   0  0  1  0  0  0  0  0  0  0  0  0
   33.4590   28.8500   45.7370 C   0  0  2  0  0  0  0  0  0  0  0  0
   34.0580   29.0910   44.4900 O   0  0  0  0  0  0  0  0  0  0  0  0
   34.1870   30.4610   44.2770 C   0  0  0  0  0  0  0  0  0  0  0  0
   32.8340   31.1060   44.1970 C   0  0  1  0  0  0  0  0  0  0  0  0
   32.0890   30.8220   45.4790 C   0  0  2  0  0  0  0  0  0  0  0  0
   31.4300   28.7870   44.4840 O   0  0  0  0  0  0  0  0  0  0  0  0
   32.0230   28.6630   43.7220 H   0  0  0  0  0  0  0  0  0  0  0  0
   32.9570   32.4510   43.9180 O   0  0  0  0  0  0  0  0  0  0  0  0
   32.2750   33.0350   44.3160 H   0  0  0  0  0  0  0  0  0  0  0  0
   32.7620   31.3180   46.5880 O   0  0  0  0  0  0  0  0  0  0  0  0
   32.4780   32.2370   46.8350 H   0  0  0  0  0  0  0  0  0  0  0  0
   32.9650   27.8220   48.4310 C   0  0  0  0  0  0  0  0  0  0  0  0
   32.1020   28.4570   48.1800 H   0  0  0  0  0  0  0  0  0  0  0  0
   32.5860   27.1510   49.2570 H   0  0  0  0  0  0  0  0  0  0  0  0
   35.2740   28.1980   49.2900 C   0  0  0  0  0  0  0  0  0  0  0  0
   34.0780   28.6240   48.9700 C   0  0  0  0  0  0  0  0  0  0  0  0
   37.3750   30.1840   51.5260 C   0  0  0  0  0  0  0  0  0  0  0  0
   38.0660   31.0000   50.6070 C   0  0  0  0  0  0  0  0  0  0  0  0
   37.7940   30.8480   49.2410 C   0  0  0  0  0  0  0  0  0  0  0  0
   36.8630   29.9080   48.8600 N   0  0  0  0  0  0  0  0  0  0  0  0
   36.2350   29.1550   49.8080 C   0  0  0  0  0  0  0  0  0  0  0  0
   36.4860   29.2920   51.1020 N   0  0  0  0  0  0  0  0  0  0  0  0
   37.5770   30.2930   52.5700 H   0  0  0  0  0  0  0  0  0  0  0  0
   38.7950   31.7360   50.9050 H   0  0  0  0  0  0  0  0  0  0  0  0
   38.4530   31.6410   48.2020 C   0  0  0  0  0  0  0  0  0  0  0  0
   38.7370   31.1430   46.9540 C   0  0  0  0  0  0  0  0  0  0  0  0
   39.3580   32.1550   46.2280 C   0  0  0  0  0  0  0  0  0  0  0  0
   39.4260   33.2250   47.0610 N   0  0  0  0  0  0  0  0  0  0  0  0
   38.8860   32.9110   48.2320 N   0  0  0  0  0  0  0  0  0  0  0  0
   38.5350   30.1650   46.5720 H   0  0  0  0  0  0  0  0  0  0  0  0
   39.7260   32.1410   45.2100 H   0  0  0  0  0  0  0  0  0  0  0  0
   39.8290   34.1880   46.8810 H   0  0  0  0  0  0  0  0  0  0  0  0
  1  2  1  0  0  0  0
  1 23  1  0  0  0  0
  2  7  1  0  0  0  0
  3  8  1  0  0  0  0
  3  2  2  0  0  0  0
  4  3  1  0  0  0  0
  5  4  2  0  0  0  0
  5  6  1  0  0  0  0
  6  1  2  0  0  0  0
  9  4  1  0  0  0  0
 10  5  1  0  0  0  0
 11 17  1  6  0  0  0
 11 12  1  0  0  0  0
 12  6  1  6  0  0  0
 13 12  1  0  0  0  0
 14 13  1  0  0  0  0
 15 19  1  1  0  0  0
 15 14  1  0  0  0  0
 15 16  1  0  0  0  0
 16 11  1  0  0  0  0
 16 21  1  1  0  0  0
 18 17  1  0  0  0  0
 19 20  1  0  0  0  0
 21 22  1  0  0  0  0
 23 27  1  0  0  0  0
 23 25  1  0  0  0  0
 24 23  1  0  0  0  0
 26 32  1  0  0  0  0
 27 26  2  0  0  0  0
 28 34  1  0  0  0  0
 29 35  1  0  0  0  0
 29 28  2  0  0  0  0
 30 29  1  0  0  0  0
 31 30  2  0  0  0  0
 31 32  1  0  0  0  0
 32 33  2  0  0  0  0
 33 28  1  0  0  0  0
 36 40  2  0  0  0  0
 36 30  1  0  0  0  0
 37 36  1  0  0  0  0
 38 37  2  0  0  0  0
 38 39  1  0  0  0  0
 39 40  1  0  0  0  0
 41 37  1  0  0  0  0
 42 38  1  0  0  0  0
 43 39  1  0  0  0  0
M  END
>  <minimizedAffinity>
-7.26366425

>  <minimizedRMSD>
0.992770076

$$$$
