
 OpenBabel03272500483D

 42 46  0  0  1  0  0  0  0  0999 V2000
   30.9510   28.3530   47.6430 C   0  0  1  0  0  0  0  0  0  0  0  0
   31.7110   26.9820   47.6440 C   0  0  0  0  0  0  0  0  0  0  0  0
   31.9900   28.0420   46.6430 C   0  0  2  0  0  0  0  0  0  0  0  0
   31.2110   29.0630   48.4320 H   0  0  0  0  0  0  0  0  0  0  0  0
   31.1050   26.0980   47.3830 H   0  0  0  0  0  0  0  0  0  0  0  0
   32.4630   26.8920   48.4610 H   0  0  0  0  0  0  0  0  0  0  0  0
   31.6730   27.7960   45.6020 H   0  0  0  0  0  0  0  0  0  0  0  0
   27.7320   28.5430   46.0250 C   0  0  0  0  0  0  0  0  0  0  0  0
   27.3700   27.9800   47.2370 C   0  0  0  0  0  0  0  0  0  0  0  0
   28.5360   27.8320   48.0130 C   0  0  0  0  0  0  0  0  0  0  0  0
   29.5490   28.2990   47.2640 N   0  0  0  0  0  0  0  0  0  0  0  0
   29.0410   28.7000   46.1250 N   0  0  0  0  0  0  0  0  0  0  0  0
   26.3750   27.6870   47.5730 H   0  0  0  0  0  0  0  0  0  0  0  0
   28.5840   27.4170   49.0170 H   0  0  0  0  0  0  0  0  0  0  0  0
   26.7190   30.1100   44.3510 C   0  0  0  0  0  0  0  0  0  0  0  0
   26.8020   28.8440   44.9730 C   0  0  0  0  0  0  0  0  0  0  0  0
   25.9300   27.8710   44.5230 C   0  0  0  0  0  0  0  0  0  0  0  0
   25.0540   28.1690   43.5270 N   0  0  0  0  0  0  0  0  0  0  0  0
   25.0090   29.3830   42.9640 C   0  0  0  0  0  0  0  0  0  0  0  0
   25.8570   30.3840   43.3770 N   0  0  0  0  0  0  0  0  0  0  0  0
   27.4230   30.8450   44.7350 H   0  0  0  0  0  0  0  0  0  0  0  0
   25.9610   26.8920   44.9730 H   0  0  0  0  0  0  0  0  0  0  0  0
   24.3050   29.6180   42.1650 H   0  0  0  0  0  0  0  0  0  0  0  0
   33.2910   28.7820   46.6810 C   0  0  0  0  0  0  0  0  0  0  0  0
   34.1660   28.8940   45.5990 C   0  0  0  0  0  0  0  0  0  0  0  0
   35.2350   29.6270   46.0140 N   0  0  0  0  0  0  0  0  0  0  0  0
   35.0360   29.9600   47.3060 C   0  0  0  0  0  0  0  0  0  0  0  0
   33.8530   29.4490   47.7200 N   0  0  0  0  0  0  0  0  0  0  0  0
   34.0400   28.4830   44.6020 H   0  0  0  0  0  0  0  0  0  0  0  0
   36.0590   29.8770   45.4160 H   0  0  0  0  0  0  0  0  0  0  0  0
   35.5790   30.8100   49.5590 C   0  0  1  0  0  0  0  0  0  0  0  0
   35.9970   30.7730   48.1270 C   0  0  1  0  0  0  0  0  0  0  0  0
   37.2690   30.2910   47.9420 O   0  0  0  0  0  0  0  0  0  0  0  0
   38.0810   30.3320   49.0510 C   0  0  0  0  0  0  0  0  0  0  0  0
   37.5720   29.5660   50.2380 C   0  0  2  0  0  0  0  0  0  0  0  0
   36.0780   29.5950   50.3330 C   0  0  2  0  0  0  0  0  0  0  0  0
   35.9440   31.9530   50.2420 O   0  0  0  0  0  0  0  0  0  0  0  0
   35.1990   32.3680   50.7500 H   0  0  0  0  0  0  0  0  0  0  0  0
   38.1850   30.1280   51.3650 O   0  0  0  0  0  0  0  0  0  0  0  0
   37.5330   30.5420   51.9810 H   0  0  0  0  0  0  0  0  0  0  0  0
   35.5000   28.4320   49.7960 O   0  0  0  0  0  0  0  0  0  0  0  0
   36.0180   27.6230   49.9610 H   0  0  0  0  0  0  0  0  0  0  0  0
  1  2  1  0  0  0  0
  1  4  1  1  0  0  0
  2  6  1  0  0  0  0
  3  7  1  6  0  0  0
  3 24  1  0  0  0  0
  3  1  1  0  0  0  0
  3  2  1  0  0  0  0
  5  2  1  0  0  0  0
  8 12  2  0  0  0  0
  8  9  1  0  0  0  0
  9 13  1  0  0  0  0
  9 10  2  0  0  0  0
 10 14  1  0  0  0  0
 11  1  1  0  0  0  0
 11 10  1  0  0  0  0
 12 11  1  0  0  0  0
 15 21  1  0  0  0  0
 15 16  1  0  0  0  0
 16  8  1  0  0  0  0
 17 22  1  0  0  0  0
 17 16  2  0  0  0  0
 18 17  1  0  0  0  0
 19 20  1  0  0  0  0
 19 18  2  0  0  0  0
 20 15  2  0  0  0  0
 23 19  1  0  0  0  0
 24 28  1  0  0  0  0
 25 26  1  0  0  0  0
 25 24  2  0  0  0  0
 26 27  1  0  0  0  0
 27 28  2  0  0  0  0
 29 25  1  0  0  0  0
 30 26  1  0  0  0  0
 31 37  1  1  0  0  0
 31 36  1  0  0  0  0
 32 27  1  6  0  0  0
 32 31  1  0  0  0  0
 33 32  1  0  0  0  0
 33 34  1  0  0  0  0
 34 35  1  0  0  0  0
 35 36  1  0  0  0  0
 35 39  1  1  0  0  0
 36 41  1  6  0  0  0
 37 38  1  0  0  0  0
 39 40  1  0  0  0  0
 41 42  1  0  0  0  0
M  END
>  <minimizedAffinity>
-5.66025877

>  <minimizedRMSD>
6.42513514

$$$$
