
 OpenBabel03272500093D

 42 45  0  0  1  0  0  0  0  0999 V2000
   37.3850   22.3260   33.4860 C   0  0  0  0  0  0  0  0  0  0  0  0
   36.4490   21.4450   32.9950 C   0  0  0  0  0  0  0  0  0  0  0  0
   35.7130   20.6420   33.8420 C   0  0  0  0  0  0  0  0  0  0  0  0
   35.9350   20.7390   35.2220 C   0  0  0  0  0  0  0  0  0  0  0  0
   36.8840   21.6320   35.7090 C   0  0  0  0  0  0  0  0  0  0  0  0
   37.5900   22.4070   34.8390 C   0  0  0  0  0  0  0  0  0  0  0  0
   36.2420   21.3340   31.9400 H   0  0  0  0  0  0  0  0  0  0  0  0
   34.9740   19.9480   33.4430 H   0  0  0  0  0  0  0  0  0  0  0  0
   35.3220   20.0780   35.8210 H   0  0  0  0  0  0  0  0  0  0  0  0
   37.0060   21.6560   36.7760 H   0  0  0  0  0  0  0  0  0  0  0  0
   38.2830   23.6580   36.8260 C   0  0  1  0  0  3  0  0  0  0  0  0
   38.5710   23.3520   35.3750 C   0  0  1  0  0  3  0  0  0  0  0  0
   39.8440   22.8220   35.1920 O   0  0  0  0  0  0  0  0  0  0  0  0
   40.7690   23.3080   36.1100 C   0  0  0  0  0  2  0  0  0  0  0  0
   40.4920   22.6370   37.4310 C   0  0  1  0  0  3  0  0  0  0  0  0
   39.0400   22.8210   37.8010 C   0  0  1  0  0  3  0  0  0  0  0  0
   38.4370   25.0050   37.1140 O   0  0  0  0  0  0  0  0  0  0  0  0
   38.1760   25.5440   36.3200 H   0  0  0  0  0  0  0  0  0  0  0  0
   40.7300   21.2650   37.3670 O   0  0  0  0  0  0  0  0  0  0  0  0
   40.4710   20.9190   38.2790 H   0  0  0  0  0  0  0  0  0  0  0  0
   39.0110   23.4970   39.0320 O   0  0  0  0  0  0  0  0  0  0  0  0
   38.4890   24.3350   38.9980 H   0  0  0  0  0  0  0  0  0  0  0  0
   38.0490   23.0650   32.5140 O   0  0  0  0  0  0  0  0  0  0  0  0
   35.8820   25.7900   31.6060 C   0  0  0  0  0  0  0  0  0  0  0  0
   36.6320   26.9320   31.9830 C   0  0  0  0  0  0  0  0  0  0  0  0
   37.8820   26.7230   32.5480 C   0  0  0  0  0  0  0  0  0  0  0  0
   38.3130   25.4410   32.7060 N   0  0  0  0  0  0  0  0  0  0  0  0
   37.5880   24.3830   32.3430 C   0  0  0  0  0  0  0  0  0  0  0  0
   36.3510   24.5420   31.7820 N   0  0  0  0  0  0  0  0  0  0  0  0
   34.8970   25.9480   31.1600 H   0  0  0  0  0  0  0  0  0  0  0  0
   38.4620   27.5870   32.8380 H   0  0  0  0  0  0  0  0  0  0  0  0
   36.0560   28.2080   31.7620 N   0  0  0  0  0  0  0  0  0  0  0  0
   35.2540   28.7940   32.6450 C   0  0  0  0  0  0  0  0  0  0  0  0
   34.7300   30.0470   32.3560 C   0  0  0  0  0  0  0  0  0  0  0  0
   35.0910   30.5820   31.1610 C   0  0  0  0  0  0  0  0  0  0  0  0
   34.6200   31.7300   30.8820 O   0  0  0  0  0  0  0  0  0  0  0  0
   35.8830   30.0350   30.2610 N   0  0  0  0  0  0  0  0  0  0  0  0
   36.3870   28.8040   30.5650 C   0  0  0  0  0  0  0  0  0  0  0  0
   37.1530   28.2560   29.7110 O   0  0  0  0  0  0  0  0  0  0  0  0
   35.0370   28.2650   33.5680 H   0  0  0  0  0  0  0  0  0  0  0  0
   34.0780   30.5060   33.0890 H   0  0  0  0  0  0  0  0  0  0  0  0
   36.1150   30.5090   29.3650 H   0  0  0  0  0  0  0  0  0  0  0  0
  1  6  1  0  0  0  0
  2  1  2  0  0  0  0
  2  3  1  0  0  0  0
  3  4  2  0  0  0  0
  4  5  1  0  0  0  0
  4  9  1  0  0  0  0
  5 10  1  0  0  0  0
  6  5  2  0  0  0  0
  7  2  1  0  0  0  0
  8  3  1  0  0  0  0
 11 17  1  1  0  0  0
 11 16  1  0  0  0  0
 12  6  1  1  0  0  0
 12 11  1  0  0  0  0
 13 12  1  0  0  0  0
 13 14  1  0  0  0  0
 14 15  1  0  0  0  0
 15 19  1  6  0  0  0
 15 16  1  0  0  0  0
 16 21  1  1  0  0  0
 18 17  1  0  0  0  0
 19 20  1  0  0  0  0
 22 21  1  0  0  0  0
 23  1  1  0  0  0  0
 24 29  2  0  0  0  0
 24 25  1  0  0  0  0
 25 26  2  0  0  0  0
 26 27  1  0  0  0  0
 26 31  1  0  0  0  0
 28 23  1  0  0  0  0
 28 27  2  0  0  0  0
 29 28  1  0  0  0  0
 30 24  1  0  0  0  0
 32 25  1  0  0  0  0
 32 33  1  0  0  0  0
 33 40  1  0  0  0  0
 34 33  2  0  0  0  0
 34 41  1  0  0  0  0
 35 34  1  0  0  0  0
 36 35  2  0  0  0  0
 37 38  1  0  0  0  0
 37 35  1  0  0  0  0
 38 32  1  0  0  0  0
 39 38  2  0  0  0  0
 42 37  1  0  0  0  0
M  END
>  <minimizedAffinity>
-7.12004089

$$$$

 OpenBabel03272500093D

 42 45  0  0  1  0  0  0  0  0999 V2000
   37.3390   22.3130   33.5730 C   0  0  0  0  0  0  0  0  0  0  0  0
   36.2990   21.5960   33.0260 C   0  0  0  0  0  0  0  0  0  0  0  0
   35.5120   20.7750   33.8070 C   0  0  0  0  0  0  0  0  0  0  0  0
   35.7910   20.6810   35.1770 C   0  0  0  0  0  0  0  0  0  0  0  0
   36.8450   21.4090   35.7200 C   0  0  0  0  0  0  0  0  0  0  0  0
   37.5970   22.2090   34.9140 C   0  0  0  0  0  0  0  0  0  0  0  0
   36.0460   21.6350   31.9770 H   0  0  0  0  0  0  0  0  0  0  0  0
   34.6910   20.2110   33.3650 H   0  0  0  0  0  0  0  0  0  0  0  0
   35.1330   20.0170   35.7230 H   0  0  0  0  0  0  0  0  0  0  0  0
   37.0050   21.2920   36.7760 H   0  0  0  0  0  0  0  0  0  0  0  0
   38.1720   24.2560   36.1290 C   0  0  1  0  0  3  0  0  0  0  0  0
   38.6910   22.9790   35.5110 C   0  0  1  0  0  3  0  0  0  0  0  0
   39.3480   22.1760   36.4370 O   0  0  0  0  0  0  0  0  0  0  0  0
   39.9910   22.9080   37.4280 C   0  0  0  0  0  2  0  0  0  0  0  0
   38.9330   23.4250   38.3680 C   0  0  1  0  0  3  0  0  0  0  0  0
   37.8740   24.1650   37.5880 C   0  0  1  0  0  3  0  0  0  0  0  0
   38.9980   25.3360   35.8650 O   0  0  0  0  0  0  0  0  0  0  0  0
   39.4090   25.2240   34.9660 H   0  0  0  0  0  0  0  0  0  0  0  0
   38.2950   22.3840   39.0430 O   0  0  0  0  0  0  0  0  0  0  0  0
   37.5870   22.8370   39.6000 H   0  0  0  0  0  0  0  0  0  0  0  0
   37.8400   25.4790   38.0830 O   0  0  0  0  0  0  0  0  0  0  0  0
   37.9840   26.1580   37.3800 H   0  0  0  0  0  0  0  0  0  0  0  0
   38.0430   23.0940   32.6640 O   0  0  0  0  0  0  0  0  0  0  0  0
   37.5920   26.6640   32.6440 C   0  0  0  0  0  0  0  0  0  0  0  0
   36.4160   26.8320   31.8710 C   0  0  0  0  0  0  0  0  0  0  0  0
   35.8040   25.6900   31.3740 C   0  0  0  0  0  0  0  0  0  0  0  0
   36.3670   24.4810   31.6550 N   0  0  0  0  0  0  0  0  0  0  0  0
   37.4750   24.3500   32.3840 C   0  0  0  0  0  0  0  0  0  0  0  0
   38.1110   25.4490   32.8940 N   0  0  0  0  0  0  0  0  0  0  0  0
   38.0780   27.5590   33.0380 H   0  0  0  0  0  0  0  0  0  0  0  0
   34.9070   25.8070   30.7850 H   0  0  0  0  0  0  0  0  0  0  0  0
   35.9450   28.1510   31.6570 N   0  0  0  0  0  0  0  0  0  0  0  0
   35.1270   28.7650   32.5060 C   0  0  0  0  0  0  0  0  0  0  0  0
   34.7100   30.0600   32.2270 C   0  0  0  0  0  0  0  0  0  0  0  0
   35.1860   30.6040   31.0770 C   0  0  0  0  0  0  0  0  0  0  0  0
   34.8130   31.7900   30.8070 O   0  0  0  0  0  0  0  0  0  0  0  0
   35.9970   30.0290   30.2110 N   0  0  0  0  0  0  0  0  0  0  0  0
   36.3940   28.7570   30.5050 C   0  0  0  0  0  0  0  0  0  0  0  0
   37.1770   28.1820   29.6830 O   0  0  0  0  0  0  0  0  0  0  0  0
   34.8140   28.2250   33.3950 H   0  0  0  0  0  0  0  0  0  0  0  0
   34.0440   30.5410   32.9320 H   0  0  0  0  0  0  0  0  0  0  0  0
   36.3190   30.5120   29.3480 H   0  0  0  0  0  0  0  0  0  0  0  0
  1  6  1  0  0  0  0
  2  1  2  0  0  0  0
  2  3  1  0  0  0  0
  3  4  2  0  0  0  0
  4  5  1  0  0  0  0
  4  9  1  0  0  0  0
  5 10  1  0  0  0  0
  6  5  2  0  0  0  0
  7  2  1  0  0  0  0
  8  3  1  0  0  0  0
 11 17  1  1  0  0  0
 11 16  1  0  0  0  0
 12  6  1  1  0  0  0
 12 11  1  0  0  0  0
 12 13  1  0  0  0  0
 13 14  1  0  0  0  0
 14 15  1  0  0  0  0
 15 19  1  6  0  0  0
 16 21  1  1  0  0  0
 16 15  1  0  0  0  0
 18 17  1  0  0  0  0
 19 20  1  0  0  0  0
 22 21  1  0  0  0  0
 23  1  1  0  0  0  0
 24 29  1  0  0  0  0
 24 30  1  0  0  0  0
 25 24  2  0  0  0  0
 26 27  2  0  0  0  0
 26 25  1  0  0  0  0
 27 28  1  0  0  0  0
 28 23  1  0  0  0  0
 28 29  2  0  0  0  0
 31 26  1  0  0  0  0
 32 25  1  0  0  0  0
 32 33  1  0  0  0  0
 33 40  1  0  0  0  0
 34 33  2  0  0  0  0
 34 41  1  0  0  0  0
 35 34  1  0  0  0  0
 36 35  2  0  0  0  0
 37 38  1  0  0  0  0
 37 35  1  0  0  0  0
 38 32  1  0  0  0  0
 39 38  2  0  0  0  0
 42 37  1  0  0  0  0
M  END
>  <minimizedAffinity>
-6.98837137

$$$$

 OpenBabel03272500093D

 42 45  0  0  1  0  0  0  0  0999 V2000
   37.4320   21.9500   33.4350 C   0  0  0  0  0  0  0  0  0  0  0  0
   36.3440   21.2700   32.9350 C   0  0  0  0  0  0  0  0  0  0  0  0
   35.4610   20.6240   33.7740 C   0  0  0  0  0  0  0  0  0  0  0  0
   35.6910   20.6690   35.1560 C   0  0  0  0  0  0  0  0  0  0  0  0
   36.7940   21.3580   35.6510 C   0  0  0  0  0  0  0  0  0  0  0  0
   37.6410   21.9840   34.7890 C   0  0  0  0  0  0  0  0  0  0  0  0
   36.1250   21.2070   31.8790 H   0  0  0  0  0  0  0  0  0  0  0  0
   34.6030   20.0880   33.3690 H   0  0  0  0  0  0  0  0  0  0  0  0
   34.9570   20.1380   35.7490 H   0  0  0  0  0  0  0  0  0  0  0  0
   36.9120   21.3530   36.7190 H   0  0  0  0  0  0  0  0  0  0  0  0
   38.3690   24.0930   35.7980 C   0  0  1  0  0  3  0  0  0  0  0  0
   38.7850   22.7170   35.3340 C   0  0  1  0  0  3  0  0  0  0  0  0
   39.3490   21.9640   36.3590 O   0  0  0  0  0  0  0  0  0  0  0  0
   40.0340   22.7410   37.2870 C   0  0  0  0  0  2  0  0  0  0  0  0
   39.0060   23.4450   38.1350 C   0  0  1  0  0  3  0  0  0  0  0  0
   38.0340   24.1850   37.2480 C   0  0  1  0  0  3  0  0  0  0  0  0
   39.2930   25.0630   35.4470 O   0  0  0  0  0  0  0  0  0  0  0  0
   39.7120   24.8200   34.5780 H   0  0  0  0  0  0  0  0  0  0  0  0
   38.2640   22.5410   38.8950 O   0  0  0  0  0  0  0  0  0  0  0  0
   37.5870   23.1100   39.3790 H   0  0  0  0  0  0  0  0  0  0  0  0
   38.1050   25.5430   37.6010 O   0  0  0  0  0  0  0  0  0  0  0  0
   38.3240   26.1270   36.8350 H   0  0  0  0  0  0  0  0  0  0  0  0
   38.2320   22.5500   32.4690 O   0  0  0  0  0  0  0  0  0  0  0  0
   38.4940   26.1100   32.0170 C   0  0  0  0  0  0  0  0  0  0  0  0
   37.2350   26.4540   31.4670 C   0  0  0  0  0  0  0  0  0  0  0  0
   36.3180   25.4310   31.2670 C   0  0  0  0  0  0  0  0  0  0  0  0
   36.6810   24.1630   31.6090 N   0  0  0  0  0  0  0  0  0  0  0  0
   37.8740   23.8650   32.1240 C   0  0  0  0  0  0  0  0  0  0  0  0
   38.8070   24.8420   32.3380 N   0  0  0  0  0  0  0  0  0  0  0  0
   39.2200   26.9110   32.1770 H   0  0  0  0  0  0  0  0  0  0  0  0
   35.3550   25.6830   30.8500 H   0  0  0  0  0  0  0  0  0  0  0  0
   36.9950   27.8160   31.1570 N   0  0  0  0  0  0  0  0  0  0  0  0
   37.2500   28.3320   29.9590 C   0  0  0  0  0  0  0  0  0  0  0  0
   36.9860   29.6760   29.7320 C   0  0  0  0  0  0  0  0  0  0  0  0
   36.4760   30.3690   30.7830 C   0  0  0  0  0  0  0  0  0  0  0  0
   36.2280   31.6020   30.5900 O   0  0  0  0  0  0  0  0  0  0  0  0
   36.2080   29.8940   31.9830 N   0  0  0  0  0  0  0  0  0  0  0  0
   36.4750   28.5710   32.1850 C   0  0  0  0  0  0  0  0  0  0  0  0
   36.2260   28.0910   33.3360 O   0  0  0  0  0  0  0  0  0  0  0  0
   37.6590   27.6760   29.1970 H   0  0  0  0  0  0  0  0  0  0  0  0
   37.2020   30.0770   28.7490 H   0  0  0  0  0  0  0  0  0  0  0  0
   35.8160   30.4900   32.7400 H   0  0  0  0  0  0  0  0  0  0  0  0
  1  6  1  0  0  0  0
  2  1  2  0  0  0  0
  2  3  1  0  0  0  0
  3  4  2  0  0  0  0
  4  5  1  0  0  0  0
  4  9  1  0  0  0  0
  5 10  1  0  0  0  0
  6  5  2  0  0  0  0
  7  2  1  0  0  0  0
  8  3  1  0  0  0  0
 11 17  1  1  0  0  0
 11 16  1  0  0  0  0
 12  6  1  1  0  0  0
 12 11  1  0  0  0  0
 12 13  1  0  0  0  0
 13 14  1  0  0  0  0
 14 15  1  0  0  0  0
 15 19  1  6  0  0  0
 16 21  1  1  0  0  0
 16 15  1  0  0  0  0
 18 17  1  0  0  0  0
 19 20  1  0  0  0  0
 22 21  1  0  0  0  0
 23  1  1  0  0  0  0
 24 30  1  0  0  0  0
 24 29  1  0  0  0  0
 25 24  2  0  0  0  0
 26 25  1  0  0  0  0
 26 27  2  0  0  0  0
 27 28  1  0  0  0  0
 28 29  2  0  0  0  0
 28 23  1  0  0  0  0
 31 26  1  0  0  0  0
 32 25  1  0  0  0  0
 32 38  1  0  0  0  0
 33 32  1  0  0  0  0
 34 33  2  0  0  0  0
 34 35  1  0  0  0  0
 35 37  1  0  0  0  0
 36 35  2  0  0  0  0
 37 38  1  0  0  0  0
 37 42  1  0  0  0  0
 38 39  2  0  0  0  0
 40 33  1  0  0  0  0
 41 34  1  0  0  0  0
M  END
>  <minimizedAffinity>
-6.8170743

$$$$

 OpenBabel03272500093D

 42 45  0  0  1  0  0  0  0  0999 V2000
   36.7160   28.7920   32.0770 C   0  0  0  0  0  0  0  0  0  0  0  0
   37.5520   27.8810   31.4710 C   0  0  0  0  0  0  0  0  0  0  0  0
   37.9940   28.0690   30.1780 C   0  0  0  0  0  0  0  0  0  0  0  0
   37.5750   29.2120   29.4840 C   0  0  0  0  0  0  0  0  0  0  0  0
   36.7290   30.1270   30.1050 C   0  0  0  0  0  0  0  0  0  0  0  0
   36.3160   29.9040   31.3830 C   0  0  0  0  0  0  0  0  0  0  0  0
   37.9010   26.9860   31.9650 H   0  0  0  0  0  0  0  0  0  0  0  0
   38.6550   27.3420   29.7080 H   0  0  0  0  0  0  0  0  0  0  0  0
   37.9610   29.2910   28.4760 H   0  0  0  0  0  0  0  0  0  0  0  0
   36.4460   30.9810   29.5170 H   0  0  0  0  0  0  0  0  0  0  0  0
   33.9980   30.6460   31.6440 C   0  0  1  0  0  3  0  0  0  0  0  0
   35.4410   30.8880   32.0210 C   0  0  1  0  0  3  0  0  0  0  0  0
   35.6400   30.8360   33.3970 O   0  0  0  0  0  0  0  0  0  0  0  0
   34.5370   31.2720   34.1210 C   0  0  0  0  0  2  0  0  0  0  0  0
   33.4950   30.1850   34.0570 C   0  0  1  0  0  3  0  0  0  0  0  0
   33.2310   29.8150   32.6180 C   0  0  1  0  0  3  0  0  0  0  0  0
   33.3250   31.8270   31.3730 O   0  0  0  0  0  0  0  0  0  0  0  0
   33.9550   32.4780   30.9630 H   0  0  0  0  0  0  0  0  0  0  0  0
   33.9220   29.0290   34.7080 O   0  0  0  0  0  0  0  0  0  0  0  0
   33.1770   28.3650   34.5640 H   0  0  0  0  0  0  0  0  0  0  0  0
   31.8680   30.0500   32.3740 O   0  0  0  0  0  0  0  0  0  0  0  0
   31.7140   30.6670   31.6190 H   0  0  0  0  0  0  0  0  0  0  0  0
   36.3540   28.4670   33.3790 O   0  0  0  0  0  0  0  0  0  0  0  0
   38.5520   26.6830   35.5990 C   0  0  0  0  0  0  0  0  0  0  0  0
   38.4780   25.3520   35.1180 C   0  0  0  0  0  0  0  0  0  0  0  0
   37.6600   25.1080   34.0240 C   0  0  0  0  0  0  0  0  0  0  0  0
   36.9790   26.1550   33.4800 N   0  0  0  0  0  0  0  0  0  0  0  0
   37.0650   27.3980   33.9520 C   0  0  0  0  0  0  0  0  0  0  0  0
   37.8600   27.6840   35.0280 N   0  0  0  0  0  0  0  0  0  0  0  0
   39.1950   26.8820   36.4600 H   0  0  0  0  0  0  0  0  0  0  0  0
   37.5980   24.0970   33.6490 H   0  0  0  0  0  0  0  0  0  0  0  0
   39.2420   24.3610   35.7850 N   0  0  0  0  0  0  0  0  0  0  0  0
   40.4950   24.0760   35.4450 C   0  0  0  0  0  0  0  0  0  0  0  0
   41.1780   23.0920   36.1480 C   0  0  0  0  0  0  0  0  0  0  0  0
   40.4880   22.4880   37.1500 C   0  0  0  0  0  0  0  0  0  0  0  0
   41.1000   21.5850   37.8040 O   0  0  0  0  0  0  0  0  0  0  0  0
   39.2470   22.7430   37.5170 N   0  0  0  0  0  0  0  0  0  0  0  0
   38.5950   23.7130   36.8130 C   0  0  0  0  0  0  0  0  0  0  0  0
   37.3960   23.9760   37.1480 O   0  0  0  0  0  0  0  0  0  0  0  0
   40.9400   24.6280   34.6240 H   0  0  0  0  0  0  0  0  0  0  0  0
   42.1970   22.8750   35.8560 H   0  0  0  0  0  0  0  0  0  0  0  0
   38.7850   22.2360   38.2980 H   0  0  0  0  0  0  0  0  0  0  0  0
  1 23  1  0  0  0  0
  2  7  1  0  0  0  0
  2  1  1  0  0  0  0
  3  2  2  0  0  0  0
  4  5  2  0  0  0  0
  4  3  1  0  0  0  0
  5  6  1  0  0  0  0
  6  1  2  0  0  0  0
  8  3  1  0  0  0  0
  9  4  1  0  0  0  0
 10  5  1  0  0  0  0
 11 17  1  1  0  0  0
 11 12  1  0  0  0  0
 11 16  1  0  0  0  0
 12  6  1  6  0  0  0
 12 13  1  0  0  0  0
 13 14  1  0  0  0  0
 15 14  1  0  0  0  0
 15 19  1  1  0  0  0
 16 21  1  6  0  0  0
 16 15  1  0  0  0  0
 18 17  1  0  0  0  0
 20 19  1  0  0  0  0
 22 21  1  0  0  0  0
 23 28  1  0  0  0  0
 24 30  1  0  0  0  0
 25 24  1  0  0  0  0
 25 32  1  0  0  0  0
 26 25  2  0  0  0  0
 27 28  2  0  0  0  0
 27 26  1  0  0  0  0
 28 29  1  0  0  0  0
 29 24  2  0  0  0  0
 31 26  1  0  0  0  0
 32 38  1  0  0  0  0
 33 32  1  0  0  0  0
 33 34  2  0  0  0  0
 34 35  1  0  0  0  0
 35 37  1  0  0  0  0
 35 36  2  0  0  0  0
 37 42  1  0  0  0  0
 38 39  2  0  0  0  0
 38 37  1  0  0  0  0
 40 33  1  0  0  0  0
 41 34  1  0  0  0  0
M  END
>  <minimizedAffinity>
-6.64856243

$$$$

 OpenBabel03272500093D

 42 45  0  0  1  0  0  0  0  0999 V2000
   37.2020   25.1680   32.0100 C   0  0  0  0  0  0  0  0  0  0  0  0
   36.0830   25.1160   31.2110 C   0  0  0  0  0  0  0  0  0  0  0  0
   35.3470   23.9560   31.0900 C   0  0  0  0  0  0  0  0  0  0  0  0
   35.7610   22.8210   31.7990 C   0  0  0  0  0  0  0  0  0  0  0  0
   36.8940   22.8830   32.6050 C   0  0  0  0  0  0  0  0  0  0  0  0
   37.5920   24.0480   32.6970 C   0  0  0  0  0  0  0  0  0  0  0  0
   35.7250   25.9640   30.6440 H   0  0  0  0  0  0  0  0  0  0  0  0
   34.4630   23.9240   30.4540 H   0  0  0  0  0  0  0  0  0  0  0  0
   35.1360   21.9490   31.6540 H   0  0  0  0  0  0  0  0  0  0  0  0
   37.1570   21.9780   33.1210 H   0  0  0  0  0  0  0  0  0  0  0  0
   38.4600   24.8170   34.8530 C   0  0  1  0  0  3  0  0  0  0  0  0
   38.7720   24.0960   33.5630 C   0  0  1  0  0  3  0  0  0  0  0  0
   39.2160   22.7960   33.7820 O   0  0  0  0  0  0  0  0  0  0  0  0
   39.9240   22.6590   34.9710 C   0  0  0  0  0  2  0  0  0  0  0  0
   38.9250   22.6920   36.0990 C   0  0  1  0  0  3  0  0  0  0  0  0
   38.0670   23.9280   35.9850 C   0  0  1  0  0  3  0  0  0  0  0  0
   39.4840   25.6690   35.2340 O   0  0  0  0  0  0  0  0  0  0  0  0
   39.9190   26.0450   34.4220 H   0  0  0  0  0  0  0  0  0  0  0  0
   38.0700   21.5910   36.0580 O   0  0  0  0  0  0  0  0  0  0  0  0
   37.4260   21.7400   36.8190 H   0  0  0  0  0  0  0  0  0  0  0  0
   38.2450   24.6650   37.1680 O   0  0  0  0  0  0  0  0  0  0  0  0
   38.5510   25.5890   37.0020 H   0  0  0  0  0  0  0  0  0  0  0  0
   37.8400   26.4030   32.0310 O   0  0  0  0  0  0  0  0  0  0  0  0
   36.4440   28.2300   34.7980 C   0  0  0  0  0  0  0  0  0  0  0  0
   35.8660   29.3620   34.1730 C   0  0  0  0  0  0  0  0  0  0  0  0
   35.9770   29.4620   32.7930 C   0  0  0  0  0  0  0  0  0  0  0  0
   36.6310   28.4710   32.1240 N   0  0  0  0  0  0  0  0  0  0  0  0
   37.1670   27.4160   32.7370 C   0  0  0  0  0  0  0  0  0  0  0  0
   37.0810   27.2770   34.0950 N   0  0  0  0  0  0  0  0  0  0  0  0
   36.3600   28.1460   35.8840 H   0  0  0  0  0  0  0  0  0  0  0  0
   35.5390   30.3210   32.3060 H   0  0  0  0  0  0  0  0  0  0  0  0
   35.2160   30.3170   34.9950 N   0  0  0  0  0  0  0  0  0  0  0  0
   35.8830   31.2320   35.6920 C   0  0  0  0  0  0  0  0  0  0  0  0
   35.1750   32.1350   36.4730 C   0  0  0  0  0  0  0  0  0  0  0  0
   33.8230   32.0020   36.4600 C   0  0  0  0  0  0  0  0  0  0  0  0
   33.1600   32.8220   37.1710 O   0  0  0  0  0  0  0  0  0  0  0  0
   33.1260   31.1100   35.7830 N   0  0  0  0  0  0  0  0  0  0  0  0
   33.8420   30.2330   35.0220 C   0  0  0  0  0  0  0  0  0  0  0  0
   33.1920   29.3630   34.3600 O   0  0  0  0  0  0  0  0  0  0  0  0
   36.9660   31.2390   35.6210 H   0  0  0  0  0  0  0  0  0  0  0  0
   35.7370   32.8720   37.0330 H   0  0  0  0  0  0  0  0  0  0  0  0
   32.0880   31.0710   35.8230 H   0  0  0  0  0  0  0  0  0  0  0  0
  1 23  1  0  0  0  0
  1  6  1  0  0  0  0
  2  1  2  0  0  0  0
  3  2  1  0  0  0  0
  3  4  2  0  0  0  0
  4  5  1  0  0  0  0
  5  6  2  0  0  0  0
  5 10  1  0  0  0  0
  7  2  1  0  0  0  0
  8  3  1  0  0  0  0
  9  4  1  0  0  0  0
 11 17  1  1  0  0  0
 11 16  1  0  0  0  0
 12  6  1  6  0  0  0
 12 13  1  0  0  0  0
 12 11  1  0  0  0  0
 13 14  1  0  0  0  0
 14 15  1  0  0  0  0
 15 19  1  6  0  0  0
 16 15  1  0  0  0  0
 16 21  1  1  0  0  0
 18 17  1  0  0  0  0
 19 20  1  0  0  0  0
 22 21  1  0  0  0  0
 23 28  1  0  0  0  0
 24 30  1  0  0  0  0
 25 24  1  0  0  0  0
 25 32  1  0  0  0  0
 26 25  2  0  0  0  0
 27 28  2  0  0  0  0
 27 26  1  0  0  0  0
 28 29  1  0  0  0  0
 29 24  2  0  0  0  0
 31 26  1  0  0  0  0
 32 38  1  0  0  0  0
 32 33  1  0  0  0  0
 33 34  2  0  0  0  0
 34 41  1  0  0  0  0
 35 34  1  0  0  0  0
 35 36  2  0  0  0  0
 37 42  1  0  0  0  0
 37 35  1  0  0  0  0
 38 37  1  0  0  0  0
 39 38  2  0  0  0  0
 40 33  1  0  0  0  0
M  END
>  <minimizedAffinity>
-6.60996675

$$$$

 OpenBabel03272500093D

 42 45  0  0  1  0  0  0  0  0999 V2000
   36.8590   22.2980   31.9050 C   0  0  0  0  0  0  0  0  0  0  0  0
   35.7000   21.6600   31.5250 C   0  0  0  0  0  0  0  0  0  0  0  0
   35.0160   20.8430   32.4010 C   0  0  0  0  0  0  0  0  0  0  0  0
   35.5240   20.6720   33.6950 C   0  0  0  0  0  0  0  0  0  0  0  0
   36.6960   21.3200   34.0710 C   0  0  0  0  0  0  0  0  0  0  0  0
   37.3410   22.1180   33.1750 C   0  0  0  0  0  0  0  0  0  0  0  0
   35.2700   21.7610   30.5390 H   0  0  0  0  0  0  0  0  0  0  0  0
   34.0990   20.3430   32.0900 H   0  0  0  0  0  0  0  0  0  0  0  0
   34.9340   20.0170   34.3240 H   0  0  0  0  0  0  0  0  0  0  0  0
   37.0310   21.1460   35.0760 H   0  0  0  0  0  0  0  0  0  0  0  0
   38.2380   24.1200   34.2620 C   0  0  1  0  0  3  0  0  0  0  0  0
   38.5640   22.8040   33.5970 C   0  0  1  0  0  3  0  0  0  0  0  0
   39.2840   21.9570   34.4330 O   0  0  0  0  0  0  0  0  0  0  0  0
   40.1170   22.6410   35.3110 C   0  0  0  0  0  2  0  0  0  0  0  0
   39.2470   23.2440   36.3840 C   0  0  1  0  0  3  0  0  0  0  0  0
   38.1470   24.0610   35.7500 C   0  0  1  0  0  3  0  0  0  0  0  0
   39.0980   25.1320   33.8650 O   0  0  0  0  0  0  0  0  0  0  0  0
   39.3670   24.9830   32.9190 H   0  0  0  0  0  0  0  0  0  0  0  0
   38.6350   22.2590   37.1580 O   0  0  0  0  0  0  0  0  0  0  0  0
   38.0500   22.7690   37.8040 H   0  0  0  0  0  0  0  0  0  0  0  0
   38.2840   25.3760   36.2230 O   0  0  0  0  0  0  0  0  0  0  0  0
   38.3770   26.0380   35.4960 H   0  0  0  0  0  0  0  0  0  0  0  0
   37.4370   23.0840   30.9160 O   0  0  0  0  0  0  0  0  0  0  0  0
   37.9470   26.6450   31.0150 C   0  0  0  0  0  0  0  0  0  0  0  0
   36.6290   27.1520   31.1290 C   0  0  0  0  0  0  0  0  0  0  0  0
   35.5880   26.2350   31.1700 C   0  0  0  0  0  0  0  0  0  0  0  0
   35.8920   24.9090   31.0980 N   0  0  0  0  0  0  0  0  0  0  0  0
   37.1410   24.4570   30.9900 C   0  0  0  0  0  0  0  0  0  0  0  0
   38.1980   25.3250   30.9470 N   0  0  0  0  0  0  0  0  0  0  0  0
   38.7710   27.3620   30.9830 H   0  0  0  0  0  0  0  0  0  0  0  0
   34.5800   26.6110   31.2580 H   0  0  0  0  0  0  0  0  0  0  0  0
   36.4610   28.5580   31.1920 N   0  0  0  0  0  0  0  0  0  0  0  0
   36.6490   29.3480   30.1400 C   0  0  0  0  0  0  0  0  0  0  0  0
   36.4620   30.7170   30.2810 C   0  0  0  0  0  0  0  0  0  0  0  0
   36.0950   31.1440   31.5170 C   0  0  0  0  0  0  0  0  0  0  0  0
   35.9200   32.3960   31.6620 O   0  0  0  0  0  0  0  0  0  0  0  0
   35.8990   30.3930   32.5830 N   0  0  0  0  0  0  0  0  0  0  0  0
   36.0870   29.0520   32.4220 C   0  0  0  0  0  0  0  0  0  0  0  0
   35.9040   28.3080   33.4370 O   0  0  0  0  0  0  0  0  0  0  0  0
   36.9420   28.8880   29.2020 H   0  0  0  0  0  0  0  0  0  0  0  0
   36.6200   31.3420   29.4110 H   0  0  0  0  0  0  0  0  0  0  0  0
   35.6170   30.7950   33.5000 H   0  0  0  0  0  0  0  0  0  0  0  0
  1  6  1  0  0  0  0
  2  1  2  0  0  0  0
  2  3  1  0  0  0  0
  3  4  2  0  0  0  0
  4  5  1  0  0  0  0
  4  9  1  0  0  0  0
  5 10  1  0  0  0  0
  6  5  2  0  0  0  0
  7  2  1  0  0  0  0
  8  3  1  0  0  0  0
 11 17  1  1  0  0  0
 11 16  1  0  0  0  0
 12  6  1  1  0  0  0
 12 11  1  0  0  0  0
 12 13  1  0  0  0  0
 13 14  1  0  0  0  0
 14 15  1  0  0  0  0
 15 19  1  6  0  0  0
 16 21  1  1  0  0  0
 16 15  1  0  0  0  0
 18 17  1  0  0  0  0
 19 20  1  0  0  0  0
 22 21  1  0  0  0  0
 23 28  1  0  0  0  0
 23  1  1  0  0  0  0
 24 25  1  0  0  0  0
 25 26  2  0  0  0  0
 25 32  1  0  0  0  0
 26 31  1  0  0  0  0
 27 26  1  0  0  0  0
 28 27  2  0  0  0  0
 29 28  1  0  0  0  0
 29 24  2  0  0  0  0
 30 24  1  0  0  0  0
 32 38  1  0  0  0  0
 33 34  2  0  0  0  0
 33 32  1  0  0  0  0
 34 35  1  0  0  0  0
 35 36  2  0  0  0  0
 35 37  1  0  0  0  0
 37 42  1  0  0  0  0
 38 37  1  0  0  0  0
 38 39  2  0  0  0  0
 40 33  1  0  0  0  0
 41 34  1  0  0  0  0
M  END
>  <minimizedAffinity>
-6.52187061

$$$$

 OpenBabel03272500093D

 42 45  0  0  1  0  0  0  0  0999 V2000
   36.9620   28.0030   33.1570 C   0  0  0  0  0  0  0  0  0  0  0  0
   38.0580   27.5230   32.4770 C   0  0  0  0  0  0  0  0  0  0  0  0
   38.1980   27.7220   31.1190 C   0  0  0  0  0  0  0  0  0  0  0  0
   37.1960   28.4260   30.4370 C   0  0  0  0  0  0  0  0  0  0  0  0
   36.0910   28.9070   31.1330 C   0  0  0  0  0  0  0  0  0  0  0  0
   35.9930   28.6890   32.4740 C   0  0  0  0  0  0  0  0  0  0  0  0
   38.8550   26.9750   32.9590 H   0  0  0  0  0  0  0  0  0  0  0  0
   39.0690   27.3380   30.5900 H   0  0  0  0  0  0  0  0  0  0  0  0
   37.3740   28.5410   29.3750 H   0  0  0  0  0  0  0  0  0  0  0  0
   35.3610   29.4370   30.5510 H   0  0  0  0  0  0  0  0  0  0  0  0
   35.0490   30.6640   33.5720 C   0  0  1  0  0  3  0  0  0  0  0  0
   34.8300   29.2190   33.1890 C   0  0  1  0  0  3  0  0  0  0  0  0
   33.7030   29.0510   32.3910 O   0  0  0  0  0  0  0  0  0  0  0  0
   32.6970   29.9680   32.6760 C   0  0  0  0  0  2  0  0  0  0  0  0
   33.1190   31.2960   32.1010 C   0  0  1  0  0  3  0  0  0  0  0  0
   34.4960   31.6550   32.6040 C   0  0  1  0  0  3  0  0  0  0  0  0
   34.6050   30.9350   34.8560 O   0  0  0  0  0  0  0  0  0  0  0  0
   34.7390   30.1320   35.4270 H   0  0  0  0  0  0  0  0  0  0  0  0
   33.1870   31.2530   30.7090 O   0  0  0  0  0  0  0  0  0  0  0  0
   33.5180   32.1670   30.4410 H   0  0  0  0  0  0  0  0  0  0  0  0
   34.3810   32.8770   33.2870 O   0  0  0  0  0  0  0  0  0  0  0  0
   34.7070   32.8280   34.2180 H   0  0  0  0  0  0  0  0  0  0  0  0
   36.9600   27.7250   34.5190 O   0  0  0  0  0  0  0  0  0  0  0  0
   39.6030   25.8180   36.0430 C   0  0  0  0  0  0  0  0  0  0  0  0
   39.2720   24.4840   35.6980 C   0  0  0  0  0  0  0  0  0  0  0  0
   38.1300   24.2800   34.9370 C   0  0  0  0  0  0  0  0  0  0  0  0
   37.3970   25.3680   34.5690 N   0  0  0  0  0  0  0  0  0  0  0  0
   37.7290   26.6140   34.9070 C   0  0  0  0  0  0  0  0  0  0  0  0
   38.8470   26.8600   35.6560 N   0  0  0  0  0  0  0  0  0  0  0  0
   40.5020   25.9850   36.6420 H   0  0  0  0  0  0  0  0  0  0  0  0
   37.8700   23.2670   34.6680 H   0  0  0  0  0  0  0  0  0  0  0  0
   40.1270   23.4480   36.1530 N   0  0  0  0  0  0  0  0  0  0  0  0
   41.2010   23.0590   35.4740 C   0  0  0  0  0  0  0  0  0  0  0  0
   41.9910   22.0380   35.9870 C   0  0  0  0  0  0  0  0  0  0  0  0
   41.5860   21.5090   37.1710 C   0  0  0  0  0  0  0  0  0  0  0  0
   42.2990   20.5730   37.6530 O   0  0  0  0  0  0  0  0  0  0  0  0
   40.5290   21.8680   37.8730 N   0  0  0  0  0  0  0  0  0  0  0  0
   39.7680   22.8730   37.3510 C   0  0  0  0  0  0  0  0  0  0  0  0
   38.7430   23.2360   38.0110 O   0  0  0  0  0  0  0  0  0  0  0  0
   41.4230   23.5590   34.5370 H   0  0  0  0  0  0  0  0  0  0  0  0
   42.8610   21.7350   35.4180 H   0  0  0  0  0  0  0  0  0  0  0  0
   40.2830   21.4140   38.7750 H   0  0  0  0  0  0  0  0  0  0  0  0
  1 23  1  0  0  0  0
  2  7  1  0  0  0  0
  2  1  1  0  0  0  0
  3  2  2  0  0  0  0
  4  3  1  0  0  0  0
  4  5  2  0  0  0  0
  5  6  1  0  0  0  0
  6  1  2  0  0  0  0
  8  3  1  0  0  0  0
  9  4  1  0  0  0  0
 10  5  1  0  0  0  0
 11 17  1  1  0  0  0
 12  6  1  6  0  0  0
 12 11  1  0  0  0  0
 13 14  1  0  0  0  0
 13 12  1  0  0  0  0
 15 19  1  6  0  0  0
 15 16  1  0  0  0  0
 15 14  1  0  0  0  0
 16 21  1  1  0  0  0
 16 11  1  0  0  0  0
 17 18  1  0  0  0  0
 20 19  1  0  0  0  0
 21 22  1  0  0  0  0
 23 28  1  0  0  0  0
 24 30  1  0  0  0  0
 25 24  1  0  0  0  0
 25 32  1  0  0  0  0
 26 25  2  0  0  0  0
 27 28  2  0  0  0  0
 27 26  1  0  0  0  0
 28 29  1  0  0  0  0
 29 24  2  0  0  0  0
 31 26  1  0  0  0  0
 32 38  1  0  0  0  0
 33 34  2  0  0  0  0
 33 32  1  0  0  0  0
 34 35  1  0  0  0  0
 35 36  2  0  0  0  0
 35 37  1  0  0  0  0
 37 42  1  0  0  0  0
 38 37  1  0  0  0  0
 38 39  2  0  0  0  0
 40 33  1  0  0  0  0
 41 34  1  0  0  0  0
M  END
>  <minimizedAffinity>
-6.33979607

$$$$

 OpenBabel03272500093D

 42 45  0  0  1  0  0  0  0  0999 V2000
   34.5320   31.3130   34.1370 C   0  0  0  0  0  0  0  0  0  0  0  0
   35.6990   31.7090   34.7500 C   0  0  0  0  0  0  0  0  0  0  0  0
   35.7400   31.9700   36.1040 C   0  0  0  0  0  0  0  0  0  0  0  0
   34.5630   31.8260   36.8520 C   0  0  0  0  0  0  0  0  0  0  0  0
   33.3880   31.4260   36.2230 C   0  0  0  0  0  0  0  0  0  0  0  0
   33.3910   31.1780   34.8840 C   0  0  0  0  0  0  0  0  0  0  0  0
   36.6300   31.8340   34.2170 H   0  0  0  0  0  0  0  0  0  0  0  0
   36.6680   32.2830   36.5800 H   0  0  0  0  0  0  0  0  0  0  0  0
   34.6730   32.0500   37.9060 H   0  0  0  0  0  0  0  0  0  0  0  0
   32.5230   31.3360   36.8530 H   0  0  0  0  0  0  0  0  0  0  0  0
   32.0510   29.2350   34.2340 C   0  0  1  0  0  3  0  0  0  0  0  0
   32.1470   30.7420   34.2460 C   0  0  1  0  0  3  0  0  0  0  0  0
   31.0770   31.3320   34.9100 O   0  0  0  0  0  0  0  0  0  0  0  0
   29.8990   30.6030   34.7920 C   0  0  0  0  0  2  0  0  0  0  0  0
   30.0180   29.4000   35.6920 C   0  0  1  0  0  3  0  0  0  0  0  0
   31.2890   28.6500   35.3750 C   0  0  1  0  0  3  0  0  0  0  0  0
   31.5690   28.7530   33.0270 O   0  0  0  0  0  0  0  0  0  0  0  0
   31.8790   29.3450   32.2900 H   0  0  0  0  0  0  0  0  0  0  0  0
   30.0820   29.7700   37.0350 O   0  0  0  0  0  0  0  0  0  0  0  0
   30.2050   28.9020   37.5330 H   0  0  0  0  0  0  0  0  0  0  0  0
   30.9170   27.3490   34.9980 O   0  0  0  0  0  0  0  0  0  0  0  0
   31.2540   27.0980   34.1040 H   0  0  0  0  0  0  0  0  0  0  0  0
   34.6450   31.0880   32.7700 O   0  0  0  0  0  0  0  0  0  0  0  0
   36.3060   28.6460   30.7150 C   0  0  0  0  0  0  0  0  0  0  0  0
   36.6460   27.6290   31.6410 C   0  0  0  0  0  0  0  0  0  0  0  0
   36.2850   27.8190   32.9680 C   0  0  0  0  0  0  0  0  0  0  0  0
   35.6290   28.9660   33.3000 N   0  0  0  0  0  0  0  0  0  0  0  0
   35.3220   29.9090   32.4090 C   0  0  0  0  0  0  0  0  0  0  0  0
   35.6580   29.7630   31.0920 N   0  0  0  0  0  0  0  0  0  0  0  0
   36.5880   28.5020   29.6690 H   0  0  0  0  0  0  0  0  0  0  0  0
   36.5390   27.0500   33.6810 H   0  0  0  0  0  0  0  0  0  0  0  0
   37.3320   26.4880   31.1540 N   0  0  0  0  0  0  0  0  0  0  0  0
   38.6400   26.4880   30.9170 C   0  0  0  0  0  0  0  0  0  0  0  0
   39.2400   25.3300   30.4410 C   0  0  0  0  0  0  0  0  0  0  0  0
   38.4170   24.2660   30.2530 C   0  0  0  0  0  0  0  0  0  0  0  0
   38.9520   23.1970   29.8180 O   0  0  0  0  0  0  0  0  0  0  0  0
   37.1180   24.2270   30.4760 N   0  0  0  0  0  0  0  0  0  0  0  0
   36.5490   25.3760   30.9430 C   0  0  0  0  0  0  0  0  0  0  0  0
   35.2960   25.3620   31.1660 O   0  0  0  0  0  0  0  0  0  0  0  0
   39.1940   27.4020   31.1060 H   0  0  0  0  0  0  0  0  0  0  0  0
   40.3070   25.3510   30.2540 H   0  0  0  0  0  0  0  0  0  0  0  0
   36.5520   23.3710   30.3070 H   0  0  0  0  0  0  0  0  0  0  0  0
  1  2  2  0  0  0  0
  1  6  1  0  0  0  0
  2  3  1  0  0  0  0
  3  8  1  0  0  0  0
  3  4  2  0  0  0  0
  4  9  1  0  0  0  0
  5  4  1  0  0  0  0
  5 10  1  0  0  0  0
  6  5  2  0  0  0  0
  7  2  1  0  0  0  0
 11 17  1  6  0  0  0
 11 12  1  0  0  0  0
 11 16  1  0  0  0  0
 12  6  1  1  0  0  0
 12 13  1  0  0  0  0
 14 13  1  0  0  0  0
 14 15  1  0  0  0  0
 15 19  1  1  0  0  0
 16 21  1  6  0  0  0
 16 15  1  0  0  0  0
 18 17  1  0  0  0  0
 19 20  1  0  0  0  0
 22 21  1  0  0  0  0
 23  1  1  0  0  0  0
 24 29  2  0  0  0  0
 24 25  1  0  0  0  0
 25 26  2  0  0  0  0
 26 27  1  0  0  0  0
 26 31  1  0  0  0  0
 28 23  1  0  0  0  0
 28 27  2  0  0  0  0
 29 28  1  0  0  0  0
 30 24  1  0  0  0  0
 32 25  1  0  0  0  0
 33 40  1  0  0  0  0
 33 32  1  0  0  0  0
 34 33  2  0  0  0  0
 35 34  1  0  0  0  0
 35 37  1  0  0  0  0
 36 35  2  0  0  0  0
 37 38  1  0  0  0  0
 38 32  1  0  0  0  0
 38 39  2  0  0  0  0
 41 34  1  0  0  0  0
 42 37  1  0  0  0  0
M  END
>  <minimizedAffinity>
-6.31057405

$$$$

 OpenBabel03272500093D

 42 45  0  0  1  0  0  0  0  0999 V2000
   37.2910   24.9560   32.1480 C   0  0  0  0  0  0  0  0  0  0  0  0
   36.2860   24.5660   31.2930 C   0  0  0  0  0  0  0  0  0  0  0  0
   35.7790   23.2840   31.3260 C   0  0  0  0  0  0  0  0  0  0  0  0
   36.3090   22.3760   32.2530 C   0  0  0  0  0  0  0  0  0  0  0  0
   37.3260   22.7790   33.1130 C   0  0  0  0  0  0  0  0  0  0  0  0
   37.7980   24.0540   33.0470 C   0  0  0  0  0  0  0  0  0  0  0  0
   35.8460   25.2290   30.5620 H   0  0  0  0  0  0  0  0  0  0  0  0
   34.9830   22.9850   30.6450 H   0  0  0  0  0  0  0  0  0  0  0  0
   35.8620   21.3900   32.2190 H   0  0  0  0  0  0  0  0  0  0  0  0
   37.6870   22.0340   33.7970 H   0  0  0  0  0  0  0  0  0  0  0  0
   38.2690   24.9990   35.2570 C   0  0  1  0  0  3  0  0  0  0  0  0
   38.8570   24.4610   33.9730 C   0  0  1  0  0  3  0  0  0  0  0  0
   39.6960   23.3750   34.1940 O   0  0  0  0  0  0  0  0  0  0  0  0
   40.3580   23.4420   35.4150 C   0  0  0  0  0  2  0  0  0  0  0  0
   39.3580   23.1080   36.4920 C   0  0  1  0  0  3  0  0  0  0  0  0
   38.1440   23.9950   36.3530 C   0  0  1  0  0  3  0  0  0  0  0  0
   38.9350   26.1290   35.7020 O   0  0  0  0  0  0  0  0  0  0  0  0
   39.2560   26.6520   34.9190 H   0  0  0  0  0  0  0  0  0  0  0  0
   38.9180   21.7890   36.3900 O   0  0  0  0  0  0  0  0  0  0  0  0
   38.2280   21.6930   37.1200 H   0  0  0  0  0  0  0  0  0  0  0  0
   38.0170   24.7120   37.5540 O   0  0  0  0  0  0  0  0  0  0  0  0
   38.0070   25.6900   37.4180 H   0  0  0  0  0  0  0  0  0  0  0  0
   37.7000   26.2750   31.9960 O   0  0  0  0  0  0  0  0  0  0  0  0
   36.1970   28.5110   34.3810 C   0  0  0  0  0  0  0  0  0  0  0  0
   35.1590   29.1210   33.6350 C   0  0  0  0  0  0  0  0  0  0  0  0
   35.0060   28.7350   32.3100 C   0  0  0  0  0  0  0  0  0  0  0  0
   35.8580   27.7990   31.8080 N   0  0  0  0  0  0  0  0  0  0  0  0
   36.8280   27.2400   32.5310 C   0  0  0  0  0  0  0  0  0  0  0  0
   37.0150   27.5910   33.8400 N   0  0  0  0  0  0  0  0  0  0  0  0
   36.3230   28.8110   35.4240 H   0  0  0  0  0  0  0  0  0  0  0  0
   34.2160   29.1940   31.7330 H   0  0  0  0  0  0  0  0  0  0  0  0
   34.3480   30.0840   34.2870 N   0  0  0  0  0  0  0  0  0  0  0  0
   33.2590   29.7530   34.9740 C   0  0  0  0  0  0  0  0  0  0  0  0
   32.5180   30.7540   35.5880 C   0  0  0  0  0  0  0  0  0  0  0  0
   32.9800   32.0220   35.4280 C   0  0  0  0  0  0  0  0  0  0  0  0
   32.3120   32.9500   35.9840 O   0  0  0  0  0  0  0  0  0  0  0  0
   34.0540   32.3890   34.7560 N   0  0  0  0  0  0  0  0  0  0  0  0
   34.7680   31.3890   34.1620 C   0  0  0  0  0  0  0  0  0  0  0  0
   35.8070   31.7200   33.5080 O   0  0  0  0  0  0  0  0  0  0  0  0
   32.9900   28.7030   35.0310 H   0  0  0  0  0  0  0  0  0  0  0  0
   31.6340   30.4640   36.1420 H   0  0  0  0  0  0  0  0  0  0  0  0
   34.3460   33.3840   34.6790 H   0  0  0  0  0  0  0  0  0  0  0  0
  1  6  1  0  0  0  0
  2  3  1  0  0  0  0
  2  1  2  0  0  0  0
  3  4  2  0  0  0  0
  4  5  1  0  0  0  0
  5 10  1  0  0  0  0
  6  5  2  0  0  0  0
  7  2  1  0  0  0  0
  8  3  1  0  0  0  0
  9  4  1  0  0  0  0
 11 17  1  1  0  0  0
 11 16  1  0  0  0  0
 12  6  1  6  0  0  0
 12 13  1  0  0  0  0
 12 11  1  0  0  0  0
 13 14  1  0  0  0  0
 14 15  1  0  0  0  0
 15 19  1  6  0  0  0
 16 15  1  0  0  0  0
 16 21  1  1  0  0  0
 18 17  1  0  0  0  0
 19 20  1  0  0  0  0
 22 21  1  0  0  0  0
 23  1  1  0  0  0  0
 23 28  1  0  0  0  0
 24 30  1  0  0  0  0
 25 32  1  0  0  0  0
 25 24  2  0  0  0  0
 26 25  1  0  0  0  0
 27 26  2  0  0  0  0
 27 28  1  0  0  0  0
 28 29  2  0  0  0  0
 29 24  1  0  0  0  0
 31 26  1  0  0  0  0
 32 33  1  0  0  0  0
 33 40  1  0  0  0  0
 33 34  2  0  0  0  0
 34 41  1  0  0  0  0
 35 34  1  0  0  0  0
 35 36  2  0  0  0  0
 37 35  1  0  0  0  0
 38 32  1  0  0  0  0
 38 37  1  0  0  0  0
 39 38  2  0  0  0  0
 42 37  1  0  0  0  0
M  END
>  <minimizedAffinity>
-6.23220825

$$$$
