
 OpenBabel03272505313D

 43 46  0  0  1  0  0  0  0  0999 V2000
   37.3200   31.1700   47.0950 N   0  0  0  0  0  0  0  0  0  0  0  0
   36.6490   30.9960   45.9250 C   0  0  0  0  0  0  0  0  0  0  0  0
   37.0790   31.5510   44.7350 C   0  0  0  0  0  0  0  0  0  0  0  0
   38.2600   32.3200   44.7640 C   0  0  0  0  0  0  0  0  0  0  0  0
   38.6950   32.8460   43.7120 O   0  0  0  0  0  0  0  0  0  0  0  0
   38.9320   32.4910   45.9530 N   0  0  0  0  0  0  0  0  0  0  0  0
   38.4180   31.9090   47.0240 C   0  0  0  0  0  0  0  0  0  0  0  0
   39.0590   32.0870   48.0850 O   0  0  0  0  0  0  0  0  0  0  0  0
   35.7310   30.3980   45.8970 H   0  0  0  0  0  0  0  0  0  0  0  0
   37.2770   29.3770   50.3490 C   0  0  0  0  0  0  0  0  0  0  0  0
   37.7470   29.9510   49.1510 C   0  0  0  0  0  0  0  0  0  0  0  0
   36.8640   30.5980   48.2850 C   0  0  0  0  0  0  0  0  0  0  0  0
   35.5600   30.6530   48.6340 N   0  0  0  0  0  0  0  0  0  0  0  0
   35.0930   30.1020   49.7900 C   0  0  0  0  0  0  0  0  0  0  0  0
   35.9570   29.4720   50.6320 N   0  0  0  0  0  0  0  0  0  0  0  0
   37.9810   28.8890   50.9890 H   0  0  0  0  0  0  0  0  0  0  0  0
   38.7730   29.9270   48.8400 H   0  0  0  0  0  0  0  0  0  0  0  0
   34.0730   30.1330   50.0850 H   0  0  0  0  0  0  0  0  0  0  0  0
   36.4030   31.3970   43.4600 C   0  0  0  0  0  0  0  0  0  0  0  0
   36.7500   30.4490   42.5370 C   0  0  0  0  0  0  0  0  0  0  0  0
   36.1420   30.2650   41.3200 C   0  0  0  0  0  0  0  0  0  0  0  0
   35.0730   31.1150   40.9830 C   0  0  0  0  0  0  0  0  0  0  0  0
   34.7500   32.0670   41.9470 C   0  0  0  0  0  0  0  0  0  0  0  0
   35.3890   32.1870   43.1140 N   0  0  0  0  0  0  0  0  0  0  0  0
   37.5720   29.7690   42.7570 H   0  0  0  0  0  0  0  0  0  0  0  0
   36.4170   29.5160   40.5930 H   0  0  0  0  0  0  0  0  0  0  0  0
   34.5120   31.0780   40.0650 H   0  0  0  0  0  0  0  0  0  0  0  0
   34.1870   34.4600   41.8160 C   0  0  2  0  0  3  0  0  0  0  0  0
   33.6370   33.0500   41.7460 C   0  0  1  0  0  3  0  0  0  0  0  0
   32.9940   32.7820   40.5410 O   0  0  0  0  0  0  0  0  0  0  0  0
   31.8860   33.5710   40.3830 C   0  0  0  0  0  2  0  0  0  0  0  0
   32.1180   35.0410   40.6860 C   0  0  2  0  0  3  0  0  0  0  0  0
   33.6140   35.2610   40.6580 C   0  0  1  0  0  3  0  0  0  0  0  0
   35.5860   34.4720   41.7870 O   0  0  0  0  0  0  0  0  0  0  0  0
   35.8960   34.6190   42.7370 H   0  0  0  0  0  0  0  0  0  0  0  0
   31.7170   35.2400   42.0230 O   0  0  0  0  0  0  0  0  0  0  0  0
   30.7680   34.9220   42.1280 H   0  0  0  0  0  0  0  0  0  0  0  0
   33.9590   36.5970   40.8550 O   0  0  0  0  0  0  0  0  0  0  0  0
   34.4370   36.9210   40.0430 H   0  0  0  0  0  0  0  0  0  0  0  0
   40.1400   33.2790   45.9760 C   0  0  0  0  0  0  0  0  0  0  0  0
   40.1060   34.2540   45.0390 F   0  0  0  0  0  0  0  0  0  0  0  0
   41.2930   32.5340   45.7250 F   0  0  0  0  0  0  0  0  0  0  0  0
   40.2490   33.8910   47.2290 F   0  0  0  0  0  0  0  0  0  0  0  0
  1 12  1  0  0  0  0
  2  1  1  0  0  0  0
  3  4  1  0  0  0  0
  3  2  2  0  0  0  0
  4  6  1  0  0  0  0
  5  4  2  0  0  0  0
  6 40  1  0  0  0  0
  6  7  1  0  0  0  0
  7  1  1  0  0  0  0
  7  8  2  0  0  0  0
  9  2  1  0  0  0  0
 10 15  1  0  0  0  0
 10 16  1  0  0  0  0
 11 10  2  0  0  0  0
 12 13  2  0  0  0  0
 12 11  1  0  0  0  0
 13 14  1  0  0  0  0
 14 18  1  0  0  0  0
 14 15  2  0  0  0  0
 17 11  1  0  0  0  0
 19  3  1  0  0  0  0
 20 25  1  0  0  0  0
 20 19  2  0  0  0  0
 21 20  1  0  0  0  0
 22 21  2  0  0  0  0
 22 23  1  0  0  0  0
 23 24  2  0  0  0  0
 24 19  1  0  0  0  0
 26 21  1  0  0  0  0
 27 22  1  0  0  0  0
 28 34  1  6  0  0  0
 29 28  1  0  0  0  0
 29 23  1  6  0  0  0
 30 29  1  0  0  0  0
 31 30  1  0  0  0  0
 31 32  1  0  0  0  0
 32 36  1  1  0  0  0
 33 32  1  0  0  0  0
 33 38  1  1  0  0  0
 33 28  1  0  0  0  0
 34 35  1  0  0  0  0
 36 37  1  0  0  0  0
 39 38  1  0  0  0  0
 40 43  1  0  0  0  0
 41 40  1  0  0  0  0
 42 40  1  0  0  0  0
M  END
>  <minimizedAffinity>
-6.96929741

>  <minimizedRMSD>
0.666232228

$$$$
