
     RDKit          3D

 28 29  0  0  0  0  0  0  0  0999 V2000
   37.3009   29.9948   51.1787 C   0  0  0  0  0  0  0  0  0  0  0  0
   37.9502   30.9149   50.3554 C   0  0  0  0  0  0  0  0  0  0  0  0
   37.2753   31.3838   49.2391 C   0  0  0  0  0  0  0  0  0  0  0  0
   36.0196   30.9308   48.9959 N   0  0  0  0  0  0  0  0  0  0  0  0
   35.4008   30.0270   49.8177 C   0  0  0  0  0  0  0  0  0  0  0  0
   36.0514   29.5810   50.8855 N   0  0  0  0  0  0  0  0  0  0  0  0
   38.0959   29.6116   52.2596 O   0  0  0  0  0  0  0  0  0  0  0  0
   38.9402   31.3219   50.4782 H   0  0  0  0  0  0  0  0  0  0  0  0
   34.4116   29.6631   49.6360 H   0  0  0  0  0  0  0  0  0  0  0  0
   37.6952   28.8384   52.8135 H   0  0  0  0  0  0  0  0  0  0  0  0
   38.6717   30.6463   46.9449 O   0  0  0  0  0  0  0  0  0  0  0  0
   37.9125   31.8290   46.8795 C   0  0  1  0  0  0  0  0  0  0  0  0
   37.8590   32.3638   48.2876 C   0  0  1  0  0  0  0  0  0  0  0  0
   37.0491   33.4854   48.2710 O   0  0  0  0  0  0  0  0  0  0  0  0
   37.5516   34.5452   47.5590 C   0  0  0  0  0  0  0  0  0  0  0  0
   38.5981   34.2266   46.5519 C   0  0  1  0  0  0  0  0  0  0  0  0
   39.8559   34.3941   47.1390 O   0  0  0  0  0  0  0  0  0  0  0  0
   38.5159   32.8466   45.9797 C   0  0  2  0  0  0  0  0  0  0  0  0
   37.8260   32.8355   44.7462 O   0  0  0  0  0  0  0  0  0  0  0  0
   39.5749   30.7905   46.5258 H   0  0  0  0  0  0  0  0  0  0  0  0
   36.8916   31.5142   46.5721 H   0  0  0  0  0  0  0  0  0  0  0  0
   38.8780   32.6631   48.5520 H   0  0  0  0  0  0  0  0  0  0  0  0
   37.9293   35.3060   48.2993 H   0  0  0  0  0  0  0  0  0  0  0  0
   36.6709   35.0756   47.0918 H   0  0  0  0  0  0  0  0  0  0  0  0
   38.4830   34.9736   45.7144 H   0  0  0  0  0  0  0  0  0  0  0  0
   40.5158   33.9775   46.4976 H   0  0  0  0  0  0  0  0  0  0  0  0
   39.5473   32.5275   45.7190 H   0  0  0  0  0  0  0  0  0  0  0  0
   38.4485   33.2388   44.0645 H   0  0  0  0  0  0  0  0  0  0  0  0
  1  7  1  0
  2  1  2  0
  3  2  1  0
  4  3  2  0
  4  5  1  0
  5  6  2  0
  6  1  1  0
  2  8  1  0
  5  9  1  0
  7 10  1  0
 11 12  1  0
 12 13  1  0
 13 14  1  0
 14 15  1  0
 15 16  1  0
 16 17  1  0
 16 18  1  0
 18 19  1  0
 18 12  1  0
 11 20  1  0
 12 21  1  6
 13 22  1  1
 15 23  1  0
 15 24  1  0
 16 25  1  6
 17 26  1  0
 18 27  1  6
 19 28  1  0
  3 13  1  0
M  ISO  3   8  14   9  14  10   3
M  END
>  <DihAtoms>  (1) 
1,2,12,11

>  <DihDeg>  (1) 
106.77630777056751

$$$$
