
     RDKit          3D

 51 54  0  0  0  0  0  0  0  0999 V2000
   34.9972   28.3856   49.4599 C   0  0  0  0  0  0  0  0  0  0  0  0
   34.2831   28.7686   48.4310 C   0  0  0  0  0  0  0  0  0  0  0  0
   37.3911   30.1631   51.5741 C   0  0  0  0  0  0  0  0  0  0  0  0
   38.0904   30.9306   50.6200 C   0  0  0  0  0  0  0  0  0  0  0  0
   37.7222   30.8189   49.2717 C   0  0  0  0  0  0  0  0  0  0  0  0
   36.6941   29.9638   48.9445 N   0  0  0  0  0  0  0  0  0  0  0  0
   36.0648   29.2542   49.9228 C   0  0  0  0  0  0  0  0  0  0  0  0
   36.4057   29.3531   51.2001 N   0  0  0  0  0  0  0  0  0  0  0  0
   38.3794   31.5681   48.1997 C   0  0  0  0  0  0  0  0  0  0  0  0
   38.5893   31.0442   46.9484 C   0  0  0  0  0  0  0  0  0  0  0  0
   39.2317   32.0169   46.1865 C   0  0  0  0  0  0  0  0  0  0  0  0
   39.3856   33.0901   47.0050 N   0  0  0  0  0  0  0  0  0  0  0  0
   38.8759   32.8137   48.1992 N   0  0  0  0  0  0  0  0  0  0  0  0
   33.1633   28.0399   47.8092 C   0  0  0  0  0  0  0  0  0  0  0  0
   33.5981   26.9466   46.9124 C   0  0  0  0  0  0  0  0  0  0  0  0
   33.7854   25.6297   47.3232 C   0  0  0  0  0  0  0  0  0  0  0  0
   34.1929   24.6563   46.4365 C   0  0  0  0  0  0  0  0  0  0  0  0
   34.4312   24.9463   45.1086 C   0  0  0  0  0  0  0  0  0  0  0  0
   34.2510   26.2246   44.7025 C   0  0  0  0  0  0  0  0  0  0  0  0
   33.8427   27.2278   45.5649 C   0  0  0  0  0  0  0  0  0  0  0  0
   34.7261   27.4137   49.9032 H   0  0  0  0  0  0  0  0  0  0  0  0
   34.5546   29.7246   48.0001 H   0  0  0  0  0  0  0  0  0  0  0  0
   37.6656   30.2425   52.6038 H   0  0  0  0  0  0  0  0  0  0  0  0
   38.8953   31.5999   50.8768 H   0  0  0  0  0  0  0  0  0  0  0  0
   38.3242   30.0739   46.5847 H   0  0  0  0  0  0  0  0  0  0  0  0
   39.5595   31.9742   45.1559 H   0  0  0  0  0  0  0  0  0  0  0  0
   39.8288   34.0293   46.7989 H   0  0  0  0  0  0  0  0  0  0  0  0
   32.4386   28.7350   47.3563 H   0  0  0  0  0  0  0  0  0  0  0  0
   32.5809   27.5279   48.6299 H   0  0  0  0  0  0  0  0  0  0  0  0
   33.5789   25.4843   48.3743 H   0  0  0  0  0  0  0  0  0  0  0  0
   34.3008   23.6770   46.8808 H   0  0  0  0  0  0  0  0  0  0  0  0
   34.7481   24.1573   44.4489 H   0  0  0  0  0  0  0  0  0  0  0  0
   34.4468   26.4246   43.6475 H   0  0  0  0  0  0  0  0  0  0  0  0
   34.1334   29.9234   46.9053 O   0  0  0  0  0  0  0  0  0  0  0  0
   34.5591   29.6232   45.6137 C   0  0  1  0  0  0  0  0  0  0  0  0
   33.6850   28.5858   44.9822 C   0  0  2  0  0  0  0  0  0  0  0  0
   32.3596   29.0088   45.1693 O   0  0  0  0  0  0  0  0  0  0  0  0
   32.1042   30.1401   44.3995 C   0  0  0  0  0  0  0  0  0  0  0  0
   32.9542   31.2880   44.8617 C   0  0  2  0  0  0  0  0  0  0  0  0
   32.6548   32.4283   44.1466 O   0  0  0  0  0  0  0  0  0  0  0  0
   34.4049   30.8805   44.7670 C   0  0  2  0  0  0  0  0  0  0  0  0
   34.7626   30.5469   43.4671 O   0  0  0  0  0  0  0  0  0  0  0  0
   33.1722   29.8641   47.0469 H   0  0  0  0  0  0  0  0  0  0  0  0
   35.6128   29.3007   45.7130 H   0  0  0  0  0  0  0  0  0  0  0  0
   33.8316   28.5885   43.8820 H   0  0  0  0  0  0  0  0  0  0  0  0
   32.3721   29.9207   43.3406 H   0  0  0  0  0  0  0  0  0  0  0  0
   31.0189   30.3388   44.5044 H   0  0  0  0  0  0  0  0  0  0  0  0
   32.7445   31.5192   45.9270 H   0  0  0  0  0  0  0  0  0  0  0  0
   33.4045   33.0420   43.9855 H   0  0  0  0  0  0  0  0  0  0  0  0
   35.0282   31.6988   45.1698 H   0  0  0  0  0  0  0  0  0  0  0  0
   35.1298   31.3145   42.9561 H   0  0  0  0  0  0  0  0  0  0  0  0
  1  7  1  0
  2  1  2  0
  4  3  2  0
  5  4  1  0
  6  5  2  0
  6  7  1  0
  7  8  2  0
  8  3  1  0
  9  5  1  0
 10  9  1  0
 11 10  2  0
 11 12  1  0
 12 13  1  0
 13  9  2  0
 14  2  1  0
 15 16  2  0
 15 14  1  0
 17 16  1  0
 18 17  2  0
 19 18  1  0
 19 20  2  0
 20 15  1  0
  1 21  1  0
  2 22  1  0
  3 23  1  0
  4 24  1  0
 10 25  1  0
 11 26  1  0
 12 27  1  0
 14 28  1  0
 14 29  1  0
 16 30  1  0
 17 31  1  0
 18 32  1  0
 19 33  1  0
 34 35  1  0
 35 36  1  0
 36 37  1  0
 37 38  1  0
 38 39  1  0
 39 40  1  0
 39 41  1  0
 41 42  1  0
 41 35  1  0
 34 43  1  0
 35 44  1  1
 36 45  1  6
 38 46  1  0
 38 47  1  0
 39 48  1  1
 40 49  1  0
 41 50  1  1
 42 51  1  0
 20 36  1  0
M  ISO  8  23  14  24  14  25  14  26  14  27   9  28   8  29   8  30  14
M  ISO  3  31  14  32  14  33  14
M  END
>  <DihAtoms>  (1) 
18,19,35,34

>  <DihDeg>  (1) 
89.81311418152589

$$$$
