
     RDKit          3D

 28 29  0  0  0  0  0  0  0  0999 V2000
   37.3009   29.9948   51.1787 C   0  0  0  0  0  0  0  0  0  0  0  0
   37.9502   30.9149   50.3554 C   0  0  0  0  0  0  0  0  0  0  0  0
   37.2753   31.3838   49.2391 C   0  0  0  0  0  0  0  0  0  0  0  0
   36.0196   30.9308   48.9959 N   0  0  0  0  0  0  0  0  0  0  0  0
   35.4008   30.0270   49.8177 C   0  0  0  0  0  0  0  0  0  0  0  0
   36.0514   29.5810   50.8855 N   0  0  0  0  0  0  0  0  0  0  0  0
   38.0959   29.6116   52.2596 O   0  0  0  0  0  0  0  0  0  0  0  0
   38.9402   31.3219   50.4782 H   0  0  0  0  0  0  0  0  0  0  0  0
   34.4116   29.6631   49.6360 H   0  0  0  0  0  0  0  0  0  0  0  0
   37.6952   28.8384   52.8135 H   0  0  0  0  0  0  0  0  0  0  0  0
   37.5723   30.8840   46.5153 O   0  0  0  0  0  0  0  0  0  0  0  0
   37.2996   32.2106   46.8965 C   0  0  1  0  0  0  0  0  0  0  0  0
   37.8590   32.3638   48.2876 C   0  0  1  0  0  0  0  0  0  0  0  0
   37.5341   33.6360   48.7237 O   0  0  0  0  0  0  0  0  0  0  0  0
   38.1451   34.6523   48.0335 C   0  0  0  0  0  0  0  0  0  0  0  0
   38.6617   34.3140   46.6808 C   0  0  1  0  0  0  0  0  0  0  0  0
   40.0103   33.9610   46.7876 O   0  0  0  0  0  0  0  0  0  0  0  0
   37.9294   33.2066   45.9907 C   0  0  2  0  0  0  0  0  0  0  0  0
   36.9484   33.7055   45.1040 O   0  0  0  0  0  0  0  0  0  0  0  0
   38.3002   30.8654   45.8211 H   0  0  0  0  0  0  0  0  0  0  0  0
   36.1915   32.2889   46.9405 H   0  0  0  0  0  0  0  0  0  0  0  0
   38.9471   32.2826   48.2025 H   0  0  0  0  0  0  0  0  0  0  0  0
   38.9694   35.0604   48.6843 H   0  0  0  0  0  0  0  0  0  0  0  0
   37.4141   35.5124   47.9976 H   0  0  0  0  0  0  0  0  0  0  0  0
   38.5768   35.2492   46.0558 H   0  0  0  0  0  0  0  0  0  0  0  0
   40.2576   33.5498   45.8987 H   0  0  0  0  0  0  0  0  0  0  0  0
   38.6535   32.6831   45.3310 H   0  0  0  0  0  0  0  0  0  0  0  0
   37.4417   34.0732   44.3062 H   0  0  0  0  0  0  0  0  0  0  0  0
  1  7  1  0
  2  1  2  0
  3  2  1  0
  4  3  2  0
  4  5  1  0
  5  6  2  0
  6  1  1  0
  2  8  1  0
  5  9  1  0
  7 10  1  0
 11 12  1  0
 12 13  1  0
 13 14  1  0
 14 15  1  0
 15 16  1  0
 16 17  1  0
 16 18  1  0
 18 19  1  0
 18 12  1  0
 11 20  1  0
 12 21  1  1
 13 22  1  6
 15 23  1  0
 15 24  1  0
 16 25  1  6
 17 26  1  0
 18 27  1  6
 19 28  1  0
  3 13  1  0
M  ISO  3   8  14   9  14  10   3
M  END
>  <DihAtoms>  (1) 
1,2,12,11

>  <DihDeg>  (1) 
106.77630777056751

$$$$
