
 OpenBabel03272506033D

 49 52  0  0  1  0  0  0  0  0999 V2000
   36.7340   28.5230   33.3120 C   0  0  2  0  0  0  0  0  0  0  0  0
   35.8690   29.1060   34.3270 C   0  0  0  0  0  0  0  0  0  0  0  0
   34.4130   29.3370   33.8140 C   0  0  2  0  0  0  0  0  0  0  0  0
   34.3350   30.1910   32.6530 C   0  0  0  0  0  0  0  0  0  0  0  0
   35.4720   29.9700   31.6500 C   0  0  0  0  0  0  0  0  0  0  0  0
   36.1520   28.6550   31.8970 C   0  0  0  0  0  0  0  0  0  0  0  0
   37.7080   29.0920   33.2200 H   0  0  0  0  0  0  0  0  0  0  0  0
   36.2040   30.1890   34.4920 H   0  0  0  0  0  0  0  0  0  0  0  0
   35.7450   28.7100   35.3070 H   0  0  0  0  0  0  0  0  0  0  0  0
   33.9640   28.3430   33.6620 H   0  0  0  0  0  0  0  0  0  0  0  0
   34.3960   31.2630   32.9200 H   0  0  0  0  0  0  0  0  0  0  0  0
   33.3450   30.0680   32.1710 H   0  0  0  0  0  0  0  0  0  0  0  0
   36.1720   30.8070   31.6050 H   0  0  0  0  0  0  0  0  0  0  0  0
   34.9960   29.8820   30.6530 H   0  0  0  0  0  0  0  0  0  0  0  0
   35.4350   27.8340   31.7660 H   0  0  0  0  0  0  0  0  0  0  0  0
   36.9630   28.5360   31.1730 H   0  0  0  0  0  0  0  0  0  0  0  0
   35.8010   31.6450   35.0200 Cl  0  0  0  0  0  0  0  0  0  0  0  0
   34.3130   31.0050   35.6690 C   0  0  0  0  0  0  0  0  0  0  0  0
   33.7370   29.9560   34.9960 C   0  0  0  0  0  0  0  0  0  0  0  0
   32.5420   29.5320   35.5560 C   0  0  0  0  0  0  0  0  0  0  0  0
   31.9820   30.1050   36.6800 C   0  0  0  0  0  0  0  0  0  0  0  0
   32.6350   31.1690   37.3060 C   0  0  0  0  0  0  0  0  0  0  0  0
   33.8410   31.6300   36.7780 C   0  0  0  0  0  0  0  0  0  0  0  0
   32.0260   28.7100   35.0760 H   0  0  0  0  0  0  0  0  0  0  0  0
   31.0490   29.6990   37.0330 H   0  0  0  0  0  0  0  0  0  0  0  0
   32.2080   31.6200   38.1810 H   0  0  0  0  0  0  0  0  0  0  0  0
   34.5010   32.7100   37.4150 N   0  0  0  0  0  0  0  0  0  0  0  0
   33.9500   33.5070   37.0800 H   0  0  0  0  0  0  0  0  0  0  0  0
   35.3220   32.7540   38.0580 H   0  0  0  0  0  0  0  0  0  0  0  0
   37.0890   27.1180   33.4860 C   0  0  0  0  0  0  0  0  0  0  0  0
   36.7610   26.3080   32.4090 C   0  0  0  0  0  0  0  0  0  0  0  0
   37.0820   24.9560   32.4590 C   0  0  0  0  0  0  0  0  0  0  0  0
   37.7240   24.4760   33.6040 N   0  0  0  0  0  0  0  0  0  0  0  0
   38.0270   25.2910   34.6300 C   0  0  0  0  0  0  0  0  0  0  0  0
   37.6960   26.5870   34.5330 N   0  0  0  0  0  0  0  0  0  0  0  0
   36.2830   26.4060   31.4440 H   0  0  0  0  0  0  0  0  0  0  0  0
   36.9410   24.1490   31.7800 H   0  0  0  0  0  0  0  0  0  0  0  0
   38.7280   23.2900   35.8140 C   0  0  2  0  0  3  0  0  0  0  0  0
   38.7060   24.7820   35.8410 C   0  0  2  0  0  3  0  0  0  0  0  0
   38.1380   25.2950   37.0040 O   0  0  0  0  0  0  0  0  0  0  0  0
   37.7940   24.3150   37.9120 C   0  0  0  0  0  2  0  0  0  0  0  0
   38.9300   23.3800   38.2620 C   0  0  2  0  0  3  0  0  0  0  0  0
   39.3590   22.6700   37.0150 C   0  0  2  0  0  3  0  0  0  0  0  0
   39.4890   22.9060   34.7010 O   0  0  0  0  0  0  0  0  0  0  0  0
   38.9750   22.3050   34.0900 H   0  0  0  0  0  0  0  0  0  0  0  0
   38.4370   22.4590   39.1670 O   0  0  0  0  0  0  0  0  0  0  0  0
   38.7760   21.5630   38.9260 H   0  0  0  0  0  0  0  0  0  0  0  0
   40.7520   22.6680   36.9080 O   0  0  0  0  0  0  0  0  0  0  0  0
   41.0130   22.9500   35.9960 H   0  0  0  0  0  0  0  0  0  0  0  0
  1  7  1  1  0  0  0
  1 30  1  0  0  0  0
  1  2  1  0  0  0  0
  2  8  1  0  0  0  0
  2  9  1  0  0  0  0
  3 10  1  6  0  0  0
  3  2  1  0  0  0  0
  3 19  1  0  0  0  0
  4 11  1  0  0  0  0
  4  3  1  0  0  0  0
  5  6  1  0  0  0  0
  5  4  1  0  0  0  0
  6  1  1  0  0  0  0
 12  4  1  0  0  0  0
 13  5  1  0  0  0  0
 14  5  1  0  0  0  0
 15  6  1  0  0  0  0
 16  6  1  0  0  0  0
 17 18  1  0  0  0  0
 18 23  1  0  0  0  0
 19 20  1  0  0  0  0
 19 18  2  0  0  0  0
 20 21  2  0  0  0  0
 21 25  1  0  0  0  0
 21 22  1  0  0  0  0
 22 26  1  0  0  0  0
 23 22  2  0  0  0  0
 23 27  1  0  0  0  0
 24 20  1  0  0  0  0
 27 29  1  0  0  0  0
 28 27  1  0  0  0  0
 30 35  1  0  0  0  0
 31 32  1  0  0  0  0
 31 30  2  0  0  0  0
 32 33  2  0  0  0  0
 33 34  1  0  0  0  0
 35 34  2  0  0  0  0
 36 31  1  0  0  0  0
 37 32  1  0  0  0  0
 38 44  1  6  0  0  0
 38 39  1  0  0  0  0
 38 43  1  0  0  0  0
 39 34  1  6  0  0  0
 39 40  1  0  0  0  0
 40 41  1  0  0  0  0
 41 42  1  0  0  0  0
 42 46  1  1  0  0  0
 43 48  1  6  0  0  0
 43 42  1  0  0  0  0
 45 44  1  0  0  0  0
 47 46  1  0  0  0  0
 49 48  1  0  0  0  0
M  END
>  <minimizedAffinity>
-7.87395144

$$$$

 OpenBabel03272506033D

 49 52  0  0  1  0  0  0  0  0999 V2000
   36.9470   28.2790   32.9360 C   0  0  2  0  0  0  0  0  0  0  0  0
   36.3740   29.0860   34.0020 C   0  0  0  0  0  0  0  0  0  0  0  0
   34.8640   29.4040   33.7690 C   0  0  2  0  0  0  0  0  0  0  0  0
   34.6000   30.0950   32.5290 C   0  0  0  0  0  0  0  0  0  0  0  0
   35.4690   29.6150   31.3620 C   0  0  0  0  0  0  0  0  0  0  0  0
   36.0810   28.2790   31.6670 C   0  0  0  0  0  0  0  0  0  0  0  0
   37.9190   28.7190   32.5590 H   0  0  0  0  0  0  0  0  0  0  0  0
   36.8200   30.1380   33.9230 H   0  0  0  0  0  0  0  0  0  0  0  0
   36.4370   28.8430   35.0360 H   0  0  0  0  0  0  0  0  0  0  0  0
   34.3150   28.4540   33.8700 H   0  0  0  0  0  0  0  0  0  0  0  0
   34.8020   31.1800   32.6060 H   0  0  0  0  0  0  0  0  0  0  0  0
   33.5220   30.0160   32.2860 H   0  0  0  0  0  0  0  0  0  0  0  0
   36.2060   30.3560   31.0440 H   0  0  0  0  0  0  0  0  0  0  0  0
   34.7810   29.4440   30.5100 H   0  0  0  0  0  0  0  0  0  0  0  0
   35.2910   27.5320   31.8170 H   0  0  0  0  0  0  0  0  0  0  0  0
   36.7030   27.9740   30.8200 H   0  0  0  0  0  0  0  0  0  0  0  0
   32.1420   29.0350   34.8480 Cl  0  0  0  0  0  0  0  0  0  0  0  0
   33.2600   30.1990   35.5090 C   0  0  0  0  0  0  0  0  0  0  0  0
   34.5140   30.2490   34.9520 C   0  0  0  0  0  0  0  0  0  0  0  0
   35.3500   31.1740   35.5580 C   0  0  0  0  0  0  0  0  0  0  0  0
   34.9630   31.9700   36.6190 C   0  0  0  0  0  0  0  0  0  0  0  0
   33.6670   31.8560   37.1260 C   0  0  0  0  0  0  0  0  0  0  0  0
   32.7910   30.9380   36.5470 C   0  0  0  0  0  0  0  0  0  0  0  0
   36.3580   31.2680   35.1750 H   0  0  0  0  0  0  0  0  0  0  0  0
   35.6920   32.6560   37.0160 H   0  0  0  0  0  0  0  0  0  0  0  0
   33.3570   32.4710   37.9490 H   0  0  0  0  0  0  0  0  0  0  0  0
   31.4760   30.8250   37.0640 N   0  0  0  0  0  0  0  0  0  0  0  0
   31.6400   30.2680   37.9080 H   0  0  0  0  0  0  0  0  0  0  0  0
   30.5540   31.1850   36.7310 H   0  0  0  0  0  0  0  0  0  0  0  0
   37.2200   26.8800   33.2520 C   0  0  0  0  0  0  0  0  0  0  0  0
   36.8360   25.9850   32.2640 C   0  0  0  0  0  0  0  0  0  0  0  0
   37.0770   24.6290   32.4520 C   0  0  0  0  0  0  0  0  0  0  0  0
   37.7000   24.2310   33.6380 N   0  0  0  0  0  0  0  0  0  0  0  0
   38.0590   25.1270   34.5750 C   0  0  0  0  0  0  0  0  0  0  0  0
   37.8030   26.4230   34.3470 N   0  0  0  0  0  0  0  0  0  0  0  0
   36.3570   26.0120   31.2950 H   0  0  0  0  0  0  0  0  0  0  0  0
   36.8830   23.7660   31.8590 H   0  0  0  0  0  0  0  0  0  0  0  0
   38.8630   23.2190   35.8440 C   0  0  2  0  0  3  0  0  0  0  0  0
   38.7160   24.7040   35.8300 C   0  0  2  0  0  3  0  0  0  0  0  0
   38.0510   25.1950   36.9500 O   0  0  0  0  0  0  0  0  0  0  0  0
   37.7450   24.2100   37.8670 C   0  0  0  0  0  2  0  0  0  0  0  0
   38.9350   23.3820   38.2960 C   0  0  2  0  0  3  0  0  0  0  0  0
   39.4820   22.6820   37.0900 C   0  0  2  0  0  3  0  0  0  0  0  0
   39.7070   22.8750   34.7790 O   0  0  0  0  0  0  0  0  0  0  0  0
   39.2750   22.2190   34.1610 H   0  0  0  0  0  0  0  0  0  0  0  0
   38.4750   22.4440   39.2010 O   0  0  0  0  0  0  0  0  0  0  0  0
   38.8990   21.5750   39.0010 H   0  0  0  0  0  0  0  0  0  0  0  0
   40.8750   22.7950   37.0500 O   0  0  0  0  0  0  0  0  0  0  0  0
   41.1570   23.0760   36.1430 H   0  0  0  0  0  0  0  0  0  0  0  0
  1  7  1  6  0  0  0
  1 30  1  0  0  0  0
  1  2  1  0  0  0  0
  2  9  1  0  0  0  0
  3 10  1  1  0  0  0
  3  2  1  0  0  0  0
  3 19  1  0  0  0  0
  4 11  1  0  0  0  0
  4  3  1  0  0  0  0
  5  6  1  0  0  0  0
  5  4  1  0  0  0  0
  6 15  1  0  0  0  0
  6  1  1  0  0  0  0
  8  2  1  0  0  0  0
 12  4  1  0  0  0  0
 13  5  1  0  0  0  0
 14  5  1  0  0  0  0
 16  6  1  0  0  0  0
 17 18  1  0  0  0  0
 18 23  1  0  0  0  0
 19 18  2  0  0  0  0
 19 20  1  0  0  0  0
 20 21  2  0  0  0  0
 21 25  1  0  0  0  0
 21 22  1  0  0  0  0
 22 26  1  0  0  0  0
 23 27  1  0  0  0  0
 23 22  2  0  0  0  0
 24 20  1  0  0  0  0
 27 28  1  0  0  0  0
 29 27  1  0  0  0  0
 30 35  1  0  0  0  0
 31 32  1  0  0  0  0
 31 30  2  0  0  0  0
 32 33  2  0  0  0  0
 33 34  1  0  0  0  0
 35 34  2  0  0  0  0
 36 31  1  0  0  0  0
 37 32  1  0  0  0  0
 38 44  1  6  0  0  0
 38 43  1  0  0  0  0
 39 34  1  6  0  0  0
 39 38  1  0  0  0  0
 39 40  1  0  0  0  0
 40 41  1  0  0  0  0
 41 42  1  0  0  0  0
 42 46  1  1  0  0  0
 43 48  1  6  0  0  0
 43 42  1  0  0  0  0
 45 44  1  0  0  0  0
 47 46  1  0  0  0  0
 49 48  1  0  0  0  0
M  END
>  <minimizedAffinity>
-7.69132853

$$$$

 OpenBabel03272506033D

 49 52  0  0  1  0  0  0  0  0999 V2000
   37.5540   26.8470   33.1270 C   0  0  2  0  0  0  0  0  0  0  0  0
   38.9970   26.6690   33.1870 C   0  0  0  0  0  0  0  0  0  0  0  0
   39.4940   26.2650   34.6100 C   0  0  2  0  0  0  0  0  0  0  0  0
   39.1430   27.2150   35.6390 C   0  0  0  0  0  0  0  0  0  0  0  0
   37.7500   27.8270   35.4610 C   0  0  0  0  0  0  0  0  0  0  0  0
   36.9220   27.0040   34.5190 C   0  0  0  0  0  0  0  0  0  0  0  0
   37.2770   27.8260   32.6310 H   0  0  0  0  0  0  0  0  0  0  0  0
   39.4810   27.7030   33.0860 H   0  0  0  0  0  0  0  0  0  0  0  0
   39.5510   26.0460   32.5260 H   0  0  0  0  0  0  0  0  0  0  0  0
   39.1210   25.2470   34.8050 H   0  0  0  0  0  0  0  0  0  0  0  0
   39.8330   28.0800   35.6590 H   0  0  0  0  0  0  0  0  0  0  0  0
   39.2480   26.7360   36.6330 H   0  0  0  0  0  0  0  0  0  0  0  0
   37.7780   28.8840   35.1880 H   0  0  0  0  0  0  0  0  0  0  0  0
   37.2490   27.7530   36.4470 H   0  0  0  0  0  0  0  0  0  0  0  0
   36.7880   25.9930   34.9260 H   0  0  0  0  0  0  0  0  0  0  0  0
   35.9420   27.4750   34.4060 H   0  0  0  0  0  0  0  0  0  0  0  0
   40.7590   23.8160   35.6620 Cl  0  0  0  0  0  0  0  0  0  0  0  0
   41.6790   25.1010   34.9250 C   0  0  0  0  0  0  0  0  0  0  0  0
   40.9760   26.1720   34.4330 C   0  0  0  0  0  0  0  0  0  0  0  0
   41.7780   27.1300   33.8320 C   0  0  0  0  0  0  0  0  0  0  0  0
   43.1520   27.0220   33.7370 C   0  0  0  0  0  0  0  0  0  0  0  0
   43.7900   25.8980   34.2670 C   0  0  0  0  0  0  0  0  0  0  0  0
   43.0220   24.9080   34.8800 C   0  0  0  0  0  0  0  0  0  0  0  0
   41.2930   28.0040   33.4160 H   0  0  0  0  0  0  0  0  0  0  0  0
   43.6800   27.8240   33.2510 H   0  0  0  0  0  0  0  0  0  0  0  0
   44.8570   25.8060   34.1980 H   0  0  0  0  0  0  0  0  0  0  0  0
   43.6740   23.7690   35.4150 N   0  0  0  0  0  0  0  0  0  0  0  0
   43.8540   23.2240   34.5660 H   0  0  0  0  0  0  0  0  0  0  0  0
   43.9300   23.4970   36.3900 H   0  0  0  0  0  0  0  0  0  0  0  0
   36.7960   25.8050   32.4420 C   0  0  0  0  0  0  0  0  0  0  0  0
   35.8950   26.2780   31.5000 C   0  0  0  0  0  0  0  0  0  0  0  0
   35.1420   25.3660   30.7690 C   0  0  0  0  0  0  0  0  0  0  0  0
   35.3320   24.0040   31.0240 N   0  0  0  0  0  0  0  0  0  0  0  0
   36.2140   23.5810   31.9460 C   0  0  0  0  0  0  0  0  0  0  0  0
   36.9160   24.5010   32.6250 N   0  0  0  0  0  0  0  0  0  0  0  0
   35.5580   27.2300   31.1160 H   0  0  0  0  0  0  0  0  0  0  0  0
   34.4050   25.4740   30.0090 H   0  0  0  0  0  0  0  0  0  0  0  0
   37.0530   21.4930   31.0340 C   0  0  2  0  0  3  0  0  0  0  0  0
   36.4130   22.1410   32.2160 C   0  0  2  0  0  3  0  0  0  0  0  0
   35.2280   21.5210   32.5990 O   0  0  0  0  0  0  0  0  0  0  0  0
   34.9450   20.3940   31.8540 C   0  0  0  0  0  2  0  0  0  0  0  0
   36.0700   19.3830   31.8230 C   0  0  2  0  0  3  0  0  0  0  0  0
   37.2640   20.0250   31.1860 C   0  0  2  0  0  3  0  0  0  0  0  0
   38.3170   22.0790   30.8720 O   0  0  0  0  0  0  0  0  0  0  0  0
   38.4310   22.4670   29.9580 H   0  0  0  0  0  0  0  0  0  0  0  0
   35.6470   18.3250   31.0420 O   0  0  0  0  0  0  0  0  0  0  0  0
   36.3910   18.0440   30.4570 H   0  0  0  0  0  0  0  0  0  0  0  0
   38.4180   19.7550   31.9270 O   0  0  0  0  0  0  0  0  0  0  0  0
   38.9220   20.5950   32.0690 H   0  0  0  0  0  0  0  0  0  0  0  0
  1  7  1  6  0  0  0
  1  2  1  0  0  0  0
  1  6  1  0  0  0  0
  2  3  1  0  0  0  0
  3 10  1  1  0  0  0
  3  4  1  0  0  0  0
  4 11  1  0  0  0  0
  4 12  1  0  0  0  0
  5  4  1  0  0  0  0
  5 14  1  0  0  0  0
  6 15  1  0  0  0  0
  6  5  1  0  0  0  0
  8  2  1  0  0  0  0
  9  2  1  0  0  0  0
 13  5  1  0  0  0  0
 16  6  1  0  0  0  0
 18 17  1  0  0  0  0
 19  3  1  0  0  0  0
 19 18  2  0  0  0  0
 20 19  1  0  0  0  0
 21 20  2  0  0  0  0
 21 22  1  0  0  0  0
 22 23  2  0  0  0  0
 23 18  1  0  0  0  0
 23 27  1  0  0  0  0
 24 20  1  0  0  0  0
 25 21  1  0  0  0  0
 26 22  1  0  0  0  0
 27 29  1  0  0  0  0
 28 27  1  0  0  0  0
 30 35  1  0  0  0  0
 30  1  1  0  0  0  0
 31 30  2  0  0  0  0
 32 33  2  0  0  0  0
 32 31  1  0  0  0  0
 33 34  1  0  0  0  0
 34 35  2  0  0  0  0
 36 31  1  0  0  0  0
 37 32  1  0  0  0  0
 38 44  1  1  0  0  0
 38 43  1  0  0  0  0
 38 39  1  0  0  0  0
 39 34  1  6  0  0  0
 39 40  1  0  0  0  0
 41 40  1  0  0  0  0
 42 46  1  6  0  0  0
 42 41  1  0  0  0  0
 43 42  1  0  0  0  0
 43 48  1  1  0  0  0
 45 44  1  0  0  0  0
 47 46  1  0  0  0  0
 48 49  1  0  0  0  0
M  END
>  <minimizedAffinity>
-7.08250809

$$$$

 OpenBabel03272506033D

 49 52  0  0  1  0  0  0  0  0999 V2000
   38.0680   25.9480   32.9110 C   0  0  2  0  0  0  0  0  0  0  0  0
   39.1410   25.2090   33.5600 C   0  0  0  0  0  0  0  0  0  0  0  0
   38.9770   25.1530   35.1110 C   0  0  2  0  0  0  0  0  0  0  0  0
   38.9230   26.4520   35.7370 C   0  0  0  0  0  0  0  0  0  0  0  0
   38.1450   27.4930   34.9240 C   0  0  0  0  0  0  0  0  0  0  0  0
   37.2810   26.8280   33.8940 C   0  0  0  0  0  0  0  0  0  0  0  0
   38.4730   26.7130   32.1820 H   0  0  0  0  0  0  0  0  0  0  0  0
   40.0960   25.8350   33.4750 H   0  0  0  0  0  0  0  0  0  0  0  0
   39.4370   24.2240   33.2880 H   0  0  0  0  0  0  0  0  0  0  0  0
   38.0970   24.5250   35.3200 H   0  0  0  0  0  0  0  0  0  0  0  0
   39.9290   26.8920   35.8720 H   0  0  0  0  0  0  0  0  0  0  0  0
   38.5090   26.3510   36.7600 H   0  0  0  0  0  0  0  0  0  0  0  0
   38.7850   28.2710   34.5020 H   0  0  0  0  0  0  0  0  0  0  0  0
   37.4480   27.9840   35.6320 H   0  0  0  0  0  0  0  0  0  0  0  0
   36.5450   26.1790   34.3870 H   0  0  0  0  0  0  0  0  0  0  0  0
   36.7510   27.5990   33.3260 H   0  0  0  0  0  0  0  0  0  0  0  0
   38.4650   22.8520   36.8850 Cl  0  0  0  0  0  0  0  0  0  0  0  0
   40.0750   23.3260   36.4100 C   0  0  0  0  0  0  0  0  0  0  0  0
   40.1860   24.3860   35.5460 C   0  0  0  0  0  0  0  0  0  0  0  0
   41.4950   24.6740   35.1910 C   0  0  0  0  0  0  0  0  0  0  0  0
   42.5840   23.9660   35.6600 C   0  0  0  0  0  0  0  0  0  0  0  0
   42.3830   22.9000   36.5400 C   0  0  0  0  0  0  0  0  0  0  0  0
   41.0820   22.5740   36.9240 C   0  0  0  0  0  0  0  0  0  0  0  0
   41.6610   25.4970   34.5070 H   0  0  0  0  0  0  0  0  0  0  0  0
   43.5590   24.2730   35.3220 H   0  0  0  0  0  0  0  0  0  0  0  0
   43.2230   22.3450   36.9100 H   0  0  0  0  0  0  0  0  0  0  0  0
   40.8820   21.4910   37.8160 N   0  0  0  0  0  0  0  0  0  0  0  0
   40.9890   20.6900   37.1860 H   0  0  0  0  0  0  0  0  0  0  0  0
   40.6800   21.4490   38.8390 H   0  0  0  0  0  0  0  0  0  0  0  0
   37.0810   25.1590   32.1790 C   0  0  0  0  0  0  0  0  0  0  0  0
   35.9900   25.8850   31.7260 C   0  0  0  0  0  0  0  0  0  0  0  0
   35.0050   25.2340   30.9920 C   0  0  0  0  0  0  0  0  0  0  0  0
   35.1650   23.8680   30.7450 N   0  0  0  0  0  0  0  0  0  0  0  0
   36.2370   23.1950   31.2010 C   0  0  0  0  0  0  0  0  0  0  0  0
   37.1590   23.8680   31.9040 N   0  0  0  0  0  0  0  0  0  0  0  0
   35.6250   26.9010   31.7700 H   0  0  0  0  0  0  0  0  0  0  0  0
   34.0960   25.5600   30.5440 H   0  0  0  0  0  0  0  0  0  0  0  0
   36.1000   20.9780   32.1810 C   0  0  2  0  0  3  0  0  0  0  0  0
   36.4040   21.7490   30.9400 C   0  0  2  0  0  3  0  0  0  0  0  0
   37.6620   21.4630   30.4180 O   0  0  0  0  0  0  0  0  0  0  0  0
   38.3190   20.4690   31.1150 C   0  0  0  0  0  2  0  0  0  0  0  0
   37.5190   19.1940   31.2620 C   0  0  2  0  0  3  0  0  0  0  0  0
   36.2760   19.5040   32.0380 C   0  0  2  0  0  3  0  0  0  0  0  0
   34.7510   21.2060   32.4910 O   0  0  0  0  0  0  0  0  0  0  0  0
   34.6400   21.5680   33.4160 H   0  0  0  0  0  0  0  0  0  0  0  0
   38.2970   18.3040   31.9790 O   0  0  0  0  0  0  0  0  0  0  0  0
   37.7260   17.8460   32.6420 H   0  0  0  0  0  0  0  0  0  0  0  0
   35.1620   18.9190   31.4300 O   0  0  0  0  0  0  0  0  0  0  0  0
   34.4380   19.5890   31.3540 H   0  0  0  0  0  0  0  0  0  0  0  0
  1  7  1  6  0  0  0
  1  2  1  0  0  0  0
  1  6  1  0  0  0  0
  2  3  1  0  0  0  0
  3 10  1  1  0  0  0
  3 19  1  0  0  0  0
  3  4  1  0  0  0  0
  4 11  1  0  0  0  0
  4 12  1  0  0  0  0
  5 14  1  0  0  0  0
  5  4  1  0  0  0  0
  6 15  1  0  0  0  0
  6  5  1  0  0  0  0
  8  2  1  0  0  0  0
  9  2  1  0  0  0  0
 13  5  1  0  0  0  0
 16  6  1  0  0  0  0
 18 17  1  0  0  0  0
 18 23  1  0  0  0  0
 19 18  2  0  0  0  0
 20 19  1  0  0  0  0
 20 21  2  0  0  0  0
 21 22  1  0  0  0  0
 22 26  1  0  0  0  0
 22 23  2  0  0  0  0
 23 27  1  0  0  0  0
 24 20  1  0  0  0  0
 25 21  1  0  0  0  0
 27 29  1  0  0  0  0
 28 27  1  0  0  0  0
 30  1  1  0  0  0  0
 31 36  1  0  0  0  0
 31 30  2  0  0  0  0
 32 31  1  0  0  0  0
 33 32  2  0  0  0  0
 33 34  1  0  0  0  0
 34 35  2  0  0  0  0
 35 30  1  0  0  0  0
 37 32  1  0  0  0  0
 38 44  1  6  0  0  0
 39 34  1  1  0  0  0
 39 38  1  0  0  0  0
 40 39  1  0  0  0  0
 40 41  1  0  0  0  0
 41 42  1  0  0  0  0
 42 46  1  1  0  0  0
 42 43  1  0  0  0  0
 43 48  1  6  0  0  0
 43 38  1  0  0  0  0
 44 45  1  0  0  0  0
 46 47  1  0  0  0  0
 49 48  1  0  0  0  0
M  END
>  <minimizedAffinity>
-6.99922132

$$$$

 OpenBabel03272506033D

 49 52  0  0  1  0  0  0  0  0999 V2000
   37.5840   27.1880   32.4950 C   0  0  2  0  0  0  0  0  0  0  0  0
   36.8580   28.0520   33.4150 C   0  0  0  0  0  0  0  0  0  0  0  0
   35.6600   28.7830   32.7330 C   0  0  2  0  0  0  0  0  0  0  0  0
   36.0430   29.5970   31.6040 C   0  0  0  0  0  0  0  0  0  0  0  0
   37.1480   28.9740   30.7440 C   0  0  0  0  0  0  0  0  0  0  0  0
   37.2770   27.5060   31.0240 C   0  0  0  0  0  0  0  0  0  0  0  0
   38.7000   27.3710   32.5480 H   0  0  0  0  0  0  0  0  0  0  0  0
   37.5320   28.9450   33.6610 H   0  0  0  0  0  0  0  0  0  0  0  0
   36.4750   27.7350   34.3560 H   0  0  0  0  0  0  0  0  0  0  0  0
   34.9100   28.0140   32.4870 H   0  0  0  0  0  0  0  0  0  0  0  0
   36.4460   30.5790   31.9170 H   0  0  0  0  0  0  0  0  0  0  0  0
   35.1460   29.8310   30.9970 H   0  0  0  0  0  0  0  0  0  0  0  0
   38.0990   29.5050   30.8190 H   0  0  0  0  0  0  0  0  0  0  0  0
   36.8060   29.0530   29.6920 H   0  0  0  0  0  0  0  0  0  0  0  0
   36.3380   26.9940   30.7740 H   0  0  0  0  0  0  0  0  0  0  0  0
   38.0800   27.0980   30.4030 H   0  0  0  0  0  0  0  0  0  0  0  0
   32.7160   28.9120   32.8780 Cl  0  0  0  0  0  0  0  0  0  0  0  0
   33.7460   29.7870   33.9810 C   0  0  0  0  0  0  0  0  0  0  0  0
   35.1000   29.6140   33.8430 C   0  0  0  0  0  0  0  0  0  0  0  0
   35.8440   30.3150   34.7790 C   0  0  0  0  0  0  0  0  0  0  0  0
   35.2810   31.1120   35.7570 C   0  0  0  0  0  0  0  0  0  0  0  0
   33.8920   31.2350   35.8270 C   0  0  0  0  0  0  0  0  0  0  0  0
   33.1030   30.5460   34.9050 C   0  0  0  0  0  0  0  0  0  0  0  0
   36.9220   30.2240   34.7360 H   0  0  0  0  0  0  0  0  0  0  0  0
   35.9500   31.6140   36.4350 H   0  0  0  0  0  0  0  0  0  0  0  0
   33.4450   31.8520   36.5820 H   0  0  0  0  0  0  0  0  0  0  0  0
   31.6940   30.6730   34.9790 N   0  0  0  0  0  0  0  0  0  0  0  0
   31.4770   30.0480   35.7610 H   0  0  0  0  0  0  0  0  0  0  0  0
   31.0060   31.2300   34.4250 H   0  0  0  0  0  0  0  0  0  0  0  0
   37.3900   25.7510   32.6590 C   0  0  0  0  0  0  0  0  0  0  0  0
   36.6130   25.1630   31.6710 C   0  0  0  0  0  0  0  0  0  0  0  0
   36.3900   23.7910   31.7170 C   0  0  0  0  0  0  0  0  0  0  0  0
   36.9650   23.0670   32.7650 N   0  0  0  0  0  0  0  0  0  0  0  0
   37.7130   23.6710   33.7060 C   0  0  0  0  0  0  0  0  0  0  0  0
   37.8980   24.9960   33.6180 N   0  0  0  0  0  0  0  0  0  0  0  0
   36.0680   25.4660   30.7890 H   0  0  0  0  0  0  0  0  0  0  0  0
   35.8460   23.1210   31.0940 H   0  0  0  0  0  0  0  0  0  0  0  0
   38.7790   23.8420   35.8810 C   0  0  2  0  0  3  0  0  0  0  0  0
   38.3190   22.9040   34.8150 C   0  0  2  0  0  3  0  0  0  0  0  0
   39.3290   22.0570   34.3640 O   0  0  0  0  0  0  0  0  0  0  0  0
   40.5110   22.2150   35.0580 C   0  0  0  0  0  2  0  0  0  0  0  0
   40.3630   22.0880   36.5570 C   0  0  2  0  0  3  0  0  0  0  0  0
   39.4450   23.1710   37.0350 C   0  0  2  0  0  3  0  0  0  0  0  0
   37.6420   24.4930   36.3800 O   0  0  0  0  0  0  0  0  0  0  0  0
   37.7270   25.4870   36.3150 H   0  0  0  0  0  0  0  0  0  0  0  0
   41.6160   22.2730   37.1090 O   0  0  0  0  0  0  0  0  0  0  0  0
   41.5300   22.8470   37.9080 H   0  0  0  0  0  0  0  0  0  0  0  0
   38.5030   22.6540   37.9290 O   0  0  0  0  0  0  0  0  0  0  0  0
   37.6000   22.9700   37.6760 H   0  0  0  0  0  0  0  0  0  0  0  0
  1  7  1  1  0  0  0
  1 30  1  0  0  0  0
  1  2  1  0  0  0  0
  2  8  1  0  0  0  0
  2  9  1  0  0  0  0
  3 10  1  6  0  0  0
  3  2  1  0  0  0  0
  3 19  1  0  0  0  0
  4 11  1  0  0  0  0
  4  3  1  0  0  0  0
  5 13  1  0  0  0  0
  5  6  1  0  0  0  0
  5  4  1  0  0  0  0
  6  1  1  0  0  0  0
 12  4  1  0  0  0  0
 14  5  1  0  0  0  0
 15  6  1  0  0  0  0
 16  6  1  0  0  0  0
 17 18  1  0  0  0  0
 18 23  1  0  0  0  0
 19 18  2  0  0  0  0
 19 20  1  0  0  0  0
 20 21  2  0  0  0  0
 21 22  1  0  0  0  0
 21 25  1  0  0  0  0
 22 26  1  0  0  0  0
 23 27  1  0  0  0  0
 23 22  2  0  0  0  0
 24 20  1  0  0  0  0
 27 28  1  0  0  0  0
 29 27  1  0  0  0  0
 30 35  1  0  0  0  0
 31 32  1  0  0  0  0
 31 30  2  0  0  0  0
 32 33  2  0  0  0  0
 33 34  1  0  0  0  0
 35 34  2  0  0  0  0
 36 31  1  0  0  0  0
 37 32  1  0  0  0  0
 38 44  1  1  0  0  0
 38 43  1  0  0  0  0
 39 34  1  6  0  0  0
 39 38  1  0  0  0  0
 40 39  1  0  0  0  0
 40 41  1  0  0  0  0
 41 42  1  0  0  0  0
 42 43  1  0  0  0  0
 42 46  1  1  0  0  0
 43 48  1  1  0  0  0
 45 44  1  0  0  0  0
 46 47  1  0  0  0  0
 49 48  1  0  0  0  0
M  END
>  <minimizedAffinity>
-6.98423767

$$$$

 OpenBabel03272506033D

 49 52  0  0  1  0  0  0  0  0999 V2000
   37.2000   27.1150   31.9810 C   0  0  2  0  0  0  0  0  0  0  0  0
   37.1870   26.1030   33.0280 C   0  0  0  0  0  0  0  0  0  0  0  0
   38.5650   25.9660   33.7470 C   0  0  2  0  0  0  0  0  0  0  0  0
   39.6540   25.6390   32.8580 C   0  0  0  0  0  0  0  0  0  0  0  0
   39.5690   26.3390   31.4980 C   0  0  0  0  0  0  0  0  0  0  0  0
   38.6240   27.5030   31.5560 C   0  0  0  0  0  0  0  0  0  0  0  0
   36.7660   26.7180   31.0150 H   0  0  0  0  0  0  0  0  0  0  0  0
   37.1160   25.0780   32.5210 H   0  0  0  0  0  0  0  0  0  0  0  0
   36.4720   26.0660   33.8150 H   0  0  0  0  0  0  0  0  0  0  0  0
   38.7250   26.8950   34.3170 H   0  0  0  0  0  0  0  0  0  0  0  0
   39.6870   24.5590   32.6200 H   0  0  0  0  0  0  0  0  0  0  0  0
   40.6180   25.8550   33.3610 H   0  0  0  0  0  0  0  0  0  0  0  0
   39.3470   25.6540   30.6770 H   0  0  0  0  0  0  0  0  0  0  0  0
   40.5710   26.7720   31.3070 H   0  0  0  0  0  0  0  0  0  0  0  0
   38.9860   28.2420   32.2840 H   0  0  0  0  0  0  0  0  0  0  0  0
   38.5790   27.9710   30.5680 H   0  0  0  0  0  0  0  0  0  0  0  0
   38.3260   26.8140   36.5630 Cl  0  0  0  0  0  0  0  0  0  0  0  0
   38.2370   25.1410   36.0800 C   0  0  0  0  0  0  0  0  0  0  0  0
   38.3180   24.8720   34.7360 C   0  0  0  0  0  0  0  0  0  0  0  0
   38.2030   23.5230   34.4360 C   0  0  0  0  0  0  0  0  0  0  0  0
   38.0250   22.5430   35.3910 C   0  0  0  0  0  0  0  0  0  0  0  0
   37.9550   22.9020   36.7390 C   0  0  0  0  0  0  0  0  0  0  0  0
   38.0650   24.2480   37.0890 C   0  0  0  0  0  0  0  0  0  0  0  0
   38.2530   23.2340   33.3930 H   0  0  0  0  0  0  0  0  0  0  0  0
   37.9480   21.5240   35.0500 H   0  0  0  0  0  0  0  0  0  0  0  0
   37.8180   22.1470   37.4890 H   0  0  0  0  0  0  0  0  0  0  0  0
   37.9930   24.6090   38.4570 N   0  0  0  0  0  0  0  0  0  0  0  0
   36.9830   24.5600   38.6240 H   0  0  0  0  0  0  0  0  0  0  0  0
   38.7230   24.8660   39.1580 H   0  0  0  0  0  0  0  0  0  0  0  0
   36.4980   28.3620   32.2700 C   0  0  0  0  0  0  0  0  0  0  0  0
   36.2040   29.1250   31.1500 C   0  0  0  0  0  0  0  0  0  0  0  0
   35.5110   30.3200   31.3120 C   0  0  0  0  0  0  0  0  0  0  0  0
   35.1430   30.6950   32.6080 N   0  0  0  0  0  0  0  0  0  0  0  0
   35.4460   29.9300   33.6710 C   0  0  0  0  0  0  0  0  0  0  0  0
   36.1160   28.7870   33.4620 N   0  0  0  0  0  0  0  0  0  0  0  0
   36.3610   29.0810   30.0820 H   0  0  0  0  0  0  0  0  0  0  0  0
   35.1730   31.0640   30.6300 H   0  0  0  0  0  0  0  0  0  0  0  0
   33.8120   31.1490   34.9900 C   0  0  2  0  0  3  0  0  0  0  0  0
   35.0570   30.3290   35.0410 C   0  0  2  0  0  3  0  0  0  0  0  0
   36.1010   30.9660   35.7070 O   0  0  0  0  0  0  0  0  0  0  0  0
   35.7310   32.1820   36.2450 C   0  0  0  0  0  2  0  0  0  0  0  0
   34.5150   32.1100   37.1400 C   0  0  2  0  0  3  0  0  0  0  0  0
   33.3520   31.6390   36.3210 C   0  0  2  0  0  3  0  0  0  0  0  0
   32.7960   30.3310   34.4760 O   0  0  0  0  0  0  0  0  0  0  0  0
   32.3710   30.7340   33.6660 H   0  0  0  0  0  0  0  0  0  0  0  0
   34.2660   33.3920   37.5950 O   0  0  0  0  0  0  0  0  0  0  0  0
   33.2930   33.5590   37.5580 H   0  0  0  0  0  0  0  0  0  0  0  0
   32.6420   30.6490   37.0050 O   0  0  0  0  0  0  0  0  0  0  0  0
   32.4760   29.8840   36.3990 H   0  0  0  0  0  0  0  0  0  0  0  0
  1  7  1  6  0  0  0
  1 30  1  0  0  0  0
  1  2  1  0  0  0  0
  2  3  1  0  0  0  0
  2  9  1  0  0  0  0
  3 10  1  1  0  0  0
  3 19  1  0  0  0  0
  4 12  1  0  0  0  0
  4  3  1  0  0  0  0
  5  6  1  0  0  0  0
  5  4  1  0  0  0  0
  6  1  1  0  0  0  0
  6 15  1  0  0  0  0
  8  2  1  0  0  0  0
 11  4  1  0  0  0  0
 13  5  1  0  0  0  0
 14  5  1  0  0  0  0
 16  6  1  0  0  0  0
 18 17  1  0  0  0  0
 18 23  1  0  0  0  0
 19 18  2  0  0  0  0
 20 19  1  0  0  0  0
 20 21  2  0  0  0  0
 21 22  1  0  0  0  0
 22 23  2  0  0  0  0
 22 26  1  0  0  0  0
 23 27  1  0  0  0  0
 24 20  1  0  0  0  0
 25 21  1  0  0  0  0
 27 28  1  0  0  0  0
 27 29  1  0  0  0  0
 30 35  1  0  0  0  0
 31 32  1  0  0  0  0
 31 30  2  0  0  0  0
 32 33  2  0  0  0  0
 33 34  1  0  0  0  0
 35 34  2  0  0  0  0
 36 31  1  0  0  0  0
 37 32  1  0  0  0  0
 38 44  1  1  0  0  0
 38 39  1  0  0  0  0
 38 43  1  0  0  0  0
 39 34  1  6  0  0  0
 39 40  1  0  0  0  0
 40 41  1  0  0  0  0
 41 42  1  0  0  0  0
 42 46  1  6  0  0  0
 43 48  1  1  0  0  0
 43 42  1  0  0  0  0
 45 44  1  0  0  0  0
 47 46  1  0  0  0  0
 49 48  1  0  0  0  0
M  END
>  <minimizedAffinity>
-6.94766712

$$$$

 OpenBabel03272506033D

 49 52  0  0  1  0  0  0  0  0999 V2000
   39.0220   25.9960   35.2110 C   0  0  2  0  0  0  0  0  0  0  0  0
   38.2750   26.7570   34.2200 C   0  0  0  0  0  0  0  0  0  0  0  0
   38.9800   26.7850   32.8280 C   0  0  2  0  0  0  0  0  0  0  0  0
   40.3140   27.3360   32.8630 C   0  0  0  0  0  0  0  0  0  0  0  0
   41.1080   26.9430   34.1140 C   0  0  0  0  0  0  0  0  0  0  0  0
   40.4820   25.7600   34.7930 C   0  0  0  0  0  0  0  0  0  0  0  0
   39.1440   26.5770   36.1740 H   0  0  0  0  0  0  0  0  0  0  0  0
   38.3410   27.8640   34.5070 H   0  0  0  0  0  0  0  0  0  0  0  0
   37.2480   26.5960   33.9940 H   0  0  0  0  0  0  0  0  0  0  0  0
   38.9370   25.7610   32.4240 H   0  0  0  0  0  0  0  0  0  0  0  0
   40.3070   28.4420   32.8670 H   0  0  0  0  0  0  0  0  0  0  0  0
   40.8550   27.0510   31.9390 H   0  0  0  0  0  0  0  0  0  0  0  0
   41.2770   27.7810   34.7940 H   0  0  0  0  0  0  0  0  0  0  0  0
   42.0990   26.5980   33.7580 H   0  0  0  0  0  0  0  0  0  0  0  0
   40.4870   24.8960   34.1160 H   0  0  0  0  0  0  0  0  0  0  0  0
   41.0660   25.5170   35.6850 H   0  0  0  0  0  0  0  0  0  0  0  0
   39.3690   26.6310   29.9070 Cl  0  0  0  0  0  0  0  0  0  0  0  0
   38.1790   27.6760   30.6390 C   0  0  0  0  0  0  0  0  0  0  0  0
   38.0600   27.6290   32.0050 C   0  0  0  0  0  0  0  0  0  0  0  0
   37.0690   28.4620   32.5010 C   0  0  0  0  0  0  0  0  0  0  0  0
   36.2770   29.2630   31.7030 C   0  0  0  0  0  0  0  0  0  0  0  0
   36.4650   29.2530   30.3190 C   0  0  0  0  0  0  0  0  0  0  0  0
   37.4510   28.4290   29.7740 C   0  0  0  0  0  0  0  0  0  0  0  0
   36.9140   28.4760   33.5730 H   0  0  0  0  0  0  0  0  0  0  0  0
   35.5360   29.8730   32.1900 H   0  0  0  0  0  0  0  0  0  0  0  0
   35.8550   29.8730   29.6900 H   0  0  0  0  0  0  0  0  0  0  0  0
   37.6380   28.4210   28.3700 N   0  0  0  0  0  0  0  0  0  0  0  0
   36.8570   27.8310   28.0670 H   0  0  0  0  0  0  0  0  0  0  0  0
   38.3500   28.8680   27.7510 H   0  0  0  0  0  0  0  0  0  0  0  0
   38.4800   24.6920   35.5770 C   0  0  0  0  0  0  0  0  0  0  0  0
   38.1390   24.5700   36.9160 C   0  0  0  0  0  0  0  0  0  0  0  0
   37.5860   23.3760   37.3650 C   0  0  0  0  0  0  0  0  0  0  0  0
   37.4010   22.3480   36.4350 N   0  0  0  0  0  0  0  0  0  0  0  0
   37.7440   22.5010   35.1440 C   0  0  0  0  0  0  0  0  0  0  0  0
   38.2740   23.6720   34.7610 N   0  0  0  0  0  0  0  0  0  0  0  0
   38.1730   25.1710   37.8130 H   0  0  0  0  0  0  0  0  0  0  0  0
   37.2490   23.0420   38.3180 H   0  0  0  0  0  0  0  0  0  0  0  0
   38.3560   21.6900   32.9390 C   0  0  2  0  0  3  0  0  0  0  0  0
   37.5480   21.4130   34.1630 C   0  0  2  0  0  3  0  0  0  0  0  0
   36.2000   21.2040   33.8870 O   0  0  0  0  0  0  0  0  0  0  0  0
   35.9190   21.2190   32.5360 C   0  0  0  0  0  2  0  0  0  0  0  0
   36.7660   20.2630   31.7250 C   0  0  2  0  0  3  0  0  0  0  0  0
   38.2010   20.6680   31.8640 C   0  0  2  0  0  3  0  0  0  0  0  0
   39.7050   21.6860   33.3220 O   0  0  0  0  0  0  0  0  0  0  0  0
   40.1610   22.5420   33.0810 H   0  0  0  0  0  0  0  0  0  0  0  0
   36.3780   20.3930   30.4050 O   0  0  0  0  0  0  0  0  0  0  0  0
   37.1850   20.3990   29.8360 H   0  0  0  0  0  0  0  0  0  0  0  0
   39.0030   19.5500   32.1110 O   0  0  0  0  0  0  0  0  0  0  0  0
   39.6070   19.7400   32.8720 H   0  0  0  0  0  0  0  0  0  0  0  0
  1 30  1  0  0  0  0
  1  7  1  1  0  0  0
  2  8  1  0  0  0  0
  2  1  1  0  0  0  0
  3 10  1  6  0  0  0
  3  4  1  0  0  0  0
  3  2  1  0  0  0  0
  4 11  1  0  0  0  0
  4  5  1  0  0  0  0
  5  6  1  0  0  0  0
  5 13  1  0  0  0  0
  6  1  1  0  0  0  0
  6 16  1  0  0  0  0
  9  2  1  0  0  0  0
 12  4  1  0  0  0  0
 14  5  1  0  0  0  0
 15  6  1  0  0  0  0
 17 18  1  0  0  0  0
 18 19  1  0  0  0  0
 19 20  2  0  0  0  0
 19  3  1  0  0  0  0
 20 24  1  0  0  0  0
 21 25  1  0  0  0  0
 21 20  1  0  0  0  0
 22 21  2  0  0  0  0
 23 22  1  0  0  0  0
 23 18  2  0  0  0  0
 26 22  1  0  0  0  0
 27 23  1  0  0  0  0
 28 27  1  0  0  0  0
 29 27  1  0  0  0  0
 30 31  1  0  0  0  0
 31 32  2  0  0  0  0
 31 36  1  0  0  0  0
 32 37  1  0  0  0  0
 33 32  1  0  0  0  0
 34 33  2  0  0  0  0
 35 34  1  0  0  0  0
 35 30  2  0  0  0  0
 38 44  1  1  0  0  0
 38 39  1  0  0  0  0
 39 34  1  1  0  0  0
 40 39  1  0  0  0  0
 41 40  1  0  0  0  0
 42 46  1  6  0  0  0
 42 43  1  0  0  0  0
 42 41  1  0  0  0  0
 43 48  1  1  0  0  0
 43 38  1  0  0  0  0
 45 44  1  0  0  0  0
 47 46  1  0  0  0  0
 48 49  1  0  0  0  0
M  END
>  <minimizedAffinity>
-6.67601061

$$$$

 OpenBabel03272506033D

 49 52  0  0  1  0  0  0  0  0999 V2000
   37.0250   27.9320   32.2680 C   0  0  2  0  0  0  0  0  0  0  0  0
   36.4930   28.6850   33.3940 C   0  0  0  0  0  0  0  0  0  0  0  0
   35.1740   29.4410   33.0420 C   0  0  2  0  0  0  0  0  0  0  0  0
   35.3120   30.3670   31.9430 C   0  0  0  0  0  0  0  0  0  0  0  0
   36.2240   29.8590   30.8210 C   0  0  0  0  0  0  0  0  0  0  0  0
   36.4210   28.3750   30.9260 C   0  0  0  0  0  0  0  0  0  0  0  0
   38.1260   28.1410   32.1110 H   0  0  0  0  0  0  0  0  0  0  0  0
   37.1950   29.5710   33.5840 H   0  0  0  0  0  0  0  0  0  0  0  0
   36.3130   28.2720   34.3580 H   0  0  0  0  0  0  0  0  0  0  0  0
   34.3980   28.6770   32.8800 H   0  0  0  0  0  0  0  0  0  0  0  0
   35.7600   31.3270   32.2610 H   0  0  0  0  0  0  0  0  0  0  0  0
   34.3070   30.6300   31.5560 H   0  0  0  0  0  0  0  0  0  0  0  0
   37.1650   30.4080   30.7530 H   0  0  0  0  0  0  0  0  0  0  0  0
   35.6740   30.0250   29.8730 H   0  0  0  0  0  0  0  0  0  0  0  0
   35.4560   27.8620   30.8230 H   0  0  0  0  0  0  0  0  0  0  0  0
   37.0850   28.0500   30.1200 H   0  0  0  0  0  0  0  0  0  0  0  0
   32.3710   29.2300   33.9380 Cl  0  0  0  0  0  0  0  0  0  0  0  0
   33.5630   30.1620   34.8060 C   0  0  0  0  0  0  0  0  0  0  0  0
   34.8450   30.1490   34.3170 C   0  0  0  0  0  0  0  0  0  0  0  0
   35.7360   30.8840   35.0850 C   0  0  0  0  0  0  0  0  0  0  0  0
   35.3720   31.5640   36.2310 C   0  0  0  0  0  0  0  0  0  0  0  0
   34.0430   31.5260   36.6590 C   0  0  0  0  0  0  0  0  0  0  0  0
   33.1120   30.7990   35.9180 C   0  0  0  0  0  0  0  0  0  0  0  0
   36.7690   30.9180   34.7630 H   0  0  0  0  0  0  0  0  0  0  0  0
   36.1430   32.1050   36.7530 H   0  0  0  0  0  0  0  0  0  0  0  0
   33.7520   32.0530   37.5480 H   0  0  0  0  0  0  0  0  0  0  0  0
   31.7650   30.7620   36.3560 N   0  0  0  0  0  0  0  0  0  0  0  0
   31.8210   30.0790   37.1180 H   0  0  0  0  0  0  0  0  0  0  0  0
   30.9060   31.2640   36.0380 H   0  0  0  0  0  0  0  0  0  0  0  0
   36.8810   26.4800   32.3270 C   0  0  0  0  0  0  0  0  0  0  0  0
   35.9190   25.9650   31.4710 C   0  0  0  0  0  0  0  0  0  0  0  0
   35.7230   24.5890   31.4290 C   0  0  0  0  0  0  0  0  0  0  0  0
   36.5120   23.7870   32.2590 N   0  0  0  0  0  0  0  0  0  0  0  0
   37.4350   24.3220   33.0770 C   0  0  0  0  0  0  0  0  0  0  0  0
   37.5860   25.6550   33.0820 N   0  0  0  0  0  0  0  0  0  0  0  0
   35.1990   26.3330   30.7550 H   0  0  0  0  0  0  0  0  0  0  0  0
   35.0650   23.9650   30.8710 H   0  0  0  0  0  0  0  0  0  0  0  0
   38.7200   24.2640   35.1360 C   0  0  2  0  0  3  0  0  0  0  0  0
   38.2680   23.4720   33.9550 C   0  0  2  0  0  3  0  0  0  0  0  0
   39.3220   22.8880   33.2580 O   0  0  0  0  0  0  0  0  0  0  0  0
   40.5460   23.1010   33.8570 C   0  0  0  0  0  2  0  0  0  0  0  0
   40.5960   22.6860   35.3110 C   0  0  2  0  0  3  0  0  0  0  0  0
   39.6030   23.5100   36.0720 C   0  0  2  0  0  3  0  0  0  0  0  0
   37.5730   24.6310   35.8540 O   0  0  0  0  0  0  0  0  0  0  0  0
   37.5140   25.6220   35.9770 H   0  0  0  0  0  0  0  0  0  0  0  0
   41.8700   22.9620   35.7710 O   0  0  0  0  0  0  0  0  0  0  0  0
   41.8020   23.3630   36.6710 H   0  0  0  0  0  0  0  0  0  0  0  0
   38.8540   22.7010   36.9310 O   0  0  0  0  0  0  0  0  0  0  0  0
   37.8930   22.9130   36.8270 H   0  0  0  0  0  0  0  0  0  0  0  0
  1  7  1  6  0  0  0
  1 30  1  0  0  0  0
  1  2  1  0  0  0  0
  2  8  1  0  0  0  0
  2  9  1  0  0  0  0
  3 10  1  6  0  0  0
  3  2  1  0  0  0  0
  3 19  1  0  0  0  0
  4 11  1  0  0  0  0
  4  3  1  0  0  0  0
  5  6  1  0  0  0  0
  5  4  1  0  0  0  0
  6  1  1  0  0  0  0
 12  4  1  0  0  0  0
 13  5  1  0  0  0  0
 14  5  1  0  0  0  0
 15  6  1  0  0  0  0
 16  6  1  0  0  0  0
 17 18  1  0  0  0  0
 18 23  1  0  0  0  0
 19 18  2  0  0  0  0
 19 20  1  0  0  0  0
 20 21  2  0  0  0  0
 21 22  1  0  0  0  0
 21 25  1  0  0  0  0
 22 26  1  0  0  0  0
 23 27  1  0  0  0  0
 23 22  2  0  0  0  0
 24 20  1  0  0  0  0
 27 28  1  0  0  0  0
 29 27  1  0  0  0  0
 30 35  1  0  0  0  0
 31 30  2  0  0  0  0
 32 31  1  0  0  0  0
 32 33  2  0  0  0  0
 33 34  1  0  0  0  0
 34 35  2  0  0  0  0
 36 31  1  0  0  0  0
 37 32  1  0  0  0  0
 38 44  1  1  0  0  0
 38 43  1  0  0  0  0
 39 34  1  6  0  0  0
 39 38  1  0  0  0  0
 40 41  1  0  0  0  0
 40 39  1  0  0  0  0
 41 42  1  0  0  0  0
 42 46  1  1  0  0  0
 42 43  1  0  0  0  0
 43 48  1  6  0  0  0
 44 45  1  0  0  0  0
 46 47  1  0  0  0  0
 49 48  1  0  0  0  0
M  END
>  <minimizedAffinity>
-6.65899992

$$$$

 OpenBabel03272506033D

 49 52  0  0  1  0  0  0  0  0999 V2000
   37.2360   24.8830   31.2510 C   0  0  2  0  0  0  0  0  0  0  0  0
   38.5490   25.5090   31.2130 C   0  0  0  0  0  0  0  0  0  0  0  0
   38.5850   26.8740   31.9680 C   0  0  2  0  0  0  0  0  0  0  0  0
   37.6410   27.8430   31.4630 C   0  0  0  0  0  0  0  0  0  0  0  0
   36.2970   27.2340   31.0490 C   0  0  0  0  0  0  0  0  0  0  0  0
   36.1260   25.8680   31.6460 C   0  0  0  0  0  0  0  0  0  0  0  0
   36.9030   24.5540   30.2200 H   0  0  0  0  0  0  0  0  0  0  0  0
   38.7370   25.8630   30.1390 H   0  0  0  0  0  0  0  0  0  0  0  0
   39.4520   25.0240   31.4990 H   0  0  0  0  0  0  0  0  0  0  0  0
   38.4580   26.6530   33.0400 H   0  0  0  0  0  0  0  0  0  0  0  0
   38.0140   28.3520   30.5540 H   0  0  0  0  0  0  0  0  0  0  0  0
   37.5040   28.6480   32.2110 H   0  0  0  0  0  0  0  0  0  0  0  0
   36.1350   27.2480   29.9690 H   0  0  0  0  0  0  0  0  0  0  0  0
   35.5130   27.8670   31.5110 H   0  0  0  0  0  0  0  0  0  0  0  0
   36.1320   25.9360   32.7420 H   0  0  0  0  0  0  0  0  0  0  0  0
   35.1640   25.4600   31.3210 H   0  0  0  0  0  0  0  0  0  0  0  0
   40.3680   26.5760   34.3000 Cl  0  0  0  0  0  0  0  0  0  0  0  0
   40.9030   27.2830   32.7980 C   0  0  0  0  0  0  0  0  0  0  0  0
   39.9960   27.3290   31.7690 C   0  0  0  0  0  0  0  0  0  0  0  0
   40.5120   27.8720   30.6030 C   0  0  0  0  0  0  0  0  0  0  0  0
   41.8110   28.3260   30.4830 C   0  0  0  0  0  0  0  0  0  0  0  0
   42.6700   28.2440   31.5810 C   0  0  0  0  0  0  0  0  0  0  0  0
   42.1940   27.7030   32.7760 C   0  0  0  0  0  0  0  0  0  0  0  0
   39.8540   27.9380   29.7450 H   0  0  0  0  0  0  0  0  0  0  0  0
   42.1100   28.7310   29.5320 H   0  0  0  0  0  0  0  0  0  0  0  0
   43.6810   28.5950   31.4980 H   0  0  0  0  0  0  0  0  0  0  0  0
   43.0690   27.6220   33.8880 N   0  0  0  0  0  0  0  0  0  0  0  0
   43.6310   26.8020   33.6400 H   0  0  0  0  0  0  0  0  0  0  0  0
   43.1690   28.2010   34.7510 H   0  0  0  0  0  0  0  0  0  0  0  0
   37.0920   23.7220   32.1240 C   0  0  0  0  0  0  0  0  0  0  0  0
   36.0340   22.8880   31.7960 C   0  0  0  0  0  0  0  0  0  0  0  0
   35.8250   21.7370   32.5470 C   0  0  0  0  0  0  0  0  0  0  0  0
   36.6990   21.4770   33.6070 N   0  0  0  0  0  0  0  0  0  0  0  0
   37.7150   22.3090   33.8970 C   0  0  0  0  0  0  0  0  0  0  0  0
   37.8740   23.4060   33.1420 N   0  0  0  0  0  0  0  0  0  0  0  0
   35.2370   22.8460   31.0660 H   0  0  0  0  0  0  0  0  0  0  0  0
   35.1030   20.9560   32.4980 H   0  0  0  0  0  0  0  0  0  0  0  0
   38.7920   23.2600   35.8540 C   0  0  2  0  0  3  0  0  0  0  0  0
   38.6380   22.0330   35.0180 C   0  0  2  0  0  3  0  0  0  0  0  0
   39.8540   21.5250   34.5710 O   0  0  0  0  0  0  0  0  0  0  0  0
   40.9400   22.2190   35.0650 C   0  0  0  0  0  2  0  0  0  0  0  0
   40.9550   22.3400   36.5720 C   0  0  2  0  0  3  0  0  0  0  0  0
   39.7370   23.1020   36.9960 C   0  0  2  0  0  3  0  0  0  0  0  0
   37.5330   23.5540   36.3960 O   0  0  0  0  0  0  0  0  0  0  0  0
   37.2390   24.4820   36.1670 H   0  0  0  0  0  0  0  0  0  0  0  0
   42.0870   23.0560   36.9130 O   0  0  0  0  0  0  0  0  0  0  0  0
   41.8510   23.7060   37.6190 H   0  0  0  0  0  0  0  0  0  0  0  0
   39.1190   22.4710   38.0790 O   0  0  0  0  0  0  0  0  0  0  0  0
   38.1480   22.3950   37.9050 H   0  0  0  0  0  0  0  0  0  0  0  0
  1  7  1  6  0  0  0
  1  6  1  0  0  0  0
  1 30  1  0  0  0  0
  2  1  1  0  0  0  0
  2  9  1  0  0  0  0
  2  3  1  0  0  0  0
  3 10  1  1  0  0  0
  4  3  1  0  0  0  0
  4 12  1  0  0  0  0
  5  4  1  0  0  0  0
  5 14  1  0  0  0  0
  5  6  1  0  0  0  0
  6 15  1  0  0  0  0
  8  2  1  0  0  0  0
 11  4  1  0  0  0  0
 13  5  1  0  0  0  0
 16  6  1  0  0  0  0
 18 17  1  0  0  0  0
 19  3  1  0  0  0  0
 19 18  2  0  0  0  0
 20 19  1  0  0  0  0
 21 20  2  0  0  0  0
 21 22  1  0  0  0  0
 22 23  2  0  0  0  0
 23 18  1  0  0  0  0
 23 27  1  0  0  0  0
 24 20  1  0  0  0  0
 25 21  1  0  0  0  0
 26 22  1  0  0  0  0
 27 29  1  0  0  0  0
 28 27  1  0  0  0  0
 30 35  1  0  0  0  0
 31 30  2  0  0  0  0
 31 32  1  0  0  0  0
 32 33  2  0  0  0  0
 33 34  1  0  0  0  0
 35 34  2  0  0  0  0
 36 31  1  0  0  0  0
 37 32  1  0  0  0  0
 38 44  1  1  0  0  0
 38 43  1  0  0  0  0
 39 34  1  6  0  0  0
 39 38  1  0  0  0  0
 40 39  1  0  0  0  0
 40 41  1  0  0  0  0
 41 42  1  0  0  0  0
 42 46  1  6  0  0  0
 42 43  1  0  0  0  0
 43 48  1  1  0  0  0
 45 44  1  0  0  0  0
 46 47  1  0  0  0  0
 49 48  1  0  0  0  0
M  END
>  <minimizedAffinity>
-6.59696054

$$$$
