
     RDKit          3D

 49 52  0  0  0  0  0  0  0  0999 V2000
   37.3694   31.0640   47.1488 N   0  0  0  0  0  0  0  0  0  0  0  0
   36.7788   30.7259   45.9724 C   0  0  0  0  0  0  0  0  0  0  0  0
   37.2354   31.1929   44.7538 C   0  0  0  0  0  0  0  0  0  0  0  0
   38.3553   32.0487   44.7621 C   0  0  0  0  0  0  0  0  0  0  0  0
   38.8101   32.5007   43.6848 O   0  0  0  0  0  0  0  0  0  0  0  0
   38.9461   32.3851   45.9590 N   0  0  0  0  0  0  0  0  0  0  0  0
   38.4154   31.8730   47.0575 C   0  0  0  0  0  0  0  0  0  0  0  0
   38.9807   32.2023   48.1250 O   0  0  0  0  0  0  0  0  0  0  0  0
   37.2507   29.4685   50.5031 C   0  0  0  0  0  0  0  0  0  0  0  0
   37.7447   29.9553   49.2767 C   0  0  0  0  0  0  0  0  0  0  0  0
   36.8881   30.5781   48.3676 C   0  0  0  0  0  0  0  0  0  0  0  0
   35.5846   30.6952   48.7031 N   0  0  0  0  0  0  0  0  0  0  0  0
   35.0945   30.2283   49.8865 C   0  0  0  0  0  0  0  0  0  0  0  0
   35.9327   29.6221   50.7696 N   0  0  0  0  0  0  0  0  0  0  0  0
   36.6444   30.8648   43.4697 C   0  0  0  0  0  0  0  0  0  0  0  0
   37.0076   29.7711   42.7345 C   0  0  0  0  0  0  0  0  0  0  0  0
   36.4792   29.4190   41.5175 C   0  0  0  0  0  0  0  0  0  0  0  0
   35.4796   30.2449   40.9706 C   0  0  0  0  0  0  0  0  0  0  0  0
   35.1364   31.3486   41.7480 C   0  0  0  0  0  0  0  0  0  0  0  0
   35.6970   31.6278   42.9283 N   0  0  0  0  0  0  0  0  0  0  0  0
   40.0919   33.2613   45.9614 C   0  0  0  0  0  0  0  0  0  0  0  0
   39.9668   34.2322   45.0278 F   0  0  0  0  0  0  0  0  0  0  0  0
   41.2916   32.6044   45.6850 F   0  0  0  0  0  0  0  0  0  0  0  0
   40.1801   33.8767   47.2141 F   0  0  0  0  0  0  0  0  0  0  0  0
   35.9082   30.0611   45.9597 H   0  0  0  0  0  0  0  0  0  0  0  0
   37.9349   28.9968   51.1761 H   0  0  0  0  0  0  0  0  0  0  0  0
   38.7720   29.8808   48.9755 H   0  0  0  0  0  0  0  0  0  0  0  0
   34.0741   30.3093   50.1713 H   0  0  0  0  0  0  0  0  0  0  0  0
   37.7784   29.1037   43.1203 H   0  0  0  0  0  0  0  0  0  0  0  0
   36.7677   28.5546   40.9386 H   0  0  0  0  0  0  0  0  0  0  0  0
   34.9844   30.0837   40.0288 H   0  0  0  0  0  0  0  0  0  0  0  0
   35.2641   33.5527   43.0273 O   0  0  0  0  0  0  0  0  0  0  0  0
   34.1263   33.5453   42.2131 C   0  0  2  0  0  0  0  0  0  0  0  0
   34.0898   32.3285   41.3111 C   0  0  1  0  0  0  0  0  0  0  0  0
   34.2837   32.6467   39.9704 O   0  0  0  0  0  0  0  0  0  0  0  0
   33.2686   33.4336   39.4938 C   0  0  0  0  0  0  0  0  0  0  0  0
   32.9095   34.6013   40.3968 C   0  0  1  0  0  0  0  0  0  0  0  0
   31.8224   34.1733   41.1871 O   0  0  0  0  0  0  0  0  0  0  0  0
   34.0705   34.7915   41.3465 C   0  0  1  0  0  0  0  0  0  0  0  0
   33.8936   35.8867   42.1896 O   0  0  0  0  0  0  0  0  0  0  0  0
   34.9691   33.2464   43.9432 H   0  0  0  0  0  0  0  0  0  0  0  0
   33.1895   33.5279   42.8406 H   0  0  0  0  0  0  0  0  0  0  0  0
   33.1175   31.7746   41.4096 H   0  0  0  0  0  0  0  0  0  0  0  0
   33.6114   33.9005   38.5270 H   0  0  0  0  0  0  0  0  0  0  0  0
   32.3355   32.8674   39.2719 H   0  0  0  0  0  0  0  0  0  0  0  0
   32.6608   35.5246   39.8350 H   0  0  0  0  0  0  0  0  0  0  0  0
   31.0868   33.8527   40.5811 H   0  0  0  0  0  0  0  0  0  0  0  0
   35.0366   34.8322   40.7911 H   0  0  0  0  0  0  0  0  0  0  0  0
   34.6257   36.5400   42.0150 H   0  0  0  0  0  0  0  0  0  0  0  0
  1 11  1  0
  2  1  1  0
  3  4  1  0
  3  2  2  0
  4  6  1  0
  5  4  2  0
  6 21  1  0
  6  7  1  0
  7  1  1  0
  7  8  2  0
  9 14  2  0
 10  9  1  0
 11 12  1  0
 11 10  2  0
 12 13  2  0
 13 14  1  0
 15  3  1  0
 16 15  2  0
 17 16  1  0
 18 17  2  0
 18 19  1  0
 19 20  2  0
 20 15  1  0
 21 24  1  0
 22 21  1  0
 23 21  1  0
  2 25  1  0
  9 26  1  0
 10 27  1  0
 13 28  1  0
 16 29  1  0
 17 30  1  0
 18 31  1  0
 32 33  1  0
 33 34  1  0
 34 35  1  0
 35 36  1  0
 36 37  1  0
 37 38  1  0
 37 39  1  0
 39 40  1  0
 39 33  1  0
 32 41  1  0
 33 42  1  1
 34 43  1  6
 36 44  1  0
 36 45  1  0
 37 46  1  6
 38 47  1  0
 39 48  1  6
 40 49  1  0
 19 34  1  0
M  ISO  7  25  14  26  14  27  14  28  14  29  14  30  14  31  14
M  END
>  <DihAtoms>  (1) 
17,18,33,32

>  <DihDeg>  (1) 
100.90870867743268

$$$$
