
 OpenBabel03272505593D

 47 50  0  0  1  0  0  0  0  0999 V2000
   35.2140   30.3770   49.8750 C   0  0  2  0  0  0  0  0  0  0  0  0
   36.1270   31.1970   49.0410 C   0  0  0  0  0  0  0  0  0  0  0  0
   37.5830   30.7090   49.1080 C   0  0  2  0  0  0  0  0  0  0  0  0
   38.1270   30.6310   50.4620 C   0  0  0  0  0  0  0  0  0  0  0  0
   37.1340   30.0970   51.4840 C   0  0  0  0  0  0  0  0  0  0  0  0
   35.9410   29.4630   50.8330 C   0  0  0  0  0  0  0  0  0  0  0  0
   34.5460   31.0040   50.5390 H   0  0  0  0  0  0  0  0  0  0  0  0
   35.9750   31.3030   47.9900 H   0  0  0  0  0  0  0  0  0  0  0  0
   36.1440   32.2620   49.4490 H   0  0  0  0  0  0  0  0  0  0  0  0
   37.6190   29.7620   48.5580 H   0  0  0  0  0  0  0  0  0  0  0  0
   39.0580   30.0220   50.4430 H   0  0  0  0  0  0  0  0  0  0  0  0
   38.4390   31.6170   50.8550 H   0  0  0  0  0  0  0  0  0  0  0  0
   37.6570   29.2910   52.0390 H   0  0  0  0  0  0  0  0  0  0  0  0
   36.8350   30.8350   52.2370 H   0  0  0  0  0  0  0  0  0  0  0  0
   36.2000   28.5430   50.2860 H   0  0  0  0  0  0  0  0  0  0  0  0
   35.2360   29.1650   51.6280 H   0  0  0  0  0  0  0  0  0  0  0  0
   37.6520   30.2060   46.2030 Cl  0  0  0  0  0  0  0  0  0  0  0  0
   38.4640   31.5770   46.9430 C   0  0  0  0  0  0  0  0  0  0  0  0
   38.3290   31.7300   48.3130 C   0  0  0  0  0  0  0  0  0  0  0  0
   38.9790   32.8450   48.7940 C   0  0  0  0  0  0  0  0  0  0  0  0
   39.6880   33.7120   47.9870 C   0  0  0  0  0  0  0  0  0  0  0  0
   39.7730   33.4850   46.6190 C   0  0  0  0  0  0  0  0  0  0  0  0
   39.1360   32.3750   46.0840 C   0  0  0  0  0  0  0  0  0  0  0  0
   38.9150   33.0320   49.8580 H   0  0  0  0  0  0  0  0  0  0  0  0
   40.1590   34.5590   48.4850 H   0  0  0  0  0  0  0  0  0  0  0  0
   40.3350   34.1840   46.0310 H   0  0  0  0  0  0  0  0  0  0  0  0
   40.0850   30.9340   44.3000 C   0  0  1  0  0  0  0  0  0  0  0  0
   39.2270   32.1330   44.6280 C   0  0  2  0  0  0  0  0  0  0  0  0
   39.6860   33.2650   43.9520 O   0  0  0  0  0  0  0  0  0  0  0  0
   39.3470   33.1920   42.6120 C   0  0  0  0  0  0  0  0  0  0  0  0
   39.6960   31.8500   42.0090 C   0  0  1  0  0  0  0  0  0  0  0  0
   40.6730   31.1440   42.9260 C   0  0  2  0  0  0  0  0  0  0  0  0
   41.1620   30.8100   45.1740 O   0  0  0  0  0  0  0  0  0  0  0  0
   42.0190   31.1310   44.7720 H   0  0  0  0  0  0  0  0  0  0  0  0
   38.5930   31.0340   41.8360 O   0  0  0  0  0  0  0  0  0  0  0  0
   37.7790   31.5690   41.6050 H   0  0  0  0  0  0  0  0  0  0  0  0
   41.0290   29.9280   42.3830 O   0  0  0  0  0  0  0  0  0  0  0  0
   41.8500   30.0470   41.8170 H   0  0  0  0  0  0  0  0  0  0  0  0
   34.3030   29.5410   49.0760 C   0  0  0  0  0  0  0  0  0  0  0  0
   34.3000   29.8110   47.7060 C   0  0  0  0  0  0  0  0  0  0  0  0
   33.4610   29.0310   46.8950 C   0  0  0  0  0  0  0  0  0  0  0  0
   32.6840   28.0420   47.4880 N   0  0  0  0  0  0  0  0  0  0  0  0
   32.7220   27.8210   48.8170 C   0  0  0  0  0  0  0  0  0  0  0  0
   33.5270   28.5740   49.5680 N   0  0  0  0  0  0  0  0  0  0  0  0
   34.7510   30.4710   46.9880 H   0  0  0  0  0  0  0  0  0  0  0  0
   33.2650   29.0180   45.8510 H   0  0  0  0  0  0  0  0  0  0  0  0
   32.1230   27.0550   49.2870 H   0  0  0  0  0  0  0  0  0  0  0  0
  1  7  1  1  0  0  0
  1  6  1  0  0  0  0
  2  3  1  0  0  0  0
  2  9  1  0  0  0  0
  2  1  1  0  0  0  0
  3 10  1  6  0  0  0
  3  4  1  0  0  0  0
  4 12  1  0  0  0  0
  4  5  1  0  0  0  0
  5 13  1  0  0  0  0
  5 14  1  0  0  0  0
  6  5  1  0  0  0  0
  6 16  1  0  0  0  0
  8  2  1  0  0  0  0
 11  4  1  0  0  0  0
 15  6  1  0  0  0  0
 17 18  1  0  0  0  0
 18 19  1  0  0  0  0
 19 20  2  0  0  0  0
 19  3  1  0  0  0  0
 20 24  1  0  0  0  0
 21 25  1  0  0  0  0
 21 20  1  0  0  0  0
 22 21  2  0  0  0  0
 23 22  1  0  0  0  0
 23 18  2  0  0  0  0
 26 22  1  0  0  0  0
 27 28  1  0  0  0  0
 27 33  1  1  0  0  0
 28 23  1  1  0  0  0
 29 28  1  0  0  0  0
 30 29  1  0  0  0  0
 31 35  1  1  0  0  0
 31 30  1  0  0  0  0
 31 32  1  0  0  0  0
 32 37  1  6  0  0  0
 32 27  1  0  0  0  0
 34 33  1  0  0  0  0
 36 35  1  0  0  0  0
 38 37  1  0  0  0  0
 39 44  1  0  0  0  0
 39  1  1  0  0  0  0
 40 39  2  0  0  0  0
 41 42  2  0  0  0  0
 41 40  1  0  0  0  0
 42 43  1  0  0  0  0
 43 47  1  0  0  0  0
 43 44  2  0  0  0  0
 45 40  1  0  0  0  0
 46 41  1  0  0  0  0
M  END
>  <minimizedAffinity>
-8.20170021

>  <minimizedRMSD>
1.11931932

$$$$
