
     RDKit          3D

 28 29  0  0  0  0  0  0  0  0999 V2000
   37.2978   29.9913   51.1813 C   0  0  0  0  0  0  0  0  0  0  0  0
   37.9591   30.9216   50.3523 C   0  0  0  0  0  0  0  0  0  0  0  0
   37.2738   31.3882   49.2320 C   0  0  0  0  0  0  0  0  0  0  0  0
   36.0156   30.9284   48.9965 N   0  0  0  0  0  0  0  0  0  0  0  0
   35.4095   30.0298   49.8198 C   0  0  0  0  0  0  0  0  0  0  0  0
   36.0573   29.5760   50.8966 N   0  0  0  0  0  0  0  0  0  0  0  0
   38.0810   29.6086   52.2535 O   0  0  0  0  0  0  0  0  0  0  0  0
   38.9439   31.3122   50.4941 H   0  0  0  0  0  0  0  0  0  0  0  0
   37.7067   32.1026   48.5434 H   0  0  0  0  0  0  0  0  0  0  0  0
   38.9162   29.0663   52.0011 H   0  0  0  0  0  0  0  0  0  0  0  0
   32.5303   30.1461   47.6830 O   0  0  0  0  0  0  0  0  0  0  0  0
   33.7729   29.6676   48.0161 C   0  0  1  0  0  0  0  0  0  0  0  0
   34.0308   29.5714   49.4990 C   0  0  1  0  0  0  0  0  0  0  0  0
   33.8851   28.2713   49.9772 O   0  0  0  0  0  0  0  0  0  0  0  0
   32.7747   27.6999   49.3167 C   0  0  0  0  0  0  0  0  0  0  0  0
   33.3485   27.1846   48.0036 C   0  0  1  0  0  0  0  0  0  0  0  0
   32.4491   26.4706   47.2534 O   0  0  0  0  0  0  0  0  0  0  0  0
   33.9827   28.3493   47.3105 C   0  0  2  0  0  0  0  0  0  0  0  0
   35.3803   28.1654   47.2383 O   0  0  0  0  0  0  0  0  0  0  0  0
   32.3820   31.0917   47.9394 H   0  0  0  0  0  0  0  0  0  0  0  0
   34.5196   30.3803   47.5995 H   0  0  0  0  0  0  0  0  0  0  0  0
   33.2960   30.2018   50.0328 H   0  0  0  0  0  0  0  0  0  0  0  0
   31.9615   28.4188   49.1523 H   0  0  0  0  0  0  0  0  0  0  0  0
   32.3789   26.8108   49.8719 H   0  0  0  0  0  0  0  0  0  0  0  0
   34.1532   26.4588   48.3217 H   0  0  0  0  0  0  0  0  0  0  0  0
   32.1865   26.9084   46.4062 H   0  0  0  0  0  0  0  0  0  0  0  0
   33.6087   28.4637   46.2725 H   0  0  0  0  0  0  0  0  0  0  0  0
   35.7413   28.4025   46.3628 H   0  0  0  0  0  0  0  0  0  0  0  0
  1  7  1  0
  2  1  2  0
  3  2  1  0
  4  3  2  0
  4  5  1  0
  5  6  2  0
  6  1  1  0
  2  8  1  0
  3  9  1  0
  7 10  1  0
 11 12  1  0
 12 13  1  0
 13 14  1  0
 14 15  1  0
 15 16  1  0
 16 17  1  0
 16 18  1  0
 18 19  1  0
 18 12  1  0
 11 20  1  0
 12 21  1  6
 13 22  1  1
 15 23  1  0
 15 24  1  0
 16 25  1  1
 17 26  1  0
 18 27  1  6
 19 28  1  0
  5 13  1  0
M  ISO  3   8  14   9  14  10   3
M  END
>  <DihAtoms>  (1) 
3,4,12,11

>  <DihDeg>  (1) 
-78.24753155161936

$$$$
