REMARK  Name = 
REMARK  2 active torsions:
REMARK  status: ('A' for Active; 'I' for Inactive)
REMARK    1  A    between atoms: C_1  and  C_7
REMARK    2  A    between atoms: C_3  and  C_12
REMARK                            x       y       z     vdW  Elec       q    Type
REMARK                         _______ _______ _______ _____ _____    ______ ____
ROOT
ATOM      1  C   UNL     1      39.096  31.098  45.902  0.00  0.00    +0.000 A 
ATOM      2  C   UNL     1      39.902  32.201  45.887  0.00  0.00    +0.000 A 
ATOM      3  C   UNL     1      40.930  32.043  44.960  0.00  0.00    +0.000 A 
ATOM      4  N   UNL     1      40.693  30.814  44.440  0.00  0.00    +0.000 N 
ATOM      5  N   UNL     1      39.620  30.252  44.986  0.00  0.00    +0.000 NA
ATOM      6  H   UNL     1      39.819  33.104  46.478  0.00  0.00    +0.000 HD
ATOM      7  H   UNL     1      41.747  32.635  44.639  0.00  0.00    +0.000 HD
ATOM      8  C   UNL     1      41.354  30.031  43.448  0.00  0.00    +0.000 A 
ATOM      9  C   UNL     1      42.534  29.302  43.394  0.00  0.00    +0.000 A 
ATOM     10  H   UNL     1      43.151  29.271  44.269  0.00  0.00    +0.000 HD
ATOM     11  C   UNL     1      42.569  28.783  42.115  0.00  0.00    +0.000 A 
ATOM     12  H   UNL     1      43.423  28.155  41.819  0.00  0.00    +0.000 HD
ATOM     13  N   UNL     1      41.481  29.165  41.419  0.00  0.00    +0.000 N 
ATOM     14  H   UNL     1      41.287  28.896  40.428  0.00  0.00    +0.000 HD
ATOM     15  N   UNL     1      40.745  29.926  42.238  0.00  0.00    +0.000 NA
ENDROOT
BRANCH   1  16
ATOM     16  C   UNL     1      37.913  30.872  46.733  0.00  0.00    +0.000 A 
ATOM     17  C   UNL     1      38.049  31.036  48.135  0.00  0.00    +0.000 A 
ATOM     18  C   UNL     1      36.935  30.825  48.936  0.00  0.00    +0.000 A 
ATOM     19  N   UNL     1      35.769  30.467  48.311  0.00  0.00    +0.000 NA
ATOM     20  C   UNL     1      35.666  30.317  46.980  0.00  0.00    +0.000 A 
ATOM     21  N   UNL     1      36.752  30.524  46.200  0.00  0.00    +0.000 NA
ATOM     22  H   UNL     1      39.017  31.324  48.556  0.00  0.00    +0.000 HD
ATOM     23  H   UNL     1      34.754  30.038  46.492  0.00  0.00    +0.000 HD
BRANCH  18  24
ATOM     24  C   UNL     1      37.052  30.991  50.405  0.00  0.00    +0.000 C 
ATOM     25  F   UNL     1      36.551  32.234  50.686  0.00  0.00    +0.000 F 
ATOM     26  F   UNL     1      36.315  30.036  51.105  0.00  0.00    +0.000 F 
ATOM     27  F   UNL     1      38.381  30.943  50.824  0.00  0.00    +0.000 F 
ENDBRANCH  18  24
ENDBRANCH   1  16
TORSDOF 2
