
 OpenBabel03272502593D

 33 35  0  0  1  0  0  0  0  0999 V2000
   35.7980   29.5610   48.8120 N   0  0  0  0  0  0  0  0  0  0  0  0
   36.5710   28.8210   49.7640 C   0  0  0  0  0  0  0  0  0  0  0  0
   37.0880   29.5210   50.9450 C   0  0  0  0  0  0  0  0  0  0  0  0
   37.3130   30.9780   50.8430 C   0  0  0  0  0  0  0  0  0  0  0  0
   36.5420   31.6590   49.7390 C   0  0  0  0  0  0  0  0  0  0  0  0
   36.5300   30.7630   48.5100 C   0  0  1  0  0  0  0  0  0  0  0  0
   35.9330   27.9400   50.0630 H   0  0  0  0  0  0  0  0  0  0  0  0
   37.4220   28.3640   49.1940 H   0  0  0  0  0  0  0  0  0  0  0  0
   38.0500   29.0430   51.2550 H   0  0  0  0  0  0  0  0  0  0  0  0
   36.3820   29.3100   51.7980 H   0  0  0  0  0  0  0  0  0  0  0  0
   37.0110   31.4790   51.7980 H   0  0  0  0  0  0  0  0  0  0  0  0
   38.3960   31.2350   50.7070 H   0  0  0  0  0  0  0  0  0  0  0  0
   35.5000   31.8920   49.9810 H   0  0  0  0  0  0  0  0  0  0  0  0
   37.0910   32.5960   49.4530 H   0  0  0  0  0  0  0  0  0  0  0  0
   36.1190   31.3390   47.6570 H   0  0  0  0  0  0  0  0  0  0  0  0
   34.5340   29.1820   48.2650 C   0  0  0  0  0  0  0  0  0  0  0  0
   34.0060   29.6780   47.0740 C   0  0  0  0  0  0  0  0  0  0  0  0
   32.7650   29.2170   46.6650 C   0  0  0  0  0  0  0  0  0  0  0  0
   32.1310   28.3000   47.4570 N   0  0  0  0  0  0  0  0  0  0  0  0
   32.6720   27.8500   48.5940 C   0  0  0  0  0  0  0  0  0  0  0  0
   33.8800   28.2860   49.0090 N   0  0  0  0  0  0  0  0  0  0  0  0
   34.5860   30.3870   46.5400 H   0  0  0  0  0  0  0  0  0  0  0  0
   32.3790   29.6160   45.7400 H   0  0  0  0  0  0  0  0  0  0  0  0
   32.1120   27.1240   49.1690 H   0  0  0  0  0  0  0  0  0  0  0  0
   37.8800   30.5150   48.2380 O   0  0  0  0  0  0  0  0  0  0  0  0
   38.6010   31.1870   47.2580 C   0  0  0  0  0  0  0  0  0  0  0  0
   39.1260   32.4830   47.2280 C   0  0  0  0  0  0  0  0  0  0  0  0
   39.0160   33.1770   48.0490 H   0  0  0  0  0  0  0  0  0  0  0  0
   39.7690   32.6920   46.0240 C   0  0  0  0  0  0  0  0  0  0  0  0
   40.2380   33.6240   45.8050 H   0  0  0  0  0  0  0  0  0  0  0  0
   39.6210   31.5160   45.3500 N   0  0  0  0  0  0  0  0  0  0  0  0
   40.0400   31.4460   44.3920 H   0  0  0  0  0  0  0  0  0  0  0  0
   38.9390   30.6440   46.0760 N   0  0  0  0  0  0  0  0  0  0  0  0
  1  2  1  0  0  0  0
  2  7  1  0  0  0  0
  2  3  1  0  0  0  0
  3  9  1  0  0  0  0
  3 10  1  0  0  0  0
  4  3  1  0  0  0  0
  4 11  1  0  0  0  0
  5 13  1  0  0  0  0
  5  4  1  0  0  0  0
  6 15  1  6  0  0  0
  6  1  1  0  0  0  0
  6  5  1  0  0  0  0
  8  2  1  0  0  0  0
 12  4  1  0  0  0  0
 14  5  1  0  0  0  0
 16  1  1  0  0  0  0
 16 21  1  0  0  0  0
 17 16  2  0  0  0  0
 18 17  1  0  0  0  0
 18 19  2  0  0  0  0
 19 20  1  0  0  0  0
 20 21  2  0  0  0  0
 20 24  1  0  0  0  0
 22 17  1  0  0  0  0
 23 18  1  0  0  0  0
 25  6  1  0  0  0  0
 26 25  1  0  0  0  0
 27 26  1  0  0  0  0
 27 28  1  0  0  0  0
 29 27  2  0  0  0  0
 30 29  1  0  0  0  0
 31 29  1  0  0  0  0
 31 33  1  0  0  0  0
 32 31  1  0  0  0  0
 33 26  2  0  0  0  0
M  END
>  <minimizedAffinity>
-5.44221115

>  <minimizedRMSD>
0.595496893

$$$$
