
 OpenBabel03272503123D

 45 49  0  0  0  0  0  0  0  0999 V2000
   39.2850   31.8890   44.9510 C   0  0  0  0  0  0  0  0  0  0  0  0
   38.1950   32.5430   45.0580 O   0  0  0  0  0  0  0  0  0  0  0  0
   39.9590   31.6290   46.1610 N   0  0  0  0  0  0  0  0  0  0  0  0
   40.8460   31.0950   46.1070 H   0  0  0  0  0  0  0  0  0  0  0  0
   39.2010   32.1900   42.5620 C   0  0  0  0  0  0  0  0  0  0  0  0
   39.7230   31.4810   43.6230 C   0  0  0  0  0  0  0  0  0  0  0  0
   40.6100   30.4470   43.4750 C   0  0  0  0  0  0  0  0  0  0  0  0
   41.0120   30.0850   42.1980 C   0  0  0  0  0  0  0  0  0  0  0  0
   41.8430   29.1450   41.7490 N   0  0  0  0  0  0  0  0  0  0  0  0
   41.8720   29.2310   40.4250 C   0  0  0  0  0  0  0  0  0  0  0  0
   41.0530   30.2310   40.0230 N   0  0  0  0  0  0  0  0  0  0  0  0
   40.4900   30.7950   41.1280 C   0  0  0  0  0  0  0  0  0  0  0  0
   39.5970   31.8350   41.2650 C   0  0  0  0  0  0  0  0  0  0  0  0
   38.5040   32.9970   42.7390 H   0  0  0  0  0  0  0  0  0  0  0  0
   40.9830   29.9300   44.3550 H   0  0  0  0  0  0  0  0  0  0  0  0
   42.3570   28.4830   42.3650 H   0  0  0  0  0  0  0  0  0  0  0  0
   42.4690   28.5870   39.7680 H   0  0  0  0  0  0  0  0  0  0  0  0
   39.0860   32.5270   40.1980 O   0  0  0  0  0  0  0  0  0  0  0  0
   37.8520   33.0860   40.0780 C   0  0  0  0  0  0  0  0  0  0  0  0
   36.9320   32.1820   39.5300 C   0  0  0  0  0  0  0  0  0  0  0  0
   36.9220   31.1390   39.1650 H   0  0  0  0  0  0  0  0  0  0  0  0
   35.7040   32.8100   39.4360 C   0  0  0  0  0  0  0  0  0  0  0  0
   34.7230   32.5140   39.0830 H   0  0  0  0  0  0  0  0  0  0  0  0
   35.9460   34.0490   39.9280 N   0  0  0  0  0  0  0  0  0  0  0  0
   35.2410   34.8340   40.0210 H   0  0  0  0  0  0  0  0  0  0  0  0
   37.1930   34.2350   40.3100 N   0  0  0  0  0  0  0  0  0  0  0  0
   38.1220   30.1410   47.5010 F   0  0  0  0  0  0  0  0  0  0  0  0
   38.3720   31.3860   47.9880 C   0  0  0  0  0  0  0  0  0  0  0  0
   37.7150   31.8320   49.0960 C   0  0  0  0  0  0  0  0  0  0  0  0
   38.0170   33.0960   49.5290 C   0  0  0  0  0  0  0  0  0  0  0  0
   38.9390   33.9070   48.9000 C   0  0  0  0  0  0  0  0  0  0  0  0
   39.5950   33.4310   47.7760 C   0  0  0  0  0  0  0  0  0  0  0  0
   39.3050   32.1540   47.3180 C   0  0  0  0  0  0  0  0  0  0  0  0
   37.4900   33.4530   50.4180 H   0  0  0  0  0  0  0  0  0  0  0  0
   39.1070   34.8900   49.3220 H   0  0  0  0  0  0  0  0  0  0  0  0
   40.3150   34.0640   47.2830 H   0  0  0  0  0  0  0  0  0  0  0  0
   36.0840   29.3650   51.4530 C   0  0  0  0  0  0  0  0  0  0  0  0
   37.0510   30.2200   50.8690 C   0  0  0  0  0  0  0  0  0  0  0  0
   36.7470   30.9380   49.7290 C   0  0  0  0  0  0  0  0  0  0  0  0
   35.4840   30.7880   49.1960 N   0  0  0  0  0  0  0  0  0  0  0  0
   34.5810   29.9750   49.7580 C   0  0  0  0  0  0  0  0  0  0  0  0
   34.8660   29.2780   50.8590 N   0  0  0  0  0  0  0  0  0  0  0  0
   36.4620   28.8760   52.3290 H   0  0  0  0  0  0  0  0  0  0  0  0
   38.0460   30.3670   51.2520 H   0  0  0  0  0  0  0  0  0  0  0  0
   33.5860   29.8510   49.3450 H   0  0  0  0  0  0  0  0  0  0  0  0
  1  2  2  0  0  0  0
  1  3  1  0  0  0  0
  3 33  1  0  0  0  0
  4  3  1  0  0  0  0
  5 14  1  0  0  0  0
  5  6  1  0  0  0  0
  6  1  1  0  0  0  0
  7  6  2  0  0  0  0
  7 15  1  0  0  0  0
  8  7  1  0  0  0  0
  9  8  1  0  0  0  0
  9 16  1  0  0  0  0
 10  9  1  0  0  0  0
 11 10  2  0  0  0  0
 11 12  1  0  0  0  0
 12 13  1  0  0  0  0
 12  8  2  0  0  0  0
 13  5  2  0  0  0  0
 17 10  1  0  0  0  0
 18 13  1  0  0  0  0
 19 18  1  0  0  0  0
 19 26  2  0  0  0  0
 20 19  1  0  0  0  0
 21 20  1  0  0  0  0
 22 20  2  0  0  0  0
 22 24  1  0  0  0  0
 23 22  1  0  0  0  0
 24 25  1  0  0  0  0
 24 26  1  0  0  0  0
 27 28  1  0  0  0  0
 28 29  1  0  0  0  0
 29 30  2  0  0  0  0
 29 39  1  0  0  0  0
 30 34  1  0  0  0  0
 31 35  1  0  0  0  0
 31 30  1  0  0  0  0
 32 31  2  0  0  0  0
 33 32  1  0  0  0  0
 33 28  2  0  0  0  0
 36 32  1  0  0  0  0
 37 43  1  0  0  0  0
 38 44  1  0  0  0  0
 38 37  1  0  0  0  0
 39 38  2  0  0  0  0
 40 39  1  0  0  0  0
 40 41  2  0  0  0  0
 41 42  1  0  0  0  0
 42 37  2  0  0  0  0
 45 41  1  0  0  0  0
M  END
>  <minimizedAffinity>
-7.23134279

>  <minimizedRMSD>
0.823856294

$$$$
