
 OpenBabel03272508023D

 27 29  0  0  0  0  0  0  0  0999 V2000
   39.0070   30.9030   45.7180 C   0  0  0  0  0  0  0  0  0  0  0  0
   40.1840   31.5290   46.0180 C   0  0  0  0  0  0  0  0  0  0  0  0
   41.0660   31.4560   44.9420 C   0  0  0  0  0  0  0  0  0  0  0  0
   40.3610   30.7690   44.0100 N   0  0  0  0  0  0  0  0  0  0  0  0
   39.1540   30.4400   44.4550 N   0  0  0  0  0  0  0  0  0  0  0  0
   40.4660   32.0300   46.9360 H   0  0  0  0  0  0  0  0  0  0  0  0
   42.0500   31.7980   44.7550 H   0  0  0  0  0  0  0  0  0  0  0  0
   40.6580   30.3440   42.6810 C   0  0  0  0  0  0  0  0  0  0  0  0
   41.4540   29.3550   42.1190 C   0  0  0  0  0  0  0  0  0  0  0  0
   42.0080   28.7160   42.7750 H   0  0  0  0  0  0  0  0  0  0  0  0
   41.2800   29.4970   40.7560 C   0  0  0  0  0  0  0  0  0  0  0  0
   41.8160   28.8150   40.0780 H   0  0  0  0  0  0  0  0  0  0  0  0
   40.4320   30.5080   40.4890 N   0  0  0  0  0  0  0  0  0  0  0  0
   40.1470   30.8050   39.5290 H   0  0  0  0  0  0  0  0  0  0  0  0
   40.0580   31.0210   41.6680 N   0  0  0  0  0  0  0  0  0  0  0  0
   37.8320   30.7600   46.5770 C   0  0  0  0  0  0  0  0  0  0  0  0
   37.9930   31.0050   47.9640 C   0  0  0  0  0  0  0  0  0  0  0  0
   36.8860   30.8720   48.7920 C   0  0  0  0  0  0  0  0  0  0  0  0
   35.7020   30.5080   48.2050 N   0  0  0  0  0  0  0  0  0  0  0  0
   35.5750   30.2810   46.8880 C   0  0  0  0  0  0  0  0  0  0  0  0
   36.6540   30.4110   46.0820 N   0  0  0  0  0  0  0  0  0  0  0  0
   38.9740   31.2920   48.3540 H   0  0  0  0  0  0  0  0  0  0  0  0
   34.6490   29.9970   46.4300 H   0  0  0  0  0  0  0  0  0  0  0  0
   37.0290   31.1240   50.2460 C   0  0  0  0  0  0  0  0  0  0  0  0
   36.5190   32.3750   50.4650 F   0  0  0  0  0  0  0  0  0  0  0  0
   36.3180   30.2030   51.0140 F   0  0  0  0  0  0  0  0  0  0  0  0
   38.3670   31.1140   50.6410 F   0  0  0  0  0  0  0  0  0  0  0  0
  1  2  1  0  0  0  0
  1 16  1  0  0  0  0
  2  6  1  0  0  0  0
  3  2  2  0  0  0  0
  4  5  1  0  0  0  0
  4  3  1  0  0  0  0
  5  1  2  0  0  0  0
  7  3  1  0  0  0  0
  8  4  1  0  0  0  0
  9  8  1  0  0  0  0
  9 10  1  0  0  0  0
 11  9  2  0  0  0  0
 12 11  1  0  0  0  0
 13 11  1  0  0  0  0
 13 15  1  0  0  0  0
 14 13  1  0  0  0  0
 15  8  2  0  0  0  0
 16 17  1  0  0  0  0
 17 22  1  0  0  0  0
 17 18  2  0  0  0  0
 18 24  1  0  0  0  0
 19 18  1  0  0  0  0
 20 19  2  0  0  0  0
 21 16  2  0  0  0  0
 21 20  1  0  0  0  0
 23 20  1  0  0  0  0
 24 25  1  0  0  0  0
 24 27  1  0  0  0  0
 24 26  1  0  0  0  0
M  END
>  <minimizedAffinity>
-6.25779724

>  <minimizedRMSD>
0.893216014

$$$$
