
 OpenBabel03272508023D

 27 29  0  0  0  0  0  0  0  0999 V2000
   38.8750   30.8030   45.5850 C   0  0  0  0  0  0  0  0  0  0  0  0
   40.0150   31.5400   45.7330 C   0  0  0  0  0  0  0  0  0  0  0  0
   40.8600   31.3590   44.6400 C   0  0  0  0  0  0  0  0  0  0  0  0
   40.1720   30.4940   43.8560 N   0  0  0  0  0  0  0  0  0  0  0  0
   39.0070   30.1620   44.4020 N   0  0  0  0  0  0  0  0  0  0  0  0
   40.2940   32.1930   46.5500 H   0  0  0  0  0  0  0  0  0  0  0  0
   41.8110   31.7300   44.3590 H   0  0  0  0  0  0  0  0  0  0  0  0
   40.4500   29.8890   42.5950 C   0  0  0  0  0  0  0  0  0  0  0  0
   39.7270   29.6570   41.4320 C   0  0  0  0  0  0  0  0  0  0  0  0
   38.7070   29.9820   41.3980 H   0  0  0  0  0  0  0  0  0  0  0  0
   40.6130   29.0200   40.5880 C   0  0  0  0  0  0  0  0  0  0  0  0
   40.2730   28.7250   39.5840 H   0  0  0  0  0  0  0  0  0  0  0  0
   41.8100   28.8650   41.1860 N   0  0  0  0  0  0  0  0  0  0  0  0
   42.6390   28.4090   40.7420 H   0  0  0  0  0  0  0  0  0  0  0  0
   41.7030   29.3980   42.4090 N   0  0  0  0  0  0  0  0  0  0  0  0
   37.7440   30.7190   46.5100 C   0  0  0  0  0  0  0  0  0  0  0  0
   37.9790   31.0330   47.8720 C   0  0  0  0  0  0  0  0  0  0  0  0
   36.9150   30.9580   48.7610 C   0  0  0  0  0  0  0  0  0  0  0  0
   35.6990   30.5790   48.2560 N   0  0  0  0  0  0  0  0  0  0  0  0
   35.5020   30.2850   46.9600 C   0  0  0  0  0  0  0  0  0  0  0  0
   36.5390   30.3600   46.0940 N   0  0  0  0  0  0  0  0  0  0  0  0
   38.9820   31.3280   48.1960 H   0  0  0  0  0  0  0  0  0  0  0  0
   34.5500   29.9900   46.5660 H   0  0  0  0  0  0  0  0  0  0  0  0
   37.1360   31.2820   50.1910 C   0  0  0  0  0  0  0  0  0  0  0  0
   36.5720   32.5140   50.3910 F   0  0  0  0  0  0  0  0  0  0  0  0
   36.5270   30.3610   51.0420 F   0  0  0  0  0  0  0  0  0  0  0  0
   38.4940   31.3620   50.4970 F   0  0  0  0  0  0  0  0  0  0  0  0
  1  2  1  0  0  0  0
  1 16  1  0  0  0  0
  2  6  1  0  0  0  0
  3  2  2  0  0  0  0
  4  5  1  0  0  0  0
  4  3  1  0  0  0  0
  5  1  2  0  0  0  0
  7  3  1  0  0  0  0
  8  4  1  0  0  0  0
  9  8  1  0  0  0  0
 10  9  1  0  0  0  0
 11 13  1  0  0  0  0
 11  9  2  0  0  0  0
 12 11  1  0  0  0  0
 13 15  1  0  0  0  0
 14 13  1  0  0  0  0
 15  8  2  0  0  0  0
 16 17  1  0  0  0  0
 17 22  1  0  0  0  0
 17 18  2  0  0  0  0
 18 24  1  0  0  0  0
 19 18  1  0  0  0  0
 20 19  2  0  0  0  0
 21 16  2  0  0  0  0
 21 20  1  0  0  0  0
 23 20  1  0  0  0  0
 24 25  1  0  0  0  0
 24 27  1  0  0  0  0
 24 26  1  0  0  0  0
M  END
>  <minimizedAffinity>
-6.17400312

>  <minimizedRMSD>
0.951614201

$$$$
