
 OpenBabel03272508033D

 27 29  0  0  0  0  0  0  0  0999 V2000
   37.3990   26.4780   34.2580 C   0  0  0  0  0  0  0  0  0  0  0  0
   37.3650   26.7710   32.9240 C   0  0  0  0  0  0  0  0  0  0  0  0
   36.6590   27.9520   32.7000 C   0  0  0  0  0  0  0  0  0  0  0  0
   36.2860   28.3310   33.9470 N   0  0  0  0  0  0  0  0  0  0  0  0
   36.7150   27.4740   34.8670 N   0  0  0  0  0  0  0  0  0  0  0  0
   37.7990   26.2180   32.1010 H   0  0  0  0  0  0  0  0  0  0  0  0
   36.4020   28.5200   31.8450 H   0  0  0  0  0  0  0  0  0  0  0  0
   35.5440   29.4420   34.4470 C   0  0  0  0  0  0  0  0  0  0  0  0
   35.8560   30.6080   35.1320 C   0  0  0  0  0  0  0  0  0  0  0  0
   36.8820   30.7880   35.3830 H   0  0  0  0  0  0  0  0  0  0  0  0
   34.6460   31.2490   35.3060 C   0  0  0  0  0  0  0  0  0  0  0  0
   34.6270   32.2150   35.8330 H   0  0  0  0  0  0  0  0  0  0  0  0
   33.6460   30.5280   34.7640 N   0  0  0  0  0  0  0  0  0  0  0  0
   32.6400   30.8120   34.7710 H   0  0  0  0  0  0  0  0  0  0  0  0
   34.2010   29.4270   34.2420 N   0  0  0  0  0  0  0  0  0  0  0  0
   38.0390   25.3300   34.9000 C   0  0  0  0  0  0  0  0  0  0  0  0
   37.8480   25.1610   36.2950 C   0  0  0  0  0  0  0  0  0  0  0  0
   38.4480   24.0760   36.9180 C   0  0  0  0  0  0  0  0  0  0  0  0
   39.1940   23.2340   36.1340 N   0  0  0  0  0  0  0  0  0  0  0  0
   39.3610   23.4160   34.8140 C   0  0  0  0  0  0  0  0  0  0  0  0
   38.7740   24.4740   34.2080 N   0  0  0  0  0  0  0  0  0  0  0  0
   37.2360   25.8800   36.8490 H   0  0  0  0  0  0  0  0  0  0  0  0
   39.9440   22.7570   34.2020 H   0  0  0  0  0  0  0  0  0  0  0  0
   38.2630   23.8780   38.3760 C   0  0  0  0  0  0  0  0  0  0  0  0
   39.4630   23.4220   38.8510 F   0  0  0  0  0  0  0  0  0  0  0  0
   37.9350   25.0640   39.0320 F   0  0  0  0  0  0  0  0  0  0  0  0
   37.2860   22.9190   38.6440 F   0  0  0  0  0  0  0  0  0  0  0  0
  1  5  2  0  0  0  0
  1 16  1  0  0  0  0
  2  1  1  0  0  0  0
  3  2  2  0  0  0  0
  3  4  1  0  0  0  0
  4  8  1  0  0  0  0
  4  5  1  0  0  0  0
  6  2  1  0  0  0  0
  7  3  1  0  0  0  0
  8  9  1  0  0  0  0
  9 11  2  0  0  0  0
  9 10  1  0  0  0  0
 11 12  1  0  0  0  0
 13 14  1  0  0  0  0
 13 11  1  0  0  0  0
 15  8  2  0  0  0  0
 15 13  1  0  0  0  0
 16 17  1  0  0  0  0
 17 22  1  0  0  0  0
 17 18  2  0  0  0  0
 18 24  1  0  0  0  0
 19 18  1  0  0  0  0
 20 19  2  0  0  0  0
 21 20  1  0  0  0  0
 21 16  2  0  0  0  0
 23 20  1  0  0  0  0
 24 27  1  0  0  0  0
 24 25  1  0  0  0  0
 24 26  1  0  0  0  0
M  END
>  <minimizedAffinity>
-5.94667673

$$$$

 OpenBabel03272508033D

 27 29  0  0  0  0  0  0  0  0999 V2000
   38.9070   25.4810   33.6960 C   0  0  0  0  0  0  0  0  0  0  0  0
   40.0610   26.2100   33.7520 C   0  0  0  0  0  0  0  0  0  0  0  0
   40.0720   27.1840   32.7550 C   0  0  0  0  0  0  0  0  0  0  0  0
   38.8890   26.9940   32.1220 N   0  0  0  0  0  0  0  0  0  0  0  0
   38.1990   25.9980   32.6660 N   0  0  0  0  0  0  0  0  0  0  0  0
   40.8900   26.1070   34.4390 H   0  0  0  0  0  0  0  0  0  0  0  0
   40.7510   27.9380   32.4530 H   0  0  0  0  0  0  0  0  0  0  0  0
   38.2600   27.6400   31.0170 C   0  0  0  0  0  0  0  0  0  0  0  0
   37.2030   28.5260   30.8650 C   0  0  0  0  0  0  0  0  0  0  0  0
   36.6820   28.8490   31.7430 H   0  0  0  0  0  0  0  0  0  0  0  0
   37.1240   28.7500   29.5040 C   0  0  0  0  0  0  0  0  0  0  0  0
   36.3490   29.4310   29.1220 H   0  0  0  0  0  0  0  0  0  0  0  0
   38.0720   28.0490   28.8540 N   0  0  0  0  0  0  0  0  0  0  0  0
   38.2100   28.0590   27.8180 H   0  0  0  0  0  0  0  0  0  0  0  0
   38.7610   27.3750   29.7820 N   0  0  0  0  0  0  0  0  0  0  0  0
   38.5130   24.3710   34.5640 C   0  0  0  0  0  0  0  0  0  0  0  0
   38.5900   24.5690   35.9660 C   0  0  0  0  0  0  0  0  0  0  0  0
   38.2200   23.5250   36.8030 C   0  0  0  0  0  0  0  0  0  0  0  0
   37.8040   22.3610   36.2100 N   0  0  0  0  0  0  0  0  0  0  0  0
   37.7410   22.1980   34.8780 C   0  0  0  0  0  0  0  0  0  0  0  0
   38.1000   23.2170   34.0640 N   0  0  0  0  0  0  0  0  0  0  0  0
   38.9340   25.5300   36.3600 H   0  0  0  0  0  0  0  0  0  0  0  0
   37.4140   21.2880   34.4160 H   0  0  0  0  0  0  0  0  0  0  0  0
   38.2910   23.7080   38.2730 C   0  0  0  0  0  0  0  0  0  0  0  0
   37.3400   22.8790   38.8030 F   0  0  0  0  0  0  0  0  0  0  0  0
   39.5380   23.3570   38.7890 F   0  0  0  0  0  0  0  0  0  0  0  0
   37.9940   25.0190   38.6430 F   0  0  0  0  0  0  0  0  0  0  0  0
  1  2  1  0  0  0  0
  1 16  1  0  0  0  0
  2  6  1  0  0  0  0
  3  2  2  0  0  0  0
  4  5  1  0  0  0  0
  4  3  1  0  0  0  0
  5  1  2  0  0  0  0
  7  3  1  0  0  0  0
  8  4  1  0  0  0  0
  9  8  1  0  0  0  0
  9 10  1  0  0  0  0
 11  9  2  0  0  0  0
 12 11  1  0  0  0  0
 13 11  1  0  0  0  0
 13 15  1  0  0  0  0
 14 13  1  0  0  0  0
 15  8  2  0  0  0  0
 16 17  1  0  0  0  0
 17 22  1  0  0  0  0
 17 18  2  0  0  0  0
 18 24  1  0  0  0  0
 19 18  1  0  0  0  0
 20 19  2  0  0  0  0
 21 16  2  0  0  0  0
 21 20  1  0  0  0  0
 23 20  1  0  0  0  0
 24 27  1  0  0  0  0
 24 26  1  0  0  0  0
 24 25  1  0  0  0  0
M  END
>  <minimizedAffinity>
-5.61914062

$$$$

 OpenBabel03272508033D

 27 29  0  0  0  0  0  0  0  0999 V2000
   37.7120   25.0890   33.5000 C   0  0  0  0  0  0  0  0  0  0  0  0
   36.9870   24.4660   32.5240 C   0  0  0  0  0  0  0  0  0  0  0  0
   36.3260   25.4020   31.7320 C   0  0  0  0  0  0  0  0  0  0  0  0
   36.6900   26.5860   32.2820 N   0  0  0  0  0  0  0  0  0  0  0  0
   37.5030   26.4130   33.3190 N   0  0  0  0  0  0  0  0  0  0  0  0
   36.8920   23.4050   32.3300 H   0  0  0  0  0  0  0  0  0  0  0  0
   35.6800   25.3520   30.8950 H   0  0  0  0  0  0  0  0  0  0  0  0
   36.3790   27.9430   31.9700 C   0  0  0  0  0  0  0  0  0  0  0  0
   37.0620   29.0000   31.3850 C   0  0  0  0  0  0  0  0  0  0  0  0
   38.0710   28.8380   31.0650 H   0  0  0  0  0  0  0  0  0  0  0  0
   36.1600   30.0460   31.3890 C   0  0  0  0  0  0  0  0  0  0  0  0
   36.4680   31.0160   30.9700 H   0  0  0  0  0  0  0  0  0  0  0  0
   34.9920   29.6620   31.9400 N   0  0  0  0  0  0  0  0  0  0  0  0
   34.1580   30.2820   32.0520 H   0  0  0  0  0  0  0  0  0  0  0  0
   35.1330   28.3790   32.2920 N   0  0  0  0  0  0  0  0  0  0  0  0
   38.5410   24.4630   34.5300 C   0  0  0  0  0  0  0  0  0  0  0  0
   38.0520   24.4590   35.8610 C   0  0  0  0  0  0  0  0  0  0  0  0
   38.8280   23.8680   36.8490 C   0  0  0  0  0  0  0  0  0  0  0  0
   40.0270   23.3250   36.4660 N   0  0  0  0  0  0  0  0  0  0  0  0
   40.4690   23.3420   35.1980 C   0  0  0  0  0  0  0  0  0  0  0  0
   39.7110   23.9170   34.2360 N   0  0  0  0  0  0  0  0  0  0  0  0
   37.0820   24.9150   36.0840 H   0  0  0  0  0  0  0  0  0  0  0  0
   41.4060   22.9160   34.9000 H   0  0  0  0  0  0  0  0  0  0  0  0
   38.3370   23.8510   38.2480 C   0  0  0  0  0  0  0  0  0  0  0  0
   39.3920   23.4290   39.0130 F   0  0  0  0  0  0  0  0  0  0  0  0
   37.9380   25.1140   38.6830 F   0  0  0  0  0  0  0  0  0  0  0  0
   37.2820   22.9540   38.4130 F   0  0  0  0  0  0  0  0  0  0  0  0
  1 16  1  0  0  0  0
  2  1  1  0  0  0  0
  3  4  1  0  0  0  0
  3  2  2  0  0  0  0
  4  5  1  0  0  0  0
  5  1  2  0  0  0  0
  6  2  1  0  0  0  0
  7  3  1  0  0  0  0
  8  4  1  0  0  0  0
  8 15  2  0  0  0  0
  9 11  2  0  0  0  0
  9  8  1  0  0  0  0
 10  9  1  0  0  0  0
 11 13  1  0  0  0  0
 12 11  1  0  0  0  0
 13 14  1  0  0  0  0
 13 15  1  0  0  0  0
 16 17  1  0  0  0  0
 17 22  1  0  0  0  0
 17 18  2  0  0  0  0
 18 24  1  0  0  0  0
 19 18  1  0  0  0  0
 20 19  2  0  0  0  0
 21 16  2  0  0  0  0
 21 20  1  0  0  0  0
 23 20  1  0  0  0  0
 24 27  1  0  0  0  0
 24 26  1  0  0  0  0
 24 25  1  0  0  0  0
M  END
>  <minimizedAffinity>
-5.40061951

$$$$

 OpenBabel03272508033D

 27 29  0  0  0  0  0  0  0  0999 V2000
   36.6500   27.8210   33.7700 C   0  0  0  0  0  0  0  0  0  0  0  0
   36.3110   28.4480   32.6050 C   0  0  0  0  0  0  0  0  0  0  0  0
   35.7510   29.6970   32.8670 C   0  0  0  0  0  0  0  0  0  0  0  0
   35.7770   29.7710   34.2200 N   0  0  0  0  0  0  0  0  0  0  0  0
   36.3020   28.6760   34.7590 N   0  0  0  0  0  0  0  0  0  0  0  0
   36.4290   28.0930   31.5890 H   0  0  0  0  0  0  0  0  0  0  0  0
   35.3650   30.4840   32.2740 H   0  0  0  0  0  0  0  0  0  0  0  0
   35.3620   30.7690   35.1500 C   0  0  0  0  0  0  0  0  0  0  0  0
   36.0090   31.6920   35.9600 C   0  0  0  0  0  0  0  0  0  0  0  0
   37.0800   31.7230   35.9370 H   0  0  0  0  0  0  0  0  0  0  0  0
   34.9930   32.3580   36.6160 C   0  0  0  0  0  0  0  0  0  0  0  0
   35.2540   33.1550   37.3290 H   0  0  0  0  0  0  0  0  0  0  0  0
   33.7920   31.8800   36.2390 N   0  0  0  0  0  0  0  0  0  0  0  0
   32.8760   32.2290   36.6010 H   0  0  0  0  0  0  0  0  0  0  0  0
   34.0240   30.9110   35.3450 N   0  0  0  0  0  0  0  0  0  0  0  0
   37.2610   26.5000   33.9240 C   0  0  0  0  0  0  0  0  0  0  0  0
   37.4740   26.0190   35.2410 C   0  0  0  0  0  0  0  0  0  0  0  0
   38.0520   24.7680   35.4020 C   0  0  0  0  0  0  0  0  0  0  0  0
   38.3830   24.0760   34.2660 N   0  0  0  0  0  0  0  0  0  0  0  0
   38.1720   24.5540   33.0280 C   0  0  0  0  0  0  0  0  0  0  0  0
   37.6070   25.7740   32.8720 N   0  0  0  0  0  0  0  0  0  0  0  0
   37.1800   26.6350   36.0970 H   0  0  0  0  0  0  0  0  0  0  0  0
   38.4300   24.0130   32.1410 H   0  0  0  0  0  0  0  0  0  0  0  0
   38.2840   24.2430   36.7700 C   0  0  0  0  0  0  0  0  0  0  0  0
   37.3500   23.2610   36.9610 F   0  0  0  0  0  0  0  0  0  0  0  0
   39.5570   23.6930   36.9150 F   0  0  0  0  0  0  0  0  0  0  0  0
   38.0970   25.2290   37.7380 F   0  0  0  0  0  0  0  0  0  0  0  0
  1 16  1  0  0  0  0
  1  5  2  0  0  0  0
  2  3  2  0  0  0  0
  2  1  1  0  0  0  0
  3  4  1  0  0  0  0
  4  5  1  0  0  0  0
  4  8  1  0  0  0  0
  6  2  1  0  0  0  0
  7  3  1  0  0  0  0
  8 15  2  0  0  0  0
  8  9  1  0  0  0  0
  9 11  2  0  0  0  0
 10  9  1  0  0  0  0
 11 12  1  0  0  0  0
 13 14  1  0  0  0  0
 13 11  1  0  0  0  0
 15 13  1  0  0  0  0
 16 17  1  0  0  0  0
 17 18  2  0  0  0  0
 17 22  1  0  0  0  0
 18 24  1  0  0  0  0
 19 18  1  0  0  0  0
 20 19  2  0  0  0  0
 21 20  1  0  0  0  0
 21 16  2  0  0  0  0
 23 20  1  0  0  0  0
 24 26  1  0  0  0  0
 24 25  1  0  0  0  0
 24 27  1  0  0  0  0
M  END
>  <minimizedAffinity>
-5.39663982

$$$$

 OpenBabel03272508033D

 27 29  0  0  0  0  0  0  0  0999 V2000
   38.0550   23.9020   33.5340 C   0  0  0  0  0  0  0  0  0  0  0  0
   37.3320   23.1380   32.6620 C   0  0  0  0  0  0  0  0  0  0  0  0
   36.8150   23.9250   31.6350 C   0  0  0  0  0  0  0  0  0  0  0  0
   37.2610   25.1670   31.9410 N   0  0  0  0  0  0  0  0  0  0  0  0
   37.9880   25.1640   33.0530 N   0  0  0  0  0  0  0  0  0  0  0  0
   37.1440   22.0720   32.6950 H   0  0  0  0  0  0  0  0  0  0  0  0
   36.2190   23.7430   30.7790 H   0  0  0  0  0  0  0  0  0  0  0  0
   37.1050   26.4410   31.3180 C   0  0  0  0  0  0  0  0  0  0  0  0
   37.9220   27.2800   30.5740 C   0  0  0  0  0  0  0  0  0  0  0  0
   38.9270   26.9670   30.3790 H   0  0  0  0  0  0  0  0  0  0  0  0
   37.1290   28.3720   30.2790 C   0  0  0  0  0  0  0  0  0  0  0  0
   37.5560   29.1940   29.6850 H   0  0  0  0  0  0  0  0  0  0  0  0
   35.8990   28.2190   30.8040 N   0  0  0  0  0  0  0  0  0  0  0  0
   35.1250   28.9160   30.7120 H   0  0  0  0  0  0  0  0  0  0  0  0
   35.8910   27.0400   31.4370 N   0  0  0  0  0  0  0  0  0  0  0  0
   38.7550   23.4540   34.7390 C   0  0  0  0  0  0  0  0  0  0  0  0
   38.1980   23.8040   35.9950 C   0  0  0  0  0  0  0  0  0  0  0  0
   38.8510   23.3860   37.1460 C   0  0  0  0  0  0  0  0  0  0  0  0
   40.0020   22.6600   36.9890 N   0  0  0  0  0  0  0  0  0  0  0  0
   40.5110   22.3430   35.7860 C   0  0  0  0  0  0  0  0  0  0  0  0
   39.8730   22.7490   34.6650 N   0  0  0  0  0  0  0  0  0  0  0  0
   37.2730   24.3880   36.0350 H   0  0  0  0  0  0  0  0  0  0  0  0
   41.4100   21.7740   35.6640 H   0  0  0  0  0  0  0  0  0  0  0  0
   38.2870   23.7390   38.4720 C   0  0  0  0  0  0  0  0  0  0  0  0
   37.7750   25.0020   38.3410 F   0  0  0  0  0  0  0  0  0  0  0  0
   37.2650   22.8720   38.8590 F   0  0  0  0  0  0  0  0  0  0  0  0
   39.2710   23.7590   39.4600 F   0  0  0  0  0  0  0  0  0  0  0  0
  1 16  1  0  0  0  0
  2  6  1  0  0  0  0
  2  1  1  0  0  0  0
  3  4  1  0  0  0  0
  3  2  2  0  0  0  0
  4  5  1  0  0  0  0
  5  1  2  0  0  0  0
  7  3  1  0  0  0  0
  8 15  2  0  0  0  0
  8  4  1  0  0  0  0
  9  8  1  0  0  0  0
 10  9  1  0  0  0  0
 11  9  2  0  0  0  0
 11 13  1  0  0  0  0
 12 11  1  0  0  0  0
 13 15  1  0  0  0  0
 14 13  1  0  0  0  0
 16 17  1  0  0  0  0
 17 22  1  0  0  0  0
 17 18  2  0  0  0  0
 18 24  1  0  0  0  0
 19 18  1  0  0  0  0
 20 19  2  0  0  0  0
 21 16  2  0  0  0  0
 21 20  1  0  0  0  0
 23 20  1  0  0  0  0
 24 26  1  0  0  0  0
 24 27  1  0  0  0  0
 25 24  1  0  0  0  0
M  END
>  <minimizedAffinity>
-5.38867855

$$$$

 OpenBabel03272508033D

 27 29  0  0  0  0  0  0  0  0999 V2000
   37.9430   24.6620   33.3430 C   0  0  0  0  0  0  0  0  0  0  0  0
   37.6740   23.3550   33.0510 C   0  0  0  0  0  0  0  0  0  0  0  0
   37.7980   22.5640   34.1920 C   0  0  0  0  0  0  0  0  0  0  0  0
   38.1480   23.4550   35.1510 N   0  0  0  0  0  0  0  0  0  0  0  0
   38.2350   24.6880   34.6630 N   0  0  0  0  0  0  0  0  0  0  0  0
   37.3980   22.9200   32.0990 H   0  0  0  0  0  0  0  0  0  0  0  0
   37.6820   21.5330   34.4050 H   0  0  0  0  0  0  0  0  0  0  0  0
   38.4310   23.3290   36.5430 C   0  0  0  0  0  0  0  0  0  0  0  0
   37.7650   23.6500   37.7170 C   0  0  0  0  0  0  0  0  0  0  0  0
   36.7990   24.1080   37.6430 H   0  0  0  0  0  0  0  0  0  0  0  0
   38.6190   23.2510   38.7270 C   0  0  0  0  0  0  0  0  0  0  0  0
   38.3120   23.4020   39.7730 H   0  0  0  0  0  0  0  0  0  0  0  0
   39.7420   22.7160   38.2130 N   0  0  0  0  0  0  0  0  0  0  0  0
   40.5350   22.3440   38.7830 H   0  0  0  0  0  0  0  0  0  0  0  0
   39.6220   22.7670   36.8800 N   0  0  0  0  0  0  0  0  0  0  0  0
   37.9220   25.8010   32.4240 C   0  0  0  0  0  0  0  0  0  0  0  0
   37.1120   26.9130   32.7670 C   0  0  0  0  0  0  0  0  0  0  0  0
   37.0820   28.0000   31.9050 C   0  0  0  0  0  0  0  0  0  0  0  0
   37.8440   27.9230   30.7680 N   0  0  0  0  0  0  0  0  0  0  0  0
   38.6030   26.8570   30.4650 C   0  0  0  0  0  0  0  0  0  0  0  0
   38.6330   25.7980   31.3060 N   0  0  0  0  0  0  0  0  0  0  0  0
   36.5320   26.8950   33.6950 H   0  0  0  0  0  0  0  0  0  0  0  0
   39.2000   26.7980   29.5770 H   0  0  0  0  0  0  0  0  0  0  0  0
   36.2430   29.1750   32.2430 C   0  0  0  0  0  0  0  0  0  0  0  0
   36.2450   29.2610   33.6090 F   0  0  0  0  0  0  0  0  0  0  0  0
   36.7540   30.3600   31.7130 F   0  0  0  0  0  0  0  0  0  0  0  0
   34.9270   29.0090   31.8110 F   0  0  0  0  0  0  0  0  0  0  0  0
  1  5  2  0  0  0  0
  2  1  1  0  0  0  0
  2  3  2  0  0  0  0
  3  7  1  0  0  0  0
  3  4  1  0  0  0  0
  4  8  1  0  0  0  0
  5  4  1  0  0  0  0
  6  2  1  0  0  0  0
  8 15  2  0  0  0  0
  8  9  1  0  0  0  0
  9 11  2  0  0  0  0
 10  9  1  0  0  0  0
 11 12  1  0  0  0  0
 13 11  1  0  0  0  0
 13 14  1  0  0  0  0
 15 13  1  0  0  0  0
 16 17  1  0  0  0  0
 16  1  1  0  0  0  0
 17 22  1  0  0  0  0
 18 24  1  0  0  0  0
 18 17  2  0  0  0  0
 19 18  1  0  0  0  0
 20 19  2  0  0  0  0
 20 21  1  0  0  0  0
 21 16  2  0  0  0  0
 23 20  1  0  0  0  0
 24 25  1  0  0  0  0
 26 24  1  0  0  0  0
 27 24  1  0  0  0  0
M  END
>  <minimizedAffinity>
-5.30498219

$$$$

 OpenBabel03272508033D

 27 29  0  0  0  0  0  0  0  0999 V2000
   35.4360   29.3100   31.9070 C   0  0  0  0  0  0  0  0  0  0  0  0
   36.2170   29.4640   30.7970 C   0  0  0  0  0  0  0  0  0  0  0  0
   36.5890   28.2230   30.2840 C   0  0  0  0  0  0  0  0  0  0  0  0
   35.9980   27.3470   31.1320 N   0  0  0  0  0  0  0  0  0  0  0  0
   35.3200   27.9740   32.0870 N   0  0  0  0  0  0  0  0  0  0  0  0
   36.5430   30.3820   30.3240 H   0  0  0  0  0  0  0  0  0  0  0  0
   37.1700   27.8950   29.4620 H   0  0  0  0  0  0  0  0  0  0  0  0
   35.9640   25.9220   31.1950 C   0  0  0  0  0  0  0  0  0  0  0  0
   35.0170   24.9460   30.9180 C   0  0  0  0  0  0  0  0  0  0  0  0
   34.0540   25.2590   30.5690 H   0  0  0  0  0  0  0  0  0  0  0  0
   35.6500   23.7520   31.2010 C   0  0  0  0  0  0  0  0  0  0  0  0
   35.0980   22.8100   31.0580 H   0  0  0  0  0  0  0  0  0  0  0  0
   36.9090   23.9720   31.6250 N   0  0  0  0  0  0  0  0  0  0  0  0
   37.5820   23.2200   31.8970 H   0  0  0  0  0  0  0  0  0  0  0  0
   37.0940   25.2980   31.6200 N   0  0  0  0  0  0  0  0  0  0  0  0
   34.8460   30.3640   32.7330 C   0  0  0  0  0  0  0  0  0  0  0  0
   35.4790   30.6710   33.9630 C   0  0  0  0  0  0  0  0  0  0  0  0
   34.9310   31.6690   34.7570 C   0  0  0  0  0  0  0  0  0  0  0  0
   33.8020   32.2930   34.2940 N   0  0  0  0  0  0  0  0  0  0  0  0
   33.2200   31.9830   33.1240 C   0  0  0  0  0  0  0  0  0  0  0  0
   33.7560   31.0110   32.3500 N   0  0  0  0  0  0  0  0  0  0  0  0
   36.3790   30.1250   34.2620 H   0  0  0  0  0  0  0  0  0  0  0  0
   32.3380   32.4720   32.7610 H   0  0  0  0  0  0  0  0  0  0  0  0
   35.5750   32.0090   36.0490 C   0  0  0  0  0  0  0  0  0  0  0  0
   36.6630   31.1850   36.1570 F   0  0  0  0  0  0  0  0  0  0  0  0
   36.0050   33.3360   36.0920 F   0  0  0  0  0  0  0  0  0  0  0  0
   34.7260   31.7670   37.1280 F   0  0  0  0  0  0  0  0  0  0  0  0
  1  5  2  0  0  0  0
  1 16  1  0  0  0  0
  2  1  1  0  0  0  0
  3  2  2  0  0  0  0
  3  4  1  0  0  0  0
  4  8  1  0  0  0  0
  4  5  1  0  0  0  0
  6  2  1  0  0  0  0
  7  3  1  0  0  0  0
  8 15  2  0  0  0  0
  9  8  1  0  0  0  0
  9 11  2  0  0  0  0
 10  9  1  0  0  0  0
 11 13  1  0  0  0  0
 12 11  1  0  0  0  0
 13 14  1  0  0  0  0
 15 13  1  0  0  0  0
 16 17  1  0  0  0  0
 17 22  1  0  0  0  0
 17 18  2  0  0  0  0
 18 24  1  0  0  0  0
 19 18  1  0  0  0  0
 20 19  2  0  0  0  0
 21 16  2  0  0  0  0
 21 20  1  0  0  0  0
 23 20  1  0  0  0  0
 24 26  1  0  0  0  0
 24 25  1  0  0  0  0
 24 27  1  0  0  0  0
M  END
>  <minimizedAffinity>
-5.30368233

$$$$

 OpenBabel03272508033D

 27 29  0  0  0  0  0  0  0  0999 V2000
   37.5550   27.1380   34.2170 C   0  0  0  0  0  0  0  0  0  0  0  0
   37.8410   27.6790   35.4390 C   0  0  0  0  0  0  0  0  0  0  0  0
   38.3200   26.7000   36.3070 C   0  0  0  0  0  0  0  0  0  0  0  0
   38.3020   25.5760   35.5490 N   0  0  0  0  0  0  0  0  0  0  0  0
   37.8540   25.8230   34.3220 N   0  0  0  0  0  0  0  0  0  0  0  0
   37.7380   28.7070   35.7620 H   0  0  0  0  0  0  0  0  0  0  0  0
   38.6490   26.6860   37.3130 H   0  0  0  0  0  0  0  0  0  0  0  0
   38.6600   24.2200   35.8060 C   0  0  0  0  0  0  0  0  0  0  0  0
   39.7160   23.3950   35.4470 C   0  0  0  0  0  0  0  0  0  0  0  0
   40.4890   23.8020   34.8260 H   0  0  0  0  0  0  0  0  0  0  0  0
   39.4350   22.1830   36.0460 C   0  0  0  0  0  0  0  0  0  0  0  0
   40.1380   21.3470   35.9090 H   0  0  0  0  0  0  0  0  0  0  0  0
   38.2800   22.2510   36.7340 N   0  0  0  0  0  0  0  0  0  0  0  0
   37.8630   21.4570   37.2710 H   0  0  0  0  0  0  0  0  0  0  0  0
   37.8120   23.4960   36.5830 N   0  0  0  0  0  0  0  0  0  0  0  0
   37.0330   27.8300   33.0390 C   0  0  0  0  0  0  0  0  0  0  0  0
   37.8300   27.8320   31.8660 C   0  0  0  0  0  0  0  0  0  0  0  0
   37.3480   28.4850   30.7400 C   0  0  0  0  0  0  0  0  0  0  0  0
   36.1220   29.0910   30.8400 N   0  0  0  0  0  0  0  0  0  0  0  0
   35.3860   29.0750   31.9640 C   0  0  0  0  0  0  0  0  0  0  0  0
   35.8570   28.4380   33.0600 N   0  0  0  0  0  0  0  0  0  0  0  0
   38.8000   27.3240   31.8680 H   0  0  0  0  0  0  0  0  0  0  0  0
   34.4280   29.5480   32.0410 H   0  0  0  0  0  0  0  0  0  0  0  0
   38.1630   28.5010   29.5010 C   0  0  0  0  0  0  0  0  0  0  0  0
   38.9970   29.5810   29.6120 F   0  0  0  0  0  0  0  0  0  0  0  0
   38.9320   27.3460   29.3610 F   0  0  0  0  0  0  0  0  0  0  0  0
   37.3710   28.6660   28.3660 F   0  0  0  0  0  0  0  0  0  0  0  0
  1  5  2  0  0  0  0
  1  2  1  0  0  0  0
  2  6  1  0  0  0  0
  2  3  2  0  0  0  0
  3  7  1  0  0  0  0
  4  8  1  0  0  0  0
  4  3  1  0  0  0  0
  5  4  1  0  0  0  0
  8 15  2  0  0  0  0
  9  8  1  0  0  0  0
  9 11  2  0  0  0  0
 10  9  1  0  0  0  0
 11 13  1  0  0  0  0
 12 11  1  0  0  0  0
 13 14  1  0  0  0  0
 15 13  1  0  0  0  0
 16 21  1  0  0  0  0
 16  1  1  0  0  0  0
 17 22  1  0  0  0  0
 17 16  2  0  0  0  0
 18 19  2  0  0  0  0
 18 17  1  0  0  0  0
 19 20  1  0  0  0  0
 20 23  1  0  0  0  0
 20 21  2  0  0  0  0
 24 25  1  0  0  0  0
 24 18  1  0  0  0  0
 26 24  1  0  0  0  0
 27 24  1  0  0  0  0
M  END
>  <minimizedAffinity>
-5.2059083

$$$$

 OpenBabel03272508033D

 27 29  0  0  0  0  0  0  0  0999 V2000
   37.7230   25.8330   34.3390 C   0  0  0  0  0  0  0  0  0  0  0  0
   37.6130   26.4230   35.5660 C   0  0  0  0  0  0  0  0  0  0  0  0
   38.3580   25.7230   36.5130 C   0  0  0  0  0  0  0  0  0  0  0  0
   38.9000   24.7100   35.7940 N   0  0  0  0  0  0  0  0  0  0  0  0
   38.5340   24.7660   34.5190 N   0  0  0  0  0  0  0  0  0  0  0  0
   37.0510   27.3050   35.8420 H   0  0  0  0  0  0  0  0  0  0  0  0
   38.5450   25.8320   37.5490 H   0  0  0  0  0  0  0  0  0  0  0  0
   39.7650   23.6270   36.1340 C   0  0  0  0  0  0  0  0  0  0  0  0
   41.1040   23.3310   35.9210 C   0  0  0  0  0  0  0  0  0  0  0  0
   41.6980   24.0370   35.3760 H   0  0  0  0  0  0  0  0  0  0  0  0
   41.2930   22.1040   36.5250 C   0  0  0  0  0  0  0  0  0  0  0  0
   42.2930   21.6450   36.4930 H   0  0  0  0  0  0  0  0  0  0  0  0
   40.1470   21.6660   37.0780 N   0  0  0  0  0  0  0  0  0  0  0  0
   40.0440   20.7620   37.5920 H   0  0  0  0  0  0  0  0  0  0  0  0
   39.2180   22.6000   36.8360 N   0  0  0  0  0  0  0  0  0  0  0  0
   37.0950   26.2600   33.0870 C   0  0  0  0  0  0  0  0  0  0  0  0
   37.0850   27.6470   32.7940 C   0  0  0  0  0  0  0  0  0  0  0  0
   36.4930   28.0670   31.6100 C   0  0  0  0  0  0  0  0  0  0  0  0
   35.9530   27.1030   30.8000 N   0  0  0  0  0  0  0  0  0  0  0  0
   35.9750   25.7940   31.1010 C   0  0  0  0  0  0  0  0  0  0  0  0
   36.5530   25.3860   32.2540 N   0  0  0  0  0  0  0  0  0  0  0  0
   37.5380   28.3540   33.4950 H   0  0  0  0  0  0  0  0  0  0  0  0
   35.5530   25.0410   30.4670 H   0  0  0  0  0  0  0  0  0  0  0  0
   36.4700   29.5130   31.2800 C   0  0  0  0  0  0  0  0  0  0  0  0
   36.4430   30.1740   32.4790 F   0  0  0  0  0  0  0  0  0  0  0  0
   37.6010   29.9110   30.5690 F   0  0  0  0  0  0  0  0  0  0  0  0
   35.3280   29.8580   30.5580 F   0  0  0  0  0  0  0  0  0  0  0  0
  1  5  2  0  0  0  0
  1  2  1  0  0  0  0
  2  6  1  0  0  0  0
  2  3  2  0  0  0  0
  3  7  1  0  0  0  0
  4  8  1  0  0  0  0
  4  3  1  0  0  0  0
  5  4  1  0  0  0  0
  8 15  2  0  0  0  0
  9  8  1  0  0  0  0
  9 11  2  0  0  0  0
 10  9  1  0  0  0  0
 11 13  1  0  0  0  0
 12 11  1  0  0  0  0
 13 14  1  0  0  0  0
 15 13  1  0  0  0  0
 16  1  1  0  0  0  0
 17 16  1  0  0  0  0
 17 22  1  0  0  0  0
 18 17  2  0  0  0  0
 19 20  2  0  0  0  0
 19 18  1  0  0  0  0
 20 21  1  0  0  0  0
 21 16  2  0  0  0  0
 23 20  1  0  0  0  0
 24 18  1  0  0  0  0
 24 25  1  0  0  0  0
 26 24  1  0  0  0  0
 27 24  1  0  0  0  0
M  END
>  <minimizedAffinity>
-5.19085026

$$$$
