
 OpenBabel03272502583D

 33 35  0  0  1  0  0  0  0  0999 V2000
   35.9280   29.6580   48.8430 N   0  0  0  0  0  0  0  0  0  0  0  0
   36.7040   28.8630   49.7480 C   0  0  0  0  0  0  0  0  0  0  0  0
   37.1890   29.4810   50.9870 C   0  0  0  0  0  0  0  0  0  0  0  0
   37.3850   30.9460   50.9990 C   0  0  0  0  0  0  0  0  0  0  0  0
   36.6160   31.6940   49.9380 C   0  0  0  0  0  0  0  0  0  0  0  0
   36.6400   30.8930   48.6440 C   0  0  1  0  0  0  0  0  0  0  0  0
   36.0800   27.9500   49.9700 H   0  0  0  0  0  0  0  0  0  0  0  0
   37.5720   28.4680   49.1580 H   0  0  0  0  0  0  0  0  0  0  0  0
   38.1560   29.0000   51.2750 H   0  0  0  0  0  0  0  0  0  0  0  0
   36.4760   29.1920   51.8100 H   0  0  0  0  0  0  0  0  0  0  0  0
   37.0600   31.3660   51.9840 H   0  0  0  0  0  0  0  0  0  0  0  0
   38.4640   31.2340   50.8990 H   0  0  0  0  0  0  0  0  0  0  0  0
   35.5660   31.8860   50.1810 H   0  0  0  0  0  0  0  0  0  0  0  0
   37.1490   32.6600   49.7320 H   0  0  0  0  0  0  0  0  0  0  0  0
   36.2280   31.5240   47.8310 H   0  0  0  0  0  0  0  0  0  0  0  0
   34.6810   29.2960   48.2490 C   0  0  0  0  0  0  0  0  0  0  0  0
   34.1660   29.8610   47.0830 C   0  0  0  0  0  0  0  0  0  0  0  0
   32.9390   29.4100   46.6230 C   0  0  0  0  0  0  0  0  0  0  0  0
   32.3070   28.4340   47.3420 N   0  0  0  0  0  0  0  0  0  0  0  0
   32.8350   27.9180   48.4560 C   0  0  0  0  0  0  0  0  0  0  0  0
   34.0290   28.3440   48.9210 N   0  0  0  0  0  0  0  0  0  0  0  0
   34.7440   30.6130   46.6080 H   0  0  0  0  0  0  0  0  0  0  0  0
   32.5630   29.8620   45.7180 H   0  0  0  0  0  0  0  0  0  0  0  0
   32.2770   27.1480   48.9720 H   0  0  0  0  0  0  0  0  0  0  0  0
   37.9980   30.6940   48.3760 O   0  0  0  0  0  0  0  0  0  0  0  0
   38.7270   31.4750   47.4880 C   0  0  0  0  0  0  0  0  0  0  0  0
   39.3540   31.1540   46.2790 C   0  0  0  0  0  0  0  0  0  0  0  0
   39.3370   30.1590   45.8600 H   0  0  0  0  0  0  0  0  0  0  0  0
   39.9590   32.2800   45.7590 C   0  0  0  0  0  0  0  0  0  0  0  0
   40.4910   32.2430   44.8360 H   0  0  0  0  0  0  0  0  0  0  0  0
   39.6870   33.2620   46.6640 N   0  0  0  0  0  0  0  0  0  0  0  0
   40.0560   34.2240   46.4700 H   0  0  0  0  0  0  0  0  0  0  0  0
   38.9690   32.7860   47.6700 N   0  0  0  0  0  0  0  0  0  0  0  0
  1  2  1  0  0  0  0
  2  7  1  0  0  0  0
  2  3  1  0  0  0  0
  3  4  1  0  0  0  0
  3  9  1  0  0  0  0
  3 10  1  0  0  0  0
  4 11  1  0  0  0  0
  5 13  1  0  0  0  0
  5  4  1  0  0  0  0
  6 15  1  6  0  0  0
  6  1  1  0  0  0  0
  6  5  1  0  0  0  0
  8  2  1  0  0  0  0
 12  4  1  0  0  0  0
 14  5  1  0  0  0  0
 16  1  1  0  0  0  0
 16 21  1  0  0  0  0
 17 16  2  0  0  0  0
 18 17  1  0  0  0  0
 18 19  2  0  0  0  0
 19 20  1  0  0  0  0
 20 21  2  0  0  0  0
 20 24  1  0  0  0  0
 22 17  1  0  0  0  0
 23 18  1  0  0  0  0
 25  6  1  0  0  0  0
 26 33  2  0  0  0  0
 26 25  1  0  0  0  0
 27 26  1  0  0  0  0
 28 27  1  0  0  0  0
 29 27  2  0  0  0  0
 29 31  1  0  0  0  0
 30 29  1  0  0  0  0
 31 33  1  0  0  0  0
 32 31  1  0  0  0  0
M  END
>  <minimizedAffinity>
-5.71635914

>  <minimizedRMSD>
0.738568544

$$$$
