
     RDKit          3D

 27 29  0  0  0  0  0  0  0  0999 V2000
   37.5568   31.6671   48.9414 C   0  0  0  0  0  0  0  0  0  0  0  0
   38.1889   32.7313   49.5023 C   0  0  0  0  0  0  0  0  0  0  0  0
   39.0675   33.5583   48.8343 C   0  0  0  0  0  0  0  0  0  0  0  0
   39.3515   33.3312   47.5214 C   0  0  0  0  0  0  0  0  0  0  0  0
   38.7026   32.2377   46.9435 C   0  0  0  0  0  0  0  0  0  0  0  0
   37.8506   31.4551   47.6342 N   0  0  0  0  0  0  0  0  0  0  0  0
   36.9477   30.1731   50.8670 C   0  0  0  0  0  0  0  0  0  0  0  0
   36.6396   30.8043   49.6411 C   0  0  0  0  0  0  0  0  0  0  0  0
   35.3899   30.5623   49.1133 C   0  0  0  0  0  0  0  0  0  0  0  0
   34.5202   29.7452   49.7748 N   0  0  0  0  0  0  0  0  0  0  0  0
   34.8702   29.1658   50.9491 C   0  0  0  0  0  0  0  0  0  0  0  0
   36.0768   29.3729   51.5009 N   0  0  0  0  0  0  0  0  0  0  0  0
   40.2048   34.0509   46.6877 O   0  0  0  0  0  0  0  0  0  0  0  0
   38.0091   32.9718   50.5480 H   0  0  0  0  0  0  0  0  0  0  0  0
   39.5747   34.4096   49.2784 H   0  0  0  0  0  0  0  0  0  0  0  0
   38.8665   31.9750   45.8934 H   0  0  0  0  0  0  0  0  0  0  0  0
   37.9323   30.3625   51.2850 H   0  0  0  0  0  0  0  0  0  0  0  0
   35.1169   31.0327   48.1681 H   0  0  0  0  0  0  0  0  0  0  0  0
   34.0986   28.5339   51.3884 H   0  0  0  0  0  0  0  0  0  0  0  0
   40.9133   35.1596   47.1299 C   0  0  0  0  0  0  0  0  0  0  0  0
   40.0881   36.1912   47.5931 C   0  0  0  0  0  0  0  0  0  0  0  0
   39.0204   36.3547   47.6992 H   0  0  0  0  0  0  0  0  0  0  0  0
   40.9087   37.2347   48.0039 C   0  0  0  0  0  0  0  0  0  0  0  0
   40.7375   38.2128   48.4218 H   0  0  0  0  0  0  0  0  0  0  0  0
   42.1722   36.8145   47.7829 N   0  0  0  0  0  0  0  0  0  0  0  0
   43.1301   37.2045   47.9138 H   0  0  0  0  0  0  0  0  0  0  0  0
   42.1662   35.5997   47.2716 N   0  0  0  0  0  0  0  0  0  0  0  0
  1  2  2  0
  1  8  1  0
  3  2  1  0
  4  3  2  0
  5  4  1  0
  5  6  2  0
  6  1  1  0
  7 12  2  0
  8  7  1  0
  9  8  2  0
  9 10  1  0
 10 11  2  0
 11 12  1  0
 13  4  1  0
  2 14  1  0
  3 15  1  0
  5 16  1  0
  7 17  1  0
  9 18  1  0
 11 19  1  0
 20 21  1  0
 21 22  1  0
 21 23  2  0
 23 24  1  0
 23 25  1  0
 25 26  1  0
 25 27  1  0
 27 20  2  0
 13 20  1  0
M  ISO  8  14  14  15  14  16  14  17  14  18  14  19  14  22  15  24  16
M  ISO  1  26   5
M  END
>  <DihAtoms>  (1) 
3,12,19,20

>  <DihDeg>  (1) 
-179.99948818074

$$$$
