
 OpenBabel03272502593D

 33 35  0  0  1  0  0  0  0  0999 V2000
   35.7980   29.5610   48.8150 N   0  0  0  0  0  0  0  0  0  0  0  0
   36.5730   28.8220   49.7660 C   0  0  0  0  0  0  0  0  0  0  0  0
   37.0890   29.5220   50.9470 C   0  0  0  0  0  0  0  0  0  0  0  0
   37.3150   30.9790   50.8430 C   0  0  0  0  0  0  0  0  0  0  0  0
   36.5430   31.6600   49.7390 C   0  0  0  0  0  0  0  0  0  0  0  0
   36.5310   30.7630   48.5110 C   0  0  1  0  0  0  0  0  0  0  0  0
   35.9340   27.9410   50.0660 H   0  0  0  0  0  0  0  0  0  0  0  0
   37.4230   28.3640   49.1960 H   0  0  0  0  0  0  0  0  0  0  0  0
   38.0520   29.0450   51.2570 H   0  0  0  0  0  0  0  0  0  0  0  0
   36.3850   29.3120   51.8000 H   0  0  0  0  0  0  0  0  0  0  0  0
   37.0130   31.4810   51.7990 H   0  0  0  0  0  0  0  0  0  0  0  0
   38.3970   31.2360   50.7060 H   0  0  0  0  0  0  0  0  0  0  0  0
   35.5010   31.8920   49.9820 H   0  0  0  0  0  0  0  0  0  0  0  0
   37.0920   32.5960   49.4520 H   0  0  0  0  0  0  0  0  0  0  0  0
   36.1180   31.3380   47.6580 H   0  0  0  0  0  0  0  0  0  0  0  0
   34.5340   29.1810   48.2680 C   0  0  0  0  0  0  0  0  0  0  0  0
   34.0080   29.6720   47.0740 C   0  0  0  0  0  0  0  0  0  0  0  0
   32.7660   29.2120   46.6670 C   0  0  0  0  0  0  0  0  0  0  0  0
   32.1300   28.3000   47.4640 N   0  0  0  0  0  0  0  0  0  0  0  0
   32.6690   27.8550   48.6030 C   0  0  0  0  0  0  0  0  0  0  0  0
   33.8780   28.2910   49.0170 N   0  0  0  0  0  0  0  0  0  0  0  0
   34.5900   30.3780   46.5370 H   0  0  0  0  0  0  0  0  0  0  0  0
   32.3810   29.6070   45.7400 H   0  0  0  0  0  0  0  0  0  0  0  0
   32.1080   27.1330   49.1820 H   0  0  0  0  0  0  0  0  0  0  0  0
   37.8800   30.5150   48.2390 O   0  0  0  0  0  0  0  0  0  0  0  0
   38.6000   31.1870   47.2590 C   0  0  0  0  0  0  0  0  0  0  0  0
   39.1260   32.4830   47.2280 C   0  0  0  0  0  0  0  0  0  0  0  0
   39.0160   33.1760   48.0490 H   0  0  0  0  0  0  0  0  0  0  0  0
   39.7690   32.6920   46.0240 C   0  0  0  0  0  0  0  0  0  0  0  0
   40.2370   33.6230   45.8050 H   0  0  0  0  0  0  0  0  0  0  0  0
   39.6200   31.5160   45.3500 N   0  0  0  0  0  0  0  0  0  0  0  0
   40.0380   31.4460   44.3920 H   0  0  0  0  0  0  0  0  0  0  0  0
   38.9380   30.6430   46.0760 N   0  0  0  0  0  0  0  0  0  0  0  0
  1  2  1  0  0  0  0
  2  7  1  0  0  0  0
  2  3  1  0  0  0  0
  3  9  1  0  0  0  0
  3 10  1  0  0  0  0
  4  3  1  0  0  0  0
  4 11  1  0  0  0  0
  5 13  1  0  0  0  0
  5  4  1  0  0  0  0
  6 15  1  6  0  0  0
  6  1  1  0  0  0  0
  6  5  1  0  0  0  0
  8  2  1  0  0  0  0
 12  4  1  0  0  0  0
 14  5  1  0  0  0  0
 16  1  1  0  0  0  0
 16 21  1  0  0  0  0
 17 16  2  0  0  0  0
 18 17  1  0  0  0  0
 18 19  2  0  0  0  0
 19 20  1  0  0  0  0
 20 21  2  0  0  0  0
 20 24  1  0  0  0  0
 22 17  1  0  0  0  0
 23 18  1  0  0  0  0
 25  6  1  0  0  0  0
 26 25  1  0  0  0  0
 27 26  1  0  0  0  0
 27 28  1  0  0  0  0
 29 27  2  0  0  0  0
 30 29  1  0  0  0  0
 31 29  1  0  0  0  0
 31 33  1  0  0  0  0
 32 31  1  0  0  0  0
 33 26  2  0  0  0  0
M  END
>  <minimizedAffinity>
-5.44205999

>  <minimizedRMSD>
0.615013838

$$$$
