
 OpenBabel03272510113D

 34 37  0  0  0  0  0  0  0  0999 V2000
   33.4990   28.3980   48.9140 C   0  0  0  0  0  0  0  0  0  0  0  0
   33.7280   28.8860   50.1520 C   0  0  0  0  0  0  0  0  0  0  0  0
   34.9170   29.4480   50.5690 C   0  0  0  0  0  0  0  0  0  0  0  0
   35.9640   29.5360   49.6940 C   0  0  0  0  0  0  0  0  0  0  0  0
   35.7230   29.0280   48.4100 C   0  0  0  0  0  0  0  0  0  0  0  0
   34.5490   28.4910   48.0500 N   0  0  0  0  0  0  0  0  0  0  0  0
   32.9610   28.8620   50.9150 H   0  0  0  0  0  0  0  0  0  0  0  0
   35.0940   29.8360   51.5570 H   0  0  0  0  0  0  0  0  0  0  0  0
   36.5240   29.0750   47.6760 H   0  0  0  0  0  0  0  0  0  0  0  0
   31.0830   27.7760   49.2810 C   0  0  0  0  0  0  0  0  0  0  0  0
   32.2520   27.8150   48.4960 C   0  0  0  0  0  0  0  0  0  0  0  0
   32.1540   27.2410   47.2360 C   0  0  0  0  0  0  0  0  0  0  0  0
   30.9810   26.6820   46.8190 N   0  0  0  0  0  0  0  0  0  0  0  0
   29.9010   26.6790   47.6210 C   0  0  0  0  0  0  0  0  0  0  0  0
   29.9370   27.2220   48.8550 N   0  0  0  0  0  0  0  0  0  0  0  0
   31.1360   28.2170   50.2670 H   0  0  0  0  0  0  0  0  0  0  0  0
   33.0440   27.2590   46.6120 H   0  0  0  0  0  0  0  0  0  0  0  0
   29.0800   26.1920   47.1070 H   0  0  0  0  0  0  0  0  0  0  0  0
   37.2270   30.0680   49.9390 O   0  0  0  0  0  0  0  0  0  0  0  0
   37.8710   30.8790   49.0050 C   0  0  0  0  0  0  0  0  0  0  0  0
   38.1580   32.1570   49.4970 C   0  0  0  0  0  0  0  0  0  0  0  0
   38.7970   32.8720   48.4850 C   0  0  0  0  0  0  0  0  0  0  0  0
   38.8690   32.0250   47.4500 N   0  0  0  0  0  0  0  0  0  0  0  0
   38.3320   30.8690   47.7540 N   0  0  0  0  0  0  0  0  0  0  0  0
   38.0020   32.6920   50.4470 H   0  0  0  0  0  0  0  0  0  0  0  0
   39.2010   33.8680   48.3790 H   0  0  0  0  0  0  0  0  0  0  0  0
   39.4180   32.2040   46.1470 C   0  0  0  0  0  0  0  0  0  0  0  0
   40.6300   32.0680   45.5010 C   0  0  0  0  0  0  0  0  0  0  0  0
   41.4500   31.7230   46.1180 H   0  0  0  0  0  0  0  0  0  0  0  0
   40.4030   32.4380   44.1870 C   0  0  0  0  0  0  0  0  0  0  0  0
   41.2440   32.3990   43.5050 H   0  0  0  0  0  0  0  0  0  0  0  0
   39.1020   32.7810   44.0600 N   0  0  0  0  0  0  0  0  0  0  0  0
   38.7150   33.0970   43.1280 H   0  0  0  0  0  0  0  0  0  0  0  0
   38.5100   32.6420   45.2290 N   0  0  0  0  0  0  0  0  0  0  0  0
  1  2  1  0  0  0  0
  2  3  2  0  0  0  0
  2  7  1  0  0  0  0
  3  8  1  0  0  0  0
  4 19  1  0  0  0  0
  4  3  1  0  0  0  0
  5  4  2  0  0  0  0
  6  5  1  0  0  0  0
  6  1  2  0  0  0  0
  9  5  1  0  0  0  0
 10 16  1  0  0  0  0
 11  1  1  0  0  0  0
 11 10  2  0  0  0  0
 12 11  1  0  0  0  0
 13 12  2  0  0  0  0
 13 14  1  0  0  0  0
 14 15  2  0  0  0  0
 15 10  1  0  0  0  0
 17 12  1  0  0  0  0
 18 14  1  0  0  0  0
 20 21  1  0  0  0  0
 20 19  1  0  0  0  0
 21 25  1  0  0  0  0
 22 21  2  0  0  0  0
 23 24  1  0  0  0  0
 23 22  1  0  0  0  0
 24 20  2  0  0  0  0
 26 22  1  0  0  0  0
 27 23  1  0  0  0  0
 28 29  1  0  0  0  0
 28 27  1  0  0  0  0
 30 28  2  0  0  0  0
 31 30  1  0  0  0  0
 32 30  1  0  0  0  0
 32 34  1  0  0  0  0
 33 32  1  0  0  0  0
 34 27  2  0  0  0  0
M  END
>  <minimizedAffinity>
-6.13505983

>  <minimizedRMSD>
1.50279427

$$$$
