
 OpenBabel03272505033D

 28 30  0  0  0  0  0  0  0  0999 V2000
   38.6260   30.4170   46.8410 Cl  0  0  0  0  0  0  0  0  0  0  0  0
   38.9300   31.9460   47.6470 C   0  0  0  0  0  0  0  0  0  0  0  0
   38.3260   32.1900   48.8500 C   0  0  0  0  0  0  0  0  0  0  0  0
   38.6140   33.4090   49.4210 C   0  0  0  0  0  0  0  0  0  0  0  0
   39.4680   34.3020   48.7820 C   0  0  0  0  0  0  0  0  0  0  0  0
   40.0470   34.0070   47.5770 C   0  0  0  0  0  0  0  0  0  0  0  0
   39.7680   32.7830   46.9860 C   0  0  0  0  0  0  0  0  0  0  0  0
   38.2000   33.7230   50.3710 H   0  0  0  0  0  0  0  0  0  0  0  0
   39.6900   35.2640   49.2440 H   0  0  0  0  0  0  0  0  0  0  0  0
   40.7060   34.7480   47.1300 H   0  0  0  0  0  0  0  0  0  0  0  0
   37.8690   30.4980   50.6230 C   0  0  0  0  0  0  0  0  0  0  0  0
   37.4270   31.2480   49.5190 C   0  0  0  0  0  0  0  0  0  0  0  0
   36.1260   31.0670   49.0930 C   0  0  0  0  0  0  0  0  0  0  0  0
   35.3480   30.1800   49.7570 N   0  0  0  0  0  0  0  0  0  0  0  0
   35.7860   29.4690   50.8130 C   0  0  0  0  0  0  0  0  0  0  0  0
   37.0420   29.6300   51.2400 N   0  0  0  0  0  0  0  0  0  0  0  0
   38.8940   30.6210   50.9810 H   0  0  0  0  0  0  0  0  0  0  0  0
   35.7440   31.6160   48.2570 H   0  0  0  0  0  0  0  0  0  0  0  0
   35.1880   28.7580   51.3570 H   0  0  0  0  0  0  0  0  0  0  0  0
   40.3750   32.5340   45.7740 O   0  0  0  0  0  0  0  0  0  0  0  0
   39.7640   32.3890   44.5610 C   0  0  0  0  0  0  0  0  0  0  0  0
   40.0170   31.8220   43.3350 C   0  0  0  0  0  0  0  0  0  0  0  0
   40.9610   31.3150   43.2000 H   0  0  0  0  0  0  0  0  0  0  0  0
   38.9580   32.0260   42.4810 C   0  0  0  0  0  0  0  0  0  0  0  0
   38.9130   31.6780   41.4610 H   0  0  0  0  0  0  0  0  0  0  0  0
   38.0880   32.7140   43.2170 N   0  0  0  0  0  0  0  0  0  0  0  0
   37.1470   33.0340   42.8380 H   0  0  0  0  0  0  0  0  0  0  0  0
   38.5250   32.9480   44.4440 N   0  0  0  0  0  0  0  0  0  0  0  0
  1  2  1  0  0  0  0
  2  3  1  0  0  0  0
  3  4  2  0  0  0  0
  3 12  1  0  0  0  0
  4  8  1  0  0  0  0
  5  9  1  0  0  0  0
  5  4  1  0  0  0  0
  6  5  2  0  0  0  0
  7  6  1  0  0  0  0
  7  2  2  0  0  0  0
 10  6  1  0  0  0  0
 11 17  1  0  0  0  0
 11 16  1  0  0  0  0
 12 11  2  0  0  0  0
 13 12  1  0  0  0  0
 13 14  2  0  0  0  0
 14 15  1  0  0  0  0
 15 16  2  0  0  0  0
 15 19  1  0  0  0  0
 18 13  1  0  0  0  0
 20  7  1  0  0  0  0
 21 20  1  0  0  0  0
 22 21  1  0  0  0  0
 23 22  1  0  0  0  0
 24 26  1  0  0  0  0
 24 22  2  0  0  0  0
 25 24  1  0  0  0  0
 26 28  1  0  0  0  0
 27 26  1  0  0  0  0
 28 21  2  0  0  0  0
M  END
>  <minimizedAffinity>
-5.90721798

>  <minimizedRMSD>
0.445074111

$$$$
