
 OpenBabel03272502583D

 33 35  0  0  1  0  0  0  0  0999 V2000
   35.9810   29.6720   48.7290 N   0  0  0  0  0  0  0  0  0  0  0  0
   36.8330   28.9480   49.6250 C   0  0  0  0  0  0  0  0  0  0  0  0
   37.4020   29.6540   50.7770 C   0  0  0  0  0  0  0  0  0  0  0  0
   37.5810   31.1180   50.6720 C   0  0  0  0  0  0  0  0  0  0  0  0
   36.7240   31.7850   49.6240 C   0  0  0  0  0  0  0  0  0  0  0  0
   36.6610   30.8950   48.3910 C   0  0  1  0  0  0  0  0  0  0  0  0
   36.2380   28.0480   49.9560 H   0  0  0  0  0  0  0  0  0  0  0  0
   37.6580   28.5180   49.0000 H   0  0  0  0  0  0  0  0  0  0  0  0
   38.3940   29.2020   51.0230 H   0  0  0  0  0  0  0  0  0  0  0  0
   36.7570   29.4190   51.6700 H   0  0  0  0  0  0  0  0  0  0  0  0
   37.3260   31.6040   51.6490 H   0  0  0  0  0  0  0  0  0  0  0  0
   38.6450   31.4060   50.4710 H   0  0  0  0  0  0  0  0  0  0  0  0
   35.6930   31.9860   49.9320 H   0  0  0  0  0  0  0  0  0  0  0  0
   37.2280   32.7380   49.3120 H   0  0  0  0  0  0  0  0  0  0  0  0
   36.1810   31.4650   47.5700 H   0  0  0  0  0  0  0  0  0  0  0  0
   34.6960   29.2610   48.2580 C   0  0  0  0  0  0  0  0  0  0  0  0
   34.1010   29.7160   47.0830 C   0  0  0  0  0  0  0  0  0  0  0  0
   32.8470   29.2280   46.7510 C   0  0  0  0  0  0  0  0  0  0  0  0
   32.2680   28.3260   47.6010 N   0  0  0  0  0  0  0  0  0  0  0  0
   32.8720   27.9160   48.7200 C   0  0  0  0  0  0  0  0  0  0  0  0
   34.0940   28.3790   49.0600 N   0  0  0  0  0  0  0  0  0  0  0  0
   34.6440   30.4170   46.5000 H   0  0  0  0  0  0  0  0  0  0  0  0
   32.4090   29.5950   45.8360 H   0  0  0  0  0  0  0  0  0  0  0  0
   32.3530   27.2000   49.3440 H   0  0  0  0  0  0  0  0  0  0  0  0
   37.9970   30.6870   48.0340 O   0  0  0  0  0  0  0  0  0  0  0  0
   38.6170   31.3360   46.9740 C   0  0  0  0  0  0  0  0  0  0  0  0
   39.8260   31.0770   46.3180 C   0  0  0  0  0  0  0  0  0  0  0  0
   40.4760   30.2590   46.5920 H   0  0  0  0  0  0  0  0  0  0  0  0
   40.0150   32.0080   45.3160 C   0  0  0  0  0  0  0  0  0  0  0  0
   40.8820   31.9820   44.6970 H   0  0  0  0  0  0  0  0  0  0  0  0
   38.9160   32.8130   45.3860 N   0  0  0  0  0  0  0  0  0  0  0  0
   38.8460   33.6050   44.7050 H   0  0  0  0  0  0  0  0  0  0  0  0
   38.1060   32.4150   46.3550 N   0  0  0  0  0  0  0  0  0  0  0  0
  1  2  1  0  0  0  0
  2  7  1  0  0  0  0
  2  3  1  0  0  0  0
  3  9  1  0  0  0  0
  3 10  1  0  0  0  0
  4  3  1  0  0  0  0
  4 11  1  0  0  0  0
  5 13  1  0  0  0  0
  5  4  1  0  0  0  0
  6 15  1  6  0  0  0
  6  1  1  0  0  0  0
  6  5  1  0  0  0  0
  8  2  1  0  0  0  0
 12  4  1  0  0  0  0
 14  5  1  0  0  0  0
 16  1  1  0  0  0  0
 16 21  1  0  0  0  0
 17 16  2  0  0  0  0
 18 17  1  0  0  0  0
 18 19  2  0  0  0  0
 19 20  1  0  0  0  0
 20 21  2  0  0  0  0
 20 24  1  0  0  0  0
 22 17  1  0  0  0  0
 23 18  1  0  0  0  0
 25  6  1  0  0  0  0
 26 25  1  0  0  0  0
 27 28  1  0  0  0  0
 27 26  1  0  0  0  0
 29 31  1  0  0  0  0
 29 27  2  0  0  0  0
 30 29  1  0  0  0  0
 31 33  1  0  0  0  0
 32 31  1  0  0  0  0
 33 26  2  0  0  0  0
M  END
>  <minimizedAffinity>
-5.33292103

>  <minimizedRMSD>
0.693557501

$$$$
