
     RDKit          3D

 44 46  0  0  0  0  0  0  0  0999 V2000
   37.4313   31.3145   45.3858 C   0  0  2  0  0  0  0  0  0  0  0  0
   38.3484   30.8193   44.3677 C   0  0  0  0  0  0  0  0  0  0  0  0
   39.6657   30.3120   44.9433 C   0  0  0  0  0  0  0  0  0  0  0  0
   40.3706   31.3599   45.7608 C   0  0  0  0  0  0  0  0  0  0  0  0
   39.4462   32.2210   46.5702 C   0  0  0  0  0  0  0  0  0  0  0  0
   38.0752   31.5774   46.7229 C   0  0  2  0  0  0  0  0  0  0  0  0
   36.2500   30.4853   45.6348 C   0  0  0  0  0  0  0  0  0  0  0  0
   35.8653   29.6960   44.5442 C   0  0  0  0  0  0  0  0  0  0  0  0
   34.7603   28.8762   44.7275 C   0  0  0  0  0  0  0  0  0  0  0  0
   34.1124   28.8751   45.9291 N   0  0  0  0  0  0  0  0  0  0  0  0
   34.5151   29.6503   46.9496 C   0  0  0  0  0  0  0  0  0  0  0  0
   35.5524   30.4120   46.7626 N   0  0  0  0  0  0  0  0  0  0  0  0
   38.2273   30.5206   47.6193 N   0  0  0  0  0  0  0  0  0  0  0  0
   37.6690   30.7354   49.1971 S   0  0  1  0  0  0  0  0  0  0  0  0
   38.8971   30.9718   50.0573 O   0  0  0  0  0  0  0  0  0  0  0  0
   36.7662   31.9170   49.3521 O   0  0  0  0  0  0  0  0  0  0  0  0
   36.9206   29.3711   49.8261 O   0  0  0  0  0  0  0  0  0  0  0  0
   36.7871   29.4191   51.2025 C   0  0  0  0  0  0  0  0  0  0  0  0
   37.7503   28.6389   51.7878 F   0  0  0  0  0  0  0  0  0  0  0  0
   37.0178   30.7229   51.5986 F   0  0  0  0  0  0  0  0  0  0  0  0
   35.5107   29.1102   51.6436 F   0  0  0  0  0  0  0  0  0  0  0  0
   37.0220   32.3094   45.0356 H   0  0  0  0  0  0  0  0  0  0  0  0
   38.6421   31.5936   43.5923 H   0  0  0  0  0  0  0  0  0  0  0  0
   37.9799   29.9729   43.7735 H   0  0  0  0  0  0  0  0  0  0  0  0
   40.3225   30.1234   44.0595 H   0  0  0  0  0  0  0  0  0  0  0  0
   39.5526   29.3334   45.4543 H   0  0  0  0  0  0  0  0  0  0  0  0
   41.0330   30.8042   46.4666 H   0  0  0  0  0  0  0  0  0  0  0  0
   41.0589   31.9959   45.1582 H   0  0  0  0  0  0  0  0  0  0  0  0
   39.8261   32.5300   47.5423 H   0  0  0  0  0  0  0  0  0  0  0  0
   39.2714   33.1468   45.9501 H   0  0  0  0  0  0  0  0  0  0  0  0
   37.4469   32.3481   47.2338 H   0  0  0  0  0  0  0  0  0  0  0  0
   36.1908   29.5380   43.5378 H   0  0  0  0  0  0  0  0  0  0  0  0
   34.2868   28.1900   44.0421 H   0  0  0  0  0  0  0  0  0  0  0  0
   33.9888   29.6395   47.9012 H   0  0  0  0  0  0  0  0  0  0  0  0
   37.8467   29.6232   47.2466 H   0  0  0  0  0  0  0  0  0  0  0  0
   39.5048   30.2855   50.4245 H   0  0  0  0  0  0  0  0  0  0  0  0
   36.7520   33.1437   49.9987 C   0  0  0  0  0  0  0  0  0  0  0  0
   38.0082   33.7293   50.1802 C   0  0  0  0  0  0  0  0  0  0  0  0
   39.0278   33.4347   49.9226 H   0  0  0  0  0  0  0  0  0  0  0  0
   37.8014   34.9342   50.8347 C   0  0  0  0  0  0  0  0  0  0  0  0
   38.5268   35.6920   51.1602 H   0  0  0  0  0  0  0  0  0  0  0  0
   36.4733   35.0067   51.0066 N   0  0  0  0  0  0  0  0  0  0  0  0
   35.9198   35.7680   51.4627 H   0  0  0  0  0  0  0  0  0  0  0  0
   35.8389   33.9643   50.5222 N   0  0  0  0  0  0  0  0  0  0  0  0
  1  7  1  0
  1  6  1  0
  2  3  1  0
  2  1  1  0
  3  4  1  0
  4  5  1  0
  5  6  1  0
  6 13  1  0
  7 12  2  0
  8  9  2  0
  8  7  1  0
  9 10  1  0
 10 11  2  0
 12 11  1  0
 13 14  1  0
 14 16  1  6
 14 17  1  0
 14 15  1  0
 17 18  1  0
 18 20  1  0
 18 21  1  0
 18 19  1  0
  1 22  1  6
  2 23  1  0
  2 24  1  0
  3 25  1  0
  3 26  1  0
  4 27  1  0
  4 28  1  0
  5 29  1  0
  5 30  1  0
  6 31  1  1
  8 32  1  0
  9 33  1  0
 11 34  1  0
 13 35  1  0
 15 36  1  0
 37 38  1  0
 38 39  1  0
 38 40  2  0
 40 41  1  0
 40 42  1  0
 42 43  1  0
 42 44  1  0
 44 37  2  0
 16 37  1  0
M  ISO  8  22  13  23  13  24  13  25  13  26  13  27  13  28  13  29  13
M  ISO  8  30  13  31  13  32  14  33  14  34  14  35   5  36   3  39  15
M  ISO  2  41  16  43   5
M  END
>  <DihAtoms>  (1) 
13,15,36,37

>  <DihDeg>  (1) 
-179.9990712122016

$$$$
