
 OpenBabel03272505023D

 28 30  0  0  0  0  0  0  0  0999 V2000
   38.1120   30.3930   46.9710 Cl  0  0  0  0  0  0  0  0  0  0  0  0
   38.5730   31.8590   47.8200 C   0  0  0  0  0  0  0  0  0  0  0  0
   38.1010   32.0620   49.0880 C   0  0  0  0  0  0  0  0  0  0  0  0
   38.5070   33.2330   49.6890 C   0  0  0  0  0  0  0  0  0  0  0  0
   39.3400   34.1190   49.0160 C   0  0  0  0  0  0  0  0  0  0  0  0
   39.7840   33.8650   47.7460 C   0  0  0  0  0  0  0  0  0  0  0  0
   39.3860   32.6910   47.1230 C   0  0  0  0  0  0  0  0  0  0  0  0
   38.2030   33.5120   50.6900 H   0  0  0  0  0  0  0  0  0  0  0  0
   39.6560   35.0420   49.5020 H   0  0  0  0  0  0  0  0  0  0  0  0
   40.4350   34.5980   47.2740 H   0  0  0  0  0  0  0  0  0  0  0  0
   37.6920   30.4040   50.9030 C   0  0  0  0  0  0  0  0  0  0  0  0
   37.2230   31.1280   49.7940 C   0  0  0  0  0  0  0  0  0  0  0  0
   35.9160   30.9290   49.3970 C   0  0  0  0  0  0  0  0  0  0  0  0
   35.1580   30.0500   50.0940 N   0  0  0  0  0  0  0  0  0  0  0  0
   35.6220   29.3630   51.1550 C   0  0  0  0  0  0  0  0  0  0  0  0
   36.8840   29.5430   51.5550 N   0  0  0  0  0  0  0  0  0  0  0  0
   38.7230   30.5430   51.2400 H   0  0  0  0  0  0  0  0  0  0  0  0
   35.5130   31.4570   48.5570 H   0  0  0  0  0  0  0  0  0  0  0  0
   35.0400   28.6600   51.7260 H   0  0  0  0  0  0  0  0  0  0  0  0
   39.8580   32.4820   45.8460 O   0  0  0  0  0  0  0  0  0  0  0  0
   39.1670   32.6250   44.6770 C   0  0  0  0  0  0  0  0  0  0  0  0
   37.8830   32.4780   44.2090 C   0  0  0  0  0  0  0  0  0  0  0  0
   37.1250   32.1550   44.9080 H   0  0  0  0  0  0  0  0  0  0  0  0
   37.8180   32.7880   42.8710 C   0  0  0  0  0  0  0  0  0  0  0  0
   36.9220   32.7520   42.2710 H   0  0  0  0  0  0  0  0  0  0  0  0
   39.0720   33.1180   42.5630 N   0  0  0  0  0  0  0  0  0  0  0  0
   39.3600   33.4130   41.5830 H   0  0  0  0  0  0  0  0  0  0  0  0
   39.8930   33.0330   43.5970 N   0  0  0  0  0  0  0  0  0  0  0  0
  1  2  1  0  0  0  0
  2  3  1  0  0  0  0
  3  4  2  0  0  0  0
  3 12  1  0  0  0  0
  4  8  1  0  0  0  0
  5  9  1  0  0  0  0
  5  4  1  0  0  0  0
  6  5  2  0  0  0  0
  7  6  1  0  0  0  0
  7  2  2  0  0  0  0
 10  6  1  0  0  0  0
 11 17  1  0  0  0  0
 11 16  1  0  0  0  0
 12 11  2  0  0  0  0
 13 12  1  0  0  0  0
 13 14  2  0  0  0  0
 14 15  1  0  0  0  0
 15 16  2  0  0  0  0
 15 19  1  0  0  0  0
 18 13  1  0  0  0  0
 20  7  1  0  0  0  0
 21 20  1  0  0  0  0
 22 21  1  0  0  0  0
 22 23  1  0  0  0  0
 24 22  2  0  0  0  0
 25 24  1  0  0  0  0
 26 24  1  0  0  0  0
 26 28  1  0  0  0  0
 27 26  1  0  0  0  0
 28 21  2  0  0  0  0
M  END
>  <minimizedAffinity>
-6.07449102

>  <minimizedRMSD>
0.55965662

$$$$
