
     RDKit          3D

 31 33  0  0  0  0  0  0  0  0999 V2000
   35.6481   29.3315   49.8395 C   0  0  0  0  0  0  0  0  0  0  0  0
   35.7433   30.2842   48.8067 C   0  0  0  0  0  0  0  0  0  0  0  0
   34.9083   30.1655   47.6894 C   0  0  0  0  0  0  0  0  0  0  0  0
   34.0376   29.1206   47.6614 N   0  0  0  0  0  0  0  0  0  0  0  0
   33.9497   28.2260   48.6317 C   0  0  0  0  0  0  0  0  0  0  0  0
   34.7474   28.3308   49.7100 N   0  0  0  0  0  0  0  0  0  0  0  0
   37.6492   30.0490   51.3424 C   0  0  0  0  0  0  0  0  0  0  0  0
   38.2035   30.8376   50.5440 O   0  0  0  0  0  0  0  0  0  0  0  0
   36.4314   29.3658   51.0133 N   0  0  0  0  0  0  0  0  0  0  0  0
   36.7110   31.3327   48.9658 N   0  0  0  0  0  0  0  0  0  0  0  0
   36.5512   32.3366   49.8213 C   0  0  0  0  0  0  0  0  0  0  0  0
   37.5311   33.3223   49.9297 C   0  0  0  0  0  0  0  0  0  0  0  0
   38.6050   33.1520   49.1107 C   0  0  0  0  0  0  0  0  0  0  0  0
   39.5015   34.0449   49.2031 O   0  0  0  0  0  0  0  0  0  0  0  0
   38.8048   32.1667   48.2433 N   0  0  0  0  0  0  0  0  0  0  0  0
   37.8235   31.2318   48.1740 C   0  0  0  0  0  0  0  0  0  0  0  0
   37.9934   30.2751   47.3477 O   0  0  0  0  0  0  0  0  0  0  0  0
   35.0089   30.9123   46.9201 H   0  0  0  0  0  0  0  0  0  0  0  0
   33.2504   27.4000   48.5920 H   0  0  0  0  0  0  0  0  0  0  0  0
   38.1556   29.9275   52.2842 H   0  0  0  0  0  0  0  0  0  0  0  0
   36.1018   28.7962   51.8470 H   0  0  0  0  0  0  0  0  0  0  0  0
   35.6569   32.3891   50.4362 H   0  0  0  0  0  0  0  0  0  0  0  0
   37.4032   34.1314   50.6186 H   0  0  0  0  0  0  0  0  0  0  0  0
   39.9724   32.0803   47.4267 C   0  0  0  0  0  0  0  0  0  0  0  0
   40.2538   32.2091   46.0652 C   0  0  0  0  0  0  0  0  0  0  0  0
   39.4261   32.4297   45.4041 H   0  0  0  0  0  0  0  0  0  0  0  0
   41.6140   32.0003   45.9547 C   0  0  0  0  0  0  0  0  0  0  0  0
   42.0725   32.0524   44.9642 H   0  0  0  0  0  0  0  0  0  0  0  0
   42.1413   31.7580   47.1675 N   0  0  0  0  0  0  0  0  0  0  0  0
   43.1570   31.5696   47.3379 H   0  0  0  0  0  0  0  0  0  0  0  0
   41.1463   31.8099   48.0334 N   0  0  0  0  0  0  0  0  0  0  0  0
  1  9  1  0
  2 10  1  0
  2  1  2  0
  3  2  1  0
  4  3  2  0
  4  5  1  0
  5  6  2  0
  6  1  1  0
  8  7  2  0
  9  7  1  0
 10 11  1  0
 11 12  2  0
 13 14  2  0
 13 12  1  0
 15 13  1  0
 16 15  1  0
 16 10  1  0
 17 16  2  0
  3 18  1  0
  5 19  1  0
  7 20  1  0
  9 21  1  0
 11 22  1  0
 12 23  1  0
 24 25  1  0
 25 26  1  0
 25 27  2  0
 27 28  1  0
 27 29  1  0
 29 30  1  0
 29 31  1  0
 31 24  2  0
 15 24  1  0
M  ISO  8  18  14  19  14  20   6  22  14  23  14  26  15  28  16  30   5
M  END
>  <DihAtoms>  (1) 
12,14,23,24

>  <DihDeg>  (1) 
-126.04940258524486

$$$$
