
 OpenBabel03272503123D

 45 49  0  0  0  0  0  0  0  0999 V2000
   39.2750   31.8900   44.9480 C   0  0  0  0  0  0  0  0  0  0  0  0
   38.1850   32.5440   45.0590 O   0  0  0  0  0  0  0  0  0  0  0  0
   39.9540   31.6300   46.1550 N   0  0  0  0  0  0  0  0  0  0  0  0
   40.8400   31.0960   46.0980 H   0  0  0  0  0  0  0  0  0  0  0  0
   39.1650   32.1780   42.5580 C   0  0  0  0  0  0  0  0  0  0  0  0
   39.7090   31.4840   43.6180 C   0  0  0  0  0  0  0  0  0  0  0  0
   40.6120   30.4650   43.4670 C   0  0  0  0  0  0  0  0  0  0  0  0
   41.0090   30.1030   42.1880 C   0  0  0  0  0  0  0  0  0  0  0  0
   41.8530   29.1760   41.7370 N   0  0  0  0  0  0  0  0  0  0  0  0
   41.8690   29.2560   40.4120 C   0  0  0  0  0  0  0  0  0  0  0  0
   41.0290   30.2390   40.0120 N   0  0  0  0  0  0  0  0  0  0  0  0
   40.4660   30.7980   41.1190 C   0  0  0  0  0  0  0  0  0  0  0  0
   39.5560   31.8230   41.2590 C   0  0  0  0  0  0  0  0  0  0  0  0
   38.4560   32.9730   42.7370 H   0  0  0  0  0  0  0  0  0  0  0  0
   41.0020   29.9580   44.3460 H   0  0  0  0  0  0  0  0  0  0  0  0
   42.3840   28.5260   42.3510 H   0  0  0  0  0  0  0  0  0  0  0  0
   42.4720   28.6190   39.7540 H   0  0  0  0  0  0  0  0  0  0  0  0
   39.0240   32.5010   40.1930 O   0  0  0  0  0  0  0  0  0  0  0  0
   37.7150   32.7820   39.9510 C   0  0  0  0  0  0  0  0  0  0  0  0
   37.5290   34.1430   39.6670 C   0  0  0  0  0  0  0  0  0  0  0  0
   38.1430   35.0560   39.5830 H   0  0  0  0  0  0  0  0  0  0  0  0
   36.1840   34.3600   39.4310 C   0  0  0  0  0  0  0  0  0  0  0  0
   35.5880   35.2300   39.1810 H   0  0  0  0  0  0  0  0  0  0  0  0
   35.6360   33.1310   39.5830 N   0  0  0  0  0  0  0  0  0  0  0  0
   34.6100   32.8870   39.4820 H   0  0  0  0  0  0  0  0  0  0  0  0
   36.5090   32.1930   39.8870 N   0  0  0  0  0  0  0  0  0  0  0  0
   38.1170   30.1420   47.4970 F   0  0  0  0  0  0  0  0  0  0  0  0
   38.3710   31.3870   47.9850 C   0  0  0  0  0  0  0  0  0  0  0  0
   37.7170   31.8320   49.0960 C   0  0  0  0  0  0  0  0  0  0  0  0
   38.0220   33.0940   49.5310 C   0  0  0  0  0  0  0  0  0  0  0  0
   38.9440   33.9050   48.9010 C   0  0  0  0  0  0  0  0  0  0  0  0
   39.5960   33.4290   47.7740 C   0  0  0  0  0  0  0  0  0  0  0  0
   39.3030   32.1540   47.3140 C   0  0  0  0  0  0  0  0  0  0  0  0
   37.4980   33.4500   50.4210 H   0  0  0  0  0  0  0  0  0  0  0  0
   39.1140   34.8870   49.3240 H   0  0  0  0  0  0  0  0  0  0  0  0
   40.3160   34.0620   47.2810 H   0  0  0  0  0  0  0  0  0  0  0  0
   36.0870   29.3650   51.4540 C   0  0  0  0  0  0  0  0  0  0  0  0
   37.0530   30.2200   50.8690 C   0  0  0  0  0  0  0  0  0  0  0  0
   36.7490   30.9380   49.7300 C   0  0  0  0  0  0  0  0  0  0  0  0
   35.4860   30.7880   49.1980 N   0  0  0  0  0  0  0  0  0  0  0  0
   34.5820   29.9760   49.7610 C   0  0  0  0  0  0  0  0  0  0  0  0
   34.8680   29.2790   50.8620 N   0  0  0  0  0  0  0  0  0  0  0  0
   36.4650   28.8760   52.3300 H   0  0  0  0  0  0  0  0  0  0  0  0
   38.0490   30.3660   51.2520 H   0  0  0  0  0  0  0  0  0  0  0  0
   33.5870   29.8530   49.3490 H   0  0  0  0  0  0  0  0  0  0  0  0
  1  2  2  0  0  0  0
  1  3  1  0  0  0  0
  3 33  1  0  0  0  0
  4  3  1  0  0  0  0
  5 14  1  0  0  0  0
  5  6  1  0  0  0  0
  6  1  1  0  0  0  0
  7  6  2  0  0  0  0
  7 15  1  0  0  0  0
  8  7  1  0  0  0  0
  9  8  1  0  0  0  0
  9 16  1  0  0  0  0
 10  9  1  0  0  0  0
 11 10  2  0  0  0  0
 11 12  1  0  0  0  0
 12 13  1  0  0  0  0
 12  8  2  0  0  0  0
 13  5  2  0  0  0  0
 17 10  1  0  0  0  0
 18 13  1  0  0  0  0
 19 18  1  0  0  0  0
 20 19  1  0  0  0  0
 21 20  1  0  0  0  0
 22 24  1  0  0  0  0
 22 20  2  0  0  0  0
 23 22  1  0  0  0  0
 24 26  1  0  0  0  0
 25 24  1  0  0  0  0
 26 19  2  0  0  0  0
 27 28  1  0  0  0  0
 28 29  1  0  0  0  0
 29 30  2  0  0  0  0
 29 39  1  0  0  0  0
 30 34  1  0  0  0  0
 31 35  1  0  0  0  0
 31 30  1  0  0  0  0
 32 31  2  0  0  0  0
 33 32  1  0  0  0  0
 33 28  2  0  0  0  0
 36 32  1  0  0  0  0
 37 43  1  0  0  0  0
 38 44  1  0  0  0  0
 38 37  1  0  0  0  0
 39 38  2  0  0  0  0
 40 39  1  0  0  0  0
 40 41  2  0  0  0  0
 41 42  1  0  0  0  0
 42 37  2  0  0  0  0
 45 41  1  0  0  0  0
M  END
>  <minimizedAffinity>
-7.256639

>  <minimizedRMSD>
0.710242271

$$$$
