
     RDKit          3D

 27 29  0  0  0  0  0  0  0  0999 V2000
   37.9133   30.8715   46.7326 C   0  0  0  0  0  0  0  0  0  0  0  0
   38.0491   31.0364   48.1348 C   0  0  0  0  0  0  0  0  0  0  0  0
   36.9351   30.8247   48.9358 C   0  0  0  0  0  0  0  0  0  0  0  0
   35.7689   30.4673   48.3108 N   0  0  0  0  0  0  0  0  0  0  0  0
   35.6656   30.3174   46.9801 C   0  0  0  0  0  0  0  0  0  0  0  0
   36.7524   30.5241   46.1996 N   0  0  0  0  0  0  0  0  0  0  0  0
   39.0964   31.0983   45.9024 C   0  0  0  0  0  0  0  0  0  0  0  0
   39.9018   32.2010   45.8873 C   0  0  0  0  0  0  0  0  0  0  0  0
   40.9300   32.0427   44.9597 C   0  0  0  0  0  0  0  0  0  0  0  0
   40.6928   30.8142   44.4398 N   0  0  0  0  0  0  0  0  0  0  0  0
   39.6196   30.2518   44.9861 N   0  0  0  0  0  0  0  0  0  0  0  0
   37.0524   30.9910   50.4046 C   0  0  0  0  0  0  0  0  0  0  0  0
   36.5510   32.2345   50.6863 F   0  0  0  0  0  0  0  0  0  0  0  0
   36.3149   30.0359   51.1046 F   0  0  0  0  0  0  0  0  0  0  0  0
   38.3806   30.9432   50.8244 F   0  0  0  0  0  0  0  0  0  0  0  0
   39.0170   31.3240   48.5561 H   0  0  0  0  0  0  0  0  0  0  0  0
   34.7536   30.0380   46.4923 H   0  0  0  0  0  0  0  0  0  0  0  0
   39.8192   33.1043   46.4785 H   0  0  0  0  0  0  0  0  0  0  0  0
   41.7472   32.6348   44.6389 H   0  0  0  0  0  0  0  0  0  0  0  0
   41.3541   30.0311   43.4480 C   0  0  0  0  0  0  0  0  0  0  0  0
   41.8629   30.2731   42.1794 C   0  0  0  0  0  0  0  0  0  0  0  0
   41.7760   31.2628   41.7793 H   0  0  0  0  0  0  0  0  0  0  0  0
   42.3774   29.0600   41.7691 C   0  0  0  0  0  0  0  0  0  0  0  0
   42.8463   28.9893   40.7758 H   0  0  0  0  0  0  0  0  0  0  0  0
   42.2000   28.1242   42.7208 N   0  0  0  0  0  0  0  0  0  0  0  0
   42.5077   27.1281   42.6374 H   0  0  0  0  0  0  0  0  0  0  0  0
   41.5753   28.7234   43.7419 N   0  0  0  0  0  0  0  0  0  0  0  0
  1  2  2  0
  2  3  1  0
  3 12  1  0
  4  3  2  0
  5  4  1  0
  6  1  1  0
  6  5  2  0
  7  1  1  0
  8  7  1  0
  9  8  2  0
 10  9  1  0
 10 11  1  0
 11  7  2  0
 12 13  1  0
 12 15  1  0
 12 14  1  0
  2 16  1  0
  5 17  1  0
  8 18  1  0
  9 19  1  0
 20 21  1  0
 21 22  1  0
 21 23  2  0
 23 24  1  0
 23 25  1  0
 25 26  1  0
 25 27  1  0
 27 20  2  0
 10 20  1  0
M  ISO  7  16  14  17  14  18  14  19  14  22  15  24  16  26   5
M  END
>  <DihAtoms>  (1) 
8,9,19,20

>  <DihDeg>  (1) 
-91.08505664272067

$$$$
