
 OpenBabel03272510113D

 34 37  0  0  0  0  0  0  0  0999 V2000
   33.5270   28.5510   48.4530 C   0  0  0  0  0  0  0  0  0  0  0  0
   33.9560   28.4420   49.7280 C   0  0  0  0  0  0  0  0  0  0  0  0
   35.1870   28.8670   50.1840 C   0  0  0  0  0  0  0  0  0  0  0  0
   36.0650   29.4470   49.3110 C   0  0  0  0  0  0  0  0  0  0  0  0
   35.6170   29.5590   47.9880 C   0  0  0  0  0  0  0  0  0  0  0  0
   34.4100   29.1320   47.5910 N   0  0  0  0  0  0  0  0  0  0  0  0
   33.3330   27.9970   50.4930 H   0  0  0  0  0  0  0  0  0  0  0  0
   35.5230   28.7770   51.2020 H   0  0  0  0  0  0  0  0  0  0  0  0
   36.2790   30.0140   47.2550 H   0  0  0  0  0  0  0  0  0  0  0  0
   31.2710   27.4820   48.8080 C   0  0  0  0  0  0  0  0  0  0  0  0
   32.2390   28.1030   47.9940 C   0  0  0  0  0  0  0  0  0  0  0  0
   31.8900   28.2770   46.6620 C   0  0  0  0  0  0  0  0  0  0  0  0
   30.6730   27.8580   46.2050 N   0  0  0  0  0  0  0  0  0  0  0  0
   29.7950   27.2720   47.0380 C   0  0  0  0  0  0  0  0  0  0  0  0
   30.0790   27.0770   48.3420 N   0  0  0  0  0  0  0  0  0  0  0  0
   31.5220   27.3360   49.8490 H   0  0  0  0  0  0  0  0  0  0  0  0
   32.6210   28.7530   46.0150 H   0  0  0  0  0  0  0  0  0  0  0  0
   28.8990   27.0170   46.4840 H   0  0  0  0  0  0  0  0  0  0  0  0
   37.3400   29.9310   49.5920 O   0  0  0  0  0  0  0  0  0  0  0  0
   37.9710   30.8520   48.7570 C   0  0  0  0  0  0  0  0  0  0  0  0
   38.1830   32.0920   49.3720 C   0  0  0  0  0  0  0  0  0  0  0  0
   38.8150   32.9240   48.4500 C   0  0  0  0  0  0  0  0  0  0  0  0
   38.9580   32.1790   47.3460 N   0  0  0  0  0  0  0  0  0  0  0  0
   38.4680   30.9770   47.5270 N   0  0  0  0  0  0  0  0  0  0  0  0
   37.9740   32.5290   50.3600 H   0  0  0  0  0  0  0  0  0  0  0  0
   39.1750   33.9420   48.4480 H   0  0  0  0  0  0  0  0  0  0  0  0
   39.5350   32.5020   46.0840 C   0  0  0  0  0  0  0  0  0  0  0  0
   40.1160   33.5830   45.4520 C   0  0  0  0  0  0  0  0  0  0  0  0
   40.1800   34.4870   46.0420 H   0  0  0  0  0  0  0  0  0  0  0  0
   40.4540   33.1440   44.1830 C   0  0  0  0  0  0  0  0  0  0  0  0
   40.9290   33.8560   43.5190 H   0  0  0  0  0  0  0  0  0  0  0  0
   40.0860   31.8480   44.0690 N   0  0  0  0  0  0  0  0  0  0  0  0
   40.2560   31.3160   43.1710 H   0  0  0  0  0  0  0  0  0  0  0  0
   39.5370   31.4620   45.2030 N   0  0  0  0  0  0  0  0  0  0  0  0
  1  2  1  0  0  0  0
  2  3  2  0  0  0  0
  2  7  1  0  0  0  0
  3  8  1  0  0  0  0
  4 19  1  0  0  0  0
  4  3  1  0  0  0  0
  5  4  2  0  0  0  0
  6  5  1  0  0  0  0
  6  1  2  0  0  0  0
  9  5  1  0  0  0  0
 10 16  1  0  0  0  0
 11  1  1  0  0  0  0
 11 10  2  0  0  0  0
 12 11  1  0  0  0  0
 13 12  2  0  0  0  0
 13 14  1  0  0  0  0
 14 15  2  0  0  0  0
 15 10  1  0  0  0  0
 17 12  1  0  0  0  0
 18 14  1  0  0  0  0
 20 21  1  0  0  0  0
 20 19  1  0  0  0  0
 21 25  1  0  0  0  0
 22 21  2  0  0  0  0
 23 24  1  0  0  0  0
 23 22  1  0  0  0  0
 24 20  2  0  0  0  0
 26 22  1  0  0  0  0
 27 23  1  0  0  0  0
 28 29  1  0  0  0  0
 28 27  1  0  0  0  0
 30 28  2  0  0  0  0
 31 30  1  0  0  0  0
 32 30  1  0  0  0  0
 32 34  1  0  0  0  0
 33 32  1  0  0  0  0
 34 27  2  0  0  0  0
M  END
>  <minimizedAffinity>
-5.96380854

>  <minimizedRMSD>
1.16258454

$$$$
