
 OpenBabel03262523593D

 28 30  0  0  0  0  0  0  0  0999 V2000
   35.7110   30.6230   48.9030 C   0  0  0  0  0  0  0  0  0  0  0  0
   36.8410   30.7170   48.0670 C   0  0  0  0  0  0  0  0  0  0  0  0
   36.6650   30.4590   46.7200 C   0  0  0  0  0  0  0  0  0  0  0  0
   35.4160   30.1240   46.2550 N   0  0  0  0  0  0  0  0  0  0  0  0
   34.3560   30.0460   47.1030 C   0  0  0  0  0  0  0  0  0  0  0  0
   34.5010   30.2960   48.4300 N   0  0  0  0  0  0  0  0  0  0  0  0
   35.7790   30.8120   49.9590 H   0  0  0  0  0  0  0  0  0  0  0  0
   37.5200   30.5290   46.0820 H   0  0  0  0  0  0  0  0  0  0  0  0
   33.5430   27.0940   47.7150 Br  0  0  0  0  0  0  0  0  0  0  0  0
   32.5180   28.4210   46.8190 C   0  0  0  0  0  0  0  0  0  0  0  0
   33.0240   29.6930   46.6250 C   0  0  0  0  0  0  0  0  0  0  0  0
   32.2140   30.5910   45.9660 C   0  0  0  0  0  0  0  0  0  0  0  0
   30.9490   30.3130   45.4930 C   0  0  0  0  0  0  0  0  0  0  0  0
   30.4880   29.0150   45.7170 C   0  0  0  0  0  0  0  0  0  0  0  0
   31.2850   28.0760   46.3830 C   0  0  0  0  0  0  0  0  0  0  0  0
   32.6240   31.5970   45.8170 H   0  0  0  0  0  0  0  0  0  0  0  0
   30.3510   31.0550   44.9810 H   0  0  0  0  0  0  0  0  0  0  0  0
   29.4970   28.7390   45.3660 H   0  0  0  0  0  0  0  0  0  0  0  0
   30.8470   27.0980   46.5110 H   0  0  0  0  0  0  0  0  0  0  0  0
   38.0590   31.0550   48.5900 O   0  0  0  0  0  0  0  0  0  0  0  0
   38.7000   32.2440   48.3540 C   0  0  0  0  0  0  0  0  0  0  0  0
   38.7530   33.0830   49.4730 C   0  0  0  0  0  0  0  0  0  0  0  0
   38.4180   33.0440   50.5010 H   0  0  0  0  0  0  0  0  0  0  0  0
   39.4250   34.2550   49.1080 C   0  0  0  0  0  0  0  0  0  0  0  0
   39.6790   35.1480   49.6660 H   0  0  0  0  0  0  0  0  0  0  0  0
   39.7490   34.0880   47.7990 N   0  0  0  0  0  0  0  0  0  0  0  0
   40.2540   34.7140   47.1360 H   0  0  0  0  0  0  0  0  0  0  0  0
   39.3240   32.9130   47.3640 N   0  0  0  0  0  0  0  0  0  0  0  0
  1  7  1  0  0  0  0
  2 20  1  0  0  0  0
  2  1  2  0  0  0  0
  3  2  1  0  0  0  0
  4  3  2  0  0  0  0
  4  5  1  0  0  0  0
  5  6  2  0  0  0  0
  6  1  1  0  0  0  0
  8  3  1  0  0  0  0
 10  9  1  0  0  0  0
 11 10  1  0  0  0  0
 11  5  1  0  0  0  0
 12 11  2  0  0  0  0
 13 14  2  0  0  0  0
 13 12  1  0  0  0  0
 14 15  1  0  0  0  0
 15 19  1  0  0  0  0
 15 10  2  0  0  0  0
 16 12  1  0  0  0  0
 17 13  1  0  0  0  0
 18 14  1  0  0  0  0
 21 20  1  0  0  0  0
 21 22  1  0  0  0  0
 22 23  1  0  0  0  0
 24 22  2  0  0  0  0
 24 25  1  0  0  0  0
 26 24  1  0  0  0  0
 27 26  1  0  0  0  0
 28 26  1  0  0  0  0
 28 21  2  0  0  0  0
M  END
>  <minimizedAffinity>
-5.12763023

>  <minimizedRMSD>
3.83623576

$$$$
