
 OpenBabel03272503533D

 43 46  0  0  1  0  0  0  0  0999 V2000
   37.1190   30.8240   46.4500 C   0  0  1  0  0  0  0  0  0  0  0  0
   35.5790   30.7440   46.2960 C   0  0  0  0  0  0  0  0  0  0  0  0
   35.3820   29.5970   45.2870 C   0  0  0  0  0  0  0  0  0  0  0  0
   35.8430   30.0940   43.9620 C   0  0  0  0  0  0  0  0  0  0  0  0
   37.2850   30.4860   44.0210 C   0  0  0  0  0  0  0  0  0  0  0  0
   37.5990   31.4240   45.1600 C   0  0  2  0  0  0  0  0  0  0  0  0
   37.4070   29.7770   46.5760 H   0  0  0  0  0  0  0  0  0  0  0  0
   35.0990   30.4310   47.2390 H   0  0  0  0  0  0  0  0  0  0  0  0
   35.1680   31.6930   45.9060 H   0  0  0  0  0  0  0  0  0  0  0  0
   36.0820   28.7910   45.6150 H   0  0  0  0  0  0  0  0  0  0  0  0
   34.3730   29.1940   45.3040 H   0  0  0  0  0  0  0  0  0  0  0  0
   35.7480   29.2850   43.2060 H   0  0  0  0  0  0  0  0  0  0  0  0
   35.2560   30.9630   43.6320 H   0  0  0  0  0  0  0  0  0  0  0  0
   37.9630   29.5860   44.0680 H   0  0  0  0  0  0  0  0  0  0  0  0
   37.5520   30.9890   43.0540 H   0  0  0  0  0  0  0  0  0  0  0  0
   37.1550   32.3850   44.9190 H   0  0  0  0  0  0  0  0  0  0  0  0
   37.0560   31.3640   48.9040 C   0  0  0  0  0  0  0  0  0  0  0  0
   37.5370   32.1110   49.9760 C   0  0  0  0  0  0  0  0  0  0  0  0
   38.4990   33.1170   49.7660 C   0  0  0  0  0  0  0  0  0  0  0  0
   38.9330   33.3240   48.4780 C   0  0  0  0  0  0  0  0  0  0  0  0
   38.4670   32.5960   47.4110 C   0  0  0  0  0  0  0  0  0  0  0  0
   37.5040   31.5910   47.6350 C   0  0  0  0  0  0  0  0  0  0  0  0
   37.1940   31.9450   50.9890 H   0  0  0  0  0  0  0  0  0  0  0  0
   38.8380   33.6650   50.6330 H   0  0  0  0  0  0  0  0  0  0  0  0
   39.6760   34.1120   48.3630 H   0  0  0  0  0  0  0  0  0  0  0  0
   38.8870   32.8620   46.4710 H   0  0  0  0  0  0  0  0  0  0  0  0
   35.2350   28.1320   49.6000 C   0  0  0  0  0  0  0  0  0  0  0  0
   36.2930   29.0050   49.2510 C   0  0  0  0  0  0  0  0  0  0  0  0
   36.0560   30.3770   49.2380 C   0  0  0  0  0  0  0  0  0  0  0  0
   34.8130   30.7760   49.5650 N   0  0  0  0  0  0  0  0  0  0  0  0
   33.8100   29.9440   49.8980 C   0  0  0  0  0  0  0  0  0  0  0  0
   34.0270   28.6370   49.9130 N   0  0  0  0  0  0  0  0  0  0  0  0
   35.5500   27.1130   49.5710 H   0  0  0  0  0  0  0  0  0  0  0  0
   37.2840   28.6950   48.9880 H   0  0  0  0  0  0  0  0  0  0  0  0
   32.8240   30.3020   50.1560 H   0  0  0  0  0  0  0  0  0  0  0  0
   39.0860   31.4660   45.2430 C   0  0  0  0  0  0  0  0  0  0  0  0
   39.9890   32.4310   44.9260 C   0  0  0  0  0  0  0  0  0  0  0  0
   39.7110   33.3970   44.5280 H   0  0  0  0  0  0  0  0  0  0  0  0
   41.2560   31.9580   45.1980 C   0  0  0  0  0  0  0  0  0  0  0  0
   42.1890   32.4680   45.0610 H   0  0  0  0  0  0  0  0  0  0  0  0
   41.0800   30.7030   45.6790 N   0  0  0  0  0  0  0  0  0  0  0  0
   41.8410   30.0340   45.9930 H   0  0  0  0  0  0  0  0  0  0  0  0
   39.7980   30.4180   45.7040 N   0  0  0  0  0  0  0  0  0  0  0  0
  1  7  1  1  0  0  0
  1 22  1  0  0  0  0
  2  1  1  0  0  0  0
  2  8  1  0  0  0  0
  3 11  1  0  0  0  0
  3 10  1  0  0  0  0
  3  2  1  0  0  0  0
  4  5  1  0  0  0  0
  4  3  1  0  0  0  0
  5 14  1  0  0  0  0
  5  6  1  0  0  0  0
  6 16  1  6  0  0  0
  6 36  1  0  0  0  0
  6  1  1  0  0  0  0
  9  2  1  0  0  0  0
 12  4  1  0  0  0  0
 13  4  1  0  0  0  0
 15  5  1  0  0  0  0
 17 29  1  0  0  0  0
 17 18  1  0  0  0  0
 18 23  1  0  0  0  0
 19 18  2  0  0  0  0
 19 24  1  0  0  0  0
 20 19  1  0  0  0  0
 21 22  1  0  0  0  0
 21 20  2  0  0  0  0
 22 17  2  0  0  0  0
 25 20  1  0  0  0  0
 26 21  1  0  0  0  0
 27 32  1  0  0  0  0
 28 27  2  0  0  0  0
 29 28  1  0  0  0  0
 29 30  2  0  0  0  0
 30 31  1  0  0  0  0
 31 32  2  0  0  0  0
 31 35  1  0  0  0  0
 33 27  1  0  0  0  0
 34 28  1  0  0  0  0
 36 43  2  0  0  0  0
 37 39  2  0  0  0  0
 37 36  1  0  0  0  0
 38 37  1  0  0  0  0
 39 41  1  0  0  0  0
 40 39  1  0  0  0  0
 41 43  1  0  0  0  0
 41 42  1  0  0  0  0
M  END
>  <minimizedAffinity>
-5.91708374

>  <minimizedRMSD>
2.11131406

$$$$
