
 OpenBabel03272505023D

 28 30  0  0  0  0  0  0  0  0999 V2000
   38.3410   30.3620   46.9710 Cl  0  0  0  0  0  0  0  0  0  0  0  0
   38.7630   31.8830   47.7400 C   0  0  0  0  0  0  0  0  0  0  0  0
   38.3020   32.1330   49.0040 C   0  0  0  0  0  0  0  0  0  0  0  0
   38.6760   33.3450   49.5410 C   0  0  0  0  0  0  0  0  0  0  0  0
   39.4690   34.2240   48.8120 C   0  0  0  0  0  0  0  0  0  0  0  0
   39.9040   33.9230   47.5490 C   0  0  0  0  0  0  0  0  0  0  0  0
   39.5370   32.7070   46.9900 C   0  0  0  0  0  0  0  0  0  0  0  0
   38.3770   33.6620   50.5320 H   0  0  0  0  0  0  0  0  0  0  0  0
   39.7600   35.1800   49.2470 H   0  0  0  0  0  0  0  0  0  0  0  0
   40.5220   34.6530   47.0320 H   0  0  0  0  0  0  0  0  0  0  0  0
   37.9960   30.5030   50.8650 C   0  0  0  0  0  0  0  0  0  0  0  0
   37.4670   31.2050   49.7690 C   0  0  0  0  0  0  0  0  0  0  0  0
   36.1430   30.9920   49.4410 C   0  0  0  0  0  0  0  0  0  0  0  0
   35.4260   30.1210   50.1900 N   0  0  0  0  0  0  0  0  0  0  0  0
   35.9480   29.4550   51.2370 C   0  0  0  0  0  0  0  0  0  0  0  0
   37.2280   29.6480   51.5700 N   0  0  0  0  0  0  0  0  0  0  0  0
   39.0420   30.6520   51.1460 H   0  0  0  0  0  0  0  0  0  0  0  0
   35.6950   31.5050   48.6150 H   0  0  0  0  0  0  0  0  0  0  0  0
   35.4000   28.7570   51.8480 H   0  0  0  0  0  0  0  0  0  0  0  0
   39.9980   32.4510   45.7180 O   0  0  0  0  0  0  0  0  0  0  0  0
   39.3270   32.6410   44.5440 C   0  0  0  0  0  0  0  0  0  0  0  0
   39.6050   32.8400   43.2130 C   0  0  0  0  0  0  0  0  0  0  0  0
   40.6420   32.8700   42.9140 H   0  0  0  0  0  0  0  0  0  0  0  0
   38.4410   32.9680   42.4900 C   0  0  0  0  0  0  0  0  0  0  0  0
   38.3910   33.1320   41.4260 H   0  0  0  0  0  0  0  0  0  0  0  0
   37.4850   32.8410   43.4090 N   0  0  0  0  0  0  0  0  0  0  0  0
   36.4510   32.8930   43.1680 H   0  0  0  0  0  0  0  0  0  0  0  0
   37.9650   32.6480   44.6270 N   0  0  0  0  0  0  0  0  0  0  0  0
  1  2  1  0  0  0  0
  2  3  1  0  0  0  0
  3  4  2  0  0  0  0
  3 12  1  0  0  0  0
  4  8  1  0  0  0  0
  5  9  1  0  0  0  0
  5  4  1  0  0  0  0
  6  5  2  0  0  0  0
  7  6  1  0  0  0  0
  7  2  2  0  0  0  0
 10  6  1  0  0  0  0
 11 17  1  0  0  0  0
 11 16  1  0  0  0  0
 12 11  2  0  0  0  0
 13 12  1  0  0  0  0
 13 14  2  0  0  0  0
 14 15  1  0  0  0  0
 15 16  2  0  0  0  0
 15 19  1  0  0  0  0
 18 13  1  0  0  0  0
 20  7  1  0  0  0  0
 21 28  2  0  0  0  0
 21 20  1  0  0  0  0
 22 21  1  0  0  0  0
 23 22  1  0  0  0  0
 24 22  2  0  0  0  0
 24 26  1  0  0  0  0
 25 24  1  0  0  0  0
 26 28  1  0  0  0  0
 27 26  1  0  0  0  0
M  END
>  <minimizedAffinity>
-6.18579626

>  <minimizedRMSD>
0.282739341

$$$$
