
 OpenBabel03272508213D

 41 44  0  0  0  0  0  0  0  0999 V2000
   35.0880   29.9650   44.0770 C   0  0  0  0  0  0  0  0  0  0  0  0
   35.2860   28.9020   43.7990 H   0  0  0  0  0  0  0  0  0  0  0  0
   35.9770   30.5090   43.6360 H   0  0  0  0  0  0  0  0  0  0  0  0
   37.5880   30.3330   45.2210 F   0  0  0  0  0  0  0  0  0  0  0  0
   36.4600   30.2930   45.9860 C   0  0  0  0  0  0  0  0  0  0  0  0
   35.1630   30.1000   45.4930 C   0  0  0  0  0  0  0  0  0  0  0  0
   34.1780   30.0660   46.4220 C   0  0  0  0  0  0  0  0  0  0  0  0
   34.3880   30.2140   47.7560 C   0  0  0  0  0  0  0  0  0  0  0  0
   35.6730   30.4050   48.2310 C   0  0  0  0  0  0  0  0  0  0  0  0
   36.7240   30.4410   47.3210 C   0  0  0  0  0  0  0  0  0  0  0  0
   33.1680   29.8530   46.2390 H   0  0  0  0  0  0  0  0  0  0  0  0
   33.6290   30.1990   48.5520 H   0  0  0  0  0  0  0  0  0  0  0  0
   35.8840   30.5320   49.3080 H   0  0  0  0  0  0  0  0  0  0  0  0
   37.9950   30.6240   47.8760 O   0  0  0  0  0  0  0  0  0  0  0  0
   38.4300   31.8710   48.3030 C   0  0  0  0  0  0  0  0  0  0  0  0
   38.4400   32.6470   49.4630 C   0  0  0  0  0  0  0  0  0  0  0  0
   37.9790   32.1740   50.3170 H   0  0  0  0  0  0  0  0  0  0  0  0
   39.0680   33.8270   49.1210 C   0  0  0  0  0  0  0  0  0  0  0  0
   39.1750   34.5680   49.8950 H   0  0  0  0  0  0  0  0  0  0  0  0
   39.4160   33.7660   47.8310 N   0  0  0  0  0  0  0  0  0  0  0  0
   39.9170   34.5710   47.3520 H   0  0  0  0  0  0  0  0  0  0  0  0
   39.0410   32.6030   47.3310 N   0  0  0  0  0  0  0  0  0  0  0  0
   33.8940   30.5150   43.3990 C   0  0  0  0  0  0  0  0  0  0  0  0
   33.8540   30.0240   42.3760 H   0  0  0  0  0  0  0  0  0  0  0  0
   32.9600   30.1550   43.8780 H   0  0  0  0  0  0  0  0  0  0  0  0
   32.7510   32.6830   43.5200 C   0  0  0  0  0  0  0  0  0  0  0  0
   33.8410   31.9260   43.1900 C   0  0  0  0  0  0  0  0  0  0  0  0
   34.8240   32.6430   42.5910 C   0  0  0  0  0  0  0  0  0  0  0  0
   34.7480   33.9530   42.3430 N   0  0  0  0  0  0  0  0  0  0  0  0
   33.6940   34.6780   42.6600 C   0  0  0  0  0  0  0  0  0  0  0  0
   32.6770   34.0540   43.2550 N   0  0  0  0  0  0  0  0  0  0  0  0
   35.7670   32.1740   42.2670 H   0  0  0  0  0  0  0  0  0  0  0  0
   33.4810   35.7300   42.5270 H   0  0  0  0  0  0  0  0  0  0  0  0
   31.6080   32.0950   44.3500 C   0  0  0  0  0  0  0  0  0  0  0  0
   30.3710   32.7080   44.4810 C   0  0  0  0  0  0  0  0  0  0  0  0
   30.4600   31.7370   43.3090 C   0  0  0  0  0  0  0  0  0  0  0  0
   31.8110   31.2460   44.9480 H   0  0  0  0  0  0  0  0  0  0  0  0
   30.2770   33.8000   44.1930 H   0  0  0  0  0  0  0  0  0  0  0  0
   29.6290   32.4550   45.2350 H   0  0  0  0  0  0  0  0  0  0  0  0
   30.4990   32.1910   42.3300 H   0  0  0  0  0  0  0  0  0  0  0  0
   30.0400   30.7250   43.4500 H   0  0  0  0  0  0  0  0  0  0  0  0
  1  6  1  0  0  0  0
  2  1  1  0  0  0  0
  3  1  1  0  0  0  0
  4  5  1  0  0  0  0
  5 10  1  0  0  0  0
  6  5  2  0  0  0  0
  6  7  1  0  0  0  0
  7  8  2  0  0  0  0
  8  9  1  0  0  0  0
  8 12  1  0  0  0  0
  9 13  1  0  0  0  0
 10 14  1  0  0  0  0
 10  9  2  0  0  0  0
 11  7  1  0  0  0  0
 14 15  1  0  0  0  0
 15 16  1  0  0  0  0
 16 17  1  0  0  0  0
 18 16  2  0  0  0  0
 18 19  1  0  0  0  0
 20 18  1  0  0  0  0
 21 20  1  0  0  0  0
 22 20  1  0  0  0  0
 22 15  2  0  0  0  0
 23 25  1  0  0  0  0
 23  1  1  0  0  0  0
 24 23  1  0  0  0  0
 26 34  1  0  0  0  0
 27 23  1  0  0  0  0
 27 26  2  0  0  0  0
 28 27  1  0  0  0  0
 29 28  2  0  0  0  0
 29 30  1  0  0  0  0
 30 31  2  0  0  0  0
 31 26  1  0  0  0  0
 32 28  1  0  0  0  0
 33 30  1  0  0  0  0
 34 35  1  0  0  0  0
 34 37  1  0  0  0  0
 35 39  1  0  0  0  0
 36 41  1  0  0  0  0
 36 34  1  0  0  0  0
 36 35  1  0  0  0  0
 38 35  1  0  0  0  0
 40 36  1  0  0  0  0
M  END
>  <minimizedAffinity>
-5.02994251

>  <minimizedRMSD>
5.1153698

$$$$
