
 OpenBabel03272501573D

 30 32  0  0  0  0  0  0  0  0999 V2000
   34.4100   28.4120   48.0060 C   0  0  0  0  0  0  0  0  0  0  0  0
   34.7420   29.3400   47.5330 H   0  0  0  0  0  0  0  0  0  0  0  0
   34.8150   27.5290   47.4310 H   0  0  0  0  0  0  0  0  0  0  0  0
   32.9160   28.2780   47.8640 C   0  0  0  0  0  0  0  0  0  0  0  0
   32.0860   27.5630   48.6970 C   0  0  0  0  0  0  0  0  0  0  0  0
   30.7690   27.6480   48.2820 C   0  0  0  0  0  0  0  0  0  0  0  0
   30.8450   28.4420   47.1710 N   0  0  0  0  0  0  0  0  0  0  0  0
   32.0940   28.8020   46.9370 N   0  0  0  0  0  0  0  0  0  0  0  0
   32.4440   27.0110   49.5620 H   0  0  0  0  0  0  0  0  0  0  0  0
   29.9020   27.1960   48.7350 H   0  0  0  0  0  0  0  0  0  0  0  0
   29.7080   28.8160   46.3860 C   0  0  0  0  0  0  0  0  0  0  0  0
   29.4820   28.5570   45.0440 C   0  0  0  0  0  0  0  0  0  0  0  0
   30.1490   28.0280   44.3980 H   0  0  0  0  0  0  0  0  0  0  0  0
   28.2360   29.1370   44.7910 C   0  0  0  0  0  0  0  0  0  0  0  0
   27.7470   29.1190   43.8150 H   0  0  0  0  0  0  0  0  0  0  0  0
   27.7540   29.7090   45.9320 N   0  0  0  0  0  0  0  0  0  0  0  0
   26.8410   30.2160   46.0400 H   0  0  0  0  0  0  0  0  0  0  0  0
   28.6620   29.5020   46.8840 N   0  0  0  0  0  0  0  0  0  0  0  0
   34.7090   28.2960   49.4670 C   0  0  0  0  0  0  0  0  0  0  0  0
   33.8540   28.7230   50.0700 H   0  0  0  0  0  0  0  0  0  0  0  0
   34.8100   27.2570   49.8130 H   0  0  0  0  0  0  0  0  0  0  0  0
   37.2510   30.1690   51.3950 C   0  0  0  0  0  0  0  0  0  0  0  0
   38.0700   30.7050   50.3830 C   0  0  0  0  0  0  0  0  0  0  0  0
   37.7230   30.4050   49.0420 C   0  0  0  0  0  0  0  0  0  0  0  0
   36.6370   29.6300   48.8330 N   0  0  0  0  0  0  0  0  0  0  0  0
   35.8820   29.1390   49.8390 C   0  0  0  0  0  0  0  0  0  0  0  0
   36.1910   29.4100   51.0940 N   0  0  0  0  0  0  0  0  0  0  0  0
   37.4740   30.3700   52.4510 H   0  0  0  0  0  0  0  0  0  0  0  0
   38.9280   31.3210   50.6230 H   0  0  0  0  0  0  0  0  0  0  0  0
   38.3250   30.7970   48.2370 H   0  0  0  0  0  0  0  0  0  0  0  0
  1 19  1  0  0  0  0
  2  1  1  0  0  0  0
  3  1  1  0  0  0  0
  4  1  1  0  0  0  0
  4  5  1  0  0  0  0
  5  9  1  0  0  0  0
  6  5  2  0  0  0  0
  6 10  1  0  0  0  0
  7  6  1  0  0  0  0
  8  7  1  0  0  0  0
  8  4  2  0  0  0  0
 11 18  2  0  0  0  0
 11  7  1  0  0  0  0
 12 11  1  0  0  0  0
 13 12  1  0  0  0  0
 14 12  2  0  0  0  0
 14 16  1  0  0  0  0
 15 14  1  0  0  0  0
 16 17  1  0  0  0  0
 16 18  1  0  0  0  0
 19 21  1  0  0  0  0
 19 26  1  0  0  0  0
 19 20  1  0  0  0  0
 22 28  1  0  0  0  0
 23 29  1  0  0  0  0
 23 22  2  0  0  0  0
 24 23  1  0  0  0  0
 25 24  2  0  0  0  0
 25 26  1  0  0  0  0
 26 27  2  0  0  0  0
 27 22  1  0  0  0  0
 30 24  1  0  0  0  0
M  END
>  <minimizedAffinity>
-4.87926102

>  <minimizedRMSD>
0.363522142

$$$$
