
 OpenBabel03262521073D

 41 43  0  0  1  0  0  0  0  0999 V2000
   36.7350   22.4500   31.0840 C   0  0  2  0  0  0  0  0  0  0  0  0
   35.3820   21.8700   31.2320 C   0  0  0  0  0  0  0  0  0  0  0  0
   35.1800   21.2110   32.5790 C   0  0  0  0  0  0  0  0  0  0  0  0
   36.2080   20.1630   32.8800 C   0  0  0  0  0  0  0  0  0  0  0  0
   37.5950   20.5260   32.4240 C   0  0  0  0  0  0  0  0  0  0  0  0
   37.7130   22.0170   32.1290 C   0  0  2  0  0  0  0  0  0  0  0  0
   37.1680   22.1270   30.0880 H   0  0  0  0  0  0  0  0  0  0  0  0
   34.5050   22.4800   31.1200 H   0  0  0  0  0  0  0  0  0  0  0  0
   35.2260   21.0120   30.4910 H   0  0  0  0  0  0  0  0  0  0  0  0
   34.1870   20.7190   32.5360 H   0  0  0  0  0  0  0  0  0  0  0  0
   35.1420   21.9420   33.4070 H   0  0  0  0  0  0  0  0  0  0  0  0
   35.9210   19.2170   32.3650 H   0  0  0  0  0  0  0  0  0  0  0  0
   36.1880   19.9450   33.9590 H   0  0  0  0  0  0  0  0  0  0  0  0
   38.2900   20.1880   33.1800 H   0  0  0  0  0  0  0  0  0  0  0  0
   37.8400   20.0060   31.4720 H   0  0  0  0  0  0  0  0  0  0  0  0
   38.7400   22.1360   31.6740 H   0  0  0  0  0  0  0  0  0  0  0  0
   36.7440   23.9190   31.0430 C   0  0  0  0  0  0  0  0  0  0  0  0
   35.4710   24.5300   31.1170 C   0  0  0  0  0  0  0  0  0  0  0  0
   35.4520   25.9230   31.1050 C   0  0  0  0  0  0  0  0  0  0  0  0
   36.6240   26.6130   31.0250 N   0  0  0  0  0  0  0  0  0  0  0  0
   37.8260   25.9820   30.9530 C   0  0  0  0  0  0  0  0  0  0  0  0
   37.8460   24.6740   30.9650 N   0  0  0  0  0  0  0  0  0  0  0  0
   34.4340   24.2580   31.1760 H   0  0  0  0  0  0  0  0  0  0  0  0
   34.6560   26.6260   31.1500 H   0  0  0  0  0  0  0  0  0  0  0  0
   38.7670   26.5090   30.8880 H   0  0  0  0  0  0  0  0  0  0  0  0
   37.7270   22.6680   33.3590 N   0  0  0  0  0  0  0  0  0  0  0  0
   36.9510   23.2960   33.5880 H   0  0  0  0  0  0  0  0  0  0  0  0
   39.2300   23.1970   33.9470 S   0  0  0  0  0  0  0  0  0  0  0  0
   39.9190   21.9700   34.5260 O   0  0  0  0  0  0  0  0  0  0  0  0
   40.5410   22.0760   35.2800 H   0  0  0  0  0  0  0  0  0  0  0  0
   40.1090   23.7740   32.8790 O   0  0  0  0  0  0  0  0  0  0  0  0
   39.8300   24.4930   32.2570 H   0  0  0  0  0  0  0  0  0  0  0  0
   39.0980   24.2900   35.2000 O   0  0  0  0  0  0  0  0  0  0  0  0
   38.7420   23.8960   36.4890 C   0  0  0  0  0  0  0  0  0  0  0  0
   37.7290   24.0480   37.3910 C   0  0  0  0  0  0  0  0  0  0  0  0
   36.8980   24.6700   37.0530 H   0  0  0  0  0  0  0  0  0  0  0  0
   38.0400   23.3420   38.5440 C   0  0  0  0  0  0  0  0  0  0  0  0
   37.3650   23.3410   39.3680 H   0  0  0  0  0  0  0  0  0  0  0  0
   39.2330   22.7880   38.2960 N   0  0  0  0  0  0  0  0  0  0  0  0
   39.7260   22.1840   39.0070 H   0  0  0  0  0  0  0  0  0  0  0  0
   39.6730   23.0990   37.0850 N   0  0  0  0  0  0  0  0  0  0  0  0
  1  7  1  6  0  0  0
  1  2  1  0  0  0  0
  1  6  1  0  0  0  0
  2  3  1  0  0  0  0
  3  4  1  0  0  0  0
  3 11  1  0  0  0  0
  4 13  1  0  0  0  0
  5  4  1  0  0  0  0
  5 14  1  0  0  0  0
  6 16  1  6  0  0  0
  6  5  1  0  0  0  0
  6 26  1  0  0  0  0
  8  2  1  0  0  0  0
  9  2  1  0  0  0  0
 10  3  1  0  0  0  0
 12  4  1  0  0  0  0
 15  5  1  0  0  0  0
 17  1  1  0  0  0  0
 17 18  1  0  0  0  0
 18 23  1  0  0  0  0
 19 18  2  0  0  0  0
 19 24  1  0  0  0  0
 20 19  1  0  0  0  0
 21 22  1  0  0  0  0
 21 20  2  0  0  0  0
 22 17  2  0  0  0  0
 25 21  1  0  0  0  0
 26 27  1  0  0  0  0
 26 28  1  0  0  0  0
 28 29  1  0  0  0  0
 28 33  1  0  0  0  0
 29 30  1  0  0  0  0
 31 28  1  0  0  0  0
 32 31  1  0  0  0  0
 33 34  1  0  0  0  0
 34 41  2  0  0  0  0
 34 35  1  0  0  0  0
 35 37  2  0  0  0  0
 36 35  1  0  0  0  0
 37 38  1  0  0  0  0
 39 37  1  0  0  0  0
 39 40  1  0  0  0  0
 41 39  1  0  0  0  0
M  END
>  <minimizedAffinity>
-5.38305855

$$$$

 OpenBabel03262521073D

 41 43  0  0  1  0  0  0  0  0999 V2000
   38.6400   26.2470   34.1620 C   0  0  2  0  0  0  0  0  0  0  0  0
   38.0410   27.2280   35.0930 C   0  0  0  0  0  0  0  0  0  0  0  0
   36.6870   27.7160   34.6260 C   0  0  0  0  0  0  0  0  0  0  0  0
   36.7160   28.2930   33.2430 C   0  0  0  0  0  0  0  0  0  0  0  0
   37.6110   27.5470   32.2940 C   0  0  0  0  0  0  0  0  0  0  0  0
   37.9650   26.1640   32.8300 C   0  0  2  0  0  0  0  0  0  0  0  0
   39.7150   26.5410   33.9560 H   0  0  0  0  0  0  0  0  0  0  0  0
   37.8730   26.9790   36.1240 H   0  0  0  0  0  0  0  0  0  0  0  0
   38.6690   28.1840   35.1320 H   0  0  0  0  0  0  0  0  0  0  0  0
   36.3890   28.5200   35.3300 H   0  0  0  0  0  0  0  0  0  0  0  0
   35.9100   26.9310   34.6850 H   0  0  0  0  0  0  0  0  0  0  0  0
   37.0840   29.3440   33.2980 H   0  0  0  0  0  0  0  0  0  0  0  0
   35.6840   28.3480   32.8590 H   0  0  0  0  0  0  0  0  0  0  0  0
   37.1170   27.5130   31.3320 H   0  0  0  0  0  0  0  0  0  0  0  0
   38.5770   28.0820   32.1670 H   0  0  0  0  0  0  0  0  0  0  0  0
   38.7340   25.7670   32.1050 H   0  0  0  0  0  0  0  0  0  0  0  0
   38.7180   24.8860   34.7100 C   0  0  0  0  0  0  0  0  0  0  0  0
   39.8010   24.1090   34.2370 C   0  0  0  0  0  0  0  0  0  0  0  0
   39.9140   22.8230   34.7600 C   0  0  0  0  0  0  0  0  0  0  0  0
   39.0040   22.3840   35.6740 N   0  0  0  0  0  0  0  0  0  0  0  0
   37.9770   23.1660   36.0980 C   0  0  0  0  0  0  0  0  0  0  0  0
   37.8690   24.3750   35.6090 N   0  0  0  0  0  0  0  0  0  0  0  0
   40.6240   24.1830   33.5520 H   0  0  0  0  0  0  0  0  0  0  0  0
   40.6140   22.0420   34.5880 H   0  0  0  0  0  0  0  0  0  0  0  0
   37.2430   22.8390   36.8210 H   0  0  0  0  0  0  0  0  0  0  0  0
   36.8230   25.3790   32.6940 N   0  0  0  0  0  0  0  0  0  0  0  0
   36.6030   24.7060   33.4330 H   0  0  0  0  0  0  0  0  0  0  0  0
   36.4320   24.8320   31.1340 S   0  0  0  0  0  0  0  0  0  0  0  0
   35.6130   25.9400   30.4850 O   0  0  0  0  0  0  0  0  0  0  0  0
   34.9290   25.7060   29.8190 H   0  0  0  0  0  0  0  0  0  0  0  0
   37.6370   24.5740   30.2810 O   0  0  0  0  0  0  0  0  0  0  0  0
   38.3970   23.9990   30.5510 H   0  0  0  0  0  0  0  0  0  0  0  0
   35.4610   23.4770   31.1370 O   0  0  0  0  0  0  0  0  0  0  0  0
   35.7220   22.3830   31.9600 C   0  0  0  0  0  0  0  0  0  0  0  0
   35.1120   21.2620   32.4420 C   0  0  0  0  0  0  0  0  0  0  0  0
   34.0810   21.1180   32.1110 H   0  0  0  0  0  0  0  0  0  0  0  0
   36.0010   20.5760   33.2570 C   0  0  0  0  0  0  0  0  0  0  0  0
   35.7030   19.6690   33.7280 H   0  0  0  0  0  0  0  0  0  0  0  0
   37.1200   21.3110   33.2380 N   0  0  0  0  0  0  0  0  0  0  0  0
   37.9810   21.0280   33.7780 H   0  0  0  0  0  0  0  0  0  0  0  0
   36.9840   22.3870   32.4770 N   0  0  0  0  0  0  0  0  0  0  0  0
  1  7  1  6  0  0  0
  1 17  1  0  0  0  0
  1  2  1  0  0  0  0
  2  9  1  0  0  0  0
  2  8  1  0  0  0  0
  3 11  1  0  0  0  0
  3  2  1  0  0  0  0
  3 10  1  0  0  0  0
  4 12  1  0  0  0  0
  4  3  1  0  0  0  0
  5  6  1  0  0  0  0
  5  4  1  0  0  0  0
  6 16  1  6  0  0  0
  6  1  1  0  0  0  0
 13  4  1  0  0  0  0
 14  5  1  0  0  0  0
 15  5  1  0  0  0  0
 17 22  1  0  0  0  0
 18 17  2  0  0  0  0
 18 19  1  0  0  0  0
 19 20  2  0  0  0  0
 20 21  1  0  0  0  0
 21 25  1  0  0  0  0
 22 21  2  0  0  0  0
 23 18  1  0  0  0  0
 24 19  1  0  0  0  0
 26  6  1  0  0  0  0
 26 27  1  0  0  0  0
 28 33  1  0  0  0  0
 28 26  1  0  0  0  0
 29 28  1  0  0  0  0
 30 29  1  0  0  0  0
 31 32  1  0  0  0  0
 31 28  1  0  0  0  0
 33 34  1  0  0  0  0
 34 35  1  0  0  0  0
 34 41  2  0  0  0  0
 35 37  2  0  0  0  0
 36 35  1  0  0  0  0
 37 38  1  0  0  0  0
 39 37  1  0  0  0  0
 39 40  1  0  0  0  0
 41 39  1  0  0  0  0
M  END
>  <minimizedAffinity>
-5.30106831

$$$$

 OpenBabel03262521073D

 41 43  0  0  1  0  0  0  0  0999 V2000
   36.4520   26.0670   32.0800 C   0  0  2  0  0  0  0  0  0  0  0  0
   36.4840   26.9180   30.8710 C   0  0  0  0  0  0  0  0  0  0  0  0
   37.1800   28.2400   31.1130 C   0  0  0  0  0  0  0  0  0  0  0  0
   36.5900   29.0130   32.2530 C   0  0  0  0  0  0  0  0  0  0  0  0
   36.1810   28.1570   33.4200 C   0  0  0  0  0  0  0  0  0  0  0  0
   36.8170   26.7730   33.3460 C   0  0  2  0  0  0  0  0  0  0  0  0
   35.3990   25.6740   32.2270 H   0  0  0  0  0  0  0  0  0  0  0  0
   36.9300   26.5660   29.9600 H   0  0  0  0  0  0  0  0  0  0  0  0
   35.4250   27.2270   30.5650 H   0  0  0  0  0  0  0  0  0  0  0  0
   37.0450   28.8330   30.1860 H   0  0  0  0  0  0  0  0  0  0  0  0
   38.2680   28.1240   31.2670 H   0  0  0  0  0  0  0  0  0  0  0  0
   35.6800   29.5490   31.8930 H   0  0  0  0  0  0  0  0  0  0  0  0
   37.3040   29.7930   32.5610 H   0  0  0  0  0  0  0  0  0  0  0  0
   36.4340   28.6910   34.3250 H   0  0  0  0  0  0  0  0  0  0  0  0
   35.0820   27.9890   33.4130 H   0  0  0  0  0  0  0  0  0  0  0  0
   36.3350   26.1940   34.1870 H   0  0  0  0  0  0  0  0  0  0  0  0
   37.2930   24.8660   31.9780 C   0  0  0  0  0  0  0  0  0  0  0  0
   37.8600   24.6370   30.7020 C   0  0  0  0  0  0  0  0  0  0  0  0
   38.6830   23.5200   30.5830 C   0  0  0  0  0  0  0  0  0  0  0  0
   38.8980   22.7210   31.6660 N   0  0  0  0  0  0  0  0  0  0  0  0
   38.3290   22.9800   32.8730 C   0  0  0  0  0  0  0  0  0  0  0  0
   37.5570   24.0300   32.9880 N   0  0  0  0  0  0  0  0  0  0  0  0
   37.8620   25.0660   29.7180 H   0  0  0  0  0  0  0  0  0  0  0  0
   39.2270   23.1190   29.7630 H   0  0  0  0  0  0  0  0  0  0  0  0
   38.4850   22.3610   33.7450 H   0  0  0  0  0  0  0  0  0  0  0  0
   38.1610   26.9340   33.6710 N   0  0  0  0  0  0  0  0  0  0  0  0
   38.8650   26.7100   32.9620 H   0  0  0  0  0  0  0  0  0  0  0  0
   38.6360   26.5370   35.2540 S   0  0  0  0  0  0  0  0  0  0  0  0
   39.9770   25.8270   35.1320 O   0  0  0  0  0  0  0  0  0  0  0  0
   40.2210   25.1420   35.7930 H   0  0  0  0  0  0  0  0  0  0  0  0
   38.8140   27.7370   36.1330 O   0  0  0  0  0  0  0  0  0  0  0  0
   38.1280   28.4410   36.2600 H   0  0  0  0  0  0  0  0  0  0  0  0
   37.6040   25.4580   35.9980 O   0  0  0  0  0  0  0  0  0  0  0  0
   38.0400   24.5910   36.9990 C   0  0  0  0  0  0  0  0  0  0  0  0
   37.9760   24.4340   38.3520 C   0  0  0  0  0  0  0  0  0  0  0  0
   37.4140   25.2060   38.8810 H   0  0  0  0  0  0  0  0  0  0  0  0
   38.6710   23.2870   38.7090 C   0  0  0  0  0  0  0  0  0  0  0  0
   38.7330   22.9960   39.7320 H   0  0  0  0  0  0  0  0  0  0  0  0
   39.1310   22.7910   37.5530 N   0  0  0  0  0  0  0  0  0  0  0  0
   39.7050   21.9070   37.5160 H   0  0  0  0  0  0  0  0  0  0  0  0
   38.7720   23.5440   36.5230 N   0  0  0  0  0  0  0  0  0  0  0  0
  1  7  1  1  0  0  0
  1  6  1  0  0  0  0
  2  3  1  0  0  0  0
  2  1  1  0  0  0  0
  3 11  1  0  0  0  0
  3  4  1  0  0  0  0
  4 13  1  0  0  0  0
  4  5  1  0  0  0  0
  5 14  1  0  0  0  0
  6  5  1  0  0  0  0
  6 26  1  0  0  0  0
  6 16  1  1  0  0  0
  8  2  1  0  0  0  0
  9  2  1  0  0  0  0
 10  3  1  0  0  0  0
 12  4  1  0  0  0  0
 15  5  1  0  0  0  0
 17  1  1  0  0  0  0
 17 22  1  0  0  0  0
 18 17  2  0  0  0  0
 19 18  1  0  0  0  0
 19 20  2  0  0  0  0
 20 21  1  0  0  0  0
 21 22  2  0  0  0  0
 21 25  1  0  0  0  0
 23 18  1  0  0  0  0
 24 19  1  0  0  0  0
 26 28  1  0  0  0  0
 27 26  1  0  0  0  0
 28 33  1  0  0  0  0
 28 31  1  0  0  0  0
 29 28  1  0  0  0  0
 29 30  1  0  0  0  0
 31 32  1  0  0  0  0
 33 34  1  0  0  0  0
 34 35  1  0  0  0  0
 35 37  2  0  0  0  0
 35 36  1  0  0  0  0
 37 38  1  0  0  0  0
 39 37  1  0  0  0  0
 40 39  1  0  0  0  0
 41 34  2  0  0  0  0
 41 39  1  0  0  0  0
M  END
>  <minimizedAffinity>
-5.2901144

$$$$

 OpenBabel03262521073D

 41 43  0  0  1  0  0  0  0  0999 V2000
   38.8030   26.2690   34.3920 C   0  0  2  0  0  0  0  0  0  0  0  0
   37.9750   27.1610   35.2330 C   0  0  0  0  0  0  0  0  0  0  0  0
   36.6630   27.5250   34.5710 C   0  0  0  0  0  0  0  0  0  0  0  0
   36.8400   28.1390   33.2150 C   0  0  0  0  0  0  0  0  0  0  0  0
   37.9390   27.5090   32.4040 C   0  0  0  0  0  0  0  0  0  0  0  0
   38.3460   26.1550   32.9730 C   0  0  2  0  0  0  0  0  0  0  0  0
   39.8610   26.6720   34.3550 H   0  0  0  0  0  0  0  0  0  0  0  0
   37.6800   26.8700   36.2230 H   0  0  0  0  0  0  0  0  0  0  0  0
   38.4890   28.1730   35.3770 H   0  0  0  0  0  0  0  0  0  0  0  0
   36.1840   28.2770   35.2310 H   0  0  0  0  0  0  0  0  0  0  0  0
   35.9710   26.6670   34.5030 H   0  0  0  0  0  0  0  0  0  0  0  0
   37.0880   29.2190   33.3370 H   0  0  0  0  0  0  0  0  0  0  0  0
   35.8780   28.1020   32.6800 H   0  0  0  0  0  0  0  0  0  0  0  0
   37.6010   27.4530   31.3780 H   0  0  0  0  0  0  0  0  0  0  0  0
   38.8540   28.1400   32.4320 H   0  0  0  0  0  0  0  0  0  0  0  0
   39.2520   25.8540   32.3690 H   0  0  0  0  0  0  0  0  0  0  0  0
   38.9350   24.9080   34.9310 C   0  0  0  0  0  0  0  0  0  0  0  0
   38.1180   24.6230   36.0490 C   0  0  0  0  0  0  0  0  0  0  0  0
   38.2040   23.3320   36.5660 C   0  0  0  0  0  0  0  0  0  0  0  0
   39.0470   22.4300   35.9890 N   0  0  0  0  0  0  0  0  0  0  0  0
   39.8150   22.7500   34.9150 C   0  0  0  0  0  0  0  0  0  0  0  0
   39.7350   23.9620   34.4280 N   0  0  0  0  0  0  0  0  0  0  0  0
   37.4040   25.1090   36.6870 H   0  0  0  0  0  0  0  0  0  0  0  0
   37.7160   22.8550   37.3800 H   0  0  0  0  0  0  0  0  0  0  0  0
   40.4910   22.0510   34.4410 H   0  0  0  0  0  0  0  0  0  0  0  0
   37.3240   25.2650   32.6560 N   0  0  0  0  0  0  0  0  0  0  0  0
   36.7740   24.8620   33.4200 H   0  0  0  0  0  0  0  0  0  0  0  0
   37.5920   24.1910   31.3680 S   0  0  0  0  0  0  0  0  0  0  0  0
   37.6040   25.0370   30.1020 O   0  0  0  0  0  0  0  0  0  0  0  0
   37.2990   24.6410   29.2550 H   0  0  0  0  0  0  0  0  0  0  0  0
   38.9020   23.4690   31.4660 O   0  0  0  0  0  0  0  0  0  0  0  0
   39.2000   22.9630   32.2640 H   0  0  0  0  0  0  0  0  0  0  0  0
   36.3650   23.0780   31.1720 O   0  0  0  0  0  0  0  0  0  0  0  0
   36.0750   22.1220   32.1440 C   0  0  0  0  0  0  0  0  0  0  0  0
   35.1750   21.1300   32.4050 C   0  0  0  0  0  0  0  0  0  0  0  0
   34.4060   20.9920   31.6430 H   0  0  0  0  0  0  0  0  0  0  0  0
   35.4910   20.5390   33.6200 C   0  0  0  0  0  0  0  0  0  0  0  0
   34.8970   19.7390   33.9950 H   0  0  0  0  0  0  0  0  0  0  0  0
   36.5750   21.1980   34.0500 N   0  0  0  0  0  0  0  0  0  0  0  0
   37.0450   20.9600   34.9640 H   0  0  0  0  0  0  0  0  0  0  0  0
   36.9440   22.1400   33.1950 N   0  0  0  0  0  0  0  0  0  0  0  0
  1  7  1  6  0  0  0
  1 17  1  0  0  0  0
  1  2  1  0  0  0  0
  2  9  1  0  0  0  0
  2  8  1  0  0  0  0
  3 10  1  0  0  0  0
  3  2  1  0  0  0  0
  4 12  1  0  0  0  0
  4  3  1  0  0  0  0
  5 15  1  0  0  0  0
  5  6  1  0  0  0  0
  5  4  1  0  0  0  0
  6 16  1  6  0  0  0
  6  1  1  0  0  0  0
 11  3  1  0  0  0  0
 13  4  1  0  0  0  0
 14  5  1  0  0  0  0
 17 18  1  0  0  0  0
 18 19  2  0  0  0  0
 18 23  1  0  0  0  0
 19 24  1  0  0  0  0
 20 19  1  0  0  0  0
 21 20  2  0  0  0  0
 22 21  1  0  0  0  0
 22 17  2  0  0  0  0
 25 21  1  0  0  0  0
 26  6  1  0  0  0  0
 26 27  1  0  0  0  0
 28 31  1  0  0  0  0
 28 26  1  0  0  0  0
 29 28  1  0  0  0  0
 30 29  1  0  0  0  0
 31 32  1  0  0  0  0
 33 28  1  0  0  0  0
 33 34  1  0  0  0  0
 34 35  1  0  0  0  0
 34 41  2  0  0  0  0
 35 37  2  0  0  0  0
 36 35  1  0  0  0  0
 37 38  1  0  0  0  0
 37 39  1  0  0  0  0
 39 40  1  0  0  0  0
 41 39  1  0  0  0  0
M  END
>  <minimizedAffinity>
-4.97831964

$$$$

 OpenBabel03262521073D

 41 43  0  0  1  0  0  0  0  0999 V2000
   36.7520   25.0890   31.8760 C   0  0  2  0  0  0  0  0  0  0  0  0
   37.2610   25.9830   30.8130 C   0  0  0  0  0  0  0  0  0  0  0  0
   38.5140   26.7220   31.2310 C   0  0  0  0  0  0  0  0  0  0  0  0
   38.3400   27.5020   32.4980 C   0  0  0  0  0  0  0  0  0  0  0  0
   37.5050   26.7990   33.5330 C   0  0  0  0  0  0  0  0  0  0  0  0
   37.3650   25.3130   33.2210 C   0  0  2  0  0  0  0  0  0  0  0  0
   35.6390   25.2600   32.0010 H   0  0  0  0  0  0  0  0  0  0  0  0
   37.5120   25.5990   29.8420 H   0  0  0  0  0  0  0  0  0  0  0  0
   36.5150   26.8240   30.6000 H   0  0  0  0  0  0  0  0  0  0  0  0
   38.7370   27.4370   30.4120 H   0  0  0  0  0  0  0  0  0  0  0  0
   39.3890   26.0530   31.3230 H   0  0  0  0  0  0  0  0  0  0  0  0
   37.8390   28.4690   32.2610 H   0  0  0  0  0  0  0  0  0  0  0  0
   39.3340   27.7600   32.8960 H   0  0  0  0  0  0  0  0  0  0  0  0
   37.9500   26.9880   34.5000 H   0  0  0  0  0  0  0  0  0  0  0  0
   36.4710   27.2080   33.5420 H   0  0  0  0  0  0  0  0  0  0  0  0
   36.6190   24.9330   33.9800 H   0  0  0  0  0  0  0  0  0  0  0  0
   36.8820   23.6600   31.5570 C   0  0  0  0  0  0  0  0  0  0  0  0
   35.6870   22.9110   31.6580 C   0  0  0  0  0  0  0  0  0  0  0  0
   35.7770   21.5580   31.3370 C   0  0  0  0  0  0  0  0  0  0  0  0
   36.9740   21.0340   30.9510 N   0  0  0  0  0  0  0  0  0  0  0  0
   38.0980   21.7940   30.8700 C   0  0  0  0  0  0  0  0  0  0  0  0
   38.0160   23.0640   31.1710 N   0  0  0  0  0  0  0  0  0  0  0  0
   34.6570   23.0450   31.9280 H   0  0  0  0  0  0  0  0  0  0  0  0
   35.0540   20.7790   31.3240 H   0  0  0  0  0  0  0  0  0  0  0  0
   39.0580   21.3990   30.5680 H   0  0  0  0  0  0  0  0  0  0  0  0
   38.5920   24.7260   33.5160 N   0  0  0  0  0  0  0  0  0  0  0  0
   39.1200   24.2900   32.7540 H   0  0  0  0  0  0  0  0  0  0  0  0
   38.7310   23.9080   34.9990 S   0  0  0  0  0  0  0  0  0  0  0  0
   37.7350   24.5650   35.9440 O   0  0  0  0  0  0  0  0  0  0  0  0
   37.9300   24.5900   36.9080 H   0  0  0  0  0  0  0  0  0  0  0  0
   38.3990   22.4500   34.9000 O   0  0  0  0  0  0  0  0  0  0  0  0
   38.8090   21.8290   34.2460 H   0  0  0  0  0  0  0  0  0  0  0  0
   40.2310   24.0840   35.7080 O   0  0  0  0  0  0  0  0  0  0  0  0
   40.8870   23.0170   36.3200 C   0  0  0  0  0  0  0  0  0  0  0  0
   42.0530   22.3140   36.2350 C   0  0  0  0  0  0  0  0  0  0  0  0
   42.7380   22.6470   35.4530 H   0  0  0  0  0  0  0  0  0  0  0  0
   42.0570   21.3230   37.2070 C   0  0  0  0  0  0  0  0  0  0  0  0
   42.8910   20.6670   37.2980 H   0  0  0  0  0  0  0  0  0  0  0  0
   40.8880   21.4650   37.8450 N   0  0  0  0  0  0  0  0  0  0  0  0
   40.6120   20.8370   38.6470 H   0  0  0  0  0  0  0  0  0  0  0  0
   40.1740   22.4610   37.3410 N   0  0  0  0  0  0  0  0  0  0  0  0
  1  7  1  1  0  0  0
  1  6  1  0  0  0  0
  2  3  1  0  0  0  0
  2  1  1  0  0  0  0
  3 11  1  0  0  0  0
  3  4  1  0  0  0  0
  4 13  1  0  0  0  0
  4  5  1  0  0  0  0
  5 15  1  0  0  0  0
  5 14  1  0  0  0  0
  6 26  1  0  0  0  0
  6  5  1  0  0  0  0
  6 16  1  1  0  0  0
  8  2  1  0  0  0  0
  9  2  1  0  0  0  0
 10  3  1  0  0  0  0
 12  4  1  0  0  0  0
 17 18  1  0  0  0  0
 17  1  1  0  0  0  0
 18 23  1  0  0  0  0
 19 18  2  0  0  0  0
 20 19  1  0  0  0  0
 21 20  2  0  0  0  0
 21 22  1  0  0  0  0
 22 17  2  0  0  0  0
 24 19  1  0  0  0  0
 25 21  1  0  0  0  0
 26 28  1  0  0  0  0
 27 26  1  0  0  0  0
 28 33  1  0  0  0  0
 28 29  1  0  0  0  0
 29 30  1  0  0  0  0
 31 28  1  0  0  0  0
 32 31  1  0  0  0  0
 33 34  1  0  0  0  0
 34 41  2  0  0  0  0
 35 34  1  0  0  0  0
 35 37  2  0  0  0  0
 36 35  1  0  0  0  0
 37 38  1  0  0  0  0
 37 39  1  0  0  0  0
 39 40  1  0  0  0  0
 41 39  1  0  0  0  0
M  END
>  <minimizedAffinity>
-4.87151051

$$$$

 OpenBabel03262521073D

 41 43  0  0  1  0  0  0  0  0999 V2000
   36.8790   22.6110   31.1150 C   0  0  2  0  0  0  0  0  0  0  0  0
   35.5270   22.0140   31.1480 C   0  0  0  0  0  0  0  0  0  0  0  0
   35.2150   21.3660   32.4800 C   0  0  0  0  0  0  0  0  0  0  0  0
   36.2260   20.3360   32.8830 C   0  0  0  0  0  0  0  0  0  0  0  0
   37.6420   20.7140   32.5480 C   0  0  0  0  0  0  0  0  0  0  0  0
   37.7660   22.2030   32.2470 C   0  0  2  0  0  0  0  0  0  0  0  0
   37.4040   22.2840   30.1650 H   0  0  0  0  0  0  0  0  0  0  0  0
   34.6550   22.6090   30.9520 H   0  0  0  0  0  0  0  0  0  0  0  0
   35.4490   21.1460   30.4060 H   0  0  0  0  0  0  0  0  0  0  0  0
   34.2360   20.8590   32.3540 H   0  0  0  0  0  0  0  0  0  0  0  0
   35.0930   22.1050   33.2930 H   0  0  0  0  0  0  0  0  0  0  0  0
   35.9980   19.3810   32.3560 H   0  0  0  0  0  0  0  0  0  0  0  0
   36.1120   20.1280   33.9590 H   0  0  0  0  0  0  0  0  0  0  0  0
   38.2720   20.3940   33.3670 H   0  0  0  0  0  0  0  0  0  0  0  0
   37.9780   20.1870   31.6280 H   0  0  0  0  0  0  0  0  0  0  0  0
   38.8280   22.3320   31.8840 H   0  0  0  0  0  0  0  0  0  0  0  0
   36.8730   24.0800   31.0570 C   0  0  0  0  0  0  0  0  0  0  0  0
   35.5960   24.6790   31.1610 C   0  0  0  0  0  0  0  0  0  0  0  0
   35.5630   26.0710   31.1340 C   0  0  0  0  0  0  0  0  0  0  0  0
   36.7250   26.7720   31.0130 N   0  0  0  0  0  0  0  0  0  0  0  0
   37.9300   26.1520   30.9140 C   0  0  0  0  0  0  0  0  0  0  0  0
   37.9640   24.8450   30.9390 N   0  0  0  0  0  0  0  0  0  0  0  0
   34.5640   24.3970   31.2530 H   0  0  0  0  0  0  0  0  0  0  0  0
   34.7620   26.7670   31.1940 H   0  0  0  0  0  0  0  0  0  0  0  0
   38.8640   26.6870   30.8160 H   0  0  0  0  0  0  0  0  0  0  0  0
   37.6610   22.8670   33.4660 N   0  0  0  0  0  0  0  0  0  0  0  0
   36.8470   23.4670   33.6270 H   0  0  0  0  0  0  0  0  0  0  0  0
   39.0940   23.4600   34.1600 S   0  0  0  0  0  0  0  0  0  0  0  0
   39.8630   22.2440   34.6580 O   0  0  0  0  0  0  0  0  0  0  0  0
   40.4470   22.3320   35.4440 H   0  0  0  0  0  0  0  0  0  0  0  0
   39.9590   24.1980   33.1830 O   0  0  0  0  0  0  0  0  0  0  0  0
   39.6440   24.9450   32.6140 H   0  0  0  0  0  0  0  0  0  0  0  0
   38.8290   24.4220   35.4950 O   0  0  0  0  0  0  0  0  0  0  0  0
   38.3290   25.7180   35.3830 C   0  0  0  0  0  0  0  0  0  0  0  0
   38.4420   26.9420   35.9770 C   0  0  0  0  0  0  0  0  0  0  0  0
   39.1340   26.9850   36.8190 H   0  0  0  0  0  0  0  0  0  0  0  0
   37.6120   27.8410   35.3220 C   0  0  0  0  0  0  0  0  0  0  0  0
   37.5640   28.8550   35.6440 H   0  0  0  0  0  0  0  0  0  0  0  0
   37.0260   27.1250   34.3540 N   0  0  0  0  0  0  0  0  0  0  0  0
   36.3320   27.5550   33.6860 H   0  0  0  0  0  0  0  0  0  0  0  0
   37.4320   25.8640   34.3670 N   0  0  0  0  0  0  0  0  0  0  0  0
  1  7  1  6  0  0  0
  1  2  1  0  0  0  0
  1  6  1  0  0  0  0
  2  3  1  0  0  0  0
  3  4  1  0  0  0  0
  3 11  1  0  0  0  0
  4 13  1  0  0  0  0
  5  4  1  0  0  0  0
  5 14  1  0  0  0  0
  6 16  1  6  0  0  0
  6  5  1  0  0  0  0
  6 26  1  0  0  0  0
  8  2  1  0  0  0  0
  9  2  1  0  0  0  0
 10  3  1  0  0  0  0
 12  4  1  0  0  0  0
 15  5  1  0  0  0  0
 17  1  1  0  0  0  0
 17 18  1  0  0  0  0
 18 23  1  0  0  0  0
 19 18  2  0  0  0  0
 19 24  1  0  0  0  0
 20 19  1  0  0  0  0
 21 22  1  0  0  0  0
 21 20  2  0  0  0  0
 22 17  2  0  0  0  0
 25 21  1  0  0  0  0
 26 27  1  0  0  0  0
 26 28  1  0  0  0  0
 28 29  1  0  0  0  0
 28 33  1  0  0  0  0
 29 30  1  0  0  0  0
 31 28  1  0  0  0  0
 32 31  1  0  0  0  0
 34 33  1  0  0  0  0
 34 35  1  0  0  0  0
 35 36  1  0  0  0  0
 37 38  1  0  0  0  0
 37 35  2  0  0  0  0
 39 41  1  0  0  0  0
 39 37  1  0  0  0  0
 40 39  1  0  0  0  0
 41 34  2  0  0  0  0
M  END
>  <minimizedAffinity>
-4.85043144

$$$$

 OpenBabel03262521073D

 41 43  0  0  1  0  0  0  0  0999 V2000
   38.6050   26.3780   34.6140 C   0  0  2  0  0  0  0  0  0  0  0  0
   37.8690   27.4700   35.2880 C   0  0  0  0  0  0  0  0  0  0  0  0
   36.6120   27.8650   34.5430 C   0  0  0  0  0  0  0  0  0  0  0  0
   36.8700   28.2430   33.1170 C   0  0  0  0  0  0  0  0  0  0  0  0
   37.9030   27.3860   32.4390 C   0  0  0  0  0  0  0  0  0  0  0  0
   38.1550   26.0980   33.2160 C   0  0  2  0  0  0  0  0  0  0  0  0
   39.7010   26.6580   34.5460 H   0  0  0  0  0  0  0  0  0  0  0  0
   37.5340   27.3650   36.3030 H   0  0  0  0  0  0  0  0  0  0  0  0
   38.4880   28.4320   35.2930 H   0  0  0  0  0  0  0  0  0  0  0  0
   36.2090   28.7540   35.0700 H   0  0  0  0  0  0  0  0  0  0  0  0
   35.8320   27.0840   34.5850 H   0  0  0  0  0  0  0  0  0  0  0  0
   37.2310   29.2970   33.0820 H   0  0  0  0  0  0  0  0  0  0  0  0
   35.9150   28.2270   32.5660 H   0  0  0  0  0  0  0  0  0  0  0  0
   37.5720   27.2100   31.4250 H   0  0  0  0  0  0  0  0  0  0  0  0
   38.8800   27.9140   32.3970 H   0  0  0  0  0  0  0  0  0  0  0  0
   39.0300   25.6160   32.6880 H   0  0  0  0  0  0  0  0  0  0  0  0
   38.5840   25.1090   35.3540 C   0  0  0  0  0  0  0  0  0  0  0  0
   38.1100   25.1970   36.6830 C   0  0  0  0  0  0  0  0  0  0  0  0
   38.0550   24.0040   37.4010 C   0  0  0  0  0  0  0  0  0  0  0  0
   38.4490   22.8420   36.8080 N   0  0  0  0  0  0  0  0  0  0  0  0
   38.9000   22.8060   35.5270 C   0  0  0  0  0  0  0  0  0  0  0  0
   38.9520   23.9250   34.8510 N   0  0  0  0  0  0  0  0  0  0  0  0
   37.7580   25.9340   37.3800 H   0  0  0  0  0  0  0  0  0  0  0  0
   37.7460   23.7820   38.3930 H   0  0  0  0  0  0  0  0  0  0  0  0
   39.2180   21.8960   35.0370 H   0  0  0  0  0  0  0  0  0  0  0  0
   37.0460   25.2830   33.0080 N   0  0  0  0  0  0  0  0  0  0  0  0
   36.6120   24.8350   33.8190 H   0  0  0  0  0  0  0  0  0  0  0  0
   37.0340   24.3210   31.6080 S   0  0  0  0  0  0  0  0  0  0  0  0
   36.3160   23.0310   31.9820 O   0  0  0  0  0  0  0  0  0  0  0  0
   36.5640   22.1940   31.5310 H   0  0  0  0  0  0  0  0  0  0  0  0
   36.3020   24.9550   30.4640 O   0  0  0  0  0  0  0  0  0  0  0  0
   36.4840   25.8680   30.1240 H   0  0  0  0  0  0  0  0  0  0  0  0
   38.5600   23.8740   31.1040 O   0  0  0  0  0  0  0  0  0  0  0  0
   39.0180   24.1400   29.8140 C   0  0  0  0  0  0  0  0  0  0  0  0
   39.4020   23.4840   28.6810 C   0  0  0  0  0  0  0  0  0  0  0  0
   39.3590   22.3950   28.7400 H   0  0  0  0  0  0  0  0  0  0  0  0
   39.7600   24.4160   27.7170 C   0  0  0  0  0  0  0  0  0  0  0  0
   40.0900   24.0930   26.7580 H   0  0  0  0  0  0  0  0  0  0  0  0
   39.5770   25.6050   28.3060 N   0  0  0  0  0  0  0  0  0  0  0  0
   39.7730   26.5110   27.8020 H   0  0  0  0  0  0  0  0  0  0  0  0
   39.1380   25.4720   29.5490 N   0  0  0  0  0  0  0  0  0  0  0  0
  1  7  1  6  0  0  0
  1  2  1  0  0  0  0
  1 17  1  0  0  0  0
  2  9  1  0  0  0  0
  2  8  1  0  0  0  0
  3 11  1  0  0  0  0
  3 10  1  0  0  0  0
  3  2  1  0  0  0  0
  4  3  1  0  0  0  0
  5  4  1  0  0  0  0
  5  6  1  0  0  0  0
  6 16  1  6  0  0  0
  6  1  1  0  0  0  0
 12  4  1  0  0  0  0
 13  4  1  0  0  0  0
 14  5  1  0  0  0  0
 15  5  1  0  0  0  0
 17 18  1  0  0  0  0
 18 23  1  0  0  0  0
 18 19  2  0  0  0  0
 19 24  1  0  0  0  0
 20 19  1  0  0  0  0
 21 20  2  0  0  0  0
 22 17  2  0  0  0  0
 22 21  1  0  0  0  0
 25 21  1  0  0  0  0
 26  6  1  0  0  0  0
 26 27  1  0  0  0  0
 28 29  1  0  0  0  0
 28 26  1  0  0  0  0
 30 29  1  0  0  0  0
 31 28  1  0  0  0  0
 32 31  1  0  0  0  0
 33 28  1  0  0  0  0
 34 33  1  0  0  0  0
 35 36  1  0  0  0  0
 35 34  1  0  0  0  0
 37 39  1  0  0  0  0
 37 35  2  0  0  0  0
 38 37  1  0  0  0  0
 39 41  1  0  0  0  0
 40 39  1  0  0  0  0
 41 34  2  0  0  0  0
M  END
>  <minimizedAffinity>
-4.81821966

$$$$

 OpenBabel03262521073D

 41 43  0  0  1  0  0  0  0  0999 V2000
   39.1090   27.1090   32.7410 C   0  0  2  0  0  0  0  0  0  0  0  0
   39.5810   27.1300   34.1430 C   0  0  0  0  0  0  0  0  0  0  0  0
   38.5600   26.5590   35.1040 C   0  0  0  0  0  0  0  0  0  0  0  0
   37.2270   27.2380   35.0160 C   0  0  0  0  0  0  0  0  0  0  0  0
   36.8180   27.5900   33.6130 C   0  0  0  0  0  0  0  0  0  0  0  0
   37.6480   26.8320   32.5830 C   0  0  2  0  0  0  0  0  0  0  0  0
   39.2930   28.1250   32.2750 H   0  0  0  0  0  0  0  0  0  0  0  0
   40.4910   26.6360   34.4270 H   0  0  0  0  0  0  0  0  0  0  0  0
   39.7170   28.2060   34.5090 H   0  0  0  0  0  0  0  0  0  0  0  0
   38.9680   26.7280   36.1220 H   0  0  0  0  0  0  0  0  0  0  0  0
   38.4300   25.4680   34.9860 H   0  0  0  0  0  0  0  0  0  0  0  0
   37.2640   28.1840   35.6040 H   0  0  0  0  0  0  0  0  0  0  0  0
   36.4710   26.6010   35.5040 H   0  0  0  0  0  0  0  0  0  0  0  0
   35.7570   27.4030   33.5210 H   0  0  0  0  0  0  0  0  0  0  0  0
   36.9970   28.6700   33.4150 H   0  0  0  0  0  0  0  0  0  0  0  0
   37.3440   27.2770   31.5900 H   0  0  0  0  0  0  0  0  0  0  0  0
   39.8400   26.1620   31.8880 C   0  0  0  0  0  0  0  0  0  0  0  0
   40.3490   26.7070   30.6860 C   0  0  0  0  0  0  0  0  0  0  0  0
   41.0690   25.8370   29.8700 C   0  0  0  0  0  0  0  0  0  0  0  0
   41.2440   24.5410   30.2530 N   0  0  0  0  0  0  0  0  0  0  0  0
   40.7330   24.0620   31.4180 C   0  0  0  0  0  0  0  0  0  0  0  0
   40.0580   24.8760   32.1860 N   0  0  0  0  0  0  0  0  0  0  0  0
   40.3610   27.6360   30.1480 H   0  0  0  0  0  0  0  0  0  0  0  0
   41.5530   25.9740   28.9340 H   0  0  0  0  0  0  0  0  0  0  0  0
   40.8590   23.0380   31.7410 H   0  0  0  0  0  0  0  0  0  0  0  0
   37.2000   25.5140   32.6000 N   0  0  0  0  0  0  0  0  0  0  0  0
   37.7500   24.8190   33.1120 H   0  0  0  0  0  0  0  0  0  0  0  0
   36.4860   24.9120   31.1820 S   0  0  0  0  0  0  0  0  0  0  0  0
   35.7580   26.0840   30.5380 O   0  0  0  0  0  0  0  0  0  0  0  0
   34.9490   25.9150   30.0060 H   0  0  0  0  0  0  0  0  0  0  0  0
   37.4860   24.3800   30.2000 O   0  0  0  0  0  0  0  0  0  0  0  0
   38.1810   23.7090   30.4210 H   0  0  0  0  0  0  0  0  0  0  0  0
   35.3280   23.7470   31.4710 O   0  0  0  0  0  0  0  0  0  0  0  0
   35.6580   22.4830   31.9570 C   0  0  0  0  0  0  0  0  0  0  0  0
   35.1140   21.2410   32.1070 C   0  0  0  0  0  0  0  0  0  0  0  0
   34.0880   21.1390   31.7480 H   0  0  0  0  0  0  0  0  0  0  0  0
   36.0500   20.4050   32.6990 C   0  0  0  0  0  0  0  0  0  0  0  0
   35.8060   19.3870   32.8980 H   0  0  0  0  0  0  0  0  0  0  0  0
   37.1280   21.1750   32.8870 N   0  0  0  0  0  0  0  0  0  0  0  0
   38.0100   20.8000   33.3280 H   0  0  0  0  0  0  0  0  0  0  0  0
   36.9250   22.4120   32.4570 N   0  0  0  0  0  0  0  0  0  0  0  0
  1  7  1  6  0  0  0
  1  2  1  0  0  0  0
  2  8  1  0  0  0  0
  2  9  1  0  0  0  0
  2  3  1  0  0  0  0
  3 10  1  0  0  0  0
  4  3  1  0  0  0  0
  4 13  1  0  0  0  0
  4 12  1  0  0  0  0
  5  4  1  0  0  0  0
  6 16  1  6  0  0  0
  6 26  1  0  0  0  0
  6  1  1  0  0  0  0
  6  5  1  0  0  0  0
 11  3  1  0  0  0  0
 14  5  1  0  0  0  0
 15  5  1  0  0  0  0
 17 22  1  0  0  0  0
 17  1  1  0  0  0  0
 18 17  2  0  0  0  0
 19 20  2  0  0  0  0
 19 18  1  0  0  0  0
 20 21  1  0  0  0  0
 21 25  1  0  0  0  0
 21 22  2  0  0  0  0
 23 18  1  0  0  0  0
 24 19  1  0  0  0  0
 26 27  1  0  0  0  0
 28 33  1  0  0  0  0
 28 26  1  0  0  0  0
 29 28  1  0  0  0  0
 30 29  1  0  0  0  0
 31 32  1  0  0  0  0
 31 28  1  0  0  0  0
 33 34  1  0  0  0  0
 34 35  1  0  0  0  0
 34 41  2  0  0  0  0
 35 37  2  0  0  0  0
 36 35  1  0  0  0  0
 37 39  1  0  0  0  0
 37 38  1  0  0  0  0
 39 40  1  0  0  0  0
 41 39  1  0  0  0  0
M  END
>  <minimizedAffinity>
-4.73688841

$$$$

 OpenBabel03262521073D

 41 43  0  0  1  0  0  0  0  0999 V2000
   39.8310   26.3100   34.9280 C   0  0  2  0  0  0  0  0  0  0  0  0
   41.1360   26.7180   34.3630 C   0  0  0  0  0  0  0  0  0  0  0  0
   41.8300   25.5870   33.6370 C   0  0  0  0  0  0  0  0  0  0  0  0
   42.0140   24.3680   34.4880 C   0  0  0  0  0  0  0  0  0  0  0  0
   40.8450   24.0740   35.3870 C   0  0  0  0  0  0  0  0  0  0  0  0
   39.5980   24.8330   34.9460 C   0  0  2  0  0  0  0  0  0  0  0  0
   39.7690   26.6550   36.0050 H   0  0  0  0  0  0  0  0  0  0  0  0
   41.2060   27.5370   33.6720 H   0  0  0  0  0  0  0  0  0  0  0  0
   41.8700   26.9890   35.1980 H   0  0  0  0  0  0  0  0  0  0  0  0
   42.8340   25.9700   33.3590 H   0  0  0  0  0  0  0  0  0  0  0  0
   41.3190   25.3100   32.6970 H   0  0  0  0  0  0  0  0  0  0  0  0
   42.9100   24.5120   35.1370 H   0  0  0  0  0  0  0  0  0  0  0  0
   42.2420   23.5100   33.8360 H   0  0  0  0  0  0  0  0  0  0  0  0
   40.7030   23.0020   35.4040 H   0  0  0  0  0  0  0  0  0  0  0  0
   41.0570   24.4120   36.4250 H   0  0  0  0  0  0  0  0  0  0  0  0
   38.8430   24.6380   35.7630 H   0  0  0  0  0  0  0  0  0  0  0  0
   38.6800   26.9360   34.2630 C   0  0  0  0  0  0  0  0  0  0  0  0
   37.6740   27.4180   35.1320 C   0  0  0  0  0  0  0  0  0  0  0  0
   36.5820   28.0400   34.5300 C   0  0  0  0  0  0  0  0  0  0  0  0
   36.5330   28.1520   33.1720 N   0  0  0  0  0  0  0  0  0  0  0  0
   37.5240   27.6710   32.3770 C   0  0  0  0  0  0  0  0  0  0  0  0
   38.5510   27.0880   32.9400 N   0  0  0  0  0  0  0  0  0  0  0  0
   37.4490   27.4620   36.1810 H   0  0  0  0  0  0  0  0  0  0  0  0
   35.7040   28.4850   34.9300 H   0  0  0  0  0  0  0  0  0  0  0  0
   37.5070   27.7480   31.2980 H   0  0  0  0  0  0  0  0  0  0  0  0
   39.1340   24.2030   33.7950 N   0  0  0  0  0  0  0  0  0  0  0  0
   38.8560   24.7840   32.9990 H   0  0  0  0  0  0  0  0  0  0  0  0
   38.1740   22.8160   33.9950 S   0  0  0  0  0  0  0  0  0  0  0  0
   39.0620   21.6280   33.6500 O   0  0  0  0  0  0  0  0  0  0  0  0
   38.6560   20.8190   33.2660 H   0  0  0  0  0  0  0  0  0  0  0  0
   37.6760   22.6420   35.3980 O   0  0  0  0  0  0  0  0  0  0  0  0
   37.1940   23.3410   35.9080 H   0  0  0  0  0  0  0  0  0  0  0  0
   36.8820   22.7520   32.9420 O   0  0  0  0  0  0  0  0  0  0  0  0
   36.1510   21.5830   32.7410 C   0  0  0  0  0  0  0  0  0  0  0  0
   35.4660   20.9290   31.7580 C   0  0  0  0  0  0  0  0  0  0  0  0
   35.4470   21.4360   30.7920 H   0  0  0  0  0  0  0  0  0  0  0  0
   34.9550   19.7460   32.2720 C   0  0  0  0  0  0  0  0  0  0  0  0
   34.3860   19.0950   31.6500 H   0  0  0  0  0  0  0  0  0  0  0  0
   35.3520   19.7280   33.5510 N   0  0  0  0  0  0  0  0  0  0  0  0
   35.1050   18.9330   34.1990 H   0  0  0  0  0  0  0  0  0  0  0  0
   36.0630   20.8030   33.8560 N   0  0  0  0  0  0  0  0  0  0  0  0
  1  6  1  0  0  0  0
  1  7  1  1  0  0  0
  2  1  1  0  0  0  0
  2  9  1  0  0  0  0
  3  2  1  0  0  0  0
  3  4  1  0  0  0  0
  4 12  1  0  0  0  0
  4  5  1  0  0  0  0
  5 14  1  0  0  0  0
  5 15  1  0  0  0  0
  6  5  1  0  0  0  0
  6 16  1  1  0  0  0
  8  2  1  0  0  0  0
 10  3  1  0  0  0  0
 11  3  1  0  0  0  0
 13  4  1  0  0  0  0
 17  1  1  0  0  0  0
 17 18  1  0  0  0  0
 18 23  1  0  0  0  0
 19 24  1  0  0  0  0
 19 18  2  0  0  0  0
 20 19  1  0  0  0  0
 21 22  1  0  0  0  0
 21 20  2  0  0  0  0
 22 17  2  0  0  0  0
 25 21  1  0  0  0  0
 26 28  1  0  0  0  0
 26  6  1  0  0  0  0
 27 26  1  0  0  0  0
 28 31  1  0  0  0  0
 29 28  1  0  0  0  0
 30 29  1  0  0  0  0
 31 32  1  0  0  0  0
 33 28  1  0  0  0  0
 34 33  1  0  0  0  0
 34 41  2  0  0  0  0
 35 37  2  0  0  0  0
 35 34  1  0  0  0  0
 36 35  1  0  0  0  0
 37 39  1  0  0  0  0
 38 37  1  0  0  0  0
 39 41  1  0  0  0  0
 39 40  1  0  0  0  0
M  END
>  <minimizedAffinity>
-4.73420048

$$$$
