
 OpenBabel03272510113D

 27 29  0  0  0  0  0  0  0  0999 V2000
   36.9900   27.5720   34.1610 C   0  0  0  0  0  0  0  0  0  0  0  0
   37.7470   27.6920   35.2830 C   0  0  0  0  0  0  0  0  0  0  0  0
   38.5260   26.6830   35.8110 C   0  0  0  0  0  0  0  0  0  0  0  0
   38.5700   25.4660   35.2000 C   0  0  0  0  0  0  0  0  0  0  0  0
   37.7930   25.3420   34.0470 C   0  0  0  0  0  0  0  0  0  0  0  0
   37.0460   26.3550   33.5650 N   0  0  0  0  0  0  0  0  0  0  0  0
   37.7600   28.6360   35.8240 H   0  0  0  0  0  0  0  0  0  0  0  0
   39.1330   26.7740   36.7080 H   0  0  0  0  0  0  0  0  0  0  0  0
   37.7630   24.4020   33.4850 H   0  0  0  0  0  0  0  0  0  0  0  0
   35.5610   29.6240   34.4010 C   0  0  0  0  0  0  0  0  0  0  0  0
   36.1770   28.6270   33.6120 C   0  0  0  0  0  0  0  0  0  0  0  0
   35.9710   28.6930   32.2510 C   0  0  0  0  0  0  0  0  0  0  0  0
   35.2010   29.6920   31.7290 N   0  0  0  0  0  0  0  0  0  0  0  0
   34.6340   30.6230   32.5350 C   0  0  0  0  0  0  0  0  0  0  0  0
   34.8080   30.5970   33.8670 N   0  0  0  0  0  0  0  0  0  0  0  0
   35.7230   29.5730   35.4730 H   0  0  0  0  0  0  0  0  0  0  0  0
   36.4320   27.9400   31.6110 H   0  0  0  0  0  0  0  0  0  0  0  0
   34.0410   31.3710   32.0110 H   0  0  0  0  0  0  0  0  0  0  0  0
   39.2920   24.3370   35.5800 O   0  0  0  0  0  0  0  0  0  0  0  0
   39.1000   23.7110   36.8040 C   0  0  0  0  0  0  0  0  0  0  0  0
   37.7970   23.8490   37.2950 C   0  0  0  0  0  0  0  0  0  0  0  0
   36.8790   24.3240   36.9630 H   0  0  0  0  0  0  0  0  0  0  0  0
   37.7330   23.1850   38.5140 C   0  0  0  0  0  0  0  0  0  0  0  0
   36.9600   23.0180   39.2460 H   0  0  0  0  0  0  0  0  0  0  0  0
   38.9680   22.6790   38.7200 N   0  0  0  0  0  0  0  0  0  0  0  0
   39.4380   22.1150   39.4600 H   0  0  0  0  0  0  0  0  0  0  0  0
   39.7610   22.9920   37.7140 N   0  0  0  0  0  0  0  0  0  0  0  0
  1  2  1  0  0  0  0
  2  3  2  0  0  0  0
  2  7  1  0  0  0  0
  3  8  1  0  0  0  0
  4 19  1  0  0  0  0
  4  3  1  0  0  0  0
  5  4  2  0  0  0  0
  6  5  1  0  0  0  0
  6  1  2  0  0  0  0
  9  5  1  0  0  0  0
 10 16  1  0  0  0  0
 11  1  1  0  0  0  0
 11 10  2  0  0  0  0
 12 11  1  0  0  0  0
 13 12  2  0  0  0  0
 13 14  1  0  0  0  0
 14 15  2  0  0  0  0
 15 10  1  0  0  0  0
 17 12  1  0  0  0  0
 18 14  1  0  0  0  0
 19 20  1  0  0  0  0
 20 21  1  0  0  0  0
 20 27  2  0  0  0  0
 21 23  2  0  0  0  0
 22 21  1  0  0  0  0
 23 25  1  0  0  0  0
 23 24  1  0  0  0  0
 25 26  1  0  0  0  0
 27 25  1  0  0  0  0
M  END
>  <minimizedAffinity>
-5.24358416

$$$$

 OpenBabel03272510113D

 27 29  0  0  0  0  0  0  0  0999 V2000
   38.3820   25.3680   35.3880 C   0  0  0  0  0  0  0  0  0  0  0  0
   38.1850   26.6400   35.8220 C   0  0  0  0  0  0  0  0  0  0  0  0
   37.4960   27.6070   35.1200 C   0  0  0  0  0  0  0  0  0  0  0  0
   36.9600   27.3120   33.9030 C   0  0  0  0  0  0  0  0  0  0  0  0
   37.1620   26.0050   33.4560 C   0  0  0  0  0  0  0  0  0  0  0  0
   37.8420   25.0910   34.1750 N   0  0  0  0  0  0  0  0  0  0  0  0
   38.5860   26.9460   36.7870 H   0  0  0  0  0  0  0  0  0  0  0  0
   37.3360   28.6250   35.4640 H   0  0  0  0  0  0  0  0  0  0  0  0
   36.7680   25.6730   32.4890 H   0  0  0  0  0  0  0  0  0  0  0  0
   40.3120   23.7840   35.6720 C   0  0  0  0  0  0  0  0  0  0  0  0
   39.1020   24.3590   36.1220 C   0  0  0  0  0  0  0  0  0  0  0  0
   38.6120   23.9120   37.3310 C   0  0  0  0  0  0  0  0  0  0  0  0
   39.2940   22.9580   38.0280 N   0  0  0  0  0  0  0  0  0  0  0  0
   40.4500   22.4410   37.5470 C   0  0  0  0  0  0  0  0  0  0  0  0
   40.9650   22.8460   36.3750 N   0  0  0  0  0  0  0  0  0  0  0  0
   40.7000   24.1360   34.7210 H   0  0  0  0  0  0  0  0  0  0  0  0
   37.6810   24.3350   37.7100 H   0  0  0  0  0  0  0  0  0  0  0  0
   40.9070   21.6860   38.1860 H   0  0  0  0  0  0  0  0  0  0  0  0
   36.2380   28.1490   33.0550 O   0  0  0  0  0  0  0  0  0  0  0  0
   36.4240   28.1510   31.6800 C   0  0  0  0  0  0  0  0  0  0  0  0
   36.9430   29.3580   31.1970 C   0  0  0  0  0  0  0  0  0  0  0  0
   37.2440   30.3090   31.6220 H   0  0  0  0  0  0  0  0  0  0  0  0
   37.0820   29.2350   29.8190 C   0  0  0  0  0  0  0  0  0  0  0  0
   37.4320   29.8830   29.0330 H   0  0  0  0  0  0  0  0  0  0  0  0
   36.6550   27.9900   29.5180 N   0  0  0  0  0  0  0  0  0  0  0  0
   36.5550   27.4160   28.6540 H   0  0  0  0  0  0  0  0  0  0  0  0
   36.2720   27.3630   30.6130 N   0  0  0  0  0  0  0  0  0  0  0  0
  1  2  1  0  0  0  0
  1 11  1  0  0  0  0
  2  7  1  0  0  0  0
  3  8  1  0  0  0  0
  3  2  2  0  0  0  0
  4  3  1  0  0  0  0
  5  4  2  0  0  0  0
  5  6  1  0  0  0  0
  6  1  2  0  0  0  0
  9  5  1  0  0  0  0
 10 11  2  0  0  0  0
 10 15  1  0  0  0  0
 11 12  1  0  0  0  0
 12 17  1  0  0  0  0
 12 13  2  0  0  0  0
 14 13  1  0  0  0  0
 14 18  1  0  0  0  0
 15 14  2  0  0  0  0
 16 10  1  0  0  0  0
 19  4  1  0  0  0  0
 20 19  1  0  0  0  0
 21 22  1  0  0  0  0
 21 20  1  0  0  0  0
 23 21  2  0  0  0  0
 24 23  1  0  0  0  0
 25 23  1  0  0  0  0
 25 27  1  0  0  0  0
 26 25  1  0  0  0  0
 27 20  2  0  0  0  0
M  END
>  <minimizedAffinity>
-5.0920248

$$$$

 OpenBabel03272510113D

 27 29  0  0  0  0  0  0  0  0999 V2000
   36.9240   27.1800   33.8510 C   0  0  0  0  0  0  0  0  0  0  0  0
   37.3740   26.9760   35.1170 C   0  0  0  0  0  0  0  0  0  0  0  0
   37.9770   25.8160   35.5540 C   0  0  0  0  0  0  0  0  0  0  0  0
   38.1570   24.7760   34.6930 C   0  0  0  0  0  0  0  0  0  0  0  0
   37.6950   24.9840   33.3920 C   0  0  0  0  0  0  0  0  0  0  0  0
   37.1100   26.1340   33.0060 N   0  0  0  0  0  0  0  0  0  0  0  0
   37.2640   27.7650   35.8580 H   0  0  0  0  0  0  0  0  0  0  0  0
   38.3390   25.6490   36.5650 H   0  0  0  0  0  0  0  0  0  0  0  0
   37.7950   24.2050   32.6270 H   0  0  0  0  0  0  0  0  0  0  0  0
   36.1630   28.7370   32.0320 C   0  0  0  0  0  0  0  0  0  0  0  0
   36.2930   28.3920   33.3960 C   0  0  0  0  0  0  0  0  0  0  0  0
   35.7800   29.2820   34.3150 C   0  0  0  0  0  0  0  0  0  0  0  0
   35.1810   30.4310   33.8870 N   0  0  0  0  0  0  0  0  0  0  0  0
   35.0850   30.7110   32.5640 C   0  0  0  0  0  0  0  0  0  0  0  0
   35.5700   29.8730   31.6330 N   0  0  0  0  0  0  0  0  0  0  0  0
   36.5660   28.0370   31.3070 H   0  0  0  0  0  0  0  0  0  0  0  0
   35.8620   29.0480   35.3780 H   0  0  0  0  0  0  0  0  0  0  0  0
   34.5890   31.6540   32.3370 H   0  0  0  0  0  0  0  0  0  0  0  0
   38.7410   23.5370   34.9490 O   0  0  0  0  0  0  0  0  0  0  0  0
   39.1310   23.1500   36.2230 C   0  0  0  0  0  0  0  0  0  0  0  0
   40.4220   22.6110   36.2630 C   0  0  0  0  0  0  0  0  0  0  0  0
   41.2130   22.4140   35.5470 H   0  0  0  0  0  0  0  0  0  0  0  0
   40.6940   22.2650   37.5820 C   0  0  0  0  0  0  0  0  0  0  0  0
   41.5360   21.8290   38.0910 H   0  0  0  0  0  0  0  0  0  0  0  0
   39.5880   22.5960   38.2810 N   0  0  0  0  0  0  0  0  0  0  0  0
   39.2820   22.5450   39.2770 H   0  0  0  0  0  0  0  0  0  0  0  0
   38.6780   23.1130   37.4780 N   0  0  0  0  0  0  0  0  0  0  0  0
  1  2  1  0  0  0  0
  2  3  2  0  0  0  0
  2  7  1  0  0  0  0
  3  8  1  0  0  0  0
  4 19  1  0  0  0  0
  4  3  1  0  0  0  0
  5  4  2  0  0  0  0
  6  5  1  0  0  0  0
  6  1  2  0  0  0  0
  9  5  1  0  0  0  0
 10 11  1  0  0  0  0
 11  1  1  0  0  0  0
 11 12  2  0  0  0  0
 12 17  1  0  0  0  0
 13 12  1  0  0  0  0
 14 13  2  0  0  0  0
 15 10  2  0  0  0  0
 15 14  1  0  0  0  0
 16 10  1  0  0  0  0
 18 14  1  0  0  0  0
 19 20  1  0  0  0  0
 20 21  1  0  0  0  0
 20 27  2  0  0  0  0
 21 23  2  0  0  0  0
 22 21  1  0  0  0  0
 23 24  1  0  0  0  0
 23 25  1  0  0  0  0
 25 26  1  0  0  0  0
 27 25  1  0  0  0  0
M  END
>  <minimizedAffinity>
-4.96231699

$$$$

 OpenBabel03272510113D

 27 29  0  0  0  0  0  0  0  0999 V2000
   38.3090   27.4030   32.5010 C   0  0  0  0  0  0  0  0  0  0  0  0
   39.4570   27.0750   33.1490 C   0  0  0  0  0  0  0  0  0  0  0  0
   39.5190   26.6440   34.4580 C   0  0  0  0  0  0  0  0  0  0  0  0
   38.3760   26.5260   35.1900 C   0  0  0  0  0  0  0  0  0  0  0  0
   37.1960   26.8630   34.5250 C   0  0  0  0  0  0  0  0  0  0  0  0
   37.1810   27.2800   33.2440 N   0  0  0  0  0  0  0  0  0  0  0  0
   40.4080   27.1450   32.6250 H   0  0  0  0  0  0  0  0  0  0  0  0
   40.4340   26.3800   34.9800 H   0  0  0  0  0  0  0  0  0  0  0  0
   36.2260   26.8000   35.0310 H   0  0  0  0  0  0  0  0  0  0  0  0
   37.0920   28.4260   30.5550 C   0  0  0  0  0  0  0  0  0  0  0  0
   38.2470   27.8530   31.1340 C   0  0  0  0  0  0  0  0  0  0  0  0
   39.3550   27.7330   30.3230 C   0  0  0  0  0  0  0  0  0  0  0  0
   39.2980   28.1590   29.0280 N   0  0  0  0  0  0  0  0  0  0  0  0
   38.1620   28.7010   28.5260 C   0  0  0  0  0  0  0  0  0  0  0  0
   37.0580   28.8380   29.2790 N   0  0  0  0  0  0  0  0  0  0  0  0
   36.2180   28.5220   31.1920 H   0  0  0  0  0  0  0  0  0  0  0  0
   40.2650   27.2970   30.7360 H   0  0  0  0  0  0  0  0  0  0  0  0
   38.2300   29.0050   27.4820 H   0  0  0  0  0  0  0  0  0  0  0  0
   38.2410   26.1110   36.5130 O   0  0  0  0  0  0  0  0  0  0  0  0
   38.0590   24.7790   36.8590 C   0  0  0  0  0  0  0  0  0  0  0  0
   38.0270   24.5690   38.2420 C   0  0  0  0  0  0  0  0  0  0  0  0
   38.1070   25.1840   39.1320 H   0  0  0  0  0  0  0  0  0  0  0  0
   37.8420   23.2080   38.4570 C   0  0  0  0  0  0  0  0  0  0  0  0
   37.7550   22.5850   39.3310 H   0  0  0  0  0  0  0  0  0  0  0  0
   37.7700   22.6500   37.2290 N   0  0  0  0  0  0  0  0  0  0  0  0
   37.6410   21.6910   36.8440 H   0  0  0  0  0  0  0  0  0  0  0  0
   37.8980   23.5770   36.3000 N   0  0  0  0  0  0  0  0  0  0  0  0
  1  2  2  0  0  0  0
  1  6  1  0  0  0  0
  2  3  1  0  0  0  0
  3  8  1  0  0  0  0
  3  4  2  0  0  0  0
  4 19  1  0  0  0  0
  5  9  1  0  0  0  0
  5  4  1  0  0  0  0
  6  5  2  0  0  0  0
  7  2  1  0  0  0  0
 10 11  1  0  0  0  0
 10 16  1  0  0  0  0
 11  1  1  0  0  0  0
 12 17  1  0  0  0  0
 12 11  2  0  0  0  0
 13 12  1  0  0  0  0
 14 13  2  0  0  0  0
 14 15  1  0  0  0  0
 15 10  2  0  0  0  0
 18 14  1  0  0  0  0
 19 20  1  0  0  0  0
 20 21  1  0  0  0  0
 21 23  2  0  0  0  0
 21 22  1  0  0  0  0
 23 24  1  0  0  0  0
 25 23  1  0  0  0  0
 26 25  1  0  0  0  0
 27 20  2  0  0  0  0
 27 25  1  0  0  0  0
M  END
>  <minimizedAffinity>
-4.79893255

$$$$

 OpenBabel03272510113D

 27 29  0  0  0  0  0  0  0  0999 V2000
   38.5800   26.6850   32.9400 C   0  0  0  0  0  0  0  0  0  0  0  0
   39.3650   27.0310   33.9940 C   0  0  0  0  0  0  0  0  0  0  0  0
   39.9190   26.1320   34.8820 C   0  0  0  0  0  0  0  0  0  0  0  0
   39.6910   24.7980   34.7320 C   0  0  0  0  0  0  0  0  0  0  0  0
   38.8840   24.4420   33.6500 C   0  0  0  0  0  0  0  0  0  0  0  0
   38.3620   25.3530   32.8060 N   0  0  0  0  0  0  0  0  0  0  0  0
   39.5900   28.0800   34.1750 H   0  0  0  0  0  0  0  0  0  0  0  0
   40.5480   26.4040   35.7250 H   0  0  0  0  0  0  0  0  0  0  0  0
   38.6440   23.3930   33.4460 H   0  0  0  0  0  0  0  0  0  0  0  0
   38.5600   27.9160   30.7500 C   0  0  0  0  0  0  0  0  0  0  0  0
   38.0010   27.6250   32.0150 C   0  0  0  0  0  0  0  0  0  0  0  0
   36.8420   28.2920   32.3510 C   0  0  0  0  0  0  0  0  0  0  0  0
   36.2930   29.1820   31.4750 N   0  0  0  0  0  0  0  0  0  0  0  0
   36.8730   29.4210   30.2740 C   0  0  0  0  0  0  0  0  0  0  0  0
   38.0020   28.7950   29.9040 N   0  0  0  0  0  0  0  0  0  0  0  0
   39.4720   27.3910   30.4830 H   0  0  0  0  0  0  0  0  0  0  0  0
   36.3820   28.0920   33.3200 H   0  0  0  0  0  0  0  0  0  0  0  0
   36.3490   30.1500   29.6570 H   0  0  0  0  0  0  0  0  0  0  0  0
   40.1610   23.7500   35.5200 O   0  0  0  0  0  0  0  0  0  0  0  0
   39.6050   23.4420   36.7540 C   0  0  0  0  0  0  0  0  0  0  0  0
   38.3340   23.9960   36.9380 C   0  0  0  0  0  0  0  0  0  0  0  0
   37.6550   24.6140   36.3600 H   0  0  0  0  0  0  0  0  0  0  0  0
   37.8880   23.6180   38.2000 C   0  0  0  0  0  0  0  0  0  0  0  0
   36.9930   23.7970   38.7710 H   0  0  0  0  0  0  0  0  0  0  0  0
   38.8780   22.8660   38.7270 N   0  0  0  0  0  0  0  0  0  0  0  0
   39.0430   22.3560   39.6210 H   0  0  0  0  0  0  0  0  0  0  0  0
   39.8790   22.7680   37.8740 N   0  0  0  0  0  0  0  0  0  0  0  0
  1  2  1  0  0  0  0
  2  7  1  0  0  0  0
  2  3  2  0  0  0  0
  3  8  1  0  0  0  0
  4  3  1  0  0  0  0
  4 19  1  0  0  0  0
  5  4  2  0  0  0  0
  6  1  2  0  0  0  0
  6  5  1  0  0  0  0
  9  5  1  0  0  0  0
 10 11  1  0  0  0  0
 11 12  2  0  0  0  0
 11  1  1  0  0  0  0
 12 17  1  0  0  0  0
 13 12  1  0  0  0  0
 14 13  2  0  0  0  0
 15 14  1  0  0  0  0
 15 10  2  0  0  0  0
 16 10  1  0  0  0  0
 18 14  1  0  0  0  0
 19 20  1  0  0  0  0
 20 21  1  0  0  0  0
 20 27  2  0  0  0  0
 21 23  2  0  0  0  0
 22 21  1  0  0  0  0
 23 25  1  0  0  0  0
 23 24  1  0  0  0  0
 25 26  1  0  0  0  0
 27 25  1  0  0  0  0
M  END
>  <minimizedAffinity>
-4.77548027

$$$$

 OpenBabel03272510113D

 27 29  0  0  0  0  0  0  0  0999 V2000
   38.2050   25.2350   35.2070 C   0  0  0  0  0  0  0  0  0  0  0  0
   37.9580   24.9610   33.8990 C   0  0  0  0  0  0  0  0  0  0  0  0
   37.3170   25.8180   33.0290 C   0  0  0  0  0  0  0  0  0  0  0  0
   36.8840   27.0330   33.4670 C   0  0  0  0  0  0  0  0  0  0  0  0
   37.1360   27.3150   34.8110 C   0  0  0  0  0  0  0  0  0  0  0  0
   37.7670   26.4480   35.6260 N   0  0  0  0  0  0  0  0  0  0  0  0
   38.2780   24.0080   33.4810 H   0  0  0  0  0  0  0  0  0  0  0  0
   37.1190   25.6030   31.9830 H   0  0  0  0  0  0  0  0  0  0  0  0
   36.8250   28.2680   35.2550 H   0  0  0  0  0  0  0  0  0  0  0  0
   38.3820   24.0230   37.4010 C   0  0  0  0  0  0  0  0  0  0  0  0
   38.8740   24.3380   36.1140 C   0  0  0  0  0  0  0  0  0  0  0  0
   40.0570   23.7390   35.7360 C   0  0  0  0  0  0  0  0  0  0  0  0
   40.6920   22.8890   36.5940 N   0  0  0  0  0  0  0  0  0  0  0  0
   40.1730   22.6240   37.8180 C   0  0  0  0  0  0  0  0  0  0  0  0
   39.0240   23.1840   38.2290 N   0  0  0  0  0  0  0  0  0  0  0  0
   37.4500   24.4930   37.7000 H   0  0  0  0  0  0  0  0  0  0  0  0
   40.4660   23.9580   34.7490 H   0  0  0  0  0  0  0  0  0  0  0  0
   40.7640   21.9330   38.4180 H   0  0  0  0  0  0  0  0  0  0  0  0
   36.2230   28.0230   32.7430 O   0  0  0  0  0  0  0  0  0  0  0  0
   36.4810   28.2570   31.4000 C   0  0  0  0  0  0  0  0  0  0  0  0
   36.8040   29.5910   31.1260 C   0  0  0  0  0  0  0  0  0  0  0  0
   36.9080   30.5070   31.6970 H   0  0  0  0  0  0  0  0  0  0  0  0
   37.0380   29.6960   29.7590 C   0  0  0  0  0  0  0  0  0  0  0  0
   37.3100   30.5000   29.0980 H   0  0  0  0  0  0  0  0  0  0  0  0
   36.8540   28.4540   29.2610 N   0  0  0  0  0  0  0  0  0  0  0  0
   36.9050   28.0030   28.3220 H   0  0  0  0  0  0  0  0  0  0  0  0
   36.5290   27.6190   30.2280 N   0  0  0  0  0  0  0  0  0  0  0  0
  1  6  1  0  0  0  0
  1 11  1  0  0  0  0
  2  1  2  0  0  0  0
  3  4  2  0  0  0  0
  3  2  1  0  0  0  0
  4  5  1  0  0  0  0
  5  9  1  0  0  0  0
  5  6  2  0  0  0  0
  7  2  1  0  0  0  0
  8  3  1  0  0  0  0
 10 16  1  0  0  0  0
 10 15  1  0  0  0  0
 11 10  2  0  0  0  0
 12 11  1  0  0  0  0
 12 13  2  0  0  0  0
 13 14  1  0  0  0  0
 14 15  2  0  0  0  0
 14 18  1  0  0  0  0
 17 12  1  0  0  0  0
 19  4  1  0  0  0  0
 20 19  1  0  0  0  0
 21 20  1  0  0  0  0
 21 22  1  0  0  0  0
 23 21  2  0  0  0  0
 24 23  1  0  0  0  0
 25 23  1  0  0  0  0
 25 27  1  0  0  0  0
 26 25  1  0  0  0  0
 27 20  2  0  0  0  0
M  END
>  <minimizedAffinity>
-4.7305212

$$$$

 OpenBabel03272510113D

 27 29  0  0  0  0  0  0  0  0999 V2000
   38.1720   26.6950   33.9610 C   0  0  0  0  0  0  0  0  0  0  0  0
   39.2630   27.0990   34.6630 C   0  0  0  0  0  0  0  0  0  0  0  0
   40.2820   26.2630   35.0700 C   0  0  0  0  0  0  0  0  0  0  0  0
   40.2350   24.9350   34.7700 C   0  0  0  0  0  0  0  0  0  0  0  0
   39.1140   24.5200   34.0490 C   0  0  0  0  0  0  0  0  0  0  0  0
   38.1400   25.3710   33.6720 N   0  0  0  0  0  0  0  0  0  0  0  0
   39.3670   28.1470   34.9370 H   0  0  0  0  0  0  0  0  0  0  0  0
   41.1570   26.5810   35.6300 H   0  0  0  0  0  0  0  0  0  0  0  0
   38.9850   23.4700   33.7610 H   0  0  0  0  0  0  0  0  0  0  0  0
   36.3300   28.3380   34.4340 C   0  0  0  0  0  0  0  0  0  0  0  0
   37.1070   27.5690   33.5390 C   0  0  0  0  0  0  0  0  0  0  0  0
   36.8080   27.6840   32.1980 C   0  0  0  0  0  0  0  0  0  0  0  0
   35.8010   28.5120   31.7960 N   0  0  0  0  0  0  0  0  0  0  0  0
   35.0870   29.2260   32.7000 C   0  0  0  0  0  0  0  0  0  0  0  0
   35.3430   29.1460   34.0160 N   0  0  0  0  0  0  0  0  0  0  0  0
   36.5650   28.2490   35.4900 H   0  0  0  0  0  0  0  0  0  0  0  0
   37.3880   27.1070   31.4770 H   0  0  0  0  0  0  0  0  0  0  0  0
   34.3080   29.8520   32.2680 H   0  0  0  0  0  0  0  0  0  0  0  0
   41.1610   23.9460   35.0920 O   0  0  0  0  0  0  0  0  0  0  0  0
   40.9740   23.0710   36.1530 C   0  0  0  0  0  0  0  0  0  0  0  0
   42.0340   22.1730   36.3180 C   0  0  0  0  0  0  0  0  0  0  0  0
   42.9820   21.9770   35.8270 H   0  0  0  0  0  0  0  0  0  0  0  0
   41.7310   21.3570   37.4020 C   0  0  0  0  0  0  0  0  0  0  0  0
   42.2280   20.5400   37.8970 H   0  0  0  0  0  0  0  0  0  0  0  0
   40.5270   21.7760   37.8480 N   0  0  0  0  0  0  0  0  0  0  0  0
   39.8720   21.5090   38.6140 H   0  0  0  0  0  0  0  0  0  0  0  0
   40.0920   22.7790   37.1110 N   0  0  0  0  0  0  0  0  0  0  0  0
  1  2  1  0  0  0  0
  2  7  1  0  0  0  0
  2  3  2  0  0  0  0
  3  8  1  0  0  0  0
  4  3  1  0  0  0  0
  4 19  1  0  0  0  0
  5  4  2  0  0  0  0
  6  1  2  0  0  0  0
  6  5  1  0  0  0  0
  9  5  1  0  0  0  0
 10 16  1  0  0  0  0
 11  1  1  0  0  0  0
 11 10  2  0  0  0  0
 12 11  1  0  0  0  0
 13 12  2  0  0  0  0
 13 14  1  0  0  0  0
 14 15  2  0  0  0  0
 15 10  1  0  0  0  0
 17 12  1  0  0  0  0
 18 14  1  0  0  0  0
 19 20  1  0  0  0  0
 20 21  1  0  0  0  0
 20 27  2  0  0  0  0
 21 23  2  0  0  0  0
 22 21  1  0  0  0  0
 23 25  1  0  0  0  0
 23 24  1  0  0  0  0
 25 26  1  0  0  0  0
 27 25  1  0  0  0  0
M  END
>  <minimizedAffinity>
-4.7039628

$$$$

 OpenBabel03272510113D

 27 29  0  0  0  0  0  0  0  0999 V2000
   36.3340   27.5350   32.5020 C   0  0  0  0  0  0  0  0  0  0  0  0
   36.5570   27.8900   33.7950 C   0  0  0  0  0  0  0  0  0  0  0  0
   36.0970   29.0530   34.3760 C   0  0  0  0  0  0  0  0  0  0  0  0
   35.3650   29.9370   33.6430 C   0  0  0  0  0  0  0  0  0  0  0  0
   35.1350   29.5740   32.3150 C   0  0  0  0  0  0  0  0  0  0  0  0
   35.6040   28.4260   31.7860 N   0  0  0  0  0  0  0  0  0  0  0  0
   37.1350   27.2310   34.4400 H   0  0  0  0  0  0  0  0  0  0  0  0
   36.2730   29.3400   35.4090 H   0  0  0  0  0  0  0  0  0  0  0  0
   34.5560   30.2200   31.6450 H   0  0  0  0  0  0  0  0  0  0  0  0
   38.1880   26.0030   31.7760 C   0  0  0  0  0  0  0  0  0  0  0  0
   36.8170   26.3200   31.8970 C   0  0  0  0  0  0  0  0  0  0  0  0
   35.9180   25.4000   31.4010 C   0  0  0  0  0  0  0  0  0  0  0  0
   36.3740   24.2480   30.8280 N   0  0  0  0  0  0  0  0  0  0  0  0
   37.7020   23.9960   30.7390 C   0  0  0  0  0  0  0  0  0  0  0  0
   38.6140   24.8640   31.2090 N   0  0  0  0  0  0  0  0  0  0  0  0
   38.8970   26.7270   32.1670 H   0  0  0  0  0  0  0  0  0  0  0  0
   34.8510   25.6110   31.4780 H   0  0  0  0  0  0  0  0  0  0  0  0
   37.9510   23.0490   30.2630 H   0  0  0  0  0  0  0  0  0  0  0  0
   34.8190   31.1520   34.0520 O   0  0  0  0  0  0  0  0  0  0  0  0
   34.7480   31.5210   35.3880 C   0  0  0  0  0  0  0  0  0  0  0  0
   33.4690   31.3690   35.9340 C   0  0  0  0  0  0  0  0  0  0  0  0
   32.5000   31.0320   35.5810 H   0  0  0  0  0  0  0  0  0  0  0  0
   33.5280   31.7680   37.2640 C   0  0  0  0  0  0  0  0  0  0  0  0
   32.8150   31.8280   38.0690 H   0  0  0  0  0  0  0  0  0  0  0  0
   34.8090   32.1400   37.4770 N   0  0  0  0  0  0  0  0  0  0  0  0
   35.3640   32.5060   38.2800 H   0  0  0  0  0  0  0  0  0  0  0  0
   35.5160   31.9910   36.3740 N   0  0  0  0  0  0  0  0  0  0  0  0
  1  2  1  0  0  0  0
  2  3  2  0  0  0  0
  2  7  1  0  0  0  0
  3  8  1  0  0  0  0
  4 19  1  0  0  0  0
  4  3  1  0  0  0  0
  5  4  2  0  0  0  0
  6  5  1  0  0  0  0
  6  1  2  0  0  0  0
  9  5  1  0  0  0  0
 10 11  1  0  0  0  0
 10 16  1  0  0  0  0
 11  1  1  0  0  0  0
 12 17  1  0  0  0  0
 12 11  2  0  0  0  0
 13 12  1  0  0  0  0
 14 13  2  0  0  0  0
 14 15  1  0  0  0  0
 15 10  2  0  0  0  0
 18 14  1  0  0  0  0
 19 20  1  0  0  0  0
 20 21  1  0  0  0  0
 20 27  2  0  0  0  0
 21 23  2  0  0  0  0
 22 21  1  0  0  0  0
 23 25  1  0  0  0  0
 23 24  1  0  0  0  0
 25 26  1  0  0  0  0
 27 25  1  0  0  0  0
M  END
>  <minimizedAffinity>
-4.63300896

$$$$

 OpenBabel03272510113D

 27 29  0  0  0  0  0  0  0  0999 V2000
   37.9690   25.4070   35.0050 C   0  0  0  0  0  0  0  0  0  0  0  0
   37.6020   26.6980   35.2150 C   0  0  0  0  0  0  0  0  0  0  0  0
   37.0570   27.5220   34.2510 C   0  0  0  0  0  0  0  0  0  0  0  0
   36.8530   27.0500   32.9890 C   0  0  0  0  0  0  0  0  0  0  0  0
   37.2290   25.7240   32.7730 C   0  0  0  0  0  0  0  0  0  0  0  0
   37.7590   24.9540   33.7430 N   0  0  0  0  0  0  0  0  0  0  0  0
   37.7370   27.1410   36.2000 H   0  0  0  0  0  0  0  0  0  0  0  0
   36.7620   28.5540   34.4150 H   0  0  0  0  0  0  0  0  0  0  0  0
   37.1040   25.2550   31.7910 H   0  0  0  0  0  0  0  0  0  0  0  0
   39.7190   23.7970   35.8150 C   0  0  0  0  0  0  0  0  0  0  0  0
   38.5390   24.5490   36.0120 C   0  0  0  0  0  0  0  0  0  0  0  0
   37.9260   24.4370   37.2410 C   0  0  0  0  0  0  0  0  0  0  0  0
   38.4660   23.6250   38.1970 N   0  0  0  0  0  0  0  0  0  0  0  0
   39.6000   22.9260   37.9520 C   0  0  0  0  0  0  0  0  0  0  0  0
   40.2320   23.0040   36.7690 N   0  0  0  0  0  0  0  0  0  0  0  0
   40.2030   23.8850   34.8480 H   0  0  0  0  0  0  0  0  0  0  0  0
   37.0140   25.0040   37.4290 H   0  0  0  0  0  0  0  0  0  0  0  0
   39.9400   22.3100   38.7850 H   0  0  0  0  0  0  0  0  0  0  0  0
   36.3180   27.7250   31.8950 O   0  0  0  0  0  0  0  0  0  0  0  0
   35.3850   28.7430   32.0330 C   0  0  0  0  0  0  0  0  0  0  0  0
   35.6760   29.8670   31.2520 C   0  0  0  0  0  0  0  0  0  0  0  0
   36.4520   30.1570   30.5520 H   0  0  0  0  0  0  0  0  0  0  0  0
   34.6760   30.8070   31.4770 C   0  0  0  0  0  0  0  0  0  0  0  0
   34.4750   31.7990   31.1110 H   0  0  0  0  0  0  0  0  0  0  0  0
   33.8330   30.2380   32.3650 N   0  0  0  0  0  0  0  0  0  0  0  0
   32.9520   30.5120   32.8490 H   0  0  0  0  0  0  0  0  0  0  0  0
   34.2560   29.0310   32.6850 N   0  0  0  0  0  0  0  0  0  0  0  0
  1  2  1  0  0  0  0
  1 11  1  0  0  0  0
  2  7  1  0  0  0  0
  3  8  1  0  0  0  0
  3  2  2  0  0  0  0
  4  3  1  0  0  0  0
  5  4  2  0  0  0  0
  5  6  1  0  0  0  0
  6  1  2  0  0  0  0
  9  5  1  0  0  0  0
 10 11  2  0  0  0  0
 10 15  1  0  0  0  0
 11 12  1  0  0  0  0
 12 17  1  0  0  0  0
 12 13  2  0  0  0  0
 14 13  1  0  0  0  0
 14 18  1  0  0  0  0
 15 14  2  0  0  0  0
 16 10  1  0  0  0  0
 19 20  1  0  0  0  0
 19  4  1  0  0  0  0
 20 27  2  0  0  0  0
 21 23  2  0  0  0  0
 21 20  1  0  0  0  0
 22 21  1  0  0  0  0
 23 25  1  0  0  0  0
 24 23  1  0  0  0  0
 25 27  1  0  0  0  0
 25 26  1  0  0  0  0
M  END
>  <minimizedAffinity>
-4.61700869

$$$$
