
 OpenBabel03272505023D

 28 30  0  0  0  0  0  0  0  0999 V2000
   38.3430   30.3620   46.9710 Cl  0  0  0  0  0  0  0  0  0  0  0  0
   38.7640   31.8830   47.7400 C   0  0  0  0  0  0  0  0  0  0  0  0
   38.3040   32.1330   49.0040 C   0  0  0  0  0  0  0  0  0  0  0  0
   38.6770   33.3460   49.5410 C   0  0  0  0  0  0  0  0  0  0  0  0
   39.4700   34.2240   48.8120 C   0  0  0  0  0  0  0  0  0  0  0  0
   39.9040   33.9240   47.5490 C   0  0  0  0  0  0  0  0  0  0  0  0
   39.5380   32.7070   46.9900 C   0  0  0  0  0  0  0  0  0  0  0  0
   38.3780   33.6630   50.5320 H   0  0  0  0  0  0  0  0  0  0  0  0
   39.7600   35.1810   49.2470 H   0  0  0  0  0  0  0  0  0  0  0  0
   40.5220   34.6540   47.0310 H   0  0  0  0  0  0  0  0  0  0  0  0
   37.9980   30.5020   50.8630 C   0  0  0  0  0  0  0  0  0  0  0  0
   37.4680   31.2060   49.7690 C   0  0  0  0  0  0  0  0  0  0  0  0
   36.1430   30.9940   49.4430 C   0  0  0  0  0  0  0  0  0  0  0  0
   35.4270   30.1220   50.1910 N   0  0  0  0  0  0  0  0  0  0  0  0
   35.9490   29.4550   51.2380 C   0  0  0  0  0  0  0  0  0  0  0  0
   37.2300   29.6470   51.5690 N   0  0  0  0  0  0  0  0  0  0  0  0
   39.0440   30.6510   51.1440 H   0  0  0  0  0  0  0  0  0  0  0  0
   35.6950   31.5070   48.6170 H   0  0  0  0  0  0  0  0  0  0  0  0
   35.4020   28.7570   51.8490 H   0  0  0  0  0  0  0  0  0  0  0  0
   40.0000   32.4510   45.7180 O   0  0  0  0  0  0  0  0  0  0  0  0
   39.3280   32.6410   44.5440 C   0  0  0  0  0  0  0  0  0  0  0  0
   39.6070   32.8410   43.2130 C   0  0  0  0  0  0  0  0  0  0  0  0
   40.6440   32.8720   42.9140 H   0  0  0  0  0  0  0  0  0  0  0  0
   38.4440   32.9700   42.4900 C   0  0  0  0  0  0  0  0  0  0  0  0
   38.3940   33.1330   41.4260 H   0  0  0  0  0  0  0  0  0  0  0  0
   37.4870   32.8420   43.4080 N   0  0  0  0  0  0  0  0  0  0  0  0
   36.4530   32.8930   43.1660 H   0  0  0  0  0  0  0  0  0  0  0  0
   37.9670   32.6470   44.6260 N   0  0  0  0  0  0  0  0  0  0  0  0
  1  2  1  0  0  0  0
  2  3  1  0  0  0  0
  3  4  2  0  0  0  0
  3 12  1  0  0  0  0
  4  8  1  0  0  0  0
  5  9  1  0  0  0  0
  5  4  1  0  0  0  0
  6  5  2  0  0  0  0
  7  6  1  0  0  0  0
  7  2  2  0  0  0  0
 10  6  1  0  0  0  0
 11 17  1  0  0  0  0
 11 16  1  0  0  0  0
 12 11  2  0  0  0  0
 13 12  1  0  0  0  0
 13 14  2  0  0  0  0
 14 15  1  0  0  0  0
 15 16  2  0  0  0  0
 15 19  1  0  0  0  0
 18 13  1  0  0  0  0
 20  7  1  0  0  0  0
 21 28  2  0  0  0  0
 21 20  1  0  0  0  0
 22 21  1  0  0  0  0
 23 22  1  0  0  0  0
 24 22  2  0  0  0  0
 24 26  1  0  0  0  0
 25 24  1  0  0  0  0
 26 28  1  0  0  0  0
 27 26  1  0  0  0  0
M  END
>  <minimizedAffinity>
-6.18639946

>  <minimizedRMSD>
0.345016927

$$$$
