REMARK  Name = 
REMARK  3 active torsions:
REMARK  status: ('A' for Active; 'I' for Inactive)
REMARK    1  A    between atoms: C_1  and  C_8
REMARK    2  A    between atoms: C_4  and  O_13
REMARK    3  A    between atoms: O_13  and  C_14
REMARK                            x       y       z     vdW  Elec       q    Type
REMARK                         _______ _______ _______ _____ _____    ______ ____
ROOT
ATOM      1  C   UNL     1      33.846  28.786  48.280  0.00  0.00    +0.000 A 
ATOM      2  C   UNL     1      34.441  28.414  49.433  0.00  0.00    +0.000 A 
ATOM      3  C   UNL     1      35.715  28.781  49.816  0.00  0.00    +0.000 A 
ATOM      4  C   UNL     1      36.461  29.580  48.995  0.00  0.00    +0.000 A 
ATOM      5  C   UNL     1      35.841  29.964  47.799  0.00  0.00    +0.000 A 
ATOM      6  N   UNL     1      34.599  29.583  47.469  0.00  0.00    +0.000 NA
ATOM      7  H   UNL     1      33.931  27.782  50.148  0.00  0.00    +0.000 HD
ATOM      8  H   UNL     1      36.184  28.481  50.737  0.00  0.00    +0.000 HD
ATOM      9  H   UNL     1      36.393  30.601  47.111  0.00  0.00    +0.000 HD
ENDROOT
BRANCH   1  11
ATOM     10  C   UNL     1      31.631  27.660  48.710  0.00  0.00    +0.000 A 
ATOM     11  C   UNL     1      32.516  28.394  47.896  0.00  0.00    +0.000 A 
ATOM     12  C   UNL     1      32.035  28.746  46.642  0.00  0.00    +0.000 A 
ATOM     13  N   UNL     1      30.776  28.384  46.257  0.00  0.00    +0.000 NA
ATOM     14  C   UNL     1      29.983  27.682  47.086  0.00  0.00    +0.000 A 
ATOM     15  N   UNL     1      30.396  27.313  48.315  0.00  0.00    +0.000 NA
ATOM     16  H   UNL     1      31.985  27.375  49.691  0.00  0.00    +0.000 HD
ATOM     17  H   UNL     1      32.700  29.312  45.996  0.00  0.00    +0.000 HD
ATOM     18  H   UNL     1      29.034  27.498  46.595  0.00  0.00    +0.000 HD
ENDBRANCH   1  11
BRANCH   4  19
ATOM     19  O   UNL     1      37.754  30.045  49.217  0.00  0.00    +0.000 OA
BRANCH  19  20
ATOM     20  C   UNL     1      38.167  31.298  48.764  0.00  0.00    +0.000 A 
ATOM     21  C   UNL     1      37.884  32.327  49.670  0.00  0.00    +0.000 A 
ATOM     22  C   UNL     1      38.338  33.522  49.115  0.00  0.00    +0.000 A 
ATOM     23  N   UNL     1      38.862  33.181  47.930  0.00  0.00    +0.000 N 
ATOM     24  N   UNL     1      38.762  31.890  47.729  0.00  0.00    +0.000 NA
ATOM     25  H   UNL     1      37.412  32.399  50.662  0.00  0.00    +0.000 HD
ATOM     26  H   UNL     1      38.350  34.559  49.417  0.00  0.00    +0.000 HD
ATOM     27  C   UNL     1      39.474  33.986  46.926  0.00  0.00    +0.000 A 
ATOM     28  C   UNL     1      39.973  35.264  46.780  0.00  0.00    +0.000 A 
ATOM     29  H   UNL     1      39.908  35.893  47.658  0.00  0.00    +0.000 HD
ATOM     30  C   UNL     1      40.428  35.347  45.475  0.00  0.00    +0.000 A 
ATOM     31  H   UNL     1      40.864  36.287  45.157  0.00  0.00    +0.000 HD
ATOM     32  N   UNL     1      40.205  34.158  44.871  0.00  0.00    +0.000 N 
ATOM     33  H   UNL     1      40.481  34.007  43.861  0.00  0.00    +0.000 HD
ATOM     34  N   UNL     1      39.636  33.344  45.735  0.00  0.00    +0.000 NA
ENDBRANCH  19  20
ENDBRANCH   4  19
TORSDOF 3
