REMARK  Name = 
REMARK  2 active torsions:
REMARK  status: ('A' for Active; 'I' for Inactive)
REMARK    1  A    between atoms: C_1  and  N_9
REMARK    2  A    between atoms: C_2  and  N_10
REMARK                            x       y       z     vdW  Elec       q    Type
REMARK                         _______ _______ _______ _____ _____    ______ ____
ROOT
ATOM      1  N   UNL     1      36.711  31.333  48.966  0.00  0.00    +0.000 N 
ATOM      2  C   UNL     1      36.551  32.337  49.821  0.00  0.00    +0.000 A 
ATOM      3  C   UNL     1      37.531  33.322  49.930  0.00  0.00    +0.000 A 
ATOM      4  C   UNL     1      38.605  33.152  49.111  0.00  0.00    +0.000 A 
ATOM      5  O   UNL     1      39.502  34.045  49.203  0.00  0.00    +0.000 OA
ATOM      6  N   UNL     1      38.805  32.167  48.243  0.00  0.00    +0.000 N 
ATOM      7  C   UNL     1      37.824  31.232  48.174  0.00  0.00    +0.000 A 
ATOM      8  O   UNL     1      37.993  30.275  47.348  0.00  0.00    +0.000 OA
ATOM      9  H   UNL     1      35.657  32.389  50.436  0.00  0.00    +0.000 HD
ATOM     10  H   UNL     1      37.403  34.131  50.619  0.00  0.00    +0.000 HD
ATOM     11  C   UNL     1      39.972  32.080  47.427  0.00  0.00    +0.000 A 
ATOM     12  C   UNL     1      40.312  32.449  46.124  0.00  0.00    +0.000 A 
ATOM     13  H   UNL     1      39.547  32.925  45.525  0.00  0.00    +0.000 HD
ATOM     14  C   UNL     1      41.630  32.067  45.971  0.00  0.00    +0.000 A 
ATOM     15  H   UNL     1      42.123  32.257  45.014  0.00  0.00    +0.000 HD
ATOM     16  N   UNL     1      42.078  31.499  47.104  0.00  0.00    +0.000 N 
ATOM     17  H   UNL     1      43.049  31.129  47.230  0.00  0.00    +0.000 HD
ATOM     18  N   UNL     1      41.074  31.515  47.962  0.00  0.00    +0.000 NA
ENDROOT
BRANCH   1  20
ATOM     19  C   UNL     1      35.648  29.331  49.840  0.00  0.00    +0.000 A 
ATOM     20  C   UNL     1      35.743  30.284  48.807  0.00  0.00    +0.000 A 
ATOM     21  C   UNL     1      34.908  30.166  47.689  0.00  0.00    +0.000 A 
ATOM     22  N   UNL     1      34.038  29.121  47.661  0.00  0.00    +0.000 NA
ATOM     23  C   UNL     1      33.950  28.226  48.632  0.00  0.00    +0.000 A 
ATOM     24  N   UNL     1      34.747  28.331  49.710  0.00  0.00    +0.000 NA
ATOM     25  H   UNL     1      35.009  30.912  46.920  0.00  0.00    +0.000 HD
ATOM     26  H   UNL     1      33.250  27.400  48.592  0.00  0.00    +0.000 HD
BRANCH  19  29
ATOM     27  C   UNL     1      37.649  30.049  51.342  0.00  0.00    +0.000 C 
ATOM     28  O   UNL     1      38.203  30.838  50.544  0.00  0.00    +0.000 OA
ATOM     29  N   UNL     1      36.431  29.366  51.013  0.00  0.00    +0.000 N 
ATOM     30  H   UNL     1      38.156  29.927  52.284  0.00  0.00    +0.000 HD
ATOM     31  H   UNL     1      36.102  28.796  51.847  0.00  0.00    +0.000 HD
ENDBRANCH  19  29
ENDBRANCH   1  20
TORSDOF 2
