REMARK  Name = 
REMARK  3 active torsions:
REMARK  status: ('A' for Active; 'I' for Inactive)
REMARK    1  A    between atoms: N_1  and  C_7
REMARK    2  A    between atoms: C_6  and  O_13
REMARK    3  A    between atoms: O_13  and  C_26
REMARK                            x       y       z     vdW  Elec       q    Type
REMARK                         _______ _______ _______ _____ _____    ______ ____
ROOT
ATOM      1  N   UNL     1      35.971  29.622  48.867  0.00  0.00    +0.000 N 
ATOM      2  C   UNL     1      36.578  28.861  49.918  0.00  0.00    +0.000 C 
ATOM      3  C   UNL     1      37.043  29.566  51.117  0.00  0.00    +0.000 C 
ATOM      4  C   UNL     1      37.413  30.991  50.982  0.00  0.00    +0.000 C 
ATOM      5  C   UNL     1      36.818  31.686  49.782  0.00  0.00    +0.000 C 
ATOM      6  C   UNL     1      36.839  30.737  48.593  0.00  0.00    +0.000 C 
ATOM      7  H   UNL     1      35.834  28.056  50.186  0.00  0.00    +0.000 HD
ATOM      8  H   UNL     1      37.432  28.303  49.453  0.00  0.00    +0.000 HD
ATOM      9  H   UNL     1      37.922  29.019  51.539  0.00  0.00    +0.000 HD
ATOM     10  H   UNL     1      36.243  29.460  51.903  0.00  0.00    +0.000 HD
ATOM     11  H   UNL     1      37.070  31.561  51.883  0.00  0.00    +0.000 HD
ATOM     12  H   UNL     1      38.523  31.143  50.944  0.00  0.00    +0.000 HD
ATOM     13  H   UNL     1      35.784  32.022  49.911  0.00  0.00    +0.000 HD
ATOM     14  H   UNL     1      37.477  32.555  49.516  0.00  0.00    +0.000 HD
ATOM     15  H   UNL     1      36.566  31.307  47.682  0.00  0.00    +0.000 HD
ENDROOT
BRANCH   1  16
ATOM     16  C   UNL     1      34.735  29.332  48.212  0.00  0.00    +0.000 A 
ATOM     17  C   UNL     1      34.255  30.009  47.092  0.00  0.00    +0.000 A 
ATOM     18  C   UNL     1      33.036  29.617  46.562  0.00  0.00    +0.000 A 
ATOM     19  N   UNL     1      32.376  28.586  47.172  0.00  0.00    +0.000 NA
ATOM     20  C   UNL     1      32.871  27.963  48.246  0.00  0.00    +0.000 A 
ATOM     21  N   UNL     1      34.057  28.330  48.777  0.00  0.00    +0.000 NA
ATOM     22  H   UNL     1      34.852  30.794  46.702  0.00  0.00    +0.000 HD
ATOM     23  H   UNL     1      32.687  30.156  45.695  0.00  0.00    +0.000 HD
ATOM     24  H   UNL     1      32.293  27.155  48.675  0.00  0.00    +0.000 HD
ENDBRANCH   1  16
BRANCH   6  25
ATOM     25  O   UNL     1      38.179  30.357  48.466  0.00  0.00    +0.000 OA
BRANCH  25  26
ATOM     26  C   UNL     1      38.965  30.674  47.365  0.00  0.00    +0.000 A 
ATOM     27  C   UNL     1      39.410  29.890  46.295  0.00  0.00    +0.000 A 
ATOM     28  H   UNL     1      39.164  28.842  46.198  0.00  0.00    +0.000 HD
ATOM     29  C   UNL     1      40.174  30.662  45.443  0.00  0.00    +0.000 A 
ATOM     30  H   UNL     1      40.606  30.246  44.562  0.00  0.00    +0.000 HD
ATOM     31  N   UNL     1      40.176  31.900  46.015  0.00  0.00    +0.000 N 
ATOM     32  H   UNL     1      40.706  32.662  45.529  0.00  0.00    +0.000 HD
ATOM     33  N   UNL     1      39.470  31.899  47.135  0.00  0.00    +0.000 NA
ENDBRANCH  25  26
ENDBRANCH   6  25
TORSDOF 3
