REMARK  Name = 
REMARK  4 active torsions:
REMARK  status: ('A' for Active; 'I' for Inactive)
REMARK    1  A    between atoms: C_3  and  C_10
REMARK    2  A    between atoms: C_8  and  C_15
REMARK    3  A    between atoms: C_15  and  O_17
REMARK    4  A    between atoms: O_17  and  C_23
REMARK                            x       y       z     vdW  Elec       q    Type
REMARK                         _______ _______ _______ _____ _____    ______ ____
ROOT
ATOM      1 CL   UNL     1      36.802  32.187  50.126  0.00  0.00    +0.000 Cl
ATOM      2  C   UNL     1      37.540  31.921  48.577  0.00  0.00    +0.000 A 
ATOM      3  C   UNL     1      36.956  30.912  47.881  0.00  0.00    +0.000 A 
ATOM      4  C   UNL     1      37.485  30.614  46.599  0.00  0.00    +0.000 A 
ATOM      5  C   UNL     1      38.538  31.308  46.080  0.00  0.00    +0.000 A 
ATOM      6  C   UNL     1      39.102  32.326  46.818  0.00  0.00    +0.000 A 
ATOM      7 CL   UNL     1      40.439  33.231  46.195  0.00  0.00    +0.000 Cl
ATOM      8  C   UNL     1      38.598  32.614  48.046  0.00  0.00    +0.000 A 
ATOM      9  H   UNL     1      37.093  29.831  45.965  0.00  0.00    +0.000 HD
ATOM     10  H   UNL     1      38.951  31.090  45.102  0.00  0.00    +0.000 HD
ENDROOT
BRANCH   3  12
ATOM     11  C   UNL     1      36.041  29.096  49.253  0.00  0.00    +0.000 A 
ATOM     12  C   UNL     1      35.828  30.035  48.230  0.00  0.00    +0.000 A 
ATOM     13  C   UNL     1      34.588  30.087  47.612  0.00  0.00    +0.000 A 
ATOM     14  N   UNL     1      33.634  29.216  48.033  0.00  0.00    +0.000 NA
ATOM     15  C   UNL     1      33.866  28.321  49.020  0.00  0.00    +0.000 A 
ATOM     16  N   UNL     1      35.082  28.256  49.641  0.00  0.00    +0.000 NA
ATOM     17  H   UNL     1      37.003  29.041  49.747  0.00  0.00    +0.000 HD
ATOM     18  H   UNL     1      34.441  30.817  46.827  0.00  0.00    +0.000 HD
ATOM     19  H   UNL     1      33.002  27.714  49.223  0.00  0.00    +0.000 HD
ENDBRANCH   3  12
BRANCH   8  20
ATOM     20  C   UNL     1      39.140  33.686  48.902  0.00  0.00    +0.000 C 
ATOM     21  O   UNL     1      39.289  34.880  48.664  0.00  0.00    +0.000 OA
BRANCH  20  22
ATOM     22  O   UNL     1      39.616  33.544  50.223  0.00  0.00    +0.000 OA
BRANCH  22  23
ATOM     23  C   UNL     1      40.108  34.621  50.946  0.00  0.00    +0.000 A 
ATOM     24  C   UNL     1      41.083  34.478  51.914  0.00  0.00    +0.000 A 
ATOM     25  H   UNL     1      41.573  33.569  52.227  0.00  0.00    +0.000 HD
ATOM     26  C   UNL     1      41.341  35.725  52.433  0.00  0.00    +0.000 A 
ATOM     27  H   UNL     1      42.016  36.061  53.190  0.00  0.00    +0.000 HD
ATOM     28  N   UNL     1      40.541  36.595  51.794  0.00  0.00    +0.000 N 
ATOM     29  H   UNL     1      40.459  37.633  51.923  0.00  0.00    +0.000 HD
ATOM     30  N   UNL     1      39.797  35.928  50.897  0.00  0.00    +0.000 NA
ENDBRANCH  22  23
ENDBRANCH  20  22
ENDBRANCH   8  20
TORSDOF 4
