
 OpenBabel03272510113D

 34 37  0  0  0  0  0  0  0  0999 V2000
   33.4550   28.4930   48.3210 C   0  0  0  0  0  0  0  0  0  0  0  0
   34.3370   28.0600   49.2460 C   0  0  0  0  0  0  0  0  0  0  0  0
   35.5140   28.7020   49.5730 C   0  0  0  0  0  0  0  0  0  0  0  0
   35.8460   29.8650   48.9350 C   0  0  0  0  0  0  0  0  0  0  0  0
   34.9290   30.3110   47.9750 C   0  0  0  0  0  0  0  0  0  0  0  0
   33.7960   29.6530   47.6910 N   0  0  0  0  0  0  0  0  0  0  0  0
   34.1630   27.1490   49.8030 H   0  0  0  0  0  0  0  0  0  0  0  0
   36.2140   28.3520   50.3120 H   0  0  0  0  0  0  0  0  0  0  0  0
   35.1460   31.2330   47.4400 H   0  0  0  0  0  0  0  0  0  0  0  0
   31.1650   27.6030   48.8880 C   0  0  0  0  0  0  0  0  0  0  0  0
   32.2320   27.8100   47.9920 C   0  0  0  0  0  0  0  0  0  0  0  0
   32.0530   27.3060   46.7110 C   0  0  0  0  0  0  0  0  0  0  0  0
   30.9000   26.6550   46.3770 N   0  0  0  0  0  0  0  0  0  0  0  0
   29.9210   26.4920   47.2840 C   0  0  0  0  0  0  0  0  0  0  0  0
   30.0380   26.9600   48.5430 N   0  0  0  0  0  0  0  0  0  0  0  0
   31.2820   27.9870   49.8920 H   0  0  0  0  0  0  0  0  0  0  0  0
   32.8630   27.4530   46.0020 H   0  0  0  0  0  0  0  0  0  0  0  0
   29.0990   25.9550   46.8240 H   0  0  0  0  0  0  0  0  0  0  0  0
   36.9840   30.6420   49.1350 O   0  0  0  0  0  0  0  0  0  0  0  0
   37.7370   31.1210   48.0630 C   0  0  0  0  0  0  0  0  0  0  0  0
   38.5640   32.1950   48.4140 C   0  0  0  0  0  0  0  0  0  0  0  0
   39.2630   32.5870   47.2730 C   0  0  0  0  0  0  0  0  0  0  0  0
   38.8450   31.7600   46.3050 N   0  0  0  0  0  0  0  0  0  0  0  0
   37.9600   30.9110   46.7660 N   0  0  0  0  0  0  0  0  0  0  0  0
   38.7730   32.7640   49.3330 H   0  0  0  0  0  0  0  0  0  0  0  0
   39.9970   33.3440   47.0390 H   0  0  0  0  0  0  0  0  0  0  0  0
   39.2130   31.6890   44.9300 C   0  0  0  0  0  0  0  0  0  0  0  0
   38.6800   31.9920   43.6940 C   0  0  0  0  0  0  0  0  0  0  0  0
   37.6830   32.4120   43.7080 H   0  0  0  0  0  0  0  0  0  0  0  0
   39.6460   31.6400   42.7670 C   0  0  0  0  0  0  0  0  0  0  0  0
   39.4170   31.8020   41.7210 H   0  0  0  0  0  0  0  0  0  0  0  0
   40.7140   31.1460   43.4340 N   0  0  0  0  0  0  0  0  0  0  0  0
   41.5710   30.8160   42.9100 H   0  0  0  0  0  0  0  0  0  0  0  0
   40.4580   31.1750   44.7260 N   0  0  0  0  0  0  0  0  0  0  0  0
  1  2  1  0  0  0  0
  2  3  2  0  0  0  0
  2  7  1  0  0  0  0
  3  8  1  0  0  0  0
  4 19  1  0  0  0  0
  4  3  1  0  0  0  0
  5  4  2  0  0  0  0
  6  5  1  0  0  0  0
  6  1  2  0  0  0  0
  9  5  1  0  0  0  0
 10 16  1  0  0  0  0
 11  1  1  0  0  0  0
 11 10  2  0  0  0  0
 12 11  1  0  0  0  0
 13 12  2  0  0  0  0
 13 14  1  0  0  0  0
 14 15  2  0  0  0  0
 15 10  1  0  0  0  0
 17 12  1  0  0  0  0
 18 14  1  0  0  0  0
 20 21  1  0  0  0  0
 20 19  1  0  0  0  0
 21 25  1  0  0  0  0
 22 21  2  0  0  0  0
 23 24  1  0  0  0  0
 23 22  1  0  0  0  0
 24 20  2  0  0  0  0
 26 22  1  0  0  0  0
 27 23  1  0  0  0  0
 28 29  1  0  0  0  0
 28 27  1  0  0  0  0
 30 32  1  0  0  0  0
 30 28  2  0  0  0  0
 31 30  1  0  0  0  0
 32 34  1  0  0  0  0
 33 32  1  0  0  0  0
 34 27  2  0  0  0  0
M  END
>  <minimizedAffinity>
-5.8525424

>  <minimizedRMSD>
2.15690804

$$$$
