
 OpenBabel03272506083D

 43 46  0  0  0  0  0  0  0  0999 V2000
   34.2250   28.0820   48.9470 C   0  0  0  0  0  0  0  0  0  0  0  0
   34.4470   27.0450   49.2760 H   0  0  0  0  0  0  0  0  0  0  0  0
   35.0320   28.3600   48.2380 H   0  0  0  0  0  0  0  0  0  0  0  0
   32.8930   28.1220   48.2420 C   0  0  0  0  0  0  0  0  0  0  0  0
   32.8250   28.6010   46.8770 C   0  0  0  0  0  0  0  0  0  0  0  0
   31.1000   28.4430   46.5490 S   0  0  0  0  0  0  0  0  0  0  0  0
   30.6740   27.7630   48.2450 C   0  0  0  0  0  0  0  0  0  0  0  0
   31.7560   27.7570   48.7470 N   0  0  0  0  0  0  0  0  0  0  0  0
   29.4090   27.3490   48.8320 N   0  0  0  0  0  0  0  0  0  0  0  0
   28.4390   26.8280   47.9160 C   0  0  0  0  0  0  0  0  0  0  0  0
   27.0440   26.8010   48.4520 C   0  0  0  0  0  0  0  0  0  0  0  0
   26.9060   27.4670   49.7490 N   0  0  0  0  0  0  0  0  0  0  0  0
   27.9020   26.8520   50.6100 C   0  0  0  0  0  0  0  0  0  0  0  0
   29.2210   27.4850   50.2480 C   0  0  0  0  0  0  0  0  0  0  0  0
   33.6370   28.9410   46.2980 H   0  0  0  0  0  0  0  0  0  0  0  0
   28.4510   27.4740   47.0130 H   0  0  0  0  0  0  0  0  0  0  0  0
   28.7340   25.8180   47.5370 H   0  0  0  0  0  0  0  0  0  0  0  0
   26.2840   27.1730   47.7480 H   0  0  0  0  0  0  0  0  0  0  0  0
   26.7770   25.7370   48.6600 H   0  0  0  0  0  0  0  0  0  0  0  0
   27.1880   28.4630   49.5870 H   0  0  0  0  0  0  0  0  0  0  0  0
   28.0040   25.7600   50.4500 H   0  0  0  0  0  0  0  0  0  0  0  0
   27.6460   27.1330   51.6540 H   0  0  0  0  0  0  0  0  0  0  0  0
   29.1430   28.5690   50.4660 H   0  0  0  0  0  0  0  0  0  0  0  0
   30.0170   27.0820   50.8750 H   0  0  0  0  0  0  0  0  0  0  0  0
   34.2450   28.9790   50.1160 C   0  0  0  0  0  0  0  0  0  0  0  0
   34.0410   28.4250   51.0700 H   0  0  0  0  0  0  0  0  0  0  0  0
   33.4900   29.7890   50.0310 H   0  0  0  0  0  0  0  0  0  0  0  0
   37.4960   30.1200   51.5010 C   0  0  0  0  0  0  0  0  0  0  0  0
   38.0790   30.8000   50.4350 C   0  0  0  0  0  0  0  0  0  0  0  0
   37.3450   30.8570   49.2520 C   0  0  0  0  0  0  0  0  0  0  0  0
   36.1280   30.2610   49.2010 N   0  0  0  0  0  0  0  0  0  0  0  0
   35.6160   29.6160   50.2700 C   0  0  0  0  0  0  0  0  0  0  0  0
   36.2880   29.5450   51.4020 N   0  0  0  0  0  0  0  0  0  0  0  0
   38.0500   30.0600   52.4400 H   0  0  0  0  0  0  0  0  0  0  0  0
   39.0500   31.2720   50.4860 H   0  0  0  0  0  0  0  0  0  0  0  0
   37.8330   31.5360   48.0570 C   0  0  0  0  0  0  0  0  0  0  0  0
   37.4340   31.1960   46.7700 C   0  0  0  0  0  0  0  0  0  0  0  0
   36.7310   30.4060   46.5170 H   0  0  0  0  0  0  0  0  0  0  0  0
   38.0780   32.0300   45.8540 C   0  0  0  0  0  0  0  0  0  0  0  0
   37.9160   31.9440   44.7830 H   0  0  0  0  0  0  0  0  0  0  0  0
   38.8490   32.8510   46.6170 N   0  0  0  0  0  0  0  0  0  0  0  0
   39.4280   33.5650   46.1510 H   0  0  0  0  0  0  0  0  0  0  0  0
   38.6900   32.5460   47.8750 N   0  0  0  0  0  0  0  0  0  0  0  0
  1  2  1  0  0  0  0
  1 25  1  0  0  0  0
  3  1  1  0  0  0  0
  4  8  1  0  0  0  0
  4  1  1  0  0  0  0
  5  4  2  0  0  0  0
  6  5  1  0  0  0  0
  6  7  1  0  0  0  0
  7  8  2  0  0  0  0
  7  9  1  0  0  0  0
  9 14  1  0  0  0  0
 10 11  1  0  0  0  0
 10  9  1  0  0  0  0
 11 19  1  0  0  0  0
 11 12  1  0  0  0  0
 12 13  1  0  0  0  0
 13 22  1  0  0  0  0
 14 23  1  0  0  0  0
 14 13  1  0  0  0  0
 14 24  1  0  0  0  0
 15  5  1  0  0  0  0
 16 10  1  0  0  0  0
 17 10  1  0  0  0  0
 18 11  1  0  0  0  0
 20 12  1  0  0  0  0
 21 13  1  0  0  0  0
 25 32  1  0  0  0  0
 25 26  1  0  0  0  0
 27 25  1  0  0  0  0
 28 34  1  0  0  0  0
 29 35  1  0  0  0  0
 29 28  2  0  0  0  0
 30 29  1  0  0  0  0
 31 30  2  0  0  0  0
 31 32  1  0  0  0  0
 32 33  2  0  0  0  0
 33 28  1  0  0  0  0
 36 30  1  0  0  0  0
 37 36  1  0  0  0  0
 38 37  1  0  0  0  0
 39 41  1  0  0  0  0
 39 37  2  0  0  0  0
 40 39  1  0  0  0  0
 41 43  1  0  0  0  0
 42 41  1  0  0  0  0
 43 36  2  0  0  0  0
M  END
>  <minimizedAffinity>
-7.27355433

>  <minimizedRMSD>
1.89295816

$$$$
