
 OpenBabel03272506083D

 43 46  0  0  0  0  0  0  0  0999 V2000
   34.8360   28.4700   49.1550 C   0  0  0  0  0  0  0  0  0  0  0  0
   34.9030   27.6430   49.8930 H   0  0  0  0  0  0  0  0  0  0  0  0
   35.7230   28.3700   48.4970 H   0  0  0  0  0  0  0  0  0  0  0  0
   33.5780   28.3230   48.3350 C   0  0  0  0  0  0  0  0  0  0  0  0
   33.6240   28.5800   46.9110 C   0  0  0  0  0  0  0  0  0  0  0  0
   31.9480   28.2730   46.4580 S   0  0  0  0  0  0  0  0  0  0  0  0
   31.3870   27.8420   48.1960 C   0  0  0  0  0  0  0  0  0  0  0  0
   32.4140   27.9760   48.7870 N   0  0  0  0  0  0  0  0  0  0  0  0
   30.0890   27.4520   48.7250 N   0  0  0  0  0  0  0  0  0  0  0  0
   29.2370   26.7400   47.8210 C   0  0  0  0  0  0  0  0  0  0  0  0
   27.7980   26.7160   48.2260 C   0  0  0  0  0  0  0  0  0  0  0  0
   27.5060   27.5670   49.3820 N   0  0  0  0  0  0  0  0  0  0  0  0
   28.4380   27.1520   50.4160 C   0  0  0  0  0  0  0  0  0  0  0  0
   29.7580   27.7960   50.0780 C   0  0  0  0  0  0  0  0  0  0  0  0
   34.4740   28.8710   46.3600 H   0  0  0  0  0  0  0  0  0  0  0  0
   29.3100   27.2370   46.8300 H   0  0  0  0  0  0  0  0  0  0  0  0
   29.6100   25.7030   47.6370 H   0  0  0  0  0  0  0  0  0  0  0  0
   27.0960   26.9300   47.4060 H   0  0  0  0  0  0  0  0  0  0  0  0
   27.5570   25.6850   48.5770 H   0  0  0  0  0  0  0  0  0  0  0  0
   27.7600   28.5400   49.0890 H   0  0  0  0  0  0  0  0  0  0  0  0
   28.6010   26.0560   50.4430 H   0  0  0  0  0  0  0  0  0  0  0  0
   28.0680   27.5760   51.3750 H   0  0  0  0  0  0  0  0  0  0  0  0
   29.6130   28.8940   50.1110 H   0  0  0  0  0  0  0  0  0  0  0  0
   30.5040   27.5410   50.8310 H   0  0  0  0  0  0  0  0  0  0  0  0
   34.8710   29.7610   49.8640 C   0  0  0  0  0  0  0  0  0  0  0  0
   35.0380   29.6270   50.9650 H   0  0  0  0  0  0  0  0  0  0  0  0
   33.9260   30.3310   49.7350 H   0  0  0  0  0  0  0  0  0  0  0  0
   37.5460   32.3210   49.5900 C   0  0  0  0  0  0  0  0  0  0  0  0
   38.0870   32.0890   48.3290 C   0  0  0  0  0  0  0  0  0  0  0  0
   37.5220   31.0520   47.5870 C   0  0  0  0  0  0  0  0  0  0  0  0
   36.4990   30.3410   48.1210 N   0  0  0  0  0  0  0  0  0  0  0  0
   36.0190   30.6140   49.3520 C   0  0  0  0  0  0  0  0  0  0  0  0
   36.5340   31.5880   50.0760 N   0  0  0  0  0  0  0  0  0  0  0  0
   37.9710   33.1270   50.1940 H   0  0  0  0  0  0  0  0  0  0  0  0
   38.9020   32.6620   47.9120 H   0  0  0  0  0  0  0  0  0  0  0  0
   37.9870   30.7000   46.2510 C   0  0  0  0  0  0  0  0  0  0  0  0
   37.1340   30.5190   45.1680 C   0  0  0  0  0  0  0  0  0  0  0  0
   36.0510   30.6190   45.1980 H   0  0  0  0  0  0  0  0  0  0  0  0
   37.8870   30.1910   44.0410 C   0  0  0  0  0  0  0  0  0  0  0  0
   37.4250   30.0030   43.0740 H   0  0  0  0  0  0  0  0  0  0  0  0
   39.1750   30.1810   44.4740 N   0  0  0  0  0  0  0  0  0  0  0  0
   39.9250   29.9590   43.8040 H   0  0  0  0  0  0  0  0  0  0  0  0
   39.2040   30.4770   45.7440 N   0  0  0  0  0  0  0  0  0  0  0  0
  1 25  1  0  0  0  0
  1  2  1  0  0  0  0
  3  1  1  0  0  0  0
  4  8  1  0  0  0  0
  4  1  1  0  0  0  0
  5  4  2  0  0  0  0
  6  5  1  0  0  0  0
  6  7  1  0  0  0  0
  7  9  1  0  0  0  0
  7  8  2  0  0  0  0
  9 14  1  0  0  0  0
 10 11  1  0  0  0  0
 10  9  1  0  0  0  0
 11 19  1  0  0  0  0
 11 12  1  0  0  0  0
 12 13  1  0  0  0  0
 13 21  1  0  0  0  0
 13 22  1  0  0  0  0
 14 23  1  0  0  0  0
 14 13  1  0  0  0  0
 14 24  1  0  0  0  0
 15  5  1  0  0  0  0
 16 10  1  0  0  0  0
 17 10  1  0  0  0  0
 18 11  1  0  0  0  0
 20 12  1  0  0  0  0
 25 26  1  0  0  0  0
 27 25  1  0  0  0  0
 28 33  1  0  0  0  0
 28 34  1  0  0  0  0
 29 28  2  0  0  0  0
 30 31  2  0  0  0  0
 30 29  1  0  0  0  0
 31 32  1  0  0  0  0
 32 25  1  0  0  0  0
 32 33  2  0  0  0  0
 35 29  1  0  0  0  0
 36 30  1  0  0  0  0
 37 38  1  0  0  0  0
 37 36  1  0  0  0  0
 39 41  1  0  0  0  0
 39 37  2  0  0  0  0
 40 39  1  0  0  0  0
 41 43  1  0  0  0  0
 42 41  1  0  0  0  0
 43 36  2  0  0  0  0
M  END
>  <minimizedAffinity>
-6.19557858

>  <minimizedRMSD>
0.859413624

$$$$
