REMARK  Name = 
REMARK  4 active torsions:
REMARK  status: ('A' for Active; 'I' for Inactive)
REMARK    1  A    between atoms: C_1  and  C_2
REMARK    2  A    between atoms: C_1  and  C_13
REMARK    3  A    between atoms: C_13  and  C_18
REMARK    4  A    between atoms: C_16  and  C_36
REMARK                            x       y       z     vdW  Elec       q    Type
REMARK                         _______ _______ _______ _____ _____    ______ ____
ROOT
ATOM      1  C   UNL     1      34.825  28.368  49.429  0.00  0.00    +0.000 C 
ATOM      2  H   UNL     1      34.795  27.554  50.184  0.00  0.00    +0.000 HD
ATOM      3  H   UNL     1      35.724  28.179  48.807  0.00  0.00    +0.000 HD
ENDROOT
BRANCH   1   4
ATOM      4  C   UNL     1      33.590  28.311  48.565  0.00  0.00    +0.000 A 
ATOM      5  C   UNL     1      33.679  28.692  47.171  0.00  0.00    +0.000 A 
ATOM      6  S   UNL     1      32.013  28.449  46.647  0.00  0.00    +0.000 S 
ATOM      7  C   UNL     1      31.398  27.874  48.324  0.00  0.00    +0.000 A 
ATOM      8  N   UNL     1      32.409  27.941  48.953  0.00  0.00    +0.000 NA
ATOM      9  N   UNL     1      30.082  27.456  48.781  0.00  0.00    +0.000 N 
ATOM     10  C   UNL     1      29.248  26.838  47.794  0.00  0.00    +0.000 C 
ATOM     11  C   UNL     1      27.798  26.798  48.156  0.00  0.00    +0.000 C 
ATOM     12  N   UNL     1      27.482  27.547  49.375  0.00  0.00    +0.000 NA
ATOM     13  C   UNL     1      28.380  27.030  50.393  0.00  0.00    +0.000 C 
ATOM     14  C   UNL     1      29.716  27.683  50.150  0.00  0.00    +0.000 C 
ATOM     15  H   UNL     1      34.547  29.019  46.672  0.00  0.00    +0.000 HD
ATOM     16  H   UNL     1      29.354  27.420  46.854  0.00  0.00    +0.000 HD
ATOM     17  H   UNL     1      29.615  25.816  47.529  0.00  0.00    +0.000 HD
ATOM     18  H   UNL     1      27.122  27.093  47.340  0.00  0.00    +0.000 HD
ATOM     19  H   UNL     1      27.536  25.743  48.408  0.00  0.00    +0.000 HD
ATOM     20  H   UNL     1      27.755  28.539  49.176  0.00  0.00    +0.000 HD
ATOM     21  H   UNL     1      28.530  25.934  50.327  0.00  0.00    +0.000 HD
ATOM     22  H   UNL     1      27.988  27.373  51.375  0.00  0.00    +0.000 HD
ATOM     23  H   UNL     1      29.582  28.776  50.276  0.00  0.00    +0.000 HD
ATOM     24  H   UNL     1      30.438  27.353  50.897  0.00  0.00    +0.000 HD
ENDBRANCH   1   4
BRANCH   1  25
ATOM     25  C   UNL     1      34.945  29.666  50.116  0.00  0.00    +0.000 C 
ATOM     26  H   UNL     1      35.120  29.540  51.217  0.00  0.00    +0.000 HD
ATOM     27  H   UNL     1      34.033  30.288  49.990  0.00  0.00    +0.000 HD
BRANCH  25  32
ATOM     28  C   UNL     1      37.521  32.280  49.553  0.00  0.00    +0.000 A 
ATOM     29  C   UNL     1      38.294  31.754  48.522  0.00  0.00    +0.000 A 
ATOM     30  C   UNL     1      37.918  30.504  48.032  0.00  0.00    +0.000 A 
ATOM     31  N   UNL     1      36.843  29.880  48.574  0.00  0.00    +0.000 NA
ATOM     32  C   UNL     1      36.133  30.442  49.574  0.00  0.00    +0.000 A 
ATOM     33  N   UNL     1      36.466  31.623  50.057  0.00  0.00    +0.000 NA
ATOM     34  H   UNL     1      37.794  33.258  49.956  0.00  0.00    +0.000 HD
ATOM     35  H   UNL     1      39.149  32.260  48.097  0.00  0.00    +0.000 HD
BRANCH  30  36
ATOM     36  C   UNL     1      38.636  29.835  46.954  0.00  0.00    +0.000 A 
ATOM     37  C   UNL     1      40.023  29.755  46.896  0.00  0.00    +0.000 A 
ATOM     38  H   UNL     1      40.709  30.172  47.630  0.00  0.00    +0.000 HD
ATOM     39  C   UNL     1      40.394  29.054  45.747  0.00  0.00    +0.000 A 
ATOM     40  H   UNL     1      41.436  28.870  45.496  0.00  0.00    +0.000 HD
ATOM     41  N   UNL     1      39.219  28.731  45.144  0.00  0.00    +0.000 N 
ATOM     42  H   UNL     1      39.242  28.201  44.260  0.00  0.00    +0.000 HD
ATOM     43  N   UNL     1      38.228  29.191  45.856  0.00  0.00    +0.000 NA
ENDBRANCH  30  36
ENDBRANCH  25  32
ENDBRANCH   1  25
TORSDOF 4
