
 OpenBabel03272506083D

 43 46  0  0  0  0  0  0  0  0999 V2000
   35.1910   28.7660   48.9540 C   0  0  0  0  0  0  0  0  0  0  0  0
   35.3100   27.9350   49.6820 H   0  0  0  0  0  0  0  0  0  0  0  0
   36.0770   28.7240   48.2890 H   0  0  0  0  0  0  0  0  0  0  0  0
   33.9370   28.5600   48.1420 C   0  0  0  0  0  0  0  0  0  0  0  0
   33.9650   28.8050   46.7150 C   0  0  0  0  0  0  0  0  0  0  0  0
   32.3000   28.4250   46.2740 S   0  0  0  0  0  0  0  0  0  0  0  0
   31.7660   27.9870   48.0190 C   0  0  0  0  0  0  0  0  0  0  0  0
   32.7890   28.1690   48.6040 N   0  0  0  0  0  0  0  0  0  0  0  0
   30.4890   27.5480   48.5580 N   0  0  0  0  0  0  0  0  0  0  0  0
   29.6630   26.7930   47.6640 C   0  0  0  0  0  0  0  0  0  0  0  0
   28.2280   26.7130   48.0770 C   0  0  0  0  0  0  0  0  0  0  0  0
   27.9060   27.5610   49.2280 N   0  0  0  0  0  0  0  0  0  0  0  0
   28.8590   27.1950   50.2600 C   0  0  0  0  0  0  0  0  0  0  0  0
   30.1500   27.8900   49.9100 C   0  0  0  0  0  0  0  0  0  0  0  0
   34.7990   29.1260   46.1580 H   0  0  0  0  0  0  0  0  0  0  0  0
   29.7090   27.2840   46.6690 H   0  0  0  0  0  0  0  0  0  0  0  0
   30.0780   25.7700   47.4880 H   0  0  0  0  0  0  0  0  0  0  0  0
   27.5140   26.8900   47.2600 H   0  0  0  0  0  0  0  0  0  0  0  0
   28.0320   25.6760   48.4390 H   0  0  0  0  0  0  0  0  0  0  0  0
   28.1180   28.5420   48.9240 H   0  0  0  0  0  0  0  0  0  0  0  0
   29.0680   26.1070   50.2960 H   0  0  0  0  0  0  0  0  0  0  0  0
   28.4770   27.6120   51.2170 H   0  0  0  0  0  0  0  0  0  0  0  0
   29.9590   28.9810   49.9340 H   0  0  0  0  0  0  0  0  0  0  0  0
   30.9100   27.6730   50.6610 H   0  0  0  0  0  0  0  0  0  0  0  0
   35.1600   30.0480   49.6800 C   0  0  0  0  0  0  0  0  0  0  0  0
   35.2960   29.9060   50.7840 H   0  0  0  0  0  0  0  0  0  0  0  0
   34.2020   30.5890   49.5260 H   0  0  0  0  0  0  0  0  0  0  0  0
   37.8260   32.6300   49.5630 C   0  0  0  0  0  0  0  0  0  0  0  0
   38.3380   32.5060   48.2750 C   0  0  0  0  0  0  0  0  0  0  0  0
   37.7580   31.5350   47.4610 C   0  0  0  0  0  0  0  0  0  0  0  0
   36.7480   30.7770   47.9560 N   0  0  0  0  0  0  0  0  0  0  0  0
   36.2950   30.9440   49.2150 C   0  0  0  0  0  0  0  0  0  0  0  0
   36.8250   31.8560   50.0080 N   0  0  0  0  0  0  0  0  0  0  0  0
   38.2630   33.3840   50.2230 H   0  0  0  0  0  0  0  0  0  0  0  0
   39.1440   33.1150   47.8900 H   0  0  0  0  0  0  0  0  0  0  0  0
   38.1940   31.2970   46.0900 C   0  0  0  0  0  0  0  0  0  0  0  0
   37.9380   32.1760   45.0440 C   0  0  0  0  0  0  0  0  0  0  0  0
   37.3960   33.1150   45.1310 H   0  0  0  0  0  0  0  0  0  0  0  0
   38.4840   31.6610   43.8670 C   0  0  0  0  0  0  0  0  0  0  0  0
   38.4030   32.1840   42.9180 H   0  0  0  0  0  0  0  0  0  0  0  0
   39.0570   30.4850   44.2380 N   0  0  0  0  0  0  0  0  0  0  0  0
   39.5330   29.9150   43.5220 H   0  0  0  0  0  0  0  0  0  0  0  0
   38.8760   30.3000   45.5160 N   0  0  0  0  0  0  0  0  0  0  0  0
  1 25  1  0  0  0  0
  1  2  1  0  0  0  0
  3  1  1  0  0  0  0
  4  8  1  0  0  0  0
  4  1  1  0  0  0  0
  5  4  2  0  0  0  0
  6  5  1  0  0  0  0
  6  7  1  0  0  0  0
  7  9  1  0  0  0  0
  7  8  2  0  0  0  0
  9 14  1  0  0  0  0
 10 11  1  0  0  0  0
 10  9  1  0  0  0  0
 11 19  1  0  0  0  0
 11 12  1  0  0  0  0
 12 13  1  0  0  0  0
 13 21  1  0  0  0  0
 13 22  1  0  0  0  0
 14 23  1  0  0  0  0
 14 13  1  0  0  0  0
 14 24  1  0  0  0  0
 15  5  1  0  0  0  0
 16 10  1  0  0  0  0
 17 10  1  0  0  0  0
 18 11  1  0  0  0  0
 20 12  1  0  0  0  0
 25 26  1  0  0  0  0
 27 25  1  0  0  0  0
 28 33  1  0  0  0  0
 28 34  1  0  0  0  0
 29 28  2  0  0  0  0
 30 31  2  0  0  0  0
 30 29  1  0  0  0  0
 31 32  1  0  0  0  0
 32 25  1  0  0  0  0
 32 33  2  0  0  0  0
 35 29  1  0  0  0  0
 36 30  1  0  0  0  0
 37 38  1  0  0  0  0
 37 36  1  0  0  0  0
 39 41  1  0  0  0  0
 39 37  2  0  0  0  0
 40 39  1  0  0  0  0
 41 43  1  0  0  0  0
 42 41  1  0  0  0  0
 43 36  2  0  0  0  0
M  END
>  <minimizedAffinity>
-6.12909651

>  <minimizedRMSD>
1.18252444

$$$$
