
 OpenBabel03272506083D

 43 46  0  0  0  0  0  0  0  0999 V2000
   35.6290   29.0920   48.8750 C   0  0  0  0  0  0  0  0  0  0  0  0
   35.7300   28.2640   49.6080 H   0  0  0  0  0  0  0  0  0  0  0  0
   36.5350   29.0490   48.2350 H   0  0  0  0  0  0  0  0  0  0  0  0
   34.4000   28.8790   48.0260 C   0  0  0  0  0  0  0  0  0  0  0  0
   34.4400   29.2160   46.6190 C   0  0  0  0  0  0  0  0  0  0  0  0
   32.8040   28.7860   46.1220 S   0  0  0  0  0  0  0  0  0  0  0  0
   32.2630   28.2130   47.8240 C   0  0  0  0  0  0  0  0  0  0  0  0
   33.2660   28.4050   48.4400 N   0  0  0  0  0  0  0  0  0  0  0  0
   30.9990   27.6800   48.3100 N   0  0  0  0  0  0  0  0  0  0  0  0
   30.2260   26.9450   47.3540 C   0  0  0  0  0  0  0  0  0  0  0  0
   28.7900   26.7710   47.7330 C   0  0  0  0  0  0  0  0  0  0  0  0
   28.4080   27.5280   48.9280 N   0  0  0  0  0  0  0  0  0  0  0  0
   29.3610   27.1420   49.9540 C   0  0  0  0  0  0  0  0  0  0  0  0
   30.6220   27.9180   49.6740 C   0  0  0  0  0  0  0  0  0  0  0  0
   35.2670   29.6110   46.0990 H   0  0  0  0  0  0  0  0  0  0  0  0
   30.2650   27.5010   46.3930 H   0  0  0  0  0  0  0  0  0  0  0  0
   30.6930   25.9570   47.1220 H   0  0  0  0  0  0  0  0  0  0  0  0
   28.0820   26.9670   46.9140 H   0  0  0  0  0  0  0  0  0  0  0  0
   28.6390   25.7050   48.0250 H   0  0  0  0  0  0  0  0  0  0  0  0
   28.5770   28.5350   48.6910 H   0  0  0  0  0  0  0  0  0  0  0  0
   29.6210   26.0650   49.9250 H   0  0  0  0  0  0  0  0  0  0  0  0
   28.9430   27.4790   50.9280 H   0  0  0  0  0  0  0  0  0  0  0  0
   30.3780   28.9960   49.7630 H   0  0  0  0  0  0  0  0  0  0  0  0
   31.3790   27.6910   50.4240 H   0  0  0  0  0  0  0  0  0  0  0  0
   35.5740   30.3770   49.5940 C   0  0  0  0  0  0  0  0  0  0  0  0
   35.6770   30.2380   50.7020 H   0  0  0  0  0  0  0  0  0  0  0  0
   34.6190   30.9140   49.4100 H   0  0  0  0  0  0  0  0  0  0  0  0
   38.0620   33.1270   49.4250 C   0  0  0  0  0  0  0  0  0  0  0  0
   38.8050   32.8210   48.2890 C   0  0  0  0  0  0  0  0  0  0  0  0
   38.4390   31.6690   47.5930 C   0  0  0  0  0  0  0  0  0  0  0  0
   37.4020   30.9250   48.0500 N   0  0  0  0  0  0  0  0  0  0  0  0
   36.7200   31.2740   49.1600 C   0  0  0  0  0  0  0  0  0  0  0  0
   37.0440   32.3580   49.8380 N   0  0  0  0  0  0  0  0  0  0  0  0
   38.3280   34.0240   49.9900 H   0  0  0  0  0  0  0  0  0  0  0  0
   39.6300   33.4210   47.9330 H   0  0  0  0  0  0  0  0  0  0  0  0
   39.1280   31.2290   46.3860 C   0  0  0  0  0  0  0  0  0  0  0  0
   40.2190   31.9000   45.8430 C   0  0  0  0  0  0  0  0  0  0  0  0
   40.6660   32.8040   46.2470 H   0  0  0  0  0  0  0  0  0  0  0  0
   40.6450   31.2270   44.6960 C   0  0  0  0  0  0  0  0  0  0  0  0
   41.4880   31.5750   44.1060 H   0  0  0  0  0  0  0  0  0  0  0  0
   39.7990   30.1680   44.5800 N   0  0  0  0  0  0  0  0  0  0  0  0
   39.9230   29.5160   43.7920 H   0  0  0  0  0  0  0  0  0  0  0  0
   38.9410   30.1940   45.5620 N   0  0  0  0  0  0  0  0  0  0  0  0
  1 25  1  0  0  0  0
  1  2  1  0  0  0  0
  3  1  1  0  0  0  0
  4  8  1  0  0  0  0
  4  1  1  0  0  0  0
  5  4  2  0  0  0  0
  6  5  1  0  0  0  0
  6  7  1  0  0  0  0
  7  9  1  0  0  0  0
  7  8  2  0  0  0  0
  9 14  1  0  0  0  0
 10 11  1  0  0  0  0
 10  9  1  0  0  0  0
 11 19  1  0  0  0  0
 11 12  1  0  0  0  0
 12 13  1  0  0  0  0
 13 22  1  0  0  0  0
 14 23  1  0  0  0  0
 14 13  1  0  0  0  0
 14 24  1  0  0  0  0
 15  5  1  0  0  0  0
 16 10  1  0  0  0  0
 17 10  1  0  0  0  0
 18 11  1  0  0  0  0
 20 12  1  0  0  0  0
 21 13  1  0  0  0  0
 25 26  1  0  0  0  0
 27 25  1  0  0  0  0
 28 33  1  0  0  0  0
 28 34  1  0  0  0  0
 29 28  2  0  0  0  0
 30 31  2  0  0  0  0
 30 29  1  0  0  0  0
 31 32  1  0  0  0  0
 32 25  1  0  0  0  0
 32 33  2  0  0  0  0
 35 29  1  0  0  0  0
 36 30  1  0  0  0  0
 37 38  1  0  0  0  0
 37 36  1  0  0  0  0
 39 37  2  0  0  0  0
 40 39  1  0  0  0  0
 41 39  1  0  0  0  0
 41 43  1  0  0  0  0
 42 41  1  0  0  0  0
 43 36  2  0  0  0  0
M  END
>  <minimizedAffinity>
-6.40208626

>  <minimizedRMSD>
1.27841485

$$$$
