
 OpenBabel03272508293D

 31 33  0  0  1  0  0  0  0  0999 V2000
   37.6080   30.5160   46.7910 N   0  0  0  0  0  0  0  0  0  0  0  0
   37.0620   30.2080   45.4540 C   0  0  0  0  0  0  0  0  0  0  0  0
   38.1010   30.2090   44.3930 C   0  0  0  0  0  0  0  0  0  0  0  0
   39.4120   30.0430   44.9570 N   0  0  0  0  0  0  0  0  0  0  0  0
   39.6720   31.2640   45.7110 C   0  0  0  0  0  0  0  0  0  0  0  0
   38.9300   31.0480   47.0060 C   0  0  1  0  0  0  0  0  0  0  0  0
   36.3320   31.0230   45.2540 H   0  0  0  0  0  0  0  0  0  0  0  0
   36.4760   29.2850   45.5250 H   0  0  0  0  0  0  0  0  0  0  0  0
   37.9510   29.3800   43.6600 H   0  0  0  0  0  0  0  0  0  0  0  0
   38.1370   31.1530   43.7930 H   0  0  0  0  0  0  0  0  0  0  0  0
   40.0960   29.8660   44.2030 H   0  0  0  0  0  0  0  0  0  0  0  0
   40.7520   31.3770   45.9360 H   0  0  0  0  0  0  0  0  0  0  0  0
   39.2400   32.1620   45.2360 H   0  0  0  0  0  0  0  0  0  0  0  0
   39.4890   30.2090   47.5150 H   0  0  0  0  0  0  0  0  0  0  0  0
   37.2780   29.5810   49.0400 C   0  0  0  0  0  0  0  0  0  0  0  0
   36.7920   30.2760   47.9220 C   0  0  0  0  0  0  0  0  0  0  0  0
   35.4790   30.7180   47.9710 C   0  0  0  0  0  0  0  0  0  0  0  0
   34.7230   30.4660   49.0840 N   0  0  0  0  0  0  0  0  0  0  0  0
   35.2420   29.7890   50.1370 C   0  0  0  0  0  0  0  0  0  0  0  0
   36.5250   29.3350   50.1370 N   0  0  0  0  0  0  0  0  0  0  0  0
   38.2790   29.2180   49.0570 H   0  0  0  0  0  0  0  0  0  0  0  0
   35.0360   31.2570   47.1570 H   0  0  0  0  0  0  0  0  0  0  0  0
   34.5840   29.6320   50.9710 H   0  0  0  0  0  0  0  0  0  0  0  0
   38.9730   32.2200   47.9010 C   0  0  0  0  0  0  0  0  0  0  0  0
   38.6340   32.2440   49.2530 C   0  0  0  0  0  0  0  0  0  0  0  0
   38.2910   31.4480   49.8760 H   0  0  0  0  0  0  0  0  0  0  0  0
   38.8150   33.5400   49.7160 C   0  0  0  0  0  0  0  0  0  0  0  0
   38.6790   34.0080   50.6800 H   0  0  0  0  0  0  0  0  0  0  0  0
   39.2470   34.2310   48.6480 N   0  0  0  0  0  0  0  0  0  0  0  0
   39.5120   35.2430   48.5250 H   0  0  0  0  0  0  0  0  0  0  0  0
   39.3510   33.4840   47.5610 N   0  0  0  0  0  0  0  0  0  0  0  0
  1  6  1  0  0  0  0
  1 16  1  0  0  0  0
  2  8  1  0  0  0  0
  2  1  1  0  0  0  0
  3  4  1  0  0  0  0
  3  2  1  0  0  0  0
  4  5  1  0  0  0  0
  5 12  1  0  0  0  0
  5  6  1  0  0  0  0
  6 14  1  1  0  0  0
  6 24  1  0  0  0  0
  7  2  1  0  0  0  0
  9  3  1  0  0  0  0
 10  3  1  0  0  0  0
 11  4  1  0  0  0  0
 13  5  1  0  0  0  0
 15 21  1  0  0  0  0
 15 20  1  0  0  0  0
 16 17  1  0  0  0  0
 16 15  2  0  0  0  0
 17 18  2  0  0  0  0
 18 19  1  0  0  0  0
 19 20  2  0  0  0  0
 19 23  1  0  0  0  0
 22 17  1  0  0  0  0
 24 25  1  0  0  0  0
 25 27  2  0  0  0  0
 25 26  1  0  0  0  0
 27 28  1  0  0  0  0
 29 27  1  0  0  0  0
 30 29  1  0  0  0  0
 31 24  2  0  0  0  0
 31 29  1  0  0  0  0
M  END
>  <minimizedAffinity>
-4.73121691

>  <minimizedRMSD>
2.23711371

$$$$
