
 OpenBabel03262522443D

 36 39  0  0  1  0  0  0  0  0999 V2000
   36.8760   31.8270   43.6230 C   0  0  1  0  0  0  0  0  0  0  0  0
   35.5710   31.2390   43.6630 C   0  0  0  0  0  0  0  0  0  0  0  0
   36.6740   30.4720   44.3790 C   0  0  2  0  0  0  0  0  0  0  0  0
   37.2770   32.5610   44.3670 H   0  0  0  0  0  0  0  0  0  0  0  0
   35.1050   30.7500   42.7860 H   0  0  0  0  0  0  0  0  0  0  0  0
   34.7840   31.6670   44.3300 H   0  0  0  0  0  0  0  0  0  0  0  0
   36.7120   29.4870   43.9150 H   0  0  0  0  0  0  0  0  0  0  0  0
   34.0860   29.5610   45.8180 Cl  0  0  0  0  0  0  0  0  0  0  0  0
   35.5060   30.1150   46.6550 C   0  0  0  0  0  0  0  0  0  0  0  0
   36.5290   30.5240   45.8310 C   0  0  0  0  0  0  0  0  0  0  0  0
   37.6630   30.9880   46.4770 C   0  0  0  0  0  0  0  0  0  0  0  0
   37.7680   31.0410   47.8730 C   0  0  0  0  0  0  0  0  0  0  0  0
   36.6790   30.6060   48.6610 C   0  0  0  0  0  0  0  0  0  0  0  0
   36.6730   30.6560   50.4080 Cl  0  0  0  0  0  0  0  0  0  0  0  0
   35.5360   30.1370   48.0070 C   0  0  0  0  0  0  0  0  0  0  0  0
   38.6090   31.3650   46.1580 H   0  0  0  0  0  0  0  0  0  0  0  0
   38.5780   31.3720   48.4950 H   0  0  0  0  0  0  0  0  0  0  0  0
   34.6750   29.7920   48.5710 H   0  0  0  0  0  0  0  0  0  0  0  0
   37.1320   31.7980   41.0460 C   0  0  0  0  0  0  0  0  0  0  0  0
   37.7070   31.7440   42.3810 C   0  0  0  0  0  0  0  0  0  0  0  0
   39.0500   31.6660   42.5050 C   0  0  0  0  0  0  0  0  0  0  0  0
   39.8020   31.6380   41.3370 N   0  0  0  0  0  0  0  0  0  0  0  0
   39.2490   31.6870   40.1140 C   0  0  0  0  0  0  0  0  0  0  0  0
   37.9250   31.7680   39.9790 N   0  0  0  0  0  0  0  0  0  0  0  0
   40.0380   31.6310   38.9410 N   0  0  0  0  0  0  0  0  0  0  0  0
   36.0710   31.8600   41.0370 H   0  0  0  0  0  0  0  0  0  0  0  0
   40.5640   32.5270   38.8800 H   0  0  0  0  0  0  0  0  0  0  0  0
   40.1710   30.9080   38.1900 H   0  0  0  0  0  0  0  0  0  0  0  0
   39.9250   31.6200   43.6550 C   0  0  0  0  0  0  0  0  0  0  0  0
   40.1950   32.7500   44.4360 C   0  0  0  0  0  0  0  0  0  0  0  0
   39.8080   33.7650   44.2490 H   0  0  0  0  0  0  0  0  0  0  0  0
   41.0220   32.4690   45.5030 C   0  0  0  0  0  0  0  0  0  0  0  0
   41.3630   33.1860   46.2360 H   0  0  0  0  0  0  0  0  0  0  0  0
   41.2530   31.1530   45.3620 N   0  0  0  0  0  0  0  0  0  0  0  0
   41.8570   30.5850   46.0140 H   0  0  0  0  0  0  0  0  0  0  0  0
   40.6290   30.6930   44.3190 N   0  0  0  0  0  0  0  0  0  0  0  0
  1  2  1  0  0  0  0
  1  4  1  1  0  0  0
  1  3  1  0  0  0  0
  2  6  1  0  0  0  0
  2  3  1  0  0  0  0
  3  7  1  6  0  0  0
  3 10  1  0  0  0  0
  5  2  1  0  0  0  0
  8  9  1  0  0  0  0
  9 15  1  0  0  0  0
 10 11  1  0  0  0  0
 10  9  2  0  0  0  0
 11 12  2  0  0  0  0
 12 17  1  0  0  0  0
 12 13  1  0  0  0  0
 13 14  1  0  0  0  0
 15 18  1  0  0  0  0
 15 13  2  0  0  0  0
 16 11  1  0  0  0  0
 19 20  1  0  0  0  0
 20 21  2  0  0  0  0
 20  1  1  0  0  0  0
 21 29  1  0  0  0  0
 22 21  1  0  0  0  0
 23 22  2  0  0  0  0
 24 23  1  0  0  0  0
 24 19  2  0  0  0  0
 25 23  1  0  0  0  0
 26 19  1  0  0  0  0
 27 25  1  0  0  0  0
 28 25  1  0  0  0  0
 29 36  2  0  0  0  0
 29 30  1  0  0  0  0
 30 32  2  0  0  0  0
 31 30  1  0  0  0  0
 32 33  1  0  0  0  0
 34 32  1  0  0  0  0
 34 35  1  0  0  0  0
 36 34  1  0  0  0  0
M  END
>  <minimizedAffinity>
-5.38509417

>  <minimizedRMSD>
2.46934915

$$$$
