
 OpenBabel03262522463D

 36 39  0  0  1  0  0  0  0  0999 V2000
   41.3400   24.5150   35.4440 C   0  0  1  0  0  0  0  0  0  0  0  0
   41.7450   24.9360   34.1360 C   0  0  0  0  0  0  0  0  0  0  0  0
   40.3060   24.4580   34.2700 C   0  0  2  0  0  0  0  0  0  0  0  0
   40.9060   25.1810   36.2310 H   0  0  0  0  0  0  0  0  0  0  0  0
   42.4180   24.3360   33.4940 H   0  0  0  0  0  0  0  0  0  0  0  0
   41.8630   26.0230   33.9100 H   0  0  0  0  0  0  0  0  0  0  0  0
   40.1950   23.6250   33.5760 H   0  0  0  0  0  0  0  0  0  0  0  0
   39.5290   25.7120   31.5460 Cl  0  0  0  0  0  0  0  0  0  0  0  0
   38.8280   26.1980   33.0610 C   0  0  0  0  0  0  0  0  0  0  0  0
   39.3480   25.5550   34.1610 C   0  0  0  0  0  0  0  0  0  0  0  0
   38.8170   25.9410   35.3810 C   0  0  0  0  0  0  0  0  0  0  0  0
   37.8210   26.9190   35.4950 C   0  0  0  0  0  0  0  0  0  0  0  0
   37.3330   27.5410   34.3250 C   0  0  0  0  0  0  0  0  0  0  0  0
   36.1180   28.7990   34.3380 Cl  0  0  0  0  0  0  0  0  0  0  0  0
   37.8680   27.1500   33.0950 C   0  0  0  0  0  0  0  0  0  0  0  0
   38.9820   25.6550   36.3960 H   0  0  0  0  0  0  0  0  0  0  0  0
   37.3280   27.3070   36.3660 H   0  0  0  0  0  0  0  0  0  0  0  0
   37.5220   27.6000   32.1690 H   0  0  0  0  0  0  0  0  0  0  0  0
   43.1160   22.6650   35.8050 C   0  0  0  0  0  0  0  0  0  0  0  0
   41.7670   23.1840   35.9780 C   0  0  0  0  0  0  0  0  0  0  0  0
   40.8810   22.4580   36.6930 C   0  0  0  0  0  0  0  0  0  0  0  0
   41.3180   21.2480   37.2190 N   0  0  0  0  0  0  0  0  0  0  0  0
   42.5670   20.7870   37.0450 C   0  0  0  0  0  0  0  0  0  0  0  0
   43.4520   21.4960   36.3440 N   0  0  0  0  0  0  0  0  0  0  0  0
   42.9760   19.5390   37.5690 N   0  0  0  0  0  0  0  0  0  0  0  0
   43.7500   23.2970   35.2320 H   0  0  0  0  0  0  0  0  0  0  0  0
   43.0190   19.6390   38.6040 H   0  0  0  0  0  0  0  0  0  0  0  0
   43.2220   18.6140   37.1350 H   0  0  0  0  0  0  0  0  0  0  0  0
   39.5040   22.6880   37.0670 C   0  0  0  0  0  0  0  0  0  0  0  0
   39.1470   23.2980   38.2750 C   0  0  0  0  0  0  0  0  0  0  0  0
   39.8500   23.6290   39.0570 H   0  0  0  0  0  0  0  0  0  0  0  0
   37.7840   23.4530   38.4070 C   0  0  0  0  0  0  0  0  0  0  0  0
   37.2820   23.8970   39.2550 H   0  0  0  0  0  0  0  0  0  0  0  0
   37.3130   22.9310   37.2620 N   0  0  0  0  0  0  0  0  0  0  0  0
   36.2900   22.8790   37.0110 H   0  0  0  0  0  0  0  0  0  0  0  0
   38.2930   22.5060   36.5220 N   0  0  0  0  0  0  0  0  0  0  0  0
  1 20  1  0  0  0  0
  1  4  1  1  0  0  0
  2  3  1  0  0  0  0
  2  1  1  0  0  0  0
  3  7  1  6  0  0  0
  3  1  1  0  0  0  0
  5  2  1  0  0  0  0
  6  2  1  0  0  0  0
  8  9  1  0  0  0  0
  9 15  2  0  0  0  0
  9 10  1  0  0  0  0
 10  3  1  0  0  0  0
 10 11  2  0  0  0  0
 11 12  1  0  0  0  0
 11 16  1  0  0  0  0
 12 17  1  0  0  0  0
 13 14  1  0  0  0  0
 13 12  2  0  0  0  0
 15 13  1  0  0  0  0
 18 15  1  0  0  0  0
 19 20  2  0  0  0  0
 19 24  1  0  0  0  0
 20 21  1  0  0  0  0
 21 29  1  0  0  0  0
 21 22  2  0  0  0  0
 23 22  1  0  0  0  0
 23 25  1  0  0  0  0
 24 23  2  0  0  0  0
 25 27  1  0  0  0  0
 26 19  1  0  0  0  0
 28 25  1  0  0  0  0
 29 30  1  0  0  0  0
 30 32  2  0  0  0  0
 30 31  1  0  0  0  0
 32 33  1  0  0  0  0
 34 32  1  0  0  0  0
 35 34  1  0  0  0  0
 36 29  2  0  0  0  0
 36 34  1  0  0  0  0
M  END
>  <minimizedAffinity>
-5.82546568

$$$$

 OpenBabel03262522463D

 36 39  0  0  1  0  0  0  0  0999 V2000
   36.1800   28.8050   32.4820 C   0  0  1  0  0  0  0  0  0  0  0  0
   35.4870   29.6750   31.5780 C   0  0  0  0  0  0  0  0  0  0  0  0
   34.7740   29.3640   32.8870 C   0  0  2  0  0  0  0  0  0  0  0  0
   36.9030   29.1350   33.2690 H   0  0  0  0  0  0  0  0  0  0  0  0
   35.0100   29.3150   30.6470 H   0  0  0  0  0  0  0  0  0  0  0  0
   35.8160   30.7350   31.4600 H   0  0  0  0  0  0  0  0  0  0  0  0
   33.8210   28.9110   32.6160 H   0  0  0  0  0  0  0  0  0  0  0  0
   32.8130   31.7250   32.4710 Cl  0  0  0  0  0  0  0  0  0  0  0  0
   33.9160   31.6180   33.8110 C   0  0  0  0  0  0  0  0  0  0  0  0
   34.7390   30.5170   33.7830 C   0  0  0  0  0  0  0  0  0  0  0  0
   35.6400   30.4220   34.8310 C   0  0  0  0  0  0  0  0  0  0  0  0
   35.7140   31.3790   35.8510 C   0  0  0  0  0  0  0  0  0  0  0  0
   34.8400   32.4880   35.8170 C   0  0  0  0  0  0  0  0  0  0  0  0
   34.8590   33.7660   37.0100 Cl  0  0  0  0  0  0  0  0  0  0  0  0
   33.9310   32.5810   34.7600 C   0  0  0  0  0  0  0  0  0  0  0  0
   36.3940   29.7210   35.1130 H   0  0  0  0  0  0  0  0  0  0  0  0
   36.3560   31.4270   36.7110 H   0  0  0  0  0  0  0  0  0  0  0  0
   33.2390   33.4150   34.6940 H   0  0  0  0  0  0  0  0  0  0  0  0
   35.5290   26.7030   31.1170 C   0  0  0  0  0  0  0  0  0  0  0  0
   36.2270   27.3310   32.2290 C   0  0  0  0  0  0  0  0  0  0  0  0
   36.9900   26.5600   33.0340 C   0  0  0  0  0  0  0  0  0  0  0  0
   37.0550   25.2010   32.7470 N   0  0  0  0  0  0  0  0  0  0  0  0
   36.4010   24.6430   31.7160 C   0  0  0  0  0  0  0  0  0  0  0  0
   35.6480   25.3940   30.9120 N   0  0  0  0  0  0  0  0  0  0  0  0
   36.4650   23.2520   31.4650 N   0  0  0  0  0  0  0  0  0  0  0  0
   34.9540   27.3790   30.5320 H   0  0  0  0  0  0  0  0  0  0  0  0
   37.4290   23.0430   31.1330 H   0  0  0  0  0  0  0  0  0  0  0  0
   35.7710   22.4660   31.5460 H   0  0  0  0  0  0  0  0  0  0  0  0
   37.8130   26.8610   34.1830 C   0  0  0  0  0  0  0  0  0  0  0  0
   39.1630   26.4980   34.2530 C   0  0  0  0  0  0  0  0  0  0  0  0
   39.7160   25.9380   33.4810 H   0  0  0  0  0  0  0  0  0  0  0  0
   39.7630   26.9180   35.4200 C   0  0  0  0  0  0  0  0  0  0  0  0
   40.7970   26.7500   35.6890 H   0  0  0  0  0  0  0  0  0  0  0  0
   38.7620   27.5430   36.0610 N   0  0  0  0  0  0  0  0  0  0  0  0
   38.8590   28.0010   37.0070 H   0  0  0  0  0  0  0  0  0  0  0  0
   37.6740   27.5010   35.3520 N   0  0  0  0  0  0  0  0  0  0  0  0
  1  3  1  0  0  0  0
  1  4  1  1  0  0  0
  2  1  1  0  0  0  0
  2  3  1  0  0  0  0
  3  7  1  6  0  0  0
  3 10  1  0  0  0  0
  5  2  1  0  0  0  0
  6  2  1  0  0  0  0
  8  9  1  0  0  0  0
  9 15  1  0  0  0  0
 10  9  2  0  0  0  0
 10 11  1  0  0  0  0
 11 16  1  0  0  0  0
 11 12  2  0  0  0  0
 12 17  1  0  0  0  0
 13 12  1  0  0  0  0
 13 14  1  0  0  0  0
 15 13  2  0  0  0  0
 18 15  1  0  0  0  0
 19 20  1  0  0  0  0
 20  1  1  0  0  0  0
 20 21  2  0  0  0  0
 21 29  1  0  0  0  0
 22 21  1  0  0  0  0
 23 22  2  0  0  0  0
 24 19  2  0  0  0  0
 24 23  1  0  0  0  0
 25 28  1  0  0  0  0
 25 23  1  0  0  0  0
 26 19  1  0  0  0  0
 27 25  1  0  0  0  0
 29 30  1  0  0  0  0
 29 36  2  0  0  0  0
 30 32  2  0  0  0  0
 31 30  1  0  0  0  0
 32 33  1  0  0  0  0
 32 34  1  0  0  0  0
 34 35  1  0  0  0  0
 36 34  1  0  0  0  0
M  END
>  <minimizedAffinity>
-5.7858305

$$$$

 OpenBabel03262522463D

 36 39  0  0  1  0  0  0  0  0999 V2000
   38.0190   27.1840   34.5800 C   0  0  1  0  0  0  0  0  0  0  0  0
   38.2290   27.2310   35.9960 C   0  0  0  0  0  0  0  0  0  0  0  0
   37.6780   25.9240   35.4430 C   0  0  2  0  0  0  0  0  0  0  0  0
   38.7810   26.8670   33.8240 H   0  0  0  0  0  0  0  0  0  0  0  0
   37.5750   27.8040   36.6810 H   0  0  0  0  0  0  0  0  0  0  0  0
   39.2640   27.1690   36.4100 H   0  0  0  0  0  0  0  0  0  0  0  0
   36.7290   25.7540   35.9500 H   0  0  0  0  0  0  0  0  0  0  0  0
   38.1530   24.2140   37.9820 Cl  0  0  0  0  0  0  0  0  0  0  0  0
   38.9780   23.9450   36.4750 C   0  0  0  0  0  0  0  0  0  0  0  0
   38.6640   24.8480   35.4860 C   0  0  0  0  0  0  0  0  0  0  0  0
   39.3250   24.6640   34.2820 C   0  0  0  0  0  0  0  0  0  0  0  0
   40.2520   23.6330   34.0810 C   0  0  0  0  0  0  0  0  0  0  0  0
   40.5290   22.7410   35.1400 C   0  0  0  0  0  0  0  0  0  0  0  0
   41.6900   21.4390   35.0240 Cl  0  0  0  0  0  0  0  0  0  0  0  0
   39.8600   22.9280   36.3520 C   0  0  0  0  0  0  0  0  0  0  0  0
   39.3170   25.1600   33.3380 H   0  0  0  0  0  0  0  0  0  0  0  0
   40.8270   23.3800   33.2090 H   0  0  0  0  0  0  0  0  0  0  0  0
   40.0410   22.2660   37.1950 H   0  0  0  0  0  0  0  0  0  0  0  0
   36.1630   28.9900   34.6030 C   0  0  0  0  0  0  0  0  0  0  0  0
   36.8400   27.8710   33.9650 C   0  0  0  0  0  0  0  0  0  0  0  0
   36.4210   27.4690   32.7460 C   0  0  0  0  0  0  0  0  0  0  0  0
   35.3540   28.1550   32.1760 N   0  0  0  0  0  0  0  0  0  0  0  0
   34.7420   29.1840   32.7850 C   0  0  0  0  0  0  0  0  0  0  0  0
   35.1500   29.5920   33.9860 N   0  0  0  0  0  0  0  0  0  0  0  0
   33.6420   29.8460   32.1920 N   0  0  0  0  0  0  0  0  0  0  0  0
   36.5560   29.2430   35.5580 H   0  0  0  0  0  0  0  0  0  0  0  0
   34.0060   30.3780   31.3750 H   0  0  0  0  0  0  0  0  0  0  0  0
   32.6150   29.8910   32.4140 H   0  0  0  0  0  0  0  0  0  0  0  0
   36.8760   26.4330   31.8470 C   0  0  0  0  0  0  0  0  0  0  0  0
   36.3530   25.1350   31.8730 C   0  0  0  0  0  0  0  0  0  0  0  0
   35.5870   24.7680   32.5770 H   0  0  0  0  0  0  0  0  0  0  0  0
   36.9020   24.3240   30.9040 C   0  0  0  0  0  0  0  0  0  0  0  0
   36.6510   23.2860   30.7390 H   0  0  0  0  0  0  0  0  0  0  0  0
   37.7670   25.1440   30.2850 N   0  0  0  0  0  0  0  0  0  0  0  0
   38.3770   24.8580   29.4730 H   0  0  0  0  0  0  0  0  0  0  0  0
   37.7390   26.3240   30.8270 N   0  0  0  0  0  0  0  0  0  0  0  0
  1  4  1  6  0  0  0
  1  3  1  0  0  0  0
  1  2  1  0  0  0  0
  2  6  1  0  0  0  0
  2  5  1  0  0  0  0
  3 10  1  0  0  0  0
  3  7  1  1  0  0  0
  3  2  1  0  0  0  0
  9  8  1  0  0  0  0
 10  9  2  0  0  0  0
 11 10  1  0  0  0  0
 12 11  2  0  0  0  0
 12 13  1  0  0  0  0
 13 15  2  0  0  0  0
 14 13  1  0  0  0  0
 15  9  1  0  0  0  0
 15 18  1  0  0  0  0
 16 11  1  0  0  0  0
 17 12  1  0  0  0  0
 19 26  1  0  0  0  0
 20  1  1  0  0  0  0
 20 19  2  0  0  0  0
 21 20  1  0  0  0  0
 22 21  2  0  0  0  0
 22 23  1  0  0  0  0
 23 24  2  0  0  0  0
 24 19  1  0  0  0  0
 25 28  1  0  0  0  0
 25 23  1  0  0  0  0
 27 25  1  0  0  0  0
 29 30  1  0  0  0  0
 29 21  1  0  0  0  0
 30 31  1  0  0  0  0
 32 30  2  0  0  0  0
 33 32  1  0  0  0  0
 34 36  1  0  0  0  0
 34 32  1  0  0  0  0
 35 34  1  0  0  0  0
 36 29  2  0  0  0  0
M  END
>  <minimizedAffinity>
-5.68598127

$$$$

 OpenBabel03262522463D

 36 39  0  0  1  0  0  0  0  0999 V2000
   38.4830   25.0560   33.9000 C   0  0  1  0  0  0  0  0  0  0  0  0
   38.4640   25.8370   35.1010 C   0  0  0  0  0  0  0  0  0  0  0  0
   38.0710   24.3740   35.2470 C   0  0  2  0  0  0  0  0  0  0  0  0
   39.3680   24.4970   33.5070 H   0  0  0  0  0  0  0  0  0  0  0  0
   37.6840   26.5920   35.3140 H   0  0  0  0  0  0  0  0  0  0  0  0
   39.4230   26.1210   35.5980 H   0  0  0  0  0  0  0  0  0  0  0  0
   37.0630   24.3680   35.6610 H   0  0  0  0  0  0  0  0  0  0  0  0
   38.1790   24.1950   38.3380 Cl  0  0  0  0  0  0  0  0  0  0  0  0
   39.2700   23.3400   37.2880 C   0  0  0  0  0  0  0  0  0  0  0  0
   39.0890   23.5960   35.9490 C   0  0  0  0  0  0  0  0  0  0  0  0
   39.9600   22.9400   35.0950 C   0  0  0  0  0  0  0  0  0  0  0  0
   40.9610   22.0760   35.5570 C   0  0  0  0  0  0  0  0  0  0  0  0
   41.0930   21.8580   36.9470 C   0  0  0  0  0  0  0  0  0  0  0  0
   42.3230   20.8320   37.6480 Cl  0  0  0  0  0  0  0  0  0  0  0  0
   40.2120   22.5190   37.8060 C   0  0  0  0  0  0  0  0  0  0  0  0
   40.0940   22.9080   34.0370 H   0  0  0  0  0  0  0  0  0  0  0  0
   41.6930   21.5100   35.0120 H   0  0  0  0  0  0  0  0  0  0  0  0
   40.2760   22.3820   38.8810 H   0  0  0  0  0  0  0  0  0  0  0  0
   36.7240   26.4540   32.6120 C   0  0  0  0  0  0  0  0  0  0  0  0
   37.3830   25.1880   32.8940 C   0  0  0  0  0  0  0  0  0  0  0  0
   37.0240   24.0980   32.1810 C   0  0  0  0  0  0  0  0  0  0  0  0
   36.0340   24.2580   31.2190 N   0  0  0  0  0  0  0  0  0  0  0  0
   35.4370   25.4370   30.9770 C   0  0  0  0  0  0  0  0  0  0  0  0
   35.7860   26.5210   31.6710 N   0  0  0  0  0  0  0  0  0  0  0  0
   34.4130   25.5650   30.0100 N   0  0  0  0  0  0  0  0  0  0  0  0
   37.0660   27.2610   33.2140 H   0  0  0  0  0  0  0  0  0  0  0  0
   34.8570   25.4510   29.0750 H   0  0  0  0  0  0  0  0  0  0  0  0
   33.3780   25.7390   30.0660 H   0  0  0  0  0  0  0  0  0  0  0  0
   37.4830   22.7280   32.1910 C   0  0  0  0  0  0  0  0  0  0  0  0
   38.5450   22.2880   31.3910 C   0  0  0  0  0  0  0  0  0  0  0  0
   39.1040   22.9090   30.6720 H   0  0  0  0  0  0  0  0  0  0  0  0
   38.8390   20.9560   31.5900 C   0  0  0  0  0  0  0  0  0  0  0  0
   39.6170   20.4040   31.0820 H   0  0  0  0  0  0  0  0  0  0  0  0
   37.9440   20.5890   32.5220 N   0  0  0  0  0  0  0  0  0  0  0  0
   37.8730   19.6170   32.9250 H   0  0  0  0  0  0  0  0  0  0  0  0
   37.1910   21.5970   32.8470 N   0  0  0  0  0  0  0  0  0  0  0  0
  1  4  1  6  0  0  0
  1  2  1  0  0  0  0
  1  3  1  0  0  0  0
  2  3  1  0  0  0  0
  2  5  1  0  0  0  0
  2  6  1  0  0  0  0
  3  7  1  1  0  0  0
  3 10  1  0  0  0  0
  9 15  1  0  0  0  0
  9  8  1  0  0  0  0
 10  9  2  0  0  0  0
 11 12  2  0  0  0  0
 11 10  1  0  0  0  0
 12 13  1  0  0  0  0
 13 14  1  0  0  0  0
 13 15  2  0  0  0  0
 15 18  1  0  0  0  0
 16 11  1  0  0  0  0
 17 12  1  0  0  0  0
 19 20  1  0  0  0  0
 19 26  1  0  0  0  0
 20  1  1  0  0  0  0
 21 29  1  0  0  0  0
 21 20  2  0  0  0  0
 22 21  1  0  0  0  0
 23 22  2  0  0  0  0
 23 24  1  0  0  0  0
 24 19  2  0  0  0  0
 25 28  1  0  0  0  0
 25 23  1  0  0  0  0
 27 25  1  0  0  0  0
 29 36  2  0  0  0  0
 30 32  2  0  0  0  0
 30 29  1  0  0  0  0
 31 30  1  0  0  0  0
 32 34  1  0  0  0  0
 33 32  1  0  0  0  0
 34 36  1  0  0  0  0
 34 35  1  0  0  0  0
M  END
>  <minimizedAffinity>
-5.66821814

$$$$

 OpenBabel03262522463D

 36 39  0  0  1  0  0  0  0  0999 V2000
   38.7450   26.6210   35.0560 C   0  0  1  0  0  0  0  0  0  0  0  0
   38.1670   26.6240   36.3660 C   0  0  0  0  0  0  0  0  0  0  0  0
   38.1280   25.2970   35.6200 C   0  0  2  0  0  0  0  0  0  0  0  0
   39.8190   26.4090   34.8240 H   0  0  0  0  0  0  0  0  0  0  0  0
   37.1950   27.1030   36.5930 H   0  0  0  0  0  0  0  0  0  0  0  0
   38.8250   26.6390   37.2680 H   0  0  0  0  0  0  0  0  0  0  0  0
   37.0770   25.0180   35.5470 H   0  0  0  0  0  0  0  0  0  0  0  0
   37.7540   24.1480   38.4730 Cl  0  0  0  0  0  0  0  0  0  0  0  0
   39.0200   23.6440   37.3930 C   0  0  0  0  0  0  0  0  0  0  0  0
   39.0450   24.3150   36.1920 C   0  0  0  0  0  0  0  0  0  0  0  0
   40.0580   23.9430   35.3250 C   0  0  0  0  0  0  0  0  0  0  0  0
   40.9980   22.9550   35.6420 C   0  0  0  0  0  0  0  0  0  0  0  0
   40.9170   22.3060   36.8940 C   0  0  0  0  0  0  0  0  0  0  0  0
   42.0500   21.0830   37.4210 Cl  0  0  0  0  0  0  0  0  0  0  0  0
   39.8930   22.6820   37.7670 C   0  0  0  0  0  0  0  0  0  0  0  0
   40.3570   24.2440   34.3460 H   0  0  0  0  0  0  0  0  0  0  0  0
   41.8240   22.5740   35.0700 H   0  0  0  0  0  0  0  0  0  0  0  0
   39.7910   22.2100   38.7400 H   0  0  0  0  0  0  0  0  0  0  0  0
   36.7470   27.9320   34.0580 C   0  0  0  0  0  0  0  0  0  0  0  0
   38.0080   27.2220   33.9010 C   0  0  0  0  0  0  0  0  0  0  0  0
   38.5610   27.1490   32.6710 C   0  0  0  0  0  0  0  0  0  0  0  0
   37.8790   27.7580   31.6230 N   0  0  0  0  0  0  0  0  0  0  0  0
   36.7150   28.4060   31.7910 C   0  0  0  0  0  0  0  0  0  0  0  0
   36.1620   28.4890   33.0010 N   0  0  0  0  0  0  0  0  0  0  0  0
   36.0310   28.9930   30.7020 N   0  0  0  0  0  0  0  0  0  0  0  0
   36.3820   27.9450   35.0560 H   0  0  0  0  0  0  0  0  0  0  0  0
   36.5910   29.8140   30.3930 H   0  0  0  0  0  0  0  0  0  0  0  0
   35.1360   28.7660   30.1980 H   0  0  0  0  0  0  0  0  0  0  0  0
   39.7850   26.5550   32.1820 C   0  0  0  0  0  0  0  0  0  0  0  0
   39.8620   25.2130   31.7910 C   0  0  0  0  0  0  0  0  0  0  0  0
   39.0370   24.4840   31.8410 H   0  0  0  0  0  0  0  0  0  0  0  0
   41.1120   24.8710   31.3220 C   0  0  0  0  0  0  0  0  0  0  0  0
   41.4020   23.8920   30.9680 H   0  0  0  0  0  0  0  0  0  0  0  0
   41.7960   26.0220   31.4310 N   0  0  0  0  0  0  0  0  0  0  0  0
   42.8080   26.1370   31.1570 H   0  0  0  0  0  0  0  0  0  0  0  0
   41.0350   26.9570   31.9150 N   0  0  0  0  0  0  0  0  0  0  0  0
  1  4  1  6  0  0  0
  1  3  1  0  0  0  0
  1  2  1  0  0  0  0
  2  5  1  0  0  0  0
  2  6  1  0  0  0  0
  3  7  1  6  0  0  0
  3 10  1  0  0  0  0
  3  2  1  0  0  0  0
  9 15  1  0  0  0  0
  9  8  1  0  0  0  0
 10  9  2  0  0  0  0
 11 12  2  0  0  0  0
 11 10  1  0  0  0  0
 12 13  1  0  0  0  0
 13 14  1  0  0  0  0
 13 15  2  0  0  0  0
 15 18  1  0  0  0  0
 16 11  1  0  0  0  0
 17 12  1  0  0  0  0
 19 26  1  0  0  0  0
 20 19  1  0  0  0  0
 20  1  1  0  0  0  0
 21 20  2  0  0  0  0
 22 23  2  0  0  0  0
 22 21  1  0  0  0  0
 23 24  1  0  0  0  0
 24 19  2  0  0  0  0
 25 23  1  0  0  0  0
 27 25  1  0  0  0  0
 28 25  1  0  0  0  0
 29 21  1  0  0  0  0
 30 31  1  0  0  0  0
 30 29  1  0  0  0  0
 32 34  1  0  0  0  0
 32 30  2  0  0  0  0
 33 32  1  0  0  0  0
 34 36  1  0  0  0  0
 35 34  1  0  0  0  0
 36 29  2  0  0  0  0
M  END
>  <minimizedAffinity>
-5.60612106

$$$$

 OpenBabel03262522463D

 36 39  0  0  1  0  0  0  0  0999 V2000
   36.6750   26.5720   32.5950 C   0  0  1  0  0  0  0  0  0  0  0  0
   36.9760   25.2250   32.2110 C   0  0  0  0  0  0  0  0  0  0  0  0
   38.0360   25.9380   33.0400 C   0  0  2  0  0  0  0  0  0  0  0  0
   36.1330   26.8720   33.5270 H   0  0  0  0  0  0  0  0  0  0  0  0
   37.2510   24.9430   31.1770 H   0  0  0  0  0  0  0  0  0  0  0  0
   36.4720   24.3710   32.7230 H   0  0  0  0  0  0  0  0  0  0  0  0
   38.9460   25.9330   32.4410 H   0  0  0  0  0  0  0  0  0  0  0  0
   38.0350   27.7750   35.5340 Cl  0  0  0  0  0  0  0  0  0  0  0  0
   38.0730   26.0390   35.6200 C   0  0  0  0  0  0  0  0  0  0  0  0
   38.1220   25.4090   34.3980 C   0  0  0  0  0  0  0  0  0  0  0  0
   38.1720   24.0260   34.4440 C   0  0  0  0  0  0  0  0  0  0  0  0
   38.1760   23.3110   35.6480 C   0  0  0  0  0  0  0  0  0  0  0  0
   38.1260   24.0200   36.8690 C   0  0  0  0  0  0  0  0  0  0  0  0
   38.1610   23.2440   38.4350 Cl  0  0  0  0  0  0  0  0  0  0  0  0
   38.0730   25.4150   36.8200 C   0  0  0  0  0  0  0  0  0  0  0  0
   38.2130   23.2510   33.7110 H   0  0  0  0  0  0  0  0  0  0  0  0
   38.2110   22.2510   35.8250 H   0  0  0  0  0  0  0  0  0  0  0  0
   38.0330   26.0020   37.7330 H   0  0  0  0  0  0  0  0  0  0  0  0
   37.6640   27.6190   30.4430 C   0  0  0  0  0  0  0  0  0  0  0  0
   36.7880   27.6860   31.6030 C   0  0  0  0  0  0  0  0  0  0  0  0
   36.0060   28.7760   31.7620 C   0  0  0  0  0  0  0  0  0  0  0  0
   36.0950   29.7760   30.8000 N   0  0  0  0  0  0  0  0  0  0  0  0
   36.9140   29.6930   29.7380 C   0  0  0  0  0  0  0  0  0  0  0  0
   37.6860   28.6210   29.5680 N   0  0  0  0  0  0  0  0  0  0  0  0
   37.0030   30.7380   28.7890 N   0  0  0  0  0  0  0  0  0  0  0  0
   38.2430   26.7280   30.3920 H   0  0  0  0  0  0  0  0  0  0  0  0
   36.1060   30.7510   28.2600 H   0  0  0  0  0  0  0  0  0  0  0  0
   37.7480   31.4380   28.5470 H   0  0  0  0  0  0  0  0  0  0  0  0
   35.0300   29.1420   32.7630 C   0  0  0  0  0  0  0  0  0  0  0  0
   35.3860   29.7710   33.9620 C   0  0  0  0  0  0  0  0  0  0  0  0
   36.4150   30.0170   34.2740 H   0  0  0  0  0  0  0  0  0  0  0  0
   34.2940   30.0640   34.7500 C   0  0  0  0  0  0  0  0  0  0  0  0
   34.3300   30.5470   35.7160 H   0  0  0  0  0  0  0  0  0  0  0  0
   33.2660   29.6080   34.0150 N   0  0  0  0  0  0  0  0  0  0  0  0
   32.2560   29.6650   34.3110 H   0  0  0  0  0  0  0  0  0  0  0  0
   33.6980   29.0930   32.9030 N   0  0  0  0  0  0  0  0  0  0  0  0
  1  3  1  0  0  0  0
  1  4  1  1  0  0  0
  2  1  1  0  0  0  0
  2  6  1  0  0  0  0
  2  3  1  0  0  0  0
  3  7  1  6  0  0  0
  3 10  1  0  0  0  0
  5  2  1  0  0  0  0
  8  9  1  0  0  0  0
  9 15  1  0  0  0  0
 10 11  1  0  0  0  0
 10  9  2  0  0  0  0
 11 12  2  0  0  0  0
 12 17  1  0  0  0  0
 12 13  1  0  0  0  0
 13 14  1  0  0  0  0
 15 13  2  0  0  0  0
 15 18  1  0  0  0  0
 16 11  1  0  0  0  0
 19 20  1  0  0  0  0
 20 21  2  0  0  0  0
 20  1  1  0  0  0  0
 21 29  1  0  0  0  0
 22 21  1  0  0  0  0
 23 22  2  0  0  0  0
 24 23  1  0  0  0  0
 24 19  2  0  0  0  0
 25 23  1  0  0  0  0
 26 19  1  0  0  0  0
 27 25  1  0  0  0  0
 28 25  1  0  0  0  0
 29 36  2  0  0  0  0
 29 30  1  0  0  0  0
 30 31  1  0  0  0  0
 30 32  2  0  0  0  0
 32 33  1  0  0  0  0
 34 35  1  0  0  0  0
 34 32  1  0  0  0  0
 36 34  1  0  0  0  0
M  END
>  <minimizedAffinity>
-5.59366941

$$$$

 OpenBabel03262522463D

 36 39  0  0  1  0  0  0  0  0999 V2000
   38.8510   24.7450   33.3790 C   0  0  1  0  0  0  0  0  0  0  0  0
   37.9210   24.1890   32.4420 C   0  0  0  0  0  0  0  0  0  0  0  0
   37.3460   25.1700   33.4530 C   0  0  2  0  0  0  0  0  0  0  0  0
   39.4470   25.6780   33.2210 H   0  0  0  0  0  0  0  0  0  0  0  0
   37.5660   23.1420   32.4970 H   0  0  0  0  0  0  0  0  0  0  0  0
   37.9150   24.5440   31.3830 H   0  0  0  0  0  0  0  0  0  0  0  0
   36.5710   24.6300   33.9960 H   0  0  0  0  0  0  0  0  0  0  0  0
   37.2660   27.8220   35.0520 Cl  0  0  0  0  0  0  0  0  0  0  0  0
   36.9370   27.7190   33.3480 C   0  0  0  0  0  0  0  0  0  0  0  0
   36.9720   26.4410   32.8380 C   0  0  0  0  0  0  0  0  0  0  0  0
   36.6950   26.3330   31.4860 C   0  0  0  0  0  0  0  0  0  0  0  0
   36.3950   27.4440   30.6860 C   0  0  0  0  0  0  0  0  0  0  0  0
   36.3740   28.7280   31.2740 C   0  0  0  0  0  0  0  0  0  0  0  0
   35.9810   30.1850   30.3910 Cl  0  0  0  0  0  0  0  0  0  0  0  0
   36.6570   28.8350   32.6380 C   0  0  0  0  0  0  0  0  0  0  0  0
   36.6410   25.5240   30.7920 H   0  0  0  0  0  0  0  0  0  0  0  0
   36.1650   27.5010   29.6380 H   0  0  0  0  0  0  0  0  0  0  0  0
   36.6530   29.8020   33.1320 H   0  0  0  0  0  0  0  0  0  0  0  0
   38.6180   22.7710   35.0390 C   0  0  0  0  0  0  0  0  0  0  0  0
   39.3380   23.9310   34.5370 C   0  0  0  0  0  0  0  0  0  0  0  0
   40.5190   24.2570   35.1050 C   0  0  0  0  0  0  0  0  0  0  0  0
   40.9720   23.4560   36.1470 N   0  0  0  0  0  0  0  0  0  0  0  0
   40.2890   22.3900   36.5960 C   0  0  0  0  0  0  0  0  0  0  0  0
   39.1250   22.0560   36.0400 N   0  0  0  0  0  0  0  0  0  0  0  0
   40.7620   21.6080   37.6750 N   0  0  0  0  0  0  0  0  0  0  0  0
   37.7000   22.5830   34.5360 H   0  0  0  0  0  0  0  0  0  0  0  0
   41.6000   21.0910   37.3380 H   0  0  0  0  0  0  0  0  0  0  0  0
   40.4430   21.4710   38.6680 H   0  0  0  0  0  0  0  0  0  0  0  0
   41.4760   25.3060   34.8390 C   0  0  0  0  0  0  0  0  0  0  0  0
   42.8470   25.0530   34.7040 C   0  0  0  0  0  0  0  0  0  0  0  0
   43.3290   24.0680   34.8130 H   0  0  0  0  0  0  0  0  0  0  0  0
   43.5680   26.1910   34.4140 C   0  0  0  0  0  0  0  0  0  0  0  0
   44.6380   26.2340   34.2680 H   0  0  0  0  0  0  0  0  0  0  0  0
   42.6200   27.1420   34.3730 N   0  0  0  0  0  0  0  0  0  0  0  0
   42.8100   28.1590   34.1710 H   0  0  0  0  0  0  0  0  0  0  0  0
   41.4520   26.6270   34.6140 N   0  0  0  0  0  0  0  0  0  0  0  0
  1  4  1  6  0  0  0
  1  3  1  0  0  0  0
  1 20  1  0  0  0  0
  2  5  1  0  0  0  0
  2  1  1  0  0  0  0
  2  3  1  0  0  0  0
  3  7  1  1  0  0  0
  6  2  1  0  0  0  0
  9  8  1  0  0  0  0
 10  9  1  0  0  0  0
 10  3  1  0  0  0  0
 11 10  2  0  0  0  0
 12 13  2  0  0  0  0
 12 11  1  0  0  0  0
 13 15  1  0  0  0  0
 14 13  1  0  0  0  0
 15 18  1  0  0  0  0
 15  9  2  0  0  0  0
 16 11  1  0  0  0  0
 17 12  1  0  0  0  0
 19 24  1  0  0  0  0
 20 19  2  0  0  0  0
 20 21  1  0  0  0  0
 21 22  2  0  0  0  0
 22 23  1  0  0  0  0
 23 25  1  0  0  0  0
 24 23  2  0  0  0  0
 25 28  1  0  0  0  0
 26 19  1  0  0  0  0
 27 25  1  0  0  0  0
 29 21  1  0  0  0  0
 30 31  1  0  0  0  0
 30 29  1  0  0  0  0
 32 30  2  0  0  0  0
 33 32  1  0  0  0  0
 34 32  1  0  0  0  0
 34 36  1  0  0  0  0
 35 34  1  0  0  0  0
 36 29  2  0  0  0  0
M  END
>  <minimizedAffinity>
-5.5550561

$$$$

 OpenBabel03262522463D

 36 39  0  0  1  0  0  0  0  0999 V2000
   36.9180   28.6690   31.7820 C   0  0  1  0  0  0  0  0  0  0  0  0
   36.5440   29.4710   30.6550 C   0  0  0  0  0  0  0  0  0  0  0  0
   35.6720   29.6110   31.8960 C   0  0  2  0  0  0  0  0  0  0  0  0
   37.6350   28.9770   32.5840 H   0  0  0  0  0  0  0  0  0  0  0  0
   36.0680   29.0490   29.7500 H   0  0  0  0  0  0  0  0  0  0  0  0
   37.1400   30.3780   30.3920 H   0  0  0  0  0  0  0  0  0  0  0  0
   34.6610   29.3460   31.5890 H   0  0  0  0  0  0  0  0  0  0  0  0
   34.8260   30.0970   34.8360 Cl  0  0  0  0  0  0  0  0  0  0  0  0
   35.6140   31.2950   33.8530 C   0  0  0  0  0  0  0  0  0  0  0  0
   35.8580   30.8990   32.5580 C   0  0  0  0  0  0  0  0  0  0  0  0
   36.4680   31.8450   31.7520 C   0  0  0  0  0  0  0  0  0  0  0  0
   36.8140   33.1210   32.2150 C   0  0  0  0  0  0  0  0  0  0  0  0
   36.5330   33.4650   33.5560 C   0  0  0  0  0  0  0  0  0  0  0  0
   36.8820   35.0340   34.2420 Cl  0  0  0  0  0  0  0  0  0  0  0  0
   35.9190   32.5080   34.3680 C   0  0  0  0  0  0  0  0  0  0  0  0
   36.7930   31.8700   30.7360 H   0  0  0  0  0  0  0  0  0  0  0  0
   37.2850   33.9400   31.7040 H   0  0  0  0  0  0  0  0  0  0  0  0
   35.6850   32.7270   35.4060 H   0  0  0  0  0  0  0  0  0  0  0  0
   35.7880   26.5590   30.7940 C   0  0  0  0  0  0  0  0  0  0  0  0
   36.6110   27.2050   31.8060 C   0  0  0  0  0  0  0  0  0  0  0  0
   37.1620   26.4430   32.7750 C   0  0  0  0  0  0  0  0  0  0  0  0
   36.9000   25.0790   32.7470 N   0  0  0  0  0  0  0  0  0  0  0  0
   36.1350   24.5040   31.8040 C   0  0  0  0  0  0  0  0  0  0  0  0
   35.5900   25.2440   30.8390 N   0  0  0  0  0  0  0  0  0  0  0  0
   35.8640   23.1160   31.8150 N   0  0  0  0  0  0  0  0  0  0  0  0
   35.3950   27.2280   30.0670 H   0  0  0  0  0  0  0  0  0  0  0  0
   36.7520   22.6270   31.5760 H   0  0  0  0  0  0  0  0  0  0  0  0
   35.0020   22.5450   32.0040 H   0  0  0  0  0  0  0  0  0  0  0  0
   38.0280   26.7550   33.8900 C   0  0  0  0  0  0  0  0  0  0  0  0
   37.5300   27.0540   35.1640 C   0  0  0  0  0  0  0  0  0  0  0  0
   36.4640   27.1120   35.4370 H   0  0  0  0  0  0  0  0  0  0  0  0
   38.5320   27.2790   36.0830 C   0  0  0  0  0  0  0  0  0  0  0  0
   38.3830   27.5260   37.1250 H   0  0  0  0  0  0  0  0  0  0  0  0
   39.6480   27.1130   35.3540 N   0  0  0  0  0  0  0  0  0  0  0  0
   40.6260   27.2100   35.7370 H   0  0  0  0  0  0  0  0  0  0  0  0
   39.3460   26.8190   34.1250 N   0  0  0  0  0  0  0  0  0  0  0  0
  1 20  1  0  0  0  0
  1  3  1  0  0  0  0
  1  4  1  1  0  0  0
  2  1  1  0  0  0  0
  2  3  1  0  0  0  0
  3  7  1  6  0  0  0
  3 10  1  0  0  0  0
  5  2  1  0  0  0  0
  6  2  1  0  0  0  0
  9 15  1  0  0  0  0
  9  8  1  0  0  0  0
 10  9  2  0  0  0  0
 11 12  2  0  0  0  0
 11 10  1  0  0  0  0
 12 13  1  0  0  0  0
 13 14  1  0  0  0  0
 13 15  2  0  0  0  0
 15 18  1  0  0  0  0
 16 11  1  0  0  0  0
 17 12  1  0  0  0  0
 19 24  2  0  0  0  0
 19 20  1  0  0  0  0
 20 21  2  0  0  0  0
 21 29  1  0  0  0  0
 22 21  1  0  0  0  0
 23 25  1  0  0  0  0
 23 22  2  0  0  0  0
 24 23  1  0  0  0  0
 25 28  1  0  0  0  0
 26 19  1  0  0  0  0
 27 25  1  0  0  0  0
 29 36  2  0  0  0  0
 29 30  1  0  0  0  0
 30 31  1  0  0  0  0
 30 32  2  0  0  0  0
 32 33  1  0  0  0  0
 34 35  1  0  0  0  0
 34 32  1  0  0  0  0
 36 34  1  0  0  0  0
M  END
>  <minimizedAffinity>
-5.51561403

$$$$

 OpenBabel03262522463D

 36 39  0  0  1  0  0  0  0  0999 V2000
   36.1920   29.0300   33.5150 C   0  0  1  0  0  0  0  0  0  0  0  0
   34.8500   29.1190   33.0230 C   0  0  0  0  0  0  0  0  0  0  0  0
   35.0160   29.2010   34.5340 C   0  0  2  0  0  0  0  0  0  0  0  0
   36.8840   29.8970   33.6650 H   0  0  0  0  0  0  0  0  0  0  0  0
   34.2980   28.2460   32.6230 H   0  0  0  0  0  0  0  0  0  0  0  0
   34.4940   30.0580   32.5350 H   0  0  0  0  0  0  0  0  0  0  0  0
   34.4280   28.3840   34.9510 H   0  0  0  0  0  0  0  0  0  0  0  0
   32.1590   30.3910   34.6820 Cl  0  0  0  0  0  0  0  0  0  0  0  0
   33.5760   31.2230   35.2510 C   0  0  0  0  0  0  0  0  0  0  0  0
   34.7550   30.5450   35.0450 C   0  0  0  0  0  0  0  0  0  0  0  0
   35.8990   31.1980   35.4730 C   0  0  0  0  0  0  0  0  0  0  0  0
   35.8650   32.4630   36.0720 C   0  0  0  0  0  0  0  0  0  0  0  0
   34.6190   33.1050   36.2520 C   0  0  0  0  0  0  0  0  0  0  0  0
   34.4490   34.6980   36.9540 Cl  0  0  0  0  0  0  0  0  0  0  0  0
   33.4670   32.4440   35.8220 C   0  0  0  0  0  0  0  0  0  0  0  0
   36.9410   30.9680   35.4710 H   0  0  0  0  0  0  0  0  0  0  0  0
   36.6650   33.0750   36.4460 H   0  0  0  0  0  0  0  0  0  0  0  0
   32.4880   32.8980   35.9400 H   0  0  0  0  0  0  0  0  0  0  0  0
   37.0210   26.9410   34.8010 C   0  0  0  0  0  0  0  0  0  0  0  0
   36.8930   27.7100   33.5720 C   0  0  0  0  0  0  0  0  0  0  0  0
   37.3810   27.1870   32.4260 C   0  0  0  0  0  0  0  0  0  0  0  0
   37.9850   25.9370   32.4980 N   0  0  0  0  0  0  0  0  0  0  0  0
   38.0940   25.2460   33.6440 C   0  0  0  0  0  0  0  0  0  0  0  0
   37.6130   25.7490   34.7800 N   0  0  0  0  0  0  0  0  0  0  0  0
   38.7380   23.9870   33.6910 N   0  0  0  0  0  0  0  0  0  0  0  0
   36.6100   27.4220   35.6550 H   0  0  0  0  0  0  0  0  0  0  0  0
   38.1260   23.3090   33.1910 H   0  0  0  0  0  0  0  0  0  0  0  0
   39.6420   23.6480   34.1070 H   0  0  0  0  0  0  0  0  0  0  0  0
   37.3980   27.6640   31.0620 C   0  0  0  0  0  0  0  0  0  0  0  0
   38.5870   27.9850   30.3950 C   0  0  0  0  0  0  0  0  0  0  0  0
   39.5980   27.9400   30.8330 H   0  0  0  0  0  0  0  0  0  0  0  0
   38.3720   28.3800   29.0930 C   0  0  0  0  0  0  0  0  0  0  0  0
   39.1400   28.6750   28.3920 H   0  0  0  0  0  0  0  0  0  0  0  0
   37.0360   28.2950   28.9730 N   0  0  0  0  0  0  0  0  0  0  0  0
   36.5050   28.5250   28.0910 H   0  0  0  0  0  0  0  0  0  0  0  0
   36.5060   27.8910   30.0880 N   0  0  0  0  0  0  0  0  0  0  0  0
  1 20  1  0  0  0  0
  1  4  1  6  0  0  0
  1  3  1  0  0  0  0
  2  1  1  0  0  0  0
  2  3  1  0  0  0  0
  3  7  1  1  0  0  0
  3 10  1  0  0  0  0
  5  2  1  0  0  0  0
  6  2  1  0  0  0  0
  8  9  1  0  0  0  0
  9 15  1  0  0  0  0
 10  9  2  0  0  0  0
 10 11  1  0  0  0  0
 11 12  2  0  0  0  0
 12 13  1  0  0  0  0
 12 17  1  0  0  0  0
 13 14  1  0  0  0  0
 15 18  1  0  0  0  0
 15 13  2  0  0  0  0
 16 11  1  0  0  0  0
 19 26  1  0  0  0  0
 20 19  2  0  0  0  0
 21 22  2  0  0  0  0
 21 20  1  0  0  0  0
 22 23  1  0  0  0  0
 23 25  1  0  0  0  0
 23 24  2  0  0  0  0
 24 19  1  0  0  0  0
 25 28  1  0  0  0  0
 27 25  1  0  0  0  0
 29 21  1  0  0  0  0
 30 31  1  0  0  0  0
 30 29  1  0  0  0  0
 32 30  2  0  0  0  0
 33 32  1  0  0  0  0
 34 32  1  0  0  0  0
 34 36  1  0  0  0  0
 35 34  1  0  0  0  0
 36 29  2  0  0  0  0
M  END
>  <minimizedAffinity>
-5.49323225

$$$$
