
 OpenBabel03272510283D

 44 48  0  0  1  0  0  0  0  0999 V2000
   35.1000   29.0720   32.7820 C   0  0  0  0  0  0  0  0  0  0  0  0
   35.6630   29.1420   34.0550 C   0  0  0  0  0  0  0  0  0  0  0  0
   36.6880   28.2880   34.4250 C   0  0  0  0  0  0  0  0  0  0  0  0
   37.1200   27.3700   33.4760 C   0  0  0  0  0  0  0  0  0  0  0  0
   38.1050   26.4340   33.6080 N   0  0  0  0  0  0  0  0  0  0  0  0
   38.1580   25.7820   32.4290 C   0  0  0  0  0  0  0  0  0  0  0  0
   37.2670   26.2660   31.5920 N   0  0  0  0  0  0  0  0  0  0  0  0
   36.5850   27.2700   32.2010 C   0  0  0  0  0  0  0  0  0  0  0  0
   35.5500   28.1450   31.8510 C   0  0  0  0  0  0  0  0  0  0  0  0
   34.2970   29.7220   32.4550 H   0  0  0  0  0  0  0  0  0  0  0  0
   37.1190   28.3480   35.4130 H   0  0  0  0  0  0  0  0  0  0  0  0
   38.6930   26.2670   34.4620 H   0  0  0  0  0  0  0  0  0  0  0  0
   35.1440   28.0550   30.8530 H   0  0  0  0  0  0  0  0  0  0  0  0
   35.2560   31.9610   36.5010 C   0  0  0  0  0  0  0  0  0  0  0  0
   35.8900   31.0440   35.6640 C   0  0  0  0  0  0  0  0  0  0  0  0
   35.1170   30.1370   34.9490 C   0  0  0  0  0  0  0  0  0  0  0  0
   33.7670   30.2040   35.1140 N   0  0  0  0  0  0  0  0  0  0  0  0
   33.1600   31.0870   35.9200 C   0  0  0  0  0  0  0  0  0  0  0  0
   33.8950   31.9510   36.6010 N   0  0  0  0  0  0  0  0  0  0  0  0
   35.9340   32.6290   37.0200 H   0  0  0  0  0  0  0  0  0  0  0  0
   36.9480   31.0150   35.5560 H   0  0  0  0  0  0  0  0  0  0  0  0
   32.0850   31.0920   36.0090 H   0  0  0  0  0  0  0  0  0  0  0  0
   39.0720   24.7430   32.2110 O   0  0  0  0  0  0  0  0  0  0  0  0
   39.0150   23.7580   34.2700 N   0  0  0  0  0  0  0  0  0  0  0  0
   38.7670   23.5030   32.8360 C   0  0  1  0  0  0  0  0  0  0  0  0
   37.3690   23.1270   32.6630 C   0  0  0  0  0  0  0  0  0  0  0  0
   37.1510   21.9030   33.3240 O   0  0  0  0  0  0  0  0  0  0  0  0
   37.4840   21.8880   34.6440 C   0  0  0  0  0  0  0  0  0  0  0  0
   38.8450   22.4770   34.9190 C   0  0  2  0  0  0  0  0  0  0  0  0
   40.0310   23.9910   34.3240 H   0  0  0  0  0  0  0  0  0  0  0  0
   39.4190   22.6840   32.4870 H   0  0  0  0  0  0  0  0  0  0  0  0
   37.2320   22.8470   31.5730 H   0  0  0  0  0  0  0  0  0  0  0  0
   36.5350   23.7160   32.9280 H   0  0  0  0  0  0  0  0  0  0  0  0
   36.7520   22.5080   35.2360 H   0  0  0  0  0  0  0  0  0  0  0  0
   37.5060   20.8550   34.9890 H   0  0  0  0  0  0  0  0  0  0  0  0
   39.6650   21.7670   34.6710 H   0  0  0  0  0  0  0  0  0  0  0  0
   38.8650   22.7600   36.3990 C   0  0  0  0  0  0  0  0  0  0  0  0
   37.9310   23.4120   37.1970 C   0  0  0  0  0  0  0  0  0  0  0  0
   37.0270   23.7920   36.7060 H   0  0  0  0  0  0  0  0  0  0  0  0
   38.4210   23.4140   38.5010 C   0  0  0  0  0  0  0  0  0  0  0  0
   37.8280   23.8820   39.2790 H   0  0  0  0  0  0  0  0  0  0  0  0
   39.6020   22.7860   38.4800 N   0  0  0  0  0  0  0  0  0  0  0  0
   40.1710   22.6590   39.3470 H   0  0  0  0  0  0  0  0  0  0  0  0
   39.8700   22.3960   37.2350 N   0  0  0  0  0  0  0  0  0  0  0  0
  1  2  1  0  0  0  0
  2  3  2  0  0  0  0
  2 16  1  0  0  0  0
  3 11  1  0  0  0  0
  4  5  1  0  0  0  0
  4  3  1  0  0  0  0
  5 12  1  0  0  0  0
  6  5  1  0  0  0  0
  7  8  1  0  0  0  0
  7  6  2  0  0  0  0
  8  4  2  0  0  0  0
  9  8  1  0  0  0  0
  9  1  2  0  0  0  0
 10  1  1  0  0  0  0
 13  9  1  0  0  0  0
 14 19  1  0  0  0  0
 14 20  1  0  0  0  0
 15 14  2  0  0  0  0
 16 17  2  0  0  0  0
 16 15  1  0  0  0  0
 17 18  1  0  0  0  0
 18 22  1  0  0  0  0
 18 19  2  0  0  0  0
 21 15  1  0  0  0  0
 23  6  1  0  0  0  0
 23 25  1  0  0  0  0
 24 30  1  0  0  0  0
 24 29  1  0  0  0  0
 25 31  1  6  0  0  0
 25 24  1  0  0  0  0
 26 25  1  0  0  0  0
 26 33  1  0  0  0  0
 26 27  1  0  0  0  0
 27 28  1  0  0  0  0
 28 29  1  0  0  0  0
 28 35  1  0  0  0  0
 28 34  1  0  0  0  0
 29 36  1  6  0  0  0
 29 37  1  0  0  0  0
 32 26  1  0  0  0  0
 37 38  1  0  0  0  0
 37 44  2  0  0  0  0
 38 40  2  0  0  0  0
 39 38  1  0  0  0  0
 40 41  1  0  0  0  0
 42 40  1  0  0  0  0
 42 43  1  0  0  0  0
 44 42  1  0  0  0  0
M  END
>  <minimizedAffinity>
-6.56420231

$$$$

 OpenBabel03272510283D

 44 48  0  0  1  0  0  0  0  0999 V2000
   38.0360   24.6990   33.8620 C   0  0  0  0  0  0  0  0  0  0  0  0
   38.0700   25.2030   35.1600 C   0  0  0  0  0  0  0  0  0  0  0  0
   37.5510   26.4540   35.4480 C   0  0  0  0  0  0  0  0  0  0  0  0
   37.0040   27.1710   34.3920 C   0  0  0  0  0  0  0  0  0  0  0  0
   36.4400   28.4130   34.4290 N   0  0  0  0  0  0  0  0  0  0  0  0
   36.0570   28.6860   33.1660 C   0  0  0  0  0  0  0  0  0  0  0  0
   36.3540   27.6860   32.3670 N   0  0  0  0  0  0  0  0  0  0  0  0
   36.9530   26.7040   33.0880 C   0  0  0  0  0  0  0  0  0  0  0  0
   37.4830   25.4350   32.8210 C   0  0  0  0  0  0  0  0  0  0  0  0
   38.4310   23.7250   33.5960 H   0  0  0  0  0  0  0  0  0  0  0  0
   37.5810   26.8390   36.4560 H   0  0  0  0  0  0  0  0  0  0  0  0
   36.3330   29.0230   35.2790 H   0  0  0  0  0  0  0  0  0  0  0  0
   37.4340   25.0840   31.8010 H   0  0  0  0  0  0  0  0  0  0  0  0
   38.8090   23.3250   38.3260 C   0  0  0  0  0  0  0  0  0  0  0  0
   38.1400   24.1610   37.4340 C   0  0  0  0  0  0  0  0  0  0  0  0
   38.6730   24.3590   36.1650 C   0  0  0  0  0  0  0  0  0  0  0  0
   39.8350   23.7130   35.8710 N   0  0  0  0  0  0  0  0  0  0  0  0
   40.4770   22.9100   36.7320 C   0  0  0  0  0  0  0  0  0  0  0  0
   39.9700   22.7200   37.9390 N   0  0  0  0  0  0  0  0  0  0  0  0
   38.3240   23.2280   39.2910 H   0  0  0  0  0  0  0  0  0  0  0  0
   37.2330   24.6540   37.6920 H   0  0  0  0  0  0  0  0  0  0  0  0
   41.3950   22.4240   36.4410 H   0  0  0  0  0  0  0  0  0  0  0  0
   35.4320   29.8970   32.8380 O   0  0  0  0  0  0  0  0  0  0  0  0
   33.6960   29.4350   34.2470 N   0  0  0  0  0  0  0  0  0  0  0  0
   34.0110   29.8970   32.8800 C   0  0  1  0  0  0  0  0  0  0  0  0
   33.4530   31.2320   32.6980 C   0  0  0  0  0  0  0  0  0  0  0  0
   32.0500   31.1430   32.7710 O   0  0  0  0  0  0  0  0  0  0  0  0
   31.5610   30.5780   33.9080 C   0  0  0  0  0  0  0  0  0  0  0  0
   32.2570   29.2930   34.2800 C   0  0  2  0  0  0  0  0  0  0  0  0
   34.0960   28.4710   34.2980 H   0  0  0  0  0  0  0  0  0  0  0  0
   33.5680   29.2050   32.1430 H   0  0  0  0  0  0  0  0  0  0  0  0
   33.6280   31.5200   31.6160 H   0  0  0  0  0  0  0  0  0  0  0  0
   33.6890   32.0820   33.2750 H   0  0  0  0  0  0  0  0  0  0  0  0
   31.7110   31.2750   34.7830 H   0  0  0  0  0  0  0  0  0  0  0  0
   30.5090   30.3410   33.7600 H   0  0  0  0  0  0  0  0  0  0  0  0
   31.9050   28.4350   33.6640 H   0  0  0  0  0  0  0  0  0  0  0  0
   31.9010   29.0480   35.7230 C   0  0  0  0  0  0  0  0  0  0  0  0
   31.3310   27.9320   36.3260 C   0  0  0  0  0  0  0  0  0  0  0  0
   31.0910   27.0780   35.6810 H   0  0  0  0  0  0  0  0  0  0  0  0
   31.2040   28.2080   37.6850 C   0  0  0  0  0  0  0  0  0  0  0  0
   30.7750   27.4500   38.3320 H   0  0  0  0  0  0  0  0  0  0  0  0
   31.6800   29.4430   37.8840 N   0  0  0  0  0  0  0  0  0  0  0  0
   31.6930   29.8790   38.8330 H   0  0  0  0  0  0  0  0  0  0  0  0
   32.0950   29.9450   36.7220 N   0  0  0  0  0  0  0  0  0  0  0  0
  1  2  1  0  0  0  0
  2  3  2  0  0  0  0
  2 16  1  0  0  0  0
  3 11  1  0  0  0  0
  4  5  1  0  0  0  0
  4  3  1  0  0  0  0
  5 12  1  0  0  0  0
  6  5  1  0  0  0  0
  7  8  1  0  0  0  0
  7  6  2  0  0  0  0
  8  4  2  0  0  0  0
  9  8  1  0  0  0  0
  9  1  2  0  0  0  0
 10  1  1  0  0  0  0
 13  9  1  0  0  0  0
 14 20  1  0  0  0  0
 15 21  1  0  0  0  0
 15 14  2  0  0  0  0
 16 15  1  0  0  0  0
 17 16  2  0  0  0  0
 17 18  1  0  0  0  0
 18 19  2  0  0  0  0
 19 14  1  0  0  0  0
 22 18  1  0  0  0  0
 23 25  1  0  0  0  0
 23  6  1  0  0  0  0
 24 29  1  0  0  0  0
 24 30  1  0  0  0  0
 25 31  1  6  0  0  0
 25 24  1  0  0  0  0
 26 27  1  0  0  0  0
 26 25  1  0  0  0  0
 26 33  1  0  0  0  0
 27 28  1  0  0  0  0
 28 29  1  0  0  0  0
 28 34  1  0  0  0  0
 29 36  1  6  0  0  0
 29 37  1  0  0  0  0
 32 26  1  0  0  0  0
 35 28  1  0  0  0  0
 37 38  1  0  0  0  0
 37 44  2  0  0  0  0
 38 40  2  0  0  0  0
 39 38  1  0  0  0  0
 40 42  1  0  0  0  0
 40 41  1  0  0  0  0
 42 43  1  0  0  0  0
 44 42  1  0  0  0  0
M  END
>  <minimizedAffinity>
-6.3451004

$$$$

 OpenBabel03272510283D

 44 48  0  0  1  0  0  0  0  0999 V2000
   38.1070   24.4300   33.7110 C   0  0  0  0  0  0  0  0  0  0  0  0
   38.0710   25.0180   34.9730 C   0  0  0  0  0  0  0  0  0  0  0  0
   37.5120   26.2720   35.1560 C   0  0  0  0  0  0  0  0  0  0  0  0
   36.9960   26.9050   34.0320 C   0  0  0  0  0  0  0  0  0  0  0  0
   36.4030   28.1320   33.9640 N   0  0  0  0  0  0  0  0  0  0  0  0
   36.0710   28.3120   32.6700 C   0  0  0  0  0  0  0  0  0  0  0  0
   36.4260   27.2700   31.9520 N   0  0  0  0  0  0  0  0  0  0  0  0
   37.0150   26.3530   32.7610 C   0  0  0  0  0  0  0  0  0  0  0  0
   37.5850   25.0840   32.6020 C   0  0  0  0  0  0  0  0  0  0  0  0
   38.5360   23.4520   33.5270 H   0  0  0  0  0  0  0  0  0  0  0  0
   37.4880   26.7210   36.1370 H   0  0  0  0  0  0  0  0  0  0  0  0
   36.2450   28.7920   34.7660 H   0  0  0  0  0  0  0  0  0  0  0  0
   37.5900   24.6660   31.6050 H   0  0  0  0  0  0  0  0  0  0  0  0
   38.7340   23.4070   38.2990 C   0  0  0  0  0  0  0  0  0  0  0  0
   38.0900   24.1700   37.3270 C   0  0  0  0  0  0  0  0  0  0  0  0
   38.6480   24.2570   36.0570 C   0  0  0  0  0  0  0  0  0  0  0  0
   39.8090   23.5790   35.8400 N   0  0  0  0  0  0  0  0  0  0  0  0
   40.4270   22.8450   36.7770 C   0  0  0  0  0  0  0  0  0  0  0  0
   39.8960   22.7620   37.9860 N   0  0  0  0  0  0  0  0  0  0  0  0
   38.2310   23.3950   39.2590 H   0  0  0  0  0  0  0  0  0  0  0  0
   37.1830   24.6900   37.5270 H   0  0  0  0  0  0  0  0  0  0  0  0
   41.3460   22.3290   36.5460 H   0  0  0  0  0  0  0  0  0  0  0  0
   35.4340   29.4830   32.2370 O   0  0  0  0  0  0  0  0  0  0  0  0
   34.5640   30.5130   34.0790 N   0  0  0  0  0  0  0  0  0  0  0  0
   34.1880   29.7790   32.8530 C   0  0  1  0  0  0  0  0  0  0  0  0
   33.3560   30.6460   32.0270 C   0  0  0  0  0  0  0  0  0  0  0  0
   32.1560   30.9020   32.7160 O   0  0  0  0  0  0  0  0  0  0  0  0
   32.3020   31.4350   33.9600 C   0  0  0  0  0  0  0  0  0  0  0  0
   33.3250   30.7120   34.7990 C   0  0  2  0  0  0  0  0  0  0  0  0
   35.1280   29.8310   34.6320 H   0  0  0  0  0  0  0  0  0  0  0  0
   33.6240   28.8700   33.1240 H   0  0  0  0  0  0  0  0  0  0  0  0
   33.0060   30.0280   31.1430 H   0  0  0  0  0  0  0  0  0  0  0  0
   33.6380   31.5860   31.6410 H   0  0  0  0  0  0  0  0  0  0  0  0
   32.6610   32.5020   33.8860 H   0  0  0  0  0  0  0  0  0  0  0  0
   31.3510   31.3670   34.4860 H   0  0  0  0  0  0  0  0  0  0  0  0
   32.9250   29.7620   35.2180 H   0  0  0  0  0  0  0  0  0  0  0  0
   33.6530   31.6540   35.9290 C   0  0  0  0  0  0  0  0  0  0  0  0
   32.8980   32.6800   36.4840 C   0  0  0  0  0  0  0  0  0  0  0  0
   31.9030   32.8610   36.0580 H   0  0  0  0  0  0  0  0  0  0  0  0
   33.6530   33.2520   37.5060 C   0  0  0  0  0  0  0  0  0  0  0  0
   33.2290   34.0790   38.0650 H   0  0  0  0  0  0  0  0  0  0  0  0
   34.8140   32.5900   37.5570 N   0  0  0  0  0  0  0  0  0  0  0  0
   35.5560   32.8360   38.2500 H   0  0  0  0  0  0  0  0  0  0  0  0
   34.8190   31.6400   36.6230 N   0  0  0  0  0  0  0  0  0  0  0  0
  1  2  1  0  0  0  0
  2  3  2  0  0  0  0
  2 16  1  0  0  0  0
  3 11  1  0  0  0  0
  4  3  1  0  0  0  0
  5  4  1  0  0  0  0
  5 12  1  0  0  0  0
  6  5  1  0  0  0  0
  7  6  2  0  0  0  0
  7  8  1  0  0  0  0
  8  4  2  0  0  0  0
  9  8  1  0  0  0  0
  9  1  2  0  0  0  0
 10  1  1  0  0  0  0
 13  9  1  0  0  0  0
 14 20  1  0  0  0  0
 15 21  1  0  0  0  0
 15 14  2  0  0  0  0
 16 15  1  0  0  0  0
 17 16  2  0  0  0  0
 17 18  1  0  0  0  0
 18 19  2  0  0  0  0
 19 14  1  0  0  0  0
 22 18  1  0  0  0  0
 23  6  1  0  0  0  0
 23 25  1  0  0  0  0
 24 30  1  0  0  0  0
 24 29  1  0  0  0  0
 25 31  1  1  0  0  0
 25 24  1  0  0  0  0
 26 27  1  0  0  0  0
 26 25  1  0  0  0  0
 27 28  1  0  0  0  0
 28 35  1  0  0  0  0
 28 29  1  0  0  0  0
 29 36  1  1  0  0  0
 29 37  1  0  0  0  0
 32 26  1  0  0  0  0
 33 26  1  0  0  0  0
 34 28  1  0  0  0  0
 37 38  1  0  0  0  0
 37 44  2  0  0  0  0
 38 40  2  0  0  0  0
 39 38  1  0  0  0  0
 40 42  1  0  0  0  0
 40 41  1  0  0  0  0
 42 43  1  0  0  0  0
 44 42  1  0  0  0  0
M  END
>  <minimizedAffinity>
-6.29603004

$$$$

 OpenBabel03272510283D

 44 48  0  0  1  0  0  0  0  0999 V2000
   37.6090   23.4350   32.9990 C   0  0  0  0  0  0  0  0  0  0  0  0
   36.5470   23.2520   32.1150 C   0  0  0  0  0  0  0  0  0  0  0  0
   35.8740   24.3380   31.5820 C   0  0  0  0  0  0  0  0  0  0  0  0
   36.3050   25.6010   31.9670 C   0  0  0  0  0  0  0  0  0  0  0  0
   35.8010   26.8080   31.5790 N   0  0  0  0  0  0  0  0  0  0  0  0
   36.5390   27.7400   32.2160 C   0  0  0  0  0  0  0  0  0  0  0  0
   37.4580   27.1710   32.9640 N   0  0  0  0  0  0  0  0  0  0  0  0
   37.3550   25.8220   32.8440 C   0  0  0  0  0  0  0  0  0  0  0  0
   38.0200   24.7090   33.3700 C   0  0  0  0  0  0  0  0  0  0  0  0
   38.1610   22.6110   33.4380 H   0  0  0  0  0  0  0  0  0  0  0  0
   35.0530   24.1880   30.8970 H   0  0  0  0  0  0  0  0  0  0  0  0
   34.9990   26.9650   30.9180 H   0  0  0  0  0  0  0  0  0  0  0  0
   38.8380   24.8980   34.0510 H   0  0  0  0  0  0  0  0  0  0  0  0
   34.8790   19.8900   32.0000 C   0  0  0  0  0  0  0  0  0  0  0  0
   35.1250   21.2100   32.3750 C   0  0  0  0  0  0  0  0  0  0  0  0
   36.1960   21.8860   31.8020 C   0  0  0  0  0  0  0  0  0  0  0  0
   36.9490   21.2040   30.8950 N   0  0  0  0  0  0  0  0  0  0  0  0
   36.7100   19.9340   30.5360 C   0  0  0  0  0  0  0  0  0  0  0  0
   35.6910   19.2900   31.0810 N   0  0  0  0  0  0  0  0  0  0  0  0
   34.0270   19.4400   32.4950 H   0  0  0  0  0  0  0  0  0  0  0  0
   34.5190   21.7170   33.0880 H   0  0  0  0  0  0  0  0  0  0  0  0
   37.3430   19.4460   29.8110 H   0  0  0  0  0  0  0  0  0  0  0  0
   36.2920   29.1090   32.0430 O   0  0  0  0  0  0  0  0  0  0  0  0
   35.1730   30.1130   33.7610 N   0  0  0  0  0  0  0  0  0  0  0  0
   34.9930   29.5580   32.4030 C   0  0  1  0  0  0  0  0  0  0  0  0
   34.5120   30.6200   31.5260 C   0  0  0  0  0  0  0  0  0  0  0  0
   33.2340   31.0160   31.9620 O   0  0  0  0  0  0  0  0  0  0  0  0
   33.1600   31.4100   33.2630 C   0  0  0  0  0  0  0  0  0  0  0  0
   33.8420   30.4570   34.2120 C   0  0  2  0  0  0  0  0  0  0  0  0
   35.4870   29.3010   34.3370 H   0  0  0  0  0  0  0  0  0  0  0  0
   34.2550   28.7380   32.4330 H   0  0  0  0  0  0  0  0  0  0  0  0
   34.2940   30.1460   30.5190 H   0  0  0  0  0  0  0  0  0  0  0  0
   35.0110   31.5270   31.3260 H   0  0  0  0  0  0  0  0  0  0  0  0
   33.6770   32.4030   33.3980 H   0  0  0  0  0  0  0  0  0  0  0  0
   32.1130   31.4600   33.5570 H   0  0  0  0  0  0  0  0  0  0  0  0
   33.2210   29.5560   34.4160 H   0  0  0  0  0  0  0  0  0  0  0  0
   34.0290   31.2310   35.4910 C   0  0  0  0  0  0  0  0  0  0  0  0
   33.0950   31.8940   36.2790 C   0  0  0  0  0  0  0  0  0  0  0  0
   32.0490   31.8700   35.9480 H   0  0  0  0  0  0  0  0  0  0  0  0
   33.7760   32.4550   37.3560 C   0  0  0  0  0  0  0  0  0  0  0  0
   33.2130   33.0200   38.0910 H   0  0  0  0  0  0  0  0  0  0  0  0
   35.0680   32.1380   37.2150 N   0  0  0  0  0  0  0  0  0  0  0  0
   35.7880   32.4480   37.9060 H   0  0  0  0  0  0  0  0  0  0  0  0
   35.2230   31.4110   36.1090 N   0  0  0  0  0  0  0  0  0  0  0  0
  1  9  1  0  0  0  0
  1 10  1  0  0  0  0
  2  1  2  0  0  0  0
  3  4  2  0  0  0  0
  3  2  1  0  0  0  0
  4  8  1  0  0  0  0
  5  4  1  0  0  0  0
  5  6  1  0  0  0  0
  6  7  2  0  0  0  0
  8  7  1  0  0  0  0
  8  9  2  0  0  0  0
  9 13  1  0  0  0  0
 11  3  1  0  0  0  0
 12  5  1  0  0  0  0
 14 15  1  0  0  0  0
 14 20  1  0  0  0  0
 15 21  1  0  0  0  0
 16  2  1  0  0  0  0
 16 15  2  0  0  0  0
 17 16  1  0  0  0  0
 18 17  2  0  0  0  0
 18 19  1  0  0  0  0
 19 14  2  0  0  0  0
 22 18  1  0  0  0  0
 23  6  1  0  0  0  0
 23 25  1  0  0  0  0
 24 29  1  0  0  0  0
 24 30  1  0  0  0  0
 25 31  1  1  0  0  0
 25 24  1  0  0  0  0
 26 27  1  0  0  0  0
 26 25  1  0  0  0  0
 27 28  1  0  0  0  0
 28 34  1  0  0  0  0
 28 35  1  0  0  0  0
 28 29  1  0  0  0  0
 29 36  1  1  0  0  0
 29 37  1  0  0  0  0
 32 26  1  0  0  0  0
 33 26  1  0  0  0  0
 37 44  2  0  0  0  0
 37 38  1  0  0  0  0
 38 40  2  0  0  0  0
 39 38  1  0  0  0  0
 40 41  1  0  0  0  0
 42 40  1  0  0  0  0
 42 43  1  0  0  0  0
 44 42  1  0  0  0  0
M  END
>  <minimizedAffinity>
-6.15346098

$$$$

 OpenBabel03272510283D

 44 48  0  0  1  0  0  0  0  0999 V2000
   35.4570   29.1580   34.0960 C   0  0  0  0  0  0  0  0  0  0  0  0
   34.9560   29.0100   32.8050 C   0  0  0  0  0  0  0  0  0  0  0  0
   35.5050   28.0850   31.9330 C   0  0  0  0  0  0  0  0  0  0  0  0
   36.5660   27.3230   32.4040 C   0  0  0  0  0  0  0  0  0  0  0  0
   37.2640   26.3600   31.7360 N   0  0  0  0  0  0  0  0  0  0  0  0
   38.1960   25.9090   32.6000 C   0  0  0  0  0  0  0  0  0  0  0  0
   38.1040   26.5400   33.7490 N   0  0  0  0  0  0  0  0  0  0  0  0
   37.0930   27.4430   33.6810 C   0  0  0  0  0  0  0  0  0  0  0  0
   36.5200   28.3850   34.5440 C   0  0  0  0  0  0  0  0  0  0  0  0
   35.0550   29.8710   34.8080 H   0  0  0  0  0  0  0  0  0  0  0  0
   35.1110   27.9760   30.9340 H   0  0  0  0  0  0  0  0  0  0  0  0
   37.0980   26.0440   30.7480 H   0  0  0  0  0  0  0  0  0  0  0  0
   36.9410   28.4650   35.5370 H   0  0  0  0  0  0  0  0  0  0  0  0
   31.5970   30.6740   32.5770 C   0  0  0  0  0  0  0  0  0  0  0  0
   32.5890   29.7950   33.0110 C   0  0  0  0  0  0  0  0  0  0  0  0
   33.8530   29.8690   32.4370 C   0  0  0  0  0  0  0  0  0  0  0  0
   34.0450   30.8110   31.4730 N   0  0  0  0  0  0  0  0  0  0  0  0
   33.0890   31.6540   31.0580 C   0  0  0  0  0  0  0  0  0  0  0  0
   31.8860   31.5850   31.6030 N   0  0  0  0  0  0  0  0  0  0  0  0
   30.6430   30.5460   33.0760 H   0  0  0  0  0  0  0  0  0  0  0  0
   32.4090   29.0680   33.7670 H   0  0  0  0  0  0  0  0  0  0  0  0
   33.3020   32.3810   30.2890 H   0  0  0  0  0  0  0  0  0  0  0  0
   39.0980   24.9000   32.2380 O   0  0  0  0  0  0  0  0  0  0  0  0
   39.0800   23.8590   34.2690 N   0  0  0  0  0  0  0  0  0  0  0  0
   38.8760   23.6250   32.8250 C   0  0  1  0  0  0  0  0  0  0  0  0
   37.5130   23.1500   32.6170 C   0  0  0  0  0  0  0  0  0  0  0  0
   37.3760   21.8960   33.2430 O   0  0  0  0  0  0  0  0  0  0  0  0
   37.6880   21.8710   34.5670 C   0  0  0  0  0  0  0  0  0  0  0  0
   38.9950   22.5520   34.8830 C   0  0  2  0  0  0  0  0  0  0  0  0
   40.0750   24.1660   34.3480 H   0  0  0  0  0  0  0  0  0  0  0  0
   39.5930   22.8650   32.4680 H   0  0  0  0  0  0  0  0  0  0  0  0
   37.4160   22.8900   31.5180 H   0  0  0  0  0  0  0  0  0  0  0  0
   36.6340   23.6680   32.8800 H   0  0  0  0  0  0  0  0  0  0  0  0
   36.9020   22.4200   35.1610 H   0  0  0  0  0  0  0  0  0  0  0  0
   37.7810   20.8340   34.8870 H   0  0  0  0  0  0  0  0  0  0  0  0
   39.8710   21.9120   34.6320 H   0  0  0  0  0  0  0  0  0  0  0  0
   38.9690   22.7970   36.3700 C   0  0  0  0  0  0  0  0  0  0  0  0
   38.0250   23.4530   37.1510 C   0  0  0  0  0  0  0  0  0  0  0  0
   37.1480   23.8690   36.6390 H   0  0  0  0  0  0  0  0  0  0  0  0
   38.4670   23.4080   38.4710 C   0  0  0  0  0  0  0  0  0  0  0  0
   37.8580   23.8720   39.2400 H   0  0  0  0  0  0  0  0  0  0  0  0
   39.6320   22.7500   38.4750 N   0  0  0  0  0  0  0  0  0  0  0  0
   40.1650   22.5860   39.3580 H   0  0  0  0  0  0  0  0  0  0  0  0
   39.9340   22.3850   37.2300 N   0  0  0  0  0  0  0  0  0  0  0  0
  1  9  1  0  0  0  0
  1 10  1  0  0  0  0
  2  1  2  0  0  0  0
  3  4  2  0  0  0  0
  3  2  1  0  0  0  0
  4  8  1  0  0  0  0
  5  4  1  0  0  0  0
  5  6  1  0  0  0  0
  6  7  2  0  0  0  0
  8  7  1  0  0  0  0
  8  9  2  0  0  0  0
  9 13  1  0  0  0  0
 11  3  1  0  0  0  0
 12  5  1  0  0  0  0
 14 15  1  0  0  0  0
 14 20  1  0  0  0  0
 15 21  1  0  0  0  0
 16  2  1  0  0  0  0
 16 15  2  0  0  0  0
 17 16  1  0  0  0  0
 18 17  2  0  0  0  0
 18 19  1  0  0  0  0
 19 14  2  0  0  0  0
 22 18  1  0  0  0  0
 23  6  1  0  0  0  0
 23 25  1  0  0  0  0
 24 30  1  0  0  0  0
 24 29  1  0  0  0  0
 25 31  1  6  0  0  0
 25 24  1  0  0  0  0
 26 25  1  0  0  0  0
 26 33  1  0  0  0  0
 26 27  1  0  0  0  0
 27 28  1  0  0  0  0
 28 29  1  0  0  0  0
 28 35  1  0  0  0  0
 28 34  1  0  0  0  0
 29 36  1  6  0  0  0
 29 37  1  0  0  0  0
 32 26  1  0  0  0  0
 37 38  1  0  0  0  0
 37 44  2  0  0  0  0
 38 40  2  0  0  0  0
 39 38  1  0  0  0  0
 40 42  1  0  0  0  0
 40 41  1  0  0  0  0
 42 43  1  0  0  0  0
 44 42  1  0  0  0  0
M  END
>  <minimizedAffinity>
-6.1241293

$$$$

 OpenBabel03272510283D

 44 48  0  0  1  0  0  0  0  0999 V2000
   37.2990   25.9510   33.3010 C   0  0  0  0  0  0  0  0  0  0  0  0
   37.6960   26.1660   34.6190 C   0  0  0  0  0  0  0  0  0  0  0  0
   37.3780   27.3450   35.2720 C   0  0  0  0  0  0  0  0  0  0  0  0
   36.6540   28.2900   34.5550 C   0  0  0  0  0  0  0  0  0  0  0  0
   36.2310   29.5150   34.9810 N   0  0  0  0  0  0  0  0  0  0  0  0
   35.5750   30.0640   33.9380 C   0  0  0  0  0  0  0  0  0  0  0  0
   35.5760   29.2470   32.9090 N   0  0  0  0  0  0  0  0  0  0  0  0
   36.2430   28.1120   33.2440 C   0  0  0  0  0  0  0  0  0  0  0  0
   36.5760   26.9110   32.6050 C   0  0  0  0  0  0  0  0  0  0  0  0
   37.5280   25.0420   32.7560 H   0  0  0  0  0  0  0  0  0  0  0  0
   37.6890   27.5050   36.2930 H   0  0  0  0  0  0  0  0  0  0  0  0
   36.3910   29.9330   35.9310 H   0  0  0  0  0  0  0  0  0  0  0  0
   36.2470   26.7880   31.5830 H   0  0  0  0  0  0  0  0  0  0  0  0
   40.3080   23.6030   35.4580 C   0  0  0  0  0  0  0  0  0  0  0  0
   39.6680   24.6330   34.7730 C   0  0  0  0  0  0  0  0  0  0  0  0
   38.4500   25.1050   35.2480 C   0  0  0  0  0  0  0  0  0  0  0  0
   37.9520   24.5210   36.3720 N   0  0  0  0  0  0  0  0  0  0  0  0
   38.5700   23.5290   37.0290 C   0  0  0  0  0  0  0  0  0  0  0  0
   39.7290   23.0790   36.5780 N   0  0  0  0  0  0  0  0  0  0  0  0
   41.2500   23.2960   35.0190 H   0  0  0  0  0  0  0  0  0  0  0  0
   40.0810   25.0710   33.8950 H   0  0  0  0  0  0  0  0  0  0  0  0
   38.1250   23.1050   37.9160 H   0  0  0  0  0  0  0  0  0  0  0  0
   35.0000   31.3390   34.0290 O   0  0  0  0  0  0  0  0  0  0  0  0
   33.2900   30.1530   34.9680 N   0  0  0  0  0  0  0  0  0  0  0  0
   33.9410   31.4800   34.9650 C   0  0  1  0  0  0  0  0  0  0  0  0
   34.4270   31.7650   36.3110 C   0  0  0  0  0  0  0  0  0  0  0  0
   33.3190   31.8710   37.1720 O   0  0  0  0  0  0  0  0  0  0  0  0
   32.4890   30.7920   37.1890 C   0  0  0  0  0  0  0  0  0  0  0  0
   32.1240   30.3020   35.8100 C   0  0  2  0  0  0  0  0  0  0  0  0
   32.9440   30.0280   33.9910 H   0  0  0  0  0  0  0  0  0  0  0  0
   33.2100   32.2500   34.6630 H   0  0  0  0  0  0  0  0  0  0  0  0
   34.8340   32.8230   36.3000 H   0  0  0  0  0  0  0  0  0  0  0  0
   35.1200   31.1830   36.8510 H   0  0  0  0  0  0  0  0  0  0  0  0
   32.9940   29.9230   37.7020 H   0  0  0  0  0  0  0  0  0  0  0  0
   31.5620   31.0680   37.6870 H   0  0  0  0  0  0  0  0  0  0  0  0
   31.3410   30.9360   35.3360 H   0  0  0  0  0  0  0  0  0  0  0  0
   31.5810   28.9110   36.0110 C   0  0  0  0  0  0  0  0  0  0  0  0
   31.5010   28.1410   37.1650 C   0  0  0  0  0  0  0  0  0  0  0  0
   31.8840   28.5830   38.0940 H   0  0  0  0  0  0  0  0  0  0  0  0
   30.9180   26.9250   36.8190 C   0  0  0  0  0  0  0  0  0  0  0  0
   30.7690   26.1790   37.5940 H   0  0  0  0  0  0  0  0  0  0  0  0
   30.6600   26.9690   35.5070 N   0  0  0  0  0  0  0  0  0  0  0  0
   30.2170   26.1650   35.0080 H   0  0  0  0  0  0  0  0  0  0  0  0
   31.0510   28.1460   35.0230 N   0  0  0  0  0  0  0  0  0  0  0  0
  1  2  1  0  0  0  0
  2 16  1  0  0  0  0
  2  3  2  0  0  0  0
  3 11  1  0  0  0  0
  4  5  1  0  0  0  0
  4  3  1  0  0  0  0
  5 12  1  0  0  0  0
  6 23  1  0  0  0  0
  6  5  1  0  0  0  0
  7  8  1  0  0  0  0
  7  6  2  0  0  0  0
  8  4  2  0  0  0  0
  9  8  1  0  0  0  0
  9  1  2  0  0  0  0
 10  1  1  0  0  0  0
 13  9  1  0  0  0  0
 14 19  1  0  0  0  0
 15 16  1  0  0  0  0
 15 14  2  0  0  0  0
 16 17  2  0  0  0  0
 17 18  1  0  0  0  0
 18 22  1  0  0  0  0
 19 18  2  0  0  0  0
 20 14  1  0  0  0  0
 21 15  1  0  0  0  0
 23 25  1  0  0  0  0
 24 29  1  0  0  0  0
 25 31  1  6  0  0  0
 25 24  1  0  0  0  0
 25 26  1  0  0  0  0
 26 33  1  0  0  0  0
 26 27  1  0  0  0  0
 27 28  1  0  0  0  0
 28 35  1  0  0  0  0
 28 34  1  0  0  0  0
 29 36  1  6  0  0  0
 29 37  1  0  0  0  0
 29 28  1  0  0  0  0
 30 24  1  0  0  0  0
 32 26  1  0  0  0  0
 37 38  1  0  0  0  0
 38 39  1  0  0  0  0
 40 38  2  0  0  0  0
 40 41  1  0  0  0  0
 42 40  1  0  0  0  0
 43 42  1  0  0  0  0
 44 42  1  0  0  0  0
 44 37  2  0  0  0  0
M  END
>  <minimizedAffinity>
-6.0074892

$$$$

 OpenBabel03272510283D

 44 48  0  0  1  0  0  0  0  0999 V2000
   39.8930   26.1070   34.5530 C   0  0  0  0  0  0  0  0  0  0  0  0
   38.7020   25.5390   35.0010 C   0  0  0  0  0  0  0  0  0  0  0  0
   37.5060   25.7930   34.3500 C   0  0  0  0  0  0  0  0  0  0  0  0
   37.5540   26.6300   33.2430 C   0  0  0  0  0  0  0  0  0  0  0  0
   36.5160   27.0230   32.4490 N   0  0  0  0  0  0  0  0  0  0  0  0
   37.0510   27.8320   31.5120 C   0  0  0  0  0  0  0  0  0  0  0  0
   38.3480   27.9510   31.6900 N   0  0  0  0  0  0  0  0  0  0  0  0
   38.7180   27.2140   32.7680 C   0  0  0  0  0  0  0  0  0  0  0  0
   39.9140   26.9420   33.4430 C   0  0  0  0  0  0  0  0  0  0  0  0
   40.8480   25.9340   35.0350 H   0  0  0  0  0  0  0  0  0  0  0  0
   36.5880   25.3490   34.7030 H   0  0  0  0  0  0  0  0  0  0  0  0
   35.5090   26.7450   32.5580 H   0  0  0  0  0  0  0  0  0  0  0  0
   40.8130   27.4040   33.0600 H   0  0  0  0  0  0  0  0  0  0  0  0
   39.6430   22.8480   37.4440 C   0  0  0  0  0  0  0  0  0  0  0  0
   39.6420   23.5980   36.2700 C   0  0  0  0  0  0  0  0  0  0  0  0
   38.7900   24.6920   36.1680 C   0  0  0  0  0  0  0  0  0  0  0  0
   37.9970   24.9640   37.2410 N   0  0  0  0  0  0  0  0  0  0  0  0
   37.9990   24.2400   38.3690 C   0  0  0  0  0  0  0  0  0  0  0  0
   38.8100   23.2000   38.4670 N   0  0  0  0  0  0  0  0  0  0  0  0
   40.3360   22.0150   37.4370 H   0  0  0  0  0  0  0  0  0  0  0  0
   40.2740   23.3610   35.4470 H   0  0  0  0  0  0  0  0  0  0  0  0
   37.3470   24.5060   39.1870 H   0  0  0  0  0  0  0  0  0  0  0  0
   36.2570   28.4210   30.5180 O   0  0  0  0  0  0  0  0  0  0  0  0
   35.9900   29.9700   32.1740 N   0  0  0  0  0  0  0  0  0  0  0  0
   35.9370   29.7930   30.7080 C   0  0  1  0  0  0  0  0  0  0  0  0
   36.9200   30.6790   30.0950 C   0  0  0  0  0  0  0  0  0  0  0  0
   36.5370   32.0110   30.3450 O   0  0  0  0  0  0  0  0  0  0  0  0
   36.3670   32.3300   31.6570 C   0  0  0  0  0  0  0  0  0  0  0  0
   35.5360   31.3230   32.4100 C   0  0  2  0  0  0  0  0  0  0  0  0
   35.2480   29.3340   32.5430 H   0  0  0  0  0  0  0  0  0  0  0  0
   34.9280   30.0450   30.3400 H   0  0  0  0  0  0  0  0  0  0  0  0
   36.7920   30.5910   28.9720 H   0  0  0  0  0  0  0  0  0  0  0  0
   37.9580   30.6690   30.2790 H   0  0  0  0  0  0  0  0  0  0  0  0
   37.3650   32.3620   32.1810 H   0  0  0  0  0  0  0  0  0  0  0  0
   35.8490   33.2860   31.7220 H   0  0  0  0  0  0  0  0  0  0  0  0
   34.4480   31.4430   32.2070 H   0  0  0  0  0  0  0  0  0  0  0  0
   35.8020   31.5970   33.8680 C   0  0  0  0  0  0  0  0  0  0  0  0
   36.1140   32.7890   34.5110 C   0  0  0  0  0  0  0  0  0  0  0  0
   36.1870   33.6920   33.8920 H   0  0  0  0  0  0  0  0  0  0  0  0
   36.2650   32.5080   35.8670 C   0  0  0  0  0  0  0  0  0  0  0  0
   36.5130   33.3200   36.5420 H   0  0  0  0  0  0  0  0  0  0  0  0
   36.0500   31.1970   36.0250 N   0  0  0  0  0  0  0  0  0  0  0  0
   36.1070   30.7410   36.9640 H   0  0  0  0  0  0  0  0  0  0  0  0
   35.7740   30.6510   34.8420 N   0  0  0  0  0  0  0  0  0  0  0  0
  1  2  1  0  0  0  0
  1 10  1  0  0  0  0
  2 16  1  0  0  0  0
  3 11  1  0  0  0  0
  3  2  2  0  0  0  0
  4  3  1  0  0  0  0
  5 12  1  0  0  0  0
  5  4  1  0  0  0  0
  6  7  2  0  0  0  0
  6  5  1  0  0  0  0
  7  8  1  0  0  0  0
  8  4  2  0  0  0  0
  8  9  1  0  0  0  0
  9  1  2  0  0  0  0
 13  9  1  0  0  0  0
 14 19  1  0  0  0  0
 15 14  2  0  0  0  0
 16 15  1  0  0  0  0
 16 17  2  0  0  0  0
 17 18  1  0  0  0  0
 18 19  2  0  0  0  0
 18 22  1  0  0  0  0
 20 14  1  0  0  0  0
 21 15  1  0  0  0  0
 23 25  1  0  0  0  0
 23  6  1  0  0  0  0
 24 29  1  0  0  0  0
 24 30  1  0  0  0  0
 25 31  1  6  0  0  0
 25 24  1  0  0  0  0
 26 33  1  0  0  0  0
 26 27  1  0  0  0  0
 26 25  1  0  0  0  0
 27 28  1  0  0  0  0
 28 35  1  0  0  0  0
 28 34  1  0  0  0  0
 28 29  1  0  0  0  0
 29 36  1  6  0  0  0
 29 37  1  0  0  0  0
 32 26  1  0  0  0  0
 37 38  1  0  0  0  0
 37 44  2  0  0  0  0
 38 40  2  0  0  0  0
 39 38  1  0  0  0  0
 40 42  1  0  0  0  0
 40 41  1  0  0  0  0
 42 43  1  0  0  0  0
 44 42  1  0  0  0  0
M  END
>  <minimizedAffinity>
-5.93319178

$$$$

 OpenBabel03272510283D

 44 48  0  0  1  0  0  0  0  0999 V2000
   37.5090   27.8240   35.0220 C   0  0  0  0  0  0  0  0  0  0  0  0
   37.2050   27.2870   33.7730 C   0  0  0  0  0  0  0  0  0  0  0  0
   37.4250   25.9470   33.5050 C   0  0  0  0  0  0  0  0  0  0  0  0
   37.9580   25.1760   34.5300 C   0  0  0  0  0  0  0  0  0  0  0  0
   38.2600   23.8450   34.5030 N   0  0  0  0  0  0  0  0  0  0  0  0
   38.7510   23.5510   35.7240 C   0  0  0  0  0  0  0  0  0  0  0  0
   38.7640   24.6200   36.4870 N   0  0  0  0  0  0  0  0  0  0  0  0
   38.2740   25.6740   35.7840 C   0  0  0  0  0  0  0  0  0  0  0  0
   38.0420   27.0320   36.0320 C   0  0  0  0  0  0  0  0  0  0  0  0
   37.3520   28.8680   35.2710 H   0  0  0  0  0  0  0  0  0  0  0  0
   37.1860   25.5380   32.5350 H   0  0  0  0  0  0  0  0  0  0  0  0
   38.1310   23.1950   33.6880 H   0  0  0  0  0  0  0  0  0  0  0  0
   38.2920   27.4050   37.0140 H   0  0  0  0  0  0  0  0  0  0  0  0
   35.1930   29.9390   32.0350 C   0  0  0  0  0  0  0  0  0  0  0  0
   35.6420   29.1060   33.0590 C   0  0  0  0  0  0  0  0  0  0  0  0
   36.6620   28.2000   32.7930 C   0  0  0  0  0  0  0  0  0  0  0  0
   37.1650   28.1830   31.5280 N   0  0  0  0  0  0  0  0  0  0  0  0
   36.7310   28.9850   30.5450 C   0  0  0  0  0  0  0  0  0  0  0  0
   35.7610   29.8480   30.7970 N   0  0  0  0  0  0  0  0  0  0  0  0
   34.3970   30.6130   32.3290 H   0  0  0  0  0  0  0  0  0  0  0  0
   35.2280   29.1420   34.0390 H   0  0  0  0  0  0  0  0  0  0  0  0
   37.1700   28.9250   29.5610 H   0  0  0  0  0  0  0  0  0  0  0  0
   39.1670   22.2530   36.0480 O   0  0  0  0  0  0  0  0  0  0  0  0
   41.1190   23.2770   35.4560 N   0  0  0  0  0  0  0  0  0  0  0  0
   40.5630   22.0040   35.9590 C   0  0  1  0  0  0  0  0  0  0  0  0
   41.1580   21.7170   37.2600 C   0  0  0  0  0  0  0  0  0  0  0  0
   42.5370   21.5020   37.0830 O   0  0  0  0  0  0  0  0  0  0  0  0
   43.2100   22.5140   36.4700 C   0  0  0  0  0  0  0  0  0  0  0  0
   42.5220   23.0150   35.2250 C   0  0  2  0  0  0  0  0  0  0  0  0
   40.6770   23.4050   34.5190 H   0  0  0  0  0  0  0  0  0  0  0  0
   40.8020   21.1900   35.2530 H   0  0  0  0  0  0  0  0  0  0  0  0
   40.7860   20.6930   37.5760 H   0  0  0  0  0  0  0  0  0  0  0  0
   41.0990   22.3330   38.1130 H   0  0  0  0  0  0  0  0  0  0  0  0
   43.2850   23.4030   37.1600 H   0  0  0  0  0  0  0  0  0  0  0  0
   44.1920   22.1540   36.1710 H   0  0  0  0  0  0  0  0  0  0  0  0
   42.6870   22.3380   34.3560 H   0  0  0  0  0  0  0  0  0  0  0  0
   43.1480   24.3550   34.9350 C   0  0  0  0  0  0  0  0  0  0  0  0
   43.3730   24.9930   33.7200 C   0  0  0  0  0  0  0  0  0  0  0  0
   43.0580   24.4670   32.8090 H   0  0  0  0  0  0  0  0  0  0  0  0
   43.9820   26.2150   33.9930 C   0  0  0  0  0  0  0  0  0  0  0  0
   44.2390   26.8650   33.1630 H   0  0  0  0  0  0  0  0  0  0  0  0
   44.1140   26.3020   35.3210 N   0  0  0  0  0  0  0  0  0  0  0  0
   44.5480   27.1370   35.7750 H   0  0  0  0  0  0  0  0  0  0  0  0
   43.6210   25.2010   35.8850 N   0  0  0  0  0  0  0  0  0  0  0  0
  1 10  1  0  0  0  0
  1  9  1  0  0  0  0
  2  1  2  0  0  0  0
  3  2  1  0  0  0  0
  3  4  2  0  0  0  0
  4  8  1  0  0  0  0
  5  4  1  0  0  0  0
  5  6  1  0  0  0  0
  6 23  1  0  0  0  0
  6  7  2  0  0  0  0
  8  9  2  0  0  0  0
  8  7  1  0  0  0  0
  9 13  1  0  0  0  0
 11  3  1  0  0  0  0
 12  5  1  0  0  0  0
 14 20  1  0  0  0  0
 14 15  1  0  0  0  0
 15 21  1  0  0  0  0
 16 15  2  0  0  0  0
 16  2  1  0  0  0  0
 17 16  1  0  0  0  0
 18 19  1  0  0  0  0
 18 17  2  0  0  0  0
 19 14  2  0  0  0  0
 22 18  1  0  0  0  0
 24 25  1  0  0  0  0
 25 31  1  6  0  0  0
 25 23  1  0  0  0  0
 25 26  1  0  0  0  0
 26 32  1  0  0  0  0
 26 33  1  0  0  0  0
 27 26  1  0  0  0  0
 28 27  1  0  0  0  0
 28 34  1  0  0  0  0
 29 36  1  6  0  0  0
 29 24  1  0  0  0  0
 29 28  1  0  0  0  0
 30 24  1  0  0  0  0
 35 28  1  0  0  0  0
 37 29  1  0  0  0  0
 37 44  2  0  0  0  0
 38 40  2  0  0  0  0
 38 37  1  0  0  0  0
 39 38  1  0  0  0  0
 40 42  1  0  0  0  0
 41 40  1  0  0  0  0
 42 43  1  0  0  0  0
 42 44  1  0  0  0  0
M  END
>  <minimizedAffinity>
-5.85584831

$$$$

 OpenBabel03272510283D

 44 48  0  0  1  0  0  0  0  0999 V2000
   35.4690   29.4620   32.5630 C   0  0  0  0  0  0  0  0  0  0  0  0
   35.7360   29.3990   33.9280 C   0  0  0  0  0  0  0  0  0  0  0  0
   36.4640   28.3480   34.4610 C   0  0  0  0  0  0  0  0  0  0  0  0
   36.9090   27.3740   33.5760 C   0  0  0  0  0  0  0  0  0  0  0  0
   37.6350   26.2550   33.8630 N   0  0  0  0  0  0  0  0  0  0  0  0
   37.8210   25.6210   32.6880 C   0  0  0  0  0  0  0  0  0  0  0  0
   37.2530   26.2880   31.7080 N   0  0  0  0  0  0  0  0  0  0  0  0
   36.6620   27.4020   32.2120 C   0  0  0  0  0  0  0  0  0  0  0  0
   35.9240   28.4740   31.6980 C   0  0  0  0  0  0  0  0  0  0  0  0
   34.9030   30.2670   32.1080 H   0  0  0  0  0  0  0  0  0  0  0  0
   36.6670   28.3060   35.5200 H   0  0  0  0  0  0  0  0  0  0  0  0
   37.9740   25.9600   34.8130 H   0  0  0  0  0  0  0  0  0  0  0  0
   35.7420   28.4830   30.6330 H   0  0  0  0  0  0  0  0  0  0  0  0
   35.3030   32.1010   36.5000 C   0  0  0  0  0  0  0  0  0  0  0  0
   35.9100   31.0720   35.7810 C   0  0  0  0  0  0  0  0  0  0  0  0
   35.2100   30.4730   34.7390 C   0  0  0  0  0  0  0  0  0  0  0  0
   33.9560   30.9370   34.4840 N   0  0  0  0  0  0  0  0  0  0  0  0
   33.3750   31.9270   35.1780 C   0  0  0  0  0  0  0  0  0  0  0  0
   34.0400   32.4980   36.1690 N   0  0  0  0  0  0  0  0  0  0  0  0
   35.9190   32.5100   37.2920 H   0  0  0  0  0  0  0  0  0  0  0  0
   36.8930   30.7290   36.0040 H   0  0  0  0  0  0  0  0  0  0  0  0
   32.3770   32.2520   34.9280 H   0  0  0  0  0  0  0  0  0  0  0  0
   38.5390   24.4200   32.6130 O   0  0  0  0  0  0  0  0  0  0  0  0
   39.8490   23.6640   34.3230 N   0  0  0  0  0  0  0  0  0  0  0  0
   39.8800   24.4640   33.0810 C   0  0  1  0  0  0  0  0  0  0  0  0
   40.8110   23.8400   32.1480 C   0  0  0  0  0  0  0  0  0  0  0  0
   42.1060   23.9110   32.6950 O   0  0  0  0  0  0  0  0  0  0  0  0
   42.2450   23.3660   33.9350 C   0  0  0  0  0  0  0  0  0  0  0  0
   41.1690   23.8010   34.8980 C   0  0  2  0  0  0  0  0  0  0  0  0
   39.1910   24.1790   34.9510 H   0  0  0  0  0  0  0  0  0  0  0  0
   40.2140   25.4910   33.3090 H   0  0  0  0  0  0  0  0  0  0  0  0
   40.8860   24.5230   31.2460 H   0  0  0  0  0  0  0  0  0  0  0  0
   40.7420   22.8570   31.7730 H   0  0  0  0  0  0  0  0  0  0  0  0
   42.1700   22.2430   33.8750 H   0  0  0  0  0  0  0  0  0  0  0  0
   43.1980   23.6840   34.3540 H   0  0  0  0  0  0  0  0  0  0  0  0
   41.3520   24.8260   35.2930 H   0  0  0  0  0  0  0  0  0  0  0  0
   41.2270   22.8130   36.0340 C   0  0  0  0  0  0  0  0  0  0  0  0
   42.1820   21.8480   36.3320 C   0  0  0  0  0  0  0  0  0  0  0  0
   43.0420   21.7640   35.6540 H   0  0  0  0  0  0  0  0  0  0  0  0
   41.7720   21.1930   37.4890 C   0  0  0  0  0  0  0  0  0  0  0  0
   42.3930   20.3960   37.8850 H   0  0  0  0  0  0  0  0  0  0  0  0
   40.6140   21.7480   37.8680 N   0  0  0  0  0  0  0  0  0  0  0  0
   40.1030   21.4230   38.7200 H   0  0  0  0  0  0  0  0  0  0  0  0
   40.2870   22.7100   37.0080 N   0  0  0  0  0  0  0  0  0  0  0  0
  1  2  1  0  0  0  0
  2  3  2  0  0  0  0
  2 16  1  0  0  0  0
  3 11  1  0  0  0  0
  4  5  1  0  0  0  0
  4  3  1  0  0  0  0
  5 12  1  0  0  0  0
  6  5  1  0  0  0  0
  7  8  1  0  0  0  0
  7  6  2  0  0  0  0
  8  4  2  0  0  0  0
  9  8  1  0  0  0  0
  9  1  2  0  0  0  0
 10  1  1  0  0  0  0
 13  9  1  0  0  0  0
 14 20  1  0  0  0  0
 15 21  1  0  0  0  0
 15 14  2  0  0  0  0
 16 15  1  0  0  0  0
 17 16  2  0  0  0  0
 17 18  1  0  0  0  0
 18 19  2  0  0  0  0
 19 14  1  0  0  0  0
 22 18  1  0  0  0  0
 23  6  1  0  0  0  0
 23 25  1  0  0  0  0
 24 29  1  0  0  0  0
 24 30  1  0  0  0  0
 25 31  1  1  0  0  0
 25 24  1  0  0  0  0
 26 27  1  0  0  0  0
 26 25  1  0  0  0  0
 27 28  1  0  0  0  0
 28 35  1  0  0  0  0
 28 29  1  0  0  0  0
 29 36  1  1  0  0  0
 29 37  1  0  0  0  0
 32 26  1  0  0  0  0
 33 26  1  0  0  0  0
 34 28  1  0  0  0  0
 37 38  1  0  0  0  0
 37 44  2  0  0  0  0
 38 40  2  0  0  0  0
 39 38  1  0  0  0  0
 40 42  1  0  0  0  0
 40 41  1  0  0  0  0
 42 43  1  0  0  0  0
 44 42  1  0  0  0  0
M  END
>  <minimizedAffinity>
-5.84570169

$$$$
