
     RDKit          3D

 44 48  0  0  0  0  0  0  0  0999 V2000
   36.2451   30.1879   46.8647 C   0  0  0  0  0  0  0  0  0  0  0  0
   37.0861   30.7648   47.8140 C   0  0  0  0  0  0  0  0  0  0  0  0
   38.0643   31.6699   47.4381 C   0  0  0  0  0  0  0  0  0  0  0  0
   38.1631   31.9686   46.0851 C   0  0  0  0  0  0  0  0  0  0  0  0
   39.0410   32.8207   45.4806 N   0  0  0  0  0  0  0  0  0  0  0  0
   38.7539   32.7782   44.1639 C   0  0  0  0  0  0  0  0  0  0  0  0
   37.7566   31.9526   43.9354 N   0  0  0  0  0  0  0  0  0  0  0  0
   37.3455   31.4152   45.1121 C   0  0  0  0  0  0  0  0  0  0  0  0
   36.3641   30.5034   45.5173 C   0  0  0  0  0  0  0  0  0  0  0  0
   37.4758   30.2026   51.5063 C   0  0  0  0  0  0  0  0  0  0  0  0
   37.7733   30.6419   50.2167 C   0  0  0  0  0  0  0  0  0  0  0  0
   36.8819   30.3629   49.1873 C   0  0  0  0  0  0  0  0  0  0  0  0
   35.7571   29.6674   49.5086 N   0  0  0  0  0  0  0  0  0  0  0  0
   35.4736   29.2461   50.7503 C   0  0  0  0  0  0  0  0  0  0  0  0
   36.3207   29.5107   51.7310 N   0  0  0  0  0  0  0  0  0  0  0  0
   39.4722   33.5444   43.2365 O   0  0  0  0  0  0  0  0  0  0  0  0
   39.5489   31.8431   41.7148 N   0  0  0  0  0  0  0  0  0  0  0  0
   39.2079   33.2726   41.8660 C   0  0  1  0  0  0  0  0  0  0  0  0
   37.8015   33.4549   41.5275 C   0  0  0  0  0  0  0  0  0  0  0  0
   37.6263   33.1504   40.1648 O   0  0  0  0  0  0  0  0  0  0  0  0
   38.0455   31.9108   39.7882 C   0  0  0  0  0  0  0  0  0  0  0  0
   39.4208   31.5680   40.3007 C   0  0  2  0  0  0  0  0  0  0  0  0
   35.4676   29.4761   47.1186 H   0  0  0  0  0  0  0  0  0  0  0  0
   38.7117   32.1128   48.1790 H   0  0  0  0  0  0  0  0  0  0  0  0
   39.7852   33.3886   45.9576 H   0  0  0  0  0  0  0  0  0  0  0  0
   35.7342   30.0808   44.7471 H   0  0  0  0  0  0  0  0  0  0  0  0
   38.2243   30.4633   52.2461 H   0  0  0  0  0  0  0  0  0  0  0  0
   38.6618   31.1844   49.9955 H   0  0  0  0  0  0  0  0  0  0  0  0
   34.5645   28.6979   50.9439 H   0  0  0  0  0  0  0  0  0  0  0  0
   40.5674   31.7901   41.9424 H   0  0  0  0  0  0  0  0  0  0  0  0
   39.8352   33.8775   41.1878 H   0  0  0  0  0  0  0  0  0  0  0  0
   37.5930   34.5687   41.5610 H   0  0  0  0  0  0  0  0  0  0  0  0
   36.9871   32.9854   42.0046 H   0  0  0  0  0  0  0  0  0  0  0  0
   37.3544   31.1236   40.2062 H   0  0  0  0  0  0  0  0  0  0  0  0
   38.0894   31.8702   38.7010 H   0  0  0  0  0  0  0  0  0  0  0  0
   40.2227   32.0562   39.7031 H   0  0  0  0  0  0  0  0  0  0  0  0
   39.5381   30.0715   40.1615 C   0  0  0  0  0  0  0  0  0  0  0  0
   38.7764   29.1809   39.4142 C   0  0  0  0  0  0  0  0  0  0  0  0
   37.9526   29.5970   38.8207 H   0  0  0  0  0  0  0  0  0  0  0  0
   39.2921   27.9056   39.6277 C   0  0  0  0  0  0  0  0  0  0  0  0
   38.8258   27.0642   39.1242 H   0  0  0  0  0  0  0  0  0  0  0  0
   40.3234   28.0322   40.4715 N   0  0  0  0  0  0  0  0  0  0  0  0
   40.8785   27.2047   40.7863 H   0  0  0  0  0  0  0  0  0  0  0  0
   40.4731   29.3166   40.7912 N   0  0  0  0  0  0  0  0  0  0  0  0
  1  2  2  0
  2 12  1  0
  3  2  1  0
  4  3  2  0
  5  4  1  0
  6  5  1  0
  7  6  2  0
  7  8  1  0
  8  9  2  0
  8  4  1  0
  9  1  1  0
 10 15  2  0
 11 10  1  0
 12 13  1  0
 12 11  2  0
 13 14  2  0
 14 15  1  0
 16  6  1  0
 17 18  1  0
 18 16  1  0
 19 18  1  0
 20 19  1  0
 21 20  1  0
 21 22  1  0
 22 17  1  0
  1 23  1  0
  3 24  1  0
  5 25  1  0
  9 26  1  0
 10 27  1  0
 11 28  1  0
 14 29  1  0
 17 30  1  0
 18 31  1  6
 19 32  1  0
 19 33  1  0
 21 34  1  0
 21 35  1  0
 22 36  1  6
 37 38  1  0
 38 39  1  0
 38 40  2  0
 40 41  1  0
 40 42  1  0
 42 43  1  0
 42 44  1  0
 44 37  2  0
 22 37  1  0
M  ISO  8  23  14  24  14  25   9  26  14  27  14  28  14  29  14  30   5
M  ISO  8  31  13  32  13  33  13  34  13  35  13  36  13  39  15  41  16
M  ISO  1  43   5
M  END
>  <DihAtoms>  (1) 
20,21,36,37

>  <DihDeg>  (1) 
16.528769396037543

$$$$
