
 OpenBabel03272508503D

 28 30  0  0  1  0  0  0  0  0999 V2000
   38.4810   31.0240   47.2850 C   0  0  2  0  0  0  0  0  0  0  0  0
   39.0260   32.3400   46.9680 C   0  0  0  0  0  0  0  0  0  0  0  0
   38.4250   31.4290   45.8840 C   0  0  1  0  0  0  0  0  0  0  0  0
   39.1610   30.1280   47.4620 H   0  0  0  0  0  0  0  0  0  0  0  0
   40.1280   32.4090   46.9060 H   0  0  0  0  0  0  0  0  0  0  0  0
   38.4790   33.2640   47.2480 H   0  0  0  0  0  0  0  0  0  0  0  0
   37.6100   31.9580   45.3620 H   0  0  0  0  0  0  0  0  0  0  0  0
   34.9380   30.2860   48.0660 C   0  0  0  0  0  0  0  0  0  0  0  0
   34.8920   30.4940   49.4690 C   0  0  0  0  0  0  0  0  0  0  0  0
   36.1050   30.8900   50.1300 C   0  0  0  0  0  0  0  0  0  0  0  0
   37.2230   31.0450   49.3870 N   0  0  0  0  0  0  0  0  0  0  0  0
   37.2060   30.8310   48.0430 C   0  0  0  0  0  0  0  0  0  0  0  0
   36.0880   30.4530   47.3580 N   0  0  0  0  0  0  0  0  0  0  0  0
   33.9940   29.9910   47.6370 H   0  0  0  0  0  0  0  0  0  0  0  0
   33.9660   30.3530   50.0100 H   0  0  0  0  0  0  0  0  0  0  0  0
   36.0810   31.0490   51.1850 H   0  0  0  0  0  0  0  0  0  0  0  0
   38.9240   30.2700   43.7600 C   0  0  0  0  0  0  0  0  0  0  0  0
   37.7140   30.3990   43.4380 O   0  0  0  0  0  0  0  0  0  0  0  0
   39.4250   30.8430   44.9850 N   0  0  0  0  0  0  0  0  0  0  0  0
   40.4310   30.8570   45.2430 H   0  0  0  0  0  0  0  0  0  0  0  0
   39.8990   29.5460   42.9380 C   0  0  0  0  0  0  0  0  0  0  0  0
   39.7010   28.5250   42.0360 C   0  0  0  0  0  0  0  0  0  0  0  0
   38.7610   28.0880   41.7920 H   0  0  0  0  0  0  0  0  0  0  0  0
   40.9270   28.1640   41.5060 C   0  0  0  0  0  0  0  0  0  0  0  0
   41.1780   27.4180   40.7820 H   0  0  0  0  0  0  0  0  0  0  0  0
   41.8330   28.9670   42.0910 N   0  0  0  0  0  0  0  0  0  0  0  0
   42.8790   29.0490   41.9950 H   0  0  0  0  0  0  0  0  0  0  0  0
   41.2420   29.7910   42.9410 N   0  0  0  0  0  0  0  0  0  0  0  0
  1  4  1  1  0  0  0
  1 12  1  0  0  0  0
  2  6  1  0  0  0  0
  2  1  1  0  0  0  0
  3  7  1  6  0  0  0
  3  2  1  0  0  0  0
  3  1  1  0  0  0  0
  5  2  1  0  0  0  0
  8  9  1  0  0  0  0
  9 15  1  0  0  0  0
  9 10  2  0  0  0  0
 10 16  1  0  0  0  0
 11 10  1  0  0  0  0
 12 11  2  0  0  0  0
 13 12  1  0  0  0  0
 13  8  2  0  0  0  0
 14  8  1  0  0  0  0
 17 19  1  0  0  0  0
 18 17  2  0  0  0  0
 19 20  1  0  0  0  0
 19  3  1  0  0  0  0
 21 28  2  0  0  0  0
 21 17  1  0  0  0  0
 22 21  1  0  0  0  0
 23 22  1  0  0  0  0
 24 22  2  0  0  0  0
 24 26  1  0  0  0  0
 25 24  1  0  0  0  0
 26 28  1  0  0  0  0
 27 26  1  0  0  0  0
M  END
>  <minimizedAffinity>
-4.72071457

>  <minimizedRMSD>
7.47707891

$$$$
