
 OpenBabel03272501293D

 19 20  0  0  0  0  0  0  0  0999 V2000
   37.9020   32.3640   48.9350 C   0  0  0  0  0  0  0  0  0  0  0  0
   37.9420   33.5850   49.2670 O   0  0  0  0  0  0  0  0  0  0  0  0
   37.1980   29.6800   51.4190 C   0  0  0  0  0  0  0  0  0  0  0  0
   37.8940   30.6940   50.7140 C   0  0  0  0  0  0  0  0  0  0  0  0
   37.2240   31.3250   49.6760 C   0  0  0  0  0  0  0  0  0  0  0  0
   35.9430   30.9540   49.3790 N   0  0  0  0  0  0  0  0  0  0  0  0
   35.3210   29.9900   50.0690 C   0  0  0  0  0  0  0  0  0  0  0  0
   35.9320   29.3500   51.0860 N   0  0  0  0  0  0  0  0  0  0  0  0
   37.6400   29.1480   52.2280 H   0  0  0  0  0  0  0  0  0  0  0  0
   38.9090   30.9400   51.0020 H   0  0  0  0  0  0  0  0  0  0  0  0
   34.3200   29.8170   49.7110 H   0  0  0  0  0  0  0  0  0  0  0  0
   38.6090   32.0040   47.6960 C   0  0  0  0  0  0  0  0  0  0  0  0
   38.4730   30.8020   47.0300 C   0  0  0  0  0  0  0  0  0  0  0  0
   37.8640   29.9380   47.2640 H   0  0  0  0  0  0  0  0  0  0  0  0
   39.3060   30.8830   45.9290 C   0  0  0  0  0  0  0  0  0  0  0  0
   39.5190   30.1820   45.1340 H   0  0  0  0  0  0  0  0  0  0  0  0
   39.9070   32.0860   45.9480 N   0  0  0  0  0  0  0  0  0  0  0  0
   40.5930   32.5980   45.3570 H   0  0  0  0  0  0  0  0  0  0  0  0
   39.4880   32.7540   47.0070 N   0  0  0  0  0  0  0  0  0  0  0  0
  1  2  2  0  0  0  0
  1  5  1  0  0  0  0
  3  9  1  0  0  0  0
  4 10  1  0  0  0  0
  4  3  2  0  0  0  0
  5  4  1  0  0  0  0
  6  5  2  0  0  0  0
  6  7  1  0  0  0  0
  7  8  2  0  0  0  0
  8  3  1  0  0  0  0
 11  7  1  0  0  0  0
 12  1  1  0  0  0  0
 13 14  1  0  0  0  0
 13 12  1  0  0  0  0
 15 17  1  0  0  0  0
 15 13  2  0  0  0  0
 16 15  1  0  0  0  0
 17 19  1  0  0  0  0
 18 17  1  0  0  0  0
 19 12  2  0  0  0  0
M  END
>  <minimizedAffinity>
-4.79358816

>  <minimizedRMSD>
2.02068377

$$$$
