
 OpenBabel03272507573D

 31 33  0  0  0  0  0  0  0  0999 V2000
   37.0040   31.3200   48.6720 C   0  0  0  0  0  0  0  0  0  0  0  0
   37.0640   32.3080   49.6610 C   0  0  0  0  0  0  0  0  0  0  0  0
   37.9990   33.3290   49.5360 C   0  0  0  0  0  0  0  0  0  0  0  0
   38.8500   33.3620   48.4550 C   0  0  0  0  0  0  0  0  0  0  0  0
   38.7660   32.3760   47.4990 C   0  0  0  0  0  0  0  0  0  0  0  0
   37.8590   31.3950   47.6310 N   0  0  0  0  0  0  0  0  0  0  0  0
   36.4680   32.4130   50.5580 H   0  0  0  0  0  0  0  0  0  0  0  0
   38.1150   34.1310   50.2520 H   0  0  0  0  0  0  0  0  0  0  0  0
   39.5860   34.1380   48.3260 H   0  0  0  0  0  0  0  0  0  0  0  0
   35.1210   28.4840   50.2460 C   0  0  0  0  0  0  0  0  0  0  0  0
   36.1480   29.4390   50.0070 C   0  0  0  0  0  0  0  0  0  0  0  0
   35.9810   30.3300   48.9480 C   0  0  0  0  0  0  0  0  0  0  0  0
   34.8470   30.2400   48.2000 N   0  0  0  0  0  0  0  0  0  0  0  0
   33.8890   29.3070   48.4670 C   0  0  0  0  0  0  0  0  0  0  0  0
   34.0260   28.4390   49.4770 N   0  0  0  0  0  0  0  0  0  0  0  0
   32.8020   29.4080   47.5500 N   0  0  0  0  0  0  0  0  0  0  0  0
   35.2410   27.7940   51.0580 H   0  0  0  0  0  0  0  0  0  0  0  0
   32.9970   29.1040   46.5500 H   0  0  0  0  0  0  0  0  0  0  0  0
   31.8580   29.7620   47.8330 H   0  0  0  0  0  0  0  0  0  0  0  0
   37.3400   29.4450   50.8860 C   0  0  0  0  0  0  0  0  0  0  0  0
   38.5000   29.7640   50.1780 F   0  0  0  0  0  0  0  0  0  0  0  0
   37.1620   30.3750   51.8620 F   0  0  0  0  0  0  0  0  0  0  0  0
   37.5740   28.2140   51.4880 F   0  0  0  0  0  0  0  0  0  0  0  0
   39.6350   32.3450   46.3230 C   0  0  0  0  0  0  0  0  0  0  0  0
   40.2470   31.2210   45.7900 C   0  0  0  0  0  0  0  0  0  0  0  0
   40.1540   30.2040   46.1880 H   0  0  0  0  0  0  0  0  0  0  0  0
   40.9940   31.5760   44.6790 C   0  0  0  0  0  0  0  0  0  0  0  0
   41.5590   30.8730   44.0980 H   0  0  0  0  0  0  0  0  0  0  0  0
   40.8060   32.9250   44.5740 N   0  0  0  0  0  0  0  0  0  0  0  0
   41.2870   33.4320   43.7860 H   0  0  0  0  0  0  0  0  0  0  0  0
   40.0120   33.3570   45.5400 N   0  0  0  0  0  0  0  0  0  0  0  0
  1 12  1  0  0  0  0
  1  2  1  0  0  0  0
  2  7  1  0  0  0  0
  3  2  2  0  0  0  0
  3  8  1  0  0  0  0
  4  3  1  0  0  0  0
  5  6  1  0  0  0  0
  5  4  2  0  0  0  0
  6  1  2  0  0  0  0
  9  4  1  0  0  0  0
 10 17  1  0  0  0  0
 11 10  1  0  0  0  0
 11 20  1  0  0  0  0
 12 11  2  0  0  0  0
 13 14  2  0  0  0  0
 13 12  1  0  0  0  0
 14 15  1  0  0  0  0
 15 10  2  0  0  0  0
 16 19  1  0  0  0  0
 16 14  1  0  0  0  0
 18 16  1  0  0  0  0
 20 23  1  0  0  0  0
 20 22  1  0  0  0  0
 21 20  1  0  0  0  0
 24  5  1  0  0  0  0
 25 26  1  0  0  0  0
 25 24  1  0  0  0  0
 27 25  2  0  0  0  0
 28 27  1  0  0  0  0
 29 27  1  0  0  0  0
 29 31  1  0  0  0  0
 30 29  1  0  0  0  0
 31 24  2  0  0  0  0
M  END
>  <minimizedAffinity>
-7.09446716

>  <minimizedRMSD>
0.654899895

$$$$
