
 OpenBabel03272507593D

 31 33  0  0  0  0  0  0  0  0999 V2000
   38.8680   25.1500   35.2830 C   0  0  0  0  0  0  0  0  0  0  0  0
   38.9000   26.4040   35.9040 C   0  0  0  0  0  0  0  0  0  0  0  0
   38.1510   27.4420   35.3630 C   0  0  0  0  0  0  0  0  0  0  0  0
   37.3920   27.2350   34.2330 C   0  0  0  0  0  0  0  0  0  0  0  0
   37.3800   25.9910   33.6460 C   0  0  0  0  0  0  0  0  0  0  0  0
   38.1090   24.9950   34.1780 N   0  0  0  0  0  0  0  0  0  0  0  0
   39.4430   26.7150   36.7870 H   0  0  0  0  0  0  0  0  0  0  0  0
   38.1180   28.4400   35.7760 H   0  0  0  0  0  0  0  0  0  0  0  0
   36.8000   28.0160   33.7870 H   0  0  0  0  0  0  0  0  0  0  0  0
   40.0840   22.6280   37.7780 C   0  0  0  0  0  0  0  0  0  0  0  0
   39.2380   23.5760   37.1370 C   0  0  0  0  0  0  0  0  0  0  0  0
   39.6990   24.1790   35.9670 C   0  0  0  0  0  0  0  0  0  0  0  0
   40.9290   23.8280   35.5000 N   0  0  0  0  0  0  0  0  0  0  0  0
   41.7040   22.9140   36.1490 C   0  0  0  0  0  0  0  0  0  0  0  0
   41.2860   22.3210   37.2750 N   0  0  0  0  0  0  0  0  0  0  0  0
   42.9420   22.7160   35.4720 N   0  0  0  0  0  0  0  0  0  0  0  0
   39.7380   22.1590   38.6790 H   0  0  0  0  0  0  0  0  0  0  0  0
   43.6380   23.5190   35.5130 H   0  0  0  0  0  0  0  0  0  0  0  0
   43.1680   21.8310   34.9570 H   0  0  0  0  0  0  0  0  0  0  0  0
   37.9190   23.8800   37.7360 C   0  0  0  0  0  0  0  0  0  0  0  0
   37.5080   22.8750   38.6140 F   0  0  0  0  0  0  0  0  0  0  0  0
   38.0080   25.0460   38.4290 F   0  0  0  0  0  0  0  0  0  0  0  0
   36.9100   24.0080   36.7880 F   0  0  0  0  0  0  0  0  0  0  0  0
   36.5990   25.6950   32.4460 C   0  0  0  0  0  0  0  0  0  0  0  0
   36.2440   24.4330   31.9940 C   0  0  0  0  0  0  0  0  0  0  0  0
   36.5070   23.4900   32.4860 H   0  0  0  0  0  0  0  0  0  0  0  0
   35.5060   24.5440   30.8270 C   0  0  0  0  0  0  0  0  0  0  0  0
   35.1190   23.6990   30.2900 H   0  0  0  0  0  0  0  0  0  0  0  0
   35.4380   25.8910   30.6070 N   0  0  0  0  0  0  0  0  0  0  0  0
   34.9150   26.2280   29.7570 H   0  0  0  0  0  0  0  0  0  0  0  0
   36.0800   26.5460   31.5600 N   0  0  0  0  0  0  0  0  0  0  0  0
  1  2  1  0  0  0  0
  1 12  1  0  0  0  0
  2  7  1  0  0  0  0
  3  8  1  0  0  0  0
  3  2  2  0  0  0  0
  4  3  1  0  0  0  0
  5  6  1  0  0  0  0
  5  4  2  0  0  0  0
  6  1  2  0  0  0  0
  9  4  1  0  0  0  0
 10 17  1  0  0  0  0
 11 20  1  0  0  0  0
 11 10  2  0  0  0  0
 12 11  1  0  0  0  0
 13 12  2  0  0  0  0
 13 14  1  0  0  0  0
 14 15  2  0  0  0  0
 15 10  1  0  0  0  0
 16 18  1  0  0  0  0
 16 14  1  0  0  0  0
 19 16  1  0  0  0  0
 20 22  1  0  0  0  0
 20 21  1  0  0  0  0
 23 20  1  0  0  0  0
 24  5  1  0  0  0  0
 25 24  1  0  0  0  0
 25 26  1  0  0  0  0
 27 25  2  0  0  0  0
 28 27  1  0  0  0  0
 29 27  1  0  0  0  0
 29 31  1  0  0  0  0
 30 29  1  0  0  0  0
 31 24  2  0  0  0  0
M  END
>  <minimizedAffinity>
-6.10509968

$$$$

 OpenBabel03272507593D

 31 33  0  0  0  0  0  0  0  0999 V2000
   38.4140   25.4560   35.3040 C   0  0  0  0  0  0  0  0  0  0  0  0
   38.4650   26.7200   35.9030 C   0  0  0  0  0  0  0  0  0  0  0  0
   37.8300   27.7870   35.2790 C   0  0  0  0  0  0  0  0  0  0  0  0
   37.1630   27.5980   34.0890 C   0  0  0  0  0  0  0  0  0  0  0  0
   37.1310   26.3430   33.5240 C   0  0  0  0  0  0  0  0  0  0  0  0
   37.7490   25.3200   34.1370 N   0  0  0  0  0  0  0  0  0  0  0  0
   38.9440   27.0190   36.8260 H   0  0  0  0  0  0  0  0  0  0  0  0
   37.8180   28.7940   35.6700 H   0  0  0  0  0  0  0  0  0  0  0  0
   36.6610   28.4020   33.5770 H   0  0  0  0  0  0  0  0  0  0  0  0
   41.0390   23.0310   36.4390 C   0  0  0  0  0  0  0  0  0  0  0  0
   40.3760   24.0140   35.6530 C   0  0  0  0  0  0  0  0  0  0  0  0
   39.1220   24.4540   36.0760 C   0  0  0  0  0  0  0  0  0  0  0  0
   38.6000   23.9220   37.2150 N   0  0  0  0  0  0  0  0  0  0  0  0
   39.2730   22.9810   37.9360 C   0  0  0  0  0  0  0  0  0  0  0  0
   40.4780   22.5410   37.5520 N   0  0  0  0  0  0  0  0  0  0  0  0
   38.5260   22.5780   39.0810 N   0  0  0  0  0  0  0  0  0  0  0  0
   42.0040   22.6860   36.1230 H   0  0  0  0  0  0  0  0  0  0  0  0
   37.6570   21.9940   38.8970 H   0  0  0  0  0  0  0  0  0  0  0  0
   38.8070   22.8360   40.0560 H   0  0  0  0  0  0  0  0  0  0  0  0
   41.0400   24.5220   34.4320 C   0  0  0  0  0  0  0  0  0  0  0  0
   41.1700   25.9120   34.4560 F   0  0  0  0  0  0  0  0  0  0  0  0
   42.2820   23.9750   34.3460 F   0  0  0  0  0  0  0  0  0  0  0  0
   40.3430   24.2150   33.2680 F   0  0  0  0  0  0  0  0  0  0  0  0
   36.4440   26.0660   32.2640 C   0  0  0  0  0  0  0  0  0  0  0  0
   35.9630   24.8330   31.8510 C   0  0  0  0  0  0  0  0  0  0  0  0
   36.0390   23.9020   32.4250 H   0  0  0  0  0  0  0  0  0  0  0  0
   35.3720   24.9540   30.6040 C   0  0  0  0  0  0  0  0  0  0  0  0
   34.9280   24.1310   30.0780 H   0  0  0  0  0  0  0  0  0  0  0  0
   35.5180   26.2780   30.2980 N   0  0  0  0  0  0  0  0  0  0  0  0
   35.1380   26.6170   29.3760 H   0  0  0  0  0  0  0  0  0  0  0  0
   36.1440   26.9110   31.2760 N   0  0  0  0  0  0  0  0  0  0  0  0
  1  2  1  0  0  0  0
  1 12  1  0  0  0  0
  2  7  1  0  0  0  0
  3  8  1  0  0  0  0
  3  2  2  0  0  0  0
  4  3  1  0  0  0  0
  5  4  2  0  0  0  0
  5  6  1  0  0  0  0
  6  1  2  0  0  0  0
  9  4  1  0  0  0  0
 10 15  1  0  0  0  0
 11 12  1  0  0  0  0
 11 10  2  0  0  0  0
 12 13  2  0  0  0  0
 13 14  1  0  0  0  0
 14 16  1  0  0  0  0
 15 14  2  0  0  0  0
 16 19  1  0  0  0  0
 17 10  1  0  0  0  0
 18 16  1  0  0  0  0
 20 21  1  0  0  0  0
 20 11  1  0  0  0  0
 22 20  1  0  0  0  0
 23 20  1  0  0  0  0
 24  5  1  0  0  0  0
 25 24  1  0  0  0  0
 25 26  1  0  0  0  0
 27 25  2  0  0  0  0
 28 27  1  0  0  0  0
 29 27  1  0  0  0  0
 29 31  1  0  0  0  0
 30 29  1  0  0  0  0
 31 24  2  0  0  0  0
M  END
>  <minimizedAffinity>
-5.87816286

$$$$

 OpenBabel03272507593D

 31 33  0  0  0  0  0  0  0  0999 V2000
   37.8550   21.9220   32.9120 C   0  0  0  0  0  0  0  0  0  0  0  0
   37.7480   23.1180   32.1910 C   0  0  0  0  0  0  0  0  0  0  0  0
   37.9320   24.3240   32.8570 C   0  0  0  0  0  0  0  0  0  0  0  0
   38.2140   24.3370   34.2040 C   0  0  0  0  0  0  0  0  0  0  0  0
   38.3130   23.1460   34.8860 C   0  0  0  0  0  0  0  0  0  0  0  0
   38.1320   21.9870   34.2310 N   0  0  0  0  0  0  0  0  0  0  0  0
   37.5340   23.2640   31.1410 H   0  0  0  0  0  0  0  0  0  0  0  0
   37.8670   25.2910   32.3790 H   0  0  0  0  0  0  0  0  0  0  0  0
   38.3620   25.2530   34.7520 H   0  0  0  0  0  0  0  0  0  0  0  0
   36.1780   19.0900   31.1150 C   0  0  0  0  0  0  0  0  0  0  0  0
   36.3510   20.2340   31.9440 C   0  0  0  0  0  0  0  0  0  0  0  0
   37.6370   20.7580   32.0780 C   0  0  0  0  0  0  0  0  0  0  0  0
   38.6550   20.1490   31.4100 N   0  0  0  0  0  0  0  0  0  0  0  0
   38.4410   19.0550   30.6270 C   0  0  0  0  0  0  0  0  0  0  0  0
   37.2170   18.5310   30.4820 N   0  0  0  0  0  0  0  0  0  0  0  0
   39.6560   18.5990   30.0360 N   0  0  0  0  0  0  0  0  0  0  0  0
   35.1940   18.6790   31.0060 H   0  0  0  0  0  0  0  0  0  0  0  0
   40.3600   18.1460   30.6910 H   0  0  0  0  0  0  0  0  0  0  0  0
   39.8570   18.6980   29.0130 H   0  0  0  0  0  0  0  0  0  0  0  0
   35.1700   20.8120   32.6230 C   0  0  0  0  0  0  0  0  0  0  0  0
   34.9970   22.1580   32.2980 F   0  0  0  0  0  0  0  0  0  0  0  0
   34.0610   20.1290   32.2330 F   0  0  0  0  0  0  0  0  0  0  0  0
   35.2580   20.7520   34.0090 F   0  0  0  0  0  0  0  0  0  0  0  0
   38.6090   23.0800   36.3160 C   0  0  0  0  0  0  0  0  0  0  0  0
   37.8710   23.6690   37.3300 C   0  0  0  0  0  0  0  0  0  0  0  0
   36.9620   24.2650   37.1850 H   0  0  0  0  0  0  0  0  0  0  0  0
   38.4540   23.3930   38.5560 C   0  0  0  0  0  0  0  0  0  0  0  0
   38.0610   23.7440   39.4900 H   0  0  0  0  0  0  0  0  0  0  0  0
   39.5440   22.6330   38.2380 N   0  0  0  0  0  0  0  0  0  0  0  0
   40.1590   22.2950   39.0230 H   0  0  0  0  0  0  0  0  0  0  0  0
   39.6200   22.4600   36.9280 N   0  0  0  0  0  0  0  0  0  0  0  0
  1  6  1  0  0  0  0
  2  3  1  0  0  0  0
  2  1  2  0  0  0  0
  3  4  2  0  0  0  0
  4  9  1  0  0  0  0
  4  5  1  0  0  0  0
  5 24  1  0  0  0  0
  6  5  2  0  0  0  0
  7  2  1  0  0  0  0
  8  3  1  0  0  0  0
 10 11  1  0  0  0  0
 11 12  2  0  0  0  0
 11 20  1  0  0  0  0
 12  1  1  0  0  0  0
 13 12  1  0  0  0  0
 14 13  2  0  0  0  0
 15 14  1  0  0  0  0
 15 10  2  0  0  0  0
 16 14  1  0  0  0  0
 16 18  1  0  0  0  0
 17 10  1  0  0  0  0
 19 16  1  0  0  0  0
 20 23  1  0  0  0  0
 21 20  1  0  0  0  0
 22 20  1  0  0  0  0
 24 31  2  0  0  0  0
 24 25  1  0  0  0  0
 25 27  2  0  0  0  0
 26 25  1  0  0  0  0
 27 28  1  0  0  0  0
 29 27  1  0  0  0  0
 29 30  1  0  0  0  0
 31 29  1  0  0  0  0
M  END
>  <minimizedAffinity>
-5.64356995

$$$$

 OpenBabel03272507593D

 31 33  0  0  0  0  0  0  0  0999 V2000
   38.1720   24.3430   33.1460 C   0  0  0  0  0  0  0  0  0  0  0  0
   39.3770   24.2090   32.4470 C   0  0  0  0  0  0  0  0  0  0  0  0
   40.5140   23.8060   33.1360 C   0  0  0  0  0  0  0  0  0  0  0  0
   40.4510   23.5440   34.4860 C   0  0  0  0  0  0  0  0  0  0  0  0
   39.2520   23.6850   35.1460 C   0  0  0  0  0  0  0  0  0  0  0  0
   38.1600   24.0760   34.4690 N   0  0  0  0  0  0  0  0  0  0  0  0
   39.5780   24.3770   31.3970 H   0  0  0  0  0  0  0  0  0  0  0  0
   41.4830   23.6760   32.6760 H   0  0  0  0  0  0  0  0  0  0  0  0
   41.3120   23.2300   35.0520 H   0  0  0  0  0  0  0  0  0  0  0  0
   35.1810   24.2780   30.8850 C   0  0  0  0  0  0  0  0  0  0  0  0
   36.2370   23.8190   31.7210 C   0  0  0  0  0  0  0  0  0  0  0  0
   37.0840   24.7700   32.2880 C   0  0  0  0  0  0  0  0  0  0  0  0
   36.8570   26.0840   32.0130 N   0  0  0  0  0  0  0  0  0  0  0  0
   35.8320   26.4760   31.2050 C   0  0  0  0  0  0  0  0  0  0  0  0
   35.0040   25.5840   30.6480 N   0  0  0  0  0  0  0  0  0  0  0  0
   35.8000   27.8950   31.0680 N   0  0  0  0  0  0  0  0  0  0  0  0
   34.5230   23.5540   30.4450 H   0  0  0  0  0  0  0  0  0  0  0  0
   36.5820   28.3320   30.4960 H   0  0  0  0  0  0  0  0  0  0  0  0
   35.0510   28.4860   31.5010 H   0  0  0  0  0  0  0  0  0  0  0  0
   36.3880   22.3640   31.9500 C   0  0  0  0  0  0  0  0  0  0  0  0
   36.3210   22.0470   33.3080 F   0  0  0  0  0  0  0  0  0  0  0  0
   35.3860   21.7100   31.3050 F   0  0  0  0  0  0  0  0  0  0  0  0
   37.6040   21.8670   31.4920 F   0  0  0  0  0  0  0  0  0  0  0  0
   39.1070   23.4260   36.5780 C   0  0  0  0  0  0  0  0  0  0  0  0
   38.0990   23.9100   37.3970 C   0  0  0  0  0  0  0  0  0  0  0  0
   37.2760   24.5550   37.0700 H   0  0  0  0  0  0  0  0  0  0  0  0
   38.2900   23.4560   38.6930 C   0  0  0  0  0  0  0  0  0  0  0  0
   37.6350   23.7010   39.5060 H   0  0  0  0  0  0  0  0  0  0  0  0
   39.4250   22.7000   38.6130 N   0  0  0  0  0  0  0  0  0  0  0  0
   39.7770   22.2410   39.4930 H   0  0  0  0  0  0  0  0  0  0  0  0
   39.8880   22.6930   37.3740 N   0  0  0  0  0  0  0  0  0  0  0  0
  1  6  1  0  0  0  0
  2  3  1  0  0  0  0
  2  1  2  0  0  0  0
  3  4  2  0  0  0  0
  4  9  1  0  0  0  0
  4  5  1  0  0  0  0
  5 24  1  0  0  0  0
  6  5  2  0  0  0  0
  7  2  1  0  0  0  0
  8  3  1  0  0  0  0
 10 11  1  0  0  0  0
 11 20  1  0  0  0  0
 11 12  2  0  0  0  0
 12  1  1  0  0  0  0
 13 12  1  0  0  0  0
 14 13  2  0  0  0  0
 15 10  2  0  0  0  0
 15 14  1  0  0  0  0
 16 14  1  0  0  0  0
 16 19  1  0  0  0  0
 17 10  1  0  0  0  0
 18 16  1  0  0  0  0
 20 21  1  0  0  0  0
 22 20  1  0  0  0  0
 23 20  1  0  0  0  0
 24 31  2  0  0  0  0
 24 25  1  0  0  0  0
 25 27  2  0  0  0  0
 26 25  1  0  0  0  0
 27 28  1  0  0  0  0
 29 27  1  0  0  0  0
 29 30  1  0  0  0  0
 31 29  1  0  0  0  0
M  END
>  <minimizedAffinity>
-5.62568283

$$$$

 OpenBabel03272507593D

 31 33  0  0  0  0  0  0  0  0999 V2000
   38.0160   25.9900   34.1690 C   0  0  0  0  0  0  0  0  0  0  0  0
   37.2850   26.7670   35.0750 C   0  0  0  0  0  0  0  0  0  0  0  0
   36.6310   27.9020   34.6130 C   0  0  0  0  0  0  0  0  0  0  0  0
   36.7050   28.2550   33.2840 C   0  0  0  0  0  0  0  0  0  0  0  0
   37.4320   27.4710   32.4180 C   0  0  0  0  0  0  0  0  0  0  0  0
   38.0600   26.3750   32.8760 N   0  0  0  0  0  0  0  0  0  0  0  0
   37.1370   26.6180   36.1360 H   0  0  0  0  0  0  0  0  0  0  0  0
   36.0450   28.5580   35.2420 H   0  0  0  0  0  0  0  0  0  0  0  0
   36.2110   29.1280   32.8920 H   0  0  0  0  0  0  0  0  0  0  0  0
   40.5820   23.7010   35.6650 C   0  0  0  0  0  0  0  0  0  0  0  0
   40.0110   24.8440   35.0380 C   0  0  0  0  0  0  0  0  0  0  0  0
   38.6370   24.8440   34.8040 C   0  0  0  0  0  0  0  0  0  0  0  0
   37.9150   23.7550   35.1870 N   0  0  0  0  0  0  0  0  0  0  0  0
   38.5060   22.6820   35.7850 C   0  0  0  0  0  0  0  0  0  0  0  0
   39.8240   22.6560   36.0210 N   0  0  0  0  0  0  0  0  0  0  0  0
   37.5490   21.6710   36.0900 N   0  0  0  0  0  0  0  0  0  0  0  0
   41.6380   23.6910   35.8500 H   0  0  0  0  0  0  0  0  0  0  0  0
   37.1400   21.1420   35.2630 H   0  0  0  0  0  0  0  0  0  0  0  0
   37.2560   21.4510   37.0710 H   0  0  0  0  0  0  0  0  0  0  0  0
   40.8940   25.9720   34.6650 C   0  0  0  0  0  0  0  0  0  0  0  0
   42.1670   25.8350   35.2210 F   0  0  0  0  0  0  0  0  0  0  0  0
   41.0170   26.0050   33.3110 F   0  0  0  0  0  0  0  0  0  0  0  0
   40.4110   27.2030   35.0930 F   0  0  0  0  0  0  0  0  0  0  0  0
   37.5570   27.7800   30.9940 C   0  0  0  0  0  0  0  0  0  0  0  0
   38.7430   27.9110   30.2880 C   0  0  0  0  0  0  0  0  0  0  0  0
   39.7460   27.7980   30.7150 H   0  0  0  0  0  0  0  0  0  0  0  0
   38.4700   28.2070   28.9630 C   0  0  0  0  0  0  0  0  0  0  0  0
   39.2310   28.3550   28.2220 H   0  0  0  0  0  0  0  0  0  0  0  0
   37.1050   28.2460   28.9090 N   0  0  0  0  0  0  0  0  0  0  0  0
   36.6520   28.4590   27.9830 H   0  0  0  0  0  0  0  0  0  0  0  0
   36.5890   27.9950   30.1010 N   0  0  0  0  0  0  0  0  0  0  0  0
  1 12  1  0  0  0  0
  1  2  1  0  0  0  0
  2  7  1  0  0  0  0
  3  2  2  0  0  0  0
  3  8  1  0  0  0  0
  4  3  1  0  0  0  0
  5  6  1  0  0  0  0
  5  4  2  0  0  0  0
  6  1  2  0  0  0  0
  9  4  1  0  0  0  0
 10 17  1  0  0  0  0
 10 15  1  0  0  0  0
 11 10  2  0  0  0  0
 12 11  1  0  0  0  0
 12 13  2  0  0  0  0
 13 14  1  0  0  0  0
 14 15  2  0  0  0  0
 14 16  1  0  0  0  0
 16 19  1  0  0  0  0
 18 16  1  0  0  0  0
 20 11  1  0  0  0  0
 20 23  1  0  0  0  0
 20 21  1  0  0  0  0
 22 20  1  0  0  0  0
 24  5  1  0  0  0  0
 25 26  1  0  0  0  0
 25 24  1  0  0  0  0
 27 25  2  0  0  0  0
 28 27  1  0  0  0  0
 29 27  1  0  0  0  0
 29 31  1  0  0  0  0
 30 29  1  0  0  0  0
 31 24  2  0  0  0  0
M  END
>  <minimizedAffinity>
-5.60649633

$$$$

 OpenBabel03272507593D

 31 33  0  0  0  0  0  0  0  0999 V2000
   39.3830   25.8290   34.7030 C   0  0  0  0  0  0  0  0  0  0  0  0
   39.0100   26.8580   35.5770 C   0  0  0  0  0  0  0  0  0  0  0  0
   37.8070   27.5190   35.3630 C   0  0  0  0  0  0  0  0  0  0  0  0
   36.9990   27.1660   34.3060 C   0  0  0  0  0  0  0  0  0  0  0  0
   37.3930   26.1510   33.4640 C   0  0  0  0  0  0  0  0  0  0  0  0
   38.5580   25.5190   33.6810 N   0  0  0  0  0  0  0  0  0  0  0  0
   39.5360   27.2430   36.4410 H   0  0  0  0  0  0  0  0  0  0  0  0
   37.4420   28.3230   35.9870 H   0  0  0  0  0  0  0  0  0  0  0  0
   36.0610   27.6570   34.1100 H   0  0  0  0  0  0  0  0  0  0  0  0
   41.9750   23.4110   35.9270 C   0  0  0  0  0  0  0  0  0  0  0  0
   40.7030   23.9530   35.5890 C   0  0  0  0  0  0  0  0  0  0  0  0
   40.6600   25.2420   35.0610 C   0  0  0  0  0  0  0  0  0  0  0  0
   41.8320   25.9130   34.8960 N   0  0  0  0  0  0  0  0  0  0  0  0
   43.0280   25.3540   35.2350 C   0  0  0  0  0  0  0  0  0  0  0  0
   43.0980   24.1170   35.7440 N   0  0  0  0  0  0  0  0  0  0  0  0
   44.1070   26.2470   34.9720 N   0  0  0  0  0  0  0  0  0  0  0  0
   42.0200   22.4200   36.3340 H   0  0  0  0  0  0  0  0  0  0  0  0
   44.1840   27.0960   35.6080 H   0  0  0  0  0  0  0  0  0  0  0  0
   44.7950   26.0880   34.1980 H   0  0  0  0  0  0  0  0  0  0  0  0
   39.4930   23.1300   35.8130 C   0  0  0  0  0  0  0  0  0  0  0  0
   38.9250   22.7130   34.6080 F   0  0  0  0  0  0  0  0  0  0  0  0
   39.8360   22.0280   36.5310 F   0  0  0  0  0  0  0  0  0  0  0  0
   38.4950   23.8110   36.5000 F   0  0  0  0  0  0  0  0  0  0  0  0
   36.5890   25.7190   32.3220 C   0  0  0  0  0  0  0  0  0  0  0  0
   36.3200   24.4080   31.9620 C   0  0  0  0  0  0  0  0  0  0  0  0
   36.6820   23.5210   32.4940 H   0  0  0  0  0  0  0  0  0  0  0  0
   35.5260   24.3870   30.8260 C   0  0  0  0  0  0  0  0  0  0  0  0
   35.1890   23.4830   30.3580 H   0  0  0  0  0  0  0  0  0  0  0  0
   35.3370   25.7080   30.5330 N   0  0  0  0  0  0  0  0  0  0  0  0
   34.7520   25.9490   29.6910 H   0  0  0  0  0  0  0  0  0  0  0  0
   35.9620   26.4700   31.4140 N   0  0  0  0  0  0  0  0  0  0  0  0
  1 12  1  0  0  0  0
  1  2  1  0  0  0  0
  2  7  1  0  0  0  0
  3  2  2  0  0  0  0
  3  8  1  0  0  0  0
  4  3  1  0  0  0  0
  5  6  1  0  0  0  0
  5  4  2  0  0  0  0
  6  1  2  0  0  0  0
  9  4  1  0  0  0  0
 10 17  1  0  0  0  0
 11 20  1  0  0  0  0
 11 10  2  0  0  0  0
 12 11  1  0  0  0  0
 13 12  2  0  0  0  0
 13 14  1  0  0  0  0
 14 15  2  0  0  0  0
 15 10  1  0  0  0  0
 16 14  1  0  0  0  0
 16 18  1  0  0  0  0
 19 16  1  0  0  0  0
 20 23  1  0  0  0  0
 20 22  1  0  0  0  0
 21 20  1  0  0  0  0
 24  5  1  0  0  0  0
 25 24  1  0  0  0  0
 25 26  1  0  0  0  0
 27 25  2  0  0  0  0
 28 27  1  0  0  0  0
 29 27  1  0  0  0  0
 29 31  1  0  0  0  0
 30 29  1  0  0  0  0
 31 24  2  0  0  0  0
M  END
>  <minimizedAffinity>
-5.54635954

$$$$

 OpenBabel03272507593D

 31 33  0  0  0  0  0  0  0  0999 V2000
   39.6040   26.4500   33.4280 C   0  0  0  0  0  0  0  0  0  0  0  0
   40.7890   27.1970   33.4250 C   0  0  0  0  0  0  0  0  0  0  0  0
   41.8590   26.7640   34.1990 C   0  0  0  0  0  0  0  0  0  0  0  0
   41.7500   25.6190   34.9550 C   0  0  0  0  0  0  0  0  0  0  0  0
   40.5730   24.9070   34.9380 C   0  0  0  0  0  0  0  0  0  0  0  0
   39.5450   25.3360   34.1860 N   0  0  0  0  0  0  0  0  0  0  0  0
   41.0200   28.1070   32.8870 H   0  0  0  0  0  0  0  0  0  0  0  0
   42.8080   27.2770   34.2550 H   0  0  0  0  0  0  0  0  0  0  0  0
   42.5590   25.2540   35.5660 H   0  0  0  0  0  0  0  0  0  0  0  0
   36.4580   28.1300   32.2690 C   0  0  0  0  0  0  0  0  0  0  0  0
   37.4310   27.5670   33.1420 C   0  0  0  0  0  0  0  0  0  0  0  0
   38.5870   27.0320   32.5740 C   0  0  0  0  0  0  0  0  0  0  0  0
   38.7240   27.0770   31.2200 N   0  0  0  0  0  0  0  0  0  0  0  0
   37.7630   27.6260   30.4250 C   0  0  0  0  0  0  0  0  0  0  0  0
   36.6430   28.1460   30.9430 N   0  0  0  0  0  0  0  0  0  0  0  0
   38.1310   27.5540   29.0500 N   0  0  0  0  0  0  0  0  0  0  0  0
   35.5650   28.5440   32.6960 H   0  0  0  0  0  0  0  0  0  0  0  0
   38.1200   26.5870   28.6070 H   0  0  0  0  0  0  0  0  0  0  0  0
   38.3990   28.4000   28.4930 H   0  0  0  0  0  0  0  0  0  0  0  0
   37.1760   27.5740   34.6000 C   0  0  0  0  0  0  0  0  0  0  0  0
   36.1560   28.4640   34.9390 F   0  0  0  0  0  0  0  0  0  0  0  0
   36.8040   26.3250   34.9870 F   0  0  0  0  0  0  0  0  0  0  0  0
   38.2890   27.9520   35.3430 F   0  0  0  0  0  0  0  0  0  0  0  0
   40.3820   23.6830   35.7140 C   0  0  0  0  0  0  0  0  0  0  0  0
   41.3550   23.0220   36.4490 C   0  0  0  0  0  0  0  0  0  0  0  0
   42.4000   23.3400   36.5400 H   0  0  0  0  0  0  0  0  0  0  0  0
   40.8080   21.9000   37.0500 C   0  0  0  0  0  0  0  0  0  0  0  0
   41.3690   21.2290   37.6700 H   0  0  0  0  0  0  0  0  0  0  0  0
   39.5000   21.9190   36.6520 N   0  0  0  0  0  0  0  0  0  0  0  0
   38.8690   21.1460   36.9900 H   0  0  0  0  0  0  0  0  0  0  0  0
   39.2690   22.9640   35.8750 N   0  0  0  0  0  0  0  0  0  0  0  0
  1  6  1  0  0  0  0
  2  1  2  0  0  0  0
  2  3  1  0  0  0  0
  3  8  1  0  0  0  0
  3  4  2  0  0  0  0
  4  9  1  0  0  0  0
  5  4  1  0  0  0  0
  5 24  1  0  0  0  0
  6  5  2  0  0  0  0
  7  2  1  0  0  0  0
 10 17  1  0  0  0  0
 10 11  1  0  0  0  0
 11 20  1  0  0  0  0
 12 11  2  0  0  0  0
 12  1  1  0  0  0  0
 13 12  1  0  0  0  0
 14 15  1  0  0  0  0
 14 13  2  0  0  0  0
 15 10  2  0  0  0  0
 16 14  1  0  0  0  0
 18 16  1  0  0  0  0
 19 16  1  0  0  0  0
 20 21  1  0  0  0  0
 20 22  1  0  0  0  0
 20 23  1  0  0  0  0
 24 31  2  0  0  0  0
 24 25  1  0  0  0  0
 25 26  1  0  0  0  0
 25 27  2  0  0  0  0
 27 28  1  0  0  0  0
 29 30  1  0  0  0  0
 29 27  1  0  0  0  0
 31 29  1  0  0  0  0
M  END
>  <minimizedAffinity>
-5.53295183

$$$$

 OpenBabel03272507593D

 31 33  0  0  0  0  0  0  0  0999 V2000
   38.6290   24.4380   34.5000 C   0  0  0  0  0  0  0  0  0  0  0  0
   37.8810   23.3800   35.0320 C   0  0  0  0  0  0  0  0  0  0  0  0
   38.5250   22.4250   35.8090 C   0  0  0  0  0  0  0  0  0  0  0  0
   39.8780   22.5220   36.0490 C   0  0  0  0  0  0  0  0  0  0  0  0
   40.5850   23.5730   35.5120 C   0  0  0  0  0  0  0  0  0  0  0  0
   39.9520   24.4900   34.7620 N   0  0  0  0  0  0  0  0  0  0  0  0
   36.8240   23.1740   34.9310 H   0  0  0  0  0  0  0  0  0  0  0  0
   38.0270   21.5780   36.2580 H   0  0  0  0  0  0  0  0  0  0  0  0
   40.4090   21.8000   36.6460 H   0  0  0  0  0  0  0  0  0  0  0  0
   36.8020   27.5090   33.3630 C   0  0  0  0  0  0  0  0  0  0  0  0
   37.6080   26.6500   34.1610 C   0  0  0  0  0  0  0  0  0  0  0  0
   37.8140   25.3450   33.7160 C   0  0  0  0  0  0  0  0  0  0  0  0
   37.2360   24.9630   32.5440 N   0  0  0  0  0  0  0  0  0  0  0  0
   36.4720   25.8220   31.8120 C   0  0  0  0  0  0  0  0  0  0  0  0
   36.2570   27.0800   32.2170 N   0  0  0  0  0  0  0  0  0  0  0  0
   35.9770   25.1940   30.6320 N   0  0  0  0  0  0  0  0  0  0  0  0
   36.6380   28.5150   33.6960 H   0  0  0  0  0  0  0  0  0  0  0  0
   35.2300   24.4500   30.7700 H   0  0  0  0  0  0  0  0  0  0  0  0
   36.3220   25.4420   29.6750 H   0  0  0  0  0  0  0  0  0  0  0  0
   38.1860   27.1740   35.4190 C   0  0  0  0  0  0  0  0  0  0  0  0
   39.5630   27.3770   35.3070 F   0  0  0  0  0  0  0  0  0  0  0  0
   37.5980   28.3650   35.7110 F   0  0  0  0  0  0  0  0  0  0  0  0
   38.0030   26.3170   36.4980 F   0  0  0  0  0  0  0  0  0  0  0  0
   42.0220   23.7430   35.7230 C   0  0  0  0  0  0  0  0  0  0  0  0
   42.8510   22.8840   36.4280 C   0  0  0  0  0  0  0  0  0  0  0  0
   42.5280   21.9600   36.9210 H   0  0  0  0  0  0  0  0  0  0  0  0
   44.1480   23.3700   36.4160 C   0  0  0  0  0  0  0  0  0  0  0  0
   44.9690   22.8750   36.8980 H   0  0  0  0  0  0  0  0  0  0  0  0
   44.0610   24.5250   35.6910 N   0  0  0  0  0  0  0  0  0  0  0  0
   44.9410   25.0850   35.5440 H   0  0  0  0  0  0  0  0  0  0  0  0
   42.8150   24.7270   35.2950 N   0  0  0  0  0  0  0  0  0  0  0  0
  1  6  2  0  0  0  0
  1  2  1  0  0  0  0
  2  3  2  0  0  0  0
  3  4  1  0  0  0  0
  3  8  1  0  0  0  0
  4  9  1  0  0  0  0
  5 24  1  0  0  0  0
  5  4  2  0  0  0  0
  6  5  1  0  0  0  0
  7  2  1  0  0  0  0
 10 17  1  0  0  0  0
 10 11  1  0  0  0  0
 11 20  1  0  0  0  0
 12 11  2  0  0  0  0
 12  1  1  0  0  0  0
 13 12  1  0  0  0  0
 14 15  1  0  0  0  0
 14 13  2  0  0  0  0
 15 10  2  0  0  0  0
 16 18  1  0  0  0  0
 16 14  1  0  0  0  0
 19 16  1  0  0  0  0
 20 22  1  0  0  0  0
 20 23  1  0  0  0  0
 21 20  1  0  0  0  0
 24 25  1  0  0  0  0
 25 26  1  0  0  0  0
 27 25  2  0  0  0  0
 27 28  1  0  0  0  0
 29 27  1  0  0  0  0
 30 29  1  0  0  0  0
 31 29  1  0  0  0  0
 31 24  2  0  0  0  0
M  END
>  <minimizedAffinity>
-5.47635078

$$$$

 OpenBabel03272507593D

 31 33  0  0  0  0  0  0  0  0999 V2000
   38.6530   24.5220   35.1640 C   0  0  0  0  0  0  0  0  0  0  0  0
   37.8230   24.9000   36.2270 C   0  0  0  0  0  0  0  0  0  0  0  0
   38.0200   24.3210   37.4740 C   0  0  0  0  0  0  0  0  0  0  0  0
   39.0160   23.3880   37.6570 C   0  0  0  0  0  0  0  0  0  0  0  0
   39.8160   23.0370   36.5940 C   0  0  0  0  0  0  0  0  0  0  0  0
   39.6160   23.6040   35.3930 N   0  0  0  0  0  0  0  0  0  0  0  0
   37.0080   25.6110   36.2350 H   0  0  0  0  0  0  0  0  0  0  0  0
   37.4260   24.5530   38.3470 H   0  0  0  0  0  0  0  0  0  0  0  0
   39.1960   22.9190   38.6090 H   0  0  0  0  0  0  0  0  0  0  0  0
   38.7630   26.9220   32.2850 C   0  0  0  0  0  0  0  0  0  0  0  0
   39.1230   26.2680   33.4960 C   0  0  0  0  0  0  0  0  0  0  0  0
   38.3210   25.2150   33.9350 C   0  0  0  0  0  0  0  0  0  0  0  0
   37.2390   24.8690   33.1840 N   0  0  0  0  0  0  0  0  0  0  0  0
   36.9340   25.5250   32.0290 C   0  0  0  0  0  0  0  0  0  0  0  0
   37.6870   26.5400   31.5850 N   0  0  0  0  0  0  0  0  0  0  0  0
   35.7620   24.9850   31.4250 N   0  0  0  0  0  0  0  0  0  0  0  0
   39.3740   27.7320   31.9380 H   0  0  0  0  0  0  0  0  0  0  0  0
   34.8420   25.1760   31.9220 H   0  0  0  0  0  0  0  0  0  0  0  0
   35.7910   24.4280   30.5380 H   0  0  0  0  0  0  0  0  0  0  0  0
   40.3220   26.7300   34.2310 C   0  0  0  0  0  0  0  0  0  0  0  0
   41.2790   25.7200   34.3410 F   0  0  0  0  0  0  0  0  0  0  0  0
   40.8730   27.7750   33.5600 F   0  0  0  0  0  0  0  0  0  0  0  0
   40.0370   27.1410   35.5290 F   0  0  0  0  0  0  0  0  0  0  0  0
   40.8930   22.0560   36.7110 C   0  0  0  0  0  0  0  0  0  0  0  0
   41.7310   21.6380   35.6880 C   0  0  0  0  0  0  0  0  0  0  0  0
   41.6900   21.9950   34.6530 H   0  0  0  0  0  0  0  0  0  0  0  0
   42.6290   20.7000   36.1720 C   0  0  0  0  0  0  0  0  0  0  0  0
   43.3780   20.2310   35.5640 H   0  0  0  0  0  0  0  0  0  0  0  0
   42.3000   20.5800   37.4930 N   0  0  0  0  0  0  0  0  0  0  0  0
   42.8560   19.9070   38.0820 H   0  0  0  0  0  0  0  0  0  0  0  0
   41.2870   21.3760   37.7900 N   0  0  0  0  0  0  0  0  0  0  0  0
  1  6  2  0  0  0  0
  1  2  1  0  0  0  0
  2  7  1  0  0  0  0
  2  3  2  0  0  0  0
  3  4  1  0  0  0  0
  3  8  1  0  0  0  0
  4  9  1  0  0  0  0
  5 24  1  0  0  0  0
  5  4  2  0  0  0  0
  6  5  1  0  0  0  0
 10 11  1  0  0  0  0
 11 12  2  0  0  0  0
 11 20  1  0  0  0  0
 12  1  1  0  0  0  0
 13 12  1  0  0  0  0
 14 13  2  0  0  0  0
 15 14  1  0  0  0  0
 15 10  2  0  0  0  0
 16 18  1  0  0  0  0
 16 14  1  0  0  0  0
 17 10  1  0  0  0  0
 19 16  1  0  0  0  0
 20 21  1  0  0  0  0
 20 23  1  0  0  0  0
 22 20  1  0  0  0  0
 24 31  2  0  0  0  0
 25 27  2  0  0  0  0
 25 24  1  0  0  0  0
 26 25  1  0  0  0  0
 27 29  1  0  0  0  0
 28 27  1  0  0  0  0
 29 31  1  0  0  0  0
 29 30  1  0  0  0  0
M  END
>  <minimizedAffinity>
-5.47464752

$$$$
