
 OpenBabel03272504503D

 41 44  0  0  1  0  0  0  0  0999 V2000
   37.6630   31.3850   48.6480 N   0  0  0  0  0  0  0  0  0  0  0  0
   38.2110   31.5120   49.9730 C   0  0  0  0  0  0  0  0  0  0  0  0
   39.2320   32.5960   50.1050 C   0  0  0  0  0  0  0  0  0  0  0  0
   38.9450   33.7530   49.1730 C   0  0  0  0  0  0  0  0  0  0  0  0
   39.0630   33.2200   47.7770 C   0  0  0  0  0  0  0  0  0  0  0  0
   38.0830   32.1200   47.5010 C   0  0  1  0  0  0  0  0  0  0  0  0
   38.7320   30.5480   50.2130 H   0  0  0  0  0  0  0  0  0  0  0  0
   37.3890   31.5980   50.7050 H   0  0  0  0  0  0  0  0  0  0  0  0
   40.2760   32.2850   49.9640 H   0  0  0  0  0  0  0  0  0  0  0  0
   39.1640   33.0080   51.1480 H   0  0  0  0  0  0  0  0  0  0  0  0
   39.6670   34.5440   49.3790 H   0  0  0  0  0  0  0  0  0  0  0  0
   37.9030   34.1260   49.3750 H   0  0  0  0  0  0  0  0  0  0  0  0
   38.9450   33.9990   46.9950 H   0  0  0  0  0  0  0  0  0  0  0  0
   40.0880   32.7830   47.7000 H   0  0  0  0  0  0  0  0  0  0  0  0
   37.1780   32.5790   47.0480 H   0  0  0  0  0  0  0  0  0  0  0  0
   36.5280   29.3210   49.3160 C   0  0  0  0  0  0  0  0  0  0  0  0
   36.6130   30.4370   48.4920 C   0  0  0  0  0  0  0  0  0  0  0  0
   35.6260   30.5890   47.5120 C   0  0  0  0  0  0  0  0  0  0  0  0
   34.6490   29.6410   47.4250 N   0  0  0  0  0  0  0  0  0  0  0  0
   34.5910   28.5830   48.2250 C   0  0  0  0  0  0  0  0  0  0  0  0
   35.5390   28.4270   49.1750 N   0  0  0  0  0  0  0  0  0  0  0  0
   37.2540   29.1340   50.0950 H   0  0  0  0  0  0  0  0  0  0  0  0
   35.6360   31.4360   46.8430 H   0  0  0  0  0  0  0  0  0  0  0  0
   33.5380   27.5980   48.1100 C   0  0  0  0  0  0  0  0  0  0  0  0
   33.7450   26.3890   47.5220 C   0  0  0  0  0  0  0  0  0  0  0  0
   32.7690   25.4290   47.3970 C   0  0  0  0  0  0  0  0  0  0  0  0
   31.5410   25.7820   47.9170 C   0  0  0  0  0  0  0  0  0  0  0  0
   31.2610   27.0230   48.5420 C   0  0  0  0  0  0  0  0  0  0  0  0
   32.3100   27.8990   48.6090 N   0  0  0  0  0  0  0  0  0  0  0  0
   34.7350   26.1900   47.1400 H   0  0  0  0  0  0  0  0  0  0  0  0
   32.9020   24.4730   46.9410 H   0  0  0  0  0  0  0  0  0  0  0  0
   30.7050   25.0870   47.8650 H   0  0  0  0  0  0  0  0  0  0  0  0
   30.2920   27.2410   48.9260 H   0  0  0  0  0  0  0  0  0  0  0  0
   38.6450   31.2210   46.4340 C   0  0  0  0  0  0  0  0  0  0  0  0
   39.9680   31.5430   46.1150 C   0  0  0  0  0  0  0  0  0  0  0  0
   40.7120   32.2670   46.4260 H   0  0  0  0  0  0  0  0  0  0  0  0
   40.3940   30.6680   45.1260 C   0  0  0  0  0  0  0  0  0  0  0  0
   41.2570   30.4360   44.5180 H   0  0  0  0  0  0  0  0  0  0  0  0
   39.3320   29.8540   44.8790 N   0  0  0  0  0  0  0  0  0  0  0  0
   39.0910   29.0450   44.2590 H   0  0  0  0  0  0  0  0  0  0  0  0
   38.3060   30.1700   45.6390 N   0  0  0  0  0  0  0  0  0  0  0  0
  1  2  1  0  0  0  0
  2  3  1  0  0  0  0
  2  7  1  0  0  0  0
  2  8  1  0  0  0  0
  3 10  1  0  0  0  0
  4 12  1  0  0  0  0
  4 11  1  0  0  0  0
  4  3  1  0  0  0  0
  5  4  1  0  0  0  0
  6 15  1  6  0  0  0
  6  5  1  0  0  0  0
  6  1  1  0  0  0  0
  9  3  1  0  0  0  0
 13  5  1  0  0  0  0
 14  5  1  0  0  0  0
 16 22  1  0  0  0  0
 17  1  1  0  0  0  0
 17 16  2  0  0  0  0
 18 17  1  0  0  0  0
 19 18  2  0  0  0  0
 19 20  1  0  0  0  0
 20 21  2  0  0  0  0
 21 16  1  0  0  0  0
 23 18  1  0  0  0  0
 24 20  1  0  0  0  0
 24 29  1  0  0  0  0
 25 24  2  0  0  0  0
 26 25  1  0  0  0  0
 26 27  2  0  0  0  0
 27 28  1  0  0  0  0
 28 29  2  0  0  0  0
 28 33  1  0  0  0  0
 30 25  1  0  0  0  0
 31 26  1  0  0  0  0
 32 27  1  0  0  0  0
 34  6  1  0  0  0  0
 35 36  1  0  0  0  0
 35 34  1  0  0  0  0
 37 35  2  0  0  0  0
 38 37  1  0  0  0  0
 39 37  1  0  0  0  0
 39 41  1  0  0  0  0
 40 39  1  0  0  0  0
 41 34  2  0  0  0  0
M  END
>  <minimizedAffinity>
-5.75291157

>  <minimizedRMSD>
1.32926393

$$$$
