
     RDKit          3D

 42 45  0  0  0  0  0  0  0  0999 V2000
   37.3404   30.1663   51.5152 C   0  0  0  0  0  0  0  0  0  0  0  0
   38.0805   30.8596   50.5093 C   0  0  0  0  0  0  0  0  0  0  0  0
   37.7062   30.6516   49.1879 C   0  0  0  0  0  0  0  0  0  0  0  0
   36.6624   29.8014   48.9696 N   0  0  0  0  0  0  0  0  0  0  0  0
   35.9890   29.1666   49.9363 C   0  0  0  0  0  0  0  0  0  0  0  0
   36.3344   29.3537   51.2165 N   0  0  0  0  0  0  0  0  0  0  0  0
   38.9376   33.2650   49.0047 F   0  0  0  0  0  0  0  0  0  0  0  0
   38.9156   32.4798   47.9421 C   0  0  0  0  0  0  0  0  0  0  0  0
   38.3359   31.2636   48.0487 C   0  0  0  0  0  0  0  0  0  0  0  0
   38.3674   30.5158   46.8685 C   0  0  0  0  0  0  0  0  0  0  0  0
   38.9405   30.9840   45.7039 C   0  0  0  0  0  0  0  0  0  0  0  0
   39.5178   32.2280   45.6448 C   0  0  0  0  0  0  0  0  0  0  0  0
   39.4969   32.9765   46.7922 C   0  0  0  0  0  0  0  0  0  0  0  0
   34.9891   28.3734   49.4541 O   0  0  0  0  0  0  0  0  0  0  0  0
   34.4523   28.6491   48.1578 C   0  0  0  0  0  0  0  0  0  0  0  0
   33.5625   27.5356   47.7095 C   0  0  0  0  0  0  0  0  0  0  0  0
   32.1221   27.9073   47.6936 C   0  0  0  0  0  0  0  0  0  0  0  0
   31.3518   27.5227   48.7821 C   0  0  0  0  0  0  0  0  0  0  0  0
   30.0210   27.8084   48.8762 C   0  0  0  0  0  0  0  0  0  0  0  0
   29.4457   28.4756   47.8942 N   0  0  0  0  0  0  0  0  0  0  0  0
   30.1984   28.8622   46.8103 C   0  0  0  0  0  0  0  0  0  0  0  0
   31.5205   28.5877   46.6995 N   0  0  0  0  0  0  0  0  0  0  0  0
   37.6938   30.3821   52.5136 H   0  0  0  0  0  0  0  0  0  0  0  0
   38.8929   31.5194   50.7042 H   0  0  0  0  0  0  0  0  0  0  0  0
   37.9347   29.5142   46.8128 H   0  0  0  0  0  0  0  0  0  0  0  0
   38.9443   30.3732   44.8104 H   0  0  0  0  0  0  0  0  0  0  0  0
   39.9623   32.5898   44.7396 H   0  0  0  0  0  0  0  0  0  0  0  0
   39.9457   33.9579   46.7669 H   0  0  0  0  0  0  0  0  0  0  0  0
   35.2684   28.8710   47.4567 H   0  0  0  0  0  0  0  0  0  0  0  0
   33.8022   29.5644   48.2612 H   0  0  0  0  0  0  0  0  0  0  0  0
   33.7119   26.5967   48.2755 H   0  0  0  0  0  0  0  0  0  0  0  0
   33.8185   27.3094   46.6445 H   0  0  0  0  0  0  0  0  0  0  0  0
   31.8222   26.9695   49.5994 H   0  0  0  0  0  0  0  0  0  0  0  0
   29.4067   27.5130   49.7230 H   0  0  0  0  0  0  0  0  0  0  0  0
   29.5892   29.6019   45.7082 C   0  0  0  0  0  0  0  0  0  0  0  0
   30.2677   30.6987   45.1660 C   0  0  0  0  0  0  0  0  0  0  0  0
   31.2280   31.1654   45.3989 H   0  0  0  0  0  0  0  0  0  0  0  0
   29.4634   31.2077   44.1416 C   0  0  0  0  0  0  0  0  0  0  0  0
   29.5785   32.0350   43.4589 H   0  0  0  0  0  0  0  0  0  0  0  0
   28.3626   30.4306   44.0976 N   0  0  0  0  0  0  0  0  0  0  0  0
   27.5381   30.5322   43.4347 H   0  0  0  0  0  0  0  0  0  0  0  0
   28.4313   29.4697   45.0304 N   0  0  0  0  0  0  0  0  0  0  0  0
  2  1  2  0
  3  2  1  0
  4  3  2  0
  4  5  1  0
  5  6  2  0
  6  1  1  0
  8  9  2  0
  8  7  1  0
  9  3  1  0
 10  9  1  0
 11 10  2  0
 12 11  1  0
 12 13  2  0
 13  8  1  0
 14  5  1  0
 15 14  1  0
 16 15  1  0
 17 16  1  0
 17 18  2  0
 18 19  1  0
 20 19  2  0
 21 20  1  0
 22 21  2  0
 22 17  1  0
  1 23  1  0
  2 24  1  0
 10 25  1  0
 11 26  1  0
 12 27  1  0
 13 28  1  0
 15 29  1  0
 15 30  1  0
 16 31  1  0
 16 32  1  0
 18 33  1  0
 19 34  1  0
 35 36  1  0
 36 37  1  0
 36 38  2  0
 38 39  1  0
 38 40  1  0
 40 41  1  0
 40 42  1  0
 42 35  2  0
 21 35  1  0
M  ISO  8  23  14  24  14  25  14  26  14  27  14  28  14  29   8  30   8
M  ISO  7  31   8  32   8  33  14  34  14  37  15  39  16  41   5
M  END
>  <DihAtoms>  (1) 
19,20,34,35

>  <DihDeg>  (1) 
-73.70671494407192

$$$$
