
 OpenBabel03272502033D

 41 45  0  0  0  0  0  0  0  0999 V2000
   35.6720   29.5620   32.2510 C   0  0  0  0  0  0  0  0  0  0  0  0
   34.7930   29.1270   31.7610 H   0  0  0  0  0  0  0  0  0  0  0  0
   36.1860   30.3300   31.6500 H   0  0  0  0  0  0  0  0  0  0  0  0
   36.6120   28.4400   32.6060 C   0  0  0  0  0  0  0  0  0  0  0  0
   37.5800   27.8910   31.7880 C   0  0  0  0  0  0  0  0  0  0  0  0
   38.2390   26.8790   32.4800 C   0  0  0  0  0  0  0  0  0  0  0  0
   37.6450   26.8540   33.6920 N   0  0  0  0  0  0  0  0  0  0  0  0
   36.6920   27.7730   33.7600 N   0  0  0  0  0  0  0  0  0  0  0  0
   39.1120   25.0340   34.5680 N   0  0  0  0  0  0  0  0  0  0  0  0
   38.1010   25.9060   34.6570 C   0  0  0  0  0  0  0  0  0  0  0  0
   37.5510   25.7330   35.8870 N   0  0  0  0  0  0  0  0  0  0  0  0
   38.2050   24.7770   36.5400 C   0  0  0  0  0  0  0  0  0  0  0  0
   38.0040   24.2630   37.8090 C   0  0  0  0  0  0  0  0  0  0  0  0
   38.7990   23.2900   38.2580 N   0  0  0  0  0  0  0  0  0  0  0  0
   39.7940   22.8300   37.4460 C   0  0  0  0  0  0  0  0  0  0  0  0
   40.0100   23.3240   36.1910 N   0  0  0  0  0  0  0  0  0  0  0  0
   39.2090   24.3150   35.7140 C   0  0  0  0  0  0  0  0  0  0  0  0
   37.7650   28.2200   30.7800 H   0  0  0  0  0  0  0  0  0  0  0  0
   39.0490   26.2750   32.0800 H   0  0  0  0  0  0  0  0  0  0  0  0
   39.7450   24.9060   33.7500 H   0  0  0  0  0  0  0  0  0  0  0  0
   37.2320   24.5920   38.4900 H   0  0  0  0  0  0  0  0  0  0  0  0
   40.5110   22.0520   37.6750 H   0  0  0  0  0  0  0  0  0  0  0  0
   35.2040   30.1380   33.5780 C   0  0  0  0  0  0  0  0  0  0  0  0
   35.4750   31.2060   33.6600 H   0  0  0  0  0  0  0  0  0  0  0  0
   35.7160   29.6220   34.4390 H   0  0  0  0  0  0  0  0  0  0  0  0
   31.5450   29.9540   32.9920 C   0  0  0  0  0  0  0  0  0  0  0  0
   31.0870   29.3680   34.1790 C   0  0  0  0  0  0  0  0  0  0  0  0
   32.0430   29.0480   35.1590 C   0  0  0  0  0  0  0  0  0  0  0  0
   33.3410   29.3100   34.9240 N   0  0  0  0  0  0  0  0  0  0  0  0
   33.7500   29.8830   33.7520 C   0  0  0  0  0  0  0  0  0  0  0  0
   32.8480   30.1860   32.8260 N   0  0  0  0  0  0  0  0  0  0  0  0
   30.8320   30.2090   32.2250 H   0  0  0  0  0  0  0  0  0  0  0  0
   30.0430   29.1860   34.3010 H   0  0  0  0  0  0  0  0  0  0  0  0
   31.5610   28.4410   36.3880 C   0  0  0  0  0  0  0  0  0  0  0  0
   30.8500   27.2650   36.5030 C   0  0  0  0  0  0  0  0  0  0  0  0
   30.5330   26.6020   35.7160 H   0  0  0  0  0  0  0  0  0  0  0  0
   30.6160   27.0980   37.8610 C   0  0  0  0  0  0  0  0  0  0  0  0
   30.0900   26.2990   38.3680 H   0  0  0  0  0  0  0  0  0  0  0  0
   31.1820   28.1590   38.5050 N   0  0  0  0  0  0  0  0  0  0  0  0
   31.1520   28.2800   39.5400 H   0  0  0  0  0  0  0  0  0  0  0  0
   31.7550   28.9700   37.6010 N   0  0  0  0  0  0  0  0  0  0  0  0
  1  4  1  0  0  0  0
  1 23  1  0  0  0  0
  2  1  1  0  0  0  0
  3  1  1  0  0  0  0
  4  8  2  0  0  0  0
  5  6  2  0  0  0  0
  5  4  1  0  0  0  0
  6  7  1  0  0  0  0
  7  8  1  0  0  0  0
  7 10  1  0  0  0  0
  9 10  1  0  0  0  0
  9 17  1  0  0  0  0
 10 11  2  0  0  0  0
 11 12  1  0  0  0  0
 12 13  1  0  0  0  0
 13 14  2  0  0  0  0
 13 21  1  0  0  0  0
 15 22  1  0  0  0  0
 15 14  1  0  0  0  0
 16 15  2  0  0  0  0
 17 16  1  0  0  0  0
 17 12  2  0  0  0  0
 18  5  1  0  0  0  0
 19  6  1  0  0  0  0
 20  9  1  0  0  0  0
 23 24  1  0  0  0  0
 23 30  1  0  0  0  0
 23 25  1  0  0  0  0
 26 27  1  0  0  0  0
 27 33  1  0  0  0  0
 27 28  2  0  0  0  0
 28 34  1  0  0  0  0
 29 28  1  0  0  0  0
 30 29  2  0  0  0  0
 31 26  2  0  0  0  0
 31 30  1  0  0  0  0
 32 26  1  0  0  0  0
 34 35  1  0  0  0  0
 34 41  2  0  0  0  0
 35 37  2  0  0  0  0
 36 35  1  0  0  0  0
 37 38  1  0  0  0  0
 37 39  1  0  0  0  0
 39 40  1  0  0  0  0
 41 39  1  0  0  0  0
M  END
>  <minimizedAffinity>
-6.50559664

$$$$

 OpenBabel03272502033D

 41 45  0  0  0  0  0  0  0  0999 V2000
   36.4890   25.7880   31.6410 C   0  0  0  0  0  0  0  0  0  0  0  0
   36.5550   25.5620   30.5700 H   0  0  0  0  0  0  0  0  0  0  0  0
   35.6890   25.2400   32.1660 H   0  0  0  0  0  0  0  0  0  0  0  0
   36.3090   27.2760   31.7940 C   0  0  0  0  0  0  0  0  0  0  0  0
   36.3890   28.2200   30.7890 C   0  0  0  0  0  0  0  0  0  0  0  0
   36.1640   29.4810   31.3320 C   0  0  0  0  0  0  0  0  0  0  0  0
   35.9560   29.2530   32.6460 N   0  0  0  0  0  0  0  0  0  0  0  0
   36.0420   27.9580   32.9100 N   0  0  0  0  0  0  0  0  0  0  0  0
   35.5520   31.6590   33.1790 N   0  0  0  0  0  0  0  0  0  0  0  0
   35.6910   30.3670   33.4990 C   0  0  0  0  0  0  0  0  0  0  0  0
   35.5270   30.2850   34.8450 N   0  0  0  0  0  0  0  0  0  0  0  0
   35.2940   31.4960   35.3430 C   0  0  0  0  0  0  0  0  0  0  0  0
   35.0690   31.8970   36.6480 C   0  0  0  0  0  0  0  0  0  0  0  0
   34.8550   33.1880   36.9110 N   0  0  0  0  0  0  0  0  0  0  0  0
   34.8640   34.0770   35.8770 C   0  0  0  0  0  0  0  0  0  0  0  0
   35.0840   33.7010   34.5830 N   0  0  0  0  0  0  0  0  0  0  0  0
   35.3050   32.3910   34.2930 C   0  0  0  0  0  0  0  0  0  0  0  0
   36.5950   27.9790   29.7610 H   0  0  0  0  0  0  0  0  0  0  0  0
   36.1670   30.4120   30.7700 H   0  0  0  0  0  0  0  0  0  0  0  0
   35.6190   32.0660   32.2220 H   0  0  0  0  0  0  0  0  0  0  0  0
   35.0510   31.2330   37.5010 H   0  0  0  0  0  0  0  0  0  0  0  0
   34.7060   35.1460   35.9400 H   0  0  0  0  0  0  0  0  0  0  0  0
   37.8470   25.4760   32.2480 C   0  0  0  0  0  0  0  0  0  0  0  0
   38.2170   26.3310   32.8430 H   0  0  0  0  0  0  0  0  0  0  0  0
   38.6150   25.3050   31.4420 H   0  0  0  0  0  0  0  0  0  0  0  0
   37.2810   21.9350   33.2000 C   0  0  0  0  0  0  0  0  0  0  0  0
   37.6780   21.9250   34.5430 C   0  0  0  0  0  0  0  0  0  0  0  0
   38.1310   23.1350   35.0970 C   0  0  0  0  0  0  0  0  0  0  0  0
   38.1690   24.2390   34.3300 N   0  0  0  0  0  0  0  0  0  0  0  0
   37.7730   24.2090   33.0210 C   0  0  0  0  0  0  0  0  0  0  0  0
   37.3440   23.0670   32.4970 N   0  0  0  0  0  0  0  0  0  0  0  0
   36.9290   21.0200   32.7510 H   0  0  0  0  0  0  0  0  0  0  0  0
   37.6240   21.0140   35.0960 H   0  0  0  0  0  0  0  0  0  0  0  0
   38.5400   23.1180   36.4910 C   0  0  0  0  0  0  0  0  0  0  0  0
   37.9240   23.7700   37.5390 C   0  0  0  0  0  0  0  0  0  0  0  0
   37.0470   24.3950   37.5090 H   0  0  0  0  0  0  0  0  0  0  0  0
   38.6700   23.4590   38.6680 C   0  0  0  0  0  0  0  0  0  0  0  0
   38.5180   23.7720   39.6930 H   0  0  0  0  0  0  0  0  0  0  0  0
   39.6910   22.6460   38.2680 N   0  0  0  0  0  0  0  0  0  0  0  0
   40.4050   22.2630   38.9250 H   0  0  0  0  0  0  0  0  0  0  0  0
   39.6030   22.4450   36.9430 N   0  0  0  0  0  0  0  0  0  0  0  0
  1  4  1  0  0  0  0
  1  3  1  0  0  0  0
  1 23  1  0  0  0  0
  2  1  1  0  0  0  0
  4  8  2  0  0  0  0
  5  6  2  0  0  0  0
  5  4  1  0  0  0  0
  6  7  1  0  0  0  0
  7  8  1  0  0  0  0
  7 10  1  0  0  0  0
  9 10  1  0  0  0  0
  9 17  1  0  0  0  0
 10 11  2  0  0  0  0
 11 12  1  0  0  0  0
 12 13  1  0  0  0  0
 13 14  2  0  0  0  0
 13 21  1  0  0  0  0
 15 22  1  0  0  0  0
 15 14  1  0  0  0  0
 16 15  2  0  0  0  0
 17 16  1  0  0  0  0
 17 12  2  0  0  0  0
 18  5  1  0  0  0  0
 19  6  1  0  0  0  0
 20  9  1  0  0  0  0
 23 24  1  0  0  0  0
 23 30  1  0  0  0  0
 25 23  1  0  0  0  0
 26 27  1  0  0  0  0
 27 33  1  0  0  0  0
 27 28  2  0  0  0  0
 28 34  1  0  0  0  0
 29 28  1  0  0  0  0
 30 29  2  0  0  0  0
 31 30  1  0  0  0  0
 31 26  2  0  0  0  0
 32 26  1  0  0  0  0
 34 41  2  0  0  0  0
 34 35  1  0  0  0  0
 35 37  2  0  0  0  0
 36 35  1  0  0  0  0
 37 38  1  0  0  0  0
 39 37  1  0  0  0  0
 39 40  1  0  0  0  0
 41 39  1  0  0  0  0
M  END
>  <minimizedAffinity>
-6.24514675

$$$$

 OpenBabel03272502033D

 41 45  0  0  0  0  0  0  0  0999 V2000
   37.0340   28.4900   30.7510 C   0  0  0  0  0  0  0  0  0  0  0  0
   36.6910   28.0160   29.8240 H   0  0  0  0  0  0  0  0  0  0  0  0
   37.5940   29.4270   30.5950 H   0  0  0  0  0  0  0  0  0  0  0  0
   37.8650   27.4870   31.5080 C   0  0  0  0  0  0  0  0  0  0  0  0
   39.0250   26.8820   31.0660 C   0  0  0  0  0  0  0  0  0  0  0  0
   39.4930   26.0210   32.0540 C   0  0  0  0  0  0  0  0  0  0  0  0
   38.5980   26.1370   33.0570 N   0  0  0  0  0  0  0  0  0  0  0  0
   37.6460   26.9980   32.7310 N   0  0  0  0  0  0  0  0  0  0  0  0
   39.8100   24.5500   34.5560 N   0  0  0  0  0  0  0  0  0  0  0  0
   38.7960   25.3660   34.2420 C   0  0  0  0  0  0  0  0  0  0  0  0
   37.9410   25.3400   35.2970 N   0  0  0  0  0  0  0  0  0  0  0  0
   38.4140   24.5280   36.2380 C   0  0  0  0  0  0  0  0  0  0  0  0
   37.8900   24.1910   37.4740 C   0  0  0  0  0  0  0  0  0  0  0  0
   38.5540   23.3410   38.2600 N   0  0  0  0  0  0  0  0  0  0  0  0
   39.7370   22.8270   37.8170 C   0  0  0  0  0  0  0  0  0  0  0  0
   40.2710   23.1470   36.6010 N   0  0  0  0  0  0  0  0  0  0  0  0
   39.6100   24.0110   35.7840 C   0  0  0  0  0  0  0  0  0  0  0  0
   39.4670   27.0720   30.1030 H   0  0  0  0  0  0  0  0  0  0  0  0
   40.3910   25.4130   31.9770 H   0  0  0  0  0  0  0  0  0  0  0  0
   40.6390   24.3420   33.9620 H   0  0  0  0  0  0  0  0  0  0  0  0
   36.9590   24.5700   37.8710 H   0  0  0  0  0  0  0  0  0  0  0  0
   40.3800   22.1330   38.3420 H   0  0  0  0  0  0  0  0  0  0  0  0
   35.8040   28.7320   31.6100 C   0  0  0  0  0  0  0  0  0  0  0  0
   35.6820   27.9270   32.3590 H   0  0  0  0  0  0  0  0  0  0  0  0
   34.8680   28.7140   30.9830 H   0  0  0  0  0  0  0  0  0  0  0  0
   36.4450   32.3500   32.1280 C   0  0  0  0  0  0  0  0  0  0  0  0
   35.9410   32.5560   33.4180 C   0  0  0  0  0  0  0  0  0  0  0  0
   35.3910   31.4470   34.0870 C   0  0  0  0  0  0  0  0  0  0  0  0
   35.3680   30.2510   33.4740 N   0  0  0  0  0  0  0  0  0  0  0  0
   35.8700   30.0900   32.2110 C   0  0  0  0  0  0  0  0  0  0  0  0
   36.3900   31.1340   31.5800 N   0  0  0  0  0  0  0  0  0  0  0  0
   36.8730   33.1820   31.5940 H   0  0  0  0  0  0  0  0  0  0  0  0
   35.9890   33.5310   33.8480 H   0  0  0  0  0  0  0  0  0  0  0  0
   34.8700   31.6680   35.4260 C   0  0  0  0  0  0  0  0  0  0  0  0
   33.5990   31.3730   35.8750 C   0  0  0  0  0  0  0  0  0  0  0  0
   32.7850   30.9360   35.3220 H   0  0  0  0  0  0  0  0  0  0  0  0
   33.5720   31.7580   37.2080 C   0  0  0  0  0  0  0  0  0  0  0  0
   32.7590   31.6950   37.9200 H   0  0  0  0  0  0  0  0  0  0  0  0
   34.8040   32.2620   37.5110 N   0  0  0  0  0  0  0  0  0  0  0  0
   35.0550   32.6250   38.4560 H   0  0  0  0  0  0  0  0  0  0  0  0
   35.5860   32.2030   36.4200 N   0  0  0  0  0  0  0  0  0  0  0  0
  1  4  1  0  0  0  0
  1 23  1  0  0  0  0
  2  1  1  0  0  0  0
  3  1  1  0  0  0  0
  4  8  2  0  0  0  0
  5  4  1  0  0  0  0
  5  6  2  0  0  0  0
  6  7  1  0  0  0  0
  7 10  1  0  0  0  0
  8  7  1  0  0  0  0
  9 17  1  0  0  0  0
 10  9  1  0  0  0  0
 10 11  2  0  0  0  0
 11 12  1  0  0  0  0
 12 13  1  0  0  0  0
 13 21  1  0  0  0  0
 13 14  2  0  0  0  0
 15 14  1  0  0  0  0
 15 22  1  0  0  0  0
 16 15  2  0  0  0  0
 17 12  2  0  0  0  0
 17 16  1  0  0  0  0
 18  5  1  0  0  0  0
 19  6  1  0  0  0  0
 20  9  1  0  0  0  0
 23 30  1  0  0  0  0
 23 24  1  0  0  0  0
 25 23  1  0  0  0  0
 26 27  1  0  0  0  0
 27 33  1  0  0  0  0
 27 28  2  0  0  0  0
 28 34  1  0  0  0  0
 29 28  1  0  0  0  0
 30 29  2  0  0  0  0
 31 26  2  0  0  0  0
 31 30  1  0  0  0  0
 32 26  1  0  0  0  0
 34 35  1  0  0  0  0
 34 41  2  0  0  0  0
 35 37  2  0  0  0  0
 36 35  1  0  0  0  0
 37 39  1  0  0  0  0
 37 38  1  0  0  0  0
 39 40  1  0  0  0  0
 41 39  1  0  0  0  0
M  END
>  <minimizedAffinity>
-6.1908927

$$$$

 OpenBabel03272502033D

 41 45  0  0  0  0  0  0  0  0999 V2000
   36.2290   28.3200   31.0850 C   0  0  0  0  0  0  0  0  0  0  0  0
   35.2130   27.9230   31.1940 H   0  0  0  0  0  0  0  0  0  0  0  0
   36.5230   28.5210   30.0420 H   0  0  0  0  0  0  0  0  0  0  0  0
   37.1820   27.3510   31.7340 C   0  0  0  0  0  0  0  0  0  0  0  0
   38.3010   26.7860   31.1520 C   0  0  0  0  0  0  0  0  0  0  0  0
   38.9160   25.9450   32.0750 C   0  0  0  0  0  0  0  0  0  0  0  0
   38.1470   26.0320   33.1810 N   0  0  0  0  0  0  0  0  0  0  0  0
   37.1320   26.8580   32.9740 N   0  0  0  0  0  0  0  0  0  0  0  0
   39.5890   24.4950   34.5180 N   0  0  0  0  0  0  0  0  0  0  0  0
   38.5170   25.2730   34.3320 C   0  0  0  0  0  0  0  0  0  0  0  0
   37.7980   25.2200   35.4830 N   0  0  0  0  0  0  0  0  0  0  0  0
   38.4120   24.4290   36.3590 C   0  0  0  0  0  0  0  0  0  0  0  0
   38.0560   24.0780   37.6480 C   0  0  0  0  0  0  0  0  0  0  0  0
   38.8400   23.2550   38.3460 N   0  0  0  0  0  0  0  0  0  0  0  0
   39.9780   22.7820   37.7610 C   0  0  0  0  0  0  0  0  0  0  0  0
   40.3470   23.1160   36.4900 N   0  0  0  0  0  0  0  0  0  0  0  0
   39.5610   23.9530   35.7610 C   0  0  0  0  0  0  0  0  0  0  0  0
   38.6140   26.9880   30.1430 H   0  0  0  0  0  0  0  0  0  0  0  0
   39.8200   25.3690   31.8880 H   0  0  0  0  0  0  0  0  0  0  0  0
   40.3470   24.3150   33.8260 H   0  0  0  0  0  0  0  0  0  0  0  0
   37.1670   24.4250   38.1570 H   0  0  0  0  0  0  0  0  0  0  0  0
   40.7050   22.1130   38.2030 H   0  0  0  0  0  0  0  0  0  0  0  0
   36.3050   29.5870   31.9210 C   0  0  0  0  0  0  0  0  0  0  0  0
   36.5160   30.4660   31.2850 H   0  0  0  0  0  0  0  0  0  0  0  0
   37.1540   29.5290   32.6600 H   0  0  0  0  0  0  0  0  0  0  0  0
   32.8180   29.2660   33.1480 C   0  0  0  0  0  0  0  0  0  0  0  0
   32.8360   30.0650   34.2980 C   0  0  0  0  0  0  0  0  0  0  0  0
   34.0460   30.7010   34.6300 C   0  0  0  0  0  0  0  0  0  0  0  0
   35.1240   30.5200   33.8460 N   0  0  0  0  0  0  0  0  0  0  0  0
   35.0660   29.7310   32.7300 C   0  0  0  0  0  0  0  0  0  0  0  0
   33.9250   29.1310   32.4150 N   0  0  0  0  0  0  0  0  0  0  0  0
   31.9030   28.7680   32.8710 H   0  0  0  0  0  0  0  0  0  0  0  0
   31.9460   30.1670   34.8760 H   0  0  0  0  0  0  0  0  0  0  0  0
   34.0580   31.5300   35.8230 C   0  0  0  0  0  0  0  0  0  0  0  0
   32.9940   32.2330   36.3500 C   0  0  0  0  0  0  0  0  0  0  0  0
   31.9860   32.2900   35.9750 H   0  0  0  0  0  0  0  0  0  0  0  0
   33.4850   32.8680   37.4820 C   0  0  0  0  0  0  0  0  0  0  0  0
   32.9690   33.5170   38.1770 H   0  0  0  0  0  0  0  0  0  0  0  0
   34.8030   32.5330   37.5960 N   0  0  0  0  0  0  0  0  0  0  0  0
   35.4140   32.8780   38.3670 H   0  0  0  0  0  0  0  0  0  0  0  0
   35.1420   31.7190   36.5830 N   0  0  0  0  0  0  0  0  0  0  0  0
  1  2  1  0  0  0  0
  1  4  1  0  0  0  0
  1 23  1  0  0  0  0
  3  1  1  0  0  0  0
  4  8  2  0  0  0  0
  5  4  1  0  0  0  0
  5  6  2  0  0  0  0
  6  7  1  0  0  0  0
  7 10  1  0  0  0  0
  8  7  1  0  0  0  0
  9 17  1  0  0  0  0
 10  9  1  0  0  0  0
 10 11  2  0  0  0  0
 11 12  1  0  0  0  0
 12 13  1  0  0  0  0
 13 21  1  0  0  0  0
 13 14  2  0  0  0  0
 15 22  1  0  0  0  0
 15 14  1  0  0  0  0
 16 15  2  0  0  0  0
 17 12  2  0  0  0  0
 17 16  1  0  0  0  0
 18  5  1  0  0  0  0
 19  6  1  0  0  0  0
 20  9  1  0  0  0  0
 23 25  1  0  0  0  0
 23 30  1  0  0  0  0
 24 23  1  0  0  0  0
 26 27  1  0  0  0  0
 27 28  2  0  0  0  0
 27 33  1  0  0  0  0
 28 34  1  0  0  0  0
 29 28  1  0  0  0  0
 30 29  2  0  0  0  0
 31 30  1  0  0  0  0
 31 26  2  0  0  0  0
 32 26  1  0  0  0  0
 34 35  1  0  0  0  0
 34 41  2  0  0  0  0
 35 37  2  0  0  0  0
 36 35  1  0  0  0  0
 37 39  1  0  0  0  0
 37 38  1  0  0  0  0
 39 40  1  0  0  0  0
 41 39  1  0  0  0  0
M  END
>  <minimizedAffinity>
-6.16443872

$$$$

 OpenBabel03272502033D

 41 45  0  0  0  0  0  0  0  0999 V2000
   37.0640   27.5730   31.6840 C   0  0  0  0  0  0  0  0  0  0  0  0
   36.4020   28.2850   31.1780 H   0  0  0  0  0  0  0  0  0  0  0  0
   38.1180   27.6340   31.3650 H   0  0  0  0  0  0  0  0  0  0  0  0
   36.5170   26.1870   31.4620 C   0  0  0  0  0  0  0  0  0  0  0  0
   35.2260   25.8640   31.0910 C   0  0  0  0  0  0  0  0  0  0  0  0
   35.1150   24.4810   30.9890 C   0  0  0  0  0  0  0  0  0  0  0  0
   36.3440   24.0180   31.3020 N   0  0  0  0  0  0  0  0  0  0  0  0
   37.1610   25.0230   31.5780 N   0  0  0  0  0  0  0  0  0  0  0  0
   35.7250   21.6250   30.9430 N   0  0  0  0  0  0  0  0  0  0  0  0
   36.5660   22.6080   31.2880 C   0  0  0  0  0  0  0  0  0  0  0  0
   37.7330   22.0080   31.6430 N   0  0  0  0  0  0  0  0  0  0  0  0
   37.6150   20.6890   31.5200 C   0  0  0  0  0  0  0  0  0  0  0  0
   38.5310   19.6830   31.7660 C   0  0  0  0  0  0  0  0  0  0  0  0
   38.1810   18.4110   31.5670 N   0  0  0  0  0  0  0  0  0  0  0  0
   36.9190   18.1410   31.1250 C   0  0  0  0  0  0  0  0  0  0  0  0
   35.9990   19.1190   30.8760 N   0  0  0  0  0  0  0  0  0  0  0  0
   36.3370   20.4220   31.0730 C   0  0  0  0  0  0  0  0  0  0  0  0
   34.4550   26.5950   30.9190 H   0  0  0  0  0  0  0  0  0  0  0  0
   34.2100   23.9460   30.7120 H   0  0  0  0  0  0  0  0  0  0  0  0
   34.7420   21.7430   30.6190 H   0  0  0  0  0  0  0  0  0  0  0  0
   39.5420   19.8440   32.1160 H   0  0  0  0  0  0  0  0  0  0  0  0
   36.4980   17.1640   30.9210 H   0  0  0  0  0  0  0  0  0  0  0  0
   36.9360   27.8270   33.1770 C   0  0  0  0  0  0  0  0  0  0  0  0
   35.9170   27.5860   33.5310 H   0  0  0  0  0  0  0  0  0  0  0  0
   37.0950   28.9180   33.4120 H   0  0  0  0  0  0  0  0  0  0  0  0
   40.2450   26.6450   34.3680 C   0  0  0  0  0  0  0  0  0  0  0  0
   39.8880   25.6710   35.3090 C   0  0  0  0  0  0  0  0  0  0  0  0
   38.5170   25.4380   35.5160 C   0  0  0  0  0  0  0  0  0  0  0  0
   37.6130   26.1470   34.8160 N   0  0  0  0  0  0  0  0  0  0  0  0
   38.0020   27.0910   33.9060 C   0  0  0  0  0  0  0  0  0  0  0  0
   39.2960   27.3110   33.7090 N   0  0  0  0  0  0  0  0  0  0  0  0
   41.2900   26.8430   34.1900 H   0  0  0  0  0  0  0  0  0  0  0  0
   40.6550   25.1440   35.8300 H   0  0  0  0  0  0  0  0  0  0  0  0
   38.1530   24.4250   36.4930 C   0  0  0  0  0  0  0  0  0  0  0  0
   38.0960   24.5840   37.8620 C   0  0  0  0  0  0  0  0  0  0  0  0
   38.3080   25.4690   38.4370 H   0  0  0  0  0  0  0  0  0  0  0  0
   37.7050   23.3520   38.3680 C   0  0  0  0  0  0  0  0  0  0  0  0
   37.5440   23.0570   39.3970 H   0  0  0  0  0  0  0  0  0  0  0  0
   37.5430   22.5100   37.3060 N   0  0  0  0  0  0  0  0  0  0  0  0
   37.2490   21.5140   37.4080 H   0  0  0  0  0  0  0  0  0  0  0  0
   37.8180   23.1720   36.1700 N   0  0  0  0  0  0  0  0  0  0  0  0
  1 23  1  0  0  0  0
  2  1  1  0  0  0  0
  3  1  1  0  0  0  0
  4  8  2  0  0  0  0
  4  1  1  0  0  0  0
  5  4  1  0  0  0  0
  6  5  2  0  0  0  0
  6  7  1  0  0  0  0
  7  8  1  0  0  0  0
  9 17  1  0  0  0  0
  9 10  1  0  0  0  0
 10  7  1  0  0  0  0
 10 11  2  0  0  0  0
 12 11  1  0  0  0  0
 12 13  1  0  0  0  0
 13 21  1  0  0  0  0
 14 13  2  0  0  0  0
 15 14  1  0  0  0  0
 16 17  1  0  0  0  0
 16 15  2  0  0  0  0
 17 12  2  0  0  0  0
 18  5  1  0  0  0  0
 19  6  1  0  0  0  0
 20  9  1  0  0  0  0
 22 15  1  0  0  0  0
 23 25  1  0  0  0  0
 23 24  1  0  0  0  0
 23 30  1  0  0  0  0
 26 27  1  0  0  0  0
 27 28  2  0  0  0  0
 27 33  1  0  0  0  0
 28 34  1  0  0  0  0
 29 28  1  0  0  0  0
 30 29  2  0  0  0  0
 31 30  1  0  0  0  0
 31 26  2  0  0  0  0
 32 26  1  0  0  0  0
 34 35  1  0  0  0  0
 35 37  2  0  0  0  0
 35 36  1  0  0  0  0
 37 38  1  0  0  0  0
 39 40  1  0  0  0  0
 39 37  1  0  0  0  0
 41 34  2  0  0  0  0
 41 39  1  0  0  0  0
M  END
>  <minimizedAffinity>
-6.07136345

$$$$

 OpenBabel03272502033D

 41 45  0  0  0  0  0  0  0  0999 V2000
   37.9310   27.4790   31.7950 C   0  0  0  0  0  0  0  0  0  0  0  0
   38.7320   28.0030   31.2610 H   0  0  0  0  0  0  0  0  0  0  0  0
   37.6170   26.5350   31.3200 H   0  0  0  0  0  0  0  0  0  0  0  0
   36.7650   28.4230   31.9320 C   0  0  0  0  0  0  0  0  0  0  0  0
   36.3600   29.3670   31.0080 C   0  0  0  0  0  0  0  0  0  0  0  0
   35.2460   30.0380   31.5030 C   0  0  0  0  0  0  0  0  0  0  0  0
   35.0180   29.4750   32.7090 N   0  0  0  0  0  0  0  0  0  0  0  0
   35.9120   28.5290   32.9540 N   0  0  0  0  0  0  0  0  0  0  0  0
   33.0010   30.8720   33.1750 N   0  0  0  0  0  0  0  0  0  0  0  0
   33.9210   29.9510   33.4880 C   0  0  0  0  0  0  0  0  0  0  0  0
   33.6200   29.5180   34.7410 N   0  0  0  0  0  0  0  0  0  0  0  0
   32.5420   30.1550   35.1890 C   0  0  0  0  0  0  0  0  0  0  0  0
   31.8760   30.0460   36.3960 C   0  0  0  0  0  0  0  0  0  0  0  0
   30.8000   30.8010   36.6250 N   0  0  0  0  0  0  0  0  0  0  0  0
   30.3870   31.6640   35.6530 C   0  0  0  0  0  0  0  0  0  0  0  0
   31.0300   31.7880   34.4550 N   0  0  0  0  0  0  0  0  0  0  0  0
   32.1290   31.0280   34.2020 C   0  0  0  0  0  0  0  0  0  0  0  0
   36.8540   29.5280   30.0660 H   0  0  0  0  0  0  0  0  0  0  0  0
   34.7160   30.8340   30.9850 H   0  0  0  0  0  0  0  0  0  0  0  0
   32.9430   31.4040   32.2810 H   0  0  0  0  0  0  0  0  0  0  0  0
   32.1620   29.3780   37.1970 H   0  0  0  0  0  0  0  0  0  0  0  0
   29.5370   32.3330   35.6980 H   0  0  0  0  0  0  0  0  0  0  0  0
   38.4250   27.2330   33.2120 C   0  0  0  0  0  0  0  0  0  0  0  0
   37.9150   27.9020   33.9280 H   0  0  0  0  0  0  0  0  0  0  0  0
   39.5230   27.4680   33.2980 H   0  0  0  0  0  0  0  0  0  0  0  0
   37.8000   23.5830   32.9750 C   0  0  0  0  0  0  0  0  0  0  0  0
   38.0570   23.1560   34.2840 C   0  0  0  0  0  0  0  0  0  0  0  0
   38.4390   24.1300   35.2240 C   0  0  0  0  0  0  0  0  0  0  0  0
   38.5430   25.4140   34.8380 N   0  0  0  0  0  0  0  0  0  0  0  0
   38.2850   25.7930   33.5490 C   0  0  0  0  0  0  0  0  0  0  0  0
   37.9230   24.8740   32.6620 N   0  0  0  0  0  0  0  0  0  0  0  0
   37.5050   22.8570   32.2350 H   0  0  0  0  0  0  0  0  0  0  0  0
   37.9550   22.1220   34.5240 H   0  0  0  0  0  0  0  0  0  0  0  0
   38.7020   23.6800   36.5800 C   0  0  0  0  0  0  0  0  0  0  0  0
   38.0650   24.1040   37.7280 C   0  0  0  0  0  0  0  0  0  0  0  0
   37.2740   24.8300   37.8180 H   0  0  0  0  0  0  0  0  0  0  0  0
   38.6540   23.3990   38.7680 C   0  0  0  0  0  0  0  0  0  0  0  0
   38.4390   23.4420   39.8280 H   0  0  0  0  0  0  0  0  0  0  0  0
   39.6080   22.5900   38.2220 N   0  0  0  0  0  0  0  0  0  0  0  0
   40.2030   21.9480   38.7890 H   0  0  0  0  0  0  0  0  0  0  0  0
   39.6290   22.7680   36.8910 N   0  0  0  0  0  0  0  0  0  0  0  0
  1  4  1  0  0  0  0
  1 23  1  0  0  0  0
  2  1  1  0  0  0  0
  3  1  1  0  0  0  0
  4  8  2  0  0  0  0
  5  6  2  0  0  0  0
  5  4  1  0  0  0  0
  6  7  1  0  0  0  0
  7  8  1  0  0  0  0
  7 10  1  0  0  0  0
  9 10  1  0  0  0  0
  9 17  1  0  0  0  0
 10 11  2  0  0  0  0
 11 12  1  0  0  0  0
 12 13  1  0  0  0  0
 13 14  2  0  0  0  0
 13 21  1  0  0  0  0
 15 22  1  0  0  0  0
 15 14  1  0  0  0  0
 16 15  2  0  0  0  0
 17 16  1  0  0  0  0
 17 12  2  0  0  0  0
 18  5  1  0  0  0  0
 19  6  1  0  0  0  0
 20  9  1  0  0  0  0
 23 25  1  0  0  0  0
 23 30  1  0  0  0  0
 23 24  1  0  0  0  0
 26 27  1  0  0  0  0
 27 33  1  0  0  0  0
 27 28  2  0  0  0  0
 28 34  1  0  0  0  0
 29 28  1  0  0  0  0
 30 29  2  0  0  0  0
 31 26  2  0  0  0  0
 31 30  1  0  0  0  0
 32 26  1  0  0  0  0
 34 41  2  0  0  0  0
 34 35  1  0  0  0  0
 35 36  1  0  0  0  0
 35 37  2  0  0  0  0
 37 38  1  0  0  0  0
 39 37  1  0  0  0  0
 39 40  1  0  0  0  0
 41 39  1  0  0  0  0
M  END
>  <minimizedAffinity>
-6.00606346

$$$$

 OpenBabel03272502033D

 41 45  0  0  0  0  0  0  0  0999 V2000
   35.1380   30.5280   31.6700 C   0  0  0  0  0  0  0  0  0  0  0  0
   34.1480   30.4620   31.2060 H   0  0  0  0  0  0  0  0  0  0  0  0
   35.6840   31.4560   31.4350 H   0  0  0  0  0  0  0  0  0  0  0  0
   35.9320   29.3180   31.2490 C   0  0  0  0  0  0  0  0  0  0  0  0
   37.0930   29.3190   30.5000 C   0  0  0  0  0  0  0  0  0  0  0  0
   37.5210   28.0060   30.3250 C   0  0  0  0  0  0  0  0  0  0  0  0
   36.6020   27.2600   30.9740 N   0  0  0  0  0  0  0  0  0  0  0  0
   35.6740   28.0360   31.5140 N   0  0  0  0  0  0  0  0  0  0  0  0
   37.7470   25.0980   30.4730 N   0  0  0  0  0  0  0  0  0  0  0  0
   36.7570   25.8410   30.9820 C   0  0  0  0  0  0  0  0  0  0  0  0
   35.8740   24.9720   31.5410 N   0  0  0  0  0  0  0  0  0  0  0  0
   36.3090   23.7260   31.3810 C   0  0  0  0  0  0  0  0  0  0  0  0
   35.7480   22.5260   31.7790 C   0  0  0  0  0  0  0  0  0  0  0  0
   36.3760   21.3820   31.5020 N   0  0  0  0  0  0  0  0  0  0  0  0
   37.5610   21.4330   30.8290 C   0  0  0  0  0  0  0  0  0  0  0  0
   38.1320   22.6060   30.4260 N   0  0  0  0  0  0  0  0  0  0  0  0
   37.5070   23.7830   30.6990 C   0  0  0  0  0  0  0  0  0  0  0  0
   37.5620   30.2130   30.1290 H   0  0  0  0  0  0  0  0  0  0  0  0
   38.4100   27.7080   29.7740 H   0  0  0  0  0  0  0  0  0  0  0  0
   38.5880   25.4550   29.9720 H   0  0  0  0  0  0  0  0  0  0  0  0
   34.8130   22.4320   32.3150 H   0  0  0  0  0  0  0  0  0  0  0  0
   38.1790   20.5920   30.5380 H   0  0  0  0  0  0  0  0  0  0  0  0
   34.9390   30.3830   33.1700 C   0  0  0  0  0  0  0  0  0  0  0  0
   35.3620   31.2500   33.7090 H   0  0  0  0  0  0  0  0  0  0  0  0
   35.4880   29.4790   33.5600 H   0  0  0  0  0  0  0  0  0  0  0  0
   31.2370   30.3110   32.9230 C   0  0  0  0  0  0  0  0  0  0  0  0
   30.8760   29.6670   34.1120 C   0  0  0  0  0  0  0  0  0  0  0  0
   31.9110   29.2690   34.9780 C   0  0  0  0  0  0  0  0  0  0  0  0
   33.1880   29.5170   34.6370 N   0  0  0  0  0  0  0  0  0  0  0  0
   33.5010   30.1490   33.4650 C   0  0  0  0  0  0  0  0  0  0  0  0
   32.5260   30.5260   32.6480 N   0  0  0  0  0  0  0  0  0  0  0  0
   30.4640   30.6270   32.2420 H   0  0  0  0  0  0  0  0  0  0  0  0
   29.8440   29.5010   34.3220 H   0  0  0  0  0  0  0  0  0  0  0  0
   31.5290   28.6020   36.2110 C   0  0  0  0  0  0  0  0  0  0  0  0
   30.8840   27.3880   36.3250 C   0  0  0  0  0  0  0  0  0  0  0  0
   30.5550   26.7340   35.5350 H   0  0  0  0  0  0  0  0  0  0  0  0
   30.7350   27.1670   37.6880 C   0  0  0  0  0  0  0  0  0  0  0  0
   30.2780   26.3280   38.1960 H   0  0  0  0  0  0  0  0  0  0  0  0
   31.2850   28.2360   38.3350 N   0  0  0  0  0  0  0  0  0  0  0  0
   31.3070   28.3230   39.3740 H   0  0  0  0  0  0  0  0  0  0  0  0
   31.7650   29.1020   37.4280 N   0  0  0  0  0  0  0  0  0  0  0  0
  1 23  1  0  0  0  0
  2  1  1  0  0  0  0
  3  1  1  0  0  0  0
  4  8  2  0  0  0  0
  4  1  1  0  0  0  0
  5  4  1  0  0  0  0
  6  5  2  0  0  0  0
  6  7  1  0  0  0  0
  7 10  1  0  0  0  0
  7  8  1  0  0  0  0
  9 17  1  0  0  0  0
  9 10  1  0  0  0  0
 10 11  2  0  0  0  0
 12 11  1  0  0  0  0
 12 13  1  0  0  0  0
 13 21  1  0  0  0  0
 14 13  2  0  0  0  0
 15 14  1  0  0  0  0
 16 17  1  0  0  0  0
 16 15  2  0  0  0  0
 17 12  2  0  0  0  0
 18  5  1  0  0  0  0
 19  6  1  0  0  0  0
 20  9  1  0  0  0  0
 22 15  1  0  0  0  0
 23 30  1  0  0  0  0
 23 25  1  0  0  0  0
 23 24  1  0  0  0  0
 26 27  1  0  0  0  0
 27 33  1  0  0  0  0
 27 28  2  0  0  0  0
 28 34  1  0  0  0  0
 29 28  1  0  0  0  0
 30 29  2  0  0  0  0
 31 26  2  0  0  0  0
 31 30  1  0  0  0  0
 32 26  1  0  0  0  0
 34 35  1  0  0  0  0
 34 41  2  0  0  0  0
 35 37  2  0  0  0  0
 36 35  1  0  0  0  0
 37 38  1  0  0  0  0
 37 39  1  0  0  0  0
 39 40  1  0  0  0  0
 41 39  1  0  0  0  0
M  END
>  <minimizedAffinity>
-5.98252439

$$$$

 OpenBabel03272502033D

 41 45  0  0  0  0  0  0  0  0999 V2000
   37.8370   27.4800   31.9160 C   0  0  0  0  0  0  0  0  0  0  0  0
   37.3390   28.0700   31.1380 H   0  0  0  0  0  0  0  0  0  0  0  0
   38.8450   27.8420   32.1780 H   0  0  0  0  0  0  0  0  0  0  0  0
   37.8850   26.0460   31.4550 C   0  0  0  0  0  0  0  0  0  0  0  0
   38.5540   25.5620   30.3480 C   0  0  0  0  0  0  0  0  0  0  0  0
   38.3560   24.1870   30.2630 C   0  0  0  0  0  0  0  0  0  0  0  0
   37.5730   23.8910   31.3220 N   0  0  0  0  0  0  0  0  0  0  0  0
   37.3010   24.9850   32.0170 N   0  0  0  0  0  0  0  0  0  0  0  0
   37.5310   21.4440   30.8280 N   0  0  0  0  0  0  0  0  0  0  0  0
   37.1820   22.5330   31.5230 C   0  0  0  0  0  0  0  0  0  0  0  0
   36.3480   22.1090   32.5080 N   0  0  0  0  0  0  0  0  0  0  0  0
   36.1860   20.7910   32.4230 C   0  0  0  0  0  0  0  0  0  0  0  0
   35.4350   19.9310   33.2030 C   0  0  0  0  0  0  0  0  0  0  0  0
   35.4260   18.6270   32.9220 N   0  0  0  0  0  0  0  0  0  0  0  0
   36.1650   18.1790   31.8660 C   0  0  0  0  0  0  0  0  0  0  0  0
   36.9130   19.0120   31.0840 N   0  0  0  0  0  0  0  0  0  0  0  0
   36.9350   20.3450   31.3530 C   0  0  0  0  0  0  0  0  0  0  0  0
   39.1280   26.1810   29.6810 H   0  0  0  0  0  0  0  0  0  0  0  0
   38.7680   23.5440   29.4890 H   0  0  0  0  0  0  0  0  0  0  0  0
   38.1650   21.4180   30.0020 H   0  0  0  0  0  0  0  0  0  0  0  0
   34.8330   20.2350   34.0490 H   0  0  0  0  0  0  0  0  0  0  0  0
   36.2530   17.1560   31.5230 H   0  0  0  0  0  0  0  0  0  0  0  0
   36.9270   27.4860   33.1330 C   0  0  0  0  0  0  0  0  0  0  0  0
   37.5160   27.4160   34.0660 H   0  0  0  0  0  0  0  0  0  0  0  0
   36.2470   26.5880   33.1280 H   0  0  0  0  0  0  0  0  0  0  0  0
   34.7170   30.2150   31.9310 C   0  0  0  0  0  0  0  0  0  0  0  0
   34.4010   30.8820   33.1210 C   0  0  0  0  0  0  0  0  0  0  0  0
   34.9530   30.3830   34.3140 C   0  0  0  0  0  0  0  0  0  0  0  0
   35.7500   29.3000   34.2710 N   0  0  0  0  0  0  0  0  0  0  0  0
   36.0360   28.6760   33.0880 C   0  0  0  0  0  0  0  0  0  0  0  0
   35.5160   29.1460   31.9610 N   0  0  0  0  0  0  0  0  0  0  0  0
   34.3080   30.5770   31.0020 H   0  0  0  0  0  0  0  0  0  0  0  0
   33.7620   31.7350   33.0860 H   0  0  0  0  0  0  0  0  0  0  0  0
   34.6210   31.0800   35.5450 C   0  0  0  0  0  0  0  0  0  0  0  0
   33.3600   31.2730   36.0690 C   0  0  0  0  0  0  0  0  0  0  0  0
   32.4160   30.9480   35.6650 H   0  0  0  0  0  0  0  0  0  0  0  0
   33.5450   31.9870   37.2450 C   0  0  0  0  0  0  0  0  0  0  0  0
   32.8060   32.3380   37.9530 H   0  0  0  0  0  0  0  0  0  0  0  0
   34.8870   32.1950   37.3870 N   0  0  0  0  0  0  0  0  0  0  0  0
   35.3010   32.7100   38.1930 H   0  0  0  0  0  0  0  0  0  0  0  0
   35.5320   31.6400   36.3480 N   0  0  0  0  0  0  0  0  0  0  0  0
  1  3  1  0  0  0  0
  1 23  1  0  0  0  0
  2  1  1  0  0  0  0
  4  1  1  0  0  0  0
  4  8  2  0  0  0  0
  5  4  1  0  0  0  0
  6  5  2  0  0  0  0
  6  7  1  0  0  0  0
  7 10  1  0  0  0  0
  7  8  1  0  0  0  0
  9 17  1  0  0  0  0
  9 10  1  0  0  0  0
 10 11  2  0  0  0  0
 12 11  1  0  0  0  0
 12 13  1  0  0  0  0
 13 21  1  0  0  0  0
 14 13  2  0  0  0  0
 15 14  1  0  0  0  0
 16 17  1  0  0  0  0
 16 15  2  0  0  0  0
 17 12  2  0  0  0  0
 18  5  1  0  0  0  0
 19  6  1  0  0  0  0
 20  9  1  0  0  0  0
 22 15  1  0  0  0  0
 23 24  1  0  0  0  0
 25 23  1  0  0  0  0
 26 31  2  0  0  0  0
 26 27  1  0  0  0  0
 27 28  2  0  0  0  0
 28 34  1  0  0  0  0
 29 28  1  0  0  0  0
 30 23  1  0  0  0  0
 30 29  2  0  0  0  0
 31 30  1  0  0  0  0
 32 26  1  0  0  0  0
 33 27  1  0  0  0  0
 34 35  1  0  0  0  0
 34 41  2  0  0  0  0
 35 37  2  0  0  0  0
 36 35  1  0  0  0  0
 37 39  1  0  0  0  0
 37 38  1  0  0  0  0
 39 40  1  0  0  0  0
 41 39  1  0  0  0  0
M  END
>  <minimizedAffinity>
-5.97897387

$$$$

 OpenBabel03272502033D

 41 45  0  0  0  0  0  0  0  0999 V2000
   37.3640   25.6800   36.1440 C   0  0  0  0  0  0  0  0  0  0  0  0
   37.3470   26.5320   36.8340 H   0  0  0  0  0  0  0  0  0  0  0  0
   36.3670   25.2750   35.9070 H   0  0  0  0  0  0  0  0  0  0  0  0
   38.2490   24.6150   36.7380 C   0  0  0  0  0  0  0  0  0  0  0  0
   38.2360   24.1740   38.0470 C   0  0  0  0  0  0  0  0  0  0  0  0
   39.2010   23.1820   38.2010 C   0  0  0  0  0  0  0  0  0  0  0  0
   39.7610   23.0610   36.9790 N   0  0  0  0  0  0  0  0  0  0  0  0
   39.1980   23.9030   36.1250 N   0  0  0  0  0  0  0  0  0  0  0  0
   41.3070   21.2280   37.6770 N   0  0  0  0  0  0  0  0  0  0  0  0
   40.8070   22.1060   36.7990 C   0  0  0  0  0  0  0  0  0  0  0  0
   41.4980   21.9280   35.6420 N   0  0  0  0  0  0  0  0  0  0  0  0
   42.4000   20.9640   35.8030 C   0  0  0  0  0  0  0  0  0  0  0  0
   43.3200   20.4440   34.9110 C   0  0  0  0  0  0  0  0  0  0  0  0
   44.1370   19.4640   35.3040 N   0  0  0  0  0  0  0  0  0  0  0  0
   44.0370   19.0030   36.5840 C   0  0  0  0  0  0  0  0  0  0  0  0
   43.1360   19.5030   37.4800 N   0  0  0  0  0  0  0  0  0  0  0  0
   42.2950   20.5020   37.0990 C   0  0  0  0  0  0  0  0  0  0  0  0
   37.5710   24.5600   38.7990 H   0  0  0  0  0  0  0  0  0  0  0  0
   39.4110   22.6560   39.1290 H   0  0  0  0  0  0  0  0  0  0  0  0
   40.9980   21.1020   38.6640 H   0  0  0  0  0  0  0  0  0  0  0  0
   43.4390   20.7730   33.8870 H   0  0  0  0  0  0  0  0  0  0  0  0
   44.6290   18.2190   37.0380 H   0  0  0  0  0  0  0  0  0  0  0  0
   38.0740   26.1420   34.8810 C   0  0  0  0  0  0  0  0  0  0  0  0
   38.3850   25.2780   34.2660 H   0  0  0  0  0  0  0  0  0  0  0  0
   39.0200   26.6970   35.1350 H   0  0  0  0  0  0  0  0  0  0  0  0
   36.1370   27.8440   32.2130 C   0  0  0  0  0  0  0  0  0  0  0  0
   35.6170   28.9540   32.8900 C   0  0  0  0  0  0  0  0  0  0  0  0
   35.9420   29.0980   34.2510 C   0  0  0  0  0  0  0  0  0  0  0  0
   36.7260   28.1790   34.8430 N   0  0  0  0  0  0  0  0  0  0  0  0
   37.2150   27.1070   34.1470 C   0  0  0  0  0  0  0  0  0  0  0  0
   36.9100   26.9720   32.8630 N   0  0  0  0  0  0  0  0  0  0  0  0
   35.9050   27.7110   31.1690 H   0  0  0  0  0  0  0  0  0  0  0  0
   35.0010   29.6460   32.3610 H   0  0  0  0  0  0  0  0  0  0  0  0
   35.3990   30.2520   34.9480 C   0  0  0  0  0  0  0  0  0  0  0  0
   34.0850   30.6710   34.9490 C   0  0  0  0  0  0  0  0  0  0  0  0
   33.2460   30.2250   34.4430 H   0  0  0  0  0  0  0  0  0  0  0  0
   34.0530   31.8060   35.7470 C   0  0  0  0  0  0  0  0  0  0  0  0
   33.2100   32.4360   36.0030 H   0  0  0  0  0  0  0  0  0  0  0  0
   35.3250   32.0280   36.1900 N   0  0  0  0  0  0  0  0  0  0  0  0
   35.5810   32.8250   36.8120 H   0  0  0  0  0  0  0  0  0  0  0  0
   36.1360   31.0770   35.6980 N   0  0  0  0  0  0  0  0  0  0  0  0
  1  4  1  0  0  0  0
  1  2  1  0  0  0  0
  3  1  1  0  0  0  0
  4  5  1  0  0  0  0
  5  6  2  0  0  0  0
  5 18  1  0  0  0  0
  6 19  1  0  0  0  0
  7  6  1  0  0  0  0
  8  4  2  0  0  0  0
  8  7  1  0  0  0  0
  9 20  1  0  0  0  0
 10  7  1  0  0  0  0
 10  9  1  0  0  0  0
 11 12  1  0  0  0  0
 11 10  2  0  0  0  0
 12 17  1  0  0  0  0
 13 14  1  0  0  0  0
 13 12  2  0  0  0  0
 14 15  2  0  0  0  0
 15 22  1  0  0  0  0
 15 16  1  0  0  0  0
 17 16  2  0  0  0  0
 17  9  1  0  0  0  0
 21 13  1  0  0  0  0
 23 25  1  0  0  0  0
 23  1  1  0  0  0  0
 24 23  1  0  0  0  0
 26 31  2  0  0  0  0
 26 27  1  0  0  0  0
 27 28  2  0  0  0  0
 28 29  1  0  0  0  0
 28 34  1  0  0  0  0
 30 29  2  0  0  0  0
 30 23  1  0  0  0  0
 31 30  1  0  0  0  0
 32 26  1  0  0  0  0
 33 27  1  0  0  0  0
 34 35  1  0  0  0  0
 34 41  2  0  0  0  0
 35 37  2  0  0  0  0
 36 35  1  0  0  0  0
 37 38  1  0  0  0  0
 37 39  1  0  0  0  0
 39 40  1  0  0  0  0
 41 39  1  0  0  0  0
M  END
>  <minimizedAffinity>
-5.89318419

$$$$
