
 OpenBabel03272509523D

 42 45  0  0  0  0  0  0  0  0999 V2000
   34.4170   28.8120   47.9950 C   0  0  0  0  0  0  0  0  0  0  0  0
   35.2430   29.1190   47.3400 H   0  0  0  0  0  0  0  0  0  0  0  0
   33.7330   29.6940   48.1550 H   0  0  0  0  0  0  0  0  0  0  0  0
   33.5780   27.7130   47.4290 C   0  0  0  0  0  0  0  0  0  0  0  0
   33.8930   26.7050   47.7580 H   0  0  0  0  0  0  0  0  0  0  0  0
   33.7000   27.7370   46.3180 H   0  0  0  0  0  0  0  0  0  0  0  0
   32.1230   27.9050   47.6670 C   0  0  0  0  0  0  0  0  0  0  0  0
   31.5680   27.2750   48.7710 C   0  0  0  0  0  0  0  0  0  0  0  0
   30.2450   27.3790   49.0880 C   0  0  0  0  0  0  0  0  0  0  0  0
   29.4650   28.1080   48.3140 N   0  0  0  0  0  0  0  0  0  0  0  0
   30.0020   28.7380   47.2160 C   0  0  0  0  0  0  0  0  0  0  0  0
   31.3130   28.6460   46.8870 N   0  0  0  0  0  0  0  0  0  0  0  0
   32.2090   26.6690   49.4170 H   0  0  0  0  0  0  0  0  0  0  0  0
   29.7990   26.8900   49.9500 H   0  0  0  0  0  0  0  0  0  0  0  0
   29.1630   29.5520   46.3400 C   0  0  0  0  0  0  0  0  0  0  0  0
   27.8300   29.7810   46.6950 C   0  0  0  0  0  0  0  0  0  0  0  0
   27.2240   29.4650   47.5490 H   0  0  0  0  0  0  0  0  0  0  0  0
   27.2730   30.5790   45.6910 C   0  0  0  0  0  0  0  0  0  0  0  0
   26.2900   30.9970   45.5440 H   0  0  0  0  0  0  0  0  0  0  0  0
   28.2530   30.7990   44.7910 N   0  0  0  0  0  0  0  0  0  0  0  0
   28.1790   31.3680   43.8970 H   0  0  0  0  0  0  0  0  0  0  0  0
   29.3830   30.1880   45.1730 N   0  0  0  0  0  0  0  0  0  0  0  0
   34.9280   28.4450   49.2790 O   0  0  0  0  0  0  0  0  0  0  0  0
   37.2370   30.0930   51.5020 C   0  0  0  0  0  0  0  0  0  0  0  0
   38.0210   30.8240   50.5570 C   0  0  0  0  0  0  0  0  0  0  0  0
   37.6860   30.6890   49.2150 C   0  0  0  0  0  0  0  0  0  0  0  0
   36.6370   29.8670   48.9220 N   0  0  0  0  0  0  0  0  0  0  0  0
   35.9230   29.1970   49.8320 C   0  0  0  0  0  0  0  0  0  0  0  0
   36.2290   29.3140   51.1310 N   0  0  0  0  0  0  0  0  0  0  0  0
   37.5610   30.2530   52.5210 H   0  0  0  0  0  0  0  0  0  0  0  0
   38.8360   31.4590   50.8100 H   0  0  0  0  0  0  0  0  0  0  0  0
   38.8260   33.3490   49.1570 F   0  0  0  0  0  0  0  0  0  0  0  0
   38.9000   32.5850   48.0810 C   0  0  0  0  0  0  0  0  0  0  0  0
   38.3620   31.3460   48.1300 C   0  0  0  0  0  0  0  0  0  0  0  0
   38.4950   30.6240   46.9400 C   0  0  0  0  0  0  0  0  0  0  0  0
   39.1230   31.1360   45.8230 C   0  0  0  0  0  0  0  0  0  0  0  0
   39.6540   32.4020   45.8220 C   0  0  0  0  0  0  0  0  0  0  0  0
   39.5330   33.1260   46.9790 C   0  0  0  0  0  0  0  0  0  0  0  0
   38.1070   29.6080   46.8400 H   0  0  0  0  0  0  0  0  0  0  0  0
   39.2050   30.5440   44.9200 H   0  0  0  0  0  0  0  0  0  0  0  0
   40.1390   32.7980   44.9540 H   0  0  0  0  0  0  0  0  0  0  0  0
   39.9440   34.1240   47.0000 H   0  0  0  0  0  0  0  0  0  0  0  0
  1  3  1  0  0  0  0
  1 23  1  0  0  0  0
  2  1  1  0  0  0  0
  4  7  1  0  0  0  0
  4  5  1  0  0  0  0
  4  1  1  0  0  0  0
  6  4  1  0  0  0  0
  7  8  1  0  0  0  0
  8  9  2  0  0  0  0
  8 13  1  0  0  0  0
  9 14  1  0  0  0  0
 10  9  1  0  0  0  0
 11 10  2  0  0  0  0
 12 11  1  0  0  0  0
 12  7  2  0  0  0  0
 15 16  1  0  0  0  0
 15 11  1  0  0  0  0
 16 17  1  0  0  0  0
 18 16  2  0  0  0  0
 19 18  1  0  0  0  0
 20 22  1  0  0  0  0
 20 18  1  0  0  0  0
 21 20  1  0  0  0  0
 22 15  2  0  0  0  0
 23 28  1  0  0  0  0
 24 30  1  0  0  0  0
 25 31  1  0  0  0  0
 25 24  2  0  0  0  0
 26 25  1  0  0  0  0
 27 26  2  0  0  0  0
 27 28  1  0  0  0  0
 28 29  2  0  0  0  0
 29 24  1  0  0  0  0
 33 34  1  0  0  0  0
 33 32  1  0  0  0  0
 34 26  1  0  0  0  0
 35 34  2  0  0  0  0
 36 35  1  0  0  0  0
 37 36  2  0  0  0  0
 37 38  1  0  0  0  0
 38 42  1  0  0  0  0
 38 33  2  0  0  0  0
 39 35  1  0  0  0  0
 40 36  1  0  0  0  0
 41 37  1  0  0  0  0
M  END
>  <minimizedAffinity>
-6.54504776

>  <minimizedRMSD>
0.527941942

$$$$
