
 OpenBabel03262522503D

 32 35  0  0  0  0  0  0  0  0999 V2000
   36.1200   30.2280   48.8280 C   0  0  0  0  0  0  0  0  0  0  0  0
   36.1030   29.2140   49.6890 C   0  0  0  0  0  0  0  0  0  0  0  0
   35.0400   28.3350   49.6720 C   0  0  0  0  0  0  0  0  0  0  0  0
   34.0690   28.5850   48.7510 C   0  0  0  0  0  0  0  0  0  0  0  0
   34.6770   30.0850   47.9040 S   0  0  0  0  0  0  0  0  0  0  0  0
   36.9370   29.0850   50.4040 H   0  0  0  0  0  0  0  0  0  0  0  0
   34.9320   27.4750   50.3310 H   0  0  0  0  0  0  0  0  0  0  0  0
   38.1020   33.2290   49.4390 C   0  0  0  0  0  0  0  0  0  0  0  0
   39.0090   33.2490   48.3840 C   0  0  0  0  0  0  0  0  0  0  0  0
   38.9360   32.2140   47.4470 C   0  0  0  0  0  0  0  0  0  0  0  0
   37.9900   31.2310   47.5980 N   0  0  0  0  0  0  0  0  0  0  0  0
   37.1370   31.2820   48.6580 C   0  0  0  0  0  0  0  0  0  0  0  0
   37.1700   32.2450   49.5690 N   0  0  0  0  0  0  0  0  0  0  0  0
   38.0790   33.9840   50.2110 H   0  0  0  0  0  0  0  0  0  0  0  0
   39.7320   34.0500   48.3180 H   0  0  0  0  0  0  0  0  0  0  0  0
   39.6190   32.1930   46.6180 H   0  0  0  0  0  0  0  0  0  0  0  0
   32.8330   27.8440   48.4900 C   0  0  0  0  0  0  0  0  0  0  0  0
   32.7900   26.9270   47.5060 C   0  0  0  0  0  0  0  0  0  0  0  0
   31.6160   26.2520   47.2880 C   0  0  0  0  0  0  0  0  0  0  0  0
   30.5120   26.5030   48.0530 N   0  0  0  0  0  0  0  0  0  0  0  0
   30.6520   27.4460   49.0220 C   0  0  0  0  0  0  0  0  0  0  0  0
   31.7840   28.1390   49.2760 N   0  0  0  0  0  0  0  0  0  0  0  0
   33.6350   26.6820   46.8650 H   0  0  0  0  0  0  0  0  0  0  0  0
   31.4780   25.5020   46.5300 H   0  0  0  0  0  0  0  0  0  0  0  0
   29.4810   27.7310   49.8520 C   0  0  0  0  0  0  0  0  0  0  0  0
   28.8760   26.9020   50.7730 C   0  0  0  0  0  0  0  0  0  0  0  0
   29.2620   25.8950   50.9630 H   0  0  0  0  0  0  0  0  0  0  0  0
   27.7970   27.5240   51.3560 C   0  0  0  0  0  0  0  0  0  0  0  0
   27.2160   27.0070   52.1010 H   0  0  0  0  0  0  0  0  0  0  0  0
   27.7560   28.7280   50.7810 N   0  0  0  0  0  0  0  0  0  0  0  0
   27.0100   29.4310   51.0460 H   0  0  0  0  0  0  0  0  0  0  0  0
   28.7460   28.8580   49.8930 N   0  0  0  0  0  0  0  0  0  0  0  0
  1  2  2  0  0  0  0
  2  6  1  0  0  0  0
  3  2  1  0  0  0  0
  3  7  1  0  0  0  0
  4  3  2  0  0  0  0
  5  4  1  0  0  0  0
  5  1  1  0  0  0  0
  8 13  1  0  0  0  0
  8 14  1  0  0  0  0
  9  8  2  0  0  0  0
 10 11  2  0  0  0  0
 10  9  1  0  0  0  0
 11 12  1  0  0  0  0
 12  1  1  0  0  0  0
 12 13  2  0  0  0  0
 15  9  1  0  0  0  0
 16 10  1  0  0  0  0
 17  4  1  0  0  0  0
 17 22  1  0  0  0  0
 18 17  2  0  0  0  0
 19 18  1  0  0  0  0
 19 20  2  0  0  0  0
 20 21  1  0  0  0  0
 21 22  2  0  0  0  0
 21 25  1  0  0  0  0
 23 18  1  0  0  0  0
 24 19  1  0  0  0  0
 25 32  2  0  0  0  0
 25 26  1  0  0  0  0
 26 27  1  0  0  0  0
 26 28  2  0  0  0  0
 28 29  1  0  0  0  0
 30 31  1  0  0  0  0
 30 28  1  0  0  0  0
 32 30  1  0  0  0  0
M  END
>  <minimizedAffinity>
-6.9105072

>  <minimizedRMSD>
0.753152907

$$$$
