
 OpenBabel03272509523D

 42 45  0  0  0  0  0  0  0  0999 V2000
   34.0380   29.0630   47.9990 C   0  0  0  0  0  0  0  0  0  0  0  0
   34.5800   29.7320   47.3170 H   0  0  0  0  0  0  0  0  0  0  0  0
   33.3560   29.6810   48.6500 H   0  0  0  0  0  0  0  0  0  0  0  0
   33.1770   28.0630   47.2990 C   0  0  0  0  0  0  0  0  0  0  0  0
   33.5740   27.0310   47.3460 H   0  0  0  0  0  0  0  0  0  0  0  0
   33.1470   28.3440   46.2180 H   0  0  0  0  0  0  0  0  0  0  0  0
   31.7600   28.0920   47.7500 C   0  0  0  0  0  0  0  0  0  0  0  0
   31.4940   27.6810   49.0480 C   0  0  0  0  0  0  0  0  0  0  0  0
   30.2330   27.6660   49.5690 C   0  0  0  0  0  0  0  0  0  0  0  0
   29.2290   28.0590   48.8080 N   0  0  0  0  0  0  0  0  0  0  0  0
   29.4790   28.4680   47.5200 C   0  0  0  0  0  0  0  0  0  0  0  0
   30.7240   28.4900   46.9870 N   0  0  0  0  0  0  0  0  0  0  0  0
   32.3210   27.3550   49.6840 H   0  0  0  0  0  0  0  0  0  0  0  0
   30.0120   27.3460   50.5840 H   0  0  0  0  0  0  0  0  0  0  0  0
   28.3880   28.9080   46.6550 C   0  0  0  0  0  0  0  0  0  0  0  0
   27.5580   27.9500   46.0650 C   0  0  0  0  0  0  0  0  0  0  0  0
   27.5390   26.8580   46.1070 H   0  0  0  0  0  0  0  0  0  0  0  0
   26.6150   28.6440   45.3000 C   0  0  0  0  0  0  0  0  0  0  0  0
   25.7910   28.3250   44.6810 H   0  0  0  0  0  0  0  0  0  0  0  0
   26.8950   29.9550   45.4470 N   0  0  0  0  0  0  0  0  0  0  0  0
   26.3770   30.7690   45.0040 H   0  0  0  0  0  0  0  0  0  0  0  0
   27.9530   30.1190   46.2550 N   0  0  0  0  0  0  0  0  0  0  0  0
   34.9630   28.4090   48.8710 O   0  0  0  0  0  0  0  0  0  0  0  0
   37.0930   30.0170   51.2930 C   0  0  0  0  0  0  0  0  0  0  0  0
   37.9230   30.7920   50.4250 C   0  0  0  0  0  0  0  0  0  0  0  0
   37.6790   30.6970   49.0610 C   0  0  0  0  0  0  0  0  0  0  0  0
   36.6660   29.8690   48.6730 N   0  0  0  0  0  0  0  0  0  0  0  0
   35.9070   29.1570   49.5130 C   0  0  0  0  0  0  0  0  0  0  0  0
   36.1260   29.2350   50.8320 N   0  0  0  0  0  0  0  0  0  0  0  0
   37.3480   30.1470   52.3360 H   0  0  0  0  0  0  0  0  0  0  0  0
   38.7090   31.4310   50.7530 H   0  0  0  0  0  0  0  0  0  0  0  0
   38.7780   33.3730   49.1670 F   0  0  0  0  0  0  0  0  0  0  0  0
   38.9330   32.6480   48.0720 C   0  0  0  0  0  0  0  0  0  0  0  0
   38.4120   31.4010   48.0440 C   0  0  0  0  0  0  0  0  0  0  0  0
   38.6320   30.7230   46.8420 C   0  0  0  0  0  0  0  0  0  0  0  0
   39.3210   31.2830   45.7850 C   0  0  0  0  0  0  0  0  0  0  0  0
   39.8310   32.5550   45.8620 C   0  0  0  0  0  0  0  0  0  0  0  0
   39.6250   33.2360   47.0320 C   0  0  0  0  0  0  0  0  0  0  0  0
   38.2670   29.7060   46.6820 H   0  0  0  0  0  0  0  0  0  0  0  0
   39.4700   30.7230   44.8700 H   0  0  0  0  0  0  0  0  0  0  0  0
   40.3640   32.9880   45.0400 H   0  0  0  0  0  0  0  0  0  0  0  0
   40.0190   34.2380   47.1130 H   0  0  0  0  0  0  0  0  0  0  0  0
  1  3  1  0  0  0  0
  1 23  1  0  0  0  0
  2  1  1  0  0  0  0
  4  5  1  0  0  0  0
  4  7  1  0  0  0  0
  4  1  1  0  0  0  0
  6  4  1  0  0  0  0
  7  8  1  0  0  0  0
  8  9  2  0  0  0  0
  8 13  1  0  0  0  0
  9 14  1  0  0  0  0
 10  9  1  0  0  0  0
 11 10  2  0  0  0  0
 12 11  1  0  0  0  0
 12  7  2  0  0  0  0
 15 11  1  0  0  0  0
 16 17  1  0  0  0  0
 16 15  1  0  0  0  0
 18 20  1  0  0  0  0
 18 16  2  0  0  0  0
 19 18  1  0  0  0  0
 20 22  1  0  0  0  0
 21 20  1  0  0  0  0
 22 15  2  0  0  0  0
 23 28  1  0  0  0  0
 24 30  1  0  0  0  0
 25 31  1  0  0  0  0
 25 24  2  0  0  0  0
 26 25  1  0  0  0  0
 27 26  2  0  0  0  0
 27 28  1  0  0  0  0
 28 29  2  0  0  0  0
 29 24  1  0  0  0  0
 33 32  1  0  0  0  0
 34 33  1  0  0  0  0
 34 26  1  0  0  0  0
 35 34  2  0  0  0  0
 36 37  2  0  0  0  0
 36 35  1  0  0  0  0
 37 38  1  0  0  0  0
 38 42  1  0  0  0  0
 38 33  2  0  0  0  0
 39 35  1  0  0  0  0
 40 36  1  0  0  0  0
 41 37  1  0  0  0  0
M  END
>  <minimizedAffinity>
-6.65733099

>  <minimizedRMSD>
1.10410273

$$$$
