
 OpenBabel03272509523D

 42 45  0  0  0  0  0  0  0  0999 V2000
   34.3990   28.6880   48.1130 C   0  0  0  0  0  0  0  0  0  0  0  0
   35.1940   28.9700   47.4090 H   0  0  0  0  0  0  0  0  0  0  0  0
   33.7230   29.5750   48.2740 H   0  0  0  0  0  0  0  0  0  0  0  0
   33.5350   27.5710   47.6250 C   0  0  0  0  0  0  0  0  0  0  0  0
   33.7880   26.5910   48.0740 H   0  0  0  0  0  0  0  0  0  0  0  0
   33.7060   27.4700   46.5250 H   0  0  0  0  0  0  0  0  0  0  0  0
   32.0810   27.8470   47.7720 C   0  0  0  0  0  0  0  0  0  0  0  0
   31.4340   27.2980   48.8690 C   0  0  0  0  0  0  0  0  0  0  0  0
   30.1030   27.4840   49.1050 C   0  0  0  0  0  0  0  0  0  0  0  0
   29.4070   28.2170   48.2560 N   0  0  0  0  0  0  0  0  0  0  0  0
   30.0360   28.7670   47.1650 C   0  0  0  0  0  0  0  0  0  0  0  0
   31.3560   28.5920   46.9150 N   0  0  0  0  0  0  0  0  0  0  0  0
   32.0050   26.6910   49.5760 H   0  0  0  0  0  0  0  0  0  0  0  0
   29.5840   27.0600   49.9600 H   0  0  0  0  0  0  0  0  0  0  0  0
   29.2910   29.5810   46.2090 C   0  0  0  0  0  0  0  0  0  0  0  0
   29.9760   30.1810   45.1460 C   0  0  0  0  0  0  0  0  0  0  0  0
   31.0260   30.1780   44.8440 H   0  0  0  0  0  0  0  0  0  0  0  0
   29.0270   30.8890   44.4010 C   0  0  0  0  0  0  0  0  0  0  0  0
   29.0940   31.4940   43.5100 H   0  0  0  0  0  0  0  0  0  0  0  0
   27.8420   30.7030   45.0160 N   0  0  0  0  0  0  0  0  0  0  0  0
   26.9010   31.1000   44.7180 H   0  0  0  0  0  0  0  0  0  0  0  0
   27.9930   29.9230   46.0960 N   0  0  0  0  0  0  0  0  0  0  0  0
   34.9700   28.3650   49.3840 O   0  0  0  0  0  0  0  0  0  0  0  0
   37.2970   30.1510   51.4780 C   0  0  0  0  0  0  0  0  0  0  0  0
   38.0500   30.8470   50.4830 C   0  0  0  0  0  0  0  0  0  0  0  0
   37.6910   30.6430   49.1570 C   0  0  0  0  0  0  0  0  0  0  0  0
   36.6490   29.7930   48.9240 N   0  0  0  0  0  0  0  0  0  0  0  0
   35.9640   29.1570   49.8800 C   0  0  0  0  0  0  0  0  0  0  0  0
   36.2940   29.3400   51.1650 N   0  0  0  0  0  0  0  0  0  0  0  0
   37.6390   30.3640   52.4820 H   0  0  0  0  0  0  0  0  0  0  0  0
   38.8600   31.5050   50.6890 H   0  0  0  0  0  0  0  0  0  0  0  0
   38.9250   33.2570   48.9950 F   0  0  0  0  0  0  0  0  0  0  0  0
   38.9160   32.4740   47.9300 C   0  0  0  0  0  0  0  0  0  0  0  0
   38.3350   31.2580   48.0270 C   0  0  0  0  0  0  0  0  0  0  0  0
   38.3810   30.5120   46.8450 C   0  0  0  0  0  0  0  0  0  0  0  0
   38.9700   30.9830   45.6890 C   0  0  0  0  0  0  0  0  0  0  0  0
   39.5470   32.2270   45.6400 C   0  0  0  0  0  0  0  0  0  0  0  0
   39.5110   32.9740   46.7890 C   0  0  0  0  0  0  0  0  0  0  0  0
   37.9500   29.5100   46.7820 H   0  0  0  0  0  0  0  0  0  0  0  0
   38.9840   30.3740   44.7940 H   0  0  0  0  0  0  0  0  0  0  0  0
   40.0020   32.5920   44.7420 H   0  0  0  0  0  0  0  0  0  0  0  0
   39.9610   33.9550   46.7720 H   0  0  0  0  0  0  0  0  0  0  0  0
  1  3  1  0  0  0  0
  1 23  1  0  0  0  0
  2  1  1  0  0  0  0
  4  7  1  0  0  0  0
  4  5  1  0  0  0  0
  4  1  1  0  0  0  0
  6  4  1  0  0  0  0
  7  8  1  0  0  0  0
  8  9  2  0  0  0  0
  8 13  1  0  0  0  0
  9 14  1  0  0  0  0
 10  9  1  0  0  0  0
 11 10  2  0  0  0  0
 12 11  1  0  0  0  0
 12  7  2  0  0  0  0
 15 11  1  0  0  0  0
 16 15  1  0  0  0  0
 17 16  1  0  0  0  0
 18 20  1  0  0  0  0
 18 16  2  0  0  0  0
 19 18  1  0  0  0  0
 20 22  1  0  0  0  0
 21 20  1  0  0  0  0
 22 15  2  0  0  0  0
 23 28  1  0  0  0  0
 24 30  1  0  0  0  0
 25 31  1  0  0  0  0
 25 24  2  0  0  0  0
 26 25  1  0  0  0  0
 27 26  2  0  0  0  0
 27 28  1  0  0  0  0
 28 29  2  0  0  0  0
 29 24  1  0  0  0  0
 33 34  1  0  0  0  0
 33 32  1  0  0  0  0
 34 26  1  0  0  0  0
 35 34  2  0  0  0  0
 36 35  1  0  0  0  0
 37 36  2  0  0  0  0
 37 38  1  0  0  0  0
 38 33  2  0  0  0  0
 39 35  1  0  0  0  0
 40 36  1  0  0  0  0
 41 37  1  0  0  0  0
 42 38  1  0  0  0  0
M  END
>  <minimizedAffinity>
-6.48567009

>  <minimizedRMSD>
0.366970718

$$$$
