
 OpenBabel03272501323D

 26 28  0  0  1  0  0  0  0  0999 V2000
   37.8600   32.1040   47.4590 C   0  0  2  0  0  0  0  0  0  0  0  0
   38.8450   30.9390   47.0520 C   0  0  0  0  0  0  0  0  0  0  0  0
   39.0460   32.4010   46.6810 C   0  0  1  0  0  0  0  0  0  0  0  0
   36.8680   31.8180   47.0510 H   0  0  0  0  0  0  0  0  0  0  0  0
   39.4650   30.5030   47.8270 H   0  0  0  0  0  0  0  0  0  0  0  0
   38.4910   30.2490   46.2690 H   0  0  0  0  0  0  0  0  0  0  0  0
   39.9400   32.8540   47.1890 H   0  0  0  0  0  0  0  0  0  0  0  0
   39.0020   32.6450   45.2230 C   0  0  0  0  0  0  0  0  0  0  0  0
   40.0280   33.0930   44.4040 C   0  0  0  0  0  0  0  0  0  0  0  0
   41.0070   33.3170   44.7850 H   0  0  0  0  0  0  0  0  0  0  0  0
   39.4650   33.1520   43.1230 C   0  0  0  0  0  0  0  0  0  0  0  0
   40.0660   33.4770   42.2910 H   0  0  0  0  0  0  0  0  0  0  0  0
   38.1810   32.7600   43.1920 N   0  0  0  0  0  0  0  0  0  0  0  0
   37.5290   32.7120   42.3700 H   0  0  0  0  0  0  0  0  0  0  0  0
   37.9050   32.4570   44.4460 N   0  0  0  0  0  0  0  0  0  0  0  0
   37.8490   32.2260   48.9440 C   0  0  0  0  0  0  0  0  0  0  0  0
   38.4950   33.1950   49.4750 O   0  0  0  0  0  0  0  0  0  0  0  0
   37.0560   29.7040   51.6070 C   0  0  0  0  0  0  0  0  0  0  0  0
   37.6980   30.6650   50.8440 C   0  0  0  0  0  0  0  0  0  0  0  0
   37.1260   31.2560   49.7280 C   0  0  0  0  0  0  0  0  0  0  0  0
   35.9000   30.8430   49.4200 N   0  0  0  0  0  0  0  0  0  0  0  0
   35.2620   29.8960   50.1690 C   0  0  0  0  0  0  0  0  0  0  0  0
   35.8150   29.3390   51.2290 N   0  0  0  0  0  0  0  0  0  0  0  0
   37.6130   29.3250   52.4500 H   0  0  0  0  0  0  0  0  0  0  0  0
   38.7030   30.9930   51.1110 H   0  0  0  0  0  0  0  0  0  0  0  0
   34.2550   29.5820   49.8850 H   0  0  0  0  0  0  0  0  0  0  0  0
  1  4  1  6  0  0  0
  1 16  1  0  0  0  0
  2  1  1  0  0  0  0
  2  5  1  0  0  0  0
  3  2  1  0  0  0  0
  3  7  1  1  0  0  0
  3  1  1  0  0  0  0
  6  2  1  0  0  0  0
  8  3  1  0  0  0  0
  9 10  1  0  0  0  0
  9  8  1  0  0  0  0
 11 13  1  0  0  0  0
 11  9  2  0  0  0  0
 12 11  1  0  0  0  0
 13 15  1  0  0  0  0
 14 13  1  0  0  0  0
 15  8  2  0  0  0  0
 16 17  2  0  0  0  0
 16 20  1  0  0  0  0
 18 24  1  0  0  0  0
 19 25  1  0  0  0  0
 19 18  2  0  0  0  0
 20 19  1  0  0  0  0
 21 20  2  0  0  0  0
 21 22  1  0  0  0  0
 22 23  2  0  0  0  0
 23 18  1  0  0  0  0
 26 22  1  0  0  0  0
M  END
>  <minimizedAffinity>
-5.37470198

>  <minimizedRMSD>
0.669064164

$$$$
