
 OpenBabel03272509513D

 32 34  0  0  0  0  0  0  0  0999 V2000
   37.8040   23.5450   32.1120 O   0  0  0  0  0  0  0  0  0  0  0  0
   37.3510   26.4450   34.2200 C   0  0  0  0  0  0  0  0  0  0  0  0
   37.7120   25.9150   35.4690 C   0  0  0  0  0  0  0  0  0  0  0  0
   38.0940   24.5760   35.5150 C   0  0  0  0  0  0  0  0  0  0  0  0
   38.0920   23.8740   34.3400 N   0  0  0  0  0  0  0  0  0  0  0  0
   37.7380   24.4230   33.1670 C   0  0  0  0  0  0  0  0  0  0  0  0
   37.3620   25.7260   33.1040 N   0  0  0  0  0  0  0  0  0  0  0  0
   37.0430   27.4910   34.1280 H   0  0  0  0  0  0  0  0  0  0  0  0
   37.6880   26.5370   36.3540 H   0  0  0  0  0  0  0  0  0  0  0  0
   38.4760   23.9690   36.7600 C   0  0  0  0  0  0  0  0  0  0  0  0
   38.0100   24.2250   38.0130 C   0  0  0  0  0  0  0  0  0  0  0  0
   37.2490   24.9560   38.2820 H   0  0  0  0  0  0  0  0  0  0  0  0
   38.6450   23.4180   38.9300 C   0  0  0  0  0  0  0  0  0  0  0  0
   38.5480   23.3320   39.9890 H   0  0  0  0  0  0  0  0  0  0  0  0
   39.4980   22.6820   38.1610 N   0  0  0  0  0  0  0  0  0  0  0  0
   40.1830   21.9330   38.4450 H   0  0  0  0  0  0  0  0  0  0  0  0
   39.3910   23.0180   36.8680 N   0  0  0  0  0  0  0  0  0  0  0  0
   36.8560   23.7030   31.0610 C   0  0  0  0  0  0  0  0  0  0  0  0
   37.2670   23.0940   30.2180 H   0  0  0  0  0  0  0  0  0  0  0  0
   36.7170   24.7600   30.7680 H   0  0  0  0  0  0  0  0  0  0  0  0
   35.5350   23.1200   31.4380 C   0  0  0  0  0  0  0  0  0  0  0  0
   34.8340   23.2380   30.5940 H   0  0  0  0  0  0  0  0  0  0  0  0
   35.0660   23.6550   32.3100 H   0  0  0  0  0  0  0  0  0  0  0  0
   35.6220   21.6880   31.8280 C   0  0  0  0  0  0  0  0  0  0  0  0
   35.9510   20.7980   30.8300 C   0  0  0  0  0  0  0  0  0  0  0  0
   36.0600   19.4400   31.0760 C   0  0  0  0  0  0  0  0  0  0  0  0
   35.8400   18.9840   32.3080 N   0  0  0  0  0  0  0  0  0  0  0  0
   35.5190   19.8600   33.2790 C   0  0  0  0  0  0  0  0  0  0  0  0
   35.4090   21.1730   33.0590 N   0  0  0  0  0  0  0  0  0  0  0  0
   36.1430   21.1010   29.8030 H   0  0  0  0  0  0  0  0  0  0  0  0
   36.3140   18.7210   30.3230 H   0  0  0  0  0  0  0  0  0  0  0  0
   35.3350   19.5090   34.2910 H   0  0  0  0  0  0  0  0  0  0  0  0
  1  6  1  0  0  0  0
  2  3  1  0  0  0  0
  3  4  2  0  0  0  0
  3  9  1  0  0  0  0
  4 10  1  0  0  0  0
  5  4  1  0  0  0  0
  6  5  2  0  0  0  0
  7  6  1  0  0  0  0
  7  2  2  0  0  0  0
  8  2  1  0  0  0  0
 10 17  2  0  0  0  0
 10 11  1  0  0  0  0
 11 12  1  0  0  0  0
 11 13  2  0  0  0  0
 13 14  1  0  0  0  0
 15 16  1  0  0  0  0
 15 13  1  0  0  0  0
 17 15  1  0  0  0  0
 18 21  1  0  0  0  0
 18  1  1  0  0  0  0
 19 18  1  0  0  0  0
 20 18  1  0  0  0  0
 21 24  1  0  0  0  0
 21 23  1  0  0  0  0
 22 21  1  0  0  0  0
 24 29  1  0  0  0  0
 25 26  1  0  0  0  0
 25 24  2  0  0  0  0
 26 27  2  0  0  0  0
 27 28  1  0  0  0  0
 28 32  1  0  0  0  0
 29 28  2  0  0  0  0
 30 25  1  0  0  0  0
 31 26  1  0  0  0  0
M  END
>  <minimizedAffinity>
-5.25885344

$$$$

 OpenBabel03272509513D

 32 34  0  0  0  0  0  0  0  0999 V2000
   36.4900   28.1590   34.6830 O   0  0  0  0  0  0  0  0  0  0  0  0
   37.8790   25.3130   32.9430 C   0  0  0  0  0  0  0  0  0  0  0  0
   38.2440   24.5010   34.0300 C   0  0  0  0  0  0  0  0  0  0  0  0
   37.9900   24.9840   35.3100 C   0  0  0  0  0  0  0  0  0  0  0  0
   37.4010   26.2150   35.4200 N   0  0  0  0  0  0  0  0  0  0  0  0
   37.0680   26.9580   34.3520 C   0  0  0  0  0  0  0  0  0  0  0  0
   37.3100   26.5020   33.0960 N   0  0  0  0  0  0  0  0  0  0  0  0
   38.0570   24.9810   31.9170 H   0  0  0  0  0  0  0  0  0  0  0  0
   38.7070   23.5370   33.8590 H   0  0  0  0  0  0  0  0  0  0  0  0
   38.3380   24.2050   36.4670 C   0  0  0  0  0  0  0  0  0  0  0  0
   38.0230   24.4260   37.7720 C   0  0  0  0  0  0  0  0  0  0  0  0
   37.4360   25.2560   38.1630 H   0  0  0  0  0  0  0  0  0  0  0  0
   38.5570   23.4350   38.5640 C   0  0  0  0  0  0  0  0  0  0  0  0
   38.5230   23.2720   39.6180 H   0  0  0  0  0  0  0  0  0  0  0  0
   39.1960   22.6290   37.6680 N   0  0  0  0  0  0  0  0  0  0  0  0
   39.7440   21.7440   37.8320 H   0  0  0  0  0  0  0  0  0  0  0  0
   39.0610   23.0960   36.4190 N   0  0  0  0  0  0  0  0  0  0  0  0
   35.6530   28.7790   33.7120 C   0  0  0  0  0  0  0  0  0  0  0  0
   34.6220   28.4260   33.9630 H   0  0  0  0  0  0  0  0  0  0  0  0
   35.9330   28.5130   32.6760 H   0  0  0  0  0  0  0  0  0  0  0  0
   35.6700   30.2640   33.8590 C   0  0  0  0  0  0  0  0  0  0  0  0
   35.3040   30.7250   32.9250 H   0  0  0  0  0  0  0  0  0  0  0  0
   36.7100   30.6660   34.0160 H   0  0  0  0  0  0  0  0  0  0  0  0
   34.8630   30.7440   35.0110 C   0  0  0  0  0  0  0  0  0  0  0  0
   35.4890   31.6090   35.8820 C   0  0  0  0  0  0  0  0  0  0  0  0
   34.8360   32.1200   36.9910 C   0  0  0  0  0  0  0  0  0  0  0  0
   33.5720   31.7670   37.2200 N   0  0  0  0  0  0  0  0  0  0  0  0
   32.9660   30.9220   36.3630 C   0  0  0  0  0  0  0  0  0  0  0  0
   33.5810   30.4190   35.2890 N   0  0  0  0  0  0  0  0  0  0  0  0
   36.5180   31.9380   35.7560 H   0  0  0  0  0  0  0  0  0  0  0  0
   35.2930   32.7930   37.6870 H   0  0  0  0  0  0  0  0  0  0  0  0
   31.9360   30.6210   36.5310 H   0  0  0  0  0  0  0  0  0  0  0  0
  2  7  2  0  0  0  0
  2  3  1  0  0  0  0
  3  4  2  0  0  0  0
  4  5  1  0  0  0  0
  4 10  1  0  0  0  0
  6  1  1  0  0  0  0
  6  5  2  0  0  0  0
  7  6  1  0  0  0  0
  8  2  1  0  0  0  0
  9  3  1  0  0  0  0
 10 11  1  0  0  0  0
 11 12  1  0  0  0  0
 11 13  2  0  0  0  0
 13 14  1  0  0  0  0
 15 16  1  0  0  0  0
 15 13  1  0  0  0  0
 17 10  2  0  0  0  0
 17 15  1  0  0  0  0
 18 21  1  0  0  0  0
 18 19  1  0  0  0  0
 18  1  1  0  0  0  0
 20 18  1  0  0  0  0
 21 23  1  0  0  0  0
 21 24  1  0  0  0  0
 22 21  1  0  0  0  0
 24 29  2  0  0  0  0
 24 25  1  0  0  0  0
 25 26  2  0  0  0  0
 26 27  1  0  0  0  0
 26 31  1  0  0  0  0
 28 32  1  0  0  0  0
 28 27  2  0  0  0  0
 29 28  1  0  0  0  0
 30 25  1  0  0  0  0
M  END
>  <minimizedAffinity>
-5.16441345

$$$$

 OpenBabel03272509513D

 32 34  0  0  0  0  0  0  0  0999 V2000
   37.0490   27.2740   34.0740 O   0  0  0  0  0  0  0  0  0  0  0  0
   35.2280   29.7690   32.1980 C   0  0  0  0  0  0  0  0  0  0  0  0
   34.7860   30.6020   33.2390 C   0  0  0  0  0  0  0  0  0  0  0  0
   35.1440   30.2540   34.5390 C   0  0  0  0  0  0  0  0  0  0  0  0
   35.9000   29.1260   34.7100 N   0  0  0  0  0  0  0  0  0  0  0  0
   36.3010   28.3580   33.6840 C   0  0  0  0  0  0  0  0  0  0  0  0
   35.9600   28.6820   32.4100 N   0  0  0  0  0  0  0  0  0  0  0  0
   34.9750   29.9960   31.1590 H   0  0  0  0  0  0  0  0  0  0  0  0
   34.1900   31.4780   33.0210 H   0  0  0  0  0  0  0  0  0  0  0  0
   34.7250   31.0610   35.6520 C   0  0  0  0  0  0  0  0  0  0  0  0
   33.4640   31.3220   36.0920 C   0  0  0  0  0  0  0  0  0  0  0  0
   32.5380   30.9480   35.6560 H   0  0  0  0  0  0  0  0  0  0  0  0
   33.5060   32.1470   37.1930 C   0  0  0  0  0  0  0  0  0  0  0  0
   32.7320   32.5600   37.8010 H   0  0  0  0  0  0  0  0  0  0  0  0
   34.8410   32.3550   37.3770 N   0  0  0  0  0  0  0  0  0  0  0  0
   35.3380   32.9280   38.1090 H   0  0  0  0  0  0  0  0  0  0  0  0
   35.5610   31.7050   36.4530 N   0  0  0  0  0  0  0  0  0  0  0  0
   37.9010   27.4320   35.2050 C   0  0  0  0  0  0  0  0  0  0  0  0
   37.2490   27.2010   36.0830 H   0  0  0  0  0  0  0  0  0  0  0  0
   38.3330   28.4480   35.2750 H   0  0  0  0  0  0  0  0  0  0  0  0
   39.0060   26.4290   35.1870 C   0  0  0  0  0  0  0  0  0  0  0  0
   39.7880   26.7400   35.9030 H   0  0  0  0  0  0  0  0  0  0  0  0
   39.5120   26.3680   34.1830 H   0  0  0  0  0  0  0  0  0  0  0  0
   38.5470   25.0520   35.5050 C   0  0  0  0  0  0  0  0  0  0  0  0
   38.0480   24.8470   36.7720 C   0  0  0  0  0  0  0  0  0  0  0  0
   37.5920   23.6050   37.1800 C   0  0  0  0  0  0  0  0  0  0  0  0
   37.6370   22.5840   36.3250 N   0  0  0  0  0  0  0  0  0  0  0  0
   38.1260   22.7920   35.0880 C   0  0  0  0  0  0  0  0  0  0  0  0
   38.5710   23.9830   34.6780 N   0  0  0  0  0  0  0  0  0  0  0  0
   37.9820   25.6350   37.5190 H   0  0  0  0  0  0  0  0  0  0  0  0
   37.1980   23.4120   38.1570 H   0  0  0  0  0  0  0  0  0  0  0  0
   38.1720   21.9730   34.3750 H   0  0  0  0  0  0  0  0  0  0  0  0
  1 18  1  0  0  0  0
  2  7  2  0  0  0  0
  2  3  1  0  0  0  0
  3  4  2  0  0  0  0
  4  5  1  0  0  0  0
  4 10  1  0  0  0  0
  6  1  1  0  0  0  0
  6  5  2  0  0  0  0
  7  6  1  0  0  0  0
  8  2  1  0  0  0  0
  9  3  1  0  0  0  0
 10 11  1  0  0  0  0
 10 17  2  0  0  0  0
 11 13  2  0  0  0  0
 12 11  1  0  0  0  0
 13 15  1  0  0  0  0
 13 14  1  0  0  0  0
 15 16  1  0  0  0  0
 17 15  1  0  0  0  0
 18 20  1  0  0  0  0
 18 19  1  0  0  0  0
 21 18  1  0  0  0  0
 21 24  1  0  0  0  0
 21 22  1  0  0  0  0
 23 21  1  0  0  0  0
 24 25  1  0  0  0  0
 25 26  2  0  0  0  0
 25 30  1  0  0  0  0
 26 31  1  0  0  0  0
 27 26  1  0  0  0  0
 28 27  2  0  0  0  0
 29 28  1  0  0  0  0
 29 24  2  0  0  0  0
 32 28  1  0  0  0  0
M  END
>  <minimizedAffinity>
-4.91931534

$$$$

 OpenBabel03272509513D

 32 34  0  0  0  0  0  0  0  0999 V2000
   37.0890   26.2250   33.5980 O   0  0  0  0  0  0  0  0  0  0  0  0
   36.1510   28.9920   31.4710 C   0  0  0  0  0  0  0  0  0  0  0  0
   35.6970   29.9120   32.4310 C   0  0  0  0  0  0  0  0  0  0  0  0
   35.7390   29.5220   33.7680 C   0  0  0  0  0  0  0  0  0  0  0  0
   36.2210   28.2730   34.0510 N   0  0  0  0  0  0  0  0  0  0  0  0
   36.6460   27.4260   33.1000 C   0  0  0  0  0  0  0  0  0  0  0  0
   36.6110   27.7890   31.7910 N   0  0  0  0  0  0  0  0  0  0  0  0
   36.1390   29.2480   30.4080 H   0  0  0  0  0  0  0  0  0  0  0  0
   35.3290   30.8820   32.1260 H   0  0  0  0  0  0  0  0  0  0  0  0
   35.2900   30.4130   34.8010 C   0  0  0  0  0  0  0  0  0  0  0  0
   36.0280   31.1230   35.6980 C   0  0  0  0  0  0  0  0  0  0  0  0
   37.1140   31.1300   35.7780 H   0  0  0  0  0  0  0  0  0  0  0  0
   35.2010   31.8560   36.5190 C   0  0  0  0  0  0  0  0  0  0  0  0
   35.4100   32.5220   37.3270 H   0  0  0  0  0  0  0  0  0  0  0  0
   33.9530   31.5450   36.0650 N   0  0  0  0  0  0  0  0  0  0  0  0
   33.0120   31.8800   36.4020 H   0  0  0  0  0  0  0  0  0  0  0  0
   34.0150   30.6830   35.0410 N   0  0  0  0  0  0  0  0  0  0  0  0
   38.0650   26.2590   34.6350 C   0  0  0  0  0  0  0  0  0  0  0  0
   37.4700   26.2570   35.5810 H   0  0  0  0  0  0  0  0  0  0  0  0
   38.7240   27.1450   34.5700 H   0  0  0  0  0  0  0  0  0  0  0  0
   38.9020   25.0230   34.6240 C   0  0  0  0  0  0  0  0  0  0  0  0
   39.9210   25.2800   34.2880 H   0  0  0  0  0  0  0  0  0  0  0  0
   38.5190   24.2540   33.8960 H   0  0  0  0  0  0  0  0  0  0  0  0
   38.9600   24.3490   35.9470 C   0  0  0  0  0  0  0  0  0  0  0  0
   38.0340   24.7530   36.8840 C   0  0  0  0  0  0  0  0  0  0  0  0
   37.9930   24.1950   38.1500 C   0  0  0  0  0  0  0  0  0  0  0  0
   38.8710   23.2450   38.4700 N   0  0  0  0  0  0  0  0  0  0  0  0
   39.7730   22.8550   37.5500 C   0  0  0  0  0  0  0  0  0  0  0  0
   39.8270   23.3830   36.3230 N   0  0  0  0  0  0  0  0  0  0  0  0
   37.2890   25.5220   36.6910 H   0  0  0  0  0  0  0  0  0  0  0  0
   37.2870   24.4860   38.9020 H   0  0  0  0  0  0  0  0  0  0  0  0
   40.4970   22.0830   37.7890 H   0  0  0  0  0  0  0  0  0  0  0  0
  1 18  1  0  0  0  0
  2  7  2  0  0  0  0
  2  3  1  0  0  0  0
  3  4  2  0  0  0  0
  4  5  1  0  0  0  0
  4 10  1  0  0  0  0
  6  1  1  0  0  0  0
  6  5  2  0  0  0  0
  7  6  1  0  0  0  0
  8  2  1  0  0  0  0
  9  3  1  0  0  0  0
 10 17  2  0  0  0  0
 10 11  1  0  0  0  0
 11 12  1  0  0  0  0
 11 13  2  0  0  0  0
 13 14  1  0  0  0  0
 15 16  1  0  0  0  0
 15 13  1  0  0  0  0
 17 15  1  0  0  0  0
 18 19  1  0  0  0  0
 20 18  1  0  0  0  0
 21 18  1  0  0  0  0
 21 24  1  0  0  0  0
 22 21  1  0  0  0  0
 23 21  1  0  0  0  0
 24 29  2  0  0  0  0
 24 25  1  0  0  0  0
 25 26  2  0  0  0  0
 26 27  1  0  0  0  0
 26 31  1  0  0  0  0
 28 32  1  0  0  0  0
 28 27  2  0  0  0  0
 29 28  1  0  0  0  0
 30 25  1  0  0  0  0
M  END
>  <minimizedAffinity>
-4.87413168

$$$$

 OpenBabel03272509513D

 32 34  0  0  0  0  0  0  0  0999 V2000
   37.9650   23.1640   31.7890 O   0  0  0  0  0  0  0  0  0  0  0  0
   36.0700   20.9220   33.8970 C   0  0  0  0  0  0  0  0  0  0  0  0
   36.6140   21.2320   35.1550 C   0  0  0  0  0  0  0  0  0  0  0  0
   37.6110   22.2020   35.2050 C   0  0  0  0  0  0  0  0  0  0  0  0
   37.9890   22.7870   34.0270 N   0  0  0  0  0  0  0  0  0  0  0  0
   37.4410   22.4600   32.8460 C   0  0  0  0  0  0  0  0  0  0  0  0
   36.4680   21.5140   32.7780 N   0  0  0  0  0  0  0  0  0  0  0  0
   35.2840   20.1680   33.8020 H   0  0  0  0  0  0  0  0  0  0  0  0
   36.2600   20.7230   36.0420 H   0  0  0  0  0  0  0  0  0  0  0  0
   38.2110   22.5670   36.4590 C   0  0  0  0  0  0  0  0  0  0  0  0
   37.6690   23.2640   37.4950 C   0  0  0  0  0  0  0  0  0  0  0  0
   36.6600   23.6720   37.5400 H   0  0  0  0  0  0  0  0  0  0  0  0
   38.5880   23.3960   38.5110 C   0  0  0  0  0  0  0  0  0  0  0  0
   38.5290   23.8710   39.4660 H   0  0  0  0  0  0  0  0  0  0  0  0
   39.6850   22.7470   38.0270 N   0  0  0  0  0  0  0  0  0  0  0  0
   40.6290   22.5970   38.4720 H   0  0  0  0  0  0  0  0  0  0  0  0
   39.4520   22.2560   36.8020 N   0  0  0  0  0  0  0  0  0  0  0  0
   37.0520   23.7060   30.8390 C   0  0  0  0  0  0  0  0  0  0  0  0
   36.6010   22.8130   30.3400 H   0  0  0  0  0  0  0  0  0  0  0  0
   37.5440   24.3750   30.1090 H   0  0  0  0  0  0  0  0  0  0  0  0
   35.9490   24.4470   31.5190 C   0  0  0  0  0  0  0  0  0  0  0  0
   35.6640   23.9070   32.4390 H   0  0  0  0  0  0  0  0  0  0  0  0
   35.0180   24.5000   30.8890 H   0  0  0  0  0  0  0  0  0  0  0  0
   36.3080   25.8520   31.8460 C   0  0  0  0  0  0  0  0  0  0  0  0
   36.0330   26.7970   30.8830 C   0  0  0  0  0  0  0  0  0  0  0  0
   36.3240   28.1360   31.0770 C   0  0  0  0  0  0  0  0  0  0  0  0
   36.8840   28.5200   32.2230 N   0  0  0  0  0  0  0  0  0  0  0  0
   37.1490   27.5900   33.1610 C   0  0  0  0  0  0  0  0  0  0  0  0
   36.8760   26.2940   32.9910 N   0  0  0  0  0  0  0  0  0  0  0  0
   35.5780   26.5540   29.9250 H   0  0  0  0  0  0  0  0  0  0  0  0
   36.1230   28.8970   30.3490 H   0  0  0  0  0  0  0  0  0  0  0  0
   37.6050   27.8810   34.1030 H   0  0  0  0  0  0  0  0  0  0  0  0
  1  6  1  0  0  0  0
  2  3  1  0  0  0  0
  3  4  2  0  0  0  0
  3  9  1  0  0  0  0
  4 10  1  0  0  0  0
  5  4  1  0  0  0  0
  6  5  2  0  0  0  0
  7  6  1  0  0  0  0
  7  2  2  0  0  0  0
  8  2  1  0  0  0  0
 10 17  2  0  0  0  0
 10 11  1  0  0  0  0
 11 12  1  0  0  0  0
 11 13  2  0  0  0  0
 13 14  1  0  0  0  0
 15 16  1  0  0  0  0
 15 13  1  0  0  0  0
 17 15  1  0  0  0  0
 18 21  1  0  0  0  0
 18  1  1  0  0  0  0
 19 18  1  0  0  0  0
 20 18  1  0  0  0  0
 21 24  1  0  0  0  0
 21 22  1  0  0  0  0
 23 21  1  0  0  0  0
 24 29  1  0  0  0  0
 25 26  1  0  0  0  0
 25 24  2  0  0  0  0
 26 27  2  0  0  0  0
 27 28  1  0  0  0  0
 28 32  1  0  0  0  0
 29 28  2  0  0  0  0
 30 25  1  0  0  0  0
 31 26  1  0  0  0  0
M  END
>  <minimizedAffinity>
-4.74457312

$$$$

 OpenBabel03272509513D

 32 34  0  0  0  0  0  0  0  0999 V2000
   37.6600   27.1500   33.4670 O   0  0  0  0  0  0  0  0  0  0  0  0
   35.2680   26.0460   30.9930 C   0  0  0  0  0  0  0  0  0  0  0  0
   35.4530   24.6550   31.0600 C   0  0  0  0  0  0  0  0  0  0  0  0
   36.3990   24.1730   31.9610 C   0  0  0  0  0  0  0  0  0  0  0  0
   37.0800   25.0870   32.7180 N   0  0  0  0  0  0  0  0  0  0  0  0
   36.8710   26.4100   32.6200 C   0  0  0  0  0  0  0  0  0  0  0  0
   35.9530   26.8980   31.7460 N   0  0  0  0  0  0  0  0  0  0  0  0
   34.5380   26.4770   30.3030 H   0  0  0  0  0  0  0  0  0  0  0  0
   34.8730   23.9970   30.4270 H   0  0  0  0  0  0  0  0  0  0  0  0
   36.6390   22.7610   32.0810 C   0  0  0  0  0  0  0  0  0  0  0  0
   36.1730   21.7460   31.3020 C   0  0  0  0  0  0  0  0  0  0  0  0
   35.5220   21.8450   30.4340 H   0  0  0  0  0  0  0  0  0  0  0  0
   36.6430   20.5380   31.7650 C   0  0  0  0  0  0  0  0  0  0  0  0
   36.4960   19.5390   31.4200 H   0  0  0  0  0  0  0  0  0  0  0  0
   37.4010   20.8890   32.8430 N   0  0  0  0  0  0  0  0  0  0  0  0
   37.9530   20.2810   33.5040 H   0  0  0  0  0  0  0  0  0  0  0  0
   37.3920   22.2170   33.0250 N   0  0  0  0  0  0  0  0  0  0  0  0
   37.2120   27.3180   34.8090 C   0  0  0  0  0  0  0  0  0  0  0  0
   36.4250   26.5350   34.9430 H   0  0  0  0  0  0  0  0  0  0  0  0
   36.8140   28.3320   35.0020 H   0  0  0  0  0  0  0  0  0  0  0  0
   38.3070   27.0280   35.7800 C   0  0  0  0  0  0  0  0  0  0  0  0
   38.0040   27.3770   36.7820 H   0  0  0  0  0  0  0  0  0  0  0  0
   39.2560   27.5820   35.5320 H   0  0  0  0  0  0  0  0  0  0  0  0
   38.6700   25.5880   35.8330 C   0  0  0  0  0  0  0  0  0  0  0  0
   37.8040   24.7600   36.5140 C   0  0  0  0  0  0  0  0  0  0  0  0
   38.0400   23.4010   36.6290 C   0  0  0  0  0  0  0  0  0  0  0  0
   39.1320   22.8820   36.0690 N   0  0  0  0  0  0  0  0  0  0  0  0
   39.9740   23.6960   35.4050 C   0  0  0  0  0  0  0  0  0  0  0  0
   39.7620   25.0100   35.2840 N   0  0  0  0  0  0  0  0  0  0  0  0
   36.8960   25.1160   36.9950 H   0  0  0  0  0  0  0  0  0  0  0  0
   37.3880   22.7300   37.1510 H   0  0  0  0  0  0  0  0  0  0  0  0
   40.8690   23.2940   34.9410 H   0  0  0  0  0  0  0  0  0  0  0  0
  1 18  1  0  0  0  0
  2  3  2  0  0  0  0
  2  7  1  0  0  0  0
  3  4  1  0  0  0  0
  4 10  1  0  0  0  0
  4  5  2  0  0  0  0
  6  5  1  0  0  0  0
  6  1  1  0  0  0  0
  7  6  2  0  0  0  0
  8  2  1  0  0  0  0
  9  3  1  0  0  0  0
 10 17  2  0  0  0  0
 11 13  2  0  0  0  0
 11 10  1  0  0  0  0
 12 11  1  0  0  0  0
 13 15  1  0  0  0  0
 14 13  1  0  0  0  0
 15 17  1  0  0  0  0
 15 16  1  0  0  0  0
 18 19  1  0  0  0  0
 18 20  1  0  0  0  0
 18 21  1  0  0  0  0
 21 24  1  0  0  0  0
 21 22  1  0  0  0  0
 23 21  1  0  0  0  0
 24 25  1  0  0  0  0
 25 26  2  0  0  0  0
 25 30  1  0  0  0  0
 26 31  1  0  0  0  0
 27 26  1  0  0  0  0
 28 27  2  0  0  0  0
 29 28  1  0  0  0  0
 29 24  2  0  0  0  0
 32 28  1  0  0  0  0
M  END
>  <minimizedAffinity>
-4.70724869

$$$$

 OpenBabel03272509513D

 32 34  0  0  0  0  0  0  0  0999 V2000
   36.5940   27.6020   33.3620 O   0  0  0  0  0  0  0  0  0  0  0  0
   39.9770   26.7420   34.2970 C   0  0  0  0  0  0  0  0  0  0  0  0
   39.7330   25.7540   35.2640 C   0  0  0  0  0  0  0  0  0  0  0  0
   38.4060   25.4370   35.5420 C   0  0  0  0  0  0  0  0  0  0  0  0
   37.4340   26.1110   34.8530 N   0  0  0  0  0  0  0  0  0  0  0  0
   37.7140   27.0490   33.9350 C   0  0  0  0  0  0  0  0  0  0  0  0
   39.0030   27.3720   33.6520 N   0  0  0  0  0  0  0  0  0  0  0  0
   41.0010   27.0280   34.0400 H   0  0  0  0  0  0  0  0  0  0  0  0
   40.5590   25.2660   35.7660 H   0  0  0  0  0  0  0  0  0  0  0  0
   38.0850   24.4360   36.5210 C   0  0  0  0  0  0  0  0  0  0  0  0
   38.1030   24.5310   37.8790 C   0  0  0  0  0  0  0  0  0  0  0  0
   38.3730   25.4120   38.4600 H   0  0  0  0  0  0  0  0  0  0  0  0
   37.7250   23.3350   38.4450 C   0  0  0  0  0  0  0  0  0  0  0  0
   37.6220   23.0310   39.4630 H   0  0  0  0  0  0  0  0  0  0  0  0
   37.4870   22.5390   37.3640 N   0  0  0  0  0  0  0  0  0  0  0  0
   37.1740   21.5330   37.3240 H   0  0  0  0  0  0  0  0  0  0  0  0
   37.7040   23.2040   36.2200 N   0  0  0  0  0  0  0  0  0  0  0  0
   36.7630   28.3310   32.1500 C   0  0  0  0  0  0  0  0  0  0  0  0
   37.8660   28.3180   31.9660 H   0  0  0  0  0  0  0  0  0  0  0  0
   36.3730   29.3630   32.2140 H   0  0  0  0  0  0  0  0  0  0  0  0
   36.1080   27.6290   31.0070 C   0  0  0  0  0  0  0  0  0  0  0  0
   36.4160   28.1090   30.0630 H   0  0  0  0  0  0  0  0  0  0  0  0
   34.9850   27.7090   31.0450 H   0  0  0  0  0  0  0  0  0  0  0  0
   36.4180   26.1760   30.9620 C   0  0  0  0  0  0  0  0  0  0  0  0
   35.3660   25.3150   31.1820 C   0  0  0  0  0  0  0  0  0  0  0  0
   35.5360   23.9420   31.1640 C   0  0  0  0  0  0  0  0  0  0  0  0
   36.7480   23.4410   30.9280 N   0  0  0  0  0  0  0  0  0  0  0  0
   37.7720   24.2880   30.7130 C   0  0  0  0  0  0  0  0  0  0  0  0
   37.6260   25.6160   30.7270 N   0  0  0  0  0  0  0  0  0  0  0  0
   34.3520   25.6550   31.3810 H   0  0  0  0  0  0  0  0  0  0  0  0
   34.7390   23.2450   31.3310 H   0  0  0  0  0  0  0  0  0  0  0  0
   38.7680   23.9010   30.5180 H   0  0  0  0  0  0  0  0  0  0  0  0
  1  6  1  0  0  0  0
  2  3  1  0  0  0  0
  3  4  2  0  0  0  0
  3  9  1  0  0  0  0
  4 10  1  0  0  0  0
  5  4  1  0  0  0  0
  6  5  2  0  0  0  0
  7  6  1  0  0  0  0
  7  2  2  0  0  0  0
  8  2  1  0  0  0  0
 10 11  1  0  0  0  0
 11 13  2  0  0  0  0
 11 12  1  0  0  0  0
 13 14  1  0  0  0  0
 15 13  1  0  0  0  0
 16 15  1  0  0  0  0
 17 10  2  0  0  0  0
 17 15  1  0  0  0  0
 18 20  1  0  0  0  0
 18  1  1  0  0  0  0
 19 18  1  0  0  0  0
 21 23  1  0  0  0  0
 21 18  1  0  0  0  0
 22 21  1  0  0  0  0
 24 21  1  0  0  0  0
 24 25  1  0  0  0  0
 25 30  1  0  0  0  0
 26 25  2  0  0  0  0
 26 31  1  0  0  0  0
 27 26  1  0  0  0  0
 28 29  1  0  0  0  0
 28 27  2  0  0  0  0
 29 24  2  0  0  0  0
 32 28  1  0  0  0  0
M  END
>  <minimizedAffinity>
-4.67678547

$$$$

 OpenBabel03272509513D

 32 34  0  0  0  0  0  0  0  0999 V2000
   36.9680   27.1170   35.0430 O   0  0  0  0  0  0  0  0  0  0  0  0
   35.4700   29.8880   33.2710 C   0  0  0  0  0  0  0  0  0  0  0  0
   36.0360   29.7150   31.9970 C   0  0  0  0  0  0  0  0  0  0  0  0
   36.9100   28.6450   31.8200 C   0  0  0  0  0  0  0  0  0  0  0  0
   37.1530   27.8380   32.8980 N   0  0  0  0  0  0  0  0  0  0  0  0
   36.5890   28.0410   34.0990 C   0  0  0  0  0  0  0  0  0  0  0  0
   35.7350   29.0800   34.2900 N   0  0  0  0  0  0  0  0  0  0  0  0
   34.7770   30.7120   33.4640 H   0  0  0  0  0  0  0  0  0  0  0  0
   35.7920   30.3980   31.1940 H   0  0  0  0  0  0  0  0  0  0  0  0
   37.5250   28.4100   30.5430 C   0  0  0  0  0  0  0  0  0  0  0  0
   38.7570   27.8990   30.2690 C   0  0  0  0  0  0  0  0  0  0  0  0
   39.4980   27.5760   30.9990 H   0  0  0  0  0  0  0  0  0  0  0  0
   38.9550   27.8400   28.9080 C   0  0  0  0  0  0  0  0  0  0  0  0
   39.7830   27.5040   28.3240 H   0  0  0  0  0  0  0  0  0  0  0  0
   37.7910   28.3370   28.4010 N   0  0  0  0  0  0  0  0  0  0  0  0
   37.5000   28.4770   27.3970 H   0  0  0  0  0  0  0  0  0  0  0  0
   36.9430   28.6750   29.3830 N   0  0  0  0  0  0  0  0  0  0  0  0
   38.2060   27.3290   35.7140 C   0  0  0  0  0  0  0  0  0  0  0  0
   37.9440   27.3110   36.8010 H   0  0  0  0  0  0  0  0  0  0  0  0
   38.6880   28.2830   35.4280 H   0  0  0  0  0  0  0  0  0  0  0  0
   39.1540   26.2050   35.4600 C   0  0  0  0  0  0  0  0  0  0  0  0
   40.0680   26.3590   36.0590 H   0  0  0  0  0  0  0  0  0  0  0  0
   39.4890   26.1640   34.3850 H   0  0  0  0  0  0  0  0  0  0  0  0
   38.5690   24.8720   35.7610 C   0  0  0  0  0  0  0  0  0  0  0  0
   38.6250   23.9340   34.7540 C   0  0  0  0  0  0  0  0  0  0  0  0
   38.1120   22.6590   34.9210 C   0  0  0  0  0  0  0  0  0  0  0  0
   37.5500   22.3330   36.0840 N   0  0  0  0  0  0  0  0  0  0  0  0
   37.5000   23.2540   37.0650 C   0  0  0  0  0  0  0  0  0  0  0  0
   37.9890   24.4900   36.9210 N   0  0  0  0  0  0  0  0  0  0  0  0
   39.0680   24.1330   33.7810 H   0  0  0  0  0  0  0  0  0  0  0  0
   38.1390   21.9070   34.1590 H   0  0  0  0  0  0  0  0  0  0  0  0
   37.0460   23.0090   38.0210 H   0  0  0  0  0  0  0  0  0  0  0  0
  1 18  1  0  0  0  0
  2  8  1  0  0  0  0
  2  7  1  0  0  0  0
  3  2  2  0  0  0  0
  4  3  1  0  0  0  0
  4  5  2  0  0  0  0
  5  6  1  0  0  0  0
  6  7  2  0  0  0  0
  6  1  1  0  0  0  0
  9  3  1  0  0  0  0
 10  4  1  0  0  0  0
 11 10  1  0  0  0  0
 11 12  1  0  0  0  0
 13 11  2  0  0  0  0
 14 13  1  0  0  0  0
 15 13  1  0  0  0  0
 15 17  1  0  0  0  0
 16 15  1  0  0  0  0
 17 10  2  0  0  0  0
 18 19  1  0  0  0  0
 20 18  1  0  0  0  0
 21 18  1  0  0  0  0
 21 24  1  0  0  0  0
 21 22  1  0  0  0  0
 23 21  1  0  0  0  0
 24 29  1  0  0  0  0
 25 26  1  0  0  0  0
 25 24  2  0  0  0  0
 26 27  2  0  0  0  0
 27 28  1  0  0  0  0
 28 32  1  0  0  0  0
 29 28  2  0  0  0  0
 30 25  1  0  0  0  0
 31 26  1  0  0  0  0
M  END
>  <minimizedAffinity>
-4.66380835

$$$$

 OpenBabel03272509513D

 32 34  0  0  0  0  0  0  0  0999 V2000
   37.9750   24.7170   32.1270 O   0  0  0  0  0  0  0  0  0  0  0  0
   41.0480   23.3000   33.3960 C   0  0  0  0  0  0  0  0  0  0  0  0
   40.7130   23.1310   34.7490 C   0  0  0  0  0  0  0  0  0  0  0  0
   39.4370   23.5190   35.1510 C   0  0  0  0  0  0  0  0  0  0  0  0
   38.6000   24.0360   34.1990 N   0  0  0  0  0  0  0  0  0  0  0  0
   38.9630   24.1790   32.9150 C   0  0  0  0  0  0  0  0  0  0  0  0
   40.2030   23.8070   32.5050 N   0  0  0  0  0  0  0  0  0  0  0  0
   42.0360   23.0120   33.0270 H   0  0  0  0  0  0  0  0  0  0  0  0
   41.4330   22.7150   35.4410 H   0  0  0  0  0  0  0  0  0  0  0  0
   39.0290   23.3740   36.5210 C   0  0  0  0  0  0  0  0  0  0  0  0
   37.8740   23.7790   37.1160 C   0  0  0  0  0  0  0  0  0  0  0  0
   37.0450   24.2950   36.6320 H   0  0  0  0  0  0  0  0  0  0  0  0
   37.8840   23.4440   38.4510 C   0  0  0  0  0  0  0  0  0  0  0  0
   37.1660   23.5950   39.2270 H   0  0  0  0  0  0  0  0  0  0  0  0
   39.0900   22.8280   38.6100 N   0  0  0  0  0  0  0  0  0  0  0  0
   39.5210   22.4070   39.4750 H   0  0  0  0  0  0  0  0  0  0  0  0
   39.7670   22.7910   37.4540 N   0  0  0  0  0  0  0  0  0  0  0  0
   36.7530   23.9930   32.0120 C   0  0  0  0  0  0  0  0  0  0  0  0
   36.0490   24.7070   31.5170 H   0  0  0  0  0  0  0  0  0  0  0  0
   36.3660   23.6520   32.9900 H   0  0  0  0  0  0  0  0  0  0  0  0
   36.9110   22.8150   31.1090 C   0  0  0  0  0  0  0  0  0  0  0  0
   37.9820   22.6740   30.8840 H   0  0  0  0  0  0  0  0  0  0  0  0
   36.4030   22.9670   30.1160 H   0  0  0  0  0  0  0  0  0  0  0  0
   36.3430   21.5660   31.6780 C   0  0  0  0  0  0  0  0  0  0  0  0
   36.1970   21.5250   33.0470 C   0  0  0  0  0  0  0  0  0  0  0  0
   35.6790   20.4130   33.6890 C   0  0  0  0  0  0  0  0  0  0  0  0
   35.3140   19.3570   32.9630 N   0  0  0  0  0  0  0  0  0  0  0  0
   35.4590   19.4030   31.6250 C   0  0  0  0  0  0  0  0  0  0  0  0
   35.9580   20.4680   30.9900 N   0  0  0  0  0  0  0  0  0  0  0  0
   36.4740   22.3500   33.7000 H   0  0  0  0  0  0  0  0  0  0  0  0
   35.5520   20.3480   34.7510 H   0  0  0  0  0  0  0  0  0  0  0  0
   35.1690   18.5530   31.0150 H   0  0  0  0  0  0  0  0  0  0  0  0
  1  6  1  0  0  0  0
  2  3  1  0  0  0  0
  3  4  2  0  0  0  0
  3  9  1  0  0  0  0
  4 10  1  0  0  0  0
  5  4  1  0  0  0  0
  6  5  2  0  0  0  0
  7  6  1  0  0  0  0
  7  2  2  0  0  0  0
  8  2  1  0  0  0  0
 10 11  1  0  0  0  0
 10 17  2  0  0  0  0
 11 13  2  0  0  0  0
 12 11  1  0  0  0  0
 13 15  1  0  0  0  0
 13 14  1  0  0  0  0
 15 16  1  0  0  0  0
 17 15  1  0  0  0  0
 18  1  1  0  0  0  0
 18 20  1  0  0  0  0
 19 18  1  0  0  0  0
 21 24  1  0  0  0  0
 21 18  1  0  0  0  0
 22 21  1  0  0  0  0
 23 21  1  0  0  0  0
 24 25  1  0  0  0  0
 25 26  2  0  0  0  0
 25 30  1  0  0  0  0
 26 31  1  0  0  0  0
 27 26  1  0  0  0  0
 28 27  2  0  0  0  0
 29 28  1  0  0  0  0
 29 24  2  0  0  0  0
 32 28  1  0  0  0  0
M  END
>  <minimizedAffinity>
-4.63365126

$$$$
