
 OpenBabel03272510193D

 35 38  0  0  0  0  0  0  0  0999 V2000
   37.3800   29.1430   50.7860 Br  0  0  0  0  0  0  0  0  0  0  0  0
   35.9910   29.2930   49.4890 C   0  0  0  0  0  0  0  0  0  0  0  0
   36.0020   30.3330   48.5610 C   0  0  0  0  0  0  0  0  0  0  0  0
   34.9740   30.3870   47.6530 C   0  0  0  0  0  0  0  0  0  0  0  0
   33.9450   29.4610   47.6270 C   0  0  0  0  0  0  0  0  0  0  0  0
   33.9570   28.4540   48.5450 C   0  0  0  0  0  0  0  0  0  0  0  0
   34.9810   28.3860   49.4620 C   0  0  0  0  0  0  0  0  0  0  0  0
   34.9260   31.1690   46.9080 H   0  0  0  0  0  0  0  0  0  0  0  0
   33.1710   27.7100   48.5570 H   0  0  0  0  0  0  0  0  0  0  0  0
   34.9580   27.5610   50.1850 H   0  0  0  0  0  0  0  0  0  0  0  0
   37.9840   33.2220   49.5820 C   0  0  0  0  0  0  0  0  0  0  0  0
   39.0530   33.2400   48.6330 C   0  0  0  0  0  0  0  0  0  0  0  0
   39.0670   32.2600   47.6660 C   0  0  0  0  0  0  0  0  0  0  0  0
   38.0700   31.3210   47.6520 N   0  0  0  0  0  0  0  0  0  0  0  0
   37.0660   31.3220   48.5610 C   0  0  0  0  0  0  0  0  0  0  0  0
   37.0310   32.2850   49.5310 N   0  0  0  0  0  0  0  0  0  0  0  0
   37.9460   33.9820   50.3570 H   0  0  0  0  0  0  0  0  0  0  0  0
   39.7980   33.9960   48.6960 H   0  0  0  0  0  0  0  0  0  0  0  0
   39.8570   32.2280   46.9200 H   0  0  0  0  0  0  0  0  0  0  0  0
   32.8510   29.5140   46.6640 C   0  0  0  0  0  0  0  0  0  0  0  0
   32.0510   28.4500   46.3140 C   0  0  0  0  0  0  0  0  0  0  0  0
   31.0250   28.5610   45.3920 C   0  0  0  0  0  0  0  0  0  0  0  0
   30.7870   29.7360   44.8090 N   0  0  0  0  0  0  0  0  0  0  0  0
   31.5510   30.7840   45.1330 C   0  0  0  0  0  0  0  0  0  0  0  0
   32.5480   30.6710   46.0310 N   0  0  0  0  0  0  0  0  0  0  0  0
   32.2480   27.4950   46.7910 H   0  0  0  0  0  0  0  0  0  0  0  0
   30.4300   27.6780   45.1610 H   0  0  0  0  0  0  0  0  0  0  0  0
   31.4130   32.1290   44.5810 C   0  0  0  0  0  0  0  0  0  0  0  0
   32.3970   32.6460   43.7410 C   0  0  0  0  0  0  0  0  0  0  0  0
   33.3050   32.1870   43.4070 H   0  0  0  0  0  0  0  0  0  0  0  0
   32.0230   33.9390   43.3570 C   0  0  0  0  0  0  0  0  0  0  0  0
   32.5990   34.5820   42.7040 H   0  0  0  0  0  0  0  0  0  0  0  0
   30.8270   34.1520   43.9810 N   0  0  0  0  0  0  0  0  0  0  0  0
   30.2990   35.0440   43.8800 H   0  0  0  0  0  0  0  0  0  0  0  0
   30.4710   33.1090   44.6900 N   0  0  0  0  0  0  0  0  0  0  0  0
  2  1  1  0  0  0  0
  3 15  1  0  0  0  0
  3  2  2  0  0  0  0
  4  3  1  0  0  0  0
  5  4  2  0  0  0  0
  5  6  1  0  0  0  0
  6  9  1  0  0  0  0
  6  7  2  0  0  0  0
  7  2  1  0  0  0  0
  7 10  1  0  0  0  0
  8  4  1  0  0  0  0
 11 17  1  0  0  0  0
 12 18  1  0  0  0  0
 12 11  2  0  0  0  0
 13 12  1  0  0  0  0
 14 13  2  0  0  0  0
 14 15  1  0  0  0  0
 15 16  2  0  0  0  0
 16 11  1  0  0  0  0
 19 13  1  0  0  0  0
 20  5  1  0  0  0  0
 21 20  1  0  0  0  0
 21 26  1  0  0  0  0
 22 21  2  0  0  0  0
 23 24  2  0  0  0  0
 23 22  1  0  0  0  0
 24 25  1  0  0  0  0
 25 20  2  0  0  0  0
 27 22  1  0  0  0  0
 28 35  2  0  0  0  0
 28 24  1  0  0  0  0
 29 28  1  0  0  0  0
 30 29  1  0  0  0  0
 31 29  2  0  0  0  0
 31 33  1  0  0  0  0
 32 31  1  0  0  0  0
 33 35  1  0  0  0  0
 34 33  1  0  0  0  0
M  END
>  <minimizedAffinity>
-6.56623745

>  <minimizedRMSD>
0.425842792

$$$$
