
 OpenBabel03262522353D

 26 28  0  0  0  0  0  0  0  0999 V2000
   38.3080   31.4470   48.3790 C   0  0  0  0  0  0  0  0  0  0  0  0
   38.7220   32.7380   48.5580 C   0  0  0  0  0  0  0  0  0  0  0  0
   39.4450   33.4480   47.6240 C   0  0  0  0  0  0  0  0  0  0  0  0
   39.7880   32.8480   46.4220 C   0  0  0  0  0  0  0  0  0  0  0  0
   39.3600   31.5530   46.2660 C   0  0  0  0  0  0  0  0  0  0  0  0
   38.6630   30.9050   47.1960 N   0  0  0  0  0  0  0  0  0  0  0  0
   38.4840   33.2540   49.4750 H   0  0  0  0  0  0  0  0  0  0  0  0
   39.7500   34.4870   47.8280 H   0  0  0  0  0  0  0  0  0  0  0  0
   40.3590   33.3730   45.6550 H   0  0  0  0  0  0  0  0  0  0  0  0
   37.0470   29.9020   51.5790 C   0  0  0  0  0  0  0  0  0  0  0  0
   37.8710   30.6540   50.7310 C   0  0  0  0  0  0  0  0  0  0  0  0
   37.5410   30.7060   49.3780 C   0  0  0  0  0  0  0  0  0  0  0  0
   36.4420   30.0340   48.9210 N   0  0  0  0  0  0  0  0  0  0  0  0
   35.6730   29.3170   49.7920 C   0  0  0  0  0  0  0  0  0  0  0  0
   35.9690   29.2520   51.0980 N   0  0  0  0  0  0  0  0  0  0  0  0
   37.3720   29.9190   52.5910 H   0  0  0  0  0  0  0  0  0  0  0  0
   38.7420   31.2100   50.9720 H   0  0  0  0  0  0  0  0  0  0  0  0
   34.8100   28.8030   49.3690 H   0  0  0  0  0  0  0  0  0  0  0  0
   39.6710   30.8350   45.0330 C   0  0  0  0  0  0  0  0  0  0  0  0
   40.5400   31.2230   44.0460 C   0  0  0  0  0  0  0  0  0  0  0  0
   41.1390   32.1130   44.0070 H   0  0  0  0  0  0  0  0  0  0  0  0
   40.5390   30.2560   43.0530 C   0  0  0  0  0  0  0  0  0  0  0  0
   41.0870   30.1850   42.1080 H   0  0  0  0  0  0  0  0  0  0  0  0
   39.6800   29.3010   43.4420 N   0  0  0  0  0  0  0  0  0  0  0  0
   39.3650   28.4110   43.0280 H   0  0  0  0  0  0  0  0  0  0  0  0
   39.1840   29.6560   44.5970 N   0  0  0  0  0  0  0  0  0  0  0  0
  1  2  1  0  0  0  0
  1 12  1  0  0  0  0
  2  7  1  0  0  0  0
  3  8  1  0  0  0  0
  3  2  2  0  0  0  0
  4  3  1  0  0  0  0
  5  4  2  0  0  0  0
  5  6  1  0  0  0  0
  6  1  2  0  0  0  0
  9  4  1  0  0  0  0
 10 16  1  0  0  0  0
 11 17  1  0  0  0  0
 11 10  2  0  0  0  0
 12 11  1  0  0  0  0
 13 12  2  0  0  0  0
 13 14  1  0  0  0  0
 14 15  2  0  0  0  0
 15 10  1  0  0  0  0
 18 14  1  0  0  0  0
 19  5  1  0  0  0  0
 20 19  1  0  0  0  0
 21 20  1  0  0  0  0
 22 24  1  0  0  0  0
 22 20  2  0  0  0  0
 23 22  1  0  0  0  0
 24 26  1  0  0  0  0
 25 24  1  0  0  0  0
 26 19  2  0  0  0  0
M  END
>  <minimizedAffinity>
-5.82323313

>  <minimizedRMSD>
0.926435113

$$$$
