
 OpenBabel03272510193D

 35 38  0  0  0  0  0  0  0  0999 V2000
   37.2740   29.3740   51.0400 Br  0  0  0  0  0  0  0  0  0  0  0  0
   35.9550   29.3220   49.6650 C   0  0  0  0  0  0  0  0  0  0  0  0
   36.0030   30.2280   48.6070 C   0  0  0  0  0  0  0  0  0  0  0  0
   35.0260   30.1390   47.6470 C   0  0  0  0  0  0  0  0  0  0  0  0
   34.0120   29.1980   47.6940 C   0  0  0  0  0  0  0  0  0  0  0  0
   33.9860   28.3240   48.7380 C   0  0  0  0  0  0  0  0  0  0  0  0
   34.9600   28.3990   49.7080 C   0  0  0  0  0  0  0  0  0  0  0  0
   35.0080   30.8130   46.8020 H   0  0  0  0  0  0  0  0  0  0  0  0
   33.2100   27.5730   48.8100 H   0  0  0  0  0  0  0  0  0  0  0  0
   34.9080   27.6790   50.5330 H   0  0  0  0  0  0  0  0  0  0  0  0
   37.9820   33.1790   49.4390 C   0  0  0  0  0  0  0  0  0  0  0  0
   39.0170   33.1710   48.4520 C   0  0  0  0  0  0  0  0  0  0  0  0
   39.0080   32.1530   47.5250 C   0  0  0  0  0  0  0  0  0  0  0  0
   38.0240   31.2020   47.5850 N   0  0  0  0  0  0  0  0  0  0  0  0
   37.0540   31.2280   48.5280 C   0  0  0  0  0  0  0  0  0  0  0  0
   37.0400   32.2290   49.4600 N   0  0  0  0  0  0  0  0  0  0  0  0
   37.9620   33.9690   50.1840 H   0  0  0  0  0  0  0  0  0  0  0  0
   39.7530   33.9380   48.4570 H   0  0  0  0  0  0  0  0  0  0  0  0
   39.7720   32.1000   46.7520 H   0  0  0  0  0  0  0  0  0  0  0  0
   32.9700   29.0990   46.6760 C   0  0  0  0  0  0  0  0  0  0  0  0
   32.4790   27.9240   46.1560 C   0  0  0  0  0  0  0  0  0  0  0  0
   31.4880   27.8930   45.1900 C   0  0  0  0  0  0  0  0  0  0  0  0
   30.9760   29.0360   44.7340 N   0  0  0  0  0  0  0  0  0  0  0  0
   31.4370   30.1910   45.2260 C   0  0  0  0  0  0  0  0  0  0  0  0
   32.4020   30.2160   46.1640 N   0  0  0  0  0  0  0  0  0  0  0  0
   32.8990   26.9950   46.5300 H   0  0  0  0  0  0  0  0  0  0  0  0
   31.1450   26.9270   44.8210 H   0  0  0  0  0  0  0  0  0  0  0  0
   30.9780   31.5180   44.8260 C   0  0  0  0  0  0  0  0  0  0  0  0
   31.8760   32.5840   44.7750 C   0  0  0  0  0  0  0  0  0  0  0  0
   32.9220   32.5910   44.9960 H   0  0  0  0  0  0  0  0  0  0  0  0
   31.1840   33.7310   44.3690 C   0  0  0  0  0  0  0  0  0  0  0  0
   31.6300   34.7080   44.2420 H   0  0  0  0  0  0  0  0  0  0  0  0
   29.8960   33.3130   44.1900 N   0  0  0  0  0  0  0  0  0  0  0  0
   29.1390   33.9600   43.8830 H   0  0  0  0  0  0  0  0  0  0  0  0
   29.7720   32.0350   44.4530 N   0  0  0  0  0  0  0  0  0  0  0  0
  2  7  1  0  0  0  0
  2  1  1  0  0  0  0
  3  2  2  0  0  0  0
  4  5  2  0  0  0  0
  4  3  1  0  0  0  0
  5  6  1  0  0  0  0
  6  9  1  0  0  0  0
  6  7  2  0  0  0  0
  7 10  1  0  0  0  0
  8  4  1  0  0  0  0
 11 16  1  0  0  0  0
 11 17  1  0  0  0  0
 12 18  1  0  0  0  0
 12 11  2  0  0  0  0
 13 14  2  0  0  0  0
 13 12  1  0  0  0  0
 14 15  1  0  0  0  0
 15  3  1  0  0  0  0
 15 16  2  0  0  0  0
 19 13  1  0  0  0  0
 20  5  1  0  0  0  0
 21 26  1  0  0  0  0
 21 20  2  0  0  0  0
 22 21  1  0  0  0  0
 23 22  2  0  0  0  0
 23 24  1  0  0  0  0
 24 25  2  0  0  0  0
 25 20  1  0  0  0  0
 27 22  1  0  0  0  0
 28 24  1  0  0  0  0
 29 28  1  0  0  0  0
 29 30  1  0  0  0  0
 31 29  2  0  0  0  0
 32 31  1  0  0  0  0
 33 31  1  0  0  0  0
 33 35  1  0  0  0  0
 34 33  1  0  0  0  0
 35 28  2  0  0  0  0
M  END
>  <minimizedAffinity>
-6.6615591

>  <minimizedRMSD>
0.28629604

$$$$
