
 OpenBabel03272500363D

 20 21  0  0  0  0  0  0  0  0999 V2000
   38.3850   23.8870   36.9880 C   0  0  0  0  0  0  0  0  0  0  0  0
   39.0440   22.8360   36.3410 C   0  0  0  0  0  0  0  0  0  0  0  0
   39.1520   22.8950   34.9400 C   0  0  0  0  0  0  0  0  0  0  0  0
   38.6120   23.9650   34.2960 N   0  0  0  0  0  0  0  0  0  0  0  0
   37.9860   24.9550   34.9580 C   0  0  0  0  0  0  0  0  0  0  0  0
   37.8770   24.9120   36.2890 N   0  0  0  0  0  0  0  0  0  0  0  0
   39.4750   21.9800   36.8600 H   0  0  0  0  0  0  0  0  0  0  0  0
   39.6480   22.1170   34.3760 H   0  0  0  0  0  0  0  0  0  0  0  0
   37.3930   26.1190   34.3140 C   0  0  0  0  0  0  0  0  0  0  0  0
   37.1000   27.3680   34.8390 C   0  0  0  0  0  0  0  0  0  0  0  0
   37.2960   27.6510   35.8790 H   0  0  0  0  0  0  0  0  0  0  0  0
   36.5480   28.0820   33.7790 C   0  0  0  0  0  0  0  0  0  0  0  0
   36.2130   29.1050   33.8690 H   0  0  0  0  0  0  0  0  0  0  0  0
   36.5180   27.2930   32.6850 N   0  0  0  0  0  0  0  0  0  0  0  0
   36.1550   27.5570   31.7340 H   0  0  0  0  0  0  0  0  0  0  0  0
   37.0270   26.1220   33.0240 N   0  0  0  0  0  0  0  0  0  0  0  0
   38.2650   23.8340   38.4840 C   0  0  0  0  0  0  0  0  0  0  0  0
   37.9560   25.1000   38.9700 F   0  0  0  0  0  0  0  0  0  0  0  0
   37.3050   22.8960   38.7760 F   0  0  0  0  0  0  0  0  0  0  0  0
   39.5000   23.4800   38.9900 F   0  0  0  0  0  0  0  0  0  0  0  0
  1 17  1  0  0  0  0
  2  7  1  0  0  0  0
  2  1  1  0  0  0  0
  3  2  2  0  0  0  0
  4  3  1  0  0  0  0
  4  5  2  0  0  0  0
  5  6  1  0  0  0  0
  6  1  2  0  0  0  0
  8  3  1  0  0  0  0
  9 10  1  0  0  0  0
  9  5  1  0  0  0  0
 10 11  1  0  0  0  0
 12 13  1  0  0  0  0
 12 10  2  0  0  0  0
 14 16  1  0  0  0  0
 14 12  1  0  0  0  0
 15 14  1  0  0  0  0
 16  9  2  0  0  0  0
 17 19  1  0  0  0  0
 17 18  1  0  0  0  0
 17 20  1  0  0  0  0
M  END
>  <minimizedAffinity>
-4.84914255

$$$$

 OpenBabel03272500363D

 20 21  0  0  0  0  0  0  0  0999 V2000
   36.8870   21.6420   33.5170 C   0  0  0  0  0  0  0  0  0  0  0  0
   37.2720   22.4900   32.4720 C   0  0  0  0  0  0  0  0  0  0  0  0
   38.1770   23.5240   32.7680 C   0  0  0  0  0  0  0  0  0  0  0  0
   38.6250   23.6430   34.0470 N   0  0  0  0  0  0  0  0  0  0  0  0
   38.2290   22.8050   35.0220 C   0  0  0  0  0  0  0  0  0  0  0  0
   37.3700   21.8170   34.7550 N   0  0  0  0  0  0  0  0  0  0  0  0
   36.9110   22.3910   31.4480 H   0  0  0  0  0  0  0  0  0  0  0  0
   38.5160   24.2160   32.0090 H   0  0  0  0  0  0  0  0  0  0  0  0
   38.6790   22.8920   36.4050 C   0  0  0  0  0  0  0  0  0  0  0  0
   38.1180   23.5650   37.4790 C   0  0  0  0  0  0  0  0  0  0  0  0
   37.1980   24.1570   37.4110 H   0  0  0  0  0  0  0  0  0  0  0  0
   38.9660   23.3010   38.5510 C   0  0  0  0  0  0  0  0  0  0  0  0
   38.7980   23.6900   39.5440 H   0  0  0  0  0  0  0  0  0  0  0  0
   39.9750   22.5110   38.1300 N   0  0  0  0  0  0  0  0  0  0  0  0
   40.7700   22.1470   38.7150 H   0  0  0  0  0  0  0  0  0  0  0  0
   39.7870   22.2770   36.8430 N   0  0  0  0  0  0  0  0  0  0  0  0
   35.9220   20.5330   33.2120 C   0  0  0  0  0  0  0  0  0  0  0  0
   34.8280   21.0450   32.5230 F   0  0  0  0  0  0  0  0  0  0  0  0
   36.6140   19.5840   32.4980 F   0  0  0  0  0  0  0  0  0  0  0  0
   35.4640   20.0350   34.4160 F   0  0  0  0  0  0  0  0  0  0  0  0
  1  6  1  0  0  0  0
  2  3  1  0  0  0  0
  2  1  2  0  0  0  0
  3  4  2  0  0  0  0
  4  5  1  0  0  0  0
  5  9  1  0  0  0  0
  6  5  2  0  0  0  0
  7  2  1  0  0  0  0
  8  3  1  0  0  0  0
  9 16  2  0  0  0  0
  9 10  1  0  0  0  0
 10 12  2  0  0  0  0
 11 10  1  0  0  0  0
 12 13  1  0  0  0  0
 14 12  1  0  0  0  0
 14 15  1  0  0  0  0
 16 14  1  0  0  0  0
 17  1  1  0  0  0  0
 17 20  1  0  0  0  0
 18 17  1  0  0  0  0
 19 17  1  0  0  0  0
M  END
>  <minimizedAffinity>
-4.71233892

$$$$

 OpenBabel03272500363D

 20 21  0  0  0  0  0  0  0  0999 V2000
   37.5440   25.6320   33.7380 C   0  0  0  0  0  0  0  0  0  0  0  0
   37.4330   24.7040   32.6960 C   0  0  0  0  0  0  0  0  0  0  0  0
   37.6900   23.3540   32.9930 C   0  0  0  0  0  0  0  0  0  0  0  0
   38.0330   23.0280   34.2690 N   0  0  0  0  0  0  0  0  0  0  0  0
   38.1280   23.9530   35.2410 C   0  0  0  0  0  0  0  0  0  0  0  0
   37.8860   25.2390   34.9730 N   0  0  0  0  0  0  0  0  0  0  0  0
   37.1580   24.9700   31.6760 H   0  0  0  0  0  0  0  0  0  0  0  0
   37.6240   22.5840   32.2370 H   0  0  0  0  0  0  0  0  0  0  0  0
   38.4910   23.6540   36.6190 C   0  0  0  0  0  0  0  0  0  0  0  0
   38.0100   24.1990   37.8000 C   0  0  0  0  0  0  0  0  0  0  0  0
   37.2420   24.9780   37.8410 H   0  0  0  0  0  0  0  0  0  0  0  0
   38.7090   23.5400   38.8090 C   0  0  0  0  0  0  0  0  0  0  0  0
   38.5580   23.7450   39.8590 H   0  0  0  0  0  0  0  0  0  0  0  0
   39.5570   22.6530   38.2510 N   0  0  0  0  0  0  0  0  0  0  0  0
   40.2160   22.0110   38.7610 H   0  0  0  0  0  0  0  0  0  0  0  0
   39.4130   22.7340   36.9400 N   0  0  0  0  0  0  0  0  0  0  0  0
   37.2700   27.0770   33.4330 C   0  0  0  0  0  0  0  0  0  0  0  0
   38.4150   27.6670   32.9090 F   0  0  0  0  0  0  0  0  0  0  0  0
   36.2030   27.1080   32.5680 F   0  0  0  0  0  0  0  0  0  0  0  0
   36.9810   27.7080   34.6270 F   0  0  0  0  0  0  0  0  0  0  0  0
  1  6  1  0  0  0  0
  2  3  1  0  0  0  0
  2  1  2  0  0  0  0
  3  4  2  0  0  0  0
  4  5  1  0  0  0  0
  5  9  1  0  0  0  0
  6  5  2  0  0  0  0
  7  2  1  0  0  0  0
  8  3  1  0  0  0  0
  9 16  2  0  0  0  0
  9 10  1  0  0  0  0
 10 11  1  0  0  0  0
 10 12  2  0  0  0  0
 12 13  1  0  0  0  0
 14 15  1  0  0  0  0
 14 12  1  0  0  0  0
 16 14  1  0  0  0  0
 17  1  1  0  0  0  0
 17 20  1  0  0  0  0
 18 17  1  0  0  0  0
 19 17  1  0  0  0  0
M  END
>  <minimizedAffinity>
-4.54173851

$$$$

 OpenBabel03272500363D

 20 21  0  0  0  0  0  0  0  0999 V2000
   38.3860   23.5190   36.6390 C   0  0  0  0  0  0  0  0  0  0  0  0
   39.2720   24.3790   35.9800 C   0  0  0  0  0  0  0  0  0  0  0  0
   39.3970   24.2450   34.5850 C   0  0  0  0  0  0  0  0  0  0  0  0
   38.6560   23.2910   33.9600 N   0  0  0  0  0  0  0  0  0  0  0  0
   37.8160   22.4840   34.6340 C   0  0  0  0  0  0  0  0  0  0  0  0
   37.6860   22.6010   35.9580 N   0  0  0  0  0  0  0  0  0  0  0  0
   39.8640   25.1420   36.4850 H   0  0  0  0  0  0  0  0  0  0  0  0
   40.0630   24.8750   34.0120 H   0  0  0  0  0  0  0  0  0  0  0  0
   37.0020   21.4500   34.0090 C   0  0  0  0  0  0  0  0  0  0  0  0
   35.8500   20.8300   34.4700 C   0  0  0  0  0  0  0  0  0  0  0  0
   35.3780   21.0630   35.4310 H   0  0  0  0  0  0  0  0  0  0  0  0
   35.5040   19.9280   33.4680 C   0  0  0  0  0  0  0  0  0  0  0  0
   34.6390   19.2840   33.5300 H   0  0  0  0  0  0  0  0  0  0  0  0
   36.4050   20.0120   32.4680 N   0  0  0  0  0  0  0  0  0  0  0  0
   36.4050   19.4510   31.5780 H   0  0  0  0  0  0  0  0  0  0  0  0
   37.2940   20.9280   32.8090 N   0  0  0  0  0  0  0  0  0  0  0  0
   38.2440   23.6540   38.1280 C   0  0  0  0  0  0  0  0  0  0  0  0
   39.4120   23.2250   38.7480 F   0  0  0  0  0  0  0  0  0  0  0  0
   37.9490   24.9710   38.3850 F   0  0  0  0  0  0  0  0  0  0  0  0
   37.2230   22.8130   38.5270 F   0  0  0  0  0  0  0  0  0  0  0  0
  1 17  1  0  0  0  0
  2  7  1  0  0  0  0
  2  1  1  0  0  0  0
  3  2  2  0  0  0  0
  4  3  1  0  0  0  0
  4  5  2  0  0  0  0
  5  6  1  0  0  0  0
  6  1  2  0  0  0  0
  8  3  1  0  0  0  0
  9 10  1  0  0  0  0
  9  5  1  0  0  0  0
 10 11  1  0  0  0  0
 12 13  1  0  0  0  0
 12 10  2  0  0  0  0
 14 16  1  0  0  0  0
 14 12  1  0  0  0  0
 15 14  1  0  0  0  0
 16  9  2  0  0  0  0
 17 19  1  0  0  0  0
 17 20  1  0  0  0  0
 17 18  1  0  0  0  0
M  END
>  <minimizedAffinity>
-4.48999977

$$$$

 OpenBabel03272500363D

 20 21  0  0  0  0  0  0  0  0999 V2000
   38.1760   24.1400   36.8940 C   0  0  0  0  0  0  0  0  0  0  0  0
   38.1390   25.4820   36.4990 C   0  0  0  0  0  0  0  0  0  0  0  0
   38.0830   25.7560   35.1210 C   0  0  0  0  0  0  0  0  0  0  0  0
   38.0680   24.7080   34.2540 N   0  0  0  0  0  0  0  0  0  0  0  0
   38.1040   23.4310   34.6780 C   0  0  0  0  0  0  0  0  0  0  0  0
   38.1570   23.1560   35.9840 N   0  0  0  0  0  0  0  0  0  0  0  0
   38.1510   26.3190   37.1960 H   0  0  0  0  0  0  0  0  0  0  0  0
   38.0530   26.7700   34.7450 H   0  0  0  0  0  0  0  0  0  0  0  0
   38.0900   22.2760   33.7900 C   0  0  0  0  0  0  0  0  0  0  0  0
   39.1340   21.6720   33.1070 C   0  0  0  0  0  0  0  0  0  0  0  0
   40.1730   22.0160   33.1570 H   0  0  0  0  0  0  0  0  0  0  0  0
   38.5460   20.6160   32.4160 C   0  0  0  0  0  0  0  0  0  0  0  0
   39.1050   19.9440   31.7810 H   0  0  0  0  0  0  0  0  0  0  0  0
   37.2230   20.5990   32.6780 N   0  0  0  0  0  0  0  0  0  0  0  0
   36.5190   19.9170   32.2980 H   0  0  0  0  0  0  0  0  0  0  0  0
   36.9680   21.6000   33.5030 N   0  0  0  0  0  0  0  0  0  0  0  0
   38.2350   23.8350   38.3640 C   0  0  0  0  0  0  0  0  0  0  0  0
   39.4800   23.3020   38.6770 F   0  0  0  0  0  0  0  0  0  0  0  0
   37.9670   25.0070   39.0270 F   0  0  0  0  0  0  0  0  0  0  0  0
   37.2850   22.8670   38.6270 F   0  0  0  0  0  0  0  0  0  0  0  0
  1 17  1  0  0  0  0
  2  1  1  0  0  0  0
  2  7  1  0  0  0  0
  3  2  2  0  0  0  0
  4  5  2  0  0  0  0
  4  3  1  0  0  0  0
  5  6  1  0  0  0  0
  6  1  2  0  0  0  0
  8  3  1  0  0  0  0
  9  5  1  0  0  0  0
 10 11  1  0  0  0  0
 10  9  1  0  0  0  0
 12 14  1  0  0  0  0
 12 10  2  0  0  0  0
 13 12  1  0  0  0  0
 14 16  1  0  0  0  0
 15 14  1  0  0  0  0
 16  9  2  0  0  0  0
 17 20  1  0  0  0  0
 17 18  1  0  0  0  0
 17 19  1  0  0  0  0
M  END
>  <minimizedAffinity>
-4.46040392

$$$$

 OpenBabel03272500363D

 20 21  0  0  0  0  0  0  0  0999 V2000
   38.0890   25.2410   36.1920 C   0  0  0  0  0  0  0  0  0  0  0  0
   38.3180   26.5940   36.4670 C   0  0  0  0  0  0  0  0  0  0  0  0
   38.2420   27.5020   35.3950 C   0  0  0  0  0  0  0  0  0  0  0  0
   37.9510   27.0160   34.1580 N   0  0  0  0  0  0  0  0  0  0  0  0
   37.7370   25.7060   33.9380 C   0  0  0  0  0  0  0  0  0  0  0  0
   37.8060   24.8330   34.9470 N   0  0  0  0  0  0  0  0  0  0  0  0
   38.5510   26.9790   37.4600 H   0  0  0  0  0  0  0  0  0  0  0  0
   38.4080   28.5610   35.5360 H   0  0  0  0  0  0  0  0  0  0  0  0
   37.4230   25.1390   32.6340 C   0  0  0  0  0  0  0  0  0  0  0  0
   37.0930   23.8360   32.2900 C   0  0  0  0  0  0  0  0  0  0  0  0
   37.0230   23.0170   33.0130 H   0  0  0  0  0  0  0  0  0  0  0  0
   36.8970   23.8680   30.9120 C   0  0  0  0  0  0  0  0  0  0  0  0
   36.6250   22.9960   30.3370 H   0  0  0  0  0  0  0  0  0  0  0  0
   37.1010   25.1250   30.4670 N   0  0  0  0  0  0  0  0  0  0  0  0
   37.0260   25.4550   29.4710 H   0  0  0  0  0  0  0  0  0  0  0  0
   37.4150   25.8720   31.5110 N   0  0  0  0  0  0  0  0  0  0  0  0
   38.1670   24.2630   37.3290 C   0  0  0  0  0  0  0  0  0  0  0  0
   37.0910   23.3860   37.2620 F   0  0  0  0  0  0  0  0  0  0  0  0
   39.3840   23.6340   37.2330 F   0  0  0  0  0  0  0  0  0  0  0  0
   38.0510   24.9800   38.5040 F   0  0  0  0  0  0  0  0  0  0  0  0
  1  2  1  0  0  0  0
  1 17  1  0  0  0  0
  2  7  1  0  0  0  0
  3  8  1  0  0  0  0
  3  2  2  0  0  0  0
  4  3  1  0  0  0  0
  5  4  2  0  0  0  0
  5  6  1  0  0  0  0
  6  1  2  0  0  0  0
  9  5  1  0  0  0  0
 10  9  1  0  0  0  0
 10 11  1  0  0  0  0
 12 10  2  0  0  0  0
 13 12  1  0  0  0  0
 14 12  1  0  0  0  0
 14 16  1  0  0  0  0
 15 14  1  0  0  0  0
 16  9  2  0  0  0  0
 17 20  1  0  0  0  0
 18 17  1  0  0  0  0
 19 17  1  0  0  0  0
M  END
>  <minimizedAffinity>
-4.37585306

$$$$

 OpenBabel03272500363D

 20 21  0  0  0  0  0  0  0  0999 V2000
   38.3790   23.6140   36.8310 C   0  0  0  0  0  0  0  0  0  0  0  0
   37.7990   22.5210   36.1770 C   0  0  0  0  0  0  0  0  0  0  0  0
   37.8840   22.4770   34.7740 C   0  0  0  0  0  0  0  0  0  0  0  0
   38.5200   23.4950   34.1340 N   0  0  0  0  0  0  0  0  0  0  0  0
   39.0640   24.5290   34.8030 C   0  0  0  0  0  0  0  0  0  0  0  0
   38.9920   24.5830   36.1350 N   0  0  0  0  0  0  0  0  0  0  0  0
   37.2910   21.7070   36.6940 H   0  0  0  0  0  0  0  0  0  0  0  0
   37.4580   21.6630   34.2050 H   0  0  0  0  0  0  0  0  0  0  0  0
   39.7540   25.6410   34.1630 C   0  0  0  0  0  0  0  0  0  0  0  0
   40.8980   26.3180   34.5570 C   0  0  0  0  0  0  0  0  0  0  0  0
   41.4630   26.0790   35.4650 H   0  0  0  0  0  0  0  0  0  0  0  0
   41.1010   27.2820   33.5740 C   0  0  0  0  0  0  0  0  0  0  0  0
   41.9250   27.9800   33.5950 H   0  0  0  0  0  0  0  0  0  0  0  0
   40.1270   27.1780   32.6470 N   0  0  0  0  0  0  0  0  0  0  0  0
   40.0160   27.7720   31.7860 H   0  0  0  0  0  0  0  0  0  0  0  0
   39.3300   26.1900   33.0160 N   0  0  0  0  0  0  0  0  0  0  0  0
   38.2960   23.6700   38.3290 C   0  0  0  0  0  0  0  0  0  0  0  0
   37.2790   22.8310   38.7700 F   0  0  0  0  0  0  0  0  0  0  0  0
   39.5330   23.3190   38.8130 F   0  0  0  0  0  0  0  0  0  0  0  0
   37.9560   24.9620   38.6790 F   0  0  0  0  0  0  0  0  0  0  0  0
  1 17  1  0  0  0  0
  2  7  1  0  0  0  0
  2  1  1  0  0  0  0
  3  2  2  0  0  0  0
  4  3  1  0  0  0  0
  4  5  2  0  0  0  0
  5  6  1  0  0  0  0
  6  1  2  0  0  0  0
  8  3  1  0  0  0  0
  9 10  1  0  0  0  0
  9  5  1  0  0  0  0
 10 11  1  0  0  0  0
 12 13  1  0  0  0  0
 12 10  2  0  0  0  0
 14 16  1  0  0  0  0
 14 12  1  0  0  0  0
 15 14  1  0  0  0  0
 16  9  2  0  0  0  0
 17 20  1  0  0  0  0
 17 18  1  0  0  0  0
 17 19  1  0  0  0  0
M  END
>  <minimizedAffinity>
-4.36226702

$$$$

 OpenBabel03272500363D

 20 21  0  0  0  0  0  0  0  0999 V2000
   37.6110   25.4450   33.6690 C   0  0  0  0  0  0  0  0  0  0  0  0
   37.3410   26.7620   34.0560 C   0  0  0  0  0  0  0  0  0  0  0  0
   37.6920   27.1460   35.3620 C   0  0  0  0  0  0  0  0  0  0  0  0
   38.2700   26.2190   36.1730 N   0  0  0  0  0  0  0  0  0  0  0  0
   38.5110   24.9610   35.7600 C   0  0  0  0  0  0  0  0  0  0  0  0
   38.1840   24.5830   34.5220 N   0  0  0  0  0  0  0  0  0  0  0  0
   36.8780   27.5020   33.4030 H   0  0  0  0  0  0  0  0  0  0  0  0
   37.5120   28.1470   35.7270 H   0  0  0  0  0  0  0  0  0  0  0  0
   39.1270   23.9340   36.5910 C   0  0  0  0  0  0  0  0  0  0  0  0
   40.2600   23.1700   36.3590 C   0  0  0  0  0  0  0  0  0  0  0  0
   40.8750   23.2530   35.4570 H   0  0  0  0  0  0  0  0  0  0  0  0
   40.3780   22.3560   37.4830 C   0  0  0  0  0  0  0  0  0  0  0  0
   41.1740   21.6360   37.6060 H   0  0  0  0  0  0  0  0  0  0  0  0
   39.3670   22.6280   38.3330 N   0  0  0  0  0  0  0  0  0  0  0  0
   39.1930   22.1710   39.2640 H   0  0  0  0  0  0  0  0  0  0  0  0
   38.6280   23.5750   37.7820 N   0  0  0  0  0  0  0  0  0  0  0  0
   37.2410   25.0250   32.2750 C   0  0  0  0  0  0  0  0  0  0  0  0
   37.8320   25.8870   31.3580 F   0  0  0  0  0  0  0  0  0  0  0  0
   37.6470   23.7200   32.1290 F   0  0  0  0  0  0  0  0  0  0  0  0
   35.8720   25.1530   32.1510 F   0  0  0  0  0  0  0  0  0  0  0  0
  1  2  2  0  0  0  0
  1  6  1  0  0  0  0
  2  3  1  0  0  0  0
  3  8  1  0  0  0  0
  3  4  2  0  0  0  0
  5  4  1  0  0  0  0
  5  9  1  0  0  0  0
  6  5  2  0  0  0  0
  7  2  1  0  0  0  0
  9 16  2  0  0  0  0
 10  9  1  0  0  0  0
 10 12  2  0  0  0  0
 11 10  1  0  0  0  0
 12 13  1  0  0  0  0
 12 14  1  0  0  0  0
 14 15  1  0  0  0  0
 16 14  1  0  0  0  0
 17  1  1  0  0  0  0
 18 17  1  0  0  0  0
 19 17  1  0  0  0  0
 20 17  1  0  0  0  0
M  END
>  <minimizedAffinity>
-4.354424

$$$$

 OpenBabel03272500363D

 20 21  0  0  0  0  0  0  0  0999 V2000
   36.2910   24.1650   31.7740 C   0  0  0  0  0  0  0  0  0  0  0  0
   35.5010   24.9390   30.9170 C   0  0  0  0  0  0  0  0  0  0  0  0
   35.4830   26.3300   31.1210 C   0  0  0  0  0  0  0  0  0  0  0  0
   36.2300   26.8420   32.1370 N   0  0  0  0  0  0  0  0  0  0  0  0
   36.9760   26.0600   32.9380 C   0  0  0  0  0  0  0  0  0  0  0  0
   37.0030   24.7370   32.7550 N   0  0  0  0  0  0  0  0  0  0  0  0
   34.9040   24.5250   30.1040 H   0  0  0  0  0  0  0  0  0  0  0  0
   34.8950   26.9880   30.4970 H   0  0  0  0  0  0  0  0  0  0  0  0
   37.7910   26.5610   34.0370 C   0  0  0  0  0  0  0  0  0  0  0  0
   39.1430   26.3840   34.2890 C   0  0  0  0  0  0  0  0  0  0  0  0
   39.8100   25.8030   33.6430 H   0  0  0  0  0  0  0  0  0  0  0  0
   39.3810   27.0820   35.4700 C   0  0  0  0  0  0  0  0  0  0  0  0
   40.3550   27.1370   35.9350 H   0  0  0  0  0  0  0  0  0  0  0  0
   38.2290   27.6420   35.8910 N   0  0  0  0  0  0  0  0  0  0  0  0
   38.0980   28.2290   36.7550 H   0  0  0  0  0  0  0  0  0  0  0  0
   37.2880   27.3200   35.0210 N   0  0  0  0  0  0  0  0  0  0  0  0
   36.3180   22.6780   31.5640 C   0  0  0  0  0  0  0  0  0  0  0  0
   35.2940   22.3120   30.6970 F   0  0  0  0  0  0  0  0  0  0  0  0
   37.5670   22.3640   31.0860 F   0  0  0  0  0  0  0  0  0  0  0  0
   36.0690   22.0800   32.7840 F   0  0  0  0  0  0  0  0  0  0  0  0
  1  6  1  0  0  0  0
  2  3  1  0  0  0  0
  2  1  2  0  0  0  0
  3  4  2  0  0  0  0
  4  5  1  0  0  0  0
  5  9  1  0  0  0  0
  6  5  2  0  0  0  0
  7  2  1  0  0  0  0
  8  3  1  0  0  0  0
  9 10  1  0  0  0  0
  9 16  2  0  0  0  0
 10 12  2  0  0  0  0
 11 10  1  0  0  0  0
 12 14  1  0  0  0  0
 12 13  1  0  0  0  0
 14 15  1  0  0  0  0
 16 14  1  0  0  0  0
 17  1  1  0  0  0  0
 17 20  1  0  0  0  0
 18 17  1  0  0  0  0
 19 17  1  0  0  0  0
M  END
>  <minimizedAffinity>
-4.32500029

$$$$
