
 OpenBabel03272510193D

 35 38  0  0  0  0  0  0  0  0999 V2000
   37.3780   29.1740   50.8030 Br  0  0  0  0  0  0  0  0  0  0  0  0
   35.9800   29.2780   49.5100 C   0  0  0  0  0  0  0  0  0  0  0  0
   35.9870   30.2830   48.5440 C   0  0  0  0  0  0  0  0  0  0  0  0
   34.9540   30.3040   47.6410 C   0  0  0  0  0  0  0  0  0  0  0  0
   33.9240   29.3790   47.6560 C   0  0  0  0  0  0  0  0  0  0  0  0
   33.9410   28.4070   48.6090 C   0  0  0  0  0  0  0  0  0  0  0  0
   34.9700   28.3710   49.5230 C   0  0  0  0  0  0  0  0  0  0  0  0
   34.9020   31.0580   46.8680 H   0  0  0  0  0  0  0  0  0  0  0  0
   33.1540   27.6640   48.6540 H   0  0  0  0  0  0  0  0  0  0  0  0
   34.9510   27.5740   50.2750 H   0  0  0  0  0  0  0  0  0  0  0  0
   38.0020   33.1800   49.4740 C   0  0  0  0  0  0  0  0  0  0  0  0
   39.0430   33.1860   48.4930 C   0  0  0  0  0  0  0  0  0  0  0  0
   39.0260   32.1950   47.5370 C   0  0  0  0  0  0  0  0  0  0  0  0
   38.0280   31.2570   47.5640 N   0  0  0  0  0  0  0  0  0  0  0  0
   37.0520   31.2700   48.5010 C   0  0  0  0  0  0  0  0  0  0  0  0
   37.0470   32.2440   49.4610 N   0  0  0  0  0  0  0  0  0  0  0  0
   37.9880   33.9490   50.2410 H   0  0  0  0  0  0  0  0  0  0  0  0
   39.7900   33.9410   48.5250 H   0  0  0  0  0  0  0  0  0  0  0  0
   39.7940   32.1530   46.7680 H   0  0  0  0  0  0  0  0  0  0  0  0
   32.8240   29.3970   46.6970 C   0  0  0  0  0  0  0  0  0  0  0  0
   32.0710   28.3040   46.3340 C   0  0  0  0  0  0  0  0  0  0  0  0
   31.0370   28.3830   45.4170 C   0  0  0  0  0  0  0  0  0  0  0  0
   30.7430   29.5550   44.8540 N   0  0  0  0  0  0  0  0  0  0  0  0
   31.4600   30.6310   45.1930 C   0  0  0  0  0  0  0  0  0  0  0  0
   32.4660   30.5500   46.0840 N   0  0  0  0  0  0  0  0  0  0  0  0
   32.3140   27.3520   46.7940 H   0  0  0  0  0  0  0  0  0  0  0  0
   30.4820   27.4780   45.1740 H   0  0  0  0  0  0  0  0  0  0  0  0
   31.2590   31.9770   44.6630 C   0  0  0  0  0  0  0  0  0  0  0  0
   32.3160   32.6590   44.0630 C   0  0  0  0  0  0  0  0  0  0  0  0
   33.3250   32.3370   43.9150 H   0  0  0  0  0  0  0  0  0  0  0  0
   31.8570   33.9160   43.6470 C   0  0  0  0  0  0  0  0  0  0  0  0
   32.4640   34.6600   43.1480 H   0  0  0  0  0  0  0  0  0  0  0  0
   30.5420   33.9420   44.0130 N   0  0  0  0  0  0  0  0  0  0  0  0
   29.9310   34.7650   43.8290 H   0  0  0  0  0  0  0  0  0  0  0  0
   30.1910   32.8250   44.6000 N   0  0  0  0  0  0  0  0  0  0  0  0
  2  7  1  0  0  0  0
  2  1  1  0  0  0  0
  3  2  2  0  0  0  0
  4  5  2  0  0  0  0
  4  3  1  0  0  0  0
  5  6  1  0  0  0  0
  6  9  1  0  0  0  0
  6  7  2  0  0  0  0
  7 10  1  0  0  0  0
  8  4  1  0  0  0  0
 11 17  1  0  0  0  0
 12 18  1  0  0  0  0
 12 11  2  0  0  0  0
 13 14  2  0  0  0  0
 13 12  1  0  0  0  0
 14 15  1  0  0  0  0
 15  3  1  0  0  0  0
 15 16  2  0  0  0  0
 16 11  1  0  0  0  0
 19 13  1  0  0  0  0
 20  5  1  0  0  0  0
 21 20  1  0  0  0  0
 21 26  1  0  0  0  0
 22 21  2  0  0  0  0
 23 24  2  0  0  0  0
 23 22  1  0  0  0  0
 24 25  1  0  0  0  0
 25 20  2  0  0  0  0
 27 22  1  0  0  0  0
 28 24  1  0  0  0  0
 29 28  1  0  0  0  0
 30 29  1  0  0  0  0
 31 33  1  0  0  0  0
 31 29  2  0  0  0  0
 32 31  1  0  0  0  0
 33 35  1  0  0  0  0
 34 33  1  0  0  0  0
 35 28  2  0  0  0  0
M  END
>  <minimizedAffinity>
-6.56291294

>  <minimizedRMSD>
0.295070887

$$$$
