
 OpenBabel03272507373D

 18 19  0  0  0  0  0  0  0  0999 V2000
   38.1000   23.5180   34.2000 C   0  0  0  0  0  0  0  0  0  0  0  0
   38.1650   24.3110   35.3420 C   0  0  0  0  0  0  0  0  0  0  0  0
   37.8170   25.6420   35.1910 C   0  0  0  0  0  0  0  0  0  0  0  0
   37.4380   26.1060   33.9710 N   0  0  0  0  0  0  0  0  0  0  0  0
   37.3820   25.3160   32.8760 C   0  0  0  0  0  0  0  0  0  0  0  0
   37.7170   24.0170   32.9950 N   0  0  0  0  0  0  0  0  0  0  0  0
   37.8420   26.3320   36.0430 H   0  0  0  0  0  0  0  0  0  0  0  0
   37.0800   25.6870   31.9070 H   0  0  0  0  0  0  0  0  0  0  0  0
   38.5770   23.7830   36.6370 C   0  0  0  0  0  0  0  0  0  0  0  0
   37.9970   24.1280   37.8390 C   0  0  0  0  0  0  0  0  0  0  0  0
   37.1890   24.8100   37.9980 H   0  0  0  0  0  0  0  0  0  0  0  0
   38.6800   23.4070   38.8010 C   0  0  0  0  0  0  0  0  0  0  0  0
   38.5230   23.4040   39.8740 H   0  0  0  0  0  0  0  0  0  0  0  0
   39.6300   22.6600   38.2110 N   0  0  0  0  0  0  0  0  0  0  0  0
   40.2960   22.0160   38.7080 H   0  0  0  0  0  0  0  0  0  0  0  0
   39.5560   22.8960   36.9090 N   0  0  0  0  0  0  0  0  0  0  0  0
   38.4590   22.2030   34.4170 O   0  0  0  0  0  0  0  0  0  0  0  0
   38.4810   21.5710   33.6450 H   0  0  0  0  0  0  0  0  0  0  0  0
  1 17  1  0  0  0  0
  1  2  1  0  0  0  0
  2  9  1  0  0  0  0
  3  2  2  0  0  0  0
  3  7  1  0  0  0  0
  4  3  1  0  0  0  0
  5  6  1  0  0  0  0
  5  4  2  0  0  0  0
  6  1  2  0  0  0  0
  8  5  1  0  0  0  0
  9 16  2  0  0  0  0
  9 10  1  0  0  0  0
 10 11  1  0  0  0  0
 10 12  2  0  0  0  0
 12 13  1  0  0  0  0
 14 15  1  0  0  0  0
 14 12  1  0  0  0  0
 16 14  1  0  0  0  0
 18 17  1  0  0  0  0
M  END
>  <minimizedAffinity>
-4.02145815

$$$$

 OpenBabel03272507373D

 18 19  0  0  0  0  0  0  0  0999 V2000
   37.9790   25.7850   35.5140 C   0  0  0  0  0  0  0  0  0  0  0  0
   38.3720   24.4570   35.3750 C   0  0  0  0  0  0  0  0  0  0  0  0
   38.1470   23.8720   34.1400 C   0  0  0  0  0  0  0  0  0  0  0  0
   37.5720   24.5960   33.1450 N   0  0  0  0  0  0  0  0  0  0  0  0
   37.1990   25.8860   33.3040 C   0  0  0  0  0  0  0  0  0  0  0  0
   37.4040   26.4780   34.4950 N   0  0  0  0  0  0  0  0  0  0  0  0
   38.4290   22.8290   33.9510 H   0  0  0  0  0  0  0  0  0  0  0  0
   36.7410   26.4600   32.5110 H   0  0  0  0  0  0  0  0  0  0  0  0
   38.9870   23.7060   36.4630 C   0  0  0  0  0  0  0  0  0  0  0  0
   40.2320   23.1200   36.3980 C   0  0  0  0  0  0  0  0  0  0  0  0
   40.9100   23.1250   35.5710 H   0  0  0  0  0  0  0  0  0  0  0  0
   40.4250   22.5190   37.6290 C   0  0  0  0  0  0  0  0  0  0  0  0
   41.2840   21.9540   37.9710 H   0  0  0  0  0  0  0  0  0  0  0  0
   39.3470   22.7310   38.4030 N   0  0  0  0  0  0  0  0  0  0  0  0
   39.2260   22.3850   39.3890 H   0  0  0  0  0  0  0  0  0  0  0  0
   38.4890   23.4470   37.6900 N   0  0  0  0  0  0  0  0  0  0  0  0
   38.2280   26.3080   36.7660 O   0  0  0  0  0  0  0  0  0  0  0  0
   37.9430   27.2430   36.9680 H   0  0  0  0  0  0  0  0  0  0  0  0
  1 17  1  0  0  0  0
  2  1  1  0  0  0  0
  2  9  1  0  0  0  0
  3  2  2  0  0  0  0
  4  5  2  0  0  0  0
  4  3  1  0  0  0  0
  5  6  1  0  0  0  0
  6  1  2  0  0  0  0
  7  3  1  0  0  0  0
  8  5  1  0  0  0  0
  9 16  2  0  0  0  0
 10  9  1  0  0  0  0
 10 12  2  0  0  0  0
 11 10  1  0  0  0  0
 12 13  1  0  0  0  0
 12 14  1  0  0  0  0
 14 15  1  0  0  0  0
 16 14  1  0  0  0  0
 17 18  1  0  0  0  0
M  END
>  <minimizedAffinity>
-4.00233507

$$$$

 OpenBabel03272507373D

 18 19  0  0  0  0  0  0  0  0999 V2000
   38.4020   23.4310   34.0710 C   0  0  0  0  0  0  0  0  0  0  0  0
   37.9890   22.6190   35.1230 C   0  0  0  0  0  0  0  0  0  0  0  0
   37.0810   21.6210   34.8150 C   0  0  0  0  0  0  0  0  0  0  0  0
   36.6440   21.4780   33.5360 N   0  0  0  0  0  0  0  0  0  0  0  0
   37.0610   22.2790   32.5300 C   0  0  0  0  0  0  0  0  0  0  0  0
   37.9430   23.2580   32.8030 N   0  0  0  0  0  0  0  0  0  0  0  0
   36.7070   20.9400   35.5890 H   0  0  0  0  0  0  0  0  0  0  0  0
   36.7120   22.1630   31.5140 H   0  0  0  0  0  0  0  0  0  0  0  0
   38.4760   22.7990   36.4860 C   0  0  0  0  0  0  0  0  0  0  0  0
   37.7740   23.4390   37.4850 C   0  0  0  0  0  0  0  0  0  0  0  0
   36.8040   23.8840   37.4150 H   0  0  0  0  0  0  0  0  0  0  0  0
   38.5870   23.3860   38.6020 C   0  0  0  0  0  0  0  0  0  0  0  0
   38.3920   23.7810   39.5930 H   0  0  0  0  0  0  0  0  0  0  0  0
   39.7290   22.7450   38.2950 N   0  0  0  0  0  0  0  0  0  0  0  0
   40.5250   22.5640   38.9580 H   0  0  0  0  0  0  0  0  0  0  0  0
   39.6480   22.3970   37.0190 N   0  0  0  0  0  0  0  0  0  0  0  0
   39.3060   24.4050   34.4440 O   0  0  0  0  0  0  0  0  0  0  0  0
   39.6260   25.0580   33.7610 H   0  0  0  0  0  0  0  0  0  0  0  0
  1 17  1  0  0  0  0
  1  2  1  0  0  0  0
  2  9  1  0  0  0  0
  3  2  2  0  0  0  0
  3  7  1  0  0  0  0
  4  3  1  0  0  0  0
  5  6  1  0  0  0  0
  5  4  2  0  0  0  0
  6  1  2  0  0  0  0
  8  5  1  0  0  0  0
  9 16  2  0  0  0  0
  9 10  1  0  0  0  0
 10 12  2  0  0  0  0
 11 10  1  0  0  0  0
 12 13  1  0  0  0  0
 14 12  1  0  0  0  0
 14 15  1  0  0  0  0
 16 14  1  0  0  0  0
 18 17  1  0  0  0  0
M  END
>  <minimizedAffinity>
-3.68545651

$$$$

 OpenBabel03272507373D

 18 19  0  0  0  0  0  0  0  0999 V2000
   35.8560   20.9610   33.5280 C   0  0  0  0  0  0  0  0  0  0  0  0
   36.9790   21.7820   33.4920 C   0  0  0  0  0  0  0  0  0  0  0  0
   37.2610   22.3920   32.2810 C   0  0  0  0  0  0  0  0  0  0  0  0
   36.4530   22.1720   31.2110 N   0  0  0  0  0  0  0  0  0  0  0  0
   35.3670   21.3690   31.2710 C   0  0  0  0  0  0  0  0  0  0  0  0
   35.0710   20.7620   32.4360 N   0  0  0  0  0  0  0  0  0  0  0  0
   38.1280   23.0540   32.1720 H   0  0  0  0  0  0  0  0  0  0  0  0
   34.7260   21.1960   30.4180 H   0  0  0  0  0  0  0  0  0  0  0  0
   37.8270   21.9980   34.6590 C   0  0  0  0  0  0  0  0  0  0  0  0
   39.1960   22.1460   34.6090 C   0  0  0  0  0  0  0  0  0  0  0  0
   39.8210   22.1250   33.7420 H   0  0  0  0  0  0  0  0  0  0  0  0
   39.5970   22.3280   35.9200 C   0  0  0  0  0  0  0  0  0  0  0  0
   40.6020   22.4790   36.2990 H   0  0  0  0  0  0  0  0  0  0  0  0
   38.5220   22.2910   36.7260 N   0  0  0  0  0  0  0  0  0  0  0  0
   38.5390   22.4020   37.7720 H   0  0  0  0  0  0  0  0  0  0  0  0
   37.4630   22.0920   35.9550 N   0  0  0  0  0  0  0  0  0  0  0  0
   35.6310   20.3830   34.7610 O   0  0  0  0  0  0  0  0  0  0  0  0
   34.8700   19.7470   34.8680 H   0  0  0  0  0  0  0  0  0  0  0  0
  1 17  1  0  0  0  0
  2  1  1  0  0  0  0
  2  9  1  0  0  0  0
  3  2  2  0  0  0  0
  4  5  2  0  0  0  0
  4  3  1  0  0  0  0
  5  6  1  0  0  0  0
  6  1  2  0  0  0  0
  7  3  1  0  0  0  0
  8  5  1  0  0  0  0
  9 16  2  0  0  0  0
 10  9  1  0  0  0  0
 10 12  2  0  0  0  0
 11 10  1  0  0  0  0
 12 13  1  0  0  0  0
 12 14  1  0  0  0  0
 14 15  1  0  0  0  0
 16 14  1  0  0  0  0
 17 18  1  0  0  0  0
M  END
>  <minimizedAffinity>
-3.64510131

$$$$

 OpenBabel03272507373D

 18 19  0  0  0  0  0  0  0  0999 V2000
   36.4190   28.6490   30.4870 C   0  0  0  0  0  0  0  0  0  0  0  0
   36.0550   27.8780   31.5870 C   0  0  0  0  0  0  0  0  0  0  0  0
   35.7640   28.5640   32.7540 C   0  0  0  0  0  0  0  0  0  0  0  0
   35.8420   29.9200   32.7760 N   0  0  0  0  0  0  0  0  0  0  0  0
   36.1970   30.6480   31.6930 C   0  0  0  0  0  0  0  0  0  0  0  0
   36.4870   30.0050   30.5460 N   0  0  0  0  0  0  0  0  0  0  0  0
   35.4700   28.0280   33.6650 H   0  0  0  0  0  0  0  0  0  0  0  0
   36.2580   31.7270   31.7130 H   0  0  0  0  0  0  0  0  0  0  0  0
   35.9820   26.4230   31.5320 C   0  0  0  0  0  0  0  0  0  0  0  0
   36.8140   25.5740   32.2300 C   0  0  0  0  0  0  0  0  0  0  0  0
   37.6100   25.8430   32.8910 H   0  0  0  0  0  0  0  0  0  0  0  0
   36.4060   24.2960   31.8950 C   0  0  0  0  0  0  0  0  0  0  0  0
   36.8130   23.3510   32.2380 H   0  0  0  0  0  0  0  0  0  0  0  0
   35.3750   24.3660   31.0350 N   0  0  0  0  0  0  0  0  0  0  0  0
   34.8700   23.5430   30.6180 H   0  0  0  0  0  0  0  0  0  0  0  0
   35.1300   25.6510   30.8250 N   0  0  0  0  0  0  0  0  0  0  0  0
   36.6960   27.9060   29.3570 O   0  0  0  0  0  0  0  0  0  0  0  0
   37.0040   28.3730   28.5310 H   0  0  0  0  0  0  0  0  0  0  0  0
  1  6  2  0  0  0  0
  1  2  1  0  0  0  0
  2  3  2  0  0  0  0
  3  4  1  0  0  0  0
  3  7  1  0  0  0  0
  5  8  1  0  0  0  0
  5  4  2  0  0  0  0
  6  5  1  0  0  0  0
  9  2  1  0  0  0  0
  9 10  1  0  0  0  0
 10 11  1  0  0  0  0
 12 10  2  0  0  0  0
 12 13  1  0  0  0  0
 14 12  1  0  0  0  0
 15 14  1  0  0  0  0
 16 14  1  0  0  0  0
 16  9  2  0  0  0  0
 17  1  1  0  0  0  0
 18 17  1  0  0  0  0
M  END
>  <minimizedAffinity>
-3.6106956

$$$$

 OpenBabel03272507373D

 18 19  0  0  0  0  0  0  0  0999 V2000
   39.3210   23.3620   36.3690 C   0  0  0  0  0  0  0  0  0  0  0  0
   40.6670   23.1620   36.0770 C   0  0  0  0  0  0  0  0  0  0  0  0
   41.2760   24.1190   35.2830 C   0  0  0  0  0  0  0  0  0  0  0  0
   40.5580   25.1820   34.8360 N   0  0  0  0  0  0  0  0  0  0  0  0
   39.2510   25.3550   35.1350 C   0  0  0  0  0  0  0  0  0  0  0  0
   38.6330   24.4390   35.9030 N   0  0  0  0  0  0  0  0  0  0  0  0
   42.3350   24.0320   35.0080 H   0  0  0  0  0  0  0  0  0  0  0  0
   38.6810   26.2020   34.7780 H   0  0  0  0  0  0  0  0  0  0  0  0
   41.4100   22.0090   36.5710 C   0  0  0  0  0  0  0  0  0  0  0  0
   42.3040   21.2780   35.8180 C   0  0  0  0  0  0  0  0  0  0  0  0
   42.5760   21.4380   34.7970 H   0  0  0  0  0  0  0  0  0  0  0  0
   42.7780   20.2890   36.6610 C   0  0  0  0  0  0  0  0  0  0  0  0
   43.4980   19.5100   36.4420 H   0  0  0  0  0  0  0  0  0  0  0  0
   42.1980   20.4140   37.8680 N   0  0  0  0  0  0  0  0  0  0  0  0
   42.3770   19.7940   38.6980 H   0  0  0  0  0  0  0  0  0  0  0  0
   41.3780   21.4530   37.8000 N   0  0  0  0  0  0  0  0  0  0  0  0
   38.7730   22.3740   37.1630 O   0  0  0  0  0  0  0  0  0  0  0  0
   37.8020   22.4160   37.3890 H   0  0  0  0  0  0  0  0  0  0  0  0
  1 17  1  0  0  0  0
  2  1  1  0  0  0  0
  2  9  1  0  0  0  0
  3  2  2  0  0  0  0
  4  5  2  0  0  0  0
  4  3  1  0  0  0  0
  5  6  1  0  0  0  0
  6  1  2  0  0  0  0
  7  3  1  0  0  0  0
  8  5  1  0  0  0  0
  9 16  2  0  0  0  0
 10  9  1  0  0  0  0
 10 12  2  0  0  0  0
 11 10  1  0  0  0  0
 12 14  1  0  0  0  0
 13 12  1  0  0  0  0
 14 15  1  0  0  0  0
 16 14  1  0  0  0  0
 17 18  1  0  0  0  0
M  END
>  <minimizedAffinity>
-3.58604455

$$$$

 OpenBabel03272507373D

 18 19  0  0  0  0  0  0  0  0999 V2000
   39.9610   23.9880   35.6550 C   0  0  0  0  0  0  0  0  0  0  0  0
   38.7990   24.6120   36.0990 C   0  0  0  0  0  0  0  0  0  0  0  0
   38.3010   24.1950   37.3210 C   0  0  0  0  0  0  0  0  0  0  0  0
   38.9480   23.2250   38.0180 N   0  0  0  0  0  0  0  0  0  0  0  0
   40.0770   22.6330   37.5660 C   0  0  0  0  0  0  0  0  0  0  0  0
   40.5820   23.0190   36.3790 N   0  0  0  0  0  0  0  0  0  0  0  0
   37.3890   24.6390   37.7390 H   0  0  0  0  0  0  0  0  0  0  0  0
   40.5900   21.8610   38.1220 H   0  0  0  0  0  0  0  0  0  0  0  0
   38.1270   25.6520   35.3270 C   0  0  0  0  0  0  0  0  0  0  0  0
   37.9690   26.9540   35.7480 C   0  0  0  0  0  0  0  0  0  0  0  0
   38.3010   27.3840   36.6690 H   0  0  0  0  0  0  0  0  0  0  0  0
   37.2880   27.5940   34.7280 C   0  0  0  0  0  0  0  0  0  0  0  0
   36.9720   28.6300   34.6800 H   0  0  0  0  0  0  0  0  0  0  0  0
   37.0440   26.7200   33.7360 N   0  0  0  0  0  0  0  0  0  0  0  0
   36.5410   26.9390   32.8390 H   0  0  0  0  0  0  0  0  0  0  0  0
   37.5550   25.5550   34.1090 N   0  0  0  0  0  0  0  0  0  0  0  0
   40.4050   24.4480   34.4310 O   0  0  0  0  0  0  0  0  0  0  0  0
   41.2100   24.0280   34.0170 H   0  0  0  0  0  0  0  0  0  0  0  0
  1  2  2  0  0  0  0
  1  6  1  0  0  0  0
  2  3  1  0  0  0  0
  3  7  1  0  0  0  0
  3  4  2  0  0  0  0
  5  4  1  0  0  0  0
  5  8  1  0  0  0  0
  6  5  2  0  0  0  0
  9 10  1  0  0  0  0
  9  2  1  0  0  0  0
 10 11  1  0  0  0  0
 12 10  2  0  0  0  0
 13 12  1  0  0  0  0
 14 16  1  0  0  0  0
 14 12  1  0  0  0  0
 15 14  1  0  0  0  0
 16  9  2  0  0  0  0
 17  1  1  0  0  0  0
 18 17  1  0  0  0  0
M  END
>  <minimizedAffinity>
-3.56046581

$$$$

 OpenBabel03272507373D

 18 19  0  0  0  0  0  0  0  0999 V2000
   35.2010   32.2390   36.2530 C   0  0  0  0  0  0  0  0  0  0  0  0
   34.2730   31.5640   35.4660 C   0  0  0  0  0  0  0  0  0  0  0  0
   34.4450   31.6510   34.0950 C   0  0  0  0  0  0  0  0  0  0  0  0
   35.4820   32.3690   33.5900 N   0  0  0  0  0  0  0  0  0  0  0  0
   36.3720   33.0160   34.3750 C   0  0  0  0  0  0  0  0  0  0  0  0
   36.2260   32.9500   35.7120 N   0  0  0  0  0  0  0  0  0  0  0  0
   33.7550   31.1470   33.4070 H   0  0  0  0  0  0  0  0  0  0  0  0
   37.1950   33.5870   33.9710 H   0  0  0  0  0  0  0  0  0  0  0  0
   33.1700   30.8020   36.0400 C   0  0  0  0  0  0  0  0  0  0  0  0
   32.7120   29.6010   35.5420 C   0  0  0  0  0  0  0  0  0  0  0  0
   33.0810   29.0670   34.6930 H   0  0  0  0  0  0  0  0  0  0  0  0
   31.6710   29.2280   36.3730 C   0  0  0  0  0  0  0  0  0  0  0  0
   31.0500   28.3410   36.3120 H   0  0  0  0  0  0  0  0  0  0  0  0
   31.5050   30.1590   37.3280 N   0  0  0  0  0  0  0  0  0  0  0  0
   30.7830   30.1280   38.0920 H   0  0  0  0  0  0  0  0  0  0  0  0
   32.4130   31.1000   37.1160 N   0  0  0  0  0  0  0  0  0  0  0  0
   34.9740   32.1140   37.6090 O   0  0  0  0  0  0  0  0  0  0  0  0
   35.5670   32.5980   38.2480 H   0  0  0  0  0  0  0  0  0  0  0  0
  1 17  1  0  0  0  0
  2  9  1  0  0  0  0
  2  1  2  0  0  0  0
  3  2  1  0  0  0  0
  4  3  2  0  0  0  0
  4  5  1  0  0  0  0
  5  6  2  0  0  0  0
  6  1  1  0  0  0  0
  7  3  1  0  0  0  0
  8  5  1  0  0  0  0
  9 16  2  0  0  0  0
 10  9  1  0  0  0  0
 10 12  2  0  0  0  0
 11 10  1  0  0  0  0
 12 14  1  0  0  0  0
 13 12  1  0  0  0  0
 14 15  1  0  0  0  0
 16 14  1  0  0  0  0
 17 18  1  0  0  0  0
M  END
>  <minimizedAffinity>
-3.5601759

$$$$

 OpenBabel03272507373D

 18 19  0  0  0  0  0  0  0  0999 V2000
   38.7160   23.8750   36.7030 C   0  0  0  0  0  0  0  0  0  0  0  0
   38.9800   24.7010   35.6150 C   0  0  0  0  0  0  0  0  0  0  0  0
   39.8830   24.2240   34.6800 C   0  0  0  0  0  0  0  0  0  0  0  0
   40.4560   23.0050   34.8580 N   0  0  0  0  0  0  0  0  0  0  0  0
   40.1830   22.2190   35.9240 C   0  0  0  0  0  0  0  0  0  0  0  0
   39.3100   22.6610   36.8490 N   0  0  0  0  0  0  0  0  0  0  0  0
   40.1440   24.8160   33.7950 H   0  0  0  0  0  0  0  0  0  0  0  0
   40.6400   21.2500   36.0640 H   0  0  0  0  0  0  0  0  0  0  0  0
   38.3490   26.0060   35.4530 C   0  0  0  0  0  0  0  0  0  0  0  0
   37.3830   26.2920   34.5120 C   0  0  0  0  0  0  0  0  0  0  0  0
   36.9680   25.6280   33.7850 H   0  0  0  0  0  0  0  0  0  0  0  0
   37.0630   27.6240   34.7030 C   0  0  0  0  0  0  0  0  0  0  0  0
   36.3430   28.2250   34.1570 H   0  0  0  0  0  0  0  0  0  0  0  0
   37.7990   28.1220   35.7110 N   0  0  0  0  0  0  0  0  0  0  0  0
   37.7580   29.1100   36.0670 H   0  0  0  0  0  0  0  0  0  0  0  0
   38.5690   27.1380   36.1540 N   0  0  0  0  0  0  0  0  0  0  0  0
   37.8100   24.4090   37.5970 O   0  0  0  0  0  0  0  0  0  0  0  0
   37.5910   23.9020   38.4280 H   0  0  0  0  0  0  0  0  0  0  0  0
  1  6  1  0  0  0  0
  1 17  1  0  0  0  0
  2  1  2  0  0  0  0
  3  4  2  0  0  0  0
  3  2  1  0  0  0  0
  4  5  1  0  0  0  0
  5  8  1  0  0  0  0
  5  6  2  0  0  0  0
  7  3  1  0  0  0  0
  9  2  1  0  0  0  0
  9 16  2  0  0  0  0
 10 12  2  0  0  0  0
 10  9  1  0  0  0  0
 11 10  1  0  0  0  0
 12 14  1  0  0  0  0
 13 12  1  0  0  0  0
 14 15  1  0  0  0  0
 14 16  1  0  0  0  0
 17 18  1  0  0  0  0
M  END
>  <minimizedAffinity>
-3.53777313

$$$$
