
 OpenBabel03272500473D

 31 34  0  0  1  0  0  0  0  0999 V2000
   36.0330   29.2770   34.2870 C   0  0  0  0  0  0  0  0  0  0  0  0
   36.0160   28.8160   32.9650 C   0  0  0  0  0  0  0  0  0  0  0  0
   36.6170   27.5550   32.9520 C   0  0  0  0  0  0  0  0  0  0  0  0
   36.9780   27.2860   34.2310 N   0  0  0  0  0  0  0  0  0  0  0  0
   36.6220   28.3050   34.9690 N   0  0  0  0  0  0  0  0  0  0  0  0
   35.6050   29.3530   32.1130 H   0  0  0  0  0  0  0  0  0  0  0  0
   36.7360   26.9670   32.0500 H   0  0  0  0  0  0  0  0  0  0  0  0
   35.9830   31.2770   35.7900 C   0  0  0  0  0  0  0  0  0  0  0  0
   35.4970   30.5450   34.6820 C   0  0  0  0  0  0  0  0  0  0  0  0
   34.4520   31.1180   33.9720 C   0  0  0  0  0  0  0  0  0  0  0  0
   33.9530   32.3230   34.3590 N   0  0  0  0  0  0  0  0  0  0  0  0
   34.4510   32.9830   35.4250 C   0  0  0  0  0  0  0  0  0  0  0  0
   35.4790   32.4560   36.1510 N   0  0  0  0  0  0  0  0  0  0  0  0
   36.8000   30.8550   36.3660 H   0  0  0  0  0  0  0  0  0  0  0  0
   34.0770   30.5600   33.1230 H   0  0  0  0  0  0  0  0  0  0  0  0
   33.9370   33.9290   35.5930 H   0  0  0  0  0  0  0  0  0  0  0  0
   37.6330   26.0820   34.6680 C   0  0  1  0  0  0  0  0  0  0  0  0
   39.1510   26.1390   34.9210 C   0  0  0  0  0  0  0  0  0  0  0  0
   38.1930   25.9990   36.0410 C   0  0  2  0  0  0  0  0  0  0  0  0
   37.2900   25.1400   34.1820 H   0  0  0  0  0  0  0  0  0  0  0  0
   39.6330   27.1070   34.7180 H   0  0  0  0  0  0  0  0  0  0  0  0
   39.7700   25.2810   34.5790 H   0  0  0  0  0  0  0  0  0  0  0  0
   38.0520   26.9380   36.6330 H   0  0  0  0  0  0  0  0  0  0  0  0
   38.0500   24.7220   36.7840 C   0  0  0  0  0  0  0  0  0  0  0  0
   38.0030   24.5680   38.1550 C   0  0  0  0  0  0  0  0  0  0  0  0
   38.0630   25.3620   38.9020 H   0  0  0  0  0  0  0  0  0  0  0  0
   37.8640   23.2130   38.3510 C   0  0  0  0  0  0  0  0  0  0  0  0
   37.7910   22.7050   39.3090 H   0  0  0  0  0  0  0  0  0  0  0  0
   37.8280   22.5680   37.1490 N   0  0  0  0  0  0  0  0  0  0  0  0
   37.7290   21.5200   36.9950 H   0  0  0  0  0  0  0  0  0  0  0  0
   37.9440   23.5120   36.2050 N   0  0  0  0  0  0  0  0  0  0  0  0
  1  9  1  0  0  0  0
  1  5  2  0  0  0  0
  2  1  1  0  0  0  0
  3  2  2  0  0  0  0
  3  4  1  0  0  0  0
  4 17  1  0  0  0  0
  4  5  1  0  0  0  0
  6  2  1  0  0  0  0
  7  3  1  0  0  0  0
  8 13  1  0  0  0  0
  8 14  1  0  0  0  0
  9  8  2  0  0  0  0
 10 11  2  0  0  0  0
 10  9  1  0  0  0  0
 11 12  1  0  0  0  0
 12 16  1  0  0  0  0
 12 13  2  0  0  0  0
 15 10  1  0  0  0  0
 17 20  1  6  0  0  0
 17 18  1  0  0  0  0
 17 19  1  0  0  0  0
 18 19  1  0  0  0  0
 19 23  1  1  0  0  0
 19 24  1  0  0  0  0
 21 18  1  0  0  0  0
 22 18  1  0  0  0  0
 24 25  1  0  0  0  0
 25 27  2  0  0  0  0
 25 26  1  0  0  0  0
 27 28  1  0  0  0  0
 29 27  1  0  0  0  0
 30 29  1  0  0  0  0
 31 24  2  0  0  0  0
 31 29  1  0  0  0  0
M  END
>  <minimizedAffinity>
-5.16760969

$$$$

 OpenBabel03272500473D

 31 34  0  0  1  0  0  0  0  0999 V2000
   37.0960   27.4740   34.3050 C   0  0  0  0  0  0  0  0  0  0  0  0
   37.7540   27.8380   35.4870 C   0  0  0  0  0  0  0  0  0  0  0  0
   38.4600   26.7180   35.9340 C   0  0  0  0  0  0  0  0  0  0  0  0
   38.2210   25.7280   35.0410 N   0  0  0  0  0  0  0  0  0  0  0  0
   37.4300   26.2060   34.1160 N   0  0  0  0  0  0  0  0  0  0  0  0
   37.7140   28.8170   35.9570 H   0  0  0  0  0  0  0  0  0  0  0  0
   39.0620   26.7210   36.8350 H   0  0  0  0  0  0  0  0  0  0  0  0
   36.3480   28.5120   32.1540 C   0  0  0  0  0  0  0  0  0  0  0  0
   36.2700   28.3760   33.5600 C   0  0  0  0  0  0  0  0  0  0  0  0
   35.3370   29.1720   34.2070 C   0  0  0  0  0  0  0  0  0  0  0  0
   34.5600   30.0240   33.4860 N   0  0  0  0  0  0  0  0  0  0  0  0
   34.6710   30.1180   32.1450 C   0  0  0  0  0  0  0  0  0  0  0  0
   35.5760   29.3530   31.4680 N   0  0  0  0  0  0  0  0  0  0  0  0
   37.0680   27.9030   31.6190 H   0  0  0  0  0  0  0  0  0  0  0  0
   35.2740   29.0710   35.2840 H   0  0  0  0  0  0  0  0  0  0  0  0
   33.9760   30.8470   31.7290 H   0  0  0  0  0  0  0  0  0  0  0  0
   38.7590   24.3950   35.1220 C   0  0  1  0  0  0  0  0  0  0  0  0
   39.6960   23.9260   33.9940 C   0  0  0  0  0  0  0  0  0  0  0  0
   40.2110   24.1940   35.3560 C   0  0  2  0  0  0  0  0  0  0  0  0
   38.0540   23.6100   35.4810 H   0  0  0  0  0  0  0  0  0  0  0  0
   39.8660   24.6490   33.1820 H   0  0  0  0  0  0  0  0  0  0  0  0
   39.5790   22.8880   33.6140 H   0  0  0  0  0  0  0  0  0  0  0  0
   40.7820   25.1530   35.4410 H   0  0  0  0  0  0  0  0  0  0  0  0
   40.6340   23.0910   36.2560 C   0  0  0  0  0  0  0  0  0  0  0  0
   41.8000   22.3600   36.1690 C   0  0  0  0  0  0  0  0  0  0  0  0
   42.5910   22.4800   35.4250 H   0  0  0  0  0  0  0  0  0  0  0  0
   41.7330   21.4670   37.2150 C   0  0  0  0  0  0  0  0  0  0  0  0
   42.4790   20.7200   37.4720 H   0  0  0  0  0  0  0  0  0  0  0  0
   40.5730   21.6490   37.9100 N   0  0  0  0  0  0  0  0  0  0  0  0
   40.2550   21.1010   38.7650 H   0  0  0  0  0  0  0  0  0  0  0  0
   39.9170   22.6480   37.3040 N   0  0  0  0  0  0  0  0  0  0  0  0
  1  2  1  0  0  0  0
  2  3  2  0  0  0  0
  2  6  1  0  0  0  0
  3  7  1  0  0  0  0
  4 17  1  0  0  0  0
  4  3  1  0  0  0  0
  5  1  2  0  0  0  0
  5  4  1  0  0  0  0
  8  9  1  0  0  0  0
  9 10  2  0  0  0  0
  9  1  1  0  0  0  0
 10 15  1  0  0  0  0
 11 10  1  0  0  0  0
 12 11  2  0  0  0  0
 13 12  1  0  0  0  0
 13  8  2  0  0  0  0
 14  8  1  0  0  0  0
 16 12  1  0  0  0  0
 17 19  1  0  0  0  0
 17 20  1  1  0  0  0
 18 17  1  0  0  0  0
 18 19  1  0  0  0  0
 19 23  1  1  0  0  0
 19 24  1  0  0  0  0
 21 18  1  0  0  0  0
 22 18  1  0  0  0  0
 24 31  2  0  0  0  0
 25 24  1  0  0  0  0
 25 27  2  0  0  0  0
 26 25  1  0  0  0  0
 27 28  1  0  0  0  0
 27 29  1  0  0  0  0
 29 30  1  0  0  0  0
 31 29  1  0  0  0  0
M  END
>  <minimizedAffinity>
-5.08028316

$$$$

 OpenBabel03272500473D

 31 34  0  0  1  0  0  0  0  0999 V2000
   36.7400   26.3320   32.0350 C   0  0  0  0  0  0  0  0  0  0  0  0
   36.3490   25.1930   31.3210 C   0  0  0  0  0  0  0  0  0  0  0  0
   36.8280   24.0790   32.0140 C   0  0  0  0  0  0  0  0  0  0  0  0
   37.4820   24.5530   33.1030 N   0  0  0  0  0  0  0  0  0  0  0  0
   37.4070   25.8580   33.0770 N   0  0  0  0  0  0  0  0  0  0  0  0
   35.7760   25.1910   30.3960 H   0  0  0  0  0  0  0  0  0  0  0  0
   36.6660   23.0610   31.6810 H   0  0  0  0  0  0  0  0  0  0  0  0
   35.5660   28.5200   32.3490 C   0  0  0  0  0  0  0  0  0  0  0  0
   36.4230   27.6650   31.6170 C   0  0  0  0  0  0  0  0  0  0  0  0
   36.9590   28.1810   30.4460 C   0  0  0  0  0  0  0  0  0  0  0  0
   36.6490   29.4480   30.0620 N   0  0  0  0  0  0  0  0  0  0  0  0
   35.8250   30.2260   30.7950 C   0  0  0  0  0  0  0  0  0  0  0  0
   35.2760   29.7580   31.9540 N   0  0  0  0  0  0  0  0  0  0  0  0
   35.1320   28.1460   33.2690 H   0  0  0  0  0  0  0  0  0  0  0  0
   37.6160   27.5290   29.8830 H   0  0  0  0  0  0  0  0  0  0  0  0
   35.6850   31.2080   30.3440 H   0  0  0  0  0  0  0  0  0  0  0  0
   38.1320   23.7380   34.0950 C   0  0  1  0  0  0  0  0  0  0  0  0
   39.6700   23.6560   34.0650 C   0  0  0  0  0  0  0  0  0  0  0  0
   38.9620   24.3750   35.1490 C   0  0  2  0  0  0  0  0  0  0  0  0
   37.6310   22.7720   34.3320 H   0  0  0  0  0  0  0  0  0  0  0  0
   40.1620   24.2150   33.2550 H   0  0  0  0  0  0  0  0  0  0  0  0
   40.1430   22.6660   34.2410 H   0  0  0  0  0  0  0  0  0  0  0  0
   39.0130   25.4890   35.0580 H   0  0  0  0  0  0  0  0  0  0  0  0
   38.8940   23.8260   36.5270 C   0  0  0  0  0  0  0  0  0  0  0  0
   37.9610   24.1440   37.4930 C   0  0  0  0  0  0  0  0  0  0  0  0
   37.1320   24.8470   37.3920 H   0  0  0  0  0  0  0  0  0  0  0  0
   38.3150   23.3840   38.5850 C   0  0  0  0  0  0  0  0  0  0  0  0
   37.8100   23.3640   39.5470 H   0  0  0  0  0  0  0  0  0  0  0  0
   39.4180   22.6340   38.2950 N   0  0  0  0  0  0  0  0  0  0  0  0
   39.9120   21.9560   38.9480 H   0  0  0  0  0  0  0  0  0  0  0  0
   39.7540   22.9230   37.0300 N   0  0  0  0  0  0  0  0  0  0  0  0
  1  5  2  0  0  0  0
  2  3  2  0  0  0  0
  2  1  1  0  0  0  0
  3  4  1  0  0  0  0
  4 17  1  0  0  0  0
  5  4  1  0  0  0  0
  6  2  1  0  0  0  0
  7  3  1  0  0  0  0
  8 14  1  0  0  0  0
  9  1  1  0  0  0  0
  9  8  2  0  0  0  0
 10  9  1  0  0  0  0
 11 10  2  0  0  0  0
 11 12  1  0  0  0  0
 12 13  2  0  0  0  0
 13  8  1  0  0  0  0
 15 10  1  0  0  0  0
 16 12  1  0  0  0  0
 17 20  1  1  0  0  0
 17 19  1  0  0  0  0
 18 17  1  0  0  0  0
 18 22  1  0  0  0  0
 18 19  1  0  0  0  0
 19 23  1  6  0  0  0
 19 24  1  0  0  0  0
 21 18  1  0  0  0  0
 24 31  2  0  0  0  0
 24 25  1  0  0  0  0
 25 27  2  0  0  0  0
 26 25  1  0  0  0  0
 27 28  1  0  0  0  0
 29 27  1  0  0  0  0
 29 30  1  0  0  0  0
 31 29  1  0  0  0  0
M  END
>  <minimizedAffinity>
-5.05757713

$$$$

 OpenBabel03272500473D

 31 34  0  0  1  0  0  0  0  0999 V2000
   36.2470   28.5250   32.6930 C   0  0  0  0  0  0  0  0  0  0  0  0
   37.1920   28.2470   31.6960 C   0  0  0  0  0  0  0  0  0  0  0  0
   38.1360   27.3760   32.2450 C   0  0  0  0  0  0  0  0  0  0  0  0
   37.7560   27.1510   33.5260 N   0  0  0  0  0  0  0  0  0  0  0  0
   36.6610   27.8330   33.7440 N   0  0  0  0  0  0  0  0  0  0  0  0
   37.1780   28.6450   30.6840 H   0  0  0  0  0  0  0  0  0  0  0  0
   38.9840   26.9970   31.6870 H   0  0  0  0  0  0  0  0  0  0  0  0
   34.0010   29.4140   33.3480 C   0  0  0  0  0  0  0  0  0  0  0  0
   35.1240   29.3890   32.4880 C   0  0  0  0  0  0  0  0  0  0  0  0
   35.0940   30.2600   31.4080 C   0  0  0  0  0  0  0  0  0  0  0  0
   34.0210   31.0740   31.2260 N   0  0  0  0  0  0  0  0  0  0  0  0
   32.9730   31.0610   32.0760 C   0  0  0  0  0  0  0  0  0  0  0  0
   32.9610   30.2200   33.1510 N   0  0  0  0  0  0  0  0  0  0  0  0
   33.9950   28.7440   34.2020 H   0  0  0  0  0  0  0  0  0  0  0  0
   35.9520   30.2440   30.7470 H   0  0  0  0  0  0  0  0  0  0  0  0
   32.2020   31.7740   31.7820 H   0  0  0  0  0  0  0  0  0  0  0  0
   38.4540   26.3060   34.4580 C   0  0  1  0  0  0  0  0  0  0  0  0
   39.2330   26.9820   35.6020 C   0  0  0  0  0  0  0  0  0  0  0  0
   37.9930   26.2160   35.8670 C   0  0  2  0  0  0  0  0  0  0  0  0
   38.9730   25.4240   34.0170 H   0  0  0  0  0  0  0  0  0  0  0  0
   39.2180   28.0820   35.6040 H   0  0  0  0  0  0  0  0  0  0  0  0
   40.2320   26.5740   35.8660 H   0  0  0  0  0  0  0  0  0  0  0  0
   37.1040   26.8590   36.0830 H   0  0  0  0  0  0  0  0  0  0  0  0
   38.0290   24.8910   36.5370 C   0  0  0  0  0  0  0  0  0  0  0  0
   37.9700   24.6540   37.8950 C   0  0  0  0  0  0  0  0  0  0  0  0
   37.8890   25.4050   38.6840 H   0  0  0  0  0  0  0  0  0  0  0  0
   38.0370   23.2850   38.0150 C   0  0  0  0  0  0  0  0  0  0  0  0
   38.0170   22.7180   38.9420 H   0  0  0  0  0  0  0  0  0  0  0  0
   38.1310   22.7110   36.7800 N   0  0  0  0  0  0  0  0  0  0  0  0
   38.1980   21.6710   36.5690 H   0  0  0  0  0  0  0  0  0  0  0  0
   38.1250   23.7150   35.8920 N   0  0  0  0  0  0  0  0  0  0  0  0
  1  5  2  0  0  0  0
  2  3  2  0  0  0  0
  2  1  1  0  0  0  0
  3  4  1  0  0  0  0
  4  5  1  0  0  0  0
  4 17  1  0  0  0  0
  6  2  1  0  0  0  0
  7  3  1  0  0  0  0
  8 14  1  0  0  0  0
  9  1  1  0  0  0  0
  9  8  2  0  0  0  0
 10  9  1  0  0  0  0
 11 10  2  0  0  0  0
 11 12  1  0  0  0  0
 12 13  2  0  0  0  0
 13  8  1  0  0  0  0
 15 10  1  0  0  0  0
 16 12  1  0  0  0  0
 17 20  1  6  0  0  0
 17 18  1  0  0  0  0
 17 19  1  0  0  0  0
 18 21  1  0  0  0  0
 18 22  1  0  0  0  0
 18 19  1  0  0  0  0
 19 23  1  1  0  0  0
 19 24  1  0  0  0  0
 24 25  1  0  0  0  0
 25 27  2  0  0  0  0
 25 26  1  0  0  0  0
 27 28  1  0  0  0  0
 29 27  1  0  0  0  0
 30 29  1  0  0  0  0
 31 24  2  0  0  0  0
 31 29  1  0  0  0  0
M  END
>  <minimizedAffinity>
-4.93923426

$$$$

 OpenBabel03272500473D

 31 34  0  0  1  0  0  0  0  0999 V2000
   39.7100   23.3040   36.3880 C   0  0  0  0  0  0  0  0  0  0  0  0
   38.7590   23.3340   37.4170 C   0  0  0  0  0  0  0  0  0  0  0  0
   37.8870   24.3920   37.1510 C   0  0  0  0  0  0  0  0  0  0  0  0
   38.3150   24.9670   36.0000 N   0  0  0  0  0  0  0  0  0  0  0  0
   39.3690   24.3070   35.5930 N   0  0  0  0  0  0  0  0  0  0  0  0
   38.7200   22.6510   38.2620 H   0  0  0  0  0  0  0  0  0  0  0  0
   37.0510   24.6430   37.7920 H   0  0  0  0  0  0  0  0  0  0  0  0
   41.4000   21.9610   35.1230 C   0  0  0  0  0  0  0  0  0  0  0  0
   40.7700   22.3440   36.3300 C   0  0  0  0  0  0  0  0  0  0  0  0
   41.2320   21.7340   37.4880 C   0  0  0  0  0  0  0  0  0  0  0  0
   42.2390   20.8230   37.4170 N   0  0  0  0  0  0  0  0  0  0  0  0
   42.8080   20.4920   36.2400 C   0  0  0  0  0  0  0  0  0  0  0  0
   42.3850   21.0670   35.0770 N   0  0  0  0  0  0  0  0  0  0  0  0
   41.0610   22.4200   34.2000 H   0  0  0  0  0  0  0  0  0  0  0  0
   40.7510   22.0240   38.4150 H   0  0  0  0  0  0  0  0  0  0  0  0
   43.5970   19.7490   36.3640 H   0  0  0  0  0  0  0  0  0  0  0  0
   37.6980   26.0990   35.3630 C   0  0  1  0  0  0  0  0  0  0  0  0
   38.2390   27.5000   35.7010 C   0  0  0  0  0  0  0  0  0  0  0  0
   38.4590   26.8960   34.3670 C   0  0  2  0  0  0  0  0  0  0  0  0
   36.5890   26.0530   35.2640 H   0  0  0  0  0  0  0  0  0  0  0  0
   39.0540   27.5320   36.4400 H   0  0  0  0  0  0  0  0  0  0  0  0
   37.5050   28.3220   35.8490 H   0  0  0  0  0  0  0  0  0  0  0  0
   39.5020   26.5240   34.2080 H   0  0  0  0  0  0  0  0  0  0  0  0
   37.7430   27.3900   33.1640 C   0  0  0  0  0  0  0  0  0  0  0  0
   38.2720   27.5500   31.9000 C   0  0  0  0  0  0  0  0  0  0  0  0
   39.2970   27.3380   31.5910 H   0  0  0  0  0  0  0  0  0  0  0  0
   37.2270   28.0280   31.1410 C   0  0  0  0  0  0  0  0  0  0  0  0
   37.2600   28.2760   30.0840 H   0  0  0  0  0  0  0  0  0  0  0  0
   36.1080   28.1520   31.9120 N   0  0  0  0  0  0  0  0  0  0  0  0
   35.1540   28.4980   31.5920 H   0  0  0  0  0  0  0  0  0  0  0  0
   36.4490   27.7570   33.1460 N   0  0  0  0  0  0  0  0  0  0  0  0
  1  2  1  0  0  0  0
  2  6  1  0  0  0  0
  3  2  2  0  0  0  0
  3  7  1  0  0  0  0
  4  3  1  0  0  0  0
  5  4  1  0  0  0  0
  5  1  2  0  0  0  0
  8  9  1  0  0  0  0
  9  1  1  0  0  0  0
  9 10  2  0  0  0  0
 10 15  1  0  0  0  0
 11 10  1  0  0  0  0
 12 16  1  0  0  0  0
 12 11  2  0  0  0  0
 13  8  2  0  0  0  0
 13 12  1  0  0  0  0
 14  8  1  0  0  0  0
 17 20  1  6  0  0  0
 17 18  1  0  0  0  0
 17  4  1  0  0  0  0
 18 22  1  0  0  0  0
 18 21  1  0  0  0  0
 19 23  1  6  0  0  0
 19 17  1  0  0  0  0
 19 18  1  0  0  0  0
 24 19  1  0  0  0  0
 25 24  1  0  0  0  0
 26 25  1  0  0  0  0
 27 25  2  0  0  0  0
 27 29  1  0  0  0  0
 28 27  1  0  0  0  0
 29 31  1  0  0  0  0
 30 29  1  0  0  0  0
 31 24  2  0  0  0  0
M  END
>  <minimizedAffinity>
-4.83567905

$$$$

 OpenBabel03272500473D

 31 34  0  0  1  0  0  0  0  0999 V2000
   38.2090   25.6170   35.0880 C   0  0  0  0  0  0  0  0  0  0  0  0
   37.6200   26.8140   35.5150 C   0  0  0  0  0  0  0  0  0  0  0  0
   37.2140   27.5110   34.3740 C   0  0  0  0  0  0  0  0  0  0  0  0
   37.5580   26.7450   33.3100 N   0  0  0  0  0  0  0  0  0  0  0  0
   38.1290   25.6610   33.7660 N   0  0  0  0  0  0  0  0  0  0  0  0
   37.5050   27.1280   36.5490 H   0  0  0  0  0  0  0  0  0  0  0  0
   36.7240   28.4760   34.4160 H   0  0  0  0  0  0  0  0  0  0  0  0
   38.1480   24.3310   37.2340 C   0  0  0  0  0  0  0  0  0  0  0  0
   38.7450   24.6430   35.9900 C   0  0  0  0  0  0  0  0  0  0  0  0
   39.9040   23.9490   35.6700 C   0  0  0  0  0  0  0  0  0  0  0  0
   40.4010   23.0280   36.5370 N   0  0  0  0  0  0  0  0  0  0  0  0
   39.7950   22.7650   37.7130 C   0  0  0  0  0  0  0  0  0  0  0  0
   38.6540   23.4240   38.0680 N   0  0  0  0  0  0  0  0  0  0  0  0
   37.2420   24.8570   37.5140 H   0  0  0  0  0  0  0  0  0  0  0  0
   40.3640   24.1850   34.7180 H   0  0  0  0  0  0  0  0  0  0  0  0
   40.3250   22.0030   38.2830 H   0  0  0  0  0  0  0  0  0  0  0  0
   37.3220   27.0910   31.9330 C   0  0  1  0  0  0  0  0  0  0  0  0
   35.9450   26.7540   31.3310 C   0  0  0  0  0  0  0  0  0  0  0  0
   36.3440   28.1560   31.5930 C   0  0  2  0  0  0  0  0  0  0  0  0
   38.1750   26.9180   31.2380 H   0  0  0  0  0  0  0  0  0  0  0  0
   35.2430   26.2390   32.0040 H   0  0  0  0  0  0  0  0  0  0  0  0
   35.9130   26.3450   30.2980 H   0  0  0  0  0  0  0  0  0  0  0  0
   35.8490   28.6040   32.4910 H   0  0  0  0  0  0  0  0  0  0  0  0
   36.6740   29.0880   30.4850 C   0  0  0  0  0  0  0  0  0  0  0  0
   37.4840   28.8220   29.4000 C   0  0  0  0  0  0  0  0  0  0  0  0
   38.0060   27.8860   29.1900 H   0  0  0  0  0  0  0  0  0  0  0  0
   37.4780   29.9860   28.6650 C   0  0  0  0  0  0  0  0  0  0  0  0
   38.0060   30.1610   27.7320 H   0  0  0  0  0  0  0  0  0  0  0  0
   36.6950   30.9210   29.2770 N   0  0  0  0  0  0  0  0  0  0  0  0
   36.5070   31.9110   28.9360 H   0  0  0  0  0  0  0  0  0  0  0  0
   36.2150   30.3480   30.3900 N   0  0  0  0  0  0  0  0  0  0  0  0
  1  2  1  0  0  0  0
  1  9  1  0  0  0  0
  2  6  1  0  0  0  0
  3  7  1  0  0  0  0
  3  2  2  0  0  0  0
  4  5  1  0  0  0  0
  4  3  1  0  0  0  0
  5  1  2  0  0  0  0
  8 14  1  0  0  0  0
  8 13  1  0  0  0  0
  9  8  2  0  0  0  0
 10  9  1  0  0  0  0
 10 11  2  0  0  0  0
 11 12  1  0  0  0  0
 12 13  2  0  0  0  0
 12 16  1  0  0  0  0
 15 10  1  0  0  0  0
 17 20  1  6  0  0  0
 17  4  1  0  0  0  0
 18 19  1  0  0  0  0
 18 17  1  0  0  0  0
 18 21  1  0  0  0  0
 19 17  1  0  0  0  0
 19 23  1  1  0  0  0
 22 18  1  0  0  0  0
 24 19  1  0  0  0  0
 25 24  1  0  0  0  0
 26 25  1  0  0  0  0
 27 29  1  0  0  0  0
 27 25  2  0  0  0  0
 28 27  1  0  0  0  0
 29 31  1  0  0  0  0
 30 29  1  0  0  0  0
 31 24  2  0  0  0  0
M  END
>  <minimizedAffinity>
-4.75214767

$$$$

 OpenBabel03272500473D

 31 34  0  0  1  0  0  0  0  0999 V2000
   38.8480   27.0110   31.7610 C   0  0  0  0  0  0  0  0  0  0  0  0
   40.0430   27.1510   32.4780 C   0  0  0  0  0  0  0  0  0  0  0  0
   39.9570   26.3240   33.6010 C   0  0  0  0  0  0  0  0  0  0  0  0
   38.7450   25.7190   33.5440 N   0  0  0  0  0  0  0  0  0  0  0  0
   38.1380   26.1440   32.4660 N   0  0  0  0  0  0  0  0  0  0  0  0
   40.8780   27.7890   32.1990 H   0  0  0  0  0  0  0  0  0  0  0  0
   40.7510   26.2380   34.3330 H   0  0  0  0  0  0  0  0  0  0  0  0
   37.5590   28.6880   30.4230 C   0  0  0  0  0  0  0  0  0  0  0  0
   38.5790   27.7150   30.5440 C   0  0  0  0  0  0  0  0  0  0  0  0
   39.3290   27.4620   29.4040 C   0  0  0  0  0  0  0  0  0  0  0  0
   39.0620   28.1380   28.2550 N   0  0  0  0  0  0  0  0  0  0  0  0
   38.0770   29.0580   28.1900 C   0  0  0  0  0  0  0  0  0  0  0  0
   37.3150   29.3380   29.2870 N   0  0  0  0  0  0  0  0  0  0  0  0
   36.9550   28.9090   31.2970 H   0  0  0  0  0  0  0  0  0  0  0  0
   40.1110   26.7170   29.4920 H   0  0  0  0  0  0  0  0  0  0  0  0
   38.0000   29.5010   27.1970 H   0  0  0  0  0  0  0  0  0  0  0  0
   38.2450   24.7800   34.5120 C   0  0  1  0  0  0  0  0  0  0  0  0
   38.2750   23.2840   34.1480 C   0  0  0  0  0  0  0  0  0  0  0  0
   39.1770   23.8380   35.1830 C   0  0  2  0  0  0  0  0  0  0  0  0
   37.3280   25.0940   35.0620 H   0  0  0  0  0  0  0  0  0  0  0  0
   38.6590   23.0440   33.1450 H   0  0  0  0  0  0  0  0  0  0  0  0
   37.3940   22.6620   34.4210 H   0  0  0  0  0  0  0  0  0  0  0  0
   40.2370   23.9490   34.8440 H   0  0  0  0  0  0  0  0  0  0  0  0
   38.9710   23.5510   36.6250 C   0  0  0  0  0  0  0  0  0  0  0  0
   37.9710   24.0560   37.4300 C   0  0  0  0  0  0  0  0  0  0  0  0
   37.1780   24.7450   37.1300 H   0  0  0  0  0  0  0  0  0  0  0  0
   38.2030   23.5010   38.6680 C   0  0  0  0  0  0  0  0  0  0  0  0
   37.6170   23.6650   39.5680 H   0  0  0  0  0  0  0  0  0  0  0  0
   39.3000   22.6910   38.6190 N   0  0  0  0  0  0  0  0  0  0  0  0
   39.7130   22.1340   39.4250 H   0  0  0  0  0  0  0  0  0  0  0  0
   39.7530   22.7380   37.3580 N   0  0  0  0  0  0  0  0  0  0  0  0
  1  5  2  0  0  0  0
  1  2  1  0  0  0  0
  2  3  2  0  0  0  0
  3  7  1  0  0  0  0
  4  3  1  0  0  0  0
  4 17  1  0  0  0  0
  5  4  1  0  0  0  0
  6  2  1  0  0  0  0
  8  9  1  0  0  0  0
  8 14  1  0  0  0  0
  9  1  1  0  0  0  0
 10 15  1  0  0  0  0
 10  9  2  0  0  0  0
 11 10  1  0  0  0  0
 12 11  2  0  0  0  0
 12 13  1  0  0  0  0
 13  8  2  0  0  0  0
 16 12  1  0  0  0  0
 17 20  1  1  0  0  0
 17 19  1  0  0  0  0
 18 22  1  0  0  0  0
 18 17  1  0  0  0  0
 18 19  1  0  0  0  0
 19 23  1  6  0  0  0
 19 24  1  0  0  0  0
 21 18  1  0  0  0  0
 24 31  2  0  0  0  0
 24 25  1  0  0  0  0
 25 27  2  0  0  0  0
 26 25  1  0  0  0  0
 27 28  1  0  0  0  0
 29 27  1  0  0  0  0
 29 30  1  0  0  0  0
 31 29  1  0  0  0  0
M  END
>  <minimizedAffinity>
-4.73656559

$$$$

 OpenBabel03272500473D

 31 34  0  0  1  0  0  0  0  0999 V2000
   38.5280   24.1880   34.5510 C   0  0  0  0  0  0  0  0  0  0  0  0
   39.2710   23.4990   33.5840 C   0  0  0  0  0  0  0  0  0  0  0  0
   38.9280   24.0280   32.3380 C   0  0  0  0  0  0  0  0  0  0  0  0
   38.0090   24.9970   32.5680 N   0  0  0  0  0  0  0  0  0  0  0  0
   37.8080   25.0580   33.8590 N   0  0  0  0  0  0  0  0  0  0  0  0
   39.9830   22.7010   33.7830 H   0  0  0  0  0  0  0  0  0  0  0  0
   39.3590   23.6750   31.4080 H   0  0  0  0  0  0  0  0  0  0  0  0
   37.7200   24.4420   36.9060 C   0  0  0  0  0  0  0  0  0  0  0  0
   38.6210   23.9120   35.9530 C   0  0  0  0  0  0  0  0  0  0  0  0
   39.6280   23.0920   36.4440 C   0  0  0  0  0  0  0  0  0  0  0  0
   39.7040   22.8390   37.7770 N   0  0  0  0  0  0  0  0  0  0  0  0
   38.8190   23.3690   38.6480 C   0  0  0  0  0  0  0  0  0  0  0  0
   37.8140   24.1810   38.2090 N   0  0  0  0  0  0  0  0  0  0  0  0
   36.9230   25.0870   36.5540 H   0  0  0  0  0  0  0  0  0  0  0  0
   40.3200   22.6840   35.7170 H   0  0  0  0  0  0  0  0  0  0  0  0
   39.0260   23.0640   39.6740 H   0  0  0  0  0  0  0  0  0  0  0  0
   37.3850   25.8020   31.5510 C   0  0  1  0  0  0  0  0  0  0  0  0
   35.9430   25.4540   31.1410 C   0  0  0  0  0  0  0  0  0  0  0  0
   36.2460   26.6870   31.9020 C   0  0  2  0  0  0  0  0  0  0  0  0
   38.0400   26.0990   30.7000 H   0  0  0  0  0  0  0  0  0  0  0  0
   35.5000   24.5820   31.6450 H   0  0  0  0  0  0  0  0  0  0  0  0
   35.6840   25.4910   30.0600 H   0  0  0  0  0  0  0  0  0  0  0  0
   35.9590   26.6310   32.9820 H   0  0  0  0  0  0  0  0  0  0  0  0
   36.1730   28.0280   31.2680 C   0  0  0  0  0  0  0  0  0  0  0  0
   35.6400   29.1730   31.8230 C   0  0  0  0  0  0  0  0  0  0  0  0
   35.1900   29.2680   32.8130 H   0  0  0  0  0  0  0  0  0  0  0  0
   35.8060   30.1410   30.8580 C   0  0  0  0  0  0  0  0  0  0  0  0
   35.5070   31.1820   30.9330 H   0  0  0  0  0  0  0  0  0  0  0  0
   36.4160   29.6060   29.7600 N   0  0  0  0  0  0  0  0  0  0  0  0
   36.6690   30.1190   28.8640 H   0  0  0  0  0  0  0  0  0  0  0  0
   36.6300   28.3120   30.0350 N   0  0  0  0  0  0  0  0  0  0  0  0
  1  9  1  0  0  0  0
  2  6  1  0  0  0  0
  2  1  1  0  0  0  0
  3  4  1  0  0  0  0
  3  2  2  0  0  0  0
  4  5  1  0  0  0  0
  5  1  2  0  0  0  0
  7  3  1  0  0  0  0
  8 13  1  0  0  0  0
  9 10  1  0  0  0  0
  9  8  2  0  0  0  0
 10 11  2  0  0  0  0
 11 12  1  0  0  0  0
 12 16  1  0  0  0  0
 13 12  2  0  0  0  0
 14  8  1  0  0  0  0
 15 10  1  0  0  0  0
 17 20  1  6  0  0  0
 17 19  1  0  0  0  0
 17  4  1  0  0  0  0
 18 17  1  0  0  0  0
 18 21  1  0  0  0  0
 18 19  1  0  0  0  0
 19 23  1  1  0  0  0
 22 18  1  0  0  0  0
 24 25  1  0  0  0  0
 24 19  1  0  0  0  0
 25 26  1  0  0  0  0
 27 28  1  0  0  0  0
 27 25  2  0  0  0  0
 29 31  1  0  0  0  0
 29 27  1  0  0  0  0
 30 29  1  0  0  0  0
 31 24  2  0  0  0  0
M  END
>  <minimizedAffinity>
-4.7358284

$$$$

 OpenBabel03272500473D

 31 34  0  0  1  0  0  0  0  0999 V2000
   37.6750   25.8530   34.6810 C   0  0  0  0  0  0  0  0  0  0  0  0
   37.4810   25.5900   33.3190 C   0  0  0  0  0  0  0  0  0  0  0  0
   36.8980   26.7260   32.7520 C   0  0  0  0  0  0  0  0  0  0  0  0
   36.7540   27.6280   33.7530 N   0  0  0  0  0  0  0  0  0  0  0  0
   37.2150   27.0840   34.8500 N   0  0  0  0  0  0  0  0  0  0  0  0
   37.7420   24.6660   32.8100 H   0  0  0  0  0  0  0  0  0  0  0  0
   36.6400   26.7960   31.7020 H   0  0  0  0  0  0  0  0  0  0  0  0
   39.4870   24.2570   35.3390 C   0  0  0  0  0  0  0  0  0  0  0  0
   38.2550   24.9070   35.5860 C   0  0  0  0  0  0  0  0  0  0  0  0
   37.6120   24.5830   36.7720 C   0  0  0  0  0  0  0  0  0  0  0  0
   38.1750   23.6830   37.6210 N   0  0  0  0  0  0  0  0  0  0  0  0
   39.3530   23.0890   37.3410 C   0  0  0  0  0  0  0  0  0  0  0  0
   40.0190   23.3780   36.1860 N   0  0  0  0  0  0  0  0  0  0  0  0
   40.0140   24.4890   34.4200 H   0  0  0  0  0  0  0  0  0  0  0  0
   36.6680   25.0790   36.9650 H   0  0  0  0  0  0  0  0  0  0  0  0
   39.6570   22.3970   38.1260 H   0  0  0  0  0  0  0  0  0  0  0  0
   36.1900   28.9440   33.6050 C   0  0  1  0  0  0  0  0  0  0  0  0
   34.7370   29.0540   33.1090 C   0  0  0  0  0  0  0  0  0  0  0  0
   35.0960   29.3880   34.5060 C   0  0  2  0  0  0  0  0  0  0  0  0
   36.8720   29.7180   33.1850 H   0  0  0  0  0  0  0  0  0  0  0  0
   34.2390   28.1010   32.8740 H   0  0  0  0  0  0  0  0  0  0  0  0
   34.4960   29.8470   32.3680 H   0  0  0  0  0  0  0  0  0  0  0  0
   34.7910   28.6070   35.2480 H   0  0  0  0  0  0  0  0  0  0  0  0
   35.1070   30.7910   34.9900 C   0  0  0  0  0  0  0  0  0  0  0  0
   36.0450   31.3670   35.8210 C   0  0  0  0  0  0  0  0  0  0  0  0
   36.9220   30.8790   36.2510 H   0  0  0  0  0  0  0  0  0  0  0  0
   35.6240   32.6690   35.9760 C   0  0  0  0  0  0  0  0  0  0  0  0
   36.1130   33.4380   36.5680 H   0  0  0  0  0  0  0  0  0  0  0  0
   34.4770   32.8760   35.2670 N   0  0  0  0  0  0  0  0  0  0  0  0
   33.9280   33.7850   35.2030 H   0  0  0  0  0  0  0  0  0  0  0  0
   34.1800   31.7120   34.6720 N   0  0  0  0  0  0  0  0  0  0  0  0
  1  5  2  0  0  0  0
  1  9  1  0  0  0  0
  2  1  1  0  0  0  0
  3  2  2  0  0  0  0
  3  4  1  0  0  0  0
  4  5  1  0  0  0  0
  6  2  1  0  0  0  0
  7  3  1  0  0  0  0
  8  9  2  0  0  0  0
  8 13  1  0  0  0  0
  9 10  1  0  0  0  0
 10 15  1  0  0  0  0
 10 11  2  0  0  0  0
 12 11  1  0  0  0  0
 12 16  1  0  0  0  0
 13 12  2  0  0  0  0
 14  8  1  0  0  0  0
 17 20  1  6  0  0  0
 17  4  1  0  0  0  0
 17 19  1  0  0  0  0
 18 17  1  0  0  0  0
 18 19  1  0  0  0  0
 19 24  1  0  0  0  0
 19 23  1  1  0  0  0
 21 18  1  0  0  0  0
 22 18  1  0  0  0  0
 24 25  1  0  0  0  0
 25 27  2  0  0  0  0
 25 26  1  0  0  0  0
 27 28  1  0  0  0  0
 29 27  1  0  0  0  0
 30 29  1  0  0  0  0
 31 24  2  0  0  0  0
 31 29  1  0  0  0  0
M  END
>  <minimizedAffinity>
-4.71307898

$$$$
