
 OpenBabel03272507113D

 26 28  0  0  0  0  0  0  0  0999 V2000
   38.0470   26.3530   34.1050 C   0  0  0  0  0  0  0  0  0  0  0  0
   38.1670   27.3770   35.0090 C   0  0  0  0  0  0  0  0  0  0  0  0
   38.3660   26.7820   36.2640 C   0  0  0  0  0  0  0  0  0  0  0  0
   38.3540   25.4070   36.0340 C   0  0  0  0  0  0  0  0  0  0  0  0
   38.1620   25.2140   34.7420 O   0  0  0  0  0  0  0  0  0  0  0  0
   38.1350   28.4590   34.9080 H   0  0  0  0  0  0  0  0  0  0  0  0
   38.5050   27.2480   37.2270 H   0  0  0  0  0  0  0  0  0  0  0  0
   38.5310   24.4220   37.0990 C   0  0  0  0  0  0  0  0  0  0  0  0
   37.9260   24.3830   38.3420 C   0  0  0  0  0  0  0  0  0  0  0  0
   37.1990   25.1150   38.7220 H   0  0  0  0  0  0  0  0  0  0  0  0
   38.3870   23.2880   39.0050 C   0  0  0  0  0  0  0  0  0  0  0  0
   38.1530   22.9220   39.9910 H   0  0  0  0  0  0  0  0  0  0  0  0
   39.2660   22.6490   38.1920 N   0  0  0  0  0  0  0  0  0  0  0  0
   39.8500   21.7670   38.3100 H   0  0  0  0  0  0  0  0  0  0  0  0
   39.3370   23.3400   37.0630 N   0  0  0  0  0  0  0  0  0  0  0  0
   37.8320   26.6110   32.7010 C   0  0  0  0  0  0  0  0  0  0  0  0
   38.4090   27.5920   32.1630 O   0  0  0  0  0  0  0  0  0  0  0  0
   36.9480   25.7140   31.9730 C   0  0  0  0  0  0  0  0  0  0  0  0
   35.7290   26.2420   31.5470 C   0  0  0  0  0  0  0  0  0  0  0  0
   34.8740   25.3900   30.8470 C   0  0  0  0  0  0  0  0  0  0  0  0
   35.2740   24.1040   30.6200 N   0  0  0  0  0  0  0  0  0  0  0  0
   36.4600   23.6350   31.0490 C   0  0  0  0  0  0  0  0  0  0  0  0
   37.2850   24.4440   31.7200 N   0  0  0  0  0  0  0  0  0  0  0  0
   35.3790   27.2560   31.7080 H   0  0  0  0  0  0  0  0  0  0  0  0
   33.9100   25.7130   30.4790 H   0  0  0  0  0  0  0  0  0  0  0  0
   36.7470   22.6120   30.8540 H   0  0  0  0  0  0  0  0  0  0  0  0
  1  5  1  0  0  0  0
  1  2  2  0  0  0  0
  2  3  1  0  0  0  0
  3  7  1  0  0  0  0
  4  3  2  0  0  0  0
  4  8  1  0  0  0  0
  5  4  1  0  0  0  0
  6  2  1  0  0  0  0
  8  9  1  0  0  0  0
  9 10  1  0  0  0  0
  9 11  2  0  0  0  0
 11 12  1  0  0  0  0
 13 14  1  0  0  0  0
 13 11  1  0  0  0  0
 15  8  2  0  0  0  0
 15 13  1  0  0  0  0
 16  1  1  0  0  0  0
 17 16  2  0  0  0  0
 18 16  1  0  0  0  0
 19 24  1  0  0  0  0
 19 18  2  0  0  0  0
 20 19  1  0  0  0  0
 21 20  2  0  0  0  0
 21 22  1  0  0  0  0
 22 23  2  0  0  0  0
 23 18  1  0  0  0  0
 25 20  1  0  0  0  0
 26 22  1  0  0  0  0
M  END
>  <minimizedAffinity>
-5.07641411

$$$$

 OpenBabel03272507113D

 26 28  0  0  0  0  0  0  0  0999 V2000
   37.5860   23.6360   32.9400 C   0  0  0  0  0  0  0  0  0  0  0  0
   37.8870   24.9580   33.1430 C   0  0  0  0  0  0  0  0  0  0  0  0
   38.3020   25.0740   34.4790 C   0  0  0  0  0  0  0  0  0  0  0  0
   38.2230   23.7870   35.0090 C   0  0  0  0  0  0  0  0  0  0  0  0
   37.7960   22.9810   34.0560 O   0  0  0  0  0  0  0  0  0  0  0  0
   37.8560   25.8310   32.4950 H   0  0  0  0  0  0  0  0  0  0  0  0
   38.6210   25.9510   35.0220 H   0  0  0  0  0  0  0  0  0  0  0  0
   38.5750   23.4760   36.3930 C   0  0  0  0  0  0  0  0  0  0  0  0
   37.9870   23.9440   37.5550 C   0  0  0  0  0  0  0  0  0  0  0  0
   37.1410   24.6430   37.6050 H   0  0  0  0  0  0  0  0  0  0  0  0
   38.6380   23.3900   38.6130 C   0  0  0  0  0  0  0  0  0  0  0  0
   38.4730   23.5100   39.6720 H   0  0  0  0  0  0  0  0  0  0  0  0
   39.6180   22.5870   38.1260 N   0  0  0  0  0  0  0  0  0  0  0  0
   40.3500   21.9750   38.5950 H   0  0  0  0  0  0  0  0  0  0  0  0
   39.5630   22.6530   36.8020 N   0  0  0  0  0  0  0  0  0  0  0  0
   37.1230   23.1590   31.6600 C   0  0  0  0  0  0  0  0  0  0  0  0
   37.2460   23.8990   30.6480 O   0  0  0  0  0  0  0  0  0  0  0  0
   36.5280   21.8330   31.6020 C   0  0  0  0  0  0  0  0  0  0  0  0
   35.2570   21.6880   32.1580 C   0  0  0  0  0  0  0  0  0  0  0  0
   34.6780   20.4200   32.1080 C   0  0  0  0  0  0  0  0  0  0  0  0
   35.3790   19.4040   31.5250 N   0  0  0  0  0  0  0  0  0  0  0  0
   36.6050   19.5860   31.0000 C   0  0  0  0  0  0  0  0  0  0  0  0
   37.1660   20.7970   31.0440 N   0  0  0  0  0  0  0  0  0  0  0  0
   34.6710   22.4720   32.6290 H   0  0  0  0  0  0  0  0  0  0  0  0
   33.6960   20.2170   32.5140 H   0  0  0  0  0  0  0  0  0  0  0  0
   37.1330   18.7600   30.5460 H   0  0  0  0  0  0  0  0  0  0  0  0
  1  2  2  0  0  0  0
  1  5  1  0  0  0  0
  2  3  1  0  0  0  0
  3  4  2  0  0  0  0
  3  7  1  0  0  0  0
  4  8  1  0  0  0  0
  5  4  1  0  0  0  0
  6  2  1  0  0  0  0
  8 15  2  0  0  0  0
  8  9  1  0  0  0  0
  9 10  1  0  0  0  0
  9 11  2  0  0  0  0
 11 12  1  0  0  0  0
 13 14  1  0  0  0  0
 13 11  1  0  0  0  0
 15 13  1  0  0  0  0
 16  1  1  0  0  0  0
 17 16  2  0  0  0  0
 18 16  1  0  0  0  0
 18 19  1  0  0  0  0
 19 24  1  0  0  0  0
 20 19  2  0  0  0  0
 20 25  1  0  0  0  0
 21 20  1  0  0  0  0
 22 23  1  0  0  0  0
 22 21  2  0  0  0  0
 23 18  2  0  0  0  0
 26 22  1  0  0  0  0
M  END
>  <minimizedAffinity>
-5.03128576

$$$$

 OpenBabel03272507113D

 26 28  0  0  0  0  0  0  0  0999 V2000
   37.9290   25.4320   35.5120 C   0  0  0  0  0  0  0  0  0  0  0  0
   38.1410   26.7410   35.8580 C   0  0  0  0  0  0  0  0  0  0  0  0
   37.8240   27.5100   34.7280 C   0  0  0  0  0  0  0  0  0  0  0  0
   37.4310   26.5970   33.7500 C   0  0  0  0  0  0  0  0  0  0  0  0
   37.5130   25.3870   34.2700 O   0  0  0  0  0  0  0  0  0  0  0  0
   38.4800   27.2180   36.7750 H   0  0  0  0  0  0  0  0  0  0  0  0
   37.8600   28.5810   34.5970 H   0  0  0  0  0  0  0  0  0  0  0  0
   37.0160   27.0000   32.4080 C   0  0  0  0  0  0  0  0  0  0  0  0
   37.3340   28.1580   31.7220 C   0  0  0  0  0  0  0  0  0  0  0  0
   37.9690   28.9710   32.1020 H   0  0  0  0  0  0  0  0  0  0  0  0
   36.7290   28.1100   30.5040 C   0  0  0  0  0  0  0  0  0  0  0  0
   36.7390   28.8210   29.6940 H   0  0  0  0  0  0  0  0  0  0  0  0
   36.0410   26.9420   30.4270 N   0  0  0  0  0  0  0  0  0  0  0  0
   35.4370   26.5090   29.6660 H   0  0  0  0  0  0  0  0  0  0  0  0
   36.2260   26.2960   31.5700 N   0  0  0  0  0  0  0  0  0  0  0  0
   38.1590   24.3600   36.4500 C   0  0  0  0  0  0  0  0  0  0  0  0
   37.2380   24.0320   37.2450 O   0  0  0  0  0  0  0  0  0  0  0  0
   39.4580   23.7060   36.4310 C   0  0  0  0  0  0  0  0  0  0  0  0
   39.7150   22.7870   37.4490 C   0  0  0  0  0  0  0  0  0  0  0  0
   40.9580   22.1540   37.4400 C   0  0  0  0  0  0  0  0  0  0  0  0
   41.8430   22.4650   36.4470 N   0  0  0  0  0  0  0  0  0  0  0  0
   41.5550   23.3590   35.4830 C   0  0  0  0  0  0  0  0  0  0  0  0
   40.3670   23.9690   35.4850 N   0  0  0  0  0  0  0  0  0  0  0  0
   39.0370   22.5160   38.2520 H   0  0  0  0  0  0  0  0  0  0  0  0
   41.2430   21.4280   38.1890 H   0  0  0  0  0  0  0  0  0  0  0  0
   42.2770   23.5830   34.7120 H   0  0  0  0  0  0  0  0  0  0  0  0
  1  2  2  0  0  0  0
  1 16  1  0  0  0  0
  2  6  1  0  0  0  0
  3  2  1  0  0  0  0
  4  5  1  0  0  0  0
  4  3  2  0  0  0  0
  5  1  1  0  0  0  0
  7  3  1  0  0  0  0
  8  4  1  0  0  0  0
  9 10  1  0  0  0  0
  9  8  1  0  0  0  0
 11  9  2  0  0  0  0
 12 11  1  0  0  0  0
 13 11  1  0  0  0  0
 13 15  1  0  0  0  0
 14 13  1  0  0  0  0
 15  8  2  0  0  0  0
 16 17  2  0  0  0  0
 18 16  1  0  0  0  0
 18 19  1  0  0  0  0
 19 24  1  0  0  0  0
 20 19  2  0  0  0  0
 20 25  1  0  0  0  0
 21 20  1  0  0  0  0
 22 23  1  0  0  0  0
 22 21  2  0  0  0  0
 23 18  2  0  0  0  0
 26 22  1  0  0  0  0
M  END
>  <minimizedAffinity>
-4.97323608

$$$$

 OpenBabel03272507113D

 26 28  0  0  0  0  0  0  0  0999 V2000
   37.4130   25.3590   33.6800 C   0  0  0  0  0  0  0  0  0  0  0  0
   37.3670   26.3950   34.5760 C   0  0  0  0  0  0  0  0  0  0  0  0
   37.9740   25.9330   35.7540 C   0  0  0  0  0  0  0  0  0  0  0  0
   38.3570   24.6190   35.4890 C   0  0  0  0  0  0  0  0  0  0  0  0
   38.0000   24.3350   34.2500 O   0  0  0  0  0  0  0  0  0  0  0  0
   36.9750   27.4070   34.5160 H   0  0  0  0  0  0  0  0  0  0  0  0
   38.1330   26.4480   36.6890 H   0  0  0  0  0  0  0  0  0  0  0  0
   39.0320   23.7740   36.4720 C   0  0  0  0  0  0  0  0  0  0  0  0
   40.2630   23.1520   36.3690 C   0  0  0  0  0  0  0  0  0  0  0  0
   40.9350   23.2050   35.5010 H   0  0  0  0  0  0  0  0  0  0  0  0
   40.4920   22.4690   37.5240 C   0  0  0  0  0  0  0  0  0  0  0  0
   41.3350   21.8660   37.8190 H   0  0  0  0  0  0  0  0  0  0  0  0
   39.4230   22.6590   38.3390 N   0  0  0  0  0  0  0  0  0  0  0  0
   39.1910   22.3130   39.3170 H   0  0  0  0  0  0  0  0  0  0  0  0
   38.5660   23.4390   37.6940 N   0  0  0  0  0  0  0  0  0  0  0  0
   36.8710   25.4910   32.3490 C   0  0  0  0  0  0  0  0  0  0  0  0
   36.1100   24.5910   31.9050 O   0  0  0  0  0  0  0  0  0  0  0  0
   37.2370   26.6690   31.5790 C   0  0  0  0  0  0  0  0  0  0  0  0
   38.5800   26.7980   31.2250 C   0  0  0  0  0  0  0  0  0  0  0  0
   38.9410   27.9240   30.4860 C   0  0  0  0  0  0  0  0  0  0  0  0
   37.9720   28.8270   30.1540 N   0  0  0  0  0  0  0  0  0  0  0  0
   36.6860   28.6650   30.5160 C   0  0  0  0  0  0  0  0  0  0  0  0
   36.3320   27.5890   31.2240 N   0  0  0  0  0  0  0  0  0  0  0  0
   39.3760   26.1020   31.4710 H   0  0  0  0  0  0  0  0  0  0  0  0
   39.9600   28.1050   30.1690 H   0  0  0  0  0  0  0  0  0  0  0  0
   35.9430   29.3990   30.2380 H   0  0  0  0  0  0  0  0  0  0  0  0
  1  5  1  0  0  0  0
  1  2  2  0  0  0  0
  2  3  1  0  0  0  0
  3  7  1  0  0  0  0
  4  3  2  0  0  0  0
  4  8  1  0  0  0  0
  5  4  1  0  0  0  0
  6  2  1  0  0  0  0
  8 15  2  0  0  0  0
  9  8  1  0  0  0  0
  9 11  2  0  0  0  0
 10  9  1  0  0  0  0
 11 12  1  0  0  0  0
 11 13  1  0  0  0  0
 13 14  1  0  0  0  0
 15 13  1  0  0  0  0
 16  1  1  0  0  0  0
 17 16  2  0  0  0  0
 18 16  1  0  0  0  0
 19 24  1  0  0  0  0
 19 18  1  0  0  0  0
 20 19  2  0  0  0  0
 21 20  1  0  0  0  0
 21 22  2  0  0  0  0
 22 23  1  0  0  0  0
 23 18  2  0  0  0  0
 25 20  1  0  0  0  0
 26 22  1  0  0  0  0
M  END
>  <minimizedAffinity>
-4.84720087

$$$$

 OpenBabel03272507113D

 26 28  0  0  0  0  0  0  0  0999 V2000
   37.5650   26.5070   33.8830 C   0  0  0  0  0  0  0  0  0  0  0  0
   38.7190   27.1550   34.2420 C   0  0  0  0  0  0  0  0  0  0  0  0
   39.2410   26.4630   35.3460 C   0  0  0  0  0  0  0  0  0  0  0  0
   38.3500   25.4190   35.5890 C   0  0  0  0  0  0  0  0  0  0  0  0
   37.3820   25.4940   34.6960 O   0  0  0  0  0  0  0  0  0  0  0  0
   39.2310   28.0270   33.8420 H   0  0  0  0  0  0  0  0  0  0  0  0
   40.1360   26.6610   35.9150 H   0  0  0  0  0  0  0  0  0  0  0  0
   38.5370   24.4520   36.6700 C   0  0  0  0  0  0  0  0  0  0  0  0
   38.0280   24.4930   37.9560 C   0  0  0  0  0  0  0  0  0  0  0  0
   37.3870   25.2880   38.3640 H   0  0  0  0  0  0  0  0  0  0  0  0
   38.4570   23.3850   38.6180 C   0  0  0  0  0  0  0  0  0  0  0  0
   38.2730   23.0650   39.6310 H   0  0  0  0  0  0  0  0  0  0  0  0
   39.2230   22.6600   37.7640 N   0  0  0  0  0  0  0  0  0  0  0  0
   39.7480   21.7410   37.8670 H   0  0  0  0  0  0  0  0  0  0  0  0
   39.2570   23.3130   36.6100 N   0  0  0  0  0  0  0  0  0  0  0  0
   36.7640   26.9570   32.7720 C   0  0  0  0  0  0  0  0  0  0  0  0
   36.4100   26.1260   31.8940 O   0  0  0  0  0  0  0  0  0  0  0  0
   36.4010   28.3650   32.7200 C   0  0  0  0  0  0  0  0  0  0  0  0
   35.7450   28.8870   33.8350 C   0  0  0  0  0  0  0  0  0  0  0  0
   35.3930   30.2360   33.7960 C   0  0  0  0  0  0  0  0  0  0  0  0
   35.7080   30.9620   32.6820 N   0  0  0  0  0  0  0  0  0  0  0  0
   36.3420   30.4190   31.6270 C   0  0  0  0  0  0  0  0  0  0  0  0
   36.6830   29.1270   31.6570 N   0  0  0  0  0  0  0  0  0  0  0  0
   35.4800   28.3410   34.7350 H   0  0  0  0  0  0  0  0  0  0  0  0
   34.8820   30.7240   34.6150 H   0  0  0  0  0  0  0  0  0  0  0  0
   36.5760   31.0200   30.7610 H   0  0  0  0  0  0  0  0  0  0  0  0
  1  2  2  0  0  0  0
  1  5  1  0  0  0  0
  2  3  1  0  0  0  0
  3  4  2  0  0  0  0
  3  7  1  0  0  0  0
  4  8  1  0  0  0  0
  5  4  1  0  0  0  0
  6  2  1  0  0  0  0
  8  9  1  0  0  0  0
  9 10  1  0  0  0  0
  9 11  2  0  0  0  0
 11 12  1  0  0  0  0
 13 14  1  0  0  0  0
 13 11  1  0  0  0  0
 15  8  2  0  0  0  0
 15 13  1  0  0  0  0
 16  1  1  0  0  0  0
 17 16  2  0  0  0  0
 18 16  1  0  0  0  0
 18 19  1  0  0  0  0
 19 24  1  0  0  0  0
 20 19  2  0  0  0  0
 20 25  1  0  0  0  0
 21 20  1  0  0  0  0
 22 23  1  0  0  0  0
 22 21  2  0  0  0  0
 23 18  2  0  0  0  0
 26 22  1  0  0  0  0
M  END
>  <minimizedAffinity>
-4.82712269

$$$$

 OpenBabel03272507113D

 26 28  0  0  0  0  0  0  0  0999 V2000
   38.5010   25.4630   34.3190 C   0  0  0  0  0  0  0  0  0  0  0  0
   37.8260   25.7140   35.4860 C   0  0  0  0  0  0  0  0  0  0  0  0
   38.3540   24.8430   36.4510 C   0  0  0  0  0  0  0  0  0  0  0  0
   39.3370   24.1060   35.7920 C   0  0  0  0  0  0  0  0  0  0  0  0
   39.3790   24.5140   34.5380 O   0  0  0  0  0  0  0  0  0  0  0  0
   37.0310   26.4090   35.7440 H   0  0  0  0  0  0  0  0  0  0  0  0
   38.0890   24.7330   37.4910 H   0  0  0  0  0  0  0  0  0  0  0  0
   40.1360   23.0770   36.4560 C   0  0  0  0  0  0  0  0  0  0  0  0
   41.2980   22.4720   36.0120 C   0  0  0  0  0  0  0  0  0  0  0  0
   41.8060   22.6860   35.0610 H   0  0  0  0  0  0  0  0  0  0  0  0
   41.6960   21.5740   36.9530 C   0  0  0  0  0  0  0  0  0  0  0  0
   42.5490   20.9140   36.9680 H   0  0  0  0  0  0  0  0  0  0  0  0
   40.8000   21.6140   37.9720 N   0  0  0  0  0  0  0  0  0  0  0  0
   40.7290   21.0850   38.8920 H   0  0  0  0  0  0  0  0  0  0  0  0
   39.8800   22.5140   37.6560 N   0  0  0  0  0  0  0  0  0  0  0  0
   38.2070   26.1900   33.1080 C   0  0  0  0  0  0  0  0  0  0  0  0
   38.9350   27.1670   32.7880 O   0  0  0  0  0  0  0  0  0  0  0  0
   37.0720   25.7530   32.3110 C   0  0  0  0  0  0  0  0  0  0  0  0
   36.8950   24.3770   32.1690 C   0  0  0  0  0  0  0  0  0  0  0  0
   35.8090   23.9480   31.4060 C   0  0  0  0  0  0  0  0  0  0  0  0
   34.9890   24.8870   30.8490 N   0  0  0  0  0  0  0  0  0  0  0  0
   35.1950   26.2070   31.0110 C   0  0  0  0  0  0  0  0  0  0  0  0
   36.2330   26.6260   31.7400 N   0  0  0  0  0  0  0  0  0  0  0  0
   37.5250   23.6030   32.5960 H   0  0  0  0  0  0  0  0  0  0  0  0
   35.5950   22.9000   31.2430 H   0  0  0  0  0  0  0  0  0  0  0  0
   34.5280   26.9240   30.5560 H   0  0  0  0  0  0  0  0  0  0  0  0
  1  5  1  0  0  0  0
  1  2  2  0  0  0  0
  2  6  1  0  0  0  0
  2  3  1  0  0  0  0
  3  7  1  0  0  0  0
  4  3  2  0  0  0  0
  4  8  1  0  0  0  0
  5  4  1  0  0  0  0
  8 15  2  0  0  0  0
  9  8  1  0  0  0  0
  9 11  2  0  0  0  0
 10  9  1  0  0  0  0
 11 12  1  0  0  0  0
 11 13  1  0  0  0  0
 13 14  1  0  0  0  0
 15 13  1  0  0  0  0
 16  1  1  0  0  0  0
 17 16  2  0  0  0  0
 18 16  1  0  0  0  0
 19 18  1  0  0  0  0
 19 24  1  0  0  0  0
 20 19  2  0  0  0  0
 21 22  2  0  0  0  0
 21 20  1  0  0  0  0
 22 23  1  0  0  0  0
 23 18  2  0  0  0  0
 25 20  1  0  0  0  0
 26 22  1  0  0  0  0
M  END
>  <minimizedAffinity>
-4.81619835

$$$$

 OpenBabel03272507113D

 26 28  0  0  0  0  0  0  0  0999 V2000
   38.0240   25.3480   35.8540 C   0  0  0  0  0  0  0  0  0  0  0  0
   38.3950   26.5270   36.4460 C   0  0  0  0  0  0  0  0  0  0  0  0
   38.1330   27.5430   35.5150 C   0  0  0  0  0  0  0  0  0  0  0  0
   37.6080   26.9000   34.3950 C   0  0  0  0  0  0  0  0  0  0  0  0
   37.5680   25.6060   34.6530 O   0  0  0  0  0  0  0  0  0  0  0  0
   38.8150   26.7640   37.4210 H   0  0  0  0  0  0  0  0  0  0  0  0
   38.2870   28.6080   35.6030 H   0  0  0  0  0  0  0  0  0  0  0  0
   37.2000   27.6140   33.1870 C   0  0  0  0  0  0  0  0  0  0  0  0
   37.8520   27.6850   31.9690 C   0  0  0  0  0  0  0  0  0  0  0  0
   38.8070   27.1970   31.7270 H   0  0  0  0  0  0  0  0  0  0  0  0
   37.1090   28.4600   31.1340 C   0  0  0  0  0  0  0  0  0  0  0  0
   37.2850   28.7470   30.1100 H   0  0  0  0  0  0  0  0  0  0  0  0
   36.0070   28.8680   31.8140 N   0  0  0  0  0  0  0  0  0  0  0  0
   35.1770   29.4770   31.5460 H   0  0  0  0  0  0  0  0  0  0  0  0
   36.0810   28.3540   33.0340 N   0  0  0  0  0  0  0  0  0  0  0  0
   38.1600   24.0860   36.5410 C   0  0  0  0  0  0  0  0  0  0  0  0
   37.1710   23.6180   37.1650 O   0  0  0  0  0  0  0  0  0  0  0  0
   39.4470   23.4120   36.4780 C   0  0  0  0  0  0  0  0  0  0  0  0
   40.1970   23.5950   35.3160 C   0  0  0  0  0  0  0  0  0  0  0  0
   41.4340   22.9520   35.2460 C   0  0  0  0  0  0  0  0  0  0  0  0
   41.8360   22.1910   36.3060 N   0  0  0  0  0  0  0  0  0  0  0  0
   41.0810   22.0400   37.4090 C   0  0  0  0  0  0  0  0  0  0  0  0
   39.8960   22.6520   37.4840 N   0  0  0  0  0  0  0  0  0  0  0  0
   39.9100   24.1920   34.4560 H   0  0  0  0  0  0  0  0  0  0  0  0
   42.0810   23.0380   34.3840 H   0  0  0  0  0  0  0  0  0  0  0  0
   41.4280   21.4300   38.2300 H   0  0  0  0  0  0  0  0  0  0  0  0
  1  2  2  0  0  0  0
  1 16  1  0  0  0  0
  2  6  1  0  0  0  0
  3  7  1  0  0  0  0
  3  2  1  0  0  0  0
  4  5  1  0  0  0  0
  4  3  2  0  0  0  0
  5  1  1  0  0  0  0
  8  4  1  0  0  0  0
  9  8  1  0  0  0  0
 10  9  1  0  0  0  0
 11 13  1  0  0  0  0
 11  9  2  0  0  0  0
 12 11  1  0  0  0  0
 13 15  1  0  0  0  0
 14 13  1  0  0  0  0
 15  8  2  0  0  0  0
 16 17  2  0  0  0  0
 18 16  1  0  0  0  0
 18 23  1  0  0  0  0
 19 18  2  0  0  0  0
 20 19  1  0  0  0  0
 20 21  2  0  0  0  0
 21 22  1  0  0  0  0
 22 23  2  0  0  0  0
 22 26  1  0  0  0  0
 24 19  1  0  0  0  0
 25 20  1  0  0  0  0
M  END
>  <minimizedAffinity>
-4.65388727

$$$$

 OpenBabel03272507113D

 26 28  0  0  0  0  0  0  0  0999 V2000
   36.3970   26.0280   32.0520 C   0  0  0  0  0  0  0  0  0  0  0  0
   35.4160   26.0530   31.0950 C   0  0  0  0  0  0  0  0  0  0  0  0
   35.1130   24.7160   30.7970 C   0  0  0  0  0  0  0  0  0  0  0  0
   35.9490   23.9510   31.6100 C   0  0  0  0  0  0  0  0  0  0  0  0
   36.6830   24.7790   32.3280 O   0  0  0  0  0  0  0  0  0  0  0  0
   34.8960   26.8640   30.5910 H   0  0  0  0  0  0  0  0  0  0  0  0
   34.3950   24.3180   30.0960 H   0  0  0  0  0  0  0  0  0  0  0  0
   35.9430   22.4900   31.6020 C   0  0  0  0  0  0  0  0  0  0  0  0
   35.0870   21.6300   32.2670 C   0  0  0  0  0  0  0  0  0  0  0  0
   34.2570   21.9350   32.9200 H   0  0  0  0  0  0  0  0  0  0  0  0
   35.4510   20.3540   31.9700 C   0  0  0  0  0  0  0  0  0  0  0  0
   35.0290   19.4170   32.2940 H   0  0  0  0  0  0  0  0  0  0  0  0
   36.5190   20.4090   31.1330 N   0  0  0  0  0  0  0  0  0  0  0  0
   37.1090   19.6590   30.6640 H   0  0  0  0  0  0  0  0  0  0  0  0
   36.7950   21.6900   30.9270 N   0  0  0  0  0  0  0  0  0  0  0  0
   36.9500   27.2460   32.5940 C   0  0  0  0  0  0  0  0  0  0  0  0
   36.4020   28.3450   32.3150 O   0  0  0  0  0  0  0  0  0  0  0  0
   38.1250   27.1400   33.4440 C   0  0  0  0  0  0  0  0  0  0  0  0
   39.3610   27.0630   32.8020 C   0  0  0  0  0  0  0  0  0  0  0  0
   40.4950   26.9620   33.6090 C   0  0  0  0  0  0  0  0  0  0  0  0
   40.3340   26.9450   34.9650 N   0  0  0  0  0  0  0  0  0  0  0  0
   39.1210   27.0210   35.5450 C   0  0  0  0  0  0  0  0  0  0  0  0
   38.0310   27.1190   34.7790 N   0  0  0  0  0  0  0  0  0  0  0  0
   39.5270   27.0740   31.7300 H   0  0  0  0  0  0  0  0  0  0  0  0
   41.4930   26.8970   33.1970 H   0  0  0  0  0  0  0  0  0  0  0  0
   39.0280   27.0040   36.6200 H   0  0  0  0  0  0  0  0  0  0  0  0
  1  5  1  0  0  0  0
  1 16  1  0  0  0  0
  2  1  2  0  0  0  0
  3  2  1  0  0  0  0
  3  4  2  0  0  0  0
  4  5  1  0  0  0  0
  6  2  1  0  0  0  0
  7  3  1  0  0  0  0
  8  4  1  0  0  0  0
  8  9  1  0  0  0  0
  9 10  1  0  0  0  0
 11  9  2  0  0  0  0
 11 12  1  0  0  0  0
 13 11  1  0  0  0  0
 14 13  1  0  0  0  0
 15 13  1  0  0  0  0
 15  8  2  0  0  0  0
 16 18  1  0  0  0  0
 17 16  2  0  0  0  0
 18 23  1  0  0  0  0
 19 18  2  0  0  0  0
 19 20  1  0  0  0  0
 20 21  2  0  0  0  0
 21 22  1  0  0  0  0
 22 26  1  0  0  0  0
 23 22  2  0  0  0  0
 24 19  1  0  0  0  0
 25 20  1  0  0  0  0
M  END
>  <minimizedAffinity>
-4.64285851

$$$$

 OpenBabel03272507113D

 26 28  0  0  0  0  0  0  0  0999 V2000
   38.8940   26.7770   34.0670 C   0  0  0  0  0  0  0  0  0  0  0  0
   40.1910   26.8420   33.6300 C   0  0  0  0  0  0  0  0  0  0  0  0
   40.1420   27.2460   32.2870 C   0  0  0  0  0  0  0  0  0  0  0  0
   38.7890   27.4030   31.9920 C   0  0  0  0  0  0  0  0  0  0  0  0
   38.1000   27.1130   33.0790 O   0  0  0  0  0  0  0  0  0  0  0  0
   41.1450   26.6480   34.1150 H   0  0  0  0  0  0  0  0  0  0  0  0
   40.9520   27.4120   31.5930 H   0  0  0  0  0  0  0  0  0  0  0  0
   38.3060   27.8220   30.6770 C   0  0  0  0  0  0  0  0  0  0  0  0
   39.0320   28.3470   29.6230 C   0  0  0  0  0  0  0  0  0  0  0  0
   40.1150   28.5320   29.6240 H   0  0  0  0  0  0  0  0  0  0  0  0
   38.1740   28.5910   28.5960 C   0  0  0  0  0  0  0  0  0  0  0  0
   38.3600   28.9970   27.6150 H   0  0  0  0  0  0  0  0  0  0  0  0
   36.9300   28.2240   28.9970 N   0  0  0  0  0  0  0  0  0  0  0  0
   35.9810   28.2450   28.5170 H   0  0  0  0  0  0  0  0  0  0  0  0
   37.0310   27.7690   30.2390 N   0  0  0  0  0  0  0  0  0  0  0  0
   38.5740   26.3890   35.4200 C   0  0  0  0  0  0  0  0  0  0  0  0
   38.5970   27.2610   36.3290 O   0  0  0  0  0  0  0  0  0  0  0  0
   38.2400   24.9960   35.6670 C   0  0  0  0  0  0  0  0  0  0  0  0
   38.3600   24.1180   34.5890 C   0  0  0  0  0  0  0  0  0  0  0  0
   38.0420   22.7790   34.8160 C   0  0  0  0  0  0  0  0  0  0  0  0
   37.6360   22.4060   36.0660 N   0  0  0  0  0  0  0  0  0  0  0  0
   37.5330   23.2860   37.0790 C   0  0  0  0  0  0  0  0  0  0  0  0
   37.8360   24.5700   36.8700 N   0  0  0  0  0  0  0  0  0  0  0  0
   38.6800   24.3790   33.5850 H   0  0  0  0  0  0  0  0  0  0  0  0
   38.1070   22.0300   34.0390 H   0  0  0  0  0  0  0  0  0  0  0  0
   37.2080   22.9590   38.0560 H   0  0  0  0  0  0  0  0  0  0  0  0
  1 16  1  0  0  0  0
  2  1  2  0  0  0  0
  2  6  1  0  0  0  0
  3  2  1  0  0  0  0
  4  3  2  0  0  0  0
  4  5  1  0  0  0  0
  5  1  1  0  0  0  0
  7  3  1  0  0  0  0
  8  4  1  0  0  0  0
  9 10  1  0  0  0  0
  9  8  1  0  0  0  0
 11 13  1  0  0  0  0
 11  9  2  0  0  0  0
 12 11  1  0  0  0  0
 13 15  1  0  0  0  0
 14 13  1  0  0  0  0
 15  8  2  0  0  0  0
 16 18  1  0  0  0  0
 16 17  2  0  0  0  0
 18 23  1  0  0  0  0
 19 20  1  0  0  0  0
 19 18  2  0  0  0  0
 20 21  2  0  0  0  0
 21 22  1  0  0  0  0
 22 26  1  0  0  0  0
 23 22  2  0  0  0  0
 24 19  1  0  0  0  0
 25 20  1  0  0  0  0
M  END
>  <minimizedAffinity>
-4.61172485

$$$$
