
 OpenBabel03272506193D

 33 35  0  0  0  0  0  0  0  0999 V2000
   37.1320   21.9440   31.9340 C   0  0  0  0  0  0  0  0  0  0  0  0
   35.6540   22.0030   31.6260 C   0  0  0  0  0  0  0  0  0  0  0  0
   34.8620   20.8910   32.2460 C   0  0  0  0  0  0  0  0  0  0  0  0
   35.3990   19.5310   31.8930 C   0  0  0  0  0  0  0  0  0  0  0  0
   36.9010   19.4450   31.9360 C   0  0  0  0  0  0  0  0  0  0  0  0
   37.5310   20.6620   32.5810 C   0  0  0  0  0  0  0  0  0  0  0  0
   37.7200   22.0810   31.0050 H   0  0  0  0  0  0  0  0  0  0  0  0
   35.2600   22.9430   32.0240 H   0  0  0  0  0  0  0  0  0  0  0  0
   35.5220   21.9650   30.5100 H   0  0  0  0  0  0  0  0  0  0  0  0
   33.8380   20.9420   31.8380 H   0  0  0  0  0  0  0  0  0  0  0  0
   34.8100   21.0720   33.3390 H   0  0  0  0  0  0  0  0  0  0  0  0
   34.9880   19.2340   30.8910 H   0  0  0  0  0  0  0  0  0  0  0  0
   34.9210   18.8140   32.6110 H   0  0  0  0  0  0  0  0  0  0  0  0
   37.1750   18.5790   32.6000 H   0  0  0  0  0  0  0  0  0  0  0  0
   37.3470   19.2450   30.9330 H   0  0  0  0  0  0  0  0  0  0  0  0
   37.2890   20.6210   33.6660 H   0  0  0  0  0  0  0  0  0  0  0  0
   38.6350   20.5400   32.4650 H   0  0  0  0  0  0  0  0  0  0  0  0
   37.4960   23.0530   32.8670 C   0  0  0  0  0  0  0  0  0  0  0  0
   37.8400   22.6790   34.1820 C   0  0  0  0  0  0  0  0  0  0  0  0
   38.1850   23.6980   35.0560 C   0  0  0  0  0  0  0  0  0  0  0  0
   38.1800   25.0110   34.6230 N   0  0  0  0  0  0  0  0  0  0  0  0
   37.8370   25.3220   33.3330 C   0  0  0  0  0  0  0  0  0  0  0  0
   37.5020   24.3430   32.4810 N   0  0  0  0  0  0  0  0  0  0  0  0
   37.8670   21.7160   34.6080 H   0  0  0  0  0  0  0  0  0  0  0  0
   37.8430   26.3520   33.0280 H   0  0  0  0  0  0  0  0  0  0  0  0
   38.5600   23.4250   36.4400 C   0  0  0  0  0  0  0  0  0  0  0  0
   37.9710   23.9620   37.5650 C   0  0  0  0  0  0  0  0  0  0  0  0
   37.1510   24.6610   37.6420 H   0  0  0  0  0  0  0  0  0  0  0  0
   38.6980   23.3780   38.6060 C   0  0  0  0  0  0  0  0  0  0  0  0
   38.4970   23.5830   39.6570 H   0  0  0  0  0  0  0  0  0  0  0  0
   39.6530   22.5520   38.1260 N   0  0  0  0  0  0  0  0  0  0  0  0
   40.3160   22.0090   38.7220 H   0  0  0  0  0  0  0  0  0  0  0  0
   39.5540   22.5940   36.8030 N   0  0  0  0  0  0  0  0  0  0  0  0
  1  6  1  0  0  0  0
  1 18  1  0  0  0  0
  2  1  1  0  0  0  0
  2  8  1  0  0  0  0
  2  3  1  0  0  0  0
  3 11  1  0  0  0  0
  4  5  1  0  0  0  0
  4  3  1  0  0  0  0
  4 13  1  0  0  0  0
  5  6  1  0  0  0  0
  5 14  1  0  0  0  0
  6 16  1  0  0  0  0
  7  1  1  0  0  0  0
  9  2  1  0  0  0  0
 10  3  1  0  0  0  0
 12  4  1  0  0  0  0
 15  5  1  0  0  0  0
 17  6  1  0  0  0  0
 18 19  1  0  0  0  0
 19 24  1  0  0  0  0
 19 20  2  0  0  0  0
 20 26  1  0  0  0  0
 21 20  1  0  0  0  0
 22 21  2  0  0  0  0
 23 18  2  0  0  0  0
 23 22  1  0  0  0  0
 25 22  1  0  0  0  0
 26 33  2  0  0  0  0
 26 27  1  0  0  0  0
 27 28  1  0  0  0  0
 27 29  2  0  0  0  0
 29 30  1  0  0  0  0
 31 29  1  0  0  0  0
 31 32  1  0  0  0  0
 33 31  1  0  0  0  0
M  END
>  <minimizedAffinity>
-5.22332239

$$$$

 OpenBabel03272506193D

 33 35  0  0  0  0  0  0  0  0999 V2000
   37.6940   25.9840   32.4810 C   0  0  0  0  0  0  0  0  0  0  0  0
   37.9350   27.0680   33.5040 C   0  0  0  0  0  0  0  0  0  0  0  0
   36.7240   27.9000   33.8010 C   0  0  0  0  0  0  0  0  0  0  0  0
   36.1140   28.4970   32.5630 C   0  0  0  0  0  0  0  0  0  0  0  0
   36.0560   27.5460   31.3990 C   0  0  0  0  0  0  0  0  0  0  0  0
   36.3750   26.1210   31.8010 C   0  0  0  0  0  0  0  0  0  0  0  0
   38.4990   25.9920   31.7200 H   0  0  0  0  0  0  0  0  0  0  0  0
   38.2410   26.5920   34.4410 H   0  0  0  0  0  0  0  0  0  0  0  0
   38.7530   27.7400   33.1230 H   0  0  0  0  0  0  0  0  0  0  0  0
   37.0460   28.7450   34.4350 H   0  0  0  0  0  0  0  0  0  0  0  0
   36.0140   27.2790   34.3850 H   0  0  0  0  0  0  0  0  0  0  0  0
   36.6700   29.4400   32.3100 H   0  0  0  0  0  0  0  0  0  0  0  0
   35.0920   28.8520   32.8620 H   0  0  0  0  0  0  0  0  0  0  0  0
   34.9930   27.5210   31.0300 H   0  0  0  0  0  0  0  0  0  0  0  0
   36.6930   27.8750   30.5450 H   0  0  0  0  0  0  0  0  0  0  0  0
   35.5220   25.7540   32.4130 H   0  0  0  0  0  0  0  0  0  0  0  0
   36.4050   25.5290   30.8550 H   0  0  0  0  0  0  0  0  0  0  0  0
   37.7200   24.6470   33.1500 C   0  0  0  0  0  0  0  0  0  0  0  0
   38.1500   24.6240   34.4920 C   0  0  0  0  0  0  0  0  0  0  0  0
   38.1720   23.3920   35.1250 C   0  0  0  0  0  0  0  0  0  0  0  0
   37.7850   22.2560   34.4390 N   0  0  0  0  0  0  0  0  0  0  0  0
   37.3750   22.3310   33.1330 C   0  0  0  0  0  0  0  0  0  0  0  0
   37.3500   23.5200   32.5140 N   0  0  0  0  0  0  0  0  0  0  0  0
   38.4700   25.4270   35.0950 H   0  0  0  0  0  0  0  0  0  0  0  0
   37.0800   21.4300   32.6290 H   0  0  0  0  0  0  0  0  0  0  0  0
   38.5990   23.2530   36.5140 C   0  0  0  0  0  0  0  0  0  0  0  0
   38.0170   23.8550   37.6100 C   0  0  0  0  0  0  0  0  0  0  0  0
   37.1670   24.5210   37.6560 H   0  0  0  0  0  0  0  0  0  0  0  0
   38.8010   23.3940   38.6710 C   0  0  0  0  0  0  0  0  0  0  0  0
   38.6210   23.6770   39.7070 H   0  0  0  0  0  0  0  0  0  0  0  0
   39.7810   22.5750   38.2290 N   0  0  0  0  0  0  0  0  0  0  0  0
   40.4860   22.1140   38.8470 H   0  0  0  0  0  0  0  0  0  0  0  0
   39.6410   22.5010   36.9120 N   0  0  0  0  0  0  0  0  0  0  0  0
  1 18  1  0  0  0  0
  1  2  1  0  0  0  0
  2  3  1  0  0  0  0
  2  8  1  0  0  0  0
  3 11  1  0  0  0  0
  3 10  1  0  0  0  0
  4 13  1  0  0  0  0
  4  3  1  0  0  0  0
  5  6  1  0  0  0  0
  5  4  1  0  0  0  0
  6 16  1  0  0  0  0
  6  1  1  0  0  0  0
  7  1  1  0  0  0  0
  9  2  1  0  0  0  0
 12  4  1  0  0  0  0
 14  5  1  0  0  0  0
 15  5  1  0  0  0  0
 17  6  1  0  0  0  0
 18 19  1  0  0  0  0
 19 24  1  0  0  0  0
 19 20  2  0  0  0  0
 20 26  1  0  0  0  0
 21 20  1  0  0  0  0
 22 21  2  0  0  0  0
 23 22  1  0  0  0  0
 23 18  2  0  0  0  0
 25 22  1  0  0  0  0
 26 33  2  0  0  0  0
 26 27  1  0  0  0  0
 27 28  1  0  0  0  0
 27 29  2  0  0  0  0
 29 30  1  0  0  0  0
 31 29  1  0  0  0  0
 31 32  1  0  0  0  0
 33 31  1  0  0  0  0
M  END
>  <minimizedAffinity>
-5.1106019

$$$$

 OpenBabel03272506193D

 33 35  0  0  0  0  0  0  0  0999 V2000
   37.7010   25.1060   31.8400 C   0  0  0  0  0  0  0  0  0  0  0  0
   37.1140   26.3310   31.1810 C   0  0  0  0  0  0  0  0  0  0  0  0
   35.6210   26.4140   31.2790 C   0  0  0  0  0  0  0  0  0  0  0  0
   34.9370   25.1810   30.7550 C   0  0  0  0  0  0  0  0  0  0  0  0
   35.6070   23.8980   31.1670 C   0  0  0  0  0  0  0  0  0  0  0  0
   36.6610   24.1130   32.2330 C   0  0  0  0  0  0  0  0  0  0  0  0
   38.4290   24.6200   31.1610 H   0  0  0  0  0  0  0  0  0  0  0  0
   37.5220   27.2160   31.6800 H   0  0  0  0  0  0  0  0  0  0  0  0
   37.4080   26.3260   30.0950 H   0  0  0  0  0  0  0  0  0  0  0  0
   35.2900   27.2530   30.6420 H   0  0  0  0  0  0  0  0  0  0  0  0
   35.3560   26.6500   32.3290 H   0  0  0  0  0  0  0  0  0  0  0  0
   34.8450   25.2690   29.6390 H   0  0  0  0  0  0  0  0  0  0  0  0
   33.8790   25.2340   31.1240 H   0  0  0  0  0  0  0  0  0  0  0  0
   34.8270   23.2430   31.6450 H   0  0  0  0  0  0  0  0  0  0  0  0
   36.0230   23.3350   30.2990 H   0  0  0  0  0  0  0  0  0  0  0  0
   36.1280   24.3810   33.1720 H   0  0  0  0  0  0  0  0  0  0  0  0
   37.1590   23.1250   32.3840 H   0  0  0  0  0  0  0  0  0  0  0  0
   38.4360   25.5040   33.0790 C   0  0  0  0  0  0  0  0  0  0  0  0
   38.2920   24.6550   34.1950 C   0  0  0  0  0  0  0  0  0  0  0  0
   38.9730   25.0100   35.3480 C   0  0  0  0  0  0  0  0  0  0  0  0
   39.7470   26.1550   35.3680 N   0  0  0  0  0  0  0  0  0  0  0  0
   39.8540   26.9490   34.2560 C   0  0  0  0  0  0  0  0  0  0  0  0
   39.2000   26.6110   33.1360 N   0  0  0  0  0  0  0  0  0  0  0  0
   37.7240   23.7720   34.2820 H   0  0  0  0  0  0  0  0  0  0  0  0
   40.4640   27.8310   34.3040 H   0  0  0  0  0  0  0  0  0  0  0  0
   38.8960   24.2020   36.5620 C   0  0  0  0  0  0  0  0  0  0  0  0
   38.0080   24.3770   37.6020 C   0  0  0  0  0  0  0  0  0  0  0  0
   37.2280   25.1140   37.7210 H   0  0  0  0  0  0  0  0  0  0  0  0
   38.3620   23.3550   38.4880 C   0  0  0  0  0  0  0  0  0  0  0  0
   37.8550   23.1930   39.4390 H   0  0  0  0  0  0  0  0  0  0  0  0
   39.3910   22.6280   38.0020 N   0  0  0  0  0  0  0  0  0  0  0  0
   39.8210   21.8130   38.4940 H   0  0  0  0  0  0  0  0  0  0  0  0
   39.7030   23.1590   36.8270 N   0  0  0  0  0  0  0  0  0  0  0  0
  1  6  1  0  0  0  0
  1 18  1  0  0  0  0
  2  3  1  0  0  0  0
  2  8  1  0  0  0  0
  2  1  1  0  0  0  0
  3 11  1  0  0  0  0
  4 13  1  0  0  0  0
  4  5  1  0  0  0  0
  4  3  1  0  0  0  0
  5 14  1  0  0  0  0
  5  6  1  0  0  0  0
  6 17  1  0  0  0  0
  6 16  1  0  0  0  0
  7  1  1  0  0  0  0
  9  2  1  0  0  0  0
 10  3  1  0  0  0  0
 12  4  1  0  0  0  0
 15  5  1  0  0  0  0
 18 23  2  0  0  0  0
 18 19  1  0  0  0  0
 19 24  1  0  0  0  0
 19 20  2  0  0  0  0
 20 21  1  0  0  0  0
 20 26  1  0  0  0  0
 22 25  1  0  0  0  0
 22 21  2  0  0  0  0
 23 22  1  0  0  0  0
 26 33  2  0  0  0  0
 26 27  1  0  0  0  0
 27 28  1  0  0  0  0
 27 29  2  0  0  0  0
 29 30  1  0  0  0  0
 31 29  1  0  0  0  0
 31 32  1  0  0  0  0
 33 31  1  0  0  0  0
M  END
>  <minimizedAffinity>
-5.05227375

$$$$

 OpenBabel03272506193D

 33 35  0  0  0  0  0  0  0  0999 V2000
   37.2720   27.0680   33.6740 C   0  0  0  0  0  0  0  0  0  0  0  0
   37.4990   26.8930   35.1570 C   0  0  0  0  0  0  0  0  0  0  0  0
   38.8820   27.2610   35.6040 C   0  0  0  0  0  0  0  0  0  0  0  0
   39.9520   26.5310   34.8380 C   0  0  0  0  0  0  0  0  0  0  0  0
   39.6820   26.4420   33.3610 C   0  0  0  0  0  0  0  0  0  0  0  0
   38.5350   27.3320   32.9280 C   0  0  0  0  0  0  0  0  0  0  0  0
   36.7840   26.1660   33.2550 H   0  0  0  0  0  0  0  0  0  0  0  0
   36.8010   27.5470   35.6890 H   0  0  0  0  0  0  0  0  0  0  0  0
   37.3060   25.8170   35.4220 H   0  0  0  0  0  0  0  0  0  0  0  0
   38.9850   26.9540   36.6600 H   0  0  0  0  0  0  0  0  0  0  0  0
   38.9800   28.3640   35.5520 H   0  0  0  0  0  0  0  0  0  0  0  0
   40.0960   25.5180   35.3030 H   0  0  0  0  0  0  0  0  0  0  0  0
   40.9100   27.0730   35.0550 H   0  0  0  0  0  0  0  0  0  0  0  0
   40.5870   26.8390   32.8240 H   0  0  0  0  0  0  0  0  0  0  0  0
   39.5280   25.3930   33.0160 H   0  0  0  0  0  0  0  0  0  0  0  0
   38.8860   28.3840   33.0140 H   0  0  0  0  0  0  0  0  0  0  0  0
   38.3580   27.1100   31.8480 H   0  0  0  0  0  0  0  0  0  0  0  0
   36.3580   28.2270   33.4380 C   0  0  0  0  0  0  0  0  0  0  0  0
   36.0490   29.0210   34.5610 C   0  0  0  0  0  0  0  0  0  0  0  0
   35.2070   30.1020   34.3540 C   0  0  0  0  0  0  0  0  0  0  0  0
   34.7110   30.3590   33.0900 N   0  0  0  0  0  0  0  0  0  0  0  0
   35.0410   29.5560   32.0300 C   0  0  0  0  0  0  0  0  0  0  0  0
   35.8560   28.5080   32.2210 N   0  0  0  0  0  0  0  0  0  0  0  0
   36.3670   28.9050   35.5590 H   0  0  0  0  0  0  0  0  0  0  0  0
   34.6390   29.7830   31.0610 H   0  0  0  0  0  0  0  0  0  0  0  0
   34.8220   30.9920   35.4460 C   0  0  0  0  0  0  0  0  0  0  0  0
   35.6450   31.8850   36.0990 C   0  0  0  0  0  0  0  0  0  0  0  0
   36.6920   32.0940   35.9400 H   0  0  0  0  0  0  0  0  0  0  0  0
   34.7890   32.4690   37.0370 C   0  0  0  0  0  0  0  0  0  0  0  0
   35.1130   33.2360   37.7380 H   0  0  0  0  0  0  0  0  0  0  0  0
   33.5440   31.9530   36.9420 N   0  0  0  0  0  0  0  0  0  0  0  0
   32.7400   32.2410   37.5440 H   0  0  0  0  0  0  0  0  0  0  0  0
   33.5830   31.0540   35.9670 N   0  0  0  0  0  0  0  0  0  0  0  0
  1  2  1  0  0  0  0
  2  9  1  0  0  0  0
  2  3  1  0  0  0  0
  2  8  1  0  0  0  0
  3 10  1  0  0  0  0
  4 13  1  0  0  0  0
  4 12  1  0  0  0  0
  4  3  1  0  0  0  0
  5  4  1  0  0  0  0
  6 16  1  0  0  0  0
  6  5  1  0  0  0  0
  6  1  1  0  0  0  0
  7  1  1  0  0  0  0
 11  3  1  0  0  0  0
 14  5  1  0  0  0  0
 15  5  1  0  0  0  0
 17  6  1  0  0  0  0
 18  1  1  0  0  0  0
 18 19  1  0  0  0  0
 19 24  1  0  0  0  0
 20 19  2  0  0  0  0
 20 26  1  0  0  0  0
 21 20  1  0  0  0  0
 22 23  1  0  0  0  0
 22 21  2  0  0  0  0
 23 18  2  0  0  0  0
 25 22  1  0  0  0  0
 26 33  2  0  0  0  0
 26 27  1  0  0  0  0
 27 29  2  0  0  0  0
 28 27  1  0  0  0  0
 29 30  1  0  0  0  0
 31 29  1  0  0  0  0
 31 32  1  0  0  0  0
 33 31  1  0  0  0  0
M  END
>  <minimizedAffinity>
-5.00970268

$$$$

 OpenBabel03272506193D

 33 35  0  0  0  0  0  0  0  0999 V2000
   36.9760   26.4820   32.8640 C   0  0  0  0  0  0  0  0  0  0  0  0
   37.2650   26.8440   31.4270 C   0  0  0  0  0  0  0  0  0  0  0  0
   37.6080   28.2900   31.2240 C   0  0  0  0  0  0  0  0  0  0  0  0
   36.5610   29.2160   31.7800 C   0  0  0  0  0  0  0  0  0  0  0  0
   36.0300   28.7920   33.1220 C   0  0  0  0  0  0  0  0  0  0  0  0
   36.8500   27.6800   33.7420 C   0  0  0  0  0  0  0  0  0  0  0  0
   36.0450   25.8850   32.9270 H   0  0  0  0  0  0  0  0  0  0  0  0
   38.1260   26.2570   31.0930 H   0  0  0  0  0  0  0  0  0  0  0  0
   36.3600   26.5950   30.8090 H   0  0  0  0  0  0  0  0  0  0  0  0
   37.6480   28.4750   30.1360 H   0  0  0  0  0  0  0  0  0  0  0  0
   38.6180   28.4680   31.6450 H   0  0  0  0  0  0  0  0  0  0  0  0
   35.7420   29.3270   31.0180 H   0  0  0  0  0  0  0  0  0  0  0  0
   37.0370   30.2310   31.8220 H   0  0  0  0  0  0  0  0  0  0  0  0
   36.1330   29.6660   33.8220 H   0  0  0  0  0  0  0  0  0  0  0  0
   34.9480   28.5230   33.0890 H   0  0  0  0  0  0  0  0  0  0  0  0
   37.8290   28.1190   34.0340 H   0  0  0  0  0  0  0  0  0  0  0  0
   36.3120   27.3770   34.6730 H   0  0  0  0  0  0  0  0  0  0  0  0
   38.0880   25.6420   33.4050 C   0  0  0  0  0  0  0  0  0  0  0  0
   37.9400   25.1810   34.7280 C   0  0  0  0  0  0  0  0  0  0  0  0
   38.9620   24.3960   35.2390 C   0  0  0  0  0  0  0  0  0  0  0  0
   40.0630   24.1020   34.4570 N   0  0  0  0  0  0  0  0  0  0  0  0
   40.1600   24.5760   33.1750 C   0  0  0  0  0  0  0  0  0  0  0  0
   39.1760   25.3340   32.6730 N   0  0  0  0  0  0  0  0  0  0  0  0
   37.1500   25.3550   35.4030 H   0  0  0  0  0  0  0  0  0  0  0  0
   41.0290   24.3280   32.5940 H   0  0  0  0  0  0  0  0  0  0  0  0
   38.9120   23.8640   36.5980 C   0  0  0  0  0  0  0  0  0  0  0  0
   38.0130   24.2210   37.5810 C   0  0  0  0  0  0  0  0  0  0  0  0
   37.2040   24.9360   37.5420 H   0  0  0  0  0  0  0  0  0  0  0  0
   38.4030   23.4270   38.6630 C   0  0  0  0  0  0  0  0  0  0  0  0
   37.9000   23.4520   39.6280 H   0  0  0  0  0  0  0  0  0  0  0  0
   39.4620   22.6540   38.3380 N   0  0  0  0  0  0  0  0  0  0  0  0
   39.9220   21.9810   38.9920 H   0  0  0  0  0  0  0  0  0  0  0  0
   39.7580   22.9340   37.0760 N   0  0  0  0  0  0  0  0  0  0  0  0
  1  7  1  0  0  0  0
  1 18  1  0  0  0  0
  1  6  1  0  0  0  0
  2  1  1  0  0  0  0
  3  2  1  0  0  0  0
  3 11  1  0  0  0  0
  3  4  1  0  0  0  0
  4 13  1  0  0  0  0
  4  5  1  0  0  0  0
  5  6  1  0  0  0  0
  5 14  1  0  0  0  0
  6 16  1  0  0  0  0
  6 17  1  0  0  0  0
  8  2  1  0  0  0  0
  9  2  1  0  0  0  0
 10  3  1  0  0  0  0
 12  4  1  0  0  0  0
 15  5  1  0  0  0  0
 18 19  1  0  0  0  0
 19 20  2  0  0  0  0
 19 24  1  0  0  0  0
 20 26  1  0  0  0  0
 21 20  1  0  0  0  0
 22 21  2  0  0  0  0
 23 22  1  0  0  0  0
 23 18  2  0  0  0  0
 25 22  1  0  0  0  0
 26 33  2  0  0  0  0
 26 27  1  0  0  0  0
 27 29  2  0  0  0  0
 28 27  1  0  0  0  0
 29 30  1  0  0  0  0
 31 29  1  0  0  0  0
 31 32  1  0  0  0  0
 33 31  1  0  0  0  0
M  END
>  <minimizedAffinity>
-4.93526411

$$$$

 OpenBabel03272506193D

 33 35  0  0  0  0  0  0  0  0999 V2000
   39.0080   23.8090   35.4110 C   0  0  0  0  0  0  0  0  0  0  0  0
   38.3430   23.2970   36.6650 C   0  0  0  0  0  0  0  0  0  0  0  0
   39.2620   23.2090   37.8460 C   0  0  0  0  0  0  0  0  0  0  0  0
   40.4960   22.3970   37.5590 C   0  0  0  0  0  0  0  0  0  0  0  0
   41.0970   22.6700   36.2070 C   0  0  0  0  0  0  0  0  0  0  0  0
   40.4910   23.8870   35.5400 C   0  0  0  0  0  0  0  0  0  0  0  0
   38.7520   23.1600   34.5510 H   0  0  0  0  0  0  0  0  0  0  0  0
   37.5370   23.9880   36.9320 H   0  0  0  0  0  0  0  0  0  0  0  0
   37.9250   22.2740   36.4530 H   0  0  0  0  0  0  0  0  0  0  0  0
   38.7210   22.6850   38.6540 H   0  0  0  0  0  0  0  0  0  0  0  0
   39.4850   24.2400   38.1880 H   0  0  0  0  0  0  0  0  0  0  0  0
   40.2500   21.3100   37.7000 H   0  0  0  0  0  0  0  0  0  0  0  0
   41.2160   22.6260   38.3890 H   0  0  0  0  0  0  0  0  0  0  0  0
   42.1830   22.9230   36.3600 H   0  0  0  0  0  0  0  0  0  0  0  0
   41.0580   21.7820   35.5340 H   0  0  0  0  0  0  0  0  0  0  0  0
   40.8390   24.7790   36.1070 H   0  0  0  0  0  0  0  0  0  0  0  0
   40.9310   23.9330   34.5150 H   0  0  0  0  0  0  0  0  0  0  0  0
   38.5100   25.1850   35.1030 C   0  0  0  0  0  0  0  0  0  0  0  0
   38.0910   25.4190   33.7780 C   0  0  0  0  0  0  0  0  0  0  0  0
   37.6220   26.6890   33.4820 C   0  0  0  0  0  0  0  0  0  0  0  0
   37.5820   27.6580   34.4660 N   0  0  0  0  0  0  0  0  0  0  0  0
   38.0010   27.3800   35.7410 C   0  0  0  0  0  0  0  0  0  0  0  0
   38.4560   26.1540   36.0360 N   0  0  0  0  0  0  0  0  0  0  0  0
   38.0900   24.7550   32.9600 H   0  0  0  0  0  0  0  0  0  0  0  0
   37.9570   28.1550   36.4830 H   0  0  0  0  0  0  0  0  0  0  0  0
   37.1620   27.0410   32.1410 C   0  0  0  0  0  0  0  0  0  0  0  0
   37.5600   28.1360   31.4040 C   0  0  0  0  0  0  0  0  0  0  0  0
   38.2610   28.9170   31.6610 H   0  0  0  0  0  0  0  0  0  0  0  0
   36.8290   27.9980   30.2210 C   0  0  0  0  0  0  0  0  0  0  0  0
   36.8990   28.7040   29.3950 H   0  0  0  0  0  0  0  0  0  0  0  0
   36.0500   26.8940   30.2600 N   0  0  0  0  0  0  0  0  0  0  0  0
   35.4180   26.5920   29.4850 H   0  0  0  0  0  0  0  0  0  0  0  0
   36.2660   26.3240   31.4380 N   0  0  0  0  0  0  0  0  0  0  0  0
  1  6  1  0  0  0  0
  1  2  1  0  0  0  0
  2  8  1  0  0  0  0
  2  3  1  0  0  0  0
  3 11  1  0  0  0  0
  3 10  1  0  0  0  0
  4 12  1  0  0  0  0
  4  3  1  0  0  0  0
  4 13  1  0  0  0  0
  5 14  1  0  0  0  0
  5  4  1  0  0  0  0
  6 16  1  0  0  0  0
  6  5  1  0  0  0  0
  7  1  1  0  0  0  0
  9  2  1  0  0  0  0
 15  5  1  0  0  0  0
 17  6  1  0  0  0  0
 18  1  1  0  0  0  0
 18 23  1  0  0  0  0
 19 18  2  0  0  0  0
 20 19  1  0  0  0  0
 20 21  2  0  0  0  0
 21 22  1  0  0  0  0
 22 23  2  0  0  0  0
 22 25  1  0  0  0  0
 24 19  1  0  0  0  0
 26 20  1  0  0  0  0
 27 28  1  0  0  0  0
 27 26  1  0  0  0  0
 29 31  1  0  0  0  0
 29 27  2  0  0  0  0
 30 29  1  0  0  0  0
 31 33  1  0  0  0  0
 32 31  1  0  0  0  0
 33 26  2  0  0  0  0
M  END
>  <minimizedAffinity>
-4.93079281

$$$$

 OpenBabel03272506193D

 33 35  0  0  0  0  0  0  0  0999 V2000
   38.8370   26.1930   34.6900 C   0  0  0  0  0  0  0  0  0  0  0  0
   38.2010   27.4310   35.2770 C   0  0  0  0  0  0  0  0  0  0  0  0
   36.8660   27.7660   34.6820 C   0  0  0  0  0  0  0  0  0  0  0  0
   36.9140   27.8820   33.1830 C   0  0  0  0  0  0  0  0  0  0  0  0
   37.7420   26.8150   32.5200 C   0  0  0  0  0  0  0  0  0  0  0  0
   38.1250   25.7040   33.4760 C   0  0  0  0  0  0  0  0  0  0  0  0
   39.8960   26.3940   34.4350 H   0  0  0  0  0  0  0  0  0  0  0  0
   38.0460   27.2610   36.3470 H   0  0  0  0  0  0  0  0  0  0  0  0
   38.8980   28.2990   35.1170 H   0  0  0  0  0  0  0  0  0  0  0  0
   36.5670   28.7570   35.0660 H   0  0  0  0  0  0  0  0  0  0  0  0
   36.1300   27.0180   35.0400 H   0  0  0  0  0  0  0  0  0  0  0  0
   37.2660   28.9160   32.9160 H   0  0  0  0  0  0  0  0  0  0  0  0
   35.8470   27.8570   32.8370 H   0  0  0  0  0  0  0  0  0  0  0  0
   37.1020   26.3250   31.7340 H   0  0  0  0  0  0  0  0  0  0  0  0
   38.6400   27.2280   32.0040 H   0  0  0  0  0  0  0  0  0  0  0  0
   37.1970   25.1360   33.7070 H   0  0  0  0  0  0  0  0  0  0  0  0
   38.8140   25.0310   32.9120 H   0  0  0  0  0  0  0  0  0  0  0  0
   38.8160   25.0910   35.7000 C   0  0  0  0  0  0  0  0  0  0  0  0
   39.8840   24.1730   35.6490 C   0  0  0  0  0  0  0  0  0  0  0  0
   39.8800   23.1490   36.5830 C   0  0  0  0  0  0  0  0  0  0  0  0
   38.8560   23.0630   37.5070 N   0  0  0  0  0  0  0  0  0  0  0  0
   37.8390   23.9810   37.5160 C   0  0  0  0  0  0  0  0  0  0  0  0
   37.8360   24.9750   36.6160 N   0  0  0  0  0  0  0  0  0  0  0  0
   40.7010   24.1480   34.9830 H   0  0  0  0  0  0  0  0  0  0  0  0
   37.0590   23.8860   38.2470 H   0  0  0  0  0  0  0  0  0  0  0  0
   40.9380   22.1440   36.6210 C   0  0  0  0  0  0  0  0  0  0  0  0
   41.7540   21.7790   35.5720 C   0  0  0  0  0  0  0  0  0  0  0  0
   41.7720   22.1490   34.5570 H   0  0  0  0  0  0  0  0  0  0  0  0
   42.5710   20.7970   36.1390 C   0  0  0  0  0  0  0  0  0  0  0  0
   43.3510   20.2800   35.5820 H   0  0  0  0  0  0  0  0  0  0  0  0
   42.2550   20.5960   37.4380 N   0  0  0  0  0  0  0  0  0  0  0  0
   42.7350   19.9090   38.0610 H   0  0  0  0  0  0  0  0  0  0  0  0
   41.2580   21.4260   37.7130 N   0  0  0  0  0  0  0  0  0  0  0  0
  1  2  1  0  0  0  0
  1 18  1  0  0  0  0
  2  8  1  0  0  0  0
  3 11  1  0  0  0  0
  3 10  1  0  0  0  0
  3  2  1  0  0  0  0
  4  3  1  0  0  0  0
  5  4  1  0  0  0  0
  5  6  1  0  0  0  0
  6 16  1  0  0  0  0
  6  1  1  0  0  0  0
  7  1  1  0  0  0  0
  9  2  1  0  0  0  0
 12  4  1  0  0  0  0
 13  4  1  0  0  0  0
 14  5  1  0  0  0  0
 15  5  1  0  0  0  0
 17  6  1  0  0  0  0
 18 23  1  0  0  0  0
 19 18  2  0  0  0  0
 19 20  1  0  0  0  0
 20 26  1  0  0  0  0
 20 21  2  0  0  0  0
 21 22  1  0  0  0  0
 22 25  1  0  0  0  0
 23 22  2  0  0  0  0
 24 19  1  0  0  0  0
 26 33  2  0  0  0  0
 27 29  2  0  0  0  0
 27 26  1  0  0  0  0
 28 27  1  0  0  0  0
 29 31  1  0  0  0  0
 30 29  1  0  0  0  0
 31 33  1  0  0  0  0
 31 32  1  0  0  0  0
M  END
>  <minimizedAffinity>
-4.90556335

$$$$

 OpenBabel03272506193D

 33 35  0  0  0  0  0  0  0  0999 V2000
   38.7400   24.6430   35.8610 C   0  0  0  0  0  0  0  0  0  0  0  0
   39.9790   23.8020   36.0590 C   0  0  0  0  0  0  0  0  0  0  0  0
   39.7860   22.6550   37.0050 C   0  0  0  0  0  0  0  0  0  0  0  0
   39.2500   23.0890   38.3410 C   0  0  0  0  0  0  0  0  0  0  0  0
   38.1620   24.1250   38.2470 C   0  0  0  0  0  0  0  0  0  0  0  0
   37.6590   24.3070   36.8300 C   0  0  0  0  0  0  0  0  0  0  0  0
   38.9900   25.7180   35.9540 H   0  0  0  0  0  0  0  0  0  0  0  0
   40.2640   23.3810   35.0900 H   0  0  0  0  0  0  0  0  0  0  0  0
   40.7980   24.4640   36.4530 H   0  0  0  0  0  0  0  0  0  0  0  0
   40.7780   22.2060   37.1930 H   0  0  0  0  0  0  0  0  0  0  0  0
   39.1520   21.8960   36.5030 H   0  0  0  0  0  0  0  0  0  0  0  0
   40.1090   23.4370   38.9750 H   0  0  0  0  0  0  0  0  0  0  0  0
   38.8930   22.1550   38.8490 H   0  0  0  0  0  0  0  0  0  0  0  0
   37.2780   23.7460   38.8320 H   0  0  0  0  0  0  0  0  0  0  0  0
   38.4600   25.1010   38.6970 H   0  0  0  0  0  0  0  0  0  0  0  0
   37.0950   23.3870   36.5610 H   0  0  0  0  0  0  0  0  0  0  0  0
   36.9390   25.1600   36.8620 H   0  0  0  0  0  0  0  0  0  0  0  0
   38.1970   24.4230   34.4860 C   0  0  0  0  0  0  0  0  0  0  0  0
   38.0560   25.5670   33.6760 C   0  0  0  0  0  0  0  0  0  0  0  0
   37.5590   25.3750   32.3970 C   0  0  0  0  0  0  0  0  0  0  0  0
   37.2250   24.1040   31.9690 N   0  0  0  0  0  0  0  0  0  0  0  0
   37.3810   23.0230   32.7960 C   0  0  0  0  0  0  0  0  0  0  0  0
   37.8620   23.2000   34.0350 N   0  0  0  0  0  0  0  0  0  0  0  0
   38.2730   26.5720   33.9100 H   0  0  0  0  0  0  0  0  0  0  0  0
   37.1130   22.0480   32.4330 H   0  0  0  0  0  0  0  0  0  0  0  0
   37.3730   26.4910   31.4730 C   0  0  0  0  0  0  0  0  0  0  0  0
   38.2930   27.4800   31.1930 C   0  0  0  0  0  0  0  0  0  0  0  0
   39.2890   27.6200   31.5860 H   0  0  0  0  0  0  0  0  0  0  0  0
   37.6200   28.2770   30.2640 C   0  0  0  0  0  0  0  0  0  0  0  0
   38.0600   29.1680   29.8180 H   0  0  0  0  0  0  0  0  0  0  0  0
   36.3850   27.7900   30.0130 N   0  0  0  0  0  0  0  0  0  0  0  0
   35.7040   28.2240   29.3500 H   0  0  0  0  0  0  0  0  0  0  0  0
   36.2530   26.7010   30.7590 N   0  0  0  0  0  0  0  0  0  0  0  0
  1  7  1  0  0  0  0
  1  2  1  0  0  0  0
  1  6  1  0  0  0  0
  2  9  1  0  0  0  0
  2  3  1  0  0  0  0
  3 10  1  0  0  0  0
  3  4  1  0  0  0  0
  4 13  1  0  0  0  0
  4 12  1  0  0  0  0
  5  4  1  0  0  0  0
  5 15  1  0  0  0  0
  5 14  1  0  0  0  0
  6 17  1  0  0  0  0
  6  5  1  0  0  0  0
  8  2  1  0  0  0  0
 11  3  1  0  0  0  0
 16  6  1  0  0  0  0
 18  1  1  0  0  0  0
 19 24  1  0  0  0  0
 19 18  2  0  0  0  0
 20 19  1  0  0  0  0
 21 20  2  0  0  0  0
 21 22  1  0  0  0  0
 22 23  2  0  0  0  0
 23 18  1  0  0  0  0
 25 22  1  0  0  0  0
 26 20  1  0  0  0  0
 27 26  1  0  0  0  0
 27 28  1  0  0  0  0
 29 27  2  0  0  0  0
 30 29  1  0  0  0  0
 31 29  1  0  0  0  0
 31 33  1  0  0  0  0
 32 31  1  0  0  0  0
 33 26  2  0  0  0  0
M  END
>  <minimizedAffinity>
-4.89074516

$$$$

 OpenBabel03272506193D

 33 35  0  0  0  0  0  0  0  0999 V2000
   37.0780   27.0030   34.8130 C   0  0  0  0  0  0  0  0  0  0  0  0
   38.2520   27.4720   35.6380 C   0  0  0  0  0  0  0  0  0  0  0  0
   39.5610   26.8680   35.2260 C   0  0  0  0  0  0  0  0  0  0  0  0
   39.5230   25.3640   35.2060 C   0  0  0  0  0  0  0  0  0  0  0  0
   38.2610   24.8000   34.6140 C   0  0  0  0  0  0  0  0  0  0  0  0
   37.4220   25.8560   33.9260 C   0  0  0  0  0  0  0  0  0  0  0  0
   36.2390   26.7120   35.4750 H   0  0  0  0  0  0  0  0  0  0  0  0
   38.3430   28.5570   35.5180 H   0  0  0  0  0  0  0  0  0  0  0  0
   38.0560   27.2140   36.7150 H   0  0  0  0  0  0  0  0  0  0  0  0
   40.3140   27.1560   35.9800 H   0  0  0  0  0  0  0  0  0  0  0  0
   39.8560   27.3120   34.2540 H   0  0  0  0  0  0  0  0  0  0  0  0
   39.7050   24.9890   36.2500 H   0  0  0  0  0  0  0  0  0  0  0  0
   40.4330   25.0400   34.6340 H   0  0  0  0  0  0  0  0  0  0  0  0
   38.5570   24.0770   33.8040 H   0  0  0  0  0  0  0  0  0  0  0  0
   37.6570   24.2300   35.3590 H   0  0  0  0  0  0  0  0  0  0  0  0
   37.9680   26.1590   33.0050 H   0  0  0  0  0  0  0  0  0  0  0  0
   36.4740   25.3520   33.6200 H   0  0  0  0  0  0  0  0  0  0  0  0
   36.5980   28.1190   33.9410 C   0  0  0  0  0  0  0  0  0  0  0  0
   37.0610   28.1200   32.6100 C   0  0  0  0  0  0  0  0  0  0  0  0
   36.6180   29.1450   31.7900 C   0  0  0  0  0  0  0  0  0  0  0  0
   35.7630   30.1090   32.2910 N   0  0  0  0  0  0  0  0  0  0  0  0
   35.3420   30.0650   33.5940 C   0  0  0  0  0  0  0  0  0  0  0  0
   35.7650   29.0750   34.3930 N   0  0  0  0  0  0  0  0  0  0  0  0
   37.7140   27.4400   32.1390 H   0  0  0  0  0  0  0  0  0  0  0  0
   34.6780   30.8290   33.9520 H   0  0  0  0  0  0  0  0  0  0  0  0
   37.0340   29.2420   30.3940 C   0  0  0  0  0  0  0  0  0  0  0  0
   37.2630   30.4060   29.6910 C   0  0  0  0  0  0  0  0  0  0  0  0
   37.1830   31.4320   30.0190 H   0  0  0  0  0  0  0  0  0  0  0  0
   37.6290   29.9380   28.4260 C   0  0  0  0  0  0  0  0  0  0  0  0
   37.8850   30.6010   27.6000 H   0  0  0  0  0  0  0  0  0  0  0  0
   37.6160   28.5880   28.3860 N   0  0  0  0  0  0  0  0  0  0  0  0
   37.8560   28.0210   27.5430 H   0  0  0  0  0  0  0  0  0  0  0  0
   37.2510   28.1820   29.5950 N   0  0  0  0  0  0  0  0  0  0  0  0
  1  7  1  0  0  0  0
  1  2  1  0  0  0  0
  2  9  1  0  0  0  0
  3  2  1  0  0  0  0
  3 10  1  0  0  0  0
  4  3  1  0  0  0  0
  4 12  1  0  0  0  0
  5  4  1  0  0  0  0
  5 15  1  0  0  0  0
  6  5  1  0  0  0  0
  6  1  1  0  0  0  0
  8  2  1  0  0  0  0
 11  3  1  0  0  0  0
 13  4  1  0  0  0  0
 14  5  1  0  0  0  0
 16  6  1  0  0  0  0
 17  6  1  0  0  0  0
 18 23  1  0  0  0  0
 18  1  1  0  0  0  0
 19 18  2  0  0  0  0
 20 21  2  0  0  0  0
 20 19  1  0  0  0  0
 21 22  1  0  0  0  0
 22 25  1  0  0  0  0
 22 23  2  0  0  0  0
 24 19  1  0  0  0  0
 26 20  1  0  0  0  0
 27 28  1  0  0  0  0
 27 26  1  0  0  0  0
 29 27  2  0  0  0  0
 30 29  1  0  0  0  0
 31 29  1  0  0  0  0
 31 33  1  0  0  0  0
 32 31  1  0  0  0  0
 33 26  2  0  0  0  0
M  END
>  <minimizedAffinity>
-4.86132908

$$$$
