
 OpenBabel03272510193D

 35 38  0  0  0  0  0  0  0  0999 V2000
   37.3540   29.2190   50.8640 Br  0  0  0  0  0  0  0  0  0  0  0  0
   35.9570   29.2710   49.5670 C   0  0  0  0  0  0  0  0  0  0  0  0
   35.9590   30.2420   48.5680 C   0  0  0  0  0  0  0  0  0  0  0  0
   34.9270   30.2270   47.6630 C   0  0  0  0  0  0  0  0  0  0  0  0
   33.9020   29.2980   47.7090 C   0  0  0  0  0  0  0  0  0  0  0  0
   33.9230   28.3590   48.6960 C   0  0  0  0  0  0  0  0  0  0  0  0
   34.9510   28.3600   49.6100 C   0  0  0  0  0  0  0  0  0  0  0  0
   34.8710   30.9540   46.8650 H   0  0  0  0  0  0  0  0  0  0  0  0
   33.1400   27.6140   48.7650 H   0  0  0  0  0  0  0  0  0  0  0  0
   34.9360   27.5890   50.3900 H   0  0  0  0  0  0  0  0  0  0  0  0
   37.9860   33.1530   49.4260 C   0  0  0  0  0  0  0  0  0  0  0  0
   39.0020   33.1550   48.4210 C   0  0  0  0  0  0  0  0  0  0  0  0
   38.9660   32.1570   47.4730 C   0  0  0  0  0  0  0  0  0  0  0  0
   37.9730   31.2160   47.5310 N   0  0  0  0  0  0  0  0  0  0  0  0
   37.0190   31.2320   48.4910 C   0  0  0  0  0  0  0  0  0  0  0  0
   37.0340   32.2130   49.4440 N   0  0  0  0  0  0  0  0  0  0  0  0
   37.9870   33.9280   50.1880 H   0  0  0  0  0  0  0  0  0  0  0  0
   39.7470   33.9130   48.4290 H   0  0  0  0  0  0  0  0  0  0  0  0
   39.7150   32.1120   46.6860 H   0  0  0  0  0  0  0  0  0  0  0  0
   32.8020   29.2780   46.7500 C   0  0  0  0  0  0  0  0  0  0  0  0
   32.0310   28.1780   46.4520 C   0  0  0  0  0  0  0  0  0  0  0  0
   30.9980   28.2190   45.5310 C   0  0  0  0  0  0  0  0  0  0  0  0
   30.7240   29.3600   44.8980 N   0  0  0  0  0  0  0  0  0  0  0  0
   31.4600   30.4430   45.1730 C   0  0  0  0  0  0  0  0  0  0  0  0
   32.4640   30.3980   46.0690 N   0  0  0  0  0  0  0  0  0  0  0  0
   32.2570   27.2510   46.9680 H   0  0  0  0  0  0  0  0  0  0  0  0
   30.4280   27.3110   45.3410 H   0  0  0  0  0  0  0  0  0  0  0  0
   31.2820   31.7580   44.5640 C   0  0  0  0  0  0  0  0  0  0  0  0
   31.8620   32.8840   45.1470 C   0  0  0  0  0  0  0  0  0  0  0  0
   32.4590   32.9490   46.0320 H   0  0  0  0  0  0  0  0  0  0  0  0
   31.5390   34.0050   44.3720 C   0  0  0  0  0  0  0  0  0  0  0  0
   31.8550   35.0160   44.5880 H   0  0  0  0  0  0  0  0  0  0  0  0
   30.7780   33.5100   43.3520 N   0  0  0  0  0  0  0  0  0  0  0  0
   30.3870   34.1220   42.6040 H   0  0  0  0  0  0  0  0  0  0  0  0
   30.6260   32.2130   43.4580 N   0  0  0  0  0  0  0  0  0  0  0  0
  2  7  1  0  0  0  0
  2  1  1  0  0  0  0
  3  2  2  0  0  0  0
  4  5  2  0  0  0  0
  4  3  1  0  0  0  0
  5  6  1  0  0  0  0
  6  9  1  0  0  0  0
  6  7  2  0  0  0  0
  7 10  1  0  0  0  0
  8  4  1  0  0  0  0
 11 16  1  0  0  0  0
 11 17  1  0  0  0  0
 12 18  1  0  0  0  0
 12 11  2  0  0  0  0
 13 14  2  0  0  0  0
 13 12  1  0  0  0  0
 14 15  1  0  0  0  0
 15  3  1  0  0  0  0
 15 16  2  0  0  0  0
 19 13  1  0  0  0  0
 20  5  1  0  0  0  0
 21 20  1  0  0  0  0
 21 26  1  0  0  0  0
 22 21  2  0  0  0  0
 23 24  2  0  0  0  0
 23 22  1  0  0  0  0
 24 25  1  0  0  0  0
 25 20  2  0  0  0  0
 27 22  1  0  0  0  0
 28 29  1  0  0  0  0
 28 24  1  0  0  0  0
 29 30  1  0  0  0  0
 31 32  1  0  0  0  0
 31 29  2  0  0  0  0
 33 35  1  0  0  0  0
 33 31  1  0  0  0  0
 34 33  1  0  0  0  0
 35 28  2  0  0  0  0
M  END
>  <minimizedAffinity>
-6.36188602

>  <minimizedRMSD>
0.186433375

$$$$
