
 OpenBabel03272506163D

 33 35  0  0  0  0  0  0  0  0999 V2000
   35.4550   30.3280   49.8970 C   0  0  0  0  0  0  0  0  0  0  0  0
   36.4430   31.2040   49.1650 C   0  0  0  0  0  0  0  0  0  0  0  0
   37.8690   30.7660   49.3180 C   0  0  0  0  0  0  0  0  0  0  0  0
   38.2810   30.6310   50.7580 C   0  0  0  0  0  0  0  0  0  0  0  0
   37.2390   29.9790   51.6260 C   0  0  0  0  0  0  0  0  0  0  0  0
   36.1180   29.3610   50.8170 C   0  0  0  0  0  0  0  0  0  0  0  0
   34.7470   30.9540   50.4760 H   0  0  0  0  0  0  0  0  0  0  0  0
   36.2060   31.1690   48.0970 H   0  0  0  0  0  0  0  0  0  0  0  0
   36.3420   32.2550   49.5530 H   0  0  0  0  0  0  0  0  0  0  0  0
   38.5090   31.5520   48.8790 H   0  0  0  0  0  0  0  0  0  0  0  0
   38.0090   29.8360   48.7320 H   0  0  0  0  0  0  0  0  0  0  0  0
   38.5760   31.6450   51.1430 H   0  0  0  0  0  0  0  0  0  0  0  0
   39.2410   30.0500   50.7520 H   0  0  0  0  0  0  0  0  0  0  0  0
   37.7300   29.1200   52.1620 H   0  0  0  0  0  0  0  0  0  0  0  0
   36.8390   30.6680   52.4060 H   0  0  0  0  0  0  0  0  0  0  0  0
   36.5400   28.4740   50.2950 H   0  0  0  0  0  0  0  0  0  0  0  0
   35.3600   29.0030   51.5550 H   0  0  0  0  0  0  0  0  0  0  0  0
   34.6570   29.5380   48.9110 C   0  0  0  0  0  0  0  0  0  0  0  0
   34.2330   30.2210   47.7540 C   0  0  0  0  0  0  0  0  0  0  0  0
   33.4970   29.4980   46.8290 C   0  0  0  0  0  0  0  0  0  0  0  0
   33.2090   28.1670   47.0650 N   0  0  0  0  0  0  0  0  0  0  0  0
   33.6440   27.5470   48.2070 C   0  0  0  0  0  0  0  0  0  0  0  0
   34.3570   28.2400   49.1060 N   0  0  0  0  0  0  0  0  0  0  0  0
   34.3930   31.2280   47.4870 H   0  0  0  0  0  0  0  0  0  0  0  0
   33.4030   26.5120   48.3600 H   0  0  0  0  0  0  0  0  0  0  0  0
   33.0090   30.1060   45.5950 C   0  0  0  0  0  0  0  0  0  0  0  0
   32.0770   31.1180   45.4980 C   0  0  0  0  0  0  0  0  0  0  0  0
   31.5470   31.6390   46.2820 H   0  0  0  0  0  0  0  0  0  0  0  0
   31.9760   31.3180   44.1190 C   0  0  0  0  0  0  0  0  0  0  0  0
   31.3150   32.0610   43.6740 H   0  0  0  0  0  0  0  0  0  0  0  0
   32.7930   30.4770   43.4470 N   0  0  0  0  0  0  0  0  0  0  0  0
   32.8830   30.4490   42.4070 H   0  0  0  0  0  0  0  0  0  0  0  0
   33.4150   29.7470   44.3640 N   0  0  0  0  0  0  0  0  0  0  0  0
  1  7  1  0  0  0  0
  1  6  1  0  0  0  0
  2  3  1  0  0  0  0
  2  9  1  0  0  0  0
  2  1  1  0  0  0  0
  3  4  1  0  0  0  0
  4 12  1  0  0  0  0
  4  5  1  0  0  0  0
  5 14  1  0  0  0  0
  5 15  1  0  0  0  0
  6 17  1  0  0  0  0
  6  5  1  0  0  0  0
  8  2  1  0  0  0  0
 10  3  1  0  0  0  0
 11  3  1  0  0  0  0
 13  4  1  0  0  0  0
 16  6  1  0  0  0  0
 18 23  1  0  0  0  0
 18  1  1  0  0  0  0
 19 18  2  0  0  0  0
 20 21  2  0  0  0  0
 20 19  1  0  0  0  0
 21 22  1  0  0  0  0
 22 25  1  0  0  0  0
 22 23  2  0  0  0  0
 24 19  1  0  0  0  0
 26 20  1  0  0  0  0
 27 26  1  0  0  0  0
 27 28  1  0  0  0  0
 29 27  2  0  0  0  0
 30 29  1  0  0  0  0
 31 29  1  0  0  0  0
 31 33  1  0  0  0  0
 32 31  1  0  0  0  0
 33 26  2  0  0  0  0
M  END
>  <minimizedAffinity>
-5.19062519

>  <minimizedRMSD>
0.292980969

$$$$
