
 OpenBabel03272510193D

 35 38  0  0  0  0  0  0  0  0999 V2000
   37.4720   29.1800   50.8290 Br  0  0  0  0  0  0  0  0  0  0  0  0
   36.0380   29.2730   49.5770 C   0  0  0  0  0  0  0  0  0  0  0  0
   36.0120   30.2750   48.6080 C   0  0  0  0  0  0  0  0  0  0  0  0
   34.9530   30.2880   47.7350 C   0  0  0  0  0  0  0  0  0  0  0  0
   33.9280   29.3590   47.7830 C   0  0  0  0  0  0  0  0  0  0  0  0
   33.9760   28.3900   48.7390 C   0  0  0  0  0  0  0  0  0  0  0  0
   35.0320   28.3620   49.6220 C   0  0  0  0  0  0  0  0  0  0  0  0
   34.8750   31.0400   46.9620 H   0  0  0  0  0  0  0  0  0  0  0  0
   33.1950   27.6440   48.8080 H   0  0  0  0  0  0  0  0  0  0  0  0
   35.0390   27.5670   50.3770 H   0  0  0  0  0  0  0  0  0  0  0  0
   38.0270   33.1970   49.4560 C   0  0  0  0  0  0  0  0  0  0  0  0
   39.0510   33.1920   48.4580 C   0  0  0  0  0  0  0  0  0  0  0  0
   39.0230   32.1850   47.5190 C   0  0  0  0  0  0  0  0  0  0  0  0
   38.0310   31.2430   47.5770 N   0  0  0  0  0  0  0  0  0  0  0  0
   37.0710   31.2660   48.5310 C   0  0  0  0  0  0  0  0  0  0  0  0
   37.0760   32.2560   49.4750 N   0  0  0  0  0  0  0  0  0  0  0  0
   38.0220   33.9780   50.2110 H   0  0  0  0  0  0  0  0  0  0  0  0
   39.7940   33.9510   48.4650 H   0  0  0  0  0  0  0  0  0  0  0  0
   39.7780   32.1350   46.7380 H   0  0  0  0  0  0  0  0  0  0  0  0
   32.8000   29.3690   46.8570 C   0  0  0  0  0  0  0  0  0  0  0  0
   31.8820   28.3540   46.7140 C   0  0  0  0  0  0  0  0  0  0  0  0
   30.8310   28.4210   45.8170 C   0  0  0  0  0  0  0  0  0  0  0  0
   30.6840   29.5030   45.0530 N   0  0  0  0  0  0  0  0  0  0  0  0
   31.5630   30.5030   45.1740 C   0  0  0  0  0  0  0  0  0  0  0  0
   32.5850   30.4340   46.0480 N   0  0  0  0  0  0  0  0  0  0  0  0
   32.0060   27.4750   47.3380 H   0  0  0  0  0  0  0  0  0  0  0  0
   30.1400   27.5810   45.7550 H   0  0  0  0  0  0  0  0  0  0  0  0
   31.5350   31.7470   44.4090 C   0  0  0  0  0  0  0  0  0  0  0  0
   30.3660   32.5020   44.3450 C   0  0  0  0  0  0  0  0  0  0  0  0
   29.4150   32.3080   44.7950 H   0  0  0  0  0  0  0  0  0  0  0  0
   30.6080   33.6340   43.5560 C   0  0  0  0  0  0  0  0  0  0  0  0
   29.8770   34.3990   43.3330 H   0  0  0  0  0  0  0  0  0  0  0  0
   31.9150   33.5160   43.1760 N   0  0  0  0  0  0  0  0  0  0  0  0
   32.3830   34.2250   42.5730 H   0  0  0  0  0  0  0  0  0  0  0  0
   32.4550   32.4280   43.6660 N   0  0  0  0  0  0  0  0  0  0  0  0
  2  7  1  0  0  0  0
  2  1  1  0  0  0  0
  3  2  2  0  0  0  0
  4  5  2  0  0  0  0
  4  3  1  0  0  0  0
  5  6  1  0  0  0  0
  6  9  1  0  0  0  0
  6  7  2  0  0  0  0
  7 10  1  0  0  0  0
  8  4  1  0  0  0  0
 11 16  1  0  0  0  0
 11 17  1  0  0  0  0
 12 18  1  0  0  0  0
 12 11  2  0  0  0  0
 13 14  2  0  0  0  0
 13 12  1  0  0  0  0
 14 15  1  0  0  0  0
 15  3  1  0  0  0  0
 15 16  2  0  0  0  0
 19 13  1  0  0  0  0
 20  5  1  0  0  0  0
 21 20  1  0  0  0  0
 21 26  1  0  0  0  0
 22 21  2  0  0  0  0
 23 24  2  0  0  0  0
 23 22  1  0  0  0  0
 24 25  1  0  0  0  0
 25 20  2  0  0  0  0
 27 22  1  0  0  0  0
 28 24  1  0  0  0  0
 29 28  1  0  0  0  0
 29 30  1  0  0  0  0
 31 29  2  0  0  0  0
 32 31  1  0  0  0  0
 33 31  1  0  0  0  0
 33 35  1  0  0  0  0
 34 33  1  0  0  0  0
 35 28  2  0  0  0  0
M  END
>  <minimizedAffinity>
-6.29902363

>  <minimizedRMSD>
0.428464979

$$$$
