
     RDKit          3D

 35 38  0  0  0  0  0  0  0  0999 V2000
   37.3118   29.3381   51.0228 Br  0  0  0  0  0  0  0  0  0  0  0  0
   35.9604   29.3253   49.6786 C   0  0  0  0  0  0  0  0  0  0  0  0
   35.9911   30.2534   48.6385 C   0  0  0  0  0  0  0  0  0  0  0  0
   34.9899   30.1921   47.7024 C   0  0  0  0  0  0  0  0  0  0  0  0
   33.9694   29.2588   47.7533 C   0  0  0  0  0  0  0  0  0  0  0  0
   33.9609   28.3625   48.7789 C   0  0  0  0  0  0  0  0  0  0  0  0
   34.9580   28.4100   49.7267 C   0  0  0  0  0  0  0  0  0  0  0  0
   37.9872   33.1967   49.4556 C   0  0  0  0  0  0  0  0  0  0  0  0
   39.0231   33.1764   48.4711 C   0  0  0  0  0  0  0  0  0  0  0  0
   39.0101   32.1519   47.5509 C   0  0  0  0  0  0  0  0  0  0  0  0
   38.0203   31.2080   47.6149 N   0  0  0  0  0  0  0  0  0  0  0  0
   37.0483   31.2462   48.5561 C   0  0  0  0  0  0  0  0  0  0  0  0
   37.0392   32.2534   49.4813 N   0  0  0  0  0  0  0  0  0  0  0  0
   32.9026   29.1904   46.7594 C   0  0  0  0  0  0  0  0  0  0  0  0
   32.2563   28.0396   46.3691 C   0  0  0  0  0  0  0  0  0  0  0  0
   31.2486   28.0365   45.4186 C   0  0  0  0  0  0  0  0  0  0  0  0
   30.8766   29.1826   44.8486 N   0  0  0  0  0  0  0  0  0  0  0  0
   31.4914   30.3143   45.2127 C   0  0  0  0  0  0  0  0  0  0  0  0
   32.4699   30.3117   46.1367 N   0  0  0  0  0  0  0  0  0  0  0  0
   34.9582   30.8843   46.8719 H   0  0  0  0  0  0  0  0  0  0  0  0
   33.1802   27.6169   48.8542 H   0  0  0  0  0  0  0  0  0  0  0  0
   34.9196   27.6731   50.5384 H   0  0  0  0  0  0  0  0  0  0  0  0
   37.9701   33.9923   50.1956 H   0  0  0  0  0  0  0  0  0  0  0  0
   39.7636   33.9378   48.4734 H   0  0  0  0  0  0  0  0  0  0  0  0
   39.7754   32.0887   46.7796 H   0  0  0  0  0  0  0  0  0  0  0  0
   32.5617   27.1086   46.8352 H   0  0  0  0  0  0  0  0  0  0  0  0
   30.7787   27.0901   45.1559 H   0  0  0  0  0  0  0  0  0  0  0  0
   31.1960   31.6412   44.6804 C   0  0  0  0  0  0  0  0  0  0  0  0
   31.4426   32.7754   45.4512 C   0  0  0  0  0  0  0  0  0  0  0  0
   31.8420   32.8408   46.4418 H   0  0  0  0  0  0  0  0  0  0  0  0
   31.0745   33.9066   44.7121 C   0  0  0  0  0  0  0  0  0  0  0  0
   31.1565   34.9271   45.0619 H   0  0  0  0  0  0  0  0  0  0  0  0
   30.6204   33.4094   43.5241 N   0  0  0  0  0  0  0  0  0  0  0  0
   30.2727   34.0275   42.7602 H   0  0  0  0  0  0  0  0  0  0  0  0
   30.6882   32.1011   43.5002 N   0  0  0  0  0  0  0  0  0  0  0  0
  2  7  2  0
  2  1  1  0
  3  2  1  0
  4  5  1  0
  4  3  2  0
  5  6  2  0
  6  7  1  0
  8 13  2  0
  9  8  1  0
 10 11  1  0
 10  9  2  0
 11 12  2  0
 12  3  1  0
 12 13  1  0
 14  5  1  0
 15 14  2  0
 16 15  1  0
 17 18  1  0
 17 16  2  0
 18 19  2  0
 19 14  1  0
  4 20  1  0
  6 21  1  0
  7 22  1  0
  8 23  1  0
  9 24  1  0
 10 25  1  0
 15 26  1  0
 16 27  1  0
 28 29  1  0
 29 30  1  0
 29 31  2  0
 31 32  1  0
 31 33  1  0
 33 34  1  0
 33 35  1  0
 35 28  2  0
 18 28  1  0
M  ISO  8  20  14  21  14  22  14  23  14  24  14  25  14  26  14  27  14
M  ISO  3  30  15  32  16  34   5
M  END
>  <DihAtoms>  (1) 
16,17,27,28

>  <DihDeg>  (1) 
108.17755277395162

$$$$
