
 OpenBabel03272510323D

 27 29  0  0  0  0  0  0  0  0999 V2000
   35.9650   30.1120   48.2160 C   0  0  0  0  0  0  0  0  0  0  0  0
   35.1600   30.0160   47.1100 C   0  0  0  0  0  0  0  0  0  0  0  0
   34.1070   29.1210   47.0750 C   0  0  0  0  0  0  0  0  0  0  0  0
   33.8820   28.3290   48.1680 C   0  0  0  0  0  0  0  0  0  0  0  0
   34.6830   28.4010   49.3130 C   0  0  0  0  0  0  0  0  0  0  0  0
   35.7360   29.3070   49.3270 C   0  0  0  0  0  0  0  0  0  0  0  0
   35.3120   30.6260   46.2340 H   0  0  0  0  0  0  0  0  0  0  0  0
   33.4400   28.9910   46.2520 H   0  0  0  0  0  0  0  0  0  0  0  0
   33.0850   27.6010   48.2340 H   0  0  0  0  0  0  0  0  0  0  0  0
   34.5100   27.7780   50.1780 H   0  0  0  0  0  0  0  0  0  0  0  0
   38.0340   32.9760   49.1060 C   0  0  0  0  0  0  0  0  0  0  0  0
   39.0780   32.9510   48.1860 C   0  0  0  0  0  0  0  0  0  0  0  0
   39.0660   31.9040   47.2210 C   0  0  0  0  0  0  0  0  0  0  0  0
   38.0470   31.0150   47.2680 N   0  0  0  0  0  0  0  0  0  0  0  0
   37.0520   31.0710   48.1760 C   0  0  0  0  0  0  0  0  0  0  0  0
   37.0680   32.0600   49.0820 N   0  0  0  0  0  0  0  0  0  0  0  0
   38.0990   33.7940   49.8110 H   0  0  0  0  0  0  0  0  0  0  0  0
   39.9150   33.6230   48.0910 H   0  0  0  0  0  0  0  0  0  0  0  0
   39.7960   31.7390   46.4400 H   0  0  0  0  0  0  0  0  0  0  0  0
   36.5870   29.4050   50.5090 C   0  0  0  0  0  0  0  0  0  0  0  0
   37.6410   28.4850   50.5590 C   0  0  0  0  0  0  0  0  0  0  0  0
   38.0210   27.6880   49.9410 H   0  0  0  0  0  0  0  0  0  0  0  0
   38.3360   28.7250   51.7410 C   0  0  0  0  0  0  0  0  0  0  0  0
   39.2210   28.2630   52.2040 H   0  0  0  0  0  0  0  0  0  0  0  0
   37.6990   29.7520   52.3530 N   0  0  0  0  0  0  0  0  0  0  0  0
   37.9300   30.2140   53.2680 H   0  0  0  0  0  0  0  0  0  0  0  0
   36.6570   30.1560   51.6190 N   0  0  0  0  0  0  0  0  0  0  0  0
  1  6  1  0  0  0  0
  2  1  2  0  0  0  0
  3  2  1  0  0  0  0
  3  4  2  0  0  0  0
  4  9  1  0  0  0  0
  4  5  1  0  0  0  0
  5  6  2  0  0  0  0
  5 10  1  0  0  0  0
  6 20  1  0  0  0  0
  7  2  1  0  0  0  0
  8  3  1  0  0  0  0
 11 17  1  0  0  0  0
 12 11  2  0  0  0  0
 13 14  2  0  0  0  0
 13 12  1  0  0  0  0
 14 15  1  0  0  0  0
 15  1  1  0  0  0  0
 15 16  2  0  0  0  0
 16 11  1  0  0  0  0
 18 12  1  0  0  0  0
 19 13  1  0  0  0  0
 20 21  1  0  0  0  0
 20 27  2  0  0  0  0
 21 23  2  0  0  0  0
 22 21  1  0  0  0  0
 23 24  1  0  0  0  0
 23 25  1  0  0  0  0
 25 26  1  0  0  0  0
 27 25  1  0  0  0  0
M  END
>  <minimizedAffinity>
-4.68311644

>  <minimizedRMSD>
0.562525988

$$$$
