
 OpenBabel03272509063D

 32 34  0  0  0  0  0  0  0  0999 V2000
   37.0500   24.8980   32.3380 C   0  0  0  0  0  3  0  0  0  0  0  0
   36.6820   23.6540   32.3050 C   0  0  0  0  0  3  0  0  0  0  0  0
   37.7830   27.2420   35.0470 C   0  0  0  0  0  0  0  0  0  0  0  0
   38.3150   26.3860   36.0340 C   0  0  0  0  0  0  0  0  0  0  0  0
   38.4080   25.0090   35.7340 C   0  0  0  0  0  0  0  0  0  0  0  0
   37.9770   24.5710   34.5010 N   0  0  0  0  0  0  0  0  0  0  0  0
   37.4790   25.4610   33.6120 C   0  0  0  0  0  0  0  0  0  0  0  0
   37.3800   26.7680   33.8720 N   0  0  0  0  0  0  0  0  0  0  0  0
   37.7510   28.2610   35.3610 H   0  0  0  0  0  0  0  0  0  0  0  0
   38.6580   26.6990   36.9990 H   0  0  0  0  0  0  0  0  0  0  0  0
   38.9430   24.0330   36.6800 C   0  0  0  0  0  0  0  0  0  0  0  0
   40.0710   23.2840   36.4110 C   0  0  0  0  0  0  0  0  0  0  0  0
   40.7210   23.2610   35.5490 H   0  0  0  0  0  0  0  0  0  0  0  0
   40.3010   22.4600   37.5190 C   0  0  0  0  0  0  0  0  0  0  0  0
   41.1070   21.7500   37.6310 H   0  0  0  0  0  0  0  0  0  0  0  0
   39.3070   22.7410   38.4110 N   0  0  0  0  0  0  0  0  0  0  0  0
   39.2460   22.2520   39.3400 H   0  0  0  0  0  0  0  0  0  0  0  0
   38.5080   23.6750   37.9020 N   0  0  0  0  0  0  0  0  0  0  0  0
   36.2040   22.8580   31.1650 C   0  0  0  0  0  0  0  0  0  0  0  0
   35.1990   23.2520   30.8650 H   0  0  0  0  0  0  0  0  0  0  0  0
   36.9350   22.9600   30.3390 H   0  0  0  0  0  0  0  0  0  0  0  0
   36.0170   21.4140   31.4920 C   0  0  0  0  0  0  0  0  0  0  0  0
   36.2960   20.3650   30.6360 C   0  0  0  0  0  0  0  0  0  0  0  0
   36.0890   19.0590   31.0260 C   0  0  0  0  0  0  0  0  0  0  0  0
   35.5970   18.7580   32.2910 C   0  0  0  0  0  0  0  0  0  0  0  0
   35.3210   19.7900   33.1390 C   0  0  0  0  0  0  0  0  0  0  0  0
   35.5250   21.0920   32.7530 C   0  0  0  0  0  0  0  0  0  0  0  0
   36.6780   20.6280   29.6550 H   0  0  0  0  0  0  0  0  0  0  0  0
   36.3100   18.2410   30.3500 H   0  0  0  0  0  0  0  0  0  0  0  0
   35.4170   17.7490   32.6480 H   0  0  0  0  0  0  0  0  0  0  0  0
   34.9340   19.6200   34.1410 H   0  0  0  0  0  0  0  0  0  0  0  0
   35.2960   21.9020   33.4510 H   0  0  0  0  0  0  0  0  0  0  0  0
  1  7  1  0  0  0  0
  2  1  2  0  0  0  0
  3  9  1  0  0  0  0
  3  4  1  0  0  0  0
  4 10  1  0  0  0  0
  5  4  2  0  0  0  0
  5 11  1  0  0  0  0
  6  5  1  0  0  0  0
  7  8  1  0  0  0  0
  7  6  2  0  0  0  0
  8  3  2  0  0  0  0
 11 18  2  0  0  0  0
 12 11  1  0  0  0  0
 12 14  2  0  0  0  0
 13 12  1  0  0  0  0
 14 15  1  0  0  0  0
 14 16  1  0  0  0  0
 16 17  1  0  0  0  0
 18 16  1  0  0  0  0
 19 22  1  0  0  0  0
 19  2  1  0  0  0  0
 20 19  1  0  0  0  0
 21 19  1  0  0  0  0
 22 27  1  0  0  0  0
 23 24  1  0  0  0  0
 23 22  2  0  0  0  0
 24 25  2  0  0  0  0
 25 30  1  0  0  0  0
 25 26  1  0  0  0  0
 26 31  1  0  0  0  0
 27 26  2  0  0  0  0
 27 32  1  0  0  0  0
 28 23  1  0  0  0  0
 29 24  1  0  0  0  0
M  END
>  <minimizedAffinity>
-5.86433458

$$$$

 OpenBabel03272509063D

 32 34  0  0  0  0  0  0  0  0999 V2000
   36.8750   27.9230   34.3440 C   0  0  0  0  0  3  0  0  0  0  0  0
   36.2870   28.4700   33.3250 C   0  0  0  0  0  3  0  0  0  0  0  0
   37.5920   24.5800   33.0490 C   0  0  0  0  0  0  0  0  0  0  0  0
   38.0030   23.9000   34.2150 C   0  0  0  0  0  0  0  0  0  0  0  0
   38.0200   24.6220   35.4290 C   0  0  0  0  0  0  0  0  0  0  0  0
   37.6390   25.9450   35.4160 N   0  0  0  0  0  0  0  0  0  0  0  0
   37.2590   26.5200   34.2530 C   0  0  0  0  0  0  0  0  0  0  0  0
   37.2340   25.8590   33.0910 N   0  0  0  0  0  0  0  0  0  0  0  0
   37.6110   23.9570   32.1830 H   0  0  0  0  0  0  0  0  0  0  0  0
   38.3030   22.8720   34.2540 H   0  0  0  0  0  0  0  0  0  0  0  0
   38.4270   24.0180   36.6960 C   0  0  0  0  0  0  0  0  0  0  0  0
   37.9490   24.4620   37.9130 C   0  0  0  0  0  0  0  0  0  0  0  0
   37.2570   25.2530   38.1600 H   0  0  0  0  0  0  0  0  0  0  0  0
   38.5370   23.6710   38.9070 C   0  0  0  0  0  0  0  0  0  0  0  0
   38.3750   23.7570   39.9720 H   0  0  0  0  0  0  0  0  0  0  0  0
   39.3450   22.7840   38.2550 N   0  0  0  0  0  0  0  0  0  0  0  0
   39.9100   22.0670   38.7780 H   0  0  0  0  0  0  0  0  0  0  0  0
   39.2710   23.0000   36.9450 N   0  0  0  0  0  0  0  0  0  0  0  0
   35.7960   29.8470   33.1650 C   0  0  0  0  0  0  0  0  0  0  0  0
   36.6750   30.5040   32.9390 H   0  0  0  0  0  0  0  0  0  0  0  0
   35.0650   29.8590   32.3340 H   0  0  0  0  0  0  0  0  0  0  0  0
   35.1610   30.3940   34.4000 C   0  0  0  0  0  0  0  0  0  0  0  0
   35.7940   31.2030   35.3250 C   0  0  0  0  0  0  0  0  0  0  0  0
   35.1230   31.6600   36.4400 C   0  0  0  0  0  0  0  0  0  0  0  0
   33.7940   31.3240   36.6660 C   0  0  0  0  0  0  0  0  0  0  0  0
   33.1660   30.5260   35.7550 C   0  0  0  0  0  0  0  0  0  0  0  0
   33.8310   30.0690   34.6440 C   0  0  0  0  0  0  0  0  0  0  0  0
   36.8310   31.4490   35.1250 H   0  0  0  0  0  0  0  0  0  0  0  0
   35.6260   32.2950   37.1610 H   0  0  0  0  0  0  0  0  0  0  0  0
   33.2210   31.6570   37.5250 H   0  0  0  0  0  0  0  0  0  0  0  0
   32.1270   30.2270   35.8750 H   0  0  0  0  0  0  0  0  0  0  0  0
   33.3050   29.4300   33.9270 H   0  0  0  0  0  0  0  0  0  0  0  0
  2  1  2  0  0  0  0
  3  8  2  0  0  0  0
  3  4  1  0  0  0  0
  4 10  1  0  0  0  0
  4  5  2  0  0  0  0
  5 11  1  0  0  0  0
  6  5  1  0  0  0  0
  7  1  1  0  0  0  0
  7  6  2  0  0  0  0
  8  7  1  0  0  0  0
  9  3  1  0  0  0  0
 11 18  2  0  0  0  0
 11 12  1  0  0  0  0
 12 13  1  0  0  0  0
 12 14  2  0  0  0  0
 14 15  1  0  0  0  0
 16 17  1  0  0  0  0
 16 14  1  0  0  0  0
 18 16  1  0  0  0  0
 19  2  1  0  0  0  0
 19 22  1  0  0  0  0
 20 19  1  0  0  0  0
 21 19  1  0  0  0  0
 22 27  2  0  0  0  0
 22 23  1  0  0  0  0
 23 24  2  0  0  0  0
 24 25  1  0  0  0  0
 24 29  1  0  0  0  0
 25 30  1  0  0  0  0
 26 31  1  0  0  0  0
 26 25  2  0  0  0  0
 27 26  1  0  0  0  0
 28 23  1  0  0  0  0
 32 27  1  0  0  0  0
M  END
>  <minimizedAffinity>
-5.82008076

$$$$

 OpenBabel03272509063D

 32 34  0  0  0  0  0  0  0  0999 V2000
   36.6560   27.8150   34.5370 C   0  0  0  0  0  3  0  0  0  0  0  0
   36.2050   28.4420   33.4950 C   0  0  0  0  0  3  0  0  0  0  0  0
   37.8960   24.7310   33.0150 C   0  0  0  0  0  0  0  0  0  0  0  0
   38.3200   24.0000   34.1450 C   0  0  0  0  0  0  0  0  0  0  0  0
   38.1640   24.5990   35.4150 C   0  0  0  0  0  0  0  0  0  0  0  0
   37.6100   25.8580   35.4880 N   0  0  0  0  0  0  0  0  0  0  0  0
   37.2300   26.4880   34.3530 C   0  0  0  0  0  0  0  0  0  0  0  0
   37.3680   25.9440   33.1400 N   0  0  0  0  0  0  0  0  0  0  0  0
   38.0540   24.2020   32.1010 H   0  0  0  0  0  0  0  0  0  0  0  0
   38.7530   23.0210   34.1170 H   0  0  0  0  0  0  0  0  0  0  0  0
   38.5670   23.9340   36.6520 C   0  0  0  0  0  0  0  0  0  0  0  0
   38.0350   24.2720   37.8800 C   0  0  0  0  0  0  0  0  0  0  0  0
   37.2970   25.0100   38.1570 H   0  0  0  0  0  0  0  0  0  0  0  0
   38.6350   23.4480   38.8380 C   0  0  0  0  0  0  0  0  0  0  0  0
   38.4410   23.4550   39.9010 H   0  0  0  0  0  0  0  0  0  0  0  0
   39.5050   22.6470   38.1550 N   0  0  0  0  0  0  0  0  0  0  0  0
   40.0920   21.9250   38.6470 H   0  0  0  0  0  0  0  0  0  0  0  0
   39.4550   22.9450   36.8600 N   0  0  0  0  0  0  0  0  0  0  0  0
   35.5770   29.7690   33.4090 C   0  0  0  0  0  0  0  0  0  0  0  0
   36.1130   30.4520   34.1170 H   0  0  0  0  0  0  0  0  0  0  0  0
   35.6670   30.1280   32.3650 H   0  0  0  0  0  0  0  0  0  0  0  0
   34.1420   29.7700   33.8170 C   0  0  0  0  0  0  0  0  0  0  0  0
   33.6670   30.2020   35.0420 C   0  0  0  0  0  0  0  0  0  0  0  0
   32.3190   30.1640   35.3300 C   0  0  0  0  0  0  0  0  0  0  0  0
   31.3990   29.6940   34.4010 C   0  0  0  0  0  0  0  0  0  0  0  0
   31.8640   29.2680   33.1910 C   0  0  0  0  0  0  0  0  0  0  0  0
   33.2050   29.3040   32.9010 C   0  0  0  0  0  0  0  0  0  0  0  0
   34.4060   30.5630   35.7490 H   0  0  0  0  0  0  0  0  0  0  0  0
   31.9530   30.5050   36.2930 H   0  0  0  0  0  0  0  0  0  0  0  0
   30.3290   29.6440   34.5770 H   0  0  0  0  0  0  0  0  0  0  0  0
   31.1950   28.8890   32.4220 H   0  0  0  0  0  0  0  0  0  0  0  0
   33.5540   28.9560   31.9230 H   0  0  0  0  0  0  0  0  0  0  0  0
  2  1  2  0  0  0  0
  3  8  2  0  0  0  0
  3  4  1  0  0  0  0
  4  5  2  0  0  0  0
  5  6  1  0  0  0  0
  5 11  1  0  0  0  0
  7  1  1  0  0  0  0
  7  6  2  0  0  0  0
  8  7  1  0  0  0  0
  9  3  1  0  0  0  0
 10  4  1  0  0  0  0
 11 18  2  0  0  0  0
 11 12  1  0  0  0  0
 12 13  1  0  0  0  0
 12 14  2  0  0  0  0
 14 15  1  0  0  0  0
 16 17  1  0  0  0  0
 16 14  1  0  0  0  0
 18 16  1  0  0  0  0
 19  2  1  0  0  0  0
 19 22  1  0  0  0  0
 19 20  1  0  0  0  0
 21 19  1  0  0  0  0
 22 23  1  0  0  0  0
 23 24  2  0  0  0  0
 23 28  1  0  0  0  0
 24 29  1  0  0  0  0
 25 30  1  0  0  0  0
 25 24  1  0  0  0  0
 26 25  2  0  0  0  0
 27 26  1  0  0  0  0
 27 22  2  0  0  0  0
 31 26  1  0  0  0  0
 32 27  1  0  0  0  0
M  END
>  <minimizedAffinity>
-5.52032232

$$$$

 OpenBabel03272509063D

 32 34  0  0  0  0  0  0  0  0999 V2000
   36.5780   28.4810   34.7830 C   0  0  0  0  0  3  0  0  0  0  0  0
   35.5040   28.8990   34.1860 C   0  0  0  0  0  3  0  0  0  0  0  0
   37.8670   25.7310   32.7480 C   0  0  0  0  0  0  0  0  0  0  0  0
   38.2250   24.7850   33.7320 C   0  0  0  0  0  0  0  0  0  0  0  0
   38.0090   25.1270   35.0850 C   0  0  0  0  0  0  0  0  0  0  0  0
   37.4640   26.3570   35.3770 N   0  0  0  0  0  0  0  0  0  0  0  0
   37.1490   27.2050   34.3710 C   0  0  0  0  0  0  0  0  0  0  0  0
   37.3440   26.9060   33.0830 N   0  0  0  0  0  0  0  0  0  0  0  0
   38.0660   25.3880   31.7570 H   0  0  0  0  0  0  0  0  0  0  0  0
   38.6490   23.8220   33.5340 H   0  0  0  0  0  0  0  0  0  0  0  0
   38.3410   24.2250   36.1860 C   0  0  0  0  0  0  0  0  0  0  0  0
   38.0150   24.5080   37.4970 C   0  0  0  0  0  0  0  0  0  0  0  0
   37.5060   25.3520   37.9380 H   0  0  0  0  0  0  0  0  0  0  0  0
   38.4750   23.4440   38.2820 C   0  0  0  0  0  0  0  0  0  0  0  0
   38.3790   23.3520   39.3540 H   0  0  0  0  0  0  0  0  0  0  0  0
   39.0600   22.5640   37.4180 N   0  0  0  0  0  0  0  0  0  0  0  0
   39.4930   21.6660   37.7560 H   0  0  0  0  0  0  0  0  0  0  0  0
   38.9750   23.0380   36.1790 N   0  0  0  0  0  0  0  0  0  0  0  0
   34.7340   30.1300   34.4160 C   0  0  0  0  0  0  0  0  0  0  0  0
   33.9210   30.1780   33.6460 H   0  0  0  0  0  0  0  0  0  0  0  0
   34.3120   30.0890   35.4390 H   0  0  0  0  0  0  0  0  0  0  0  0
   35.5460   31.3720   34.2590 C   0  0  0  0  0  0  0  0  0  0  0  0
   35.8860   31.9490   33.0490 C   0  0  0  0  0  0  0  0  0  0  0  0
   36.6430   33.1000   33.0030 C   0  0  0  0  0  0  0  0  0  0  0  0
   37.0850   33.7150   34.1680 C   0  0  0  0  0  0  0  0  0  0  0  0
   36.7510   33.1500   35.3630 C   0  0  0  0  0  0  0  0  0  0  0  0
   35.9970   32.0030   35.4130 C   0  0  0  0  0  0  0  0  0  0  0  0
   35.5290   31.4480   32.1560 H   0  0  0  0  0  0  0  0  0  0  0  0
   36.9060   33.5470   32.0510 H   0  0  0  0  0  0  0  0  0  0  0  0
   37.6820   34.6210   34.1880 H   0  0  0  0  0  0  0  0  0  0  0  0
   37.0660   33.5820   36.3100 H   0  0  0  0  0  0  0  0  0  0  0  0
   35.7430   31.5680   36.3850 H   0  0  0  0  0  0  0  0  0  0  0  0
  2 19  1  0  0  0  0
  2  1  2  0  0  0  0
  3  8  2  0  0  0  0
  3  4  1  0  0  0  0
  4  5  2  0  0  0  0
  5  6  1  0  0  0  0
  5 11  1  0  0  0  0
  7  1  1  0  0  0  0
  7  6  2  0  0  0  0
  8  7  1  0  0  0  0
  9  3  1  0  0  0  0
 10  4  1  0  0  0  0
 11 12  1  0  0  0  0
 12 13  1  0  0  0  0
 12 14  2  0  0  0  0
 14 15  1  0  0  0  0
 16 17  1  0  0  0  0
 16 14  1  0  0  0  0
 18 11  2  0  0  0  0
 18 16  1  0  0  0  0
 19 21  1  0  0  0  0
 20 19  1  0  0  0  0
 22 19  1  0  0  0  0
 22 27  1  0  0  0  0
 23 22  2  0  0  0  0
 24 23  1  0  0  0  0
 24 25  2  0  0  0  0
 25 30  1  0  0  0  0
 25 26  1  0  0  0  0
 26 27  2  0  0  0  0
 26 31  1  0  0  0  0
 27 32  1  0  0  0  0
 28 23  1  0  0  0  0
 29 24  1  0  0  0  0
M  END
>  <minimizedAffinity>
-5.42246056

$$$$

 OpenBabel03272509063D

 32 34  0  0  0  0  0  0  0  0999 V2000
   36.9750   27.8390   34.4290 C   0  0  0  0  0  3  0  0  0  0  0  0
   36.0640   28.3100   33.6340 C   0  0  0  0  0  3  0  0  0  0  0  0
   37.6700   24.5300   33.0400 C   0  0  0  0  0  0  0  0  0  0  0  0
   38.0930   23.8190   34.1840 C   0  0  0  0  0  0  0  0  0  0  0  0
   38.1270   24.5100   35.4150 C   0  0  0  0  0  0  0  0  0  0  0  0
   37.7490   25.8330   35.4400 N   0  0  0  0  0  0  0  0  0  0  0  0
   37.3560   26.4390   34.2970 C   0  0  0  0  0  0  0  0  0  0  0  0
   37.3160   25.8080   33.1190 N   0  0  0  0  0  0  0  0  0  0  0  0
   37.6780   23.9290   32.1580 H   0  0  0  0  0  0  0  0  0  0  0  0
   38.3920   22.7910   34.1920 H   0  0  0  0  0  0  0  0  0  0  0  0
   38.5480   23.8730   36.6610 C   0  0  0  0  0  0  0  0  0  0  0  0
   38.0130   24.2210   37.8850 C   0  0  0  0  0  0  0  0  0  0  0  0
   37.2610   24.9480   38.1530 H   0  0  0  0  0  0  0  0  0  0  0  0
   38.6330   23.4240   38.8550 C   0  0  0  0  0  0  0  0  0  0  0  0
   38.4420   23.4450   39.9180 H   0  0  0  0  0  0  0  0  0  0  0  0
   39.5160   22.6300   38.1820 N   0  0  0  0  0  0  0  0  0  0  0  0
   40.1190   21.9280   38.6830 H   0  0  0  0  0  0  0  0  0  0  0  0
   39.4560   22.9050   36.8820 N   0  0  0  0  0  0  0  0  0  0  0  0
   35.5000   29.6660   33.5670 C   0  0  0  0  0  0  0  0  0  0  0  0
   34.3880   29.5740   33.4720 H   0  0  0  0  0  0  0  0  0  0  0  0
   35.7790   30.2030   34.4940 H   0  0  0  0  0  0  0  0  0  0  0  0
   35.9670   30.4410   32.3800 C   0  0  0  0  0  0  0  0  0  0  0  0
   36.1150   31.8140   32.3380 C   0  0  0  0  0  0  0  0  0  0  0  0
   36.5530   32.4440   31.1930 C   0  0  0  0  0  0  0  0  0  0  0  0
   36.8600   31.7180   30.0480 C   0  0  0  0  0  0  0  0  0  0  0  0
   36.7170   30.3630   30.0850 C   0  0  0  0  0  0  0  0  0  0  0  0
   36.2800   29.7330   31.2240 C   0  0  0  0  0  0  0  0  0  0  0  0
   35.8680   32.3560   33.2450 H   0  0  0  0  0  0  0  0  0  0  0  0
   36.6680   33.5220   31.1670 H   0  0  0  0  0  0  0  0  0  0  0  0
   37.2090   32.1640   29.1220 H   0  0  0  0  0  0  0  0  0  0  0  0
   36.9400   29.7390   29.2230 H   0  0  0  0  0  0  0  0  0  0  0  0
   36.1730   28.6430   31.2290 H   0  0  0  0  0  0  0  0  0  0  0  0
  2  1  2  0  0  0  0
  3  8  2  0  0  0  0
  3  4  1  0  0  0  0
  4 10  1  0  0  0  0
  4  5  2  0  0  0  0
  5  6  1  0  0  0  0
  5 11  1  0  0  0  0
  7  1  1  0  0  0  0
  7  6  2  0  0  0  0
  8  7  1  0  0  0  0
  9  3  1  0  0  0  0
 11 18  2  0  0  0  0
 11 12  1  0  0  0  0
 12 13  1  0  0  0  0
 12 14  2  0  0  0  0
 14 15  1  0  0  0  0
 16 17  1  0  0  0  0
 16 14  1  0  0  0  0
 18 16  1  0  0  0  0
 19  2  1  0  0  0  0
 19 21  1  0  0  0  0
 20 19  1  0  0  0  0
 22 19  1  0  0  0  0
 23 22  1  0  0  0  0
 23 28  1  0  0  0  0
 24 23  2  0  0  0  0
 25 26  2  0  0  0  0
 25 24  1  0  0  0  0
 26 27  1  0  0  0  0
 27 32  1  0  0  0  0
 27 22  2  0  0  0  0
 29 24  1  0  0  0  0
 30 25  1  0  0  0  0
 31 26  1  0  0  0  0
M  END
>  <minimizedAffinity>
-5.41626978

$$$$

 OpenBabel03272509063D

 32 34  0  0  0  0  0  0  0  0999 V2000
   36.7040   27.5830   34.5990 C   0  0  0  0  0  3  0  0  0  0  0  0
   37.9420   27.5540   34.9900 C   0  0  0  0  0  3  0  0  0  0  0  0
   35.1310   29.9530   32.3020 C   0  0  0  0  0  0  0  0  0  0  0  0
   35.8500   29.7210   31.1100 C   0  0  0  0  0  0  0  0  0  0  0  0
   36.8680   28.7430   31.1330 C   0  0  0  0  0  0  0  0  0  0  0  0
   37.1090   28.0680   32.3080 N   0  0  0  0  0  0  0  0  0  0  0  0
   36.3720   28.3520   33.4060 C   0  0  0  0  0  0  0  0  0  0  0  0
   35.4040   29.2730   33.4110 N   0  0  0  0  0  0  0  0  0  0  0  0
   34.3840   30.7070   32.1910 H   0  0  0  0  0  0  0  0  0  0  0  0
   35.6830   30.2310   30.1830 H   0  0  0  0  0  0  0  0  0  0  0  0
   37.6740   28.4210   29.9570 C   0  0  0  0  0  0  0  0  0  0  0  0
   38.7910   27.6120   30.0260 C   0  0  0  0  0  0  0  0  0  0  0  0
   39.2530   27.1050   30.8610 H   0  0  0  0  0  0  0  0  0  0  0  0
   39.3170   27.5130   28.7330 C   0  0  0  0  0  0  0  0  0  0  0  0
   40.1930   26.9530   28.4400 H   0  0  0  0  0  0  0  0  0  0  0  0
   38.5020   28.2640   27.9360 N   0  0  0  0  0  0  0  0  0  0  0  0
   38.6780   28.3600   26.9030 H   0  0  0  0  0  0  0  0  0  0  0  0
   37.5320   28.7970   28.6730 N   0  0  0  0  0  0  0  0  0  0  0  0
   38.5330   26.8710   36.1500 C   0  0  0  0  0  0  0  0  0  0  0  0
   39.6200   27.1360   36.1900 H   0  0  0  0  0  0  0  0  0  0  0  0
   38.0040   27.2150   37.0600 H   0  0  0  0  0  0  0  0  0  0  0  0
   38.4580   25.3830   36.0590 C   0  0  0  0  0  0  0  0  0  0  0  0
   38.8820   24.6330   34.9780 C   0  0  0  0  0  0  0  0  0  0  0  0
   38.7720   23.2580   34.9850 C   0  0  0  0  0  0  0  0  0  0  0  0
   38.2340   22.5870   36.0770 C   0  0  0  0  0  0  0  0  0  0  0  0
   37.8160   23.3240   37.1460 C   0  0  0  0  0  0  0  0  0  0  0  0
   37.9240   24.6930   37.1420 C   0  0  0  0  0  0  0  0  0  0  0  0
   39.2960   25.1820   34.1400 H   0  0  0  0  0  0  0  0  0  0  0  0
   39.1060   22.6760   34.1340 H   0  0  0  0  0  0  0  0  0  0  0  0
   38.1260   21.5090   36.1340 H   0  0  0  0  0  0  0  0  0  0  0  0
   37.3870   22.8580   38.0300 H   0  0  0  0  0  0  0  0  0  0  0  0
   37.5810   25.2620   38.0120 H   0  0  0  0  0  0  0  0  0  0  0  0
  1  2  2  0  0  0  0
  2 19  1  0  0  0  0
  3  8  1  0  0  0  0
  4  5  1  0  0  0  0
  4  3  2  0  0  0  0
  5  6  2  0  0  0  0
  6  7  1  0  0  0  0
  7  8  2  0  0  0  0
  7  1  1  0  0  0  0
  9  3  1  0  0  0  0
 10  4  1  0  0  0  0
 11 12  1  0  0  0  0
 11  5  1  0  0  0  0
 12 13  1  0  0  0  0
 14 12  2  0  0  0  0
 15 14  1  0  0  0  0
 16 18  1  0  0  0  0
 16 14  1  0  0  0  0
 17 16  1  0  0  0  0
 18 11  2  0  0  0  0
 19 20  1  0  0  0  0
 19 21  1  0  0  0  0
 22 19  1  0  0  0  0
 22 27  1  0  0  0  0
 23 24  1  0  0  0  0
 23 22  2  0  0  0  0
 24 25  2  0  0  0  0
 25 30  1  0  0  0  0
 25 26  1  0  0  0  0
 26 31  1  0  0  0  0
 27 26  2  0  0  0  0
 27 32  1  0  0  0  0
 28 23  1  0  0  0  0
 29 24  1  0  0  0  0
M  END
>  <minimizedAffinity>
-5.17821884

$$$$

 OpenBabel03272509063D

 32 34  0  0  0  0  0  0  0  0999 V2000
   38.2020   26.3570   33.4330 C   0  0  0  0  0  3  0  0  0  0  0  0
   37.7910   25.3610   34.1570 C   0  0  0  0  0  3  0  0  0  0  0  0
   35.7100   28.9510   34.0840 C   0  0  0  0  0  0  0  0  0  0  0  0
   35.7520   29.7000   32.8880 C   0  0  0  0  0  0  0  0  0  0  0  0
   36.6480   29.2830   31.8800 C   0  0  0  0  0  0  0  0  0  0  0  0
   37.4330   28.1750   32.1110 N   0  0  0  0  0  0  0  0  0  0  0  0
   37.3290   27.5150   33.2860 C   0  0  0  0  0  0  0  0  0  0  0  0
   36.4890   27.8890   34.2560 N   0  0  0  0  0  0  0  0  0  0  0  0
   35.0060   29.3390   34.7860 H   0  0  0  0  0  0  0  0  0  0  0  0
   35.1530   30.5630   32.6820 H   0  0  0  0  0  0  0  0  0  0  0  0
   36.7750   29.9820   30.6030 C   0  0  0  0  0  0  0  0  0  0  0  0
   37.4830   29.4580   29.5400 C   0  0  0  0  0  0  0  0  0  0  0  0
   38.0280   28.5320   29.4360 H   0  0  0  0  0  0  0  0  0  0  0  0
   37.3990   30.3760   28.4880 C   0  0  0  0  0  0  0  0  0  0  0  0
   37.8450   30.2700   27.5090 H   0  0  0  0  0  0  0  0  0  0  0  0
   36.6490   31.4170   28.9540 N   0  0  0  0  0  0  0  0  0  0  0  0
   36.4320   32.2530   28.3520 H   0  0  0  0  0  0  0  0  0  0  0  0
   36.2840   31.1710   30.2090 N   0  0  0  0  0  0  0  0  0  0  0  0
   38.4650   24.0890   34.4530 C   0  0  0  0  0  0  0  0  0  0  0  0
   37.8180   23.2570   34.0710 H   0  0  0  0  0  0  0  0  0  0  0  0
   39.4500   24.0920   33.9480 H   0  0  0  0  0  0  0  0  0  0  0  0
   38.6520   23.8470   35.9140 C   0  0  0  0  0  0  0  0  0  0  0  0
   39.6410   23.0540   36.4650 C   0  0  0  0  0  0  0  0  0  0  0  0
   39.7350   22.8880   37.8310 C   0  0  0  0  0  0  0  0  0  0  0  0
   38.8420   23.5140   38.6930 C   0  0  0  0  0  0  0  0  0  0  0  0
   37.8650   24.2980   38.1530 C   0  0  0  0  0  0  0  0  0  0  0  0
   37.7680   24.4640   36.7930 C   0  0  0  0  0  0  0  0  0  0  0  0
   40.3240   22.5770   35.7700 H   0  0  0  0  0  0  0  0  0  0  0  0
   40.5130   22.2650   38.2570 H   0  0  0  0  0  0  0  0  0  0  0  0
   38.8720   23.4180   39.7730 H   0  0  0  0  0  0  0  0  0  0  0  0
   37.1360   24.8130   38.7730 H   0  0  0  0  0  0  0  0  0  0  0  0
   36.9760   25.0980   36.3840 H   0  0  0  0  0  0  0  0  0  0  0  0
  1  2  2  0  0  0  0
  2 19  1  0  0  0  0
  3  8  1  0  0  0  0
  3  9  1  0  0  0  0
  4  3  2  0  0  0  0
  5  6  2  0  0  0  0
  5  4  1  0  0  0  0
  6  7  1  0  0  0  0
  7  1  1  0  0  0  0
  7  8  2  0  0  0  0
 10  4  1  0  0  0  0
 11  5  1  0  0  0  0
 12 11  1  0  0  0  0
 13 12  1  0  0  0  0
 14 16  1  0  0  0  0
 14 12  2  0  0  0  0
 15 14  1  0  0  0  0
 16 18  1  0  0  0  0
 17 16  1  0  0  0  0
 18 11  2  0  0  0  0
 19 22  1  0  0  0  0
 20 19  1  0  0  0  0
 21 19  1  0  0  0  0
 22 23  2  0  0  0  0
 22 27  1  0  0  0  0
 23 24  1  0  0  0  0
 24 29  1  0  0  0  0
 24 25  2  0  0  0  0
 25 30  1  0  0  0  0
 26 25  1  0  0  0  0
 26 31  1  0  0  0  0
 27 26  2  0  0  0  0
 28 23  1  0  0  0  0
 32 27  1  0  0  0  0
M  END
>  <minimizedAffinity>
-5.11886168

$$$$

 OpenBabel03272509063D

 32 34  0  0  0  0  0  0  0  0999 V2000
   38.3540   25.8330   33.2300 C   0  0  0  0  0  3  0  0  0  0  0  0
   39.1320   24.9570   33.7880 C   0  0  0  0  0  3  0  0  0  0  0  0
   35.3700   25.7270   31.1210 C   0  0  0  0  0  0  0  0  0  0  0  0
   35.1390   24.3380   31.0160 C   0  0  0  0  0  0  0  0  0  0  0  0
   36.0300   23.4690   31.6830 C   0  0  0  0  0  0  0  0  0  0  0  0
   37.0730   24.0140   32.3990 N   0  0  0  0  0  0  0  0  0  0  0  0
   37.2210   25.3570   32.4480 C   0  0  0  0  0  0  0  0  0  0  0  0
   36.3920   26.2010   31.8250 N   0  0  0  0  0  0  0  0  0  0  0  0
   34.6490   26.3040   30.5860 H   0  0  0  0  0  0  0  0  0  0  0  0
   34.3370   23.8880   30.4680 H   0  0  0  0  0  0  0  0  0  0  0  0
   35.8870   22.0160   31.6430 C   0  0  0  0  0  0  0  0  0  0  0  0
   35.1420   21.3200   32.5750 C   0  0  0  0  0  0  0  0  0  0  0  0
   34.5750   21.6590   33.4290 H   0  0  0  0  0  0  0  0  0  0  0  0
   35.2170   19.9630   32.2420 C   0  0  0  0  0  0  0  0  0  0  0  0
   34.7440   19.1470   32.7710 H   0  0  0  0  0  0  0  0  0  0  0  0
   36.0020   19.8900   31.1270 N   0  0  0  0  0  0  0  0  0  0  0  0
   36.2200   18.9700   30.6670 H   0  0  0  0  0  0  0  0  0  0  0  0
   36.3930   21.1140   30.7820 N   0  0  0  0  0  0  0  0  0  0  0  0
   40.3320   25.1700   34.6100 C   0  0  0  0  0  0  0  0  0  0  0  0
   41.2160   25.2220   33.9240 H   0  0  0  0  0  0  0  0  0  0  0  0
   40.2050   26.1170   35.1690 H   0  0  0  0  0  0  0  0  0  0  0  0
   40.5980   24.0560   35.5660 C   0  0  0  0  0  0  0  0  0  0  0  0
   41.8230   23.4410   35.7450 C   0  0  0  0  0  0  0  0  0  0  0  0
   41.9720   22.4150   36.6540 C   0  0  0  0  0  0  0  0  0  0  0  0
   40.8990   21.9700   37.4170 C   0  0  0  0  0  0  0  0  0  0  0  0
   39.6890   22.5750   37.2440 C   0  0  0  0  0  0  0  0  0  0  0  0
   39.5370   23.5970   36.3390 C   0  0  0  0  0  0  0  0  0  0  0  0
   42.6430   23.8060   35.1370 H   0  0  0  0  0  0  0  0  0  0  0  0
   42.9360   21.9370   36.7900 H   0  0  0  0  0  0  0  0  0  0  0  0
   40.9630   21.1680   38.1460 H   0  0  0  0  0  0  0  0  0  0  0  0
   38.8110   22.2730   37.8100 H   0  0  0  0  0  0  0  0  0  0  0  0
   38.5550   24.0660   36.2180 H   0  0  0  0  0  0  0  0  0  0  0  0
  1  2  2  0  0  0  0
  2 19  1  0  0  0  0
  3  8  1  0  0  0  0
  4  3  2  0  0  0  0
  4  5  1  0  0  0  0
  5  6  2  0  0  0  0
  6  7  1  0  0  0  0
  7  1  1  0  0  0  0
  8  7  2  0  0  0  0
  9  3  1  0  0  0  0
 10  4  1  0  0  0  0
 11  5  1  0  0  0  0
 11 12  1  0  0  0  0
 12 13  1  0  0  0  0
 14 12  2  0  0  0  0
 14 15  1  0  0  0  0
 16 14  1  0  0  0  0
 17 16  1  0  0  0  0
 18 16  1  0  0  0  0
 18 11  2  0  0  0  0
 19 21  1  0  0  0  0
 19 22  1  0  0  0  0
 20 19  1  0  0  0  0
 22 23  2  0  0  0  0
 22 27  1  0  0  0  0
 23 24  1  0  0  0  0
 24 29  1  0  0  0  0
 24 25  2  0  0  0  0
 25 30  1  0  0  0  0
 26 25  1  0  0  0  0
 26 31  1  0  0  0  0
 27 26  2  0  0  0  0
 28 23  1  0  0  0  0
 32 27  1  0  0  0  0
M  END
>  <minimizedAffinity>
-5.03854656

$$$$

 OpenBabel03272509063D

 32 34  0  0  0  0  0  0  0  0999 V2000
   37.1400   27.6110   33.4990 C   0  0  0  0  0  3  0  0  0  0  0  0
   36.2930   28.2450   32.7470 C   0  0  0  0  0  3  0  0  0  0  0  0
   37.0060   24.2310   32.1140 C   0  0  0  0  0  0  0  0  0  0  0  0
   37.5600   23.4660   33.1630 C   0  0  0  0  0  0  0  0  0  0  0  0
   37.9670   24.1460   34.3310 C   0  0  0  0  0  0  0  0  0  0  0  0
   37.8070   25.5120   34.3900 N   0  0  0  0  0  0  0  0  0  0  0  0
   37.2670   26.1680   33.3380 C   0  0  0  0  0  0  0  0  0  0  0  0
   36.8740   25.5490   32.2210 N   0  0  0  0  0  0  0  0  0  0  0  0
   36.7290   23.6350   31.2730 H   0  0  0  0  0  0  0  0  0  0  0  0
   37.6950   22.4040   33.1440 H   0  0  0  0  0  0  0  0  0  0  0  0
   38.5520   23.4550   35.4780 C   0  0  0  0  0  0  0  0  0  0  0  0
   38.6460   24.0410   36.7250 C   0  0  0  0  0  0  0  0  0  0  0  0
   38.3450   25.0170   37.0780 H   0  0  0  0  0  0  0  0  0  0  0  0
   39.2490   23.1120   37.5800 C   0  0  0  0  0  0  0  0  0  0  0  0
   39.4690   23.2560   38.6280 H   0  0  0  0  0  0  0  0  0  0  0  0
   39.4960   22.0050   36.8210 N   0  0  0  0  0  0  0  0  0  0  0  0
   39.9510   21.1480   37.2280 H   0  0  0  0  0  0  0  0  0  0  0  0
   39.0790   22.2210   35.5770 N   0  0  0  0  0  0  0  0  0  0  0  0
   35.9710   29.6790   32.7160 C   0  0  0  0  0  0  0  0  0  0  0  0
   36.9330   30.2510   32.7520 H   0  0  0  0  0  0  0  0  0  0  0  0
   35.4160   29.8890   31.7800 H   0  0  0  0  0  0  0  0  0  0  0  0
   35.1630   30.1270   33.8880 C   0  0  0  0  0  0  0  0  0  0  0  0
   35.5820   31.0420   34.8350 C   0  0  0  0  0  0  0  0  0  0  0  0
   34.7630   31.3950   35.8870 C   0  0  0  0  0  0  0  0  0  0  0  0
   33.4950   30.8450   36.0260 C   0  0  0  0  0  0  0  0  0  0  0  0
   33.0770   29.9420   35.0920 C   0  0  0  0  0  0  0  0  0  0  0  0
   33.8900   29.5880   34.0430 C   0  0  0  0  0  0  0  0  0  0  0  0
   36.5760   31.4550   34.7040 H   0  0  0  0  0  0  0  0  0  0  0  0
   35.0980   32.1140   36.6270 H   0  0  0  0  0  0  0  0  0  0  0  0
   32.8110   31.0880   36.8330 H   0  0  0  0  0  0  0  0  0  0  0  0
   32.0960   29.4760   35.1440 H   0  0  0  0  0  0  0  0  0  0  0  0
   33.5320   28.8620   33.3070 H   0  0  0  0  0  0  0  0  0  0  0  0
  2  1  2  0  0  0  0
  3  8  2  0  0  0  0
  3  4  1  0  0  0  0
  4  5  2  0  0  0  0
  5  6  1  0  0  0  0
  5 11  1  0  0  0  0
  7  1  1  0  0  0  0
  7  6  2  0  0  0  0
  8  7  1  0  0  0  0
  9  3  1  0  0  0  0
 10  4  1  0  0  0  0
 11 18  2  0  0  0  0
 11 12  1  0  0  0  0
 12 13  1  0  0  0  0
 12 14  2  0  0  0  0
 14 15  1  0  0  0  0
 16 17  1  0  0  0  0
 16 14  1  0  0  0  0
 18 16  1  0  0  0  0
 19  2  1  0  0  0  0
 19 20  1  0  0  0  0
 19 22  1  0  0  0  0
 21 19  1  0  0  0  0
 22 27  2  0  0  0  0
 22 23  1  0  0  0  0
 23 24  2  0  0  0  0
 24 25  1  0  0  0  0
 24 29  1  0  0  0  0
 25 30  1  0  0  0  0
 26 31  1  0  0  0  0
 26 25  2  0  0  0  0
 27 26  1  0  0  0  0
 28 23  1  0  0  0  0
 32 27  1  0  0  0  0
M  END
>  <minimizedAffinity>
-5.016047

$$$$
