
 OpenBabel03272506043D

 29 31  0  0  0  0  0  0  0  0999 V2000
   34.8260   28.4550   49.3800 C   0  0  0  0  0  0  0  0  0  0  0  0
   34.8860   27.7160   50.2050 H   0  0  0  0  0  0  0  0  0  0  0  0
   35.6880   28.2400   48.7120 H   0  0  0  0  0  0  0  0  0  0  0  0
   33.5470   28.2640   48.6130 C   0  0  0  0  0  0  0  0  0  0  0  0
   33.5720   28.4590   47.1760 C   0  0  0  0  0  0  0  0  0  0  0  0
   31.8810   28.1340   46.7680 S   0  0  0  0  0  0  0  0  0  0  0  0
   31.3670   27.7870   48.5240 C   0  0  0  0  0  0  0  0  0  0  0  0
   32.3890   27.9370   49.1260 N   0  0  0  0  0  0  0  0  0  0  0  0
   34.4380   28.7310   46.5890 H   0  0  0  0  0  0  0  0  0  0  0  0
   30.0060   27.4210   48.9890 C   0  0  0  0  0  0  0  0  0  0  0  0
   29.4500   27.3600   50.2260 C   0  0  0  0  0  0  0  0  0  0  0  0
   30.1050   27.6250   51.0420 H   0  0  0  0  0  0  0  0  0  0  0  0
   28.1610   26.9610   50.0580 C   0  0  0  0  0  0  0  0  0  0  0  0
   27.5120   26.8420   50.9350 H   0  0  0  0  0  0  0  0  0  0  0  0
   27.9200   26.7780   48.7330 N   0  0  0  0  0  0  0  0  0  0  0  0
   26.9760   26.4690   48.4130 H   0  0  0  0  0  0  0  0  0  0  0  0
   29.0570   27.0620   48.0840 N   0  0  0  0  0  0  0  0  0  0  0  0
   34.9000   29.8260   49.9720 C   0  0  0  0  0  0  0  0  0  0  0  0
   34.0580   30.4240   49.5750 H   0  0  0  0  0  0  0  0  0  0  0  0
   34.9020   29.8660   51.0670 H   0  0  0  0  0  0  0  0  0  0  0  0
   37.6460   32.2910   49.4900 C   0  0  0  0  0  0  0  0  0  0  0  0
   38.3600   31.7430   48.4170 C   0  0  0  0  0  0  0  0  0  0  0  0
   37.8970   30.5410   47.8700 C   0  0  0  0  0  0  0  0  0  0  0  0
   36.7890   29.9740   48.4070 N   0  0  0  0  0  0  0  0  0  0  0  0
   36.1340   30.5430   49.4450 C   0  0  0  0  0  0  0  0  0  0  0  0
   36.5400   31.6890   49.9970 N   0  0  0  0  0  0  0  0  0  0  0  0
   37.9970   33.2210   49.9190 H   0  0  0  0  0  0  0  0  0  0  0  0
   39.2350   32.2440   48.0350 H   0  0  0  0  0  0  0  0  0  0  0  0
   38.4280   30.0940   47.0410 H   0  0  0  0  0  0  0  0  0  0  0  0
  1 18  1  0  0  0  0
  1  2  1  0  0  0  0
  3  1  1  0  0  0  0
  4  8  1  0  0  0  0
  4  1  1  0  0  0  0
  5  4  2  0  0  0  0
  6  5  1  0  0  0  0
  6  7  1  0  0  0  0
  7 10  1  0  0  0  0
  7  8  2  0  0  0  0
  9  5  1  0  0  0  0
 10 11  1  0  0  0  0
 11 12  1  0  0  0  0
 13 11  2  0  0  0  0
 13 14  1  0  0  0  0
 15 13  1  0  0  0  0
 16 15  1  0  0  0  0
 17 15  1  0  0  0  0
 17 10  2  0  0  0  0
 18 20  1  0  0  0  0
 19 18  1  0  0  0  0
 21 27  1  0  0  0  0
 21 26  1  0  0  0  0
 22 21  2  0  0  0  0
 23 24  2  0  0  0  0
 23 22  1  0  0  0  0
 24 25  1  0  0  0  0
 25 18  1  0  0  0  0
 25 26  2  0  0  0  0
 28 22  1  0  0  0  0
 29 23  1  0  0  0  0
M  END
>  <minimizedAffinity>
-5.11935091

>  <minimizedRMSD>
1.54500794

$$$$
