
 OpenBabel03272510033D

 20 21  0  0  0  0  0  0  0  0999 V2000
   39.3700   22.9670   35.0290 C   0  0  0  0  0  0  0  0  0  0  0  0
   38.8010   24.0120   34.2950 C   0  0  0  0  0  0  0  0  0  0  0  0
   38.0680   24.9640   34.9890 C   0  0  0  0  0  0  0  0  0  0  0  0
   37.9300   24.8480   36.3330 N   0  0  0  0  0  0  0  0  0  0  0  0
   38.4940   23.8220   37.0120 C   0  0  0  0  0  0  0  0  0  0  0  0
   39.2060   22.8960   36.3570 N   0  0  0  0  0  0  0  0  0  0  0  0
   39.9540   22.1960   34.5370 H   0  0  0  0  0  0  0  0  0  0  0  0
   38.9300   24.0760   33.2290 H   0  0  0  0  0  0  0  0  0  0  0  0
   37.4570   26.0700   34.2640 C   0  0  0  0  0  0  0  0  0  0  0  0
   37.1990   27.3250   34.7750 C   0  0  0  0  0  0  0  0  0  0  0  0
   37.3960   27.6940   35.7630 H   0  0  0  0  0  0  0  0  0  0  0  0
   36.6280   27.9860   33.7070 C   0  0  0  0  0  0  0  0  0  0  0  0
   36.2750   29.0050   33.6790 H   0  0  0  0  0  0  0  0  0  0  0  0
   36.5440   27.1810   32.6110 N   0  0  0  0  0  0  0  0  0  0  0  0
   36.1700   27.3790   31.6690 H   0  0  0  0  0  0  0  0  0  0  0  0
   37.0610   26.0100   32.9860 N   0  0  0  0  0  0  0  0  0  0  0  0
   38.2900   23.7760   38.4840 C   0  0  0  0  0  0  0  0  0  0  0  0
   39.4670   23.4820   39.1670 F   0  0  0  0  0  0  0  0  0  0  0  0
   37.8820   25.0230   38.9570 F   0  0  0  0  0  0  0  0  0  0  0  0
   37.3500   22.8720   38.8780 F   0  0  0  0  0  0  0  0  0  0  0  0
  1  6  1  0  0  0  0
  2  3  1  0  0  0  0
  2  1  2  0  0  0  0
  3  4  2  0  0  0  0
  4  5  1  0  0  0  0
  5 17  1  0  0  0  0
  6  5  2  0  0  0  0
  7  1  1  0  0  0  0
  8  2  1  0  0  0  0
  9 10  1  0  0  0  0
  9  3  1  0  0  0  0
 10 11  1  0  0  0  0
 12 10  2  0  0  0  0
 13 12  1  0  0  0  0
 14 16  1  0  0  0  0
 14 12  1  0  0  0  0
 15 14  1  0  0  0  0
 16  9  2  0  0  0  0
 17 20  1  0  0  0  0
 17 19  1  0  0  0  0
 17 18  1  0  0  0  0
M  END
>  <minimizedAffinity>
-4.76627636

$$$$

 OpenBabel03272510033D

 20 21  0  0  0  0  0  0  0  0999 V2000
   38.0320   23.6160   32.8820 C   0  0  0  0  0  0  0  0  0  0  0  0
   38.4840   23.7580   34.1970 C   0  0  0  0  0  0  0  0  0  0  0  0
   38.0710   22.8140   35.1260 C   0  0  0  0  0  0  0  0  0  0  0  0
   37.2570   21.8040   34.7330 N   0  0  0  0  0  0  0  0  0  0  0  0
   36.8380   21.6970   33.4500 C   0  0  0  0  0  0  0  0  0  0  0  0
   37.2280   22.5990   32.5400 N   0  0  0  0  0  0  0  0  0  0  0  0
   38.3240   24.3250   32.1140 H   0  0  0  0  0  0  0  0  0  0  0  0
   39.1300   24.5710   34.4770 H   0  0  0  0  0  0  0  0  0  0  0  0
   38.5170   22.9230   36.5090 C   0  0  0  0  0  0  0  0  0  0  0  0
   37.8470   23.5750   37.5240 C   0  0  0  0  0  0  0  0  0  0  0  0
   36.9120   24.0970   37.4750 H   0  0  0  0  0  0  0  0  0  0  0  0
   38.6730   23.3890   38.6130 C   0  0  0  0  0  0  0  0  0  0  0  0
   38.5200   23.7420   39.6210 H   0  0  0  0  0  0  0  0  0  0  0  0
   39.7800   22.6660   38.2800 N   0  0  0  0  0  0  0  0  0  0  0  0
   40.5770   22.3650   38.8650 H   0  0  0  0  0  0  0  0  0  0  0  0
   39.6540   22.3970   36.9810 N   0  0  0  0  0  0  0  0  0  0  0  0
   35.9470   20.5560   33.1100 C   0  0  0  0  0  0  0  0  0  0  0  0
   36.6080   19.5770   32.3730 F   0  0  0  0  0  0  0  0  0  0  0  0
   35.5050   19.9210   34.2700 F   0  0  0  0  0  0  0  0  0  0  0  0
   34.8380   20.9200   32.4070 F   0  0  0  0  0  0  0  0  0  0  0  0
  1  2  1  0  0  0  0
  2  8  1  0  0  0  0
  2  3  2  0  0  0  0
  3  9  1  0  0  0  0
  4  3  1  0  0  0  0
  5  4  2  0  0  0  0
  6  1  2  0  0  0  0
  6  5  1  0  0  0  0
  7  1  1  0  0  0  0
  9 16  2  0  0  0  0
  9 10  1  0  0  0  0
 10 12  2  0  0  0  0
 11 10  1  0  0  0  0
 12 13  1  0  0  0  0
 14 12  1  0  0  0  0
 14 15  1  0  0  0  0
 16 14  1  0  0  0  0
 17  5  1  0  0  0  0
 17 19  1  0  0  0  0
 18 17  1  0  0  0  0
 20 17  1  0  0  0  0
M  END
>  <minimizedAffinity>
-4.76053238

$$$$

 OpenBabel03272510033D

 20 21  0  0  0  0  0  0  0  0999 V2000
   37.8280   23.5790   32.9570 C   0  0  0  0  0  0  0  0  0  0  0  0
   38.1620   23.1490   34.2450 C   0  0  0  0  0  0  0  0  0  0  0  0
   38.1980   24.1020   35.2520 C   0  0  0  0  0  0  0  0  0  0  0  0
   37.9140   25.3950   34.9580 N   0  0  0  0  0  0  0  0  0  0  0  0
   37.5950   25.7760   33.6990 C   0  0  0  0  0  0  0  0  0  0  0  0
   37.5550   24.8680   32.7140 N   0  0  0  0  0  0  0  0  0  0  0  0
   37.7850   22.8760   32.1300 H   0  0  0  0  0  0  0  0  0  0  0  0
   38.3820   22.1160   34.4460 H   0  0  0  0  0  0  0  0  0  0  0  0
   38.5410   23.7000   36.6100 C   0  0  0  0  0  0  0  0  0  0  0  0
   37.9990   24.2200   37.7670 C   0  0  0  0  0  0  0  0  0  0  0  0
   37.2560   24.9860   37.8670 H   0  0  0  0  0  0  0  0  0  0  0  0
   38.6460   23.5140   38.7600 C   0  0  0  0  0  0  0  0  0  0  0  0
   38.5160   23.6110   39.8270 H   0  0  0  0  0  0  0  0  0  0  0  0
   39.5290   22.6170   38.2370 N   0  0  0  0  0  0  0  0  0  0  0  0
   40.1570   21.9490   38.7140 H   0  0  0  0  0  0  0  0  0  0  0  0
   39.4410   22.7560   36.9150 N   0  0  0  0  0  0  0  0  0  0  0  0
   37.2980   27.2140   33.4690 C   0  0  0  0  0  0  0  0  0  0  0  0
   37.2790   27.9420   34.6560 F   0  0  0  0  0  0  0  0  0  0  0  0
   38.2930   27.7970   32.6850 F   0  0  0  0  0  0  0  0  0  0  0  0
   36.1120   27.4320   32.8350 F   0  0  0  0  0  0  0  0  0  0  0  0
  1  2  1  0  0  0  0
  2  8  1  0  0  0  0
  2  3  2  0  0  0  0
  3  9  1  0  0  0  0
  4  3  1  0  0  0  0
  5  4  2  0  0  0  0
  6  1  2  0  0  0  0
  6  5  1  0  0  0  0
  7  1  1  0  0  0  0
  9 16  2  0  0  0  0
  9 10  1  0  0  0  0
 10 11  1  0  0  0  0
 10 12  2  0  0  0  0
 12 13  1  0  0  0  0
 14 15  1  0  0  0  0
 14 12  1  0  0  0  0
 16 14  1  0  0  0  0
 17  5  1  0  0  0  0
 17 18  1  0  0  0  0
 19 17  1  0  0  0  0
 20 17  1  0  0  0  0
M  END
>  <minimizedAffinity>
-4.60238504

$$$$

 OpenBabel03272510033D

 20 21  0  0  0  0  0  0  0  0999 V2000
   39.2840   24.3250   34.7490 C   0  0  0  0  0  0  0  0  0  0  0  0
   38.5700   23.3600   34.0320 C   0  0  0  0  0  0  0  0  0  0  0  0
   37.7550   22.4960   34.7500 C   0  0  0  0  0  0  0  0  0  0  0  0
   37.6820   22.6160   36.0990 N   0  0  0  0  0  0  0  0  0  0  0  0
   38.3880   23.5630   36.7600 C   0  0  0  0  0  0  0  0  0  0  0  0
   39.1780   24.4050   36.0820 N   0  0  0  0  0  0  0  0  0  0  0  0
   39.9350   25.0270   34.2380 H   0  0  0  0  0  0  0  0  0  0  0  0
   38.6490   23.2910   32.9620 H   0  0  0  0  0  0  0  0  0  0  0  0
   36.9940   21.4740   34.0450 C   0  0  0  0  0  0  0  0  0  0  0  0
   35.8690   20.8320   34.5220 C   0  0  0  0  0  0  0  0  0  0  0  0
   35.3750   20.9690   35.4640 H   0  0  0  0  0  0  0  0  0  0  0  0
   35.5370   19.9760   33.4920 C   0  0  0  0  0  0  0  0  0  0  0  0
   34.7110   19.2840   33.4550 H   0  0  0  0  0  0  0  0  0  0  0  0
   36.4080   20.0910   32.4500 N   0  0  0  0  0  0  0  0  0  0  0  0
   36.4300   19.5920   31.5450 H   0  0  0  0  0  0  0  0  0  0  0  0
   37.2910   21.0180   32.8210 N   0  0  0  0  0  0  0  0  0  0  0  0
   38.2450   23.6200   38.2390 C   0  0  0  0  0  0  0  0  0  0  0  0
   39.4360   23.3150   38.8930 F   0  0  0  0  0  0  0  0  0  0  0  0
   37.9120   24.9120   38.6450 F   0  0  0  0  0  0  0  0  0  0  0  0
   37.2840   22.7880   38.7280 F   0  0  0  0  0  0  0  0  0  0  0  0
  1  6  1  0  0  0  0
  2  1  2  0  0  0  0
  2  3  1  0  0  0  0
  3  4  2  0  0  0  0
  4  5  1  0  0  0  0
  5 17  1  0  0  0  0
  6  5  2  0  0  0  0
  7  1  1  0  0  0  0
  8  2  1  0  0  0  0
  9 10  1  0  0  0  0
  9  3  1  0  0  0  0
 10 11  1  0  0  0  0
 12 10  2  0  0  0  0
 13 12  1  0  0  0  0
 14 16  1  0  0  0  0
 14 12  1  0  0  0  0
 15 14  1  0  0  0  0
 16  9  2  0  0  0  0
 17 19  1  0  0  0  0
 17 20  1  0  0  0  0
 17 18  1  0  0  0  0
M  END
>  <minimizedAffinity>
-4.56773806

$$$$

 OpenBabel03272510033D

 20 21  0  0  0  0  0  0  0  0999 V2000
   37.7670   27.4080   35.2750 C   0  0  0  0  0  0  0  0  0  0  0  0
   38.3070   26.4580   36.1480 C   0  0  0  0  0  0  0  0  0  0  0  0
   38.3570   25.1400   35.7160 C   0  0  0  0  0  0  0  0  0  0  0  0
   37.8880   24.8250   34.4840 N   0  0  0  0  0  0  0  0  0  0  0  0
   37.3720   25.7710   33.6640 C   0  0  0  0  0  0  0  0  0  0  0  0
   37.3170   27.0480   34.0660 N   0  0  0  0  0  0  0  0  0  0  0  0
   37.7040   28.4530   35.5610 H   0  0  0  0  0  0  0  0  0  0  0  0
   38.6710   26.7400   37.1200 H   0  0  0  0  0  0  0  0  0  0  0  0
   38.9110   24.1170   36.5930 C   0  0  0  0  0  0  0  0  0  0  0  0
   40.0400   23.3650   36.3430 C   0  0  0  0  0  0  0  0  0  0  0  0
   40.6870   23.4010   35.4880 H   0  0  0  0  0  0  0  0  0  0  0  0
   40.1340   22.5610   37.4590 C   0  0  0  0  0  0  0  0  0  0  0  0
   40.8840   21.8150   37.6700 H   0  0  0  0  0  0  0  0  0  0  0  0
   39.1210   22.8090   38.3370 N   0  0  0  0  0  0  0  0  0  0  0  0
   38.9150   22.3770   39.2530 H   0  0  0  0  0  0  0  0  0  0  0  0
   38.3870   23.7700   37.7750 N   0  0  0  0  0  0  0  0  0  0  0  0
   36.8820   25.3330   32.3310 C   0  0  0  0  0  0  0  0  0  0  0  0
   37.8600   25.4540   31.3470 F   0  0  0  0  0  0  0  0  0  0  0  0
   36.5390   23.9820   32.3580 F   0  0  0  0  0  0  0  0  0  0  0  0
   35.7830   26.0150   31.9020 F   0  0  0  0  0  0  0  0  0  0  0  0
  1  7  1  0  0  0  0
  1  2  1  0  0  0  0
  2  8  1  0  0  0  0
  3  2  2  0  0  0  0
  3  9  1  0  0  0  0
  4  3  1  0  0  0  0
  5  6  1  0  0  0  0
  5  4  2  0  0  0  0
  6  1  2  0  0  0  0
  9 16  2  0  0  0  0
 10  9  1  0  0  0  0
 10 12  2  0  0  0  0
 11 10  1  0  0  0  0
 12 13  1  0  0  0  0
 12 14  1  0  0  0  0
 14 15  1  0  0  0  0
 16 14  1  0  0  0  0
 17 19  1  0  0  0  0
 17  5  1  0  0  0  0
 18 17  1  0  0  0  0
 20 17  1  0  0  0  0
M  END
>  <minimizedAffinity>
-4.48065472

$$$$

 OpenBabel03272510033D

 20 21  0  0  0  0  0  0  0  0999 V2000
   38.2730   27.4850   35.4900 C   0  0  0  0  0  0  0  0  0  0  0  0
   38.0070   27.0680   34.1830 C   0  0  0  0  0  0  0  0  0  0  0  0
   37.7870   25.7140   33.9700 C   0  0  0  0  0  0  0  0  0  0  0  0
   37.8370   24.8590   35.0200 N   0  0  0  0  0  0  0  0  0  0  0  0
   38.0980   25.2970   36.2740 C   0  0  0  0  0  0  0  0  0  0  0  0
   38.3120   26.6010   36.4970 N   0  0  0  0  0  0  0  0  0  0  0  0
   38.4530   28.5320   35.7140 H   0  0  0  0  0  0  0  0  0  0  0  0
   37.9740   27.7730   33.3710 H   0  0  0  0  0  0  0  0  0  0  0  0
   37.5070   25.2350   32.6230 C   0  0  0  0  0  0  0  0  0  0  0  0
   37.0930   23.9620   32.2900 C   0  0  0  0  0  0  0  0  0  0  0  0
   36.9110   23.1300   32.9410 H   0  0  0  0  0  0  0  0  0  0  0  0
   36.9700   24.0230   30.9170 C   0  0  0  0  0  0  0  0  0  0  0  0
   36.6660   23.2320   30.2500 H   0  0  0  0  0  0  0  0  0  0  0  0
   37.2900   25.2600   30.4440 N   0  0  0  0  0  0  0  0  0  0  0  0
   37.2970   25.6190   29.4750 H   0  0  0  0  0  0  0  0  0  0  0  0
   37.6160   25.9810   31.5170 N   0  0  0  0  0  0  0  0  0  0  0  0
   38.1320   24.2870   37.3640 C   0  0  0  0  0  0  0  0  0  0  0  0
   39.3360   23.5870   37.3920 F   0  0  0  0  0  0  0  0  0  0  0  0
   38.0300   24.9090   38.6080 F   0  0  0  0  0  0  0  0  0  0  0  0
   37.1270   23.3710   37.2920 F   0  0  0  0  0  0  0  0  0  0  0  0
  1  7  1  0  0  0  0
  1  6  1  0  0  0  0
  2  1  2  0  0  0  0
  3  2  1  0  0  0  0
  3  4  2  0  0  0  0
  4  5  1  0  0  0  0
  5  6  2  0  0  0  0
  5 17  1  0  0  0  0
  8  2  1  0  0  0  0
  9  3  1  0  0  0  0
 10  9  1  0  0  0  0
 10 11  1  0  0  0  0
 12 10  2  0  0  0  0
 13 12  1  0  0  0  0
 14 12  1  0  0  0  0
 14 16  1  0  0  0  0
 15 14  1  0  0  0  0
 16  9  2  0  0  0  0
 17 18  1  0  0  0  0
 17 19  1  0  0  0  0
 20 17  1  0  0  0  0
M  END
>  <minimizedAffinity>
-4.42927408

$$$$

 OpenBabel03272510033D

 20 21  0  0  0  0  0  0  0  0999 V2000
   37.8450   22.4080   34.9050 C   0  0  0  0  0  0  0  0  0  0  0  0
   38.5150   23.3860   34.1650 C   0  0  0  0  0  0  0  0  0  0  0  0
   39.0730   24.4510   34.8590 C   0  0  0  0  0  0  0  0  0  0  0  0
   38.9500   24.5030   36.2080 N   0  0  0  0  0  0  0  0  0  0  0  0
   38.2940   23.5380   36.8930 C   0  0  0  0  0  0  0  0  0  0  0  0
   37.7500   22.5030   36.2380 N   0  0  0  0  0  0  0  0  0  0  0  0
   37.3900   21.5540   34.4130 H   0  0  0  0  0  0  0  0  0  0  0  0
   38.5960   23.3150   33.0950 H   0  0  0  0  0  0  0  0  0  0  0  0
   39.7800   25.4940   34.1280 C   0  0  0  0  0  0  0  0  0  0  0  0
   40.3570   26.6180   34.6820 C   0  0  0  0  0  0  0  0  0  0  0  0
   40.3860   26.9110   35.7130 H   0  0  0  0  0  0  0  0  0  0  0  0
   40.8880   27.2690   33.5880 C   0  0  0  0  0  0  0  0  0  0  0  0
   41.4310   28.2000   33.5780 H   0  0  0  0  0  0  0  0  0  0  0  0
   40.6480   26.5810   32.4360 N   0  0  0  0  0  0  0  0  0  0  0  0
   40.9120   26.8040   31.4620 H   0  0  0  0  0  0  0  0  0  0  0  0
   39.9650   25.4960   32.8020 N   0  0  0  0  0  0  0  0  0  0  0  0
   38.2090   23.6790   38.3700 C   0  0  0  0  0  0  0  0  0  0  0  0
   37.3000   22.7850   38.9310 F   0  0  0  0  0  0  0  0  0  0  0  0
   39.4380   23.3830   38.9580 F   0  0  0  0  0  0  0  0  0  0  0  0
   37.8610   24.9300   38.7810 F   0  0  0  0  0  0  0  0  0  0  0  0
  1  6  1  0  0  0  0
  2  3  1  0  0  0  0
  2  1  2  0  0  0  0
  3  4  2  0  0  0  0
  4  5  1  0  0  0  0
  5 17  1  0  0  0  0
  6  5  2  0  0  0  0
  7  1  1  0  0  0  0
  8  2  1  0  0  0  0
  9 10  1  0  0  0  0
  9  3  1  0  0  0  0
 10 11  1  0  0  0  0
 12 10  2  0  0  0  0
 13 12  1  0  0  0  0
 14 16  1  0  0  0  0
 14 12  1  0  0  0  0
 15 14  1  0  0  0  0
 16  9  2  0  0  0  0
 17 20  1  0  0  0  0
 17 18  1  0  0  0  0
 17 19  1  0  0  0  0
M  END
>  <minimizedAffinity>
-4.3924222

$$$$

 OpenBabel03272510033D

 20 21  0  0  0  0  0  0  0  0999 V2000
   38.3060   23.7110   38.4700 C   0  0  0  0  0  0  0  0  0  0  0  0
   37.7980   24.4210   37.3780 C   0  0  0  0  0  0  0  0  0  0  0  0
   38.4900   24.3410   36.1790 C   0  0  0  0  0  0  0  0  0  0  0  0
   39.6170   23.5900   36.1090 N   0  0  0  0  0  0  0  0  0  0  0  0
   40.0810   22.9150   37.1860 C   0  0  0  0  0  0  0  0  0  0  0  0
   39.4240   22.9810   38.3520 N   0  0  0  0  0  0  0  0  0  0  0  0
   37.8050   23.7370   39.4320 H   0  0  0  0  0  0  0  0  0  0  0  0
   36.9010   25.0080   37.4670 H   0  0  0  0  0  0  0  0  0  0  0  0
   37.9970   25.0660   35.0150 C   0  0  0  0  0  0  0  0  0  0  0  0
   37.4600   26.3370   35.0240 C   0  0  0  0  0  0  0  0  0  0  0  0
   37.3170   26.9920   35.8600 H   0  0  0  0  0  0  0  0  0  0  0  0
   37.1560   26.5560   33.6960 C   0  0  0  0  0  0  0  0  0  0  0  0
   36.7130   27.4390   33.2620 H   0  0  0  0  0  0  0  0  0  0  0  0
   37.4880   25.4830   32.9250 N   0  0  0  0  0  0  0  0  0  0  0  0
   37.3860   25.3390   31.9070 H   0  0  0  0  0  0  0  0  0  0  0  0
   38.0020   24.5840   33.7660 N   0  0  0  0  0  0  0  0  0  0  0  0
   41.3230   22.1170   37.0160 C   0  0  0  0  0  0  0  0  0  0  0  0
   41.3400   21.4240   35.8080 F   0  0  0  0  0  0  0  0  0  0  0  0
   42.4380   22.9540   36.9850 F   0  0  0  0  0  0  0  0  0  0  0  0
   41.5310   21.2110   38.0120 F   0  0  0  0  0  0  0  0  0  0  0  0
  1  7  1  0  0  0  0
  2  8  1  0  0  0  0
  2  1  2  0  0  0  0
  3  2  1  0  0  0  0
  4  3  2  0  0  0  0
  4  5  1  0  0  0  0
  5  6  2  0  0  0  0
  6  1  1  0  0  0  0
  9 10  1  0  0  0  0
  9  3  1  0  0  0  0
 10 11  1  0  0  0  0
 12 10  2  0  0  0  0
 13 12  1  0  0  0  0
 14 12  1  0  0  0  0
 14 16  1  0  0  0  0
 15 14  1  0  0  0  0
 16  9  2  0  0  0  0
 17  5  1  0  0  0  0
 17 20  1  0  0  0  0
 18 17  1  0  0  0  0
 19 17  1  0  0  0  0
M  END
>  <minimizedAffinity>
-4.39087391

$$$$

 OpenBabel03272510033D

 20 21  0  0  0  0  0  0  0  0999 V2000
   35.6250   26.3130   31.0320 C   0  0  0  0  0  0  0  0  0  0  0  0
   36.3400   26.8820   32.0900 C   0  0  0  0  0  0  0  0  0  0  0  0
   37.0110   26.0240   32.9490 C   0  0  0  0  0  0  0  0  0  0  0  0
   36.9500   24.6870   32.7370 N   0  0  0  0  0  0  0  0  0  0  0  0
   36.2470   24.1700   31.7020 C   0  0  0  0  0  0  0  0  0  0  0  0
   35.5940   24.9840   30.8630 N   0  0  0  0  0  0  0  0  0  0  0  0
   35.0810   26.9370   30.3290 H   0  0  0  0  0  0  0  0  0  0  0  0
   36.3690   27.9480   32.2310 H   0  0  0  0  0  0  0  0  0  0  0  0
   37.7700   26.5740   34.0650 C   0  0  0  0  0  0  0  0  0  0  0  0
   39.1160   26.3800   34.3000 C   0  0  0  0  0  0  0  0  0  0  0  0
   39.8160   25.8110   33.7210 H   0  0  0  0  0  0  0  0  0  0  0  0
   39.3380   27.0980   35.4570 C   0  0  0  0  0  0  0  0  0  0  0  0
   40.2680   27.2130   35.9900 H   0  0  0  0  0  0  0  0  0  0  0  0
   38.1940   27.6930   35.9000 N   0  0  0  0  0  0  0  0  0  0  0  0
   38.0340   28.2890   36.7280 H   0  0  0  0  0  0  0  0  0  0  0  0
   37.2490   27.3510   35.0240 N   0  0  0  0  0  0  0  0  0  0  0  0
   36.2370   22.6920   31.5470 C   0  0  0  0  0  0  0  0  0  0  0  0
   35.2290   22.2620   30.6870 F   0  0  0  0  0  0  0  0  0  0  0  0
   37.4320   22.2540   30.9760 F   0  0  0  0  0  0  0  0  0  0  0  0
   36.0870   22.0200   32.7230 F   0  0  0  0  0  0  0  0  0  0  0  0
  1  2  1  0  0  0  0
  2  8  1  0  0  0  0
  2  3  2  0  0  0  0
  3  9  1  0  0  0  0
  4  3  1  0  0  0  0
  5  4  2  0  0  0  0
  6  1  2  0  0  0  0
  6  5  1  0  0  0  0
  7  1  1  0  0  0  0
  9 10  1  0  0  0  0
  9 16  2  0  0  0  0
 10 12  2  0  0  0  0
 11 10  1  0  0  0  0
 12 14  1  0  0  0  0
 12 13  1  0  0  0  0
 14 15  1  0  0  0  0
 16 14  1  0  0  0  0
 17  5  1  0  0  0  0
 17 20  1  0  0  0  0
 18 17  1  0  0  0  0
 19 17  1  0  0  0  0
M  END
>  <minimizedAffinity>
-4.28262281

$$$$
