
     RDKit          3D

 27 29  0  0  0  0  0  0  0  0999 V2000
   38.0192   33.1005   49.4840 C   0  0  0  0  0  0  0  0  0  0  0  0
   38.9722   33.2084   48.4757 C   0  0  0  0  0  0  0  0  0  0  0  0
   38.9459   32.2192   47.4514 C   0  0  0  0  0  0  0  0  0  0  0  0
   38.0033   31.2527   47.5315 N   0  0  0  0  0  0  0  0  0  0  0  0
   37.0946   31.1801   48.5257 C   0  0  0  0  0  0  0  0  0  0  0  0
   37.1237   32.1144   49.4879 N   0  0  0  0  0  0  0  0  0  0  0  0
   36.0888   30.1376   48.6014 C   0  0  0  0  0  0  0  0  0  0  0  0
   35.2848   29.9499   47.5064 C   0  0  0  0  0  0  0  0  0  0  0  0
   34.3067   28.9739   47.5035 C   0  0  0  0  0  0  0  0  0  0  0  0
   34.1547   28.1943   48.6193 C   0  0  0  0  0  0  0  0  0  0  0  0
   34.9569   28.3589   49.7528 C   0  0  0  0  0  0  0  0  0  0  0  0
   35.9342   29.3460   49.7344 C   0  0  0  0  0  0  0  0  0  0  0  0
   38.0905   33.8794   50.2306 H   0  0  0  0  0  0  0  0  0  0  0  0
   39.7462   33.9467   48.3505 H   0  0  0  0  0  0  0  0  0  0  0  0
   39.6110   32.1562   46.6003 H   0  0  0  0  0  0  0  0  0  0  0  0
   35.3806   30.5484   46.6137 H   0  0  0  0  0  0  0  0  0  0  0  0
   33.6451   28.7702   46.6906 H   0  0  0  0  0  0  0  0  0  0  0  0
   33.4193   27.4070   48.7113 H   0  0  0  0  0  0  0  0  0  0  0  0
   34.8410   27.7475   50.6347 H   0  0  0  0  0  0  0  0  0  0  0  0
   36.7839   29.5416   50.9036 C   0  0  0  0  0  0  0  0  0  0  0  0
   36.1019   29.8273   52.0922 C   0  0  0  0  0  0  0  0  0  0  0  0
   35.0764   29.9490   52.4021 H   0  0  0  0  0  0  0  0  0  0  0  0
   37.0623   29.9811   53.0875 C   0  0  0  0  0  0  0  0  0  0  0  0
   37.0069   30.2076   54.1635 H   0  0  0  0  0  0  0  0  0  0  0  0
   38.2627   29.7894   52.4881 N   0  0  0  0  0  0  0  0  0  0  0  0
   39.2214   29.8253   52.9176 H   0  0  0  0  0  0  0  0  0  0  0  0
   38.0956   29.5279   51.1881 N   0  0  0  0  0  0  0  0  0  0  0  0
  1  6  2  0
  2  1  1  0
  3  4  1  0
  3  2  2  0
  4  5  2  0
  5  7  1  0
  5  6  1  0
  7 12  1  0
  8  7  2  0
  9  8  1  0
  9 10  2  0
 10 11  1  0
 12 11  2  0
  1 13  1  0
  2 14  1  0
  3 15  1  0
  8 16  1  0
  9 17  1  0
 10 18  1  0
 11 19  1  0
 20 21  1  0
 21 22  1  0
 21 23  2  0
 23 24  1  0
 23 25  1  0
 25 26  1  0
 25 27  1  0
 27 20  2  0
 12 20  1  0
M  ISO  8  13  14  14  14  15  14  16  14  17  14  18  14  19  14  22  15
M  ISO  2  24  16  26   5
M  END
>  <DihAtoms>  (1) 
6,11,19,20

>  <DihDeg>  (1) 
92.0298234402261

$$$$
