
 OpenBabel03262521053D

 27 29  0  0  0  0  0  0  0  0999 V2000
   37.8250   22.6040   34.4140 Br  0  0  0  0  0  0  0  0  0  0  0  0
   38.8450   24.2020   34.4030 C   0  0  0  0  0  0  0  0  0  0  0  0
   38.4270   25.1660   33.5210 C   0  0  0  0  0  0  0  0  0  0  0  0
   39.1390   26.3720   33.4640 C   0  0  0  0  0  0  0  0  0  0  0  0
   40.2410   26.5740   34.2850 C   0  0  0  0  0  0  0  0  0  0  0  0
   40.5870   25.5660   35.1310 C   0  0  0  0  0  0  0  0  0  0  0  0
   39.9160   24.3630   35.2200 C   0  0  0  0  0  0  0  0  0  0  0  0
   38.8710   27.1800   32.7950 H   0  0  0  0  0  0  0  0  0  0  0  0
   40.7910   27.5070   34.2410 H   0  0  0  0  0  0  0  0  0  0  0  0
   41.4480   25.7210   35.7740 H   0  0  0  0  0  0  0  0  0  0  0  0
   36.8470   23.9510   31.9590 C   0  0  0  0  0  0  0  0  0  0  0  0
   37.2950   25.1100   32.5950 C   0  0  0  0  0  0  0  0  0  0  0  0
   36.6150   26.3310   32.3340 C   0  0  0  0  0  0  0  0  0  0  0  0
   35.5500   26.2680   31.4590 N   0  0  0  0  0  0  0  0  0  0  0  0
   35.1630   25.1290   30.8780 C   0  0  0  0  0  0  0  0  0  0  0  0
   35.8030   23.9760   31.1220 N   0  0  0  0  0  0  0  0  0  0  0  0
   37.4640   23.0960   32.2560 H   0  0  0  0  0  0  0  0  0  0  0  0
   36.9380   27.2420   32.8100 H   0  0  0  0  0  0  0  0  0  0  0  0
   34.3200   25.1190   30.1950 H   0  0  0  0  0  0  0  0  0  0  0  0
   40.2910   23.2910   36.1250 C   0  0  0  0  0  0  0  0  0  0  0  0
   41.3200   22.3740   35.9030 C   0  0  0  0  0  0  0  0  0  0  0  0
   41.9970   22.2810   35.0780 H   0  0  0  0  0  0  0  0  0  0  0  0
   41.3270   21.5420   37.0030 C   0  0  0  0  0  0  0  0  0  0  0  0
   41.9400   20.6960   37.2710 H   0  0  0  0  0  0  0  0  0  0  0  0
   40.3640   21.9350   37.8320 N   0  0  0  0  0  0  0  0  0  0  0  0
   39.9680   21.6520   38.7640 H   0  0  0  0  0  0  0  0  0  0  0  0
   39.7210   22.9910   37.3260 N   0  0  0  0  0  0  0  0  0  0  0  0
  2  1  1  0  0  0  0
  2  7  1  0  0  0  0
  3  2  2  0  0  0  0
  4  3  1  0  0  0  0
  4  5  2  0  0  0  0
  5  6  1  0  0  0  0
  6  7  2  0  0  0  0
  6 10  1  0  0  0  0
  7 20  1  0  0  0  0
  8  4  1  0  0  0  0
  9  5  1  0  0  0  0
 11 17  1  0  0  0  0
 11 12  1  0  0  0  0
 12  3  1  0  0  0  0
 13 12  2  0  0  0  0
 13 18  1  0  0  0  0
 14 13  1  0  0  0  0
 15 16  1  0  0  0  0
 15 14  2  0  0  0  0
 16 11  2  0  0  0  0
 19 15  1  0  0  0  0
 20 27  2  0  0  0  0
 21 20  1  0  0  0  0
 21 23  2  0  0  0  0
 22 21  1  0  0  0  0
 23 24  1  0  0  0  0
 23 25  1  0  0  0  0
 25 26  1  0  0  0  0
 27 25  1  0  0  0  0
M  END
>  <minimizedAffinity>
-5.01519442

$$$$

 OpenBabel03262521053D

 27 29  0  0  0  0  0  0  0  0999 V2000
   39.6540   25.4930   31.6850 Br  0  0  0  0  0  0  0  0  0  0  0  0
   38.8730   26.2690   33.2280 C   0  0  0  0  0  0  0  0  0  0  0  0
   39.7460   26.5960   34.2340 C   0  0  0  0  0  0  0  0  0  0  0  0
   39.2310   27.1740   35.4020 C   0  0  0  0  0  0  0  0  0  0  0  0
   37.8670   27.4050   35.5260 C   0  0  0  0  0  0  0  0  0  0  0  0
   37.0730   27.0510   34.4800 C   0  0  0  0  0  0  0  0  0  0  0  0
   37.5350   26.4800   33.3130 C   0  0  0  0  0  0  0  0  0  0  0  0
   39.8550   27.4590   36.2390 H   0  0  0  0  0  0  0  0  0  0  0  0
   37.4690   27.8530   36.4310 H   0  0  0  0  0  0  0  0  0  0  0  0
   36.0050   27.2310   34.5740 H   0  0  0  0  0  0  0  0  0  0  0  0
   42.1160   27.2990   33.6820 C   0  0  0  0  0  0  0  0  0  0  0  0
   41.1990   26.4180   34.2590 C   0  0  0  0  0  0  0  0  0  0  0  0
   41.6950   25.2620   34.9200 C   0  0  0  0  0  0  0  0  0  0  0  0
   43.0660   25.1030   34.9380 N   0  0  0  0  0  0  0  0  0  0  0  0
   43.8980   25.9790   34.3690 C   0  0  0  0  0  0  0  0  0  0  0  0
   43.4330   27.0710   33.7440 N   0  0  0  0  0  0  0  0  0  0  0  0
   41.5890   28.1370   33.2130 H   0  0  0  0  0  0  0  0  0  0  0  0
   41.0120   24.5640   35.3740 H   0  0  0  0  0  0  0  0  0  0  0  0
   44.9710   25.8200   34.4030 H   0  0  0  0  0  0  0  0  0  0  0  0
   36.6820   26.1040   32.2000 C   0  0  0  0  0  0  0  0  0  0  0  0
   36.1340   24.8360   31.9980 C   0  0  0  0  0  0  0  0  0  0  0  0
   36.2250   23.9430   32.5820 H   0  0  0  0  0  0  0  0  0  0  0  0
   35.3990   24.9240   30.8340 C   0  0  0  0  0  0  0  0  0  0  0  0
   34.8070   24.2030   30.2920 H   0  0  0  0  0  0  0  0  0  0  0  0
   35.4980   26.1650   30.3680 N   0  0  0  0  0  0  0  0  0  0  0  0
   35.1460   26.7270   29.5510 H   0  0  0  0  0  0  0  0  0  0  0  0
   36.2680   26.9010   31.1740 N   0  0  0  0  0  0  0  0  0  0  0  0
  1  2  1  0  0  0  0
  2  7  2  0  0  0  0
  2  3  1  0  0  0  0
  3 12  1  0  0  0  0
  3  4  2  0  0  0  0
  4  5  1  0  0  0  0
  4  8  1  0  0  0  0
  5  9  1  0  0  0  0
  6 10  1  0  0  0  0
  6  5  2  0  0  0  0
  7  6  1  0  0  0  0
 11 16  2  0  0  0  0
 11 12  1  0  0  0  0
 12 13  2  0  0  0  0
 13 14  1  0  0  0  0
 13 18  1  0  0  0  0
 15 19  1  0  0  0  0
 15 14  2  0  0  0  0
 16 15  1  0  0  0  0
 17 11  1  0  0  0  0
 20  7  1  0  0  0  0
 21 20  1  0  0  0  0
 21 22  1  0  0  0  0
 23 21  2  0  0  0  0
 24 23  1  0  0  0  0
 25 23  1  0  0  0  0
 25 27  1  0  0  0  0
 26 25  1  0  0  0  0
 27 20  2  0  0  0  0
M  END
>  <minimizedAffinity>
-4.94762135

$$$$

 OpenBabel03262521053D

 27 29  0  0  0  0  0  0  0  0999 V2000
   38.7840   26.0720   35.4250 Br  0  0  0  0  0  0  0  0  0  0  0  0
   38.2100   24.5230   34.4940 C   0  0  0  0  0  0  0  0  0  0  0  0
   37.8560   24.7160   33.1830 C   0  0  0  0  0  0  0  0  0  0  0  0
   37.4240   23.6090   32.4400 C   0  0  0  0  0  0  0  0  0  0  0  0
   37.3590   22.3520   33.0280 C   0  0  0  0  0  0  0  0  0  0  0  0
   37.7290   22.2500   34.3330 C   0  0  0  0  0  0  0  0  0  0  0  0
   38.1600   23.3110   35.1030 C   0  0  0  0  0  0  0  0  0  0  0  0
   37.1280   23.6810   31.4010 H   0  0  0  0  0  0  0  0  0  0  0  0
   37.0240   21.4970   32.4510 H   0  0  0  0  0  0  0  0  0  0  0  0
   37.6800   21.2680   34.7950 H   0  0  0  0  0  0  0  0  0  0  0  0
   38.9780   26.4680   31.7390 C   0  0  0  0  0  0  0  0  0  0  0  0
   37.8680   25.9660   32.4210 C   0  0  0  0  0  0  0  0  0  0  0  0
   36.6570   26.7090   32.3850 C   0  0  0  0  0  0  0  0  0  0  0  0
   36.6780   27.8860   31.6650 N   0  0  0  0  0  0  0  0  0  0  0  0
   37.7700   28.3200   31.0290 C   0  0  0  0  0  0  0  0  0  0  0  0
   38.9140   27.6210   31.0630 N   0  0  0  0  0  0  0  0  0  0  0  0
   39.8310   25.7920   31.8580 H   0  0  0  0  0  0  0  0  0  0  0  0
   35.7840   26.3460   32.9020 H   0  0  0  0  0  0  0  0  0  0  0  0
   37.7480   29.2520   30.4730 H   0  0  0  0  0  0  0  0  0  0  0  0
   38.5540   23.1950   36.4950 C   0  0  0  0  0  0  0  0  0  0  0  0
   37.7790   23.5920   37.5870 C   0  0  0  0  0  0  0  0  0  0  0  0
   36.8020   24.0320   37.6170 H   0  0  0  0  0  0  0  0  0  0  0  0
   38.5290   23.3030   38.7070 C   0  0  0  0  0  0  0  0  0  0  0  0
   38.3410   23.4340   39.7610 H   0  0  0  0  0  0  0  0  0  0  0  0
   39.6800   22.7670   38.3140 N   0  0  0  0  0  0  0  0  0  0  0  0
   40.5600   22.3910   38.7510 H   0  0  0  0  0  0  0  0  0  0  0  0
   39.7230   22.6890   36.9810 N   0  0  0  0  0  0  0  0  0  0  0  0
  2  7  1  0  0  0  0
  2  1  1  0  0  0  0
  3  2  2  0  0  0  0
  4  5  2  0  0  0  0
  4  3  1  0  0  0  0
  5  6  1  0  0  0  0
  6 10  1  0  0  0  0
  6  7  2  0  0  0  0
  7 20  1  0  0  0  0
  8  4  1  0  0  0  0
  9  5  1  0  0  0  0
 11 17  1  0  0  0  0
 11 12  1  0  0  0  0
 12  3  1  0  0  0  0
 13 12  2  0  0  0  0
 13 18  1  0  0  0  0
 14 13  1  0  0  0  0
 15 16  1  0  0  0  0
 15 14  2  0  0  0  0
 16 11  2  0  0  0  0
 19 15  1  0  0  0  0
 20 27  2  0  0  0  0
 20 21  1  0  0  0  0
 21 22  1  0  0  0  0
 21 23  2  0  0  0  0
 23 24  1  0  0  0  0
 25 23  1  0  0  0  0
 25 26  1  0  0  0  0
 27 25  1  0  0  0  0
M  END
>  <minimizedAffinity>
-4.900455

$$$$

 OpenBabel03262521053D

 27 29  0  0  0  0  0  0  0  0999 V2000
   38.1870   23.1170   33.8580 Br  0  0  0  0  0  0  0  0  0  0  0  0
   37.1210   24.2260   32.7490 C   0  0  0  0  0  0  0  0  0  0  0  0
   36.3100   23.5690   31.8590 C   0  0  0  0  0  0  0  0  0  0  0  0
   35.4960   24.3330   31.0100 C   0  0  0  0  0  0  0  0  0  0  0  0
   35.5210   25.7200   31.0780 C   0  0  0  0  0  0  0  0  0  0  0  0
   36.3540   26.2890   31.9910 C   0  0  0  0  0  0  0  0  0  0  0  0
   37.1710   25.5780   32.8450 C   0  0  0  0  0  0  0  0  0  0  0  0
   34.8300   23.8890   30.2820 H   0  0  0  0  0  0  0  0  0  0  0  0
   34.8900   26.3100   30.4210 H   0  0  0  0  0  0  0  0  0  0  0  0
   36.3750   27.3740   32.0460 H   0  0  0  0  0  0  0  0  0  0  0  0
   37.0020   21.3490   30.8570 C   0  0  0  0  0  0  0  0  0  0  0  0
   36.1690   22.1250   31.6630 C   0  0  0  0  0  0  0  0  0  0  0  0
   35.1010   21.4840   32.3500 C   0  0  0  0  0  0  0  0  0  0  0  0
   34.9760   20.1230   32.1590 N   0  0  0  0  0  0  0  0  0  0  0  0
   35.8040   19.4280   31.3740 C   0  0  0  0  0  0  0  0  0  0  0  0
   36.8110   20.0310   30.7250 N   0  0  0  0  0  0  0  0  0  0  0  0
   37.7720   21.9770   30.3970 H   0  0  0  0  0  0  0  0  0  0  0  0
   34.4410   22.0580   32.9790 H   0  0  0  0  0  0  0  0  0  0  0  0
   35.6740   18.3580   31.2480 H   0  0  0  0  0  0  0  0  0  0  0  0
   38.0590   26.1920   33.8160 C   0  0  0  0  0  0  0  0  0  0  0  0
   37.6840   26.6240   35.0890 C   0  0  0  0  0  0  0  0  0  0  0  0
   36.7310   26.5930   35.5770 H   0  0  0  0  0  0  0  0  0  0  0  0
   38.8270   27.1380   35.6650 C   0  0  0  0  0  0  0  0  0  0  0  0
   39.0190   27.5800   36.6300 H   0  0  0  0  0  0  0  0  0  0  0  0
   39.8240   27.0200   34.7940 N   0  0  0  0  0  0  0  0  0  0  0  0
   40.8500   27.2470   34.7410 H   0  0  0  0  0  0  0  0  0  0  0  0
   39.3890   26.4520   33.6660 N   0  0  0  0  0  0  0  0  0  0  0  0
  2  7  1  0  0  0  0
  2  1  1  0  0  0  0
  3  2  2  0  0  0  0
  4  5  2  0  0  0  0
  4  3  1  0  0  0  0
  5  6  1  0  0  0  0
  6 10  1  0  0  0  0
  6  7  2  0  0  0  0
  7 20  1  0  0  0  0
  8  4  1  0  0  0  0
  9  5  1  0  0  0  0
 11 12  1  0  0  0  0
 12  3  1  0  0  0  0
 12 13  2  0  0  0  0
 13 18  1  0  0  0  0
 14 13  1  0  0  0  0
 15 14  2  0  0  0  0
 16 11  2  0  0  0  0
 16 15  1  0  0  0  0
 17 11  1  0  0  0  0
 19 15  1  0  0  0  0
 20 21  1  0  0  0  0
 21 22  1  0  0  0  0
 21 23  2  0  0  0  0
 23 24  1  0  0  0  0
 25 23  1  0  0  0  0
 26 25  1  0  0  0  0
 27 20  2  0  0  0  0
 27 25  1  0  0  0  0
M  END
>  <minimizedAffinity>
-4.84273577

$$$$

 OpenBabel03262521053D

 27 29  0  0  0  0  0  0  0  0999 V2000
   39.9290   25.8440   31.7880 Br  0  0  0  0  0  0  0  0  0  0  0  0
   39.0220   26.5850   33.2790 C   0  0  0  0  0  0  0  0  0  0  0  0
   39.5890   26.3320   34.5030 C   0  0  0  0  0  0  0  0  0  0  0  0
   38.9660   26.8520   35.6460 C   0  0  0  0  0  0  0  0  0  0  0  0
   37.8040   27.6030   35.5300 C   0  0  0  0  0  0  0  0  0  0  0  0
   37.3100   27.8060   34.2790 C   0  0  0  0  0  0  0  0  0  0  0  0
   37.8880   27.3140   33.1270 C   0  0  0  0  0  0  0  0  0  0  0  0
   39.3520   26.6950   36.6450 H   0  0  0  0  0  0  0  0  0  0  0  0
   37.3230   28.0050   36.4150 H   0  0  0  0  0  0  0  0  0  0  0  0
   36.4010   28.3940   34.1850 H   0  0  0  0  0  0  0  0  0  0  0  0
   42.1000   26.0640   34.6870 C   0  0  0  0  0  0  0  0  0  0  0  0
   40.8010   25.5640   34.7930 C   0  0  0  0  0  0  0  0  0  0  0  0
   40.6260   24.2160   35.2100 C   0  0  0  0  0  0  0  0  0  0  0  0
   41.7740   23.5010   35.4800 N   0  0  0  0  0  0  0  0  0  0  0  0
   42.9950   24.0300   35.3620 C   0  0  0  0  0  0  0  0  0  0  0  0
   43.1630   25.3010   34.9680 N   0  0  0  0  0  0  0  0  0  0  0  0
   42.0760   27.1080   34.3580 H   0  0  0  0  0  0  0  0  0  0  0  0
   39.6350   23.8030   35.3010 H   0  0  0  0  0  0  0  0  0  0  0  0
   43.8760   23.4360   35.5830 H   0  0  0  0  0  0  0  0  0  0  0  0
   37.3550   27.5340   31.7940 C   0  0  0  0  0  0  0  0  0  0  0  0
   37.6720   28.6150   30.9690 C   0  0  0  0  0  0  0  0  0  0  0  0
   38.3280   29.4450   31.1380 H   0  0  0  0  0  0  0  0  0  0  0  0
   36.9500   28.4290   29.8100 C   0  0  0  0  0  0  0  0  0  0  0  0
   36.8760   29.0020   28.8990 H   0  0  0  0  0  0  0  0  0  0  0  0
   36.2450   27.3070   29.9310 N   0  0  0  0  0  0  0  0  0  0  0  0
   35.5650   26.7430   29.3590 H   0  0  0  0  0  0  0  0  0  0  0  0
   36.4710   26.7450   31.1210 N   0  0  0  0  0  0  0  0  0  0  0  0
  1  2  1  0  0  0  0
  2  3  1  0  0  0  0
  3 12  1  0  0  0  0
  3  4  2  0  0  0  0
  4  8  1  0  0  0  0
  5  4  1  0  0  0  0
  5  9  1  0  0  0  0
  6  5  2  0  0  0  0
  7  2  2  0  0  0  0
  7  6  1  0  0  0  0
 10  6  1  0  0  0  0
 11 12  2  0  0  0  0
 11 16  1  0  0  0  0
 12 13  1  0  0  0  0
 13 18  1  0  0  0  0
 13 14  2  0  0  0  0
 15 14  1  0  0  0  0
 15 19  1  0  0  0  0
 16 15  2  0  0  0  0
 17 11  1  0  0  0  0
 20  7  1  0  0  0  0
 21 22  1  0  0  0  0
 21 20  1  0  0  0  0
 23 25  1  0  0  0  0
 23 21  2  0  0  0  0
 24 23  1  0  0  0  0
 25 27  1  0  0  0  0
 26 25  1  0  0  0  0
 27 20  2  0  0  0  0
M  END
>  <minimizedAffinity>
-4.74719048

$$$$

 OpenBabel03262521053D

 27 29  0  0  0  0  0  0  0  0999 V2000
   40.9960   24.4660   34.1300 Br  0  0  0  0  0  0  0  0  0  0  0  0
   40.1740   23.9130   35.7460 C   0  0  0  0  0  0  0  0  0  0  0  0
   38.9930   24.5390   36.0550 C   0  0  0  0  0  0  0  0  0  0  0  0
   38.3340   24.1740   37.2370 C   0  0  0  0  0  0  0  0  0  0  0  0
   38.8750   23.2010   38.0680 C   0  0  0  0  0  0  0  0  0  0  0  0
   40.0490   22.6310   37.6860 C   0  0  0  0  0  0  0  0  0  0  0  0
   40.7320   22.9580   36.5330 C   0  0  0  0  0  0  0  0  0  0  0  0
   37.3990   24.6220   37.5490 H   0  0  0  0  0  0  0  0  0  0  0  0
   38.3640   22.9200   38.9830 H   0  0  0  0  0  0  0  0  0  0  0  0
   40.4740   21.8700   38.3340 H   0  0  0  0  0  0  0  0  0  0  0  0
   37.6530   25.3650   34.0700 C   0  0  0  0  0  0  0  0  0  0  0  0
   38.2960   25.5760   35.2920 C   0  0  0  0  0  0  0  0  0  0  0  0
   38.2840   26.8850   35.8460 C   0  0  0  0  0  0  0  0  0  0  0  0
   37.6250   27.8550   35.1190 N   0  0  0  0  0  0  0  0  0  0  0  0
   37.0250   27.5970   33.9540 C   0  0  0  0  0  0  0  0  0  0  0  0
   37.0360   26.3630   33.4280 N   0  0  0  0  0  0  0  0  0  0  0  0
   37.7470   24.3150   33.7720 H   0  0  0  0  0  0  0  0  0  0  0  0
   38.7710   27.0780   36.7870 H   0  0  0  0  0  0  0  0  0  0  0  0
   36.5170   28.3870   33.4100 H   0  0  0  0  0  0  0  0  0  0  0  0
   41.9850   22.3460   36.1310 C   0  0  0  0  0  0  0  0  0  0  0  0
   43.2560   22.8430   36.4270 C   0  0  0  0  0  0  0  0  0  0  0  0
   43.5450   23.7180   36.9740 H   0  0  0  0  0  0  0  0  0  0  0  0
   44.1490   21.9600   35.8590 C   0  0  0  0  0  0  0  0  0  0  0  0
   45.2260   21.9340   35.8280 H   0  0  0  0  0  0  0  0  0  0  0  0
   43.4580   20.9930   35.2610 N   0  0  0  0  0  0  0  0  0  0  0  0
   43.6510   20.1190   34.7080 H   0  0  0  0  0  0  0  0  0  0  0  0
   42.1480   21.2010   35.4090 N   0  0  0  0  0  0  0  0  0  0  0  0
  1  2  1  0  0  0  0
  2  3  2  0  0  0  0
  2  7  1  0  0  0  0
  3  4  1  0  0  0  0
  4  8  1  0  0  0  0
  4  5  2  0  0  0  0
  5  9  1  0  0  0  0
  6  5  1  0  0  0  0
  6 10  1  0  0  0  0
  7  6  2  0  0  0  0
 11 12  1  0  0  0  0
 12 13  2  0  0  0  0
 12  3  1  0  0  0  0
 13 18  1  0  0  0  0
 14 13  1  0  0  0  0
 15 14  2  0  0  0  0
 16 15  1  0  0  0  0
 16 11  2  0  0  0  0
 17 11  1  0  0  0  0
 19 15  1  0  0  0  0
 20 21  1  0  0  0  0
 20  7  1  0  0  0  0
 21 22  1  0  0  0  0
 23 21  2  0  0  0  0
 24 23  1  0  0  0  0
 25 27  1  0  0  0  0
 25 23  1  0  0  0  0
 26 25  1  0  0  0  0
 27 20  2  0  0  0  0
M  END
>  <minimizedAffinity>
-4.70492363

$$$$

 OpenBabel03262521053D

 27 29  0  0  0  0  0  0  0  0999 V2000
   39.9260   25.1410   32.0310 Br  0  0  0  0  0  0  0  0  0  0  0  0
   39.1880   26.0220   33.5400 C   0  0  0  0  0  0  0  0  0  0  0  0
   37.8190   26.1060   33.5670 C   0  0  0  0  0  0  0  0  0  0  0  0
   37.2120   26.7450   34.6570 C   0  0  0  0  0  0  0  0  0  0  0  0
   37.9880   27.2770   35.6780 C   0  0  0  0  0  0  0  0  0  0  0  0
   39.3380   27.1480   35.5720 C   0  0  0  0  0  0  0  0  0  0  0  0
   39.9790   26.5290   34.5190 C   0  0  0  0  0  0  0  0  0  0  0  0
   36.1390   26.8510   34.7490 H   0  0  0  0  0  0  0  0  0  0  0  0
   37.5170   27.7710   36.5210 H   0  0  0  0  0  0  0  0  0  0  0  0
   39.9480   27.5630   36.3700 H   0  0  0  0  0  0  0  0  0  0  0  0
   36.5820   24.2500   32.3670 C   0  0  0  0  0  0  0  0  0  0  0  0
   36.8660   25.6000   32.5770 C   0  0  0  0  0  0  0  0  0  0  0  0
   36.1910   26.5670   31.7820 C   0  0  0  0  0  0  0  0  0  0  0  0
   35.2950   26.0800   30.8520 N   0  0  0  0  0  0  0  0  0  0  0  0
   35.0610   24.7750   30.6920 C   0  0  0  0  0  0  0  0  0  0  0  0
   35.6970   23.8620   31.4410 N   0  0  0  0  0  0  0  0  0  0  0  0
   37.1740   23.6300   33.0490 H   0  0  0  0  0  0  0  0  0  0  0  0
   36.3900   27.6160   31.9210 H   0  0  0  0  0  0  0  0  0  0  0  0
   34.3490   24.4310   29.9500 H   0  0  0  0  0  0  0  0  0  0  0  0
   41.4210   26.3960   34.4120 C   0  0  0  0  0  0  0  0  0  0  0  0
   42.2590   27.2630   33.7090 C   0  0  0  0  0  0  0  0  0  0  0  0
   42.0260   28.1430   33.1450 H   0  0  0  0  0  0  0  0  0  0  0  0
   43.5360   26.7670   33.8710 C   0  0  0  0  0  0  0  0  0  0  0  0
   44.4960   27.1020   33.5120 H   0  0  0  0  0  0  0  0  0  0  0  0
   43.4680   25.6730   34.6230 N   0  0  0  0  0  0  0  0  0  0  0  0
   44.1240   24.9530   35.0210 H   0  0  0  0  0  0  0  0  0  0  0  0
   42.2010   25.4240   34.9650 N   0  0  0  0  0  0  0  0  0  0  0  0
  1  2  1  0  0  0  0
  2  3  2  0  0  0  0
  2  7  1  0  0  0  0
  3  4  1  0  0  0  0
  4  8  1  0  0  0  0
  4  5  2  0  0  0  0
  5  9  1  0  0  0  0
  6  5  1  0  0  0  0
  6 10  1  0  0  0  0
  7  6  2  0  0  0  0
 11 12  1  0  0  0  0
 11 17  1  0  0  0  0
 12  3  1  0  0  0  0
 13 18  1  0  0  0  0
 13 12  2  0  0  0  0
 14 13  1  0  0  0  0
 15 14  2  0  0  0  0
 15 16  1  0  0  0  0
 16 11  2  0  0  0  0
 19 15  1  0  0  0  0
 20  7  1  0  0  0  0
 20 27  2  0  0  0  0
 21 23  2  0  0  0  0
 21 20  1  0  0  0  0
 22 21  1  0  0  0  0
 23 25  1  0  0  0  0
 24 23  1  0  0  0  0
 25 27  1  0  0  0  0
 25 26  1  0  0  0  0
M  END
>  <minimizedAffinity>
-4.64579344

$$$$

 OpenBabel03262521053D

 27 29  0  0  0  0  0  0  0  0999 V2000
   38.8150   24.5970   32.2380 Br  0  0  0  0  0  0  0  0  0  0  0  0
   38.3880   25.8450   33.6000 C   0  0  0  0  0  0  0  0  0  0  0  0
   38.7810   25.4970   34.8680 C   0  0  0  0  0  0  0  0  0  0  0  0
   38.4960   26.3780   35.9200 C   0  0  0  0  0  0  0  0  0  0  0  0
   37.8290   27.5720   35.6730 C   0  0  0  0  0  0  0  0  0  0  0  0
   37.4770   27.8390   34.3870 C   0  0  0  0  0  0  0  0  0  0  0  0
   37.7360   27.0020   33.3200 C   0  0  0  0  0  0  0  0  0  0  0  0
   38.7730   26.1740   36.9460 H   0  0  0  0  0  0  0  0  0  0  0  0
   37.6090   28.2530   36.4880 H   0  0  0  0  0  0  0  0  0  0  0  0
   36.9550   28.7720   34.1900 H   0  0  0  0  0  0  0  0  0  0  0  0
   38.8620   23.1210   35.7410 C   0  0  0  0  0  0  0  0  0  0  0  0
   39.4860   24.2860   35.2920 C   0  0  0  0  0  0  0  0  0  0  0  0
   40.9070   24.3160   35.2380 C   0  0  0  0  0  0  0  0  0  0  0  0
   41.5620   23.1700   35.6400 N   0  0  0  0  0  0  0  0  0  0  0  0
   40.9130   22.0810   36.0610 C   0  0  0  0  0  0  0  0  0  0  0  0
   39.5730   22.0510   36.1140 N   0  0  0  0  0  0  0  0  0  0  0  0
   37.7740   23.2480   35.7270 H   0  0  0  0  0  0  0  0  0  0  0  0
   41.4160   25.2010   34.8960 H   0  0  0  0  0  0  0  0  0  0  0  0
   41.4630   21.1980   36.3700 H   0  0  0  0  0  0  0  0  0  0  0  0
   37.3560   27.2930   31.9500 C   0  0  0  0  0  0  0  0  0  0  0  0
   38.0850   28.0880   31.0630 C   0  0  0  0  0  0  0  0  0  0  0  0
   39.0100   28.6090   31.2030 H   0  0  0  0  0  0  0  0  0  0  0  0
   37.3680   28.0950   29.8860 C   0  0  0  0  0  0  0  0  0  0  0  0
   37.5400   28.5690   28.9320 H   0  0  0  0  0  0  0  0  0  0  0  0
   36.2780   27.3510   30.0540 N   0  0  0  0  0  0  0  0  0  0  0  0
   35.4420   27.0470   29.4930 H   0  0  0  0  0  0  0  0  0  0  0  0
   36.2450   26.8530   31.2930 N   0  0  0  0  0  0  0  0  0  0  0  0
  1  2  1  0  0  0  0
  2  3  1  0  0  0  0
  3 12  1  0  0  0  0
  3  4  2  0  0  0  0
  4  8  1  0  0  0  0
  5  4  1  0  0  0  0
  5  9  1  0  0  0  0
  6  5  2  0  0  0  0
  7  2  2  0  0  0  0
  7  6  1  0  0  0  0
 10  6  1  0  0  0  0
 11 16  1  0  0  0  0
 12 11  2  0  0  0  0
 13 12  1  0  0  0  0
 13 14  2  0  0  0  0
 14 15  1  0  0  0  0
 15 16  2  0  0  0  0
 15 19  1  0  0  0  0
 17 11  1  0  0  0  0
 18 13  1  0  0  0  0
 20  7  1  0  0  0  0
 21 22  1  0  0  0  0
 21 20  1  0  0  0  0
 23 25  1  0  0  0  0
 23 21  2  0  0  0  0
 24 23  1  0  0  0  0
 25 27  1  0  0  0  0
 26 25  1  0  0  0  0
 27 20  2  0  0  0  0
M  END
>  <minimizedAffinity>
-4.63984156

$$$$

 OpenBabel03262521053D

 27 29  0  0  0  0  0  0  0  0999 V2000
   38.1330   22.4420   33.4440 Br  0  0  0  0  0  0  0  0  0  0  0  0
   37.0010   23.6080   32.4680 C   0  0  0  0  0  0  0  0  0  0  0  0
   37.2660   24.9470   32.6090 C   0  0  0  0  0  0  0  0  0  0  0  0
   36.4640   25.8620   31.9120 C   0  0  0  0  0  0  0  0  0  0  0  0
   35.4290   25.4120   31.1020 C   0  0  0  0  0  0  0  0  0  0  0  0
   35.2370   24.0680   31.0190 C   0  0  0  0  0  0  0  0  0  0  0  0
   36.0000   23.1310   31.6860 C   0  0  0  0  0  0  0  0  0  0  0  0
   36.6100   26.9330   31.9720 H   0  0  0  0  0  0  0  0  0  0  0  0
   34.8100   26.1210   30.5630 H   0  0  0  0  0  0  0  0  0  0  0  0
   34.4280   23.7130   30.3860 H   0  0  0  0  0  0  0  0  0  0  0  0
   38.1610   25.9560   34.7520 C   0  0  0  0  0  0  0  0  0  0  0  0
   38.3100   25.5790   33.4160 C   0  0  0  0  0  0  0  0  0  0  0  0
   39.5590   25.8200   32.7800 C   0  0  0  0  0  0  0  0  0  0  0  0
   40.5360   26.4170   33.5500 N   0  0  0  0  0  0  0  0  0  0  0  0
   40.3390   26.7570   34.8260 C   0  0  0  0  0  0  0  0  0  0  0  0
   39.1620   26.5310   35.4280 N   0  0  0  0  0  0  0  0  0  0  0  0
   37.1530   25.7080   35.1030 H   0  0  0  0  0  0  0  0  0  0  0  0
   39.7030   25.5410   31.7500 H   0  0  0  0  0  0  0  0  0  0  0  0
   41.1330   27.2240   35.4000 H   0  0  0  0  0  0  0  0  0  0  0  0
   35.7890   21.6980   31.5930 C   0  0  0  0  0  0  0  0  0  0  0  0
   34.8920   20.9640   32.3720 C   0  0  0  0  0  0  0  0  0  0  0  0
   34.2230   21.2860   33.1430 H   0  0  0  0  0  0  0  0  0  0  0  0
   35.0150   19.6550   31.9560 C   0  0  0  0  0  0  0  0  0  0  0  0
   34.5280   18.7450   32.2670 H   0  0  0  0  0  0  0  0  0  0  0  0
   35.9270   19.6060   30.9890 N   0  0  0  0  0  0  0  0  0  0  0  0
   36.3710   18.8850   30.3650 H   0  0  0  0  0  0  0  0  0  0  0  0
   36.4110   20.8270   30.7480 N   0  0  0  0  0  0  0  0  0  0  0  0
  2  3  1  0  0  0  0
  2  1  1  0  0  0  0
  3 12  1  0  0  0  0
  4  8  1  0  0  0  0
  4  3  2  0  0  0  0
  5  4  1  0  0  0  0
  6  5  2  0  0  0  0
  6  7  1  0  0  0  0
  7  2  2  0  0  0  0
  9  5  1  0  0  0  0
 10  6  1  0  0  0  0
 11 17  1  0  0  0  0
 11 16  1  0  0  0  0
 12 11  2  0  0  0  0
 13 12  1  0  0  0  0
 13 14  2  0  0  0  0
 14 15  1  0  0  0  0
 15 19  1  0  0  0  0
 15 16  2  0  0  0  0
 18 13  1  0  0  0  0
 20  7  1  0  0  0  0
 20 21  1  0  0  0  0
 21 22  1  0  0  0  0
 23 24  1  0  0  0  0
 23 21  2  0  0  0  0
 25 23  1  0  0  0  0
 26 25  1  0  0  0  0
 27 25  1  0  0  0  0
 27 20  2  0  0  0  0
M  END
>  <minimizedAffinity>
-4.6101594

$$$$
