
 OpenBabel03272510333D

 27 29  0  0  0  0  0  0  0  0999 V2000
   35.9230   30.0490   47.9650 C   0  0  0  0  0  0  0  0  0  0  0  0
   35.0670   30.0580   46.8940 C   0  0  0  0  0  0  0  0  0  0  0  0
   33.9920   29.1910   46.8380 C   0  0  0  0  0  0  0  0  0  0  0  0
   33.7980   28.3180   47.8750 C   0  0  0  0  0  0  0  0  0  0  0  0
   34.6510   28.2820   48.9830 C   0  0  0  0  0  0  0  0  0  0  0  0
   35.7250   29.1630   49.0190 C   0  0  0  0  0  0  0  0  0  0  0  0
   35.1940   30.7330   46.0630 H   0  0  0  0  0  0  0  0  0  0  0  0
   33.2850   29.1410   46.0390 H   0  0  0  0  0  0  0  0  0  0  0  0
   32.9870   27.6040   47.9200 H   0  0  0  0  0  0  0  0  0  0  0  0
   34.5020   27.5960   49.8030 H   0  0  0  0  0  0  0  0  0  0  0  0
   38.0620   32.8320   48.9420 C   0  0  0  0  0  0  0  0  0  0  0  0
   39.0950   32.8210   48.0100 C   0  0  0  0  0  0  0  0  0  0  0  0
   39.0500   31.8130   47.0050 C   0  0  0  0  0  0  0  0  0  0  0  0
   38.0130   30.9450   47.0290 N   0  0  0  0  0  0  0  0  0  0  0  0
   37.0290   30.9860   47.9500 C   0  0  0  0  0  0  0  0  0  0  0  0
   37.0770   31.9380   48.8940 N   0  0  0  0  0  0  0  0  0  0  0  0
   38.1520   33.6200   49.6780 H   0  0  0  0  0  0  0  0  0  0  0  0
   39.9450   33.4790   47.9310 H   0  0  0  0  0  0  0  0  0  0  0  0
   39.7690   31.6640   46.2100 H   0  0  0  0  0  0  0  0  0  0  0  0
   36.6300   29.1490   50.1630 C   0  0  0  0  0  0  0  0  0  0  0  0
   36.1270   29.7420   51.3260 C   0  0  0  0  0  0  0  0  0  0  0  0
   35.2150   30.2300   51.6300 H   0  0  0  0  0  0  0  0  0  0  0  0
   37.1160   29.6380   52.2990 C   0  0  0  0  0  0  0  0  0  0  0  0
   37.1770   29.9550   53.3520 H   0  0  0  0  0  0  0  0  0  0  0  0
   38.1580   29.0030   51.7120 N   0  0  0  0  0  0  0  0  0  0  0  0
   39.0870   28.7440   52.1320 H   0  0  0  0  0  0  0  0  0  0  0  0
   37.8680   28.7120   50.4400 N   0  0  0  0  0  0  0  0  0  0  0  0
  1  6  1  0  0  0  0
  2  1  2  0  0  0  0
  3  2  1  0  0  0  0
  3  4  2  0  0  0  0
  4  9  1  0  0  0  0
  4  5  1  0  0  0  0
  5  6  2  0  0  0  0
  5 10  1  0  0  0  0
  6 20  1  0  0  0  0
  7  2  1  0  0  0  0
  8  3  1  0  0  0  0
 11 17  1  0  0  0  0
 12 11  2  0  0  0  0
 13 14  2  0  0  0  0
 13 12  1  0  0  0  0
 14 15  1  0  0  0  0
 15  1  1  0  0  0  0
 15 16  2  0  0  0  0
 16 11  1  0  0  0  0
 18 12  1  0  0  0  0
 19 13  1  0  0  0  0
 20 27  2  0  0  0  0
 20 21  1  0  0  0  0
 21 22  1  0  0  0  0
 21 23  2  0  0  0  0
 23 24  1  0  0  0  0
 25 26  1  0  0  0  0
 25 23  1  0  0  0  0
 27 25  1  0  0  0  0
M  END
>  <minimizedAffinity>
-5.37455654

>  <minimizedRMSD>
0.932461619

$$$$
