
 OpenBabel03272510323D

 27 29  0  0  0  0  0  0  0  0999 V2000
   36.1740   30.2680   47.1910 C   0  0  0  0  0  0  0  0  0  0  0  0
   35.3050   30.1160   46.1410 C   0  0  0  0  0  0  0  0  0  0  0  0
   34.0790   29.5040   46.3190 C   0  0  0  0  0  0  0  0  0  0  0  0
   33.7460   29.0500   47.5660 C   0  0  0  0  0  0  0  0  0  0  0  0
   34.6080   29.1890   48.6590 C   0  0  0  0  0  0  0  0  0  0  0  0
   35.8350   29.8070   48.4590 C   0  0  0  0  0  0  0  0  0  0  0  0
   35.5390   30.4630   45.1470 H   0  0  0  0  0  0  0  0  0  0  0  0
   33.3520   29.3510   45.5510 H   0  0  0  0  0  0  0  0  0  0  0  0
   32.8110   28.5590   47.8020 H   0  0  0  0  0  0  0  0  0  0  0  0
   34.3500   28.8320   49.6460 H   0  0  0  0  0  0  0  0  0  0  0  0
   38.7960   32.7970   47.2270 C   0  0  0  0  0  0  0  0  0  0  0  0
   39.8280   32.2410   46.4770 C   0  0  0  0  0  0  0  0  0  0  0  0
   39.6080   30.9410   45.9370 C   0  0  0  0  0  0  0  0  0  0  0  0
   38.4200   30.3460   46.1920 N   0  0  0  0  0  0  0  0  0  0  0  0
   37.4430   30.9170   46.9250 C   0  0  0  0  0  0  0  0  0  0  0  0
   37.6560   32.1410   47.4300 N   0  0  0  0  0  0  0  0  0  0  0  0
   39.0230   33.7840   47.6080 H   0  0  0  0  0  0  0  0  0  0  0  0
   40.7920   32.6560   46.2360 H   0  0  0  0  0  0  0  0  0  0  0  0
   40.3000   30.3680   45.3360 H   0  0  0  0  0  0  0  0  0  0  0  0
   36.7540   29.9670   49.5820 C   0  0  0  0  0  0  0  0  0  0  0  0
   36.1900   29.7520   50.8450 C   0  0  0  0  0  0  0  0  0  0  0  0
   35.2230   29.4890   51.2410 H   0  0  0  0  0  0  0  0  0  0  0  0
   37.2010   29.9470   51.7810 C   0  0  0  0  0  0  0  0  0  0  0  0
   37.2350   29.8900   52.8800 H   0  0  0  0  0  0  0  0  0  0  0  0
   38.3140   30.2650   51.0760 N   0  0  0  0  0  0  0  0  0  0  0  0
   39.2780   30.4810   51.4370 H   0  0  0  0  0  0  0  0  0  0  0  0
   38.0460   30.2750   49.7660 N   0  0  0  0  0  0  0  0  0  0  0  0
  1  6  1  0  0  0  0
  2  3  1  0  0  0  0
  2  1  2  0  0  0  0
  3  4  2  0  0  0  0
  4  9  1  0  0  0  0
  4  5  1  0  0  0  0
  5 10  1  0  0  0  0
  6  5  2  0  0  0  0
  6 20  1  0  0  0  0
  7  2  1  0  0  0  0
  8  3  1  0  0  0  0
 11 16  1  0  0  0  0
 11 17  1  0  0  0  0
 12 11  2  0  0  0  0
 13 14  2  0  0  0  0
 13 12  1  0  0  0  0
 14 15  1  0  0  0  0
 15  1  1  0  0  0  0
 15 16  2  0  0  0  0
 18 12  1  0  0  0  0
 19 13  1  0  0  0  0
 20 27  2  0  0  0  0
 20 21  1  0  0  0  0
 21 22  1  0  0  0  0
 21 23  2  0  0  0  0
 23 24  1  0  0  0  0
 25 26  1  0  0  0  0
 25 23  1  0  0  0  0
 27 25  1  0  0  0  0
M  END
>  <minimizedAffinity>
-5.5375123

>  <minimizedRMSD>
1.69512415

$$$$
