
 OpenBabel03272507043D

 30 33  0  0  0  0  0  0  0  0999 V2000
   37.7950   32.8710   49.6130 C   0  0  0  0  0  0  0  0  0  0  0  0
   38.7510   32.9030   48.5780 C   0  0  0  0  0  0  0  0  0  0  0  0
   38.6100   31.9370   47.5620 C   0  0  0  0  0  0  0  0  0  0  0  0
   37.5880   31.0440   47.6260 N   0  0  0  0  0  0  0  0  0  0  0  0
   36.6980   31.0490   48.6330 C   0  0  0  0  0  0  0  0  0  0  0  0
   36.8000   31.9590   49.6240 N   0  0  0  0  0  0  0  0  0  0  0  0
   37.8810   33.6050   50.4080 H   0  0  0  0  0  0  0  0  0  0  0  0
   39.5420   33.6100   48.5470 H   0  0  0  0  0  0  0  0  0  0  0  0
   35.6480   29.0310   49.5690 C   0  0  0  0  0  0  0  0  0  0  0  0
   35.6210   30.0710   48.6550 C   0  0  0  0  0  0  0  0  0  0  0  0
   34.5790   30.1970   47.7520 C   0  0  0  0  0  0  0  0  0  0  0  0
   33.5410   29.2880   47.7440 C   0  0  0  0  0  0  0  0  0  0  0  0
   32.4270   29.1530   47.0110 N   0  0  0  0  0  0  0  0  0  0  0  0
   31.8110   28.0410   47.4990 C   0  0  0  0  0  0  0  0  0  0  0  0
   32.5280   27.5100   48.5000 N   0  0  0  0  0  0  0  0  0  0  0  0
   33.6100   28.2690   48.6730 C   0  0  0  0  0  0  0  0  0  0  0  0
   34.6270   28.1010   49.5910 C   0  0  0  0  0  0  0  0  0  0  0  0
   36.4500   28.9300   50.2670 H   0  0  0  0  0  0  0  0  0  0  0  0
   34.5600   31.0080   47.0410 H   0  0  0  0  0  0  0  0  0  0  0  0
   32.1780   29.8190   46.2490 H   0  0  0  0  0  0  0  0  0  0  0  0
   30.8670   27.7320   47.0450 H   0  0  0  0  0  0  0  0  0  0  0  0
   34.6110   27.2650   50.2970 H   0  0  0  0  0  0  0  0  0  0  0  0
   39.5440   31.8810   46.4440 C   0  0  0  0  0  0  0  0  0  0  0  0
   39.9960   32.9800   45.7410 C   0  0  0  0  0  0  0  0  0  0  0  0
   39.7010   34.0150   45.9480 H   0  0  0  0  0  0  0  0  0  0  0  0
   40.8720   32.5760   44.7440 C   0  0  0  0  0  0  0  0  0  0  0  0
   41.3820   33.2390   44.0340 H   0  0  0  0  0  0  0  0  0  0  0  0
   40.9280   31.2300   44.8690 N   0  0  0  0  0  0  0  0  0  0  0  0
   41.5370   30.6900   44.2140 H   0  0  0  0  0  0  0  0  0  0  0  0
   40.1530   30.8420   45.8590 N   0  0  0  0  0  0  0  0  0  0  0  0
  1  6  1  0  0  0  0
  1  7  1  0  0  0  0
  2  1  2  0  0  0  0
  3  4  2  0  0  0  0
  3  2  1  0  0  0  0
  4  5  1  0  0  0  0
  5 10  1  0  0  0  0
  5  6  2  0  0  0  0
  8  2  1  0  0  0  0
  9 17  1  0  0  0  0
  9 18  1  0  0  0  0
 10  9  2  0  0  0  0
 11 10  1  0  0  0  0
 12 11  2  0  0  0  0
 12 16  1  0  0  0  0
 13 14  1  0  0  0  0
 13 12  1  0  0  0  0
 14 15  2  0  0  0  0
 15 16  1  0  0  0  0
 16 17  2  0  0  0  0
 17 22  1  0  0  0  0
 19 11  1  0  0  0  0
 20 13  1  0  0  0  0
 21 14  1  0  0  0  0
 23  3  1  0  0  0  0
 24 25  1  0  0  0  0
 24 23  1  0  0  0  0
 26 28  1  0  0  0  0
 26 24  2  0  0  0  0
 27 26  1  0  0  0  0
 28 30  1  0  0  0  0
 29 28  1  0  0  0  0
 30 23  2  0  0  0  0
M  END
>  <minimizedAffinity>
-6.80817986

>  <minimizedRMSD>
1.89195585

$$$$
