
 OpenBabel03272510323D

 27 29  0  0  0  0  0  0  0  0999 V2000
   35.9450   30.2160   48.5180 C   0  0  0  0  0  0  0  0  0  0  0  0
   35.0790   30.1830   47.4550 C   0  0  0  0  0  0  0  0  0  0  0  0
   34.0420   29.2700   47.4140 C   0  0  0  0  0  0  0  0  0  0  0  0
   33.8960   28.3950   48.4570 C   0  0  0  0  0  0  0  0  0  0  0  0
   34.7610   28.4020   49.5560 C   0  0  0  0  0  0  0  0  0  0  0  0
   35.7960   29.3280   49.5780 C   0  0  0  0  0  0  0  0  0  0  0  0
   35.1690   30.8580   46.6200 H   0  0  0  0  0  0  0  0  0  0  0  0
   33.3300   29.1840   46.6220 H   0  0  0  0  0  0  0  0  0  0  0  0
   33.1180   27.6460   48.5140 H   0  0  0  0  0  0  0  0  0  0  0  0
   34.6490   27.7140   50.3820 H   0  0  0  0  0  0  0  0  0  0  0  0
   37.9210   33.1470   49.4040 C   0  0  0  0  0  0  0  0  0  0  0  0
   38.9890   33.1290   48.5130 C   0  0  0  0  0  0  0  0  0  0  0  0
   39.0280   32.0630   47.5680 C   0  0  0  0  0  0  0  0  0  0  0  0
   38.0290   31.1520   47.6070 N   0  0  0  0  0  0  0  0  0  0  0  0
   37.0090   31.2010   48.4870 C   0  0  0  0  0  0  0  0  0  0  0  0
   36.9780   32.2070   49.3740 N   0  0  0  0  0  0  0  0  0  0  0  0
   37.9480   33.9790   50.0950 H   0  0  0  0  0  0  0  0  0  0  0  0
   39.8130   33.8190   48.4260 H   0  0  0  0  0  0  0  0  0  0  0  0
   39.7820   31.9010   46.8100 H   0  0  0  0  0  0  0  0  0  0  0  0
   36.7120   29.3600   50.7130 C   0  0  0  0  0  0  0  0  0  0  0  0
   37.6760   28.3440   50.7260 C   0  0  0  0  0  0  0  0  0  0  0  0
   37.9450   27.5050   50.1050 H   0  0  0  0  0  0  0  0  0  0  0  0
   38.4490   28.5310   51.8670 C   0  0  0  0  0  0  0  0  0  0  0  0
   39.3100   27.9930   52.2940 H   0  0  0  0  0  0  0  0  0  0  0  0
   37.9450   29.6230   52.4920 N   0  0  0  0  0  0  0  0  0  0  0  0
   38.2680   30.0720   53.3860 H   0  0  0  0  0  0  0  0  0  0  0  0
   36.9110   30.1150   51.8040 N   0  0  0  0  0  0  0  0  0  0  0  0
  1  6  1  0  0  0  0
  2  1  2  0  0  0  0
  3  2  1  0  0  0  0
  3  4  2  0  0  0  0
  4  9  1  0  0  0  0
  4  5  1  0  0  0  0
  5  6  2  0  0  0  0
  5 10  1  0  0  0  0
  6 20  1  0  0  0  0
  7  2  1  0  0  0  0
  8  3  1  0  0  0  0
 11 17  1  0  0  0  0
 12 11  2  0  0  0  0
 13 14  2  0  0  0  0
 13 12  1  0  0  0  0
 14 15  1  0  0  0  0
 15  1  1  0  0  0  0
 15 16  2  0  0  0  0
 16 11  1  0  0  0  0
 18 12  1  0  0  0  0
 19 13  1  0  0  0  0
 20 21  1  0  0  0  0
 20 27  2  0  0  0  0
 21 23  2  0  0  0  0
 22 21  1  0  0  0  0
 23 24  1  0  0  0  0
 23 25  1  0  0  0  0
 25 26  1  0  0  0  0
 27 25  1  0  0  0  0
M  END
>  <minimizedAffinity>
-4.62192535

>  <minimizedRMSD>
0.390657753

$$$$
