REMARK  Name = 
REMARK  2 active torsions:
REMARK  status: ('A' for Active; 'I' for Inactive)
REMARK    1  A    between atoms: C_5  and  C_7
REMARK    2  A    between atoms: C_12  and  C_20
REMARK                            x       y       z     vdW  Elec       q    Type
REMARK                         _______ _______ _______ _____ _____    ______ ____
ROOT
ATOM      1  C   UNL     1      36.089  30.138  48.601  0.00  0.00    +0.000 A 
ATOM      2  C   UNL     1      35.285  29.950  47.506  0.00  0.00    +0.000 A 
ATOM      3  C   UNL     1      34.307  28.974  47.504  0.00  0.00    +0.000 A 
ATOM      4  C   UNL     1      34.155  28.194  48.619  0.00  0.00    +0.000 A 
ATOM      5  C   UNL     1      34.957  28.359  49.753  0.00  0.00    +0.000 A 
ATOM      6  C   UNL     1      35.934  29.346  49.734  0.00  0.00    +0.000 A 
ATOM      7  H   UNL     1      35.381  30.548  46.614  0.00  0.00    +0.000 HD
ATOM      8  H   UNL     1      33.645  28.770  46.691  0.00  0.00    +0.000 HD
ATOM      9  H   UNL     1      33.419  27.407  48.711  0.00  0.00    +0.000 HD
ATOM     10  H   UNL     1      34.841  27.747  50.635  0.00  0.00    +0.000 HD
ENDROOT
BRANCH   1  15
ATOM     11  C   UNL     1      38.019  33.100  49.484  0.00  0.00    +0.000 A 
ATOM     12  C   UNL     1      38.972  33.208  48.476  0.00  0.00    +0.000 A 
ATOM     13  C   UNL     1      38.946  32.219  47.451  0.00  0.00    +0.000 A 
ATOM     14  N   UNL     1      38.003  31.253  47.532  0.00  0.00    +0.000 NA
ATOM     15  C   UNL     1      37.095  31.180  48.526  0.00  0.00    +0.000 A 
ATOM     16  N   UNL     1      37.124  32.114  49.488  0.00  0.00    +0.000 NA
ATOM     17  H   UNL     1      38.090  33.879  50.231  0.00  0.00    +0.000 HD
ATOM     18  H   UNL     1      39.746  33.947  48.350  0.00  0.00    +0.000 HD
ATOM     19  H   UNL     1      39.611  32.156  46.600  0.00  0.00    +0.000 HD
ENDBRANCH   1  15
BRANCH   6  20
ATOM     20  C   UNL     1      36.784  29.542  50.904  0.00  0.00    +0.000 A 
ATOM     21  C   UNL     1      38.055  30.062  50.633  0.00  0.00    +0.000 A 
ATOM     22  H   UNL     1      38.609  30.375  49.763  0.00  0.00    +0.000 HD
ATOM     23  C   UNL     1      38.716  30.179  51.852  0.00  0.00    +0.000 A 
ATOM     24  H   UNL     1      39.718  30.534  52.138  0.00  0.00    +0.000 HD
ATOM     25  N   UNL     1      37.850  29.738  52.797  0.00  0.00    +0.000 N 
ATOM     26  H   UNL     1      37.992  29.674  53.836  0.00  0.00    +0.000 HD
ATOM     27  N   UNL     1      36.700  29.358  52.231  0.00  0.00    +0.000 NA
ENDBRANCH   6  20
TORSDOF 2
