
 OpenBabel03272510163D

 27 29  0  0  0  0  0  0  0  0999 V2000
   37.3270   29.3560   51.0680 Br  0  0  0  0  0  0  0  0  0  0  0  0
   35.9690   29.3370   49.7150 C   0  0  0  0  0  0  0  0  0  0  0  0
   35.9850   30.2440   48.6690 C   0  0  0  0  0  0  0  0  0  0  0  0
   34.9820   30.1670   47.7420 C   0  0  0  0  0  0  0  0  0  0  0  0
   33.9630   29.2410   47.7950 C   0  0  0  0  0  0  0  0  0  0  0  0
   33.9670   28.3540   48.8390 C   0  0  0  0  0  0  0  0  0  0  0  0
   34.9660   28.4030   49.7950 C   0  0  0  0  0  0  0  0  0  0  0  0
   35.0150   30.8860   46.9340 H   0  0  0  0  0  0  0  0  0  0  0  0
   33.2000   27.6020   48.9440 H   0  0  0  0  0  0  0  0  0  0  0  0
   34.9820   27.7020   50.6330 H   0  0  0  0  0  0  0  0  0  0  0  0
   37.9930   33.1990   49.4390 C   0  0  0  0  0  0  0  0  0  0  0  0
   39.0300   33.1710   48.4580 C   0  0  0  0  0  0  0  0  0  0  0  0
   39.0070   32.1180   47.5440 C   0  0  0  0  0  0  0  0  0  0  0  0
   38.0160   31.1820   47.6290 N   0  0  0  0  0  0  0  0  0  0  0  0
   37.0490   31.2430   48.5740 C   0  0  0  0  0  0  0  0  0  0  0  0
   37.0420   32.2560   49.4810 N   0  0  0  0  0  0  0  0  0  0  0  0
   37.9540   33.9990   50.1860 H   0  0  0  0  0  0  0  0  0  0  0  0
   39.7830   33.9490   48.4540 H   0  0  0  0  0  0  0  0  0  0  0  0
   39.7720   32.0640   46.7910 H   0  0  0  0  0  0  0  0  0  0  0  0
   32.9280   29.2180   46.7740 C   0  0  0  0  0  0  0  0  0  0  0  0
   32.5120   30.2980   46.0280 C   0  0  0  0  0  0  0  0  0  0  0  0
   32.8890   31.3130   46.0900 H   0  0  0  0  0  0  0  0  0  0  0  0
   31.5030   29.8690   45.1580 C   0  0  0  0  0  0  0  0  0  0  0  0
   31.0050   30.5280   44.4600 H   0  0  0  0  0  0  0  0  0  0  0  0
   31.3470   28.5470   45.4110 N   0  0  0  0  0  0  0  0  0  0  0  0
   30.6240   28.0530   44.8450 H   0  0  0  0  0  0  0  0  0  0  0  0
   32.1940   28.1700   46.3690 N   0  0  0  0  0  0  0  0  0  0  0  0
  2  7  1  0  0  0  0
  2  1  1  0  0  0  0
  3  2  2  0  0  0  0
  4  5  2  0  0  0  0
  4  3  1  0  0  0  0
  5  6  1  0  0  0  0
  6  9  1  0  0  0  0
  6  7  2  0  0  0  0
  7 10  1  0  0  0  0
  8  4  1  0  0  0  0
 11 16  1  0  0  0  0
 11 17  1  0  0  0  0
 12 11  2  0  0  0  0
 13 14  2  0  0  0  0
 13 12  1  0  0  0  0
 14 15  1  0  0  0  0
 15  3  1  0  0  0  0
 15 16  2  0  0  0  0
 18 12  1  0  0  0  0
 19 13  1  0  0  0  0
 20  5  1  0  0  0  0
 21 22  1  0  0  0  0
 21 20  1  0  0  0  0
 23 25  1  0  0  0  0
 23 21  2  0  0  0  0
 24 23  1  0  0  0  0
 25 27  1  0  0  0  0
 26 25  1  0  0  0  0
 27 20  2  0  0  0  0
M  END
>  <minimizedAffinity>
-5.79483986

>  <minimizedRMSD>
0.365079969

$$$$
