
 OpenBabel03272510183D

 27 29  0  0  0  0  0  0  0  0999 V2000
   37.0550   29.4290   29.8950 Br  0  0  0  0  0  0  0  0  0  0  0  0
   36.3980   29.9790   31.6100 C   0  0  0  0  0  0  0  0  0  0  0  0
   36.0850   29.0520   32.5890 C   0  0  0  0  0  0  0  0  0  0  0  0
   35.6210   29.5220   33.7880 C   0  0  0  0  0  0  0  0  0  0  0  0
   35.4510   30.8600   34.0690 C   0  0  0  0  0  0  0  0  0  0  0  0
   35.7670   31.7590   33.0840 C   0  0  0  0  0  0  0  0  0  0  0  0
   36.2380   31.3190   31.8600 C   0  0  0  0  0  0  0  0  0  0  0  0
   35.3820   28.7800   34.5390 H   0  0  0  0  0  0  0  0  0  0  0  0
   35.6590   32.8220   33.2340 H   0  0  0  0  0  0  0  0  0  0  0  0
   36.4950   32.0240   31.0660 H   0  0  0  0  0  0  0  0  0  0  0  0
   37.4640   25.6730   32.7740 C   0  0  0  0  0  0  0  0  0  0  0  0
   36.6260   24.9160   31.9000 C   0  0  0  0  0  0  0  0  0  0  0  0
   35.5940   25.6020   31.2620 C   0  0  0  0  0  0  0  0  0  0  0  0
   35.4340   26.9380   31.4980 N   0  0  0  0  0  0  0  0  0  0  0  0
   36.2510   27.6210   32.3330 C   0  0  0  0  0  0  0  0  0  0  0  0
   37.2670   26.9830   32.9720 N   0  0  0  0  0  0  0  0  0  0  0  0
   38.2930   25.1940   33.3060 H   0  0  0  0  0  0  0  0  0  0  0  0
   36.8140   23.8580   31.7640 H   0  0  0  0  0  0  0  0  0  0  0  0
   34.9430   25.0640   30.5970 H   0  0  0  0  0  0  0  0  0  0  0  0
   34.9530   31.2890   35.3660 C   0  0  0  0  0  0  0  0  0  0  0  0
   33.6500   31.1810   35.8010 C   0  0  0  0  0  0  0  0  0  0  0  0
   32.8150   30.7660   35.2470 H   0  0  0  0  0  0  0  0  0  0  0  0
   33.5750   31.7030   37.0970 C   0  0  0  0  0  0  0  0  0  0  0  0
   32.6570   31.7360   37.6680 H   0  0  0  0  0  0  0  0  0  0  0  0
   34.8340   32.1060   37.3970 N   0  0  0  0  0  0  0  0  0  0  0  0
   34.9680   32.5280   38.3410 H   0  0  0  0  0  0  0  0  0  0  0  0
   35.6430   31.8580   36.3660 N   0  0  0  0  0  0  0  0  0  0  0  0
  1  2  1  0  0  0  0
  2  7  2  0  0  0  0
  2  3  1  0  0  0  0
  3  4  2  0  0  0  0
  4  5  1  0  0  0  0
  4  8  1  0  0  0  0
  5 20  1  0  0  0  0
  6  9  1  0  0  0  0
  6  5  2  0  0  0  0
  7  6  1  0  0  0  0
 10  7  1  0  0  0  0
 11 16  1  0  0  0  0
 11 17  1  0  0  0  0
 12 11  2  0  0  0  0
 13 14  2  0  0  0  0
 13 12  1  0  0  0  0
 14 15  1  0  0  0  0
 15  3  1  0  0  0  0
 15 16  2  0  0  0  0
 18 12  1  0  0  0  0
 19 13  1  0  0  0  0
 20 21  1  0  0  0  0
 20 27  2  0  0  0  0
 21 23  2  0  0  0  0
 22 21  1  0  0  0  0
 23 25  1  0  0  0  0
 23 24  1  0  0  0  0
 25 26  1  0  0  0  0
 27 25  1  0  0  0  0
M  END
>  <minimizedAffinity>
-5.25131702

$$$$

 OpenBabel03272510183D

 27 29  0  0  0  0  0  0  0  0999 V2000
   39.8080   25.6980   30.9910 Br  0  0  0  0  0  0  0  0  0  0  0  0
   39.5330   25.0910   32.7880 C   0  0  0  0  0  0  0  0  0  0  0  0
   38.2620   24.8320   33.2710 C   0  0  0  0  0  0  0  0  0  0  0  0
   38.1460   24.4020   34.5650 C   0  0  0  0  0  0  0  0  0  0  0  0
   39.2210   24.2150   35.4060 C   0  0  0  0  0  0  0  0  0  0  0  0
   40.4700   24.4770   34.9070 C   0  0  0  0  0  0  0  0  0  0  0  0
   40.6230   24.9140   33.6030 C   0  0  0  0  0  0  0  0  0  0  0  0
   37.1430   24.2050   34.9210 H   0  0  0  0  0  0  0  0  0  0  0  0
   41.3560   24.3530   35.5090 H   0  0  0  0  0  0  0  0  0  0  0  0
   41.6130   25.1280   33.1910 H   0  0  0  0  0  0  0  0  0  0  0  0
   35.4020   24.0120   31.1480 C   0  0  0  0  0  0  0  0  0  0  0  0
   34.8750   25.2870   30.7810 C   0  0  0  0  0  0  0  0  0  0  0  0
   35.5300   26.4110   31.2830 C   0  0  0  0  0  0  0  0  0  0  0  0
   36.6220   26.2440   32.0860 N   0  0  0  0  0  0  0  0  0  0  0  0
   37.0930   25.0170   32.4110 C   0  0  0  0  0  0  0  0  0  0  0  0
   36.4780   23.9010   31.9390 N   0  0  0  0  0  0  0  0  0  0  0  0
   34.9340   23.0900   30.7870 H   0  0  0  0  0  0  0  0  0  0  0  0
   34.0040   25.3410   30.1400 H   0  0  0  0  0  0  0  0  0  0  0  0
   35.1610   27.3880   31.0280 H   0  0  0  0  0  0  0  0  0  0  0  0
   39.0230   23.7550   36.7720 C   0  0  0  0  0  0  0  0  0  0  0  0
   38.0390   24.1920   37.6310 C   0  0  0  0  0  0  0  0  0  0  0  0
   37.2750   24.9320   37.4170 H   0  0  0  0  0  0  0  0  0  0  0  0
   38.1830   23.5130   38.8460 C   0  0  0  0  0  0  0  0  0  0  0  0
   37.5310   23.6740   39.6930 H   0  0  0  0  0  0  0  0  0  0  0  0
   39.2490   22.6920   38.6760 N   0  0  0  0  0  0  0  0  0  0  0  0
   39.5070   22.1000   39.4940 H   0  0  0  0  0  0  0  0  0  0  0  0
   39.7400   22.8430   37.4460 N   0  0  0  0  0  0  0  0  0  0  0  0
  1  2  1  0  0  0  0
  2  3  2  0  0  0  0
  2  7  1  0  0  0  0
  3  4  1  0  0  0  0
  4  8  1  0  0  0  0
  4  5  2  0  0  0  0
  5 20  1  0  0  0  0
  6  5  1  0  0  0  0
  6  9  1  0  0  0  0
  7  6  2  0  0  0  0
 10  7  1  0  0  0  0
 11 16  1  0  0  0  0
 12 11  2  0  0  0  0
 12 13  1  0  0  0  0
 13 14  2  0  0  0  0
 14 15  1  0  0  0  0
 15  3  1  0  0  0  0
 16 15  2  0  0  0  0
 17 11  1  0  0  0  0
 18 12  1  0  0  0  0
 19 13  1  0  0  0  0
 20 27  2  0  0  0  0
 20 21  1  0  0  0  0
 21 23  2  0  0  0  0
 22 21  1  0  0  0  0
 23 24  1  0  0  0  0
 25 23  1  0  0  0  0
 25 26  1  0  0  0  0
 27 25  1  0  0  0  0
M  END
>  <minimizedAffinity>
-5.22689295

$$$$

 OpenBabel03272510183D

 27 29  0  0  0  0  0  0  0  0999 V2000
   38.9660   25.6220   34.3090 Br  0  0  0  0  0  0  0  0  0  0  0  0
   38.1370   23.9910   33.7360 C   0  0  0  0  0  0  0  0  0  0  0  0
   37.9520   22.9350   34.6100 C   0  0  0  0  0  0  0  0  0  0  0  0
   37.3530   21.8030   34.1260 C   0  0  0  0  0  0  0  0  0  0  0  0
   36.9270   21.6630   32.8240 C   0  0  0  0  0  0  0  0  0  0  0  0
   37.1210   22.7220   31.9760 C   0  0  0  0  0  0  0  0  0  0  0  0
   37.7240   23.8810   32.4310 C   0  0  0  0  0  0  0  0  0  0  0  0
   37.2180   20.9900   34.8270 H   0  0  0  0  0  0  0  0  0  0  0  0
   36.8130   22.6820   30.9430 H   0  0  0  0  0  0  0  0  0  0  0  0
   37.8850   24.7330   31.7670 H   0  0  0  0  0  0  0  0  0  0  0  0
   37.8690   23.7120   38.1800 C   0  0  0  0  0  0  0  0  0  0  0  0
   39.1440   23.2770   38.6530 C   0  0  0  0  0  0  0  0  0  0  0  0
   40.0100   22.7190   37.7130 C   0  0  0  0  0  0  0  0  0  0  0  0
   39.6070   22.6170   36.4120 N   0  0  0  0  0  0  0  0  0  0  0  0
   38.3890   23.0420   36.0020 C   0  0  0  0  0  0  0  0  0  0  0  0
   37.5200   23.5900   36.8920 N   0  0  0  0  0  0  0  0  0  0  0  0
   37.1420   24.1580   38.8670 H   0  0  0  0  0  0  0  0  0  0  0  0
   39.3920   23.3900   39.7000 H   0  0  0  0  0  0  0  0  0  0  0  0
   40.9780   22.3800   38.0320 H   0  0  0  0  0  0  0  0  0  0  0  0
   36.2970   20.4300   32.3780 C   0  0  0  0  0  0  0  0  0  0  0  0
   35.5800   19.5620   33.1720 C   0  0  0  0  0  0  0  0  0  0  0  0
   35.3820   19.6690   34.2330 H   0  0  0  0  0  0  0  0  0  0  0  0
   35.1400   18.5000   32.3750 C   0  0  0  0  0  0  0  0  0  0  0  0
   34.5510   17.6790   32.7600 H   0  0  0  0  0  0  0  0  0  0  0  0
   35.6070   18.7650   31.1300 N   0  0  0  0  0  0  0  0  0  0  0  0
   35.3690   18.0670   30.3930 H   0  0  0  0  0  0  0  0  0  0  0  0
   36.2910   19.9090   31.1410 N   0  0  0  0  0  0  0  0  0  0  0  0
  2  1  1  0  0  0  0
  2  3  1  0  0  0  0
  3 15  1  0  0  0  0
  4  3  2  0  0  0  0
  4  8  1  0  0  0  0
  5  4  1  0  0  0  0
  6  7  1  0  0  0  0
  6  5  2  0  0  0  0
  7  2  2  0  0  0  0
  9  6  1  0  0  0  0
 10  7  1  0  0  0  0
 11 12  1  0  0  0  0
 11 17  1  0  0  0  0
 12 18  1  0  0  0  0
 13 19  1  0  0  0  0
 13 12  2  0  0  0  0
 14 13  1  0  0  0  0
 15 14  2  0  0  0  0
 15 16  1  0  0  0  0
 16 11  2  0  0  0  0
 20  5  1  0  0  0  0
 20 21  1  0  0  0  0
 21 22  1  0  0  0  0
 23 24  1  0  0  0  0
 23 21  2  0  0  0  0
 25 27  1  0  0  0  0
 25 23  1  0  0  0  0
 26 25  1  0  0  0  0
 27 20  2  0  0  0  0
M  END
>  <minimizedAffinity>
-5.1235013

$$$$

 OpenBabel03272510183D

 27 29  0  0  0  0  0  0  0  0999 V2000
   38.8850   25.6170   34.3060 Br  0  0  0  0  0  0  0  0  0  0  0  0
   38.0830   23.9720   33.7360 C   0  0  0  0  0  0  0  0  0  0  0  0
   37.8930   22.9230   34.6180 C   0  0  0  0  0  0  0  0  0  0  0  0
   37.3130   21.7800   34.1360 C   0  0  0  0  0  0  0  0  0  0  0  0
   36.9110   21.6220   32.8280 C   0  0  0  0  0  0  0  0  0  0  0  0
   37.1090   22.6740   31.9720 C   0  0  0  0  0  0  0  0  0  0  0  0
   37.6930   23.8440   32.4260 C   0  0  0  0  0  0  0  0  0  0  0  0
   37.1750   20.9730   34.8430 H   0  0  0  0  0  0  0  0  0  0  0  0
   36.8190   22.6200   30.9350 H   0  0  0  0  0  0  0  0  0  0  0  0
   37.8570   24.6910   31.7560 H   0  0  0  0  0  0  0  0  0  0  0  0
   39.9720   22.6940   37.6140 C   0  0  0  0  0  0  0  0  0  0  0  0
   39.1530   23.2530   38.6410 C   0  0  0  0  0  0  0  0  0  0  0  0
   37.8870   23.7000   38.2650 C   0  0  0  0  0  0  0  0  0  0  0  0
   37.4980   23.5860   36.9610 N   0  0  0  0  0  0  0  0  0  0  0  0
   38.3050   23.0480   36.0160 C   0  0  0  0  0  0  0  0  0  0  0  0
   39.5450   22.6030   36.3480 N   0  0  0  0  0  0  0  0  0  0  0  0
   40.9780   22.3250   37.8430 H   0  0  0  0  0  0  0  0  0  0  0  0
   39.5310   23.3120   39.6540 H   0  0  0  0  0  0  0  0  0  0  0  0
   37.2420   24.1280   39.0110 H   0  0  0  0  0  0  0  0  0  0  0  0
   36.3020   20.3790   32.3840 C   0  0  0  0  0  0  0  0  0  0  0  0
   35.5640   19.5210   33.1710 C   0  0  0  0  0  0  0  0  0  0  0  0
   35.3330   19.6450   34.2230 H   0  0  0  0  0  0  0  0  0  0  0  0
   35.1540   18.4420   32.3790 C   0  0  0  0  0  0  0  0  0  0  0  0
   34.5570   17.6250   32.7600 H   0  0  0  0  0  0  0  0  0  0  0  0
   35.6580   18.6890   31.1450 N   0  0  0  0  0  0  0  0  0  0  0  0
   35.4470   17.9770   30.4130 H   0  0  0  0  0  0  0  0  0  0  0  0
   36.3360   19.8360   31.1570 N   0  0  0  0  0  0  0  0  0  0  0  0
  2  1  1  0  0  0  0
  2  3  1  0  0  0  0
  3 15  1  0  0  0  0
  4  3  2  0  0  0  0
  4  8  1  0  0  0  0
  5  4  1  0  0  0  0
  6  7  1  0  0  0  0
  6  5  2  0  0  0  0
  7  2  2  0  0  0  0
  9  6  1  0  0  0  0
 10  7  1  0  0  0  0
 11 17  1  0  0  0  0
 11 12  1  0  0  0  0
 12 18  1  0  0  0  0
 13 12  2  0  0  0  0
 13 19  1  0  0  0  0
 14 13  1  0  0  0  0
 15 16  1  0  0  0  0
 15 14  2  0  0  0  0
 16 11  2  0  0  0  0
 20  5  1  0  0  0  0
 20 21  1  0  0  0  0
 21 22  1  0  0  0  0
 23 24  1  0  0  0  0
 23 21  2  0  0  0  0
 25 27  1  0  0  0  0
 25 23  1  0  0  0  0
 26 25  1  0  0  0  0
 27 20  2  0  0  0  0
M  END
>  <minimizedAffinity>
-5.1171751

$$$$

 OpenBabel03272510183D

 27 29  0  0  0  0  0  0  0  0999 V2000
   36.8370   24.5060   30.8420 Br  0  0  0  0  0  0  0  0  0  0  0  0
   37.4090   24.1270   32.6320 C   0  0  0  0  0  0  0  0  0  0  0  0
   37.4580   22.8300   33.1100 C   0  0  0  0  0  0  0  0  0  0  0  0
   37.8770   22.6390   34.3990 C   0  0  0  0  0  0  0  0  0  0  0  0
   38.2500   23.6660   35.2390 C   0  0  0  0  0  0  0  0  0  0  0  0
   38.1930   24.9420   34.7450 C   0  0  0  0  0  0  0  0  0  0  0  0
   37.7740   25.1710   33.4460 C   0  0  0  0  0  0  0  0  0  0  0  0
   37.9080   21.6170   34.7520 H   0  0  0  0  0  0  0  0  0  0  0  0
   38.4700   25.7940   35.3460 H   0  0  0  0  0  0  0  0  0  0  0  0
   37.7240   26.1830   33.0380 H   0  0  0  0  0  0  0  0  0  0  0  0
   35.3860   20.2360   31.5820 C   0  0  0  0  0  0  0  0  0  0  0  0
   36.2680   19.5960   30.6590 C   0  0  0  0  0  0  0  0  0  0  0  0
   37.5720   20.0850   30.5880 C   0  0  0  0  0  0  0  0  0  0  0  0
   37.9380   21.1310   31.3870 N   0  0  0  0  0  0  0  0  0  0  0  0
   37.0720   21.7100   32.2510 C   0  0  0  0  0  0  0  0  0  0  0  0
   35.7930   21.2590   32.3460 N   0  0  0  0  0  0  0  0  0  0  0  0
   34.3490   19.9010   31.6860 H   0  0  0  0  0  0  0  0  0  0  0  0
   35.9050   18.7730   30.0560 H   0  0  0  0  0  0  0  0  0  0  0  0
   38.2630   19.6290   29.9030 H   0  0  0  0  0  0  0  0  0  0  0  0
   38.6850   23.3900   36.5990 C   0  0  0  0  0  0  0  0  0  0  0  0
   38.1320   23.9240   37.7430 C   0  0  0  0  0  0  0  0  0  0  0  0
   37.3020   24.6200   37.7960 H   0  0  0  0  0  0  0  0  0  0  0  0
   38.8280   23.4160   38.8460 C   0  0  0  0  0  0  0  0  0  0  0  0
   38.5880   23.6800   39.8660 H   0  0  0  0  0  0  0  0  0  0  0  0
   39.7740   22.5940   38.3280 N   0  0  0  0  0  0  0  0  0  0  0  0
   40.3950   22.1190   39.0170 H   0  0  0  0  0  0  0  0  0  0  0  0
   39.6820   22.5850   36.9980 N   0  0  0  0  0  0  0  0  0  0  0  0
  1  2  1  0  0  0  0
  2  3  2  0  0  0  0
  2  7  1  0  0  0  0
  3  4  1  0  0  0  0
  4  8  1  0  0  0  0
  4  5  2  0  0  0  0
  5 20  1  0  0  0  0
  6  5  1  0  0  0  0
  6  9  1  0  0  0  0
  7  6  2  0  0  0  0
 10  7  1  0  0  0  0
 11 17  1  0  0  0  0
 11 16  1  0  0  0  0
 12 11  2  0  0  0  0
 13 12  1  0  0  0  0
 13 14  2  0  0  0  0
 14 15  1  0  0  0  0
 15 16  2  0  0  0  0
 15  3  1  0  0  0  0
 18 12  1  0  0  0  0
 19 13  1  0  0  0  0
 20 27  2  0  0  0  0
 20 21  1  0  0  0  0
 21 22  1  0  0  0  0
 21 23  2  0  0  0  0
 23 24  1  0  0  0  0
 25 23  1  0  0  0  0
 25 26  1  0  0  0  0
 27 25  1  0  0  0  0
M  END
>  <minimizedAffinity>
-4.99088287

$$$$

 OpenBabel03272510183D

 27 29  0  0  0  0  0  0  0  0999 V2000
   38.5800   27.3580   31.2270 Br  0  0  0  0  0  0  0  0  0  0  0  0
   38.6000   26.3810   32.8770 C   0  0  0  0  0  0  0  0  0  0  0  0
   37.7000   26.6630   33.8890 C   0  0  0  0  0  0  0  0  0  0  0  0
   37.7770   25.9220   35.0370 C   0  0  0  0  0  0  0  0  0  0  0  0
   38.6980   24.9180   35.2360 C   0  0  0  0  0  0  0  0  0  0  0  0
   39.5800   24.6560   34.2200 C   0  0  0  0  0  0  0  0  0  0  0  0
   39.5310   25.3850   33.0460 C   0  0  0  0  0  0  0  0  0  0  0  0
   37.0630   26.1600   35.8150 H   0  0  0  0  0  0  0  0  0  0  0  0
   40.3290   23.8840   34.3070 H   0  0  0  0  0  0  0  0  0  0  0  0
   40.2270   25.1880   32.2280 H   0  0  0  0  0  0  0  0  0  0  0  0
   35.0360   28.6540   32.3730 C   0  0  0  0  0  0  0  0  0  0  0  0
   34.8010   29.6900   33.3270 C   0  0  0  0  0  0  0  0  0  0  0  0
   35.5790   29.6720   34.4840 C   0  0  0  0  0  0  0  0  0  0  0  0
   36.5100   28.6860   34.6480 N   0  0  0  0  0  0  0  0  0  0  0  0
   36.7040   27.7210   33.7190 C   0  0  0  0  0  0  0  0  0  0  0  0
   35.9620   27.7090   32.5800 N   0  0  0  0  0  0  0  0  0  0  0  0
   34.4590   28.6110   31.4430 H   0  0  0  0  0  0  0  0  0  0  0  0
   34.0440   30.4380   33.1280 H   0  0  0  0  0  0  0  0  0  0  0  0
   35.4300   30.4360   35.2250 H   0  0  0  0  0  0  0  0  0  0  0  0
   38.7230   24.1700   36.4840 C   0  0  0  0  0  0  0  0  0  0  0  0
   37.8310   24.3150   37.5240 C   0  0  0  0  0  0  0  0  0  0  0  0
   36.9900   24.9980   37.5640 H   0  0  0  0  0  0  0  0  0  0  0  0
   38.1920   23.4210   38.5390 C   0  0  0  0  0  0  0  0  0  0  0  0
   37.6480   23.3360   39.4690 H   0  0  0  0  0  0  0  0  0  0  0  0
   39.2870   22.7710   38.0740 N   0  0  0  0  0  0  0  0  0  0  0  0
   39.6990   22.0550   38.7100 H   0  0  0  0  0  0  0  0  0  0  0  0
   39.5950   23.2210   36.8580 N   0  0  0  0  0  0  0  0  0  0  0  0
  1  2  1  0  0  0  0
  2  7  2  0  0  0  0
  2  3  1  0  0  0  0
  3  4  2  0  0  0  0
  4  5  1  0  0  0  0
  4  8  1  0  0  0  0
  5 20  1  0  0  0  0
  6  9  1  0  0  0  0
  6  5  2  0  0  0  0
  7  6  1  0  0  0  0
 10  7  1  0  0  0  0
 11 16  2  0  0  0  0
 11 12  1  0  0  0  0
 12 13  2  0  0  0  0
 13 14  1  0  0  0  0
 13 19  1  0  0  0  0
 15  3  1  0  0  0  0
 15 14  2  0  0  0  0
 16 15  1  0  0  0  0
 17 11  1  0  0  0  0
 18 12  1  0  0  0  0
 20 27  2  0  0  0  0
 20 21  1  0  0  0  0
 21 22  1  0  0  0  0
 21 23  2  0  0  0  0
 23 24  1  0  0  0  0
 25 23  1  0  0  0  0
 25 26  1  0  0  0  0
 27 25  1  0  0  0  0
M  END
>  <minimizedAffinity>
-4.91438675

$$$$

 OpenBabel03272510183D

 27 29  0  0  0  0  0  0  0  0999 V2000
   35.1960   31.4250   32.0380 Br  0  0  0  0  0  0  0  0  0  0  0  0
   35.9050   29.7930   32.7510 C   0  0  0  0  0  0  0  0  0  0  0  0
   35.7750   29.4800   34.0930 C   0  0  0  0  0  0  0  0  0  0  0  0
   36.3080   28.2970   34.5270 C   0  0  0  0  0  0  0  0  0  0  0  0
   36.9620   27.4080   33.7040 C   0  0  0  0  0  0  0  0  0  0  0  0
   37.0790   27.7380   32.3790 C   0  0  0  0  0  0  0  0  0  0  0  0
   36.5530   28.9270   31.9060 C   0  0  0  0  0  0  0  0  0  0  0  0
   36.1950   28.0730   35.5800 H   0  0  0  0  0  0  0  0  0  0  0  0
   37.5790   27.0890   31.6770 H   0  0  0  0  0  0  0  0  0  0  0  0
   36.6380   29.2040   30.8530 H   0  0  0  0  0  0  0  0  0  0  0  0
   35.2710   32.1420   36.5460 C   0  0  0  0  0  0  0  0  0  0  0  0
   33.8570   32.1610   36.7420 C   0  0  0  0  0  0  0  0  0  0  0  0
   33.1050   31.2420   36.0110 C   0  0  0  0  0  0  0  0  0  0  0  0
   33.7430   30.3840   35.1600 N   0  0  0  0  0  0  0  0  0  0  0  0
   35.0870   30.3970   35.0030 C   0  0  0  0  0  0  0  0  0  0  0  0
   35.8500   31.2800   35.7000 N   0  0  0  0  0  0  0  0  0  0  0  0
   35.9180   32.8390   37.0900 H   0  0  0  0  0  0  0  0  0  0  0  0
   33.4220   32.8720   37.4340 H   0  0  0  0  0  0  0  0  0  0  0  0
   32.0370   31.2270   36.1320 H   0  0  0  0  0  0  0  0  0  0  0  0
   37.5050   26.1670   34.2340 C   0  0  0  0  0  0  0  0  0  0  0  0
   37.8660   25.9440   35.5450 C   0  0  0  0  0  0  0  0  0  0  0  0
   37.8000   26.6520   36.3630 H   0  0  0  0  0  0  0  0  0  0  0  0
   38.3420   24.6320   35.6530 C   0  0  0  0  0  0  0  0  0  0  0  0
   38.6900   24.2060   36.5830 H   0  0  0  0  0  0  0  0  0  0  0  0
   38.2500   24.1120   34.4040 N   0  0  0  0  0  0  0  0  0  0  0  0
   38.5660   23.1240   34.2950 H   0  0  0  0  0  0  0  0  0  0  0  0
   37.7540   25.0270   33.5710 N   0  0  0  0  0  0  0  0  0  0  0  0
  1  2  1  0  0  0  0
  2  3  1  0  0  0  0
  3  4  2  0  0  0  0
  3 15  1  0  0  0  0
  4  8  1  0  0  0  0
  5 20  1  0  0  0  0
  5  4  1  0  0  0  0
  6  5  2  0  0  0  0
  7  6  1  0  0  0  0
  7  2  2  0  0  0  0
  9  6  1  0  0  0  0
 10  7  1  0  0  0  0
 11 12  1  0  0  0  0
 11 17  1  0  0  0  0
 12 18  1  0  0  0  0
 13 19  1  0  0  0  0
 13 12  2  0  0  0  0
 14 13  1  0  0  0  0
 15 14  2  0  0  0  0
 15 16  1  0  0  0  0
 16 11  2  0  0  0  0
 20 21  1  0  0  0  0
 21 23  2  0  0  0  0
 21 22  1  0  0  0  0
 23 24  1  0  0  0  0
 25 23  1  0  0  0  0
 26 25  1  0  0  0  0
 27 20  2  0  0  0  0
 27 25  1  0  0  0  0
M  END
>  <minimizedAffinity>
-4.86894512

$$$$

 OpenBabel03272510183D

 27 29  0  0  0  0  0  0  0  0999 V2000
   37.5090   27.8690   32.0000 Br  0  0  0  0  0  0  0  0  0  0  0  0
   37.8660   26.7130   33.4880 C   0  0  0  0  0  0  0  0  0  0  0  0
   38.4200   25.4590   33.3050 C   0  0  0  0  0  0  0  0  0  0  0  0
   38.6450   24.6920   34.4160 C   0  0  0  0  0  0  0  0  0  0  0  0
   38.3500   25.1020   35.6980 C   0  0  0  0  0  0  0  0  0  0  0  0
   37.8010   26.3480   35.8550 C   0  0  0  0  0  0  0  0  0  0  0  0
   37.5600   27.1490   34.7530 C   0  0  0  0  0  0  0  0  0  0  0  0
   39.0790   23.7150   34.2500 H   0  0  0  0  0  0  0  0  0  0  0  0
   37.5450   26.7330   36.8290 H   0  0  0  0  0  0  0  0  0  0  0  0
   37.1230   28.1450   34.8630 H   0  0  0  0  0  0  0  0  0  0  0  0
   40.2790   24.9890   30.1940 C   0  0  0  0  0  0  0  0  0  0  0  0
   39.4400   24.1280   29.4230 C   0  0  0  0  0  0  0  0  0  0  0  0
   38.2390   23.7280   30.0070 C   0  0  0  0  0  0  0  0  0  0  0  0
   37.9270   24.1670   31.2620 N   0  0  0  0  0  0  0  0  0  0  0  0
   38.7500   24.9840   31.9610 C   0  0  0  0  0  0  0  0  0  0  0  0
   39.9280   25.3940   31.4220 N   0  0  0  0  0  0  0  0  0  0  0  0
   41.2360   25.3390   29.7930 H   0  0  0  0  0  0  0  0  0  0  0  0
   39.7560   23.8200   28.4340 H   0  0  0  0  0  0  0  0  0  0  0  0
   37.5830   23.0780   29.4570 H   0  0  0  0  0  0  0  0  0  0  0  0
   38.6160   24.2340   36.8340 C   0  0  0  0  0  0  0  0  0  0  0  0
   38.0190   24.3270   38.0720 C   0  0  0  0  0  0  0  0  0  0  0  0
   37.2720   25.0520   38.3780 H   0  0  0  0  0  0  0  0  0  0  0  0
   38.5400   23.3160   38.8890 C   0  0  0  0  0  0  0  0  0  0  0  0
   38.2340   23.1710   39.9150 H   0  0  0  0  0  0  0  0  0  0  0  0
   39.4320   22.6510   38.1130 N   0  0  0  0  0  0  0  0  0  0  0  0
   39.9250   21.8520   38.5650 H   0  0  0  0  0  0  0  0  0  0  0  0
   39.4700   23.2010   36.9000 N   0  0  0  0  0  0  0  0  0  0  0  0
  1  2  1  0  0  0  0
  2  7  1  0  0  0  0
  3  2  2  0  0  0  0
  3  4  1  0  0  0  0
  4  5  2  0  0  0  0
  5  6  1  0  0  0  0
  5 20  1  0  0  0  0
  6  9  1  0  0  0  0
  7 10  1  0  0  0  0
  7  6  2  0  0  0  0
  8  4  1  0  0  0  0
 11 16  1  0  0  0  0
 12 13  1  0  0  0  0
 12 11  2  0  0  0  0
 13 14  2  0  0  0  0
 14 15  1  0  0  0  0
 15  3  1  0  0  0  0
 16 15  2  0  0  0  0
 17 11  1  0  0  0  0
 18 12  1  0  0  0  0
 19 13  1  0  0  0  0
 20 27  2  0  0  0  0
 20 21  1  0  0  0  0
 21 22  1  0  0  0  0
 21 23  2  0  0  0  0
 23 24  1  0  0  0  0
 25 26  1  0  0  0  0
 25 23  1  0  0  0  0
 27 25  1  0  0  0  0
M  END
>  <minimizedAffinity>
-4.74373245

$$$$

 OpenBabel03272510183D

 27 29  0  0  0  0  0  0  0  0999 V2000
   36.3340   27.7620   31.9540 Br  0  0  0  0  0  0  0  0  0  0  0  0
   36.1990   25.8540   31.8190 C   0  0  0  0  0  0  0  0  0  0  0  0
   37.0740   25.0230   32.4960 C   0  0  0  0  0  0  0  0  0  0  0  0
   36.9140   23.6720   32.3500 C   0  0  0  0  0  0  0  0  0  0  0  0
   35.9340   23.1000   31.5690 C   0  0  0  0  0  0  0  0  0  0  0  0
   35.0790   23.9420   30.9060 C   0  0  0  0  0  0  0  0  0  0  0  0
   35.2130   25.3130   31.0320 C   0  0  0  0  0  0  0  0  0  0  0  0
   37.6090   23.0410   32.8890 H   0  0  0  0  0  0  0  0  0  0  0  0
   34.2890   23.5640   30.2770 H   0  0  0  0  0  0  0  0  0  0  0  0
   34.5390   25.9970   30.5100 H   0  0  0  0  0  0  0  0  0  0  0  0
   40.3380   26.3360   33.4840 C   0  0  0  0  0  0  0  0  0  0  0  0
   40.1720   26.6560   34.8660 C   0  0  0  0  0  0  0  0  0  0  0  0
   38.9200   26.4070   35.4260 C   0  0  0  0  0  0  0  0  0  0  0  0
   37.9320   25.8800   34.6450 N   0  0  0  0  0  0  0  0  0  0  0  0
   38.1290   25.5880   33.3380 C   0  0  0  0  0  0  0  0  0  0  0  0
   39.3370   25.8190   32.7600 N   0  0  0  0  0  0  0  0  0  0  0  0
   41.2970   26.5080   32.9840 H   0  0  0  0  0  0  0  0  0  0  0  0
   41.0030   27.0730   35.4210 H   0  0  0  0  0  0  0  0  0  0  0  0
   38.7580   26.6360   36.4640 H   0  0  0  0  0  0  0  0  0  0  0  0
   35.8220   21.6540   31.4580 C   0  0  0  0  0  0  0  0  0  0  0  0
   36.7240   20.8250   30.8260 C   0  0  0  0  0  0  0  0  0  0  0  0
   37.6370   21.1260   30.3250 H   0  0  0  0  0  0  0  0  0  0  0  0
   36.2620   19.5090   30.9380 C   0  0  0  0  0  0  0  0  0  0  0  0
   36.7910   18.6620   30.5240 H   0  0  0  0  0  0  0  0  0  0  0  0
   35.1010   19.5910   31.6320 N   0  0  0  0  0  0  0  0  0  0  0  0
   34.6090   18.6890   31.8120 H   0  0  0  0  0  0  0  0  0  0  0  0
   34.8480   20.8640   31.9350 N   0  0  0  0  0  0  0  0  0  0  0  0
  2  1  1  0  0  0  0
  2  3  1  0  0  0  0
  3 15  1  0  0  0  0
  4  3  2  0  0  0  0
  4  8  1  0  0  0  0
  5  4  1  0  0  0  0
  6  7  1  0  0  0  0
  6  5  2  0  0  0  0
  7  2  2  0  0  0  0
  9  6  1  0  0  0  0
 10  7  1  0  0  0  0
 11 12  1  0  0  0  0
 12 18  1  0  0  0  0
 12 13  2  0  0  0  0
 13 19  1  0  0  0  0
 14 13  1  0  0  0  0
 15 14  2  0  0  0  0
 16 15  1  0  0  0  0
 16 11  2  0  0  0  0
 17 11  1  0  0  0  0
 20  5  1  0  0  0  0
 20 27  2  0  0  0  0
 21 23  2  0  0  0  0
 21 20  1  0  0  0  0
 22 21  1  0  0  0  0
 23 25  1  0  0  0  0
 24 23  1  0  0  0  0
 25 26  1  0  0  0  0
 25 27  1  0  0  0  0
M  END
>  <minimizedAffinity>
-4.69475555

$$$$
