
 OpenBabel03272510313D

 27 29  0  0  0  0  0  0  0  0999 V2000
   37.0960   23.5420   32.3120 C   0  0  0  0  0  0  0  0  0  0  0  0
   36.5500   22.2620   32.4430 C   0  0  0  0  0  0  0  0  0  0  0  0
   37.0190   21.5030   33.5110 C   0  0  0  0  0  0  0  0  0  0  0  0
   37.9570   22.0260   34.3510 N   0  0  0  0  0  0  0  0  0  0  0  0
   38.4590   23.2900   34.1750 C   0  0  0  0  0  0  0  0  0  0  0  0
   38.0270   24.0740   33.1350 N   0  0  0  0  0  0  0  0  0  0  0  0
   35.8180   21.8820   31.7710 H   0  0  0  0  0  0  0  0  0  0  0  0
   36.6730   20.5130   33.7080 H   0  0  0  0  0  0  0  0  0  0  0  0
   36.5840   24.3940   31.1930 C   0  0  0  0  0  0  0  0  0  0  0  0
   35.1840   24.6910   31.0140 C   0  0  0  0  0  0  0  0  0  0  0  0
   36.0480   25.7430   31.6730 C   0  0  0  0  0  0  0  0  0  0  0  0
   37.3000   24.4540   30.3260 H   0  0  0  0  0  0  0  0  0  0  0  0
   34.4430   24.1990   31.6750 H   0  0  0  0  0  0  0  0  0  0  0  0
   34.7990   24.9450   30.0260 H   0  0  0  0  0  0  0  0  0  0  0  0
   35.9710   25.9400   32.7420 H   0  0  0  0  0  0  0  0  0  0  0  0
   36.3960   26.6000   31.0820 H   0  0  0  0  0  0  0  0  0  0  0  0
   39.4460   23.8560   35.0850 C   0  0  0  0  0  0  0  0  0  0  0  0
   39.5250   24.9530   34.8430 H   0  0  0  0  0  0  0  0  0  0  0  0
   40.4400   23.4300   34.8300 H   0  0  0  0  0  0  0  0  0  0  0  0
   39.0820   23.6210   36.5010 C   0  0  0  0  0  0  0  0  0  0  0  0
   38.0510   24.2640   37.1620 C   0  0  0  0  0  0  0  0  0  0  0  0
   37.3500   25.0110   36.8120 H   0  0  0  0  0  0  0  0  0  0  0  0
   38.0290   23.7750   38.4640 C   0  0  0  0  0  0  0  0  0  0  0  0
   37.4010   23.9890   39.3220 H   0  0  0  0  0  0  0  0  0  0  0  0
   39.0340   22.8600   38.5620 N   0  0  0  0  0  0  0  0  0  0  0  0
   39.3520   22.2700   39.3630 H   0  0  0  0  0  0  0  0  0  0  0  0
   39.6490   22.7810   37.3870 N   0  0  0  0  0  0  0  0  0  0  0  0
  1  2  2  0  0  0  0
  1  6  1  0  0  0  0
  2  3  1  0  0  0  0
  3  8  1  0  0  0  0
  3  4  2  0  0  0  0
  5  4  1  0  0  0  0
  5 17  1  0  0  0  0
  6  5  2  0  0  0  0
  7  2  1  0  0  0  0
  9 11  1  0  0  0  0
  9  1  1  0  0  0  0
 10  9  1  0  0  0  0
 10 11  1  0  0  0  0
 10 13  1  0  0  0  0
 11 15  1  0  0  0  0
 12  9  1  0  0  0  0
 14 10  1  0  0  0  0
 16 11  1  0  0  0  0
 17 20  1  0  0  0  0
 18 17  1  0  0  0  0
 19 17  1  0  0  0  0
 20 21  1  0  0  0  0
 20 27  2  0  0  0  0
 21 23  2  0  0  0  0
 22 21  1  0  0  0  0
 23 25  1  0  0  0  0
 23 24  1  0  0  0  0
 25 26  1  0  0  0  0
 27 25  1  0  0  0  0
M  END
>  <minimizedAffinity>
-4.57848024

$$$$

 OpenBabel03272510313D

 27 29  0  0  0  0  0  0  0  0999 V2000
   36.1060   22.8030   31.6670 C   0  0  0  0  0  0  0  0  0  0  0  0
   35.5590   24.0140   31.2340 C   0  0  0  0  0  0  0  0  0  0  0  0
   36.1260   25.1680   31.7680 C   0  0  0  0  0  0  0  0  0  0  0  0
   37.1540   25.0650   32.6580 N   0  0  0  0  0  0  0  0  0  0  0  0
   37.6530   23.8490   33.0480 C   0  0  0  0  0  0  0  0  0  0  0  0
   37.1240   22.6850   32.5480 N   0  0  0  0  0  0  0  0  0  0  0  0
   34.7550   24.0610   30.5380 H   0  0  0  0  0  0  0  0  0  0  0  0
   35.7880   26.1460   31.5100 H   0  0  0  0  0  0  0  0  0  0  0  0
   35.5400   21.5470   31.0820 C   0  0  0  0  0  0  0  0  0  0  0  0
   36.0300   20.2350   31.4260 C   0  0  0  0  0  0  0  0  0  0  0  0
   34.7670   20.7140   32.1050 C   0  0  0  0  0  0  0  0  0  0  0  0
   34.9970   21.7220   30.1120 H   0  0  0  0  0  0  0  0  0  0  0  0
   36.9200   20.1500   32.0800 H   0  0  0  0  0  0  0  0  0  0  0  0
   35.9070   19.4040   30.7300 H   0  0  0  0  0  0  0  0  0  0  0  0
   34.7750   21.0100   33.1540 H   0  0  0  0  0  0  0  0  0  0  0  0
   33.7940   20.3540   31.7470 H   0  0  0  0  0  0  0  0  0  0  0  0
   38.7650   23.7410   33.9820 C   0  0  0  0  0  0  0  0  0  0  0  0
   39.3840   24.6750   33.8660 H   0  0  0  0  0  0  0  0  0  0  0  0
   39.4260   22.9130   33.6440 H   0  0  0  0  0  0  0  0  0  0  0  0
   38.2950   23.5500   35.3730 C   0  0  0  0  0  0  0  0  0  0  0  0
   38.1550   24.5680   36.2980 C   0  0  0  0  0  0  0  0  0  0  0  0
   38.3430   25.6300   36.2080 H   0  0  0  0  0  0  0  0  0  0  0  0
   37.6940   23.9910   37.4780 C   0  0  0  0  0  0  0  0  0  0  0  0
   37.4470   24.4000   38.4510 H   0  0  0  0  0  0  0  0  0  0  0  0
   37.5670   22.6550   37.2430 N   0  0  0  0  0  0  0  0  0  0  0  0
   37.2530   21.8750   37.8620 H   0  0  0  0  0  0  0  0  0  0  0  0
   37.9280   22.4100   35.9890 N   0  0  0  0  0  0  0  0  0  0  0  0
  1  6  1  0  0  0  0
  2  1  2  0  0  0  0
  2  3  1  0  0  0  0
  3  4  2  0  0  0  0
  4  5  1  0  0  0  0
  5 17  1  0  0  0  0
  6  5  2  0  0  0  0
  7  2  1  0  0  0  0
  8  3  1  0  0  0  0
  9 10  1  0  0  0  0
  9  1  1  0  0  0  0
  9 11  1  0  0  0  0
 10 13  1  0  0  0  0
 10 11  1  0  0  0  0
 11 15  1  0  0  0  0
 12  9  1  0  0  0  0
 14 10  1  0  0  0  0
 16 11  1  0  0  0  0
 17 20  1  0  0  0  0
 18 17  1  0  0  0  0
 19 17  1  0  0  0  0
 20 27  2  0  0  0  0
 20 21  1  0  0  0  0
 21 23  2  0  0  0  0
 22 21  1  0  0  0  0
 23 24  1  0  0  0  0
 25 23  1  0  0  0  0
 25 26  1  0  0  0  0
 27 25  1  0  0  0  0
M  END
>  <minimizedAffinity>
-4.4714818

$$$$

 OpenBabel03272510313D

 27 29  0  0  0  0  0  0  0  0999 V2000
   38.0590   24.8770   35.3600 C   0  0  0  0  0  0  0  0  0  0  0  0
   37.8530   24.5520   36.7040 C   0  0  0  0  0  0  0  0  0  0  0  0
   37.7710   23.1940   36.9990 C   0  0  0  0  0  0  0  0  0  0  0  0
   37.8910   22.2770   35.9970 N   0  0  0  0  0  0  0  0  0  0  0  0
   38.0930   22.6530   34.6940 C   0  0  0  0  0  0  0  0  0  0  0  0
   38.1790   23.9800   34.3560 N   0  0  0  0  0  0  0  0  0  0  0  0
   37.7630   25.2920   37.4630 H   0  0  0  0  0  0  0  0  0  0  0  0
   37.6150   22.8310   37.9890 H   0  0  0  0  0  0  0  0  0  0  0  0
   38.1870   26.3290   35.0180 C   0  0  0  0  0  0  0  0  0  0  0  0
   38.5440   27.3320   35.9910 C   0  0  0  0  0  0  0  0  0  0  0  0
   39.6320   26.8250   35.0710 C   0  0  0  0  0  0  0  0  0  0  0  0
   37.6280   26.6090   34.0820 H   0  0  0  0  0  0  0  0  0  0  0  0
   38.6420   27.0370   37.0540 H   0  0  0  0  0  0  0  0  0  0  0  0
   38.2450   28.3710   35.8430 H   0  0  0  0  0  0  0  0  0  0  0  0
   40.4130   26.1630   35.4430 H   0  0  0  0  0  0  0  0  0  0  0  0
   39.9300   27.4310   34.2060 H   0  0  0  0  0  0  0  0  0  0  0  0
   38.2420   21.6720   33.6280 C   0  0  0  0  0  0  0  0  0  0  0  0
   38.5670   20.7080   34.1110 H   0  0  0  0  0  0  0  0  0  0  0  0
   39.0990   21.9790   32.9890 H   0  0  0  0  0  0  0  0  0  0  0  0
   36.9910   21.5150   32.8500 C   0  0  0  0  0  0  0  0  0  0  0  0
   35.8790   20.8210   33.2890 C   0  0  0  0  0  0  0  0  0  0  0  0
   35.7020   20.2910   34.2170 H   0  0  0  0  0  0  0  0  0  0  0  0
   34.9210   20.9000   32.2840 C   0  0  0  0  0  0  0  0  0  0  0  0
   33.9130   20.5100   32.1930 H   0  0  0  0  0  0  0  0  0  0  0  0
   35.4680   21.6310   31.2720 N   0  0  0  0  0  0  0  0  0  0  0  0
   35.0820   21.9180   30.3450 H   0  0  0  0  0  0  0  0  0  0  0  0
   36.6970   21.9870   31.6250 N   0  0  0  0  0  0  0  0  0  0  0  0
  1  2  1  0  0  0  0
  2  3  2  0  0  0  0
  2  7  1  0  0  0  0
  3  8  1  0  0  0  0
  4  3  1  0  0  0  0
  5  4  2  0  0  0  0
  6  5  1  0  0  0  0
  6  1  2  0  0  0  0
  9 11  1  0  0  0  0
  9  1  1  0  0  0  0
  9 10  1  0  0  0  0
 10 13  1  0  0  0  0
 11 15  1  0  0  0  0
 11 10  1  0  0  0  0
 12  9  1  0  0  0  0
 14 10  1  0  0  0  0
 16 11  1  0  0  0  0
 17 18  1  0  0  0  0
 17  5  1  0  0  0  0
 19 17  1  0  0  0  0
 20 21  1  0  0  0  0
 20 17  1  0  0  0  0
 21 22  1  0  0  0  0
 23 21  2  0  0  0  0
 24 23  1  0  0  0  0
 25 27  1  0  0  0  0
 25 23  1  0  0  0  0
 26 25  1  0  0  0  0
 27 20  2  0  0  0  0
M  END
>  <minimizedAffinity>
-4.38596582

$$$$

 OpenBabel03272510313D

 27 29  0  0  0  0  0  0  0  0999 V2000
   38.5250   25.1390   35.9430 C   0  0  0  0  0  0  0  0  0  0  0  0
   38.2990   26.4540   36.3620 C   0  0  0  0  0  0  0  0  0  0  0  0
   38.1410   27.3980   35.3530 C   0  0  0  0  0  0  0  0  0  0  0  0
   38.2100   27.0110   34.0480 N   0  0  0  0  0  0  0  0  0  0  0  0
   38.4350   25.7050   33.6930 C   0  0  0  0  0  0  0  0  0  0  0  0
   38.5980   24.7390   34.6550 N   0  0  0  0  0  0  0  0  0  0  0  0
   38.2500   26.7250   37.3900 H   0  0  0  0  0  0  0  0  0  0  0  0
   37.9640   28.4310   35.5550 H   0  0  0  0  0  0  0  0  0  0  0  0
   38.6650   24.0950   37.0080 C   0  0  0  0  0  0  0  0  0  0  0  0
   37.9830   24.1770   38.2750 C   0  0  0  0  0  0  0  0  0  0  0  0
   37.3860   23.2830   37.2110 C   0  0  0  0  0  0  0  0  0  0  0  0
   39.6000   23.4790   36.8960 H   0  0  0  0  0  0  0  0  0  0  0  0
   37.4010   25.0890   38.5140 H   0  0  0  0  0  0  0  0  0  0  0  0
   38.3880   23.6660   39.1500 H   0  0  0  0  0  0  0  0  0  0  0  0
   36.4770   23.5730   36.6850 H   0  0  0  0  0  0  0  0  0  0  0  0
   37.5470   22.1990   37.2670 H   0  0  0  0  0  0  0  0  0  0  0  0
   38.4880   25.2880   32.2990 C   0  0  0  0  0  0  0  0  0  0  0  0
   38.7980   24.2050   32.2910 H   0  0  0  0  0  0  0  0  0  0  0  0
   39.3220   25.8310   31.8040 H   0  0  0  0  0  0  0  0  0  0  0  0
   37.1930   25.5040   31.6130 C   0  0  0  0  0  0  0  0  0  0  0  0
   36.1220   24.6310   31.6700 C   0  0  0  0  0  0  0  0  0  0  0  0
   36.0130   23.6860   32.1860 H   0  0  0  0  0  0  0  0  0  0  0  0
   35.1010   25.1830   30.9030 C   0  0  0  0  0  0  0  0  0  0  0  0
   34.0950   24.8520   30.6670 H   0  0  0  0  0  0  0  0  0  0  0  0
   35.5700   26.3610   30.4050 N   0  0  0  0  0  0  0  0  0  0  0  0
   35.1220   27.0740   29.7880 H   0  0  0  0  0  0  0  0  0  0  0  0
   36.8140   26.5360   30.8360 N   0  0  0  0  0  0  0  0  0  0  0  0
  1  2  1  0  0  0  0
  1  9  1  0  0  0  0
  2  7  1  0  0  0  0
  3  8  1  0  0  0  0
  3  2  2  0  0  0  0
  4  3  1  0  0  0  0
  5  4  2  0  0  0  0
  5  6  1  0  0  0  0
  6  1  2  0  0  0  0
  9 11  1  0  0  0  0
  9 10  1  0  0  0  0
 10 13  1  0  0  0  0
 10 14  1  0  0  0  0
 11 16  1  0  0  0  0
 11 10  1  0  0  0  0
 12  9  1  0  0  0  0
 15 11  1  0  0  0  0
 17  5  1  0  0  0  0
 18 17  1  0  0  0  0
 19 17  1  0  0  0  0
 20 21  1  0  0  0  0
 20 17  1  0  0  0  0
 21 22  1  0  0  0  0
 23 21  2  0  0  0  0
 24 23  1  0  0  0  0
 25 27  1  0  0  0  0
 25 23  1  0  0  0  0
 26 25  1  0  0  0  0
 27 20  2  0  0  0  0
M  END
>  <minimizedAffinity>
-4.3406291

$$$$

 OpenBabel03272510313D

 27 29  0  0  0  0  0  0  0  0999 V2000
   38.6030   26.6800   33.2550 C   0  0  0  0  0  0  0  0  0  0  0  0
   39.8190   27.2500   33.6420 C   0  0  0  0  0  0  0  0  0  0  0  0
   40.5850   26.5090   34.5370 C   0  0  0  0  0  0  0  0  0  0  0  0
   40.1280   25.3030   34.9790 N   0  0  0  0  0  0  0  0  0  0  0  0
   38.9250   24.7900   34.5660 C   0  0  0  0  0  0  0  0  0  0  0  0
   38.1360   25.4870   33.6850 N   0  0  0  0  0  0  0  0  0  0  0  0
   40.1480   28.1940   33.2780 H   0  0  0  0  0  0  0  0  0  0  0  0
   41.5300   26.8460   34.9000 H   0  0  0  0  0  0  0  0  0  0  0  0
   37.7740   27.4380   32.2660 C   0  0  0  0  0  0  0  0  0  0  0  0
   36.4160   27.0760   31.9450 C   0  0  0  0  0  0  0  0  0  0  0  0
   36.6290   28.2110   32.9210 C   0  0  0  0  0  0  0  0  0  0  0  0
   38.3950   28.0400   31.5450 H   0  0  0  0  0  0  0  0  0  0  0  0
   35.9920   26.1480   32.3760 H   0  0  0  0  0  0  0  0  0  0  0  0
   35.9870   27.3550   30.9810 H   0  0  0  0  0  0  0  0  0  0  0  0
   36.4310   28.0770   33.9840 H   0  0  0  0  0  0  0  0  0  0  0  0
   36.5290   29.2470   32.5730 H   0  0  0  0  0  0  0  0  0  0  0  0
   38.4480   23.4930   35.0230 C   0  0  0  0  0  0  0  0  0  0  0  0
   38.9520   22.7130   34.3850 H   0  0  0  0  0  0  0  0  0  0  0  0
   37.3660   23.4120   34.7780 H   0  0  0  0  0  0  0  0  0  0  0  0
   38.7120   23.2900   36.4670 C   0  0  0  0  0  0  0  0  0  0  0  0
   37.9850   23.8780   37.4850 C   0  0  0  0  0  0  0  0  0  0  0  0
   37.1400   24.5540   37.4460 H   0  0  0  0  0  0  0  0  0  0  0  0
   38.5360   23.4450   38.6870 C   0  0  0  0  0  0  0  0  0  0  0  0
   38.2930   23.6470   39.7240 H   0  0  0  0  0  0  0  0  0  0  0  0
   39.5700   22.6160   38.3730 N   0  0  0  0  0  0  0  0  0  0  0  0
   40.2360   22.0870   38.9790 H   0  0  0  0  0  0  0  0  0  0  0  0
   39.6600   22.5350   37.0510 N   0  0  0  0  0  0  0  0  0  0  0  0
  1  2  2  0  0  0  0
  1  6  1  0  0  0  0
  2  3  1  0  0  0  0
  3  8  1  0  0  0  0
  3  4  2  0  0  0  0
  5  4  1  0  0  0  0
  5 17  1  0  0  0  0
  6  5  2  0  0  0  0
  7  2  1  0  0  0  0
  9 11  1  0  0  0  0
  9  1  1  0  0  0  0
 10  9  1  0  0  0  0
 10 13  1  0  0  0  0
 10 11  1  0  0  0  0
 11 15  1  0  0  0  0
 12  9  1  0  0  0  0
 14 10  1  0  0  0  0
 16 11  1  0  0  0  0
 17 20  1  0  0  0  0
 18 17  1  0  0  0  0
 19 17  1  0  0  0  0
 20 27  2  0  0  0  0
 20 21  1  0  0  0  0
 21 23  2  0  0  0  0
 22 21  1  0  0  0  0
 23 24  1  0  0  0  0
 25 23  1  0  0  0  0
 25 26  1  0  0  0  0
 27 25  1  0  0  0  0
M  END
>  <minimizedAffinity>
-4.33631229

$$$$

 OpenBabel03272510313D

 27 29  0  0  0  0  0  0  0  0999 V2000
   38.3400   24.6470   36.0960 C   0  0  0  0  0  0  0  0  0  0  0  0
   39.6170   24.4100   35.5780 C   0  0  0  0  0  0  0  0  0  0  0  0
   40.0120   25.2300   34.5260 C   0  0  0  0  0  0  0  0  0  0  0  0
   39.1640   26.1940   34.0660 N   0  0  0  0  0  0  0  0  0  0  0  0
   37.9200   26.3830   34.6130 C   0  0  0  0  0  0  0  0  0  0  0  0
   37.4880   25.5960   35.6510 N   0  0  0  0  0  0  0  0  0  0  0  0
   40.2550   23.6490   35.9600 H   0  0  0  0  0  0  0  0  0  0  0  0
   40.9640   25.1390   34.0540 H   0  0  0  0  0  0  0  0  0  0  0  0
   37.9020   23.8020   37.2520 C   0  0  0  0  0  0  0  0  0  0  0  0
   38.8190   23.3040   38.2480 C   0  0  0  0  0  0  0  0  0  0  0  0
   38.0050   24.5320   38.5920 C   0  0  0  0  0  0  0  0  0  0  0  0
   36.9160   23.2900   37.0710 H   0  0  0  0  0  0  0  0  0  0  0  0
   39.9040   23.4750   38.1100 H   0  0  0  0  0  0  0  0  0  0  0  0
   38.5780   22.4030   38.8140 H   0  0  0  0  0  0  0  0  0  0  0  0
   38.4700   25.5160   38.6320 H   0  0  0  0  0  0  0  0  0  0  0  0
   37.1180   24.4280   39.2290 H   0  0  0  0  0  0  0  0  0  0  0  0
   37.0240   27.4260   34.1350 C   0  0  0  0  0  0  0  0  0  0  0  0
   37.4780   28.4130   34.4320 H   0  0  0  0  0  0  0  0  0  0  0  0
   36.0740   27.3600   34.7080 H   0  0  0  0  0  0  0  0  0  0  0  0
   36.8030   27.3300   32.6730 C   0  0  0  0  0  0  0  0  0  0  0  0
   37.1170   28.3270   31.7670 C   0  0  0  0  0  0  0  0  0  0  0  0
   37.5550   29.3040   31.9220 H   0  0  0  0  0  0  0  0  0  0  0  0
   36.7630   27.8620   30.5050 C   0  0  0  0  0  0  0  0  0  0  0  0
   36.8270   28.2970   29.5140 H   0  0  0  0  0  0  0  0  0  0  0  0
   36.2490   26.6110   30.6720 N   0  0  0  0  0  0  0  0  0  0  0  0
   35.8710   25.9240   29.9820 H   0  0  0  0  0  0  0  0  0  0  0  0
   36.2800   26.3110   31.9660 N   0  0  0  0  0  0  0  0  0  0  0  0
  1  9  1  0  0  0  0
  2  7  1  0  0  0  0
  2  1  2  0  0  0  0
  3  2  1  0  0  0  0
  4  3  2  0  0  0  0
  4  5  1  0  0  0  0
  5  6  2  0  0  0  0
  6  1  1  0  0  0  0
  8  3  1  0  0  0  0
  9 10  1  0  0  0  0
  9 11  1  0  0  0  0
 10 11  1  0  0  0  0
 10 14  1  0  0  0  0
 11 15  1  0  0  0  0
 11 16  1  0  0  0  0
 12  9  1  0  0  0  0
 13 10  1  0  0  0  0
 17 18  1  0  0  0  0
 17  5  1  0  0  0  0
 17 19  1  0  0  0  0
 20 17  1  0  0  0  0
 21 22  1  0  0  0  0
 21 20  1  0  0  0  0
 23 25  1  0  0  0  0
 23 21  2  0  0  0  0
 24 23  1  0  0  0  0
 25 27  1  0  0  0  0
 26 25  1  0  0  0  0
 27 20  2  0  0  0  0
M  END
>  <minimizedAffinity>
-4.32850552

$$$$

 OpenBabel03272510313D

 27 29  0  0  0  0  0  0  0  0999 V2000
   38.0820   25.5400   33.9580 C   0  0  0  0  0  0  0  0  0  0  0  0
   37.8730   25.4730   32.5770 C   0  0  0  0  0  0  0  0  0  0  0  0
   37.7020   24.1980   32.0460 C   0  0  0  0  0  0  0  0  0  0  0  0
   37.7460   23.1120   32.8680 N   0  0  0  0  0  0  0  0  0  0  0  0
   37.9540   23.2360   34.2180 C   0  0  0  0  0  0  0  0  0  0  0  0
   38.1290   24.4730   34.7860 N   0  0  0  0  0  0  0  0  0  0  0  0
   37.8440   26.3400   31.9620 H   0  0  0  0  0  0  0  0  0  0  0  0
   37.5360   24.0270   31.0060 H   0  0  0  0  0  0  0  0  0  0  0  0
   38.2330   26.9010   34.5630 C   0  0  0  0  0  0  0  0  0  0  0  0
   38.4540   27.1080   35.9730 C   0  0  0  0  0  0  0  0  0  0  0  0
   39.6540   27.1740   35.0560 C   0  0  0  0  0  0  0  0  0  0  0  0
   37.7920   27.7150   33.9240 H   0  0  0  0  0  0  0  0  0  0  0  0
   38.4220   26.2350   36.6540 H   0  0  0  0  0  0  0  0  0  0  0  0
   38.1630   28.0500   36.4410 H   0  0  0  0  0  0  0  0  0  0  0  0
   40.3910   26.3720   35.0420 H   0  0  0  0  0  0  0  0  0  0  0  0
   40.0510   28.1540   34.7590 H   0  0  0  0  0  0  0  0  0  0  0  0
   37.9800   22.0760   35.0990 C   0  0  0  0  0  0  0  0  0  0  0  0
   38.3200   21.1990   34.4790 H   0  0  0  0  0  0  0  0  0  0  0  0
   36.9340   21.8370   35.3910 H   0  0  0  0  0  0  0  0  0  0  0  0
   38.8520   22.3020   36.2750 C   0  0  0  0  0  0  0  0  0  0  0  0
   40.2140   22.0680   36.2950 C   0  0  0  0  0  0  0  0  0  0  0  0
   40.8760   21.7040   35.5190 H   0  0  0  0  0  0  0  0  0  0  0  0
   40.6700   22.3970   37.5670 C   0  0  0  0  0  0  0  0  0  0  0  0
   41.6510   22.3740   38.0280 H   0  0  0  0  0  0  0  0  0  0  0  0
   39.5870   22.8170   38.2800 N   0  0  0  0  0  0  0  0  0  0  0  0
   39.4990   23.1490   39.2660 H   0  0  0  0  0  0  0  0  0  0  0  0
   38.5160   22.7530   37.4980 N   0  0  0  0  0  0  0  0  0  0  0  0
  1  9  1  0  0  0  0
  1  6  1  0  0  0  0
  2  1  2  0  0  0  0
  3  2  1  0  0  0  0
  3  4  2  0  0  0  0
  4  5  1  0  0  0  0
  5  6  2  0  0  0  0
  5 17  1  0  0  0  0
  7  2  1  0  0  0  0
  8  3  1  0  0  0  0
  9 11  1  0  0  0  0
  9 10  1  0  0  0  0
 10 14  1  0  0  0  0
 10 13  1  0  0  0  0
 11 10  1  0  0  0  0
 12  9  1  0  0  0  0
 15 11  1  0  0  0  0
 16 11  1  0  0  0  0
 17 19  1  0  0  0  0
 17 20  1  0  0  0  0
 18 17  1  0  0  0  0
 20 21  1  0  0  0  0
 20 27  2  0  0  0  0
 21 23  2  0  0  0  0
 22 21  1  0  0  0  0
 23 24  1  0  0  0  0
 23 25  1  0  0  0  0
 25 26  1  0  0  0  0
 27 25  1  0  0  0  0
M  END
>  <minimizedAffinity>
-4.31605387

$$$$

 OpenBabel03272510313D

 27 29  0  0  0  0  0  0  0  0999 V2000
   37.6970   24.2200   32.3020 C   0  0  0  0  0  0  0  0  0  0  0  0
   38.2220   25.5090   32.4300 C   0  0  0  0  0  0  0  0  0  0  0  0
   39.0890   25.7140   33.4980 C   0  0  0  0  0  0  0  0  0  0  0  0
   39.3770   24.6820   34.3420 N   0  0  0  0  0  0  0  0  0  0  0  0
   38.8320   23.4350   34.1700 C   0  0  0  0  0  0  0  0  0  0  0  0
   37.9710   23.1870   33.1310 N   0  0  0  0  0  0  0  0  0  0  0  0
   37.9780   26.2930   31.7540 H   0  0  0  0  0  0  0  0  0  0  0  0
   39.5480   26.6570   33.6920 H   0  0  0  0  0  0  0  0  0  0  0  0
   36.7890   23.9610   31.1410 C   0  0  0  0  0  0  0  0  0  0  0  0
   35.7070   23.0090   31.1930 C   0  0  0  0  0  0  0  0  0  0  0  0
   35.3670   24.4710   31.3760 C   0  0  0  0  0  0  0  0  0  0  0  0
   37.2400   24.2650   30.1560 H   0  0  0  0  0  0  0  0  0  0  0  0
   35.5930   22.3760   32.0950 H   0  0  0  0  0  0  0  0  0  0  0  0
   35.3370   22.5480   30.2760 H   0  0  0  0  0  0  0  0  0  0  0  0
   35.0920   24.8620   32.3560 H   0  0  0  0  0  0  0  0  0  0  0  0
   34.9480   25.0350   30.5340 H   0  0  0  0  0  0  0  0  0  0  0  0
   39.1560   22.3290   35.0600 C   0  0  0  0  0  0  0  0  0  0  0  0
   40.2320   22.0560   34.8680 H   0  0  0  0  0  0  0  0  0  0  0  0
   38.5710   21.4400   34.7390 H   0  0  0  0  0  0  0  0  0  0  0  0
   38.9120   22.6780   36.4780 C   0  0  0  0  0  0  0  0  0  0  0  0
   37.7120   23.1560   36.9710 C   0  0  0  0  0  0  0  0  0  0  0  0
   36.7760   23.3570   36.4670 H   0  0  0  0  0  0  0  0  0  0  0  0
   37.8810   23.3630   38.3360 C   0  0  0  0  0  0  0  0  0  0  0  0
   37.2190   23.7240   39.1150 H   0  0  0  0  0  0  0  0  0  0  0  0
   39.1630   23.0120   38.6350 N   0  0  0  0  0  0  0  0  0  0  0  0
   39.6860   23.0190   39.5400 H   0  0  0  0  0  0  0  0  0  0  0  0
   39.7610   22.6070   37.5210 N   0  0  0  0  0  0  0  0  0  0  0  0
  1  2  2  0  0  0  0
  1  6  1  0  0  0  0
  2  3  1  0  0  0  0
  3  8  1  0  0  0  0
  3  4  2  0  0  0  0
  5  4  1  0  0  0  0
  5 17  1  0  0  0  0
  6  5  2  0  0  0  0
  7  2  1  0  0  0  0
  9 10  1  0  0  0  0
  9 11  1  0  0  0  0
  9  1  1  0  0  0  0
 10 11  1  0  0  0  0
 10 13  1  0  0  0  0
 11 15  1  0  0  0  0
 12  9  1  0  0  0  0
 14 10  1  0  0  0  0
 16 11  1  0  0  0  0
 17 20  1  0  0  0  0
 18 17  1  0  0  0  0
 19 17  1  0  0  0  0
 20 21  1  0  0  0  0
 20 27  2  0  0  0  0
 21 23  2  0  0  0  0
 22 21  1  0  0  0  0
 23 25  1  0  0  0  0
 23 24  1  0  0  0  0
 25 26  1  0  0  0  0
 27 25  1  0  0  0  0
M  END
>  <minimizedAffinity>
-4.29878473

$$$$

 OpenBabel03272510313D

 27 29  0  0  0  0  0  0  0  0999 V2000
   36.0910   23.6370   31.5190 C   0  0  0  0  0  0  0  0  0  0  0  0
   35.2720   24.6920   31.1080 C   0  0  0  0  0  0  0  0  0  0  0  0
   35.7260   25.9720   31.4090 C   0  0  0  0  0  0  0  0  0  0  0  0
   36.9090   26.1320   32.0670 N   0  0  0  0  0  0  0  0  0  0  0  0
   37.6750   25.0590   32.4470 C   0  0  0  0  0  0  0  0  0  0  0  0
   37.2650   23.7780   32.1740 N   0  0  0  0  0  0  0  0  0  0  0  0
   34.3530   24.5340   30.5960 H   0  0  0  0  0  0  0  0  0  0  0  0
   35.1830   26.8510   31.1430 H   0  0  0  0  0  0  0  0  0  0  0  0
   35.6450   22.2490   31.1790 C   0  0  0  0  0  0  0  0  0  0  0  0
   36.3560   21.0720   31.6110 C   0  0  0  0  0  0  0  0  0  0  0  0
   35.1270   21.4790   32.3940 C   0  0  0  0  0  0  0  0  0  0  0  0
   34.9700   22.2150   30.2780 H   0  0  0  0  0  0  0  0  0  0  0  0
   37.3210   21.1930   32.1410 H   0  0  0  0  0  0  0  0  0  0  0  0
   36.2710   20.1410   31.0470 H   0  0  0  0  0  0  0  0  0  0  0  0
   35.2180   21.9180   33.3860 H   0  0  0  0  0  0  0  0  0  0  0  0
   34.1800   20.9510   32.2200 H   0  0  0  0  0  0  0  0  0  0  0  0
   38.9490   25.2310   33.1320 C   0  0  0  0  0  0  0  0  0  0  0  0
   39.6410   25.7540   32.4140 H   0  0  0  0  0  0  0  0  0  0  0  0
   39.3990   24.2270   33.2890 H   0  0  0  0  0  0  0  0  0  0  0  0
   38.7910   25.9790   34.4010 C   0  0  0  0  0  0  0  0  0  0  0  0
   38.0680   25.5280   35.4900 C   0  0  0  0  0  0  0  0  0  0  0  0
   37.5130   24.6100   35.6340 H   0  0  0  0  0  0  0  0  0  0  0  0
   38.1580   26.5050   36.4770 C   0  0  0  0  0  0  0  0  0  0  0  0
   37.7540   26.5790   37.4810 H   0  0  0  0  0  0  0  0  0  0  0  0
   38.9220   27.5120   35.9690 N   0  0  0  0  0  0  0  0  0  0  0  0
   39.2260   28.4210   36.3840 H   0  0  0  0  0  0  0  0  0  0  0  0
   39.2890   27.1840   34.7360 N   0  0  0  0  0  0  0  0  0  0  0  0
  1  6  1  0  0  0  0
  2  3  1  0  0  0  0
  2  1  2  0  0  0  0
  3  4  2  0  0  0  0
  4  5  1  0  0  0  0
  5 17  1  0  0  0  0
  6  5  2  0  0  0  0
  7  2  1  0  0  0  0
  8  3  1  0  0  0  0
  9  1  1  0  0  0  0
  9 10  1  0  0  0  0
  9 11  1  0  0  0  0
 10 13  1  0  0  0  0
 10 11  1  0  0  0  0
 11 15  1  0  0  0  0
 12  9  1  0  0  0  0
 14 10  1  0  0  0  0
 16 11  1  0  0  0  0
 17 19  1  0  0  0  0
 17 20  1  0  0  0  0
 18 17  1  0  0  0  0
 20 27  2  0  0  0  0
 20 21  1  0  0  0  0
 21 22  1  0  0  0  0
 21 23  2  0  0  0  0
 23 24  1  0  0  0  0
 25 26  1  0  0  0  0
 25 23  1  0  0  0  0
 27 25  1  0  0  0  0
M  END
>  <minimizedAffinity>
-4.29858685

$$$$
