
 OpenBabel03262521053D

 35 37  0  0  0  0  0  0  0  0999 V2000
   38.5090   32.1390   48.2790 Br  0  0  0  0  0  0  0  0  0  0  0  0
   37.4130   31.3630   46.9630 C   0  0  0  0  0  0  0  0  0  0  0  0
   36.4880   30.4750   47.4180 C   0  0  0  0  0  0  0  0  0  0  0  0
   35.6250   29.8440   46.5060 C   0  0  0  0  0  0  0  0  0  0  0  0
   35.7340   30.1400   45.1550 C   0  0  0  0  0  0  0  0  0  0  0  0
   36.6810   31.0370   44.7770 C   0  0  0  0  0  0  0  0  0  0  0  0
   37.5330   31.6630   45.6510 C   0  0  0  0  0  0  0  0  0  0  0  0
   34.8660   29.1290   46.7950 H   0  0  0  0  0  0  0  0  0  0  0  0
   35.0720   29.6600   44.4310 H   0  0  0  0  0  0  0  0  0  0  0  0
   36.7580   31.2620   43.7190 H   0  0  0  0  0  0  0  0  0  0  0  0
   37.2410   29.6390   49.6960 C   0  0  0  0  0  0  0  0  0  0  0  0
   36.2410   30.0510   48.8100 C   0  0  0  0  0  0  0  0  0  0  0  0
   34.9030   30.0610   49.2840 C   0  0  0  0  0  0  0  0  0  0  0  0
   34.6950   29.6630   50.5780 N   0  0  0  0  0  0  0  0  0  0  0  0
   35.6940   29.2800   51.3760 C   0  0  0  0  0  0  0  0  0  0  0  0
   36.9590   29.2640   50.9500 N   0  0  0  0  0  0  0  0  0  0  0  0
   38.2600   29.6400   49.3090 H   0  0  0  0  0  0  0  0  0  0  0  0
   34.1400   30.3780   48.5980 H   0  0  0  0  0  0  0  0  0  0  0  0
   35.3170   29.0070   52.3550 H   0  0  0  0  0  0  0  0  0  0  0  0
   38.5240   32.5990   45.2630 N   0  0  0  0  0  0  0  0  0  0  0  0
   38.2430   33.5570   45.6080 H   0  0  0  0  0  0  0  0  0  0  0  0
   39.9820   32.4570   44.4010 S   0  0  0  0  0  0  0  0  0  0  0  0
   40.2240   31.0550   43.9570 O   0  0  0  0  0  0  0  0  0  0  0  0
   39.5630   30.3220   43.8960 H   0  0  0  0  0  0  0  0  0  0  0  0
   41.1380   32.8680   45.2900 O   0  0  0  0  0  0  0  0  0  0  0  0
   42.0040   32.3970   45.3700 H   0  0  0  0  0  0  0  0  0  0  0  0
   39.9060   33.4800   43.0430 O   0  0  0  0  0  0  0  0  0  0  0  0
   38.9880   33.1210   42.0630 C   0  0  0  0  0  0  0  0  0  0  0  0
   38.5150   33.9770   41.0630 C   0  0  0  0  0  0  0  0  0  0  0  0
   38.7520   35.0140   40.8680 H   0  0  0  0  0  0  0  0  0  0  0  0
   37.6500   33.2020   40.3480 N   0  0  0  0  0  0  0  0  0  0  0  0
   37.1300   33.5950   39.5080 H   0  0  0  0  0  0  0  0  0  0  0  0
   37.5690   31.9530   40.8380 C   0  0  0  0  0  0  0  0  0  0  0  0
   36.9390   31.1820   40.4140 H   0  0  0  0  0  0  0  0  0  0  0  0
   38.4050   31.9190   41.9040 N   0  0  0  0  0  0  0  0  0  0  0  0
  2  3  1  0  0  0  0
  2  1  1  0  0  0  0
  3 12  1  0  0  0  0
  4  8  1  0  0  0  0
  4  3  2  0  0  0  0
  5  4  1  0  0  0  0
  6  5  2  0  0  0  0
  6  7  1  0  0  0  0
  7  2  2  0  0  0  0
  9  5  1  0  0  0  0
 10  6  1  0  0  0  0
 11 16  1  0  0  0  0
 12 13  1  0  0  0  0
 12 11  2  0  0  0  0
 13 14  2  0  0  0  0
 14 15  1  0  0  0  0
 15 19  1  0  0  0  0
 16 15  2  0  0  0  0
 17 11  1  0  0  0  0
 18 13  1  0  0  0  0
 20 21  1  0  0  0  0
 20  7  1  0  0  0  0
 22 20  1  0  0  0  0
 22 25  1  0  0  0  0
 23 22  1  0  0  0  0
 24 23  1  0  0  0  0
 25 26  1  0  0  0  0
 27 22  1  0  0  0  0
 28 27  1  0  0  0  0
 29 28  2  0  0  0  0
 30 29  1  0  0  0  0
 31 33  1  0  0  0  0
 31 29  1  0  0  0  0
 32 31  1  0  0  0  0
 33 35  2  0  0  0  0
 34 33  1  0  0  0  0
 35 28  1  0  0  0  0
M  END
>  <minimizedAffinity>
-5.1311655

>  <minimizedRMSD>
1.50322294

$$$$
