
 OpenBabel03272502263D

 39 42  0  0  0  0  0  0  0  0999 V2000
   37.6900   30.2830   51.0380 C   0  0  0  0  0  0  0  0  0  0  0  0
   38.1570   30.8330   49.8340 C   0  0  0  0  0  0  0  0  0  0  0  0
   37.4370   30.5660   48.6850 C   0  0  0  0  0  0  0  0  0  0  0  0
   36.3490   29.8030   48.8060 N   0  0  0  0  0  0  0  0  0  0  0  0
   35.9070   29.2790   49.9650 C   0  0  0  0  0  0  0  0  0  0  0  0
   36.5880   29.5240   51.0870 N   0  0  0  0  0  0  0  0  0  0  0  0
   38.2390   30.4790   51.9520 H   0  0  0  0  0  0  0  0  0  0  0  0
   39.0480   31.4480   49.7870 H   0  0  0  0  0  0  0  0  0  0  0  0
   37.8150   31.0790   47.3870 C   0  0  0  0  0  0  0  0  0  0  0  0
   37.0870   30.7320   46.2560 C   0  0  0  0  0  0  0  0  0  0  0  0
   37.3970   31.1930   45.0020 C   0  0  0  0  0  0  0  0  0  0  0  0
   38.4600   32.0230   44.8500 N   0  0  0  0  0  0  0  0  0  0  0  0
   39.1470   32.3440   45.9510 C   0  0  0  0  0  0  0  0  0  0  0  0
   38.8650   31.9090   47.1890 N   0  0  0  0  0  0  0  0  0  0  0  0
   36.2380   30.0630   46.4040 H   0  0  0  0  0  0  0  0  0  0  0  0
   36.7940   30.8900   44.1500 H   0  0  0  0  0  0  0  0  0  0  0  0
   40.3140   33.2520   45.8170 C   0  0  0  0  0  0  0  0  0  0  0  0
   40.4070   34.0020   47.0100 F   0  0  0  0  0  0  0  0  0  0  0  0
   41.4610   32.5650   45.5650 F   0  0  0  0  0  0  0  0  0  0  0  0
   40.1070   34.2160   44.8420 F   0  0  0  0  0  0  0  0  0  0  0  0
   34.7570   28.5090   49.9040 O   0  0  0  0  0  0  0  0  0  0  0  0
   33.5930   26.7010   46.9200 N   0  0  0  0  0  0  0  0  0  0  0  0
   34.1360   26.8540   48.1370 C   0  0  0  0  0  0  0  0  0  0  0  0
   34.2380   28.1260   48.6820 C   0  0  0  0  0  0  0  0  0  0  0  0
   33.7730   29.2090   47.9500 C   0  0  0  0  0  0  0  0  0  0  0  0
   33.7680   30.4330   48.2540 O   0  0  0  0  0  0  0  0  0  0  0  0
   33.2310   28.9960   46.7210 N   0  0  0  0  0  0  0  0  0  0  0  0
   33.1380   27.7550   46.2010 C   0  0  0  0  0  0  0  0  0  0  0  0
   32.6450   27.5080   45.0690 O   0  0  0  0  0  0  0  0  0  0  0  0
   33.5470   25.7180   46.5700 H   0  0  0  0  0  0  0  0  0  0  0  0
   34.5150   26.0870   48.7630 H   0  0  0  0  0  0  0  0  0  0  0  0
   32.7250   30.0330   45.8840 C   0  0  0  0  0  0  0  0  0  0  0  0
   33.6260   30.5080   44.9480 C   0  0  0  0  0  0  0  0  0  0  0  0
   34.6650   30.3180   44.6380 H   0  0  0  0  0  0  0  0  0  0  0  0
   33.0040   31.4850   44.2320 N   0  0  0  0  0  0  0  0  0  0  0  0
   33.2610   32.1310   43.4310 H   0  0  0  0  0  0  0  0  0  0  0  0
   31.7380   31.6080   44.7210 C   0  0  0  0  0  0  0  0  0  0  0  0
   30.9070   32.2600   44.4460 H   0  0  0  0  0  0  0  0  0  0  0  0
   31.5720   30.7170   45.7330 N   0  0  0  0  0  0  0  0  0  0  0  0
  1  6  1  0  0  0  0
  1  7  1  0  0  0  0
  2  1  2  0  0  0  0
  3  4  2  0  0  0  0
  3  2  1  0  0  0  0
  4  5  1  0  0  0  0
  5  6  2  0  0  0  0
  8  2  1  0  0  0  0
  9  3  1  0  0  0  0
 10 15  1  0  0  0  0
 10  9  2  0  0  0  0
 11 10  1  0  0  0  0
 12 11  2  0  0  0  0
 12 13  1  0  0  0  0
 13 14  2  0  0  0  0
 14  9  1  0  0  0  0
 16 11  1  0  0  0  0
 17 13  1  0  0  0  0
 17 18  1  0  0  0  0
 19 17  1  0  0  0  0
 20 17  1  0  0  0  0
 21  5  1  0  0  0  0
 22 23  1  0  0  0  0
 23 24  2  0  0  0  0
 23 31  1  0  0  0  0
 24 21  1  0  0  0  0
 25 26  2  0  0  0  0
 25 24  1  0  0  0  0
 27 25  1  0  0  0  0
 28 27  1  0  0  0  0
 28 22  1  0  0  0  0
 29 28  2  0  0  0  0
 30 22  1  0  0  0  0
 32 27  1  0  0  0  0
 33 32  2  0  0  0  0
 34 33  1  0  0  0  0
 35 37  1  0  0  0  0
 35 33  1  0  0  0  0
 36 35  1  0  0  0  0
 37 39  2  0  0  0  0
 38 37  1  0  0  0  0
 39 32  1  0  0  0  0
M  END
>  <minimizedAffinity>
-6.80790615

>  <minimizedRMSD>
1.13379908

$$$$
