REMARK  Name = 
REMARK  5 active torsions:
REMARK  status: ('A' for Active; 'I' for Inactive)
REMARK    1  A    between atoms: C_5  and  O_7
REMARK    2  A    between atoms: O_7  and  P_9
REMARK    3  A    between atoms: P_9  and  O_10
REMARK    4  A    between atoms: P_9  and  O_11
REMARK    5  A    between atoms: O_11  and  C_16
REMARK                            x       y       z     vdW  Elec       q    Type
REMARK                         _______ _______ _______ _____ _____    ______ ____
ROOT
ATOM      1  O   UNL     1      32.522  28.077  49.036  0.00  0.00    +0.000 OA
ATOM      2  P   UNL     1      33.862  28.506  48.455  0.00  0.00    +0.000 P 
ENDROOT
BRANCH   2   3
ATOM      3  O   UNL     1      34.065  27.584  47.056  0.00  0.00    +0.000 OA
ATOM      4  H   UNL     1      33.712  26.662  47.212  0.00  0.00    +0.000 HD
ENDBRANCH   2   3
BRANCH   2   5
ATOM      5  O   UNL     1      35.062  28.188  49.616  0.00  0.00    +0.000 OA
BRANCH   5  10
ATOM      6  C   UNL     1      37.444  30.307  51.375  0.00  0.00    +0.000 A 
ATOM      7  C   UNL     1      38.132  30.884  50.274  0.00  0.00    +0.000 A 
ATOM      8  C   UNL     1      37.720  30.495  48.978  0.00  0.00    +0.000 A 
ATOM      9  N   UNL     1      36.701  29.603  48.873  0.00  0.00    +0.000 NA
ATOM     10  C   UNL     1      36.073  29.078  49.944  0.00  0.00    +0.000 A 
ATOM     11  N   UNL     1      36.439  29.426  51.199  0.00  0.00    +0.000 NA
ATOM     12  H   UNL     1      37.721  30.571  52.393  0.00  0.00    +0.000 HD
ATOM     13  H   UNL     1      38.938  31.591  50.437  0.00  0.00    +0.000 HD
ATOM     14  H   UNL     1      38.222  30.915  48.117  0.00  0.00    +0.000 HD
ENDBRANCH   5  10
ENDBRANCH   2   5
BRANCH   2  15
ATOM     15  O   UNL     1      33.725  30.114  48.034  0.00  0.00    +0.000 OA
BRANCH  15  16
ATOM     16  C   UNL     1      34.239  30.618  46.846  0.00  0.00    +0.000 A 
ATOM     17  C   UNL     1      34.967  31.766  46.619  0.00  0.00    +0.000 A 
ATOM     18  H   UNL     1      35.261  32.481  47.366  0.00  0.00    +0.000 HD
ATOM     19  N   UNL     1      35.205  31.774  45.309  0.00  0.00    +0.000 N 
ATOM     20  H   UNL     1      35.735  32.495  44.759  0.00  0.00    +0.000 HD
ATOM     21  C   UNL     1      34.670  30.692  44.681  0.00  0.00    +0.000 A 
ATOM     22  H   UNL     1      34.701  30.431  43.632  0.00  0.00    +0.000 HD
ATOM     23  N   UNL     1      34.064  29.972  45.663  0.00  0.00    +0.000 NA
ENDBRANCH  15  16
ENDBRANCH   2  15
TORSDOF 5
