
     RDKit          3D

 37 40  0  0  0  0  0  0  0  0999 V2000
   35.8150   30.5415   49.0715 C   0  0  1  0  0  0  0  0  0  0  0  0
   35.9041   29.1190   48.8386 C   0  0  1  0  0  0  0  0  0  0  0  0
   36.0683   29.5859   50.2475 C   0  0  0  0  0  0  0  0  0  0  0  0
   37.0046   31.4564   48.8240 C   0  0  0  0  0  0  0  0  0  0  0  0
   37.1897   32.5279   49.6979 C   0  0  0  0  0  0  0  0  0  0  0  0
   38.2723   33.3386   49.4154 C   0  0  0  0  0  0  0  0  0  0  0  0
   39.0875   33.0868   48.3494 N   0  0  0  0  0  0  0  0  0  0  0  0
   38.8717   32.0288   47.5191 C   0  0  0  0  0  0  0  0  0  0  0  0
   37.8181   31.2097   47.7652 N   0  0  0  0  0  0  0  0  0  0  0  0
   33.9675   29.0734   47.3757 C   0  0  2  0  0  0  0  0  0  0  0  0
   34.7399   28.2814   48.4179 C   0  0  2  0  0  0  0  0  0  0  0  0
   33.8699   28.0651   49.4401 O   0  0  0  0  0  0  0  0  0  0  0  0
   32.5810   28.1383   49.0021 C   0  0  0  0  0  0  0  0  0  0  0  0
   32.6021   28.3908   47.5122 C   0  0  1  0  0  0  0  0  0  0  0  0
   34.4703   28.9547   46.0953 O   0  0  0  0  0  0  0  0  0  0  0  0
   31.5838   29.1747   47.0502 O   0  0  0  0  0  0  0  0  0  0  0  0
   34.9081   31.1401   49.2711 H   0  0  0  0  0  0  0  0  0  0  0  0
   36.8657   28.7657   48.3635 H   0  0  0  0  0  0  0  0  0  0  0  0
   35.2672   29.4056   50.9764 H   0  0  0  0  0  0  0  0  0  0  0  0
   37.0860   29.5828   50.7132 H   0  0  0  0  0  0  0  0  0  0  0  0
   36.5247   32.6903   50.5242 H   0  0  0  0  0  0  0  0  0  0  0  0
   38.4869   34.2004   50.0534 H   0  0  0  0  0  0  0  0  0  0  0  0
   39.5415   31.8661   46.6863 H   0  0  0  0  0  0  0  0  0  0  0  0
   33.8727   30.1372   47.6296 H   0  0  0  0  0  0  0  0  0  0  0  0
   35.0260   27.3222   47.9669 H   0  0  0  0  0  0  0  0  0  0  0  0
   32.0931   29.0240   49.4856 H   0  0  0  0  0  0  0  0  0  0  0  0
   31.9581   27.2620   49.2730 H   0  0  0  0  0  0  0  0  0  0  0  0
   32.6091   27.4034   47.0104 H   0  0  0  0  0  0  0  0  0  0  0  0
   35.4574   28.9222   46.1871 H   0  0  0  0  0  0  0  0  0  0  0  0
   30.6949   28.7464   46.0748 C   0  0  0  0  0  0  0  0  0  0  0  0
   29.8797   29.6385   45.4107 C   0  0  0  0  0  0  0  0  0  0  0  0
   29.7627   30.7227   45.4868 H   0  0  0  0  0  0  0  0  0  0  0  0
   29.1003   28.9997   44.5082 N   0  0  0  0  0  0  0  0  0  0  0  0
   28.3767   29.3056   43.8316 H   0  0  0  0  0  0  0  0  0  0  0  0
   29.4327   27.6805   44.6077 C   0  0  0  0  0  0  0  0  0  0  0  0
   29.0335   26.8454   44.0544 H   0  0  0  0  0  0  0  0  0  0  0  0
   30.3762   27.5370   45.5357 N   0  0  0  0  0  0  0  0  0  0  0  0
  1  3  1  0
  2  1  1  0
  2  3  1  0
  4  1  1  0
  4  5  2  0
  6  5  1  0
  7  6  2  0
  8  9  2  0
  8  7  1  0
  9  4  1  0
 10 15  1  0
 10 14  1  0
 10 11  1  0
 11  2  1  0
 11 12  1  0
 13 12  1  0
 14 16  1  0
 14 13  1  0
  1 17  1  1
  2 18  1  6
  3 19  1  0
  3 20  1  0
  5 21  1  0
  6 22  1  0
  8 23  1  0
 10 24  1  1
 11 25  1  6
 13 26  1  0
 13 27  1  0
 14 28  1  6
 15 29  1  0
 30 31  2  0
 31 32  1  0
 31 33  1  0
 33 34  1  0
 33 35  1  0
 35 36  1  0
 35 37  2  0
 37 30  1  0
 16 30  1  0
M  ISO  8  17  13  18  13  19  13  20  13  21  14  22  14  23  14  24  13
M  ISO  8  25  13  26  13  27  13  28  13  29   3  32  15  34   5  36  14
M  END
>  <DihAtoms>  (1) 
13,15,29,30

>  <DihDeg>  (1) 
179.99961232587893

$$$$
