
 OpenBabel03272509123D

 27 29  0  0  0  0  0  0  0  0999 V2000
   41.3330   22.9740   35.7330 C   0  0  0  0  0  0  0  0  0  0  0  0
   40.2080   23.8500   35.7420 C   0  0  0  0  0  0  0  0  0  0  0  0
   40.1910   24.8960   34.8120 C   0  0  0  0  0  0  0  0  0  0  0  0
   41.2420   25.0400   33.9430 N   0  0  0  0  0  0  0  0  0  0  0  0
   42.2910   24.1840   33.9730 C   0  0  0  0  0  0  0  0  0  0  0  0
   42.3370   23.1630   34.8570 N   0  0  0  0  0  0  0  0  0  0  0  0
   41.4310   22.1460   36.4070 H   0  0  0  0  0  0  0  0  0  0  0  0
   43.1240   24.2830   33.2990 H   0  0  0  0  0  0  0  0  0  0  0  0
   39.1010   25.8350   34.7330 C   0  0  0  0  0  0  0  0  0  0  0  0
   38.1250   25.6100   33.7780 C   0  0  0  0  0  0  0  0  0  0  0  0
   37.0390   26.4510   33.6460 C   0  0  0  0  0  0  0  0  0  0  0  0
   36.9640   27.5440   34.5150 C   0  0  0  0  0  0  0  0  0  0  0  0
   37.9230   27.8240   35.5000 C   0  0  0  0  0  0  0  0  0  0  0  0
   38.9990   26.9260   35.5800 C   0  0  0  0  0  0  0  0  0  0  0  0
   38.0330   24.8510   33.0250 H   0  0  0  0  0  0  0  0  0  0  0  0
   36.2290   26.3910   32.9620 H   0  0  0  0  0  0  0  0  0  0  0  0
   36.1440   28.2780   34.4990 H   0  0  0  0  0  0  0  0  0  0  0  0
   37.8460   28.6590   36.1490 H   0  0  0  0  0  0  0  0  0  0  0  0
   39.7870   27.0580   36.3060 H   0  0  0  0  0  0  0  0  0  0  0  0
   39.2560   23.5390   36.7560 C   0  0  0  0  0  0  0  0  0  0  0  0
   39.7740   23.0230   37.9540 C   0  0  0  0  0  0  0  0  0  0  0  0
   40.7640   22.7930   38.3410 H   0  0  0  0  0  0  0  0  0  0  0  0
   38.7280   22.7710   38.7940 N   0  0  0  0  0  0  0  0  0  0  0  0
   38.6960   22.3900   39.7610 H   0  0  0  0  0  0  0  0  0  0  0  0
   37.6040   23.1240   38.1250 C   0  0  0  0  0  0  0  0  0  0  0  0
   36.5770   23.0800   38.4370 H   0  0  0  0  0  0  0  0  0  0  0  0
   37.8950   23.5900   36.8940 N   0  0  0  0  0  0  0  0  0  0  0  0
  1  2  1  0  0  0  0
  1  7  1  0  0  0  0
  2 20  1  0  0  0  0
  3  2  2  0  0  0  0
  4  5  2  0  0  0  0
  4  3  1  0  0  0  0
  5  6  1  0  0  0  0
  6  1  2  0  0  0  0
  8  5  1  0  0  0  0
  9  3  1  0  0  0  0
  9 14  1  0  0  0  0
 10  9  2  0  0  0  0
 11 10  1  0  0  0  0
 11 12  2  0  0  0  0
 12 13  1  0  0  0  0
 13 14  2  0  0  0  0
 13 18  1  0  0  0  0
 14 19  1  0  0  0  0
 15 10  1  0  0  0  0
 16 11  1  0  0  0  0
 17 12  1  0  0  0  0
 20 27  1  0  0  0  0
 20 21  2  0  0  0  0
 21 22  1  0  0  0  0
 21 23  1  0  0  0  0
 23 24  1  0  0  0  0
 25 26  1  0  0  0  0
 25 23  1  0  0  0  0
 27 25  2  0  0  0  0
M  END
>  <minimizedAffinity>
-4.98634338

$$$$

 OpenBabel03272509123D

 27 29  0  0  0  0  0  0  0  0999 V2000
   35.2940   25.2870   30.8160 C   0  0  0  0  0  0  0  0  0  0  0  0
   36.1100   26.0410   31.7080 C   0  0  0  0  0  0  0  0  0  0  0  0
   36.9450   25.3330   32.5810 C   0  0  0  0  0  0  0  0  0  0  0  0
   36.9460   23.9620   32.5480 N   0  0  0  0  0  0  0  0  0  0  0  0
   36.1500   23.2880   31.6830 C   0  0  0  0  0  0  0  0  0  0  0  0
   35.3340   23.9420   30.8260 N   0  0  0  0  0  0  0  0  0  0  0  0
   34.6250   25.7420   30.1120 H   0  0  0  0  0  0  0  0  0  0  0  0
   36.1370   22.2130   31.6440 H   0  0  0  0  0  0  0  0  0  0  0  0
   37.8140   25.9970   33.5190 C   0  0  0  0  0  0  0  0  0  0  0  0
   37.3040   26.2900   34.7720 C   0  0  0  0  0  0  0  0  0  0  0  0
   38.0730   26.9100   35.7350 C   0  0  0  0  0  0  0  0  0  0  0  0
   39.3910   27.2340   35.3950 C   0  0  0  0  0  0  0  0  0  0  0  0
   39.9610   26.9630   34.1430 C   0  0  0  0  0  0  0  0  0  0  0  0
   39.1220   26.3300   33.2120 C   0  0  0  0  0  0  0  0  0  0  0  0
   36.3280   26.1400   35.1920 H   0  0  0  0  0  0  0  0  0  0  0  0
   37.8060   27.1870   36.7250 H   0  0  0  0  0  0  0  0  0  0  0  0
   40.0920   27.7290   36.0840 H   0  0  0  0  0  0  0  0  0  0  0  0
   40.9630   27.2190   33.9050 H   0  0  0  0  0  0  0  0  0  0  0  0
   39.4720   26.0810   32.2210 H   0  0  0  0  0  0  0  0  0  0  0  0
   35.9170   27.4490   31.6000 C   0  0  0  0  0  0  0  0  0  0  0  0
   36.5680   28.0820   30.5300 C   0  0  0  0  0  0  0  0  0  0  0  0
   37.2090   27.7680   29.7090 H   0  0  0  0  0  0  0  0  0  0  0  0
   36.2870   29.4160   30.5930 N   0  0  0  0  0  0  0  0  0  0  0  0
   36.5770   30.2120   29.9890 H   0  0  0  0  0  0  0  0  0  0  0  0
   35.4870   29.5900   31.6720 C   0  0  0  0  0  0  0  0  0  0  0  0
   35.0480   30.4880   32.0640 H   0  0  0  0  0  0  0  0  0  0  0  0
   35.2490   28.4190   32.2960 N   0  0  0  0  0  0  0  0  0  0  0  0
  1  6  2  0  0  0  0
  1  2  1  0  0  0  0
  2  3  2  0  0  0  0
  3  9  1  0  0  0  0
  4  3  1  0  0  0  0
  5  4  2  0  0  0  0
  6  5  1  0  0  0  0
  7  1  1  0  0  0  0
  8  5  1  0  0  0  0
  9 10  1  0  0  0  0
 10 15  1  0  0  0  0
 10 11  2  0  0  0  0
 11 16  1  0  0  0  0
 12 11  1  0  0  0  0
 12 17  1  0  0  0  0
 13 12  2  0  0  0  0
 14  9  2  0  0  0  0
 14 13  1  0  0  0  0
 18 13  1  0  0  0  0
 19 14  1  0  0  0  0
 20  2  1  0  0  0  0
 20 27  1  0  0  0  0
 21 23  1  0  0  0  0
 21 20  2  0  0  0  0
 22 21  1  0  0  0  0
 23 25  1  0  0  0  0
 24 23  1  0  0  0  0
 25 26  1  0  0  0  0
 25 27  2  0  0  0  0
M  END
>  <minimizedAffinity>
-4.7234354

$$$$

 OpenBabel03272509123D

 27 29  0  0  0  0  0  0  0  0999 V2000
   37.1610   21.6680   34.9770 C   0  0  0  0  0  0  0  0  0  0  0  0
   38.0180   22.7890   35.1780 C   0  0  0  0  0  0  0  0  0  0  0  0
   38.3710   23.5470   34.0540 C   0  0  0  0  0  0  0  0  0  0  0  0
   37.8900   23.1870   32.8220 N   0  0  0  0  0  0  0  0  0  0  0  0
   37.0790   22.1110   32.6790 C   0  0  0  0  0  0  0  0  0  0  0  0
   36.7180   21.3600   33.7440 N   0  0  0  0  0  0  0  0  0  0  0  0
   36.8370   21.0310   35.7770 H   0  0  0  0  0  0  0  0  0  0  0  0
   36.6930   21.8140   31.7200 H   0  0  0  0  0  0  0  0  0  0  0  0
   39.2270   24.7020   34.1470 C   0  0  0  0  0  0  0  0  0  0  0  0
   38.6550   25.8980   34.5420 C   0  0  0  0  0  0  0  0  0  0  0  0
   39.4070   27.0480   34.6720 C   0  0  0  0  0  0  0  0  0  0  0  0
   40.7730   26.9580   34.3850 C   0  0  0  0  0  0  0  0  0  0  0  0
   41.4070   25.7750   33.9780 C   0  0  0  0  0  0  0  0  0  0  0  0
   40.5830   24.6440   33.8690 C   0  0  0  0  0  0  0  0  0  0  0  0
   37.6400   26.1540   34.7760 H   0  0  0  0  0  0  0  0  0  0  0  0
   39.0940   28.0200   34.9650 H   0  0  0  0  0  0  0  0  0  0  0  0
   41.4660   27.8100   34.4540 H   0  0  0  0  0  0  0  0  0  0  0  0
   42.4450   25.7290   33.7650 H   0  0  0  0  0  0  0  0  0  0  0  0
   40.9800   23.6880   33.5630 H   0  0  0  0  0  0  0  0  0  0  0  0
   38.4300   22.9520   36.5330 C   0  0  0  0  0  0  0  0  0  0  0  0
   39.6280   22.3180   36.8950 C   0  0  0  0  0  0  0  0  0  0  0  0
   40.3740   21.7090   36.3890 H   0  0  0  0  0  0  0  0  0  0  0  0
   39.8550   22.5650   38.2180 N   0  0  0  0  0  0  0  0  0  0  0  0
   40.6260   22.2750   38.8520 H   0  0  0  0  0  0  0  0  0  0  0  0
   38.8220   23.3290   38.6480 C   0  0  0  0  0  0  0  0  0  0  0  0
   38.6280   23.7350   39.6240 H   0  0  0  0  0  0  0  0  0  0  0  0
   37.9490   23.5770   37.6510 N   0  0  0  0  0  0  0  0  0  0  0  0
  1  2  1  0  0  0  0
  1  7  1  0  0  0  0
  2 20  1  0  0  0  0
  3  9  1  0  0  0  0
  3  2  2  0  0  0  0
  4  3  1  0  0  0  0
  5  4  2  0  0  0  0
  5  6  1  0  0  0  0
  6  1  2  0  0  0  0
  8  5  1  0  0  0  0
  9 10  1  0  0  0  0
 10 11  2  0  0  0  0
 10 15  1  0  0  0  0
 11 16  1  0  0  0  0
 12 17  1  0  0  0  0
 12 11  1  0  0  0  0
 13 12  2  0  0  0  0
 14 13  1  0  0  0  0
 14  9  2  0  0  0  0
 18 13  1  0  0  0  0
 19 14  1  0  0  0  0
 20 21  2  0  0  0  0
 20 27  1  0  0  0  0
 21 23  1  0  0  0  0
 22 21  1  0  0  0  0
 23 25  1  0  0  0  0
 23 24  1  0  0  0  0
 25 26  1  0  0  0  0
 27 25  2  0  0  0  0
M  END
>  <minimizedAffinity>
-4.70377254

$$$$

 OpenBabel03272509123D

 27 29  0  0  0  0  0  0  0  0999 V2000
   42.1230   23.9860   34.9590 C   0  0  0  0  0  0  0  0  0  0  0  0
   40.8140   24.5520   34.9270 C   0  0  0  0  0  0  0  0  0  0  0  0
   40.6970   25.8980   34.5600 C   0  0  0  0  0  0  0  0  0  0  0  0
   41.8260   26.6120   34.2530 N   0  0  0  0  0  0  0  0  0  0  0  0
   43.0500   26.0330   34.3000 C   0  0  0  0  0  0  0  0  0  0  0  0
   43.1970   24.7350   34.6480 N   0  0  0  0  0  0  0  0  0  0  0  0
   42.3100   22.9650   35.2270 H   0  0  0  0  0  0  0  0  0  0  0  0
   43.9460   26.5790   34.0630 H   0  0  0  0  0  0  0  0  0  0  0  0
   39.4220   26.5650   34.4910 C   0  0  0  0  0  0  0  0  0  0  0  0
   38.9280   27.1330   35.6520 C   0  0  0  0  0  0  0  0  0  0  0  0
   37.7230   27.8050   35.6700 C   0  0  0  0  0  0  0  0  0  0  0  0
   37.0160   27.8880   34.4660 C   0  0  0  0  0  0  0  0  0  0  0  0
   37.4650   27.3310   33.2590 C   0  0  0  0  0  0  0  0  0  0  0  0
   38.6990   26.6640   33.3140 C   0  0  0  0  0  0  0  0  0  0  0  0
   39.3150   27.1470   36.6530 H   0  0  0  0  0  0  0  0  0  0  0  0
   37.2370   28.2810   36.4860 H   0  0  0  0  0  0  0  0  0  0  0  0
   36.0460   28.3980   34.3640 H   0  0  0  0  0  0  0  0  0  0  0  0
   36.9120   27.4050   32.3570 H   0  0  0  0  0  0  0  0  0  0  0  0
   39.1270   26.2030   32.4360 H   0  0  0  0  0  0  0  0  0  0  0  0
   39.7930   23.6400   35.3230 C   0  0  0  0  0  0  0  0  0  0  0  0
   39.9010   23.1160   36.6210 C   0  0  0  0  0  0  0  0  0  0  0  0
   40.5880   23.2340   37.4560 H   0  0  0  0  0  0  0  0  0  0  0  0
   38.8580   22.2590   36.8190 N   0  0  0  0  0  0  0  0  0  0  0  0
   38.5880   21.6800   37.6390 H   0  0  0  0  0  0  0  0  0  0  0  0
   38.1360   22.2600   35.6730 C   0  0  0  0  0  0  0  0  0  0  0  0
   37.2420   21.7190   35.4240 H   0  0  0  0  0  0  0  0  0  0  0  0
   38.6790   23.0840   34.7550 N   0  0  0  0  0  0  0  0  0  0  0  0
  1  7  1  0  0  0  0
  2  1  1  0  0  0  0
  2 20  1  0  0  0  0
  3  2  2  0  0  0  0
  4  5  2  0  0  0  0
  4  3  1  0  0  0  0
  5  6  1  0  0  0  0
  6  1  2  0  0  0  0
  8  5  1  0  0  0  0
  9  3  1  0  0  0  0
  9 10  1  0  0  0  0
 10 11  2  0  0  0  0
 10 15  1  0  0  0  0
 11 16  1  0  0  0  0
 12 11  1  0  0  0  0
 13 14  1  0  0  0  0
 13 12  2  0  0  0  0
 14  9  2  0  0  0  0
 17 12  1  0  0  0  0
 18 13  1  0  0  0  0
 19 14  1  0  0  0  0
 20 21  2  0  0  0  0
 21 23  1  0  0  0  0
 21 22  1  0  0  0  0
 23 24  1  0  0  0  0
 25 23  1  0  0  0  0
 26 25  1  0  0  0  0
 27 20  1  0  0  0  0
 27 25  2  0  0  0  0
M  END
>  <minimizedAffinity>
-4.67243385

$$$$

 OpenBabel03272509123D

 27 29  0  0  0  0  0  0  0  0999 V2000
   37.4540   21.5940   34.5320 C   0  0  0  0  0  0  0  0  0  0  0  0
   38.3800   22.6570   34.7460 C   0  0  0  0  0  0  0  0  0  0  0  0
   38.4200   23.6850   33.7970 C   0  0  0  0  0  0  0  0  0  0  0  0
   37.5830   23.6320   32.7120 N   0  0  0  0  0  0  0  0  0  0  0  0
   36.7200   22.6010   32.5500 C   0  0  0  0  0  0  0  0  0  0  0  0
   36.6560   21.5930   33.4490 N   0  0  0  0  0  0  0  0  0  0  0  0
   37.3520   20.7660   35.2060 H   0  0  0  0  0  0  0  0  0  0  0  0
   36.0570   22.5430   31.7050 H   0  0  0  0  0  0  0  0  0  0  0  0
   39.3150   24.8080   33.9190 C   0  0  0  0  0  0  0  0  0  0  0  0
   38.9040   25.8790   34.6930 C   0  0  0  0  0  0  0  0  0  0  0  0
   39.7070   26.9860   34.8750 C   0  0  0  0  0  0  0  0  0  0  0  0
   40.9560   26.9850   34.2440 C   0  0  0  0  0  0  0  0  0  0  0  0
   41.4250   25.9300   33.4470 C   0  0  0  0  0  0  0  0  0  0  0  0
   40.5570   24.8360   33.3060 C   0  0  0  0  0  0  0  0  0  0  0  0
   37.9880   26.0590   35.2210 H   0  0  0  0  0  0  0  0  0  0  0  0
   39.5130   27.8650   35.4390 H   0  0  0  0  0  0  0  0  0  0  0  0
   41.6750   27.8140   34.3200 H   0  0  0  0  0  0  0  0  0  0  0  0
   42.3750   25.9510   32.9770 H   0  0  0  0  0  0  0  0  0  0  0  0
   40.8310   23.9760   32.7130 H   0  0  0  0  0  0  0  0  0  0  0  0
   39.1790   22.4860   35.9140 C   0  0  0  0  0  0  0  0  0  0  0  0
   38.6280   22.9590   37.1150 C   0  0  0  0  0  0  0  0  0  0  0  0
   37.6990   23.4390   37.4130 H   0  0  0  0  0  0  0  0  0  0  0  0
   39.5300   22.7280   38.1140 N   0  0  0  0  0  0  0  0  0  0  0  0
   39.4960   22.9300   39.1330 H   0  0  0  0  0  0  0  0  0  0  0  0
   40.6000   22.1320   37.5350 C   0  0  0  0  0  0  0  0  0  0  0  0
   41.5180   21.7920   37.9770 H   0  0  0  0  0  0  0  0  0  0  0  0
   40.4140   21.9740   36.2100 N   0  0  0  0  0  0  0  0  0  0  0  0
  1  2  1  0  0  0  0
  1  7  1  0  0  0  0
  2 20  1  0  0  0  0
  3  9  1  0  0  0  0
  3  2  2  0  0  0  0
  4  3  1  0  0  0  0
  5  4  2  0  0  0  0
  5  6  1  0  0  0  0
  6  1  2  0  0  0  0
  8  5  1  0  0  0  0
  9 10  1  0  0  0  0
 10 11  2  0  0  0  0
 10 15  1  0  0  0  0
 11 16  1  0  0  0  0
 12 17  1  0  0  0  0
 12 11  1  0  0  0  0
 13 12  2  0  0  0  0
 14 13  1  0  0  0  0
 14  9  2  0  0  0  0
 18 13  1  0  0  0  0
 19 14  1  0  0  0  0
 20 27  1  0  0  0  0
 20 21  2  0  0  0  0
 21 22  1  0  0  0  0
 21 23  1  0  0  0  0
 23 24  1  0  0  0  0
 25 26  1  0  0  0  0
 25 23  1  0  0  0  0
 27 25  2  0  0  0  0
M  END
>  <minimizedAffinity>
-4.50823879

$$$$

 OpenBabel03272509123D

 27 29  0  0  0  0  0  0  0  0999 V2000
   37.4200   23.2930   32.4410 C   0  0  0  0  0  0  0  0  0  0  0  0
   37.9700   23.6080   33.7180 C   0  0  0  0  0  0  0  0  0  0  0  0
   37.8180   22.6660   34.7420 C   0  0  0  0  0  0  0  0  0  0  0  0
   37.1540   21.4940   34.4850 N   0  0  0  0  0  0  0  0  0  0  0  0
   36.6470   21.2380   33.2550 C   0  0  0  0  0  0  0  0  0  0  0  0
   36.7780   22.1270   32.2440 N   0  0  0  0  0  0  0  0  0  0  0  0
   37.4900   23.9520   31.5980 H   0  0  0  0  0  0  0  0  0  0  0  0
   36.1230   20.3250   33.0360 H   0  0  0  0  0  0  0  0  0  0  0  0
   38.3380   22.8830   36.0680 C   0  0  0  0  0  0  0  0  0  0  0  0
   37.5080   23.4870   36.9960 C   0  0  0  0  0  0  0  0  0  0  0  0
   37.9230   23.7170   38.2910 C   0  0  0  0  0  0  0  0  0  0  0  0
   39.2190   23.3160   38.6320 C   0  0  0  0  0  0  0  0  0  0  0  0
   40.1050   22.7020   37.7350 C   0  0  0  0  0  0  0  0  0  0  0  0
   39.6170   22.4970   36.4350 C   0  0  0  0  0  0  0  0  0  0  0  0
   36.5120   23.8750   36.9070 H   0  0  0  0  0  0  0  0  0  0  0  0
   37.3890   24.1670   39.0920 H   0  0  0  0  0  0  0  0  0  0  0  0
   39.6520   23.4510   39.6350 H   0  0  0  0  0  0  0  0  0  0  0  0
   41.0840   22.4070   38.0150 H   0  0  0  0  0  0  0  0  0  0  0  0
   40.2260   22.0310   35.6750 H   0  0  0  0  0  0  0  0  0  0  0  0
   38.5790   24.8960   33.7710 C   0  0  0  0  0  0  0  0  0  0  0  0
   37.7050   25.9890   33.8840 C   0  0  0  0  0  0  0  0  0  0  0  0
   36.6290   26.1240   33.9570 H   0  0  0  0  0  0  0  0  0  0  0  0
   38.4550   27.1290   33.9030 N   0  0  0  0  0  0  0  0  0  0  0  0
   38.1850   28.1310   33.9760 H   0  0  0  0  0  0  0  0  0  0  0  0
   39.7490   26.7410   33.8040 C   0  0  0  0  0  0  0  0  0  0  0  0
   40.6440   27.3340   33.7830 H   0  0  0  0  0  0  0  0  0  0  0  0
   39.8510   25.3990   33.7220 N   0  0  0  0  0  0  0  0  0  0  0  0
  1  2  1  0  0  0  0
  2 20  1  0  0  0  0
  2  3  2  0  0  0  0
  3  9  1  0  0  0  0
  4  3  1  0  0  0  0
  5  4  2  0  0  0  0
  6  1  2  0  0  0  0
  6  5  1  0  0  0  0
  7  1  1  0  0  0  0
  8  5  1  0  0  0  0
  9 14  2  0  0  0  0
  9 10  1  0  0  0  0
 10 11  2  0  0  0  0
 11 12  1  0  0  0  0
 11 16  1  0  0  0  0
 12 17  1  0  0  0  0
 13 18  1  0  0  0  0
 13 12  2  0  0  0  0
 14 13  1  0  0  0  0
 15 10  1  0  0  0  0
 19 14  1  0  0  0  0
 20 21  2  0  0  0  0
 21 23  1  0  0  0  0
 21 22  1  0  0  0  0
 23 24  1  0  0  0  0
 25 23  1  0  0  0  0
 26 25  1  0  0  0  0
 27 20  1  0  0  0  0
 27 25  2  0  0  0  0
M  END
>  <minimizedAffinity>
-4.5047226

$$$$

 OpenBabel03272509123D

 27 29  0  0  0  0  0  0  0  0999 V2000
   37.3480   25.4690   32.7210 C   0  0  0  0  0  0  0  0  0  0  0  0
   37.2590   24.0480   32.6480 C   0  0  0  0  0  0  0  0  0  0  0  0
   36.2850   23.5000   31.8050 C   0  0  0  0  0  0  0  0  0  0  0  0
   35.4630   24.3360   31.0950 N   0  0  0  0  0  0  0  0  0  0  0  0
   35.5830   25.6820   31.1980 C   0  0  0  0  0  0  0  0  0  0  0  0
   36.5150   26.2420   32.0010 N   0  0  0  0  0  0  0  0  0  0  0  0
   38.0640   25.9770   33.3380 H   0  0  0  0  0  0  0  0  0  0  0  0
   34.9470   26.3530   30.6480 H   0  0  0  0  0  0  0  0  0  0  0  0
   36.1120   22.0770   31.6540 C   0  0  0  0  0  0  0  0  0  0  0  0
   35.1280   21.4640   32.4090 C   0  0  0  0  0  0  0  0  0  0  0  0
   34.8870   20.1090   32.3130 C   0  0  0  0  0  0  0  0  0  0  0  0
   35.6790   19.3770   31.4230 C   0  0  0  0  0  0  0  0  0  0  0  0
   36.6920   19.9430   30.6350 C   0  0  0  0  0  0  0  0  0  0  0  0
   36.8820   21.3260   30.7820 C   0  0  0  0  0  0  0  0  0  0  0  0
   34.4530   21.8560   33.1450 H   0  0  0  0  0  0  0  0  0  0  0  0
   34.1680   19.5220   32.8290 H   0  0  0  0  0  0  0  0  0  0  0  0
   35.5740   18.2920   31.2660 H   0  0  0  0  0  0  0  0  0  0  0  0
   37.2820   19.3680   29.9670 H   0  0  0  0  0  0  0  0  0  0  0  0
   37.6370   21.8510   30.2170 H   0  0  0  0  0  0  0  0  0  0  0  0
   38.1820   23.3770   33.5020 C   0  0  0  0  0  0  0  0  0  0  0  0
   38.1920   23.7860   34.8450 C   0  0  0  0  0  0  0  0  0  0  0  0
   37.6460   24.5110   35.4440 H   0  0  0  0  0  0  0  0  0  0  0  0
   39.1380   23.0560   35.5030 N   0  0  0  0  0  0  0  0  0  0  0  0
   39.4460   23.0600   36.4960 H   0  0  0  0  0  0  0  0  0  0  0  0
   39.6900   22.2250   34.5860 C   0  0  0  0  0  0  0  0  0  0  0  0
   40.4670   21.4930   34.7020 H   0  0  0  0  0  0  0  0  0  0  0  0
   39.1310   22.3990   33.3720 N   0  0  0  0  0  0  0  0  0  0  0  0
  1  7  1  0  0  0  0
  2  1  1  0  0  0  0
  2 20  1  0  0  0  0
  3  2  2  0  0  0  0
  4  5  2  0  0  0  0
  4  3  1  0  0  0  0
  5  6  1  0  0  0  0
  6  1  2  0  0  0  0
  8  5  1  0  0  0  0
  9  3  1  0  0  0  0
  9 10  1  0  0  0  0
 10 15  1  0  0  0  0
 11 10  2  0  0  0  0
 11 16  1  0  0  0  0
 12 11  1  0  0  0  0
 13 14  1  0  0  0  0
 13 12  2  0  0  0  0
 14  9  2  0  0  0  0
 17 12  1  0  0  0  0
 18 13  1  0  0  0  0
 19 14  1  0  0  0  0
 20 21  2  0  0  0  0
 21 22  1  0  0  0  0
 21 23  1  0  0  0  0
 23 24  1  0  0  0  0
 25 26  1  0  0  0  0
 25 23  1  0  0  0  0
 27 20  1  0  0  0  0
 27 25  2  0  0  0  0
M  END
>  <minimizedAffinity>
-4.49716663

$$$$

 OpenBabel03272509123D

 27 29  0  0  0  0  0  0  0  0999 V2000
   38.3150   25.1620   33.3010 C   0  0  0  0  0  0  0  0  0  0  0  0
   37.4920   24.1560   32.7140 C   0  0  0  0  0  0  0  0  0  0  0  0
   37.7950   22.8200   33.0000 C   0  0  0  0  0  0  0  0  0  0  0  0
   38.8560   22.5310   33.8180 N   0  0  0  0  0  0  0  0  0  0  0  0
   39.6120   23.5200   34.3520 C   0  0  0  0  0  0  0  0  0  0  0  0
   39.3450   24.8210   34.0970 N   0  0  0  0  0  0  0  0  0  0  0  0
   38.1580   26.2100   33.1400 H   0  0  0  0  0  0  0  0  0  0  0  0
   40.4490   23.3110   34.9940 H   0  0  0  0  0  0  0  0  0  0  0  0
   37.0240   21.7270   32.4630 C   0  0  0  0  0  0  0  0  0  0  0  0
   36.0800   21.1390   33.2850 C   0  0  0  0  0  0  0  0  0  0  0  0
   35.2890   20.0980   32.8440 C   0  0  0  0  0  0  0  0  0  0  0  0
   35.4800   19.6570   31.5310 C   0  0  0  0  0  0  0  0  0  0  0  0
   36.4220   20.2130   30.6520 C   0  0  0  0  0  0  0  0  0  0  0  0
   37.1910   21.2690   31.1670 C   0  0  0  0  0  0  0  0  0  0  0  0
   35.8170   21.3260   34.3090 H   0  0  0  0  0  0  0  0  0  0  0  0
   34.5350   19.5650   33.3690 H   0  0  0  0  0  0  0  0  0  0  0  0
   34.9070   18.8360   31.0750 H   0  0  0  0  0  0  0  0  0  0  0  0
   36.5520   19.8620   29.6600 H   0  0  0  0  0  0  0  0  0  0  0  0
   37.9420   21.7600   30.5660 H   0  0  0  0  0  0  0  0  0  0  0  0
   36.4740   24.6820   31.8660 C   0  0  0  0  0  0  0  0  0  0  0  0
   36.7850   25.8700   31.1880 C   0  0  0  0  0  0  0  0  0  0  0  0
   37.6480   26.5300   31.1250 H   0  0  0  0  0  0  0  0  0  0  0  0
   35.7000   26.2300   30.4440 N   0  0  0  0  0  0  0  0  0  0  0  0
   35.5340   27.0380   29.8110 H   0  0  0  0  0  0  0  0  0  0  0  0
   34.7530   25.2870   30.6640 C   0  0  0  0  0  0  0  0  0  0  0  0
   33.7580   25.2060   30.2660 H   0  0  0  0  0  0  0  0  0  0  0  0
   35.1940   24.3420   31.5170 N   0  0  0  0  0  0  0  0  0  0  0  0
  1  6  1  0  0  0  0
  2  3  1  0  0  0  0
  2  1  2  0  0  0  0
  3  4  2  0  0  0  0
  4  5  1  0  0  0  0
  5  8  1  0  0  0  0
  6  5  2  0  0  0  0
  7  1  1  0  0  0  0
  9  3  1  0  0  0  0
  9 10  1  0  0  0  0
 10 15  1  0  0  0  0
 11 10  2  0  0  0  0
 11 16  1  0  0  0  0
 12 11  1  0  0  0  0
 13 14  1  0  0  0  0
 13 12  2  0  0  0  0
 14  9  2  0  0  0  0
 17 12  1  0  0  0  0
 18 13  1  0  0  0  0
 19 14  1  0  0  0  0
 20  2  1  0  0  0  0
 21 20  2  0  0  0  0
 22 21  1  0  0  0  0
 23 25  1  0  0  0  0
 23 21  1  0  0  0  0
 24 23  1  0  0  0  0
 25 27  2  0  0  0  0
 26 25  1  0  0  0  0
 27 20  1  0  0  0  0
M  END
>  <minimizedAffinity>
-4.48650503

$$$$

 OpenBabel03272509123D

 27 29  0  0  0  0  0  0  0  0999 V2000
   39.0920   25.6750   32.3920 C   0  0  0  0  0  0  0  0  0  0  0  0
   38.8400   24.8730   33.5440 C   0  0  0  0  0  0  0  0  0  0  0  0
   39.4050   25.2830   34.7570 C   0  0  0  0  0  0  0  0  0  0  0  0
   40.1700   26.4200   34.7930 N   0  0  0  0  0  0  0  0  0  0  0  0
   40.3830   27.1500   33.6720 C   0  0  0  0  0  0  0  0  0  0  0  0
   39.8500   26.7830   32.4850 N   0  0  0  0  0  0  0  0  0  0  0  0
   38.6990   25.4410   31.4220 H   0  0  0  0  0  0  0  0  0  0  0  0
   40.9810   28.0450   33.6820 H   0  0  0  0  0  0  0  0  0  0  0  0
   39.2110   24.5480   35.9810 C   0  0  0  0  0  0  0  0  0  0  0  0
   38.1270   24.8880   36.7720 C   0  0  0  0  0  0  0  0  0  0  0  0
   37.8590   24.2240   37.9510 C   0  0  0  0  0  0  0  0  0  0  0  0
   38.7290   23.1910   38.3180 C   0  0  0  0  0  0  0  0  0  0  0  0
   39.8430   22.8040   37.5590 C   0  0  0  0  0  0  0  0  0  0  0  0
   40.0540   23.5210   36.3710 C   0  0  0  0  0  0  0  0  0  0  0  0
   37.3830   25.6530   36.6610 H   0  0  0  0  0  0  0  0  0  0  0  0
   37.0680   24.3840   38.6420 H   0  0  0  0  0  0  0  0  0  0  0  0
   38.6110   22.5960   39.2370 H   0  0  0  0  0  0  0  0  0  0  0  0
   40.4900   22.0180   37.8580 H   0  0  0  0  0  0  0  0  0  0  0  0
   40.8860   23.2950   35.7210 H   0  0  0  0  0  0  0  0  0  0  0  0
   38.0560   23.7150   33.2670 C   0  0  0  0  0  0  0  0  0  0  0  0
   37.0420   23.8680   32.3090 C   0  0  0  0  0  0  0  0  0  0  0  0
   36.6800   24.6760   31.6780 H   0  0  0  0  0  0  0  0  0  0  0  0
   36.3910   22.6750   32.1870 N   0  0  0  0  0  0  0  0  0  0  0  0
   35.5930   22.3830   31.5900 H   0  0  0  0  0  0  0  0  0  0  0  0
   36.9930   21.8200   33.0490 C   0  0  0  0  0  0  0  0  0  0  0  0
   36.7780   20.7870   33.2530 H   0  0  0  0  0  0  0  0  0  0  0  0
   38.0000   22.4220   33.7120 N   0  0  0  0  0  0  0  0  0  0  0  0
  1  6  2  0  0  0  0
  1  2  1  0  0  0  0
  2  3  2  0  0  0  0
  3  4  1  0  0  0  0
  3  9  1  0  0  0  0
  5  8  1  0  0  0  0
  5  4  2  0  0  0  0
  6  5  1  0  0  0  0
  7  1  1  0  0  0  0
  9 14  2  0  0  0  0
  9 10  1  0  0  0  0
 10 11  2  0  0  0  0
 11 12  1  0  0  0  0
 11 16  1  0  0  0  0
 12 17  1  0  0  0  0
 13 18  1  0  0  0  0
 13 12  2  0  0  0  0
 14 13  1  0  0  0  0
 15 10  1  0  0  0  0
 19 14  1  0  0  0  0
 20  2  1  0  0  0  0
 20 27  1  0  0  0  0
 21 20  2  0  0  0  0
 22 21  1  0  0  0  0
 23 21  1  0  0  0  0
 23 25  1  0  0  0  0
 24 23  1  0  0  0  0
 25 26  1  0  0  0  0
 25 27  2  0  0  0  0
M  END
>  <minimizedAffinity>
-4.45995092

$$$$
