
 OpenBabel03262521393D

 28 30  0  0  0  0  0  0  0  0999 V2000
   34.3650   30.1630   48.7300 F   0  0  0  0  0  0  0  0  0  0  0  0
   34.9790   30.1900   47.4880 C   0  0  0  0  0  0  0  0  0  0  0  0
   34.3020   29.8410   46.3280 C   0  0  0  0  0  0  0  0  0  0  0  0
   34.9750   29.8940   45.1260 C   0  0  0  0  0  0  0  0  0  0  0  0
   36.3090   30.2890   45.0640 C   0  0  0  0  0  0  0  0  0  0  0  0
   36.9340   30.6260   46.2530 C   0  0  0  0  0  0  0  0  0  0  0  0
   36.3100   30.5890   47.4690 C   0  0  0  0  0  0  0  0  0  0  0  0
   34.4510   29.6240   44.2280 H   0  0  0  0  0  0  0  0  0  0  0  0
   36.8640   30.3400   44.1330 H   0  0  0  0  0  0  0  0  0  0  0  0
   37.9700   30.9420   46.2810 H   0  0  0  0  0  0  0  0  0  0  0  0
   32.7330   28.2790   47.1650 C   0  0  0  0  0  0  0  0  0  0  0  0
   32.9480   29.4530   46.4850 C   0  0  0  0  0  0  0  0  0  0  0  0
   31.8110   30.1550   46.0160 C   0  0  0  0  0  0  0  0  0  0  0  0
   30.5780   29.6230   46.2680 N   0  0  0  0  0  0  0  0  0  0  0  0
   30.4330   28.4650   46.9430 C   0  0  0  0  0  0  0  0  0  0  0  0
   31.4920   27.7790   47.3990 N   0  0  0  0  0  0  0  0  0  0  0  0
   33.5290   27.6630   47.5670 H   0  0  0  0  0  0  0  0  0  0  0  0
   32.0110   31.0660   45.4890 H   0  0  0  0  0  0  0  0  0  0  0  0
   29.3730   28.2510   47.0170 H   0  0  0  0  0  0  0  0  0  0  0  0
   37.1500   31.0310   48.9950 S   0  0  0  0  0  0  0  0  0  0  0  0
   38.2560   32.4050   48.7270 C   0  0  0  0  0  0  0  0  0  0  0  0
   38.9690   32.6860   47.5730 C   0  0  0  0  0  0  0  0  0  0  0  0
   38.9040   32.0500   46.6880 H   0  0  0  0  0  0  0  0  0  0  0  0
   39.6770   33.8060   47.7940 N   0  0  0  0  0  0  0  0  0  0  0  0
   40.2770   34.1610   47.0140 H   0  0  0  0  0  0  0  0  0  0  0  0
   39.4180   34.2290   49.0640 C   0  0  0  0  0  0  0  0  0  0  0  0
   39.9300   35.1220   49.3590 H   0  0  0  0  0  0  0  0  0  0  0  0
   38.5380   33.3450   49.6160 N   0  0  0  0  0  0  0  0  0  0  0  0
  2  1  1  0  0  0  0
  3 12  1  0  0  0  0
  3  2  2  0  0  0  0
  4  3  1  0  0  0  0
  5  4  2  0  0  0  0
  5  6  1  0  0  0  0
  6 10  1  0  0  0  0
  6  7  2  0  0  0  0
  7  2  1  0  0  0  0
  7 20  1  0  0  0  0
  8  4  1  0  0  0  0
  9  5  1  0  0  0  0
 11 16  1  0  0  0  0
 11 17  1  0  0  0  0
 12 11  2  0  0  0  0
 13 14  2  0  0  0  0
 13 12  1  0  0  0  0
 14 15  1  0  0  0  0
 15 19  1  0  0  0  0
 15 16  2  0  0  0  0
 18 13  1  0  0  0  0
 21 20  1  0  0  0  0
 21 28  1  0  0  0  0
 22 24  1  0  0  0  0
 22 21  2  0  0  0  0
 23 22  1  0  0  0  0
 24 26  1  0  0  0  0
 25 24  1  0  0  0  0
 26 27  1  0  0  0  0
 26 28  2  0  0  0  0
M  END
>  <minimizedAffinity>
-5.00608253

>  <minimizedRMSD>
3.71241689

$$$$
