
     RDKit          3D

 23 24  0  0  0  0  0  0  0  0999 V2000
   37.2058   30.3028   51.1976 C   0  0  0  0  0  0  0  0  0  0  0  0
   37.7139   30.6712   49.9424 C   0  0  0  0  0  0  0  0  0  0  0  0
   37.1174   30.0655   48.8241 C   0  0  0  0  0  0  0  0  0  0  0  0
   36.1018   29.1730   48.9967 N   0  0  0  0  0  0  0  0  0  0  0  0
   35.6568   28.8601   50.2425 C   0  0  0  0  0  0  0  0  0  0  0  0
   36.2025   29.4191   51.3396 N   0  0  0  0  0  0  0  0  0  0  0  0
   38.7290   31.5705   49.8772 O   0  0  0  0  0  0  0  0  0  0  0  0
   37.2929   33.7108   49.5185 O   0  0  0  0  0  0  0  0  0  0  0  0
   38.6775   33.1396   49.2276 P   0  0  1  0  0  0  0  0  0  0  0  0
   39.8112   34.0558   50.1137 O   0  0  0  0  0  0  0  0  0  0  0  0
   38.9560   33.2227   47.5971 O   0  0  0  0  0  0  0  0  0  0  0  0
   37.6329   30.7425   52.0889 H   0  0  0  0  0  0  0  0  0  0  0  0
   37.4926   30.3337   47.8391 H   0  0  0  0  0  0  0  0  0  0  0  0
   34.8507   28.1370   50.1610 H   0  0  0  0  0  0  0  0  0  0  0  0
   39.3570   34.6822   50.7192 H   0  0  0  0  0  0  0  0  0  0  0  0
   40.1927   33.3396   46.9777 C   0  0  0  0  0  0  0  0  0  0  0  0
   40.3137   32.7743   45.7153 C   0  0  0  0  0  0  0  0  0  0  0  0
   39.6453   32.2313   45.0501 H   0  0  0  0  0  0  0  0  0  0  0  0
   41.5927   33.0087   45.3112 N   0  0  0  0  0  0  0  0  0  0  0  0
   42.0613   32.7384   44.4212 H   0  0  0  0  0  0  0  0  0  0  0  0
   42.2555   33.6975   46.2843 C   0  0  0  0  0  0  0  0  0  0  0  0
   43.2859   34.0271   46.2521 H   0  0  0  0  0  0  0  0  0  0  0  0
   41.3820   33.8891   47.2929 N   0  0  0  0  0  0  0  0  0  0  0  0
  1  6  2  0
  2  1  1  0
  3  4  1  0
  3  2  2  0
  4  5  2  0
  5  6  1  0
  7  2  1  0
  9  8  2  0
  9  7  1  1
  9 10  1  0
 11  9  1  0
  1 12  1  0
  3 13  1  0
  5 14  1  0
 10 15  1  0
 16 17  2  0
 17 18  1  0
 17 19  1  0
 19 20  1  0
 19 21  1  0
 21 22  1  0
 21 23  2  0
 23 16  1  0
 11 16  1  0
M  ISO  7  12  14  13  14  14  14  15   3  18  15  20   5  22  14
M  END
>  <DihAtoms>  (1) 
8,10,15,16

>  <DihDeg>  (1) 
179.99944210063836

$$$$
