
 OpenBabel03272510113D

 34 37  0  0  0  0  0  0  0  0999 V2000
   33.4660   28.5280   48.1890 C   0  0  0  0  0  0  0  0  0  0  0  0
   34.0820   28.0220   49.2790 C   0  0  0  0  0  0  0  0  0  0  0  0
   35.3160   28.4170   49.7450 C   0  0  0  0  0  0  0  0  0  0  0  0
   36.0080   29.3950   49.0840 C   0  0  0  0  0  0  0  0  0  0  0  0
   35.3750   29.9200   47.9570 C   0  0  0  0  0  0  0  0  0  0  0  0
   34.1700   29.5000   47.5420 N   0  0  0  0  0  0  0  0  0  0  0  0
   33.6120   27.2470   49.8660 H   0  0  0  0  0  0  0  0  0  0  0  0
   35.7990   28.0040   50.6220 H   0  0  0  0  0  0  0  0  0  0  0  0
   35.8840   30.7030   47.3900 H   0  0  0  0  0  0  0  0  0  0  0  0
   31.3830   27.1280   48.3330 C   0  0  0  0  0  0  0  0  0  0  0  0
   32.1830   28.1110   47.7110 C   0  0  0  0  0  0  0  0  0  0  0  0
   31.6540   28.6820   46.5720 C   0  0  0  0  0  0  0  0  0  0  0  0
   30.4310   28.2950   46.1040 N   0  0  0  0  0  0  0  0  0  0  0  0
   29.7180   27.3490   46.7460 C   0  0  0  0  0  0  0  0  0  0  0  0
   30.1830   26.7630   47.8550 N   0  0  0  0  0  0  0  0  0  0  0  0
   31.7690   26.6620   49.2280 H   0  0  0  0  0  0  0  0  0  0  0  0
   32.2470   29.4420   46.0710 H   0  0  0  0  0  0  0  0  0  0  0  0
   28.7810   27.1820   46.2230 H   0  0  0  0  0  0  0  0  0  0  0  0
   37.2600   29.9100   49.4160 O   0  0  0  0  0  0  0  0  0  0  0  0
   37.8740   30.8760   48.6230 C   0  0  0  0  0  0  0  0  0  0  0  0
   38.2520   32.0310   49.3220 C   0  0  0  0  0  0  0  0  0  0  0  0
   38.8470   32.9080   48.4330 C   0  0  0  0  0  0  0  0  0  0  0  0
   38.8120   32.2770   47.2500 N   0  0  0  0  0  0  0  0  0  0  0  0
   38.2500   31.0970   47.3500 N   0  0  0  0  0  0  0  0  0  0  0  0
   38.1750   32.3570   50.3730 H   0  0  0  0  0  0  0  0  0  0  0  0
   39.2820   33.8870   48.4920 H   0  0  0  0  0  0  0  0  0  0  0  0
   39.2920   32.7220   45.9770 C   0  0  0  0  0  0  0  0  0  0  0  0
   40.3600   33.4110   45.4520 C   0  0  0  0  0  0  0  0  0  0  0  0
   41.0970   33.7420   46.1770 H   0  0  0  0  0  0  0  0  0  0  0  0
   40.1650   33.4740   44.1310 N   0  0  0  0  0  0  0  0  0  0  0  0
   40.8760   33.9620   43.5450 H   0  0  0  0  0  0  0  0  0  0  0  0
   39.0200   32.8540   43.8010 C   0  0  0  0  0  0  0  0  0  0  0  0
   38.6440   32.7730   42.7690 H   0  0  0  0  0  0  0  0  0  0  0  0
   38.4750   32.3880   44.9350 N   0  0  0  0  0  0  0  0  0  0  0  0
  1  2  1  0  0  0  0
  2  3  2  0  0  0  0
  2  7  1  0  0  0  0
  3  8  1  0  0  0  0
  4 19  1  0  0  0  0
  4  3  1  0  0  0  0
  5  4  2  0  0  0  0
  6  5  1  0  0  0  0
  6  1  2  0  0  0  0
  9  5  1  0  0  0  0
 10 16  1  0  0  0  0
 11  1  1  0  0  0  0
 11 10  2  0  0  0  0
 12 11  1  0  0  0  0
 13 12  2  0  0  0  0
 13 14  1  0  0  0  0
 14 15  2  0  0  0  0
 15 10  1  0  0  0  0
 17 12  1  0  0  0  0
 18 14  1  0  0  0  0
 20 21  1  0  0  0  0
 20 19  1  0  0  0  0
 21 25  1  0  0  0  0
 22 26  1  0  0  0  0
 22 21  2  0  0  0  0
 23 24  1  0  0  0  0
 23 22  1  0  0  0  0
 24 20  2  0  0  0  0
 27 23  1  0  0  0  0
 28 27  2  0  0  0  0
 28 29  1  0  0  0  0
 30 28  1  0  0  0  0
 31 30  1  0  0  0  0
 32 30  1  0  0  0  0
 32 34  2  0  0  0  0
 33 32  1  0  0  0  0
 34 27  1  0  0  0  0
M  END
>  <minimizedAffinity>
-5.84516907

>  <minimizedRMSD>
1.09836459

$$$$
