
 OpenBabel03272510293D

 27 29  0  0  0  0  0  0  0  0999 V2000
   37.2660   31.3440   49.2130 C   0  0  0  0  0  0  0  0  0  0  0  0
   37.5840   32.5990   49.7300 C   0  0  0  0  0  0  0  0  0  0  0  0
   38.5170   33.3260   49.0070 C   0  0  0  0  0  0  0  0  0  0  0  0
   39.0600   32.8020   47.8690 N   0  0  0  0  0  0  0  0  0  0  0  0
   38.7220   31.5680   47.3940 C   0  0  0  0  0  0  0  0  0  0  0  0
   37.8020   30.8270   48.0910 N   0  0  0  0  0  0  0  0  0  0  0  0
   37.1450   32.9900   50.6250 H   0  0  0  0  0  0  0  0  0  0  0  0
   38.8430   34.2950   49.2970 H   0  0  0  0  0  0  0  0  0  0  0  0
   36.2320   30.5330   49.9480 C   0  0  0  0  0  0  0  0  0  0  0  0
   36.1640   29.0950   49.8580 C   0  0  0  0  0  0  0  0  0  0  0  0
   36.8250   29.6890   51.0800 C   0  0  0  0  0  0  0  0  0  0  0  0
   35.2960   31.0930   50.2460 H   0  0  0  0  0  0  0  0  0  0  0  0
   35.2280   28.5480   49.9450 H   0  0  0  0  0  0  0  0  0  0  0  0
   36.8700   28.6060   49.1350 H   0  0  0  0  0  0  0  0  0  0  0  0
   37.9080   29.6770   51.2040 H   0  0  0  0  0  0  0  0  0  0  0  0
   36.1920   29.5920   51.9840 H   0  0  0  0  0  0  0  0  0  0  0  0
   39.2690   30.9680   46.1830 C   0  0  0  0  0  0  0  0  0  0  0  0
   40.3200   31.3610   46.0730 H   0  0  0  0  0  0  0  0  0  0  0  0
   39.3560   29.8890   46.3280 H   0  0  0  0  0  0  0  0  0  0  0  0
   38.4630   31.2970   44.9640 C   0  0  0  0  0  0  0  0  0  0  0  0
   38.0360   32.4980   44.4400 C   0  0  0  0  0  0  0  0  0  0  0  0
   38.2610   33.4480   44.9040 H   0  0  0  0  0  0  0  0  0  0  0  0
   37.3430   32.1800   43.3210 N   0  0  0  0  0  0  0  0  0  0  0  0
   36.8930   32.9040   42.7060 H   0  0  0  0  0  0  0  0  0  0  0  0
   37.3200   30.8560   43.1280 C   0  0  0  0  0  0  0  0  0  0  0  0
   36.8510   30.3160   42.3310 H   0  0  0  0  0  0  0  0  0  0  0  0
   38.0200   30.3100   44.1550 N   0  0  0  0  0  0  0  0  0  0  0  0
  1  2  1  0  0  0  0
  1  9  1  0  0  0  0
  2  7  1  0  0  0  0
  3  8  1  0  0  0  0
  3  2  2  0  0  0  0
  4  3  1  0  0  0  0
  5  4  2  0  0  0  0
  5  6  1  0  0  0  0
  6  1  2  0  0  0  0
  9 12  1  0  0  0  0
  9 11  1  0  0  0  0
 10 13  1  0  0  0  0
 10  9  1  0  0  0  0
 10 11  1  0  0  0  0
 11 15  1  0  0  0  0
 11 16  1  0  0  0  0
 14 10  1  0  0  0  0
 17 19  1  0  0  0  0
 17  5  1  0  0  0  0
 18 17  1  0  0  0  0
 20 17  1  0  0  0  0
 21 22  1  0  0  0  0
 21 20  2  0  0  0  0
 23 21  1  0  0  0  0
 24 23  1  0  0  0  0
 25 23  1  0  0  0  0
 25 27  2  0  0  0  0
 26 25  1  0  0  0  0
 27 20  1  0  0  0  0
M  END
>  <minimizedAffinity>
-4.98417091

>  <minimizedRMSD>
0.318920523

$$$$
