
 OpenBabel03272508273D

 37 40  0  0  1  0  0  0  0  0999 V2000
   33.6410   28.8840   47.1770 C   0  0  2  0  0  0  0  0  0  0  0  0
   34.3840   28.0570   48.2130 C   0  0  2  0  0  0  0  0  0  0  0  0
   33.4920   27.8230   49.2120 O   0  0  0  0  0  0  0  0  0  0  0  0
   32.2130   27.9210   48.7500 C   0  0  0  0  0  0  0  0  0  0  0  0
   32.2660   28.2120   47.2680 C   0  0  1  0  0  0  0  0  0  0  0  0
   33.5510   29.9420   47.4570 H   0  0  0  0  0  0  0  0  0  0  0  0
   34.6710   27.1080   47.7430 H   0  0  0  0  0  0  0  0  0  0  0  0
   31.7230   28.7980   49.2470 H   0  0  0  0  0  0  0  0  0  0  0  0
   31.5760   27.0440   48.9850 H   0  0  0  0  0  0  0  0  0  0  0  0
   32.2740   27.2380   46.7400 H   0  0  0  0  0  0  0  0  0  0  0  0
   35.4630   30.2850   48.9650 C   0  0  1  0  0  0  0  0  0  0  0  0
   35.5470   28.8730   48.6800 C   0  0  1  0  0  0  0  0  0  0  0  0
   35.6970   29.2850   50.1070 C   0  0  0  0  0  0  0  0  0  0  0  0
   34.5560   30.8810   49.1760 H   0  0  0  0  0  0  0  0  0  0  0  0
   36.5130   28.5330   48.2030 H   0  0  0  0  0  0  0  0  0  0  0  0
   34.8860   29.0820   50.8180 H   0  0  0  0  0  0  0  0  0  0  0  0
   36.7090   29.2590   50.5840 H   0  0  0  0  0  0  0  0  0  0  0  0
   36.6600   31.2020   48.7660 C   0  0  0  0  0  0  0  0  0  0  0  0
   36.9260   32.1440   49.7610 C   0  0  0  0  0  0  0  0  0  0  0  0
   38.0110   32.9650   49.5210 C   0  0  0  0  0  0  0  0  0  0  0  0
   38.7530   32.8430   48.3810 N   0  0  0  0  0  0  0  0  0  0  0  0
   38.4610   31.9100   47.4340 C   0  0  0  0  0  0  0  0  0  0  0  0
   37.4010   31.0850   47.6350 N   0  0  0  0  0  0  0  0  0  0  0  0
   36.3160   32.2070   50.6420 H   0  0  0  0  0  0  0  0  0  0  0  0
   38.2870   33.7290   50.2520 H   0  0  0  0  0  0  0  0  0  0  0  0
   39.0740   31.8470   46.5460 H   0  0  0  0  0  0  0  0  0  0  0  0
   34.1680   28.7950   45.9040 O   0  0  0  0  0  0  0  0  0  0  0  0
   35.1530   28.7500   46.0150 H   0  0  0  0  0  0  0  0  0  0  0  0
   31.2650   29.0180   46.8060 O   0  0  0  0  0  0  0  0  0  0  0  0
   29.9230   28.7000   46.9540 C   0  0  0  0  0  0  0  0  0  0  0  0
   29.3450   27.6880   46.2180 C   0  0  0  0  0  0  0  0  0  0  0  0
   29.7470   27.0050   45.4650 H   0  0  0  0  0  0  0  0  0  0  0  0
   28.0340   27.5560   46.5250 N   0  0  0  0  0  0  0  0  0  0  0  0
   27.2730   26.9300   46.2020 H   0  0  0  0  0  0  0  0  0  0  0  0
   27.7840   28.5050   47.4730 C   0  0  0  0  0  0  0  0  0  0  0  0
   26.8540   28.7240   47.9740 H   0  0  0  0  0  0  0  0  0  0  0  0
   28.9050   29.1790   47.7220 N   0  0  0  0  0  0  0  0  0  0  0  0
  1  5  1  0  0  0  0
  1  6  1  1  0  0  0
  1  2  1  0  0  0  0
  2  7  1  6  0  0  0
  2 12  1  0  0  0  0
  2  3  1  0  0  0  0
  4  9  1  0  0  0  0
  4  3  1  0  0  0  0
  4  8  1  0  0  0  0
  5 10  1  6  0  0  0
  5  4  1  0  0  0  0
 11 14  1  6  0  0  0
 11 13  1  0  0  0  0
 12 15  1  6  0  0  0
 12 11  1  0  0  0  0
 12 13  1  0  0  0  0
 13 17  1  0  0  0  0
 13 16  1  0  0  0  0
 18 11  1  0  0  0  0
 18 19  1  0  0  0  0
 19 24  1  0  0  0  0
 20 19  2  0  0  0  0
 20 25  1  0  0  0  0
 21 20  1  0  0  0  0
 22 23  1  0  0  0  0
 22 21  2  0  0  0  0
 23 18  2  0  0  0  0
 26 22  1  0  0  0  0
 27 28  1  0  0  0  0
 27  1  1  0  0  0  0
 29 30  1  0  0  0  0
 29  5  1  0  0  0  0
 30 37  1  0  0  0  0
 31 33  1  0  0  0  0
 31 30  2  0  0  0  0
 32 31  1  0  0  0  0
 33 35  1  0  0  0  0
 34 33  1  0  0  0  0
 35 37  2  0  0  0  0
 35 36  1  0  0  0  0
M  END
>  <minimizedAffinity>
-5.19260931

>  <minimizedRMSD>
1.27360475

$$$$
