
 OpenBabel03272508083D

 23 24  0  0  0  0  0  0  0  0999 V2000
   39.0470   32.8100   48.1270 O   0  0  0  0  0  0  0  0  0  0  0  0
   38.6680   31.7900   47.1090 P   0  0  2  0  0  0  0  0  0  0  0  0
   37.6610   32.4790   45.9300 O   0  0  0  0  0  0  0  0  0  0  0  0
   37.8230   32.0650   45.0540 H   0  0  0  0  0  0  0  0  0  0  0  0
   37.9950   30.3850   47.7300 O   0  0  0  0  0  0  0  0  0  0  0  0
   37.3290   30.1930   51.3730 C   0  0  0  0  0  0  0  0  0  0  0  0
   38.0380   30.5520   50.2060 C   0  0  0  0  0  0  0  0  0  0  0  0
   37.5050   30.1610   48.9770 C   0  0  0  0  0  0  0  0  0  0  0  0
   36.3360   29.4610   48.9750 N   0  0  0  0  0  0  0  0  0  0  0  0
   35.6970   29.1410   50.1050 C   0  0  0  0  0  0  0  0  0  0  0  0
   36.1890   29.5040   51.3000 N   0  0  0  0  0  0  0  0  0  0  0  0
   37.8040   30.5300   52.2970 H   0  0  0  0  0  0  0  0  0  0  0  0
   38.9450   31.0920   50.1310 H   0  0  0  0  0  0  0  0  0  0  0  0
   34.7690   28.5840   50.1100 H   0  0  0  0  0  0  0  0  0  0  0  0
   40.1310   31.3850   46.3040 O   0  0  0  0  0  0  0  0  0  0  0  0
   39.9550   30.9120   44.9890 C   0  0  0  0  0  0  0  0  0  0  0  0
   39.2400   29.8350   44.4870 C   0  0  0  0  0  0  0  0  0  0  0  0
   38.6800   29.1740   45.1180 H   0  0  0  0  0  0  0  0  0  0  0  0
   39.3890   29.8060   43.1490 N   0  0  0  0  0  0  0  0  0  0  0  0
   38.9490   29.0890   42.5330 H   0  0  0  0  0  0  0  0  0  0  0  0
   40.1890   30.8550   42.8420 C   0  0  0  0  0  0  0  0  0  0  0  0
   40.4310   31.0030   41.7860 H   0  0  0  0  0  0  0  0  0  0  0  0
   40.5400   31.5350   43.9500 N   0  0  0  0  0  0  0  0  0  0  0  0
  2  5  1  0  0  0  0
  2  1  2  1  0  0  0
  3  2  1  0  0  0  0
  4  3  1  0  0  0  0
  5  8  1  0  0  0  0
  6 12  1  0  0  0  0
  7  6  2  0  0  0  0
  8  7  1  0  0  0  0
  9  8  2  0  0  0  0
  9 10  1  0  0  0  0
 10 14  1  0  0  0  0
 10 11  2  0  0  0  0
 11  6  1  0  0  0  0
 13  7  1  0  0  0  0
 15  2  1  0  0  0  0
 16 15  1  0  0  0  0
 17 16  2  0  0  0  0
 17 18  1  0  0  0  0
 19 17  1  0  0  0  0
 20 19  1  0  0  0  0
 21 19  1  0  0  0  0
 21 23  2  0  0  0  0
 22 21  1  0  0  0  0
 23 16  1  0  0  0  0
M  END
>  <minimizedAffinity>
-5.11079693

>  <minimizedRMSD>
1.93445075

$$$$
