
 OpenBabel03272500233D

 30 32  0  0  0  0  0  0  0  0999 V2000
   36.8110   31.3900   50.0840 C   0  0  0  0  0  0  0  0  0  0  0  0
   37.1880   31.6950   51.1170 H   0  0  0  0  0  0  0  0  0  0  0  0
   35.9900   32.1190   49.9250 H   0  0  0  0  0  0  0  0  0  0  0  0
   37.7810   31.7850   49.0410 C   0  0  0  0  0  0  0  0  0  0  0  0
   38.3810   33.0450   49.1000 C   0  0  0  0  0  0  0  0  0  0  0  0
   39.2160   33.1650   48.0230 C   0  0  0  0  0  0  0  0  0  0  0  0
   39.1210   32.0100   47.3350 N   0  0  0  0  0  0  0  0  0  0  0  0
   38.2740   31.2150   47.9520 N   0  0  0  0  0  0  0  0  0  0  0  0
   38.3150   33.8950   49.7960 H   0  0  0  0  0  0  0  0  0  0  0  0
   39.8930   33.8840   47.5910 H   0  0  0  0  0  0  0  0  0  0  0  0
   39.6760   31.4200   46.1430 C   0  0  0  0  0  0  0  0  0  0  0  0
   40.8750   31.4670   45.4740 C   0  0  0  0  0  0  0  0  0  0  0  0
   41.6530   32.0840   45.8840 H   0  0  0  0  0  0  0  0  0  0  0  0
   40.7220   30.6620   44.4090 N   0  0  0  0  0  0  0  0  0  0  0  0
   41.5230   30.5370   43.7370 H   0  0  0  0  0  0  0  0  0  0  0  0
   39.4800   30.1230   44.3980 C   0  0  0  0  0  0  0  0  0  0  0  0
   39.1160   29.4330   43.6280 H   0  0  0  0  0  0  0  0  0  0  0  0
   38.8200   30.5990   45.4890 N   0  0  0  0  0  0  0  0  0  0  0  0
   36.4610   29.9580   50.0860 C   0  0  0  0  0  0  0  0  0  0  0  0
   36.1980   29.6340   51.1400 H   0  0  0  0  0  0  0  0  0  0  0  0
   37.3930   29.3380   49.8920 H   0  0  0  0  0  0  0  0  0  0  0  0
   35.3910   29.4870   49.2450 C   0  0  0  0  0  0  0  0  0  0  0  0
   34.8760   30.2870   48.2620 C   0  0  0  0  0  0  0  0  0  0  0  0
   33.8350   29.8320   47.4320 C   0  0  0  0  0  0  0  0  0  0  0  0
   33.3940   28.5520   47.6890 N   0  0  0  0  0  0  0  0  0  0  0  0
   33.9200   27.7810   48.6660 C   0  0  0  0  0  0  0  0  0  0  0  0
   34.9240   28.2660   49.4400 N   0  0  0  0  0  0  0  0  0  0  0  0
   35.1190   31.2910   47.9550 H   0  0  0  0  0  0  0  0  0  0  0  0
   33.3480   30.3660   46.6280 H   0  0  0  0  0  0  0  0  0  0  0  0
   33.5310   26.7820   48.8190 H   0  0  0  0  0  0  0  0  0  0  0  0
  1 19  1  0  0  0  0
  1  2  1  0  0  0  0
  3  1  1  0  0  0  0
  4  5  1  0  0  0  0
  4  1  1  0  0  0  0
  5  9  1  0  0  0  0
  6  5  2  0  0  0  0
  7  8  1  0  0  0  0
  7  6  1  0  0  0  0
  8  4  2  0  0  0  0
 10  6  1  0  0  0  0
 11  7  1  0  0  0  0
 12 13  1  0  0  0  0
 12 11  2  0  0  0  0
 14 12  1  0  0  0  0
 15 14  1  0  0  0  0
 16 14  1  0  0  0  0
 16 18  2  0  0  0  0
 17 16  1  0  0  0  0
 18 11  1  0  0  0  0
 19 20  1  0  0  0  0
 21 19  1  0  0  0  0
 22 27  1  0  0  0  0
 22 19  1  0  0  0  0
 23 22  2  0  0  0  0
 24 25  2  0  0  0  0
 24 23  1  0  0  0  0
 25 26  1  0  0  0  0
 26 30  1  0  0  0  0
 26 27  2  0  0  0  0
 28 23  1  0  0  0  0
 29 24  1  0  0  0  0
M  END
>  <minimizedAffinity>
-5.60062981

>  <minimizedRMSD>
6.42386246

$$$$
