
 OpenBabel03262522563D

 32 34  0  0  0  0  0  0  0  0999 V2000
   36.8420   29.8860   48.7550 Cl  0  0  0  0  0  0  0  0  0  0  0  0
   36.6910   30.2710   47.0690 C   0  0  0  0  0  0  0  0  0  0  0  0
   35.5310   29.9620   46.3860 C   0  0  0  0  0  0  0  0  0  0  0  0
   35.4680   30.2940   45.0370 C   0  0  0  0  0  0  0  0  0  0  0  0
   36.5250   30.9090   44.4040 C   0  0  0  0  0  0  0  0  0  0  0  0
   37.6690   31.2020   45.1180 C   0  0  0  0  0  0  0  0  0  0  0  0
   38.9550   31.9780   44.2380 Cl  0  0  0  0  0  0  0  0  0  0  0  0
   37.7610   30.8840   46.4610 C   0  0  0  0  0  0  0  0  0  0  0  0
   34.5430   30.0370   44.5360 H   0  0  0  0  0  0  0  0  0  0  0  0
   36.4330   31.1470   43.3620 H   0  0  0  0  0  0  0  0  0  0  0  0
   33.6880   27.8980   48.9570 C   0  0  0  0  0  0  0  0  0  0  0  0
   34.7180   28.5200   48.2480 C   0  0  0  0  0  0  0  0  0  0  0  0
   34.4670   29.3190   47.1190 C   0  0  0  0  0  0  0  0  0  0  0  0
   33.1680   29.4150   46.8050 N   0  0  0  0  0  0  0  0  0  0  0  0
   32.1730   28.8260   47.4740 C   0  0  0  0  0  0  0  0  0  0  0  0
   32.4360   28.0740   48.5420 N   0  0  0  0  0  0  0  0  0  0  0  0
   30.5610   28.1440   45.9130 C   0  0  0  0  0  0  0  0  0  0  0  0
   31.2370   27.1220   45.5160 O   0  0  0  0  0  0  0  0  0  0  0  0
   30.9000   29.1130   46.9030 N   0  0  0  0  0  0  0  0  0  0  0  0
   33.9220   27.2900   49.8230 H   0  0  0  0  0  0  0  0  0  0  0  0
   35.7410   28.3950   48.5620 H   0  0  0  0  0  0  0  0  0  0  0  0
   29.6680   28.0720   45.2930 H   0  0  0  0  0  0  0  0  0  0  0  0
   30.1980   29.8400   47.0450 H   0  0  0  0  0  0  0  0  0  0  0  0
   38.9350   31.1970   47.1500 O   0  0  0  0  0  0  0  0  0  0  0  0
   39.2270   32.4720   47.5770 C   0  0  0  0  0  0  0  0  0  0  0  0
   38.6220   32.9120   48.7580 C   0  0  0  0  0  0  0  0  0  0  0  0
   37.9380   32.4340   49.4420 H   0  0  0  0  0  0  0  0  0  0  0  0
   39.0090   34.1540   49.0250 N   0  0  0  0  0  0  0  0  0  0  0  0
   38.8230   34.8640   49.7750 H   0  0  0  0  0  0  0  0  0  0  0  0
   39.8610   34.5400   48.0370 C   0  0  0  0  0  0  0  0  0  0  0  0
   40.4020   35.4850   47.8780 H   0  0  0  0  0  0  0  0  0  0  0  0
   39.9720   33.5240   47.1910 N   0  0  0  0  0  0  0  0  0  0  0  0
  2  1  1  0  0  0  0
  3  2  2  0  0  0  0
  3 13  1  0  0  0  0
  4  3  1  0  0  0  0
  5  4  2  0  0  0  0
  5  6  1  0  0  0  0
  6  8  2  0  0  0  0
  7  6  1  0  0  0  0
  8  2  1  0  0  0  0
  8 24  1  0  0  0  0
  9  4  1  0  0  0  0
 10  5  1  0  0  0  0
 11 20  1  0  0  0  0
 12 21  1  0  0  0  0
 12 11  2  0  0  0  0
 13 12  1  0  0  0  0
 14 13  2  0  0  0  0
 14 15  1  0  0  0  0
 15 16  2  0  0  0  0
 16 11  1  0  0  0  0
 17 19  1  0  0  0  0
 18 17  2  0  0  0  0
 19 23  1  0  0  0  0
 19 15  1  0  0  0  0
 22 17  1  0  0  0  0
 24 25  1  0  0  0  0
 25 26  2  0  0  0  0
 26 28  1  0  0  0  0
 26 27  1  0  0  0  0
 28 29  1  0  0  0  0
 30 28  1  0  0  0  0
 31 30  1  0  0  0  0
 32 25  1  0  0  0  0
 32 30  2  0  0  0  0
M  END
>  <minimizedAffinity>
-4.90000534

>  <minimizedRMSD>
3.67493272

$$$$
