
 OpenBabel03272505433D

 23 24  0  0  0  0  0  0  0  0999 V2000
   32.4630   28.0170   49.0450 O   0  0  0  0  0  0  0  0  0  0  0  0
   33.8390   28.3440   48.4830 P   0  0  2  0  0  0  0  0  0  0  0  0
   34.0710   27.2700   47.2010 O   0  0  0  0  0  0  0  0  0  0  0  0
   33.6820   26.3810   47.4390 H   0  0  0  0  0  0  0  0  0  0  0  0
   34.9780   28.1200   49.7250 O   0  0  0  0  0  0  0  0  0  0  0  0
   37.3310   30.3430   51.3920 C   0  0  0  0  0  0  0  0  0  0  0  0
   38.0580   30.8290   50.2720 C   0  0  0  0  0  0  0  0  0  0  0  0
   37.6810   30.3480   48.9970 C   0  0  0  0  0  0  0  0  0  0  0  0
   36.6550   29.4600   48.9280 N   0  0  0  0  0  0  0  0  0  0  0  0
   35.9890   29.0230   50.0160 C   0  0  0  0  0  0  0  0  0  0  0  0
   36.3220   29.4610   51.2520 N   0  0  0  0  0  0  0  0  0  0  0  0
   37.5810   30.6810   52.3950 H   0  0  0  0  0  0  0  0  0  0  0  0
   38.8670   31.5390   50.4060 H   0  0  0  0  0  0  0  0  0  0  0  0
   38.2130   30.6970   48.1220 H   0  0  0  0  0  0  0  0  0  0  0  0
   33.7730   29.9000   47.8860 O   0  0  0  0  0  0  0  0  0  0  0  0
   33.5760   30.1710   46.5380 C   0  0  0  0  0  0  0  0  0  0  0  0
   32.4830   30.7170   45.9010 C   0  0  0  0  0  0  0  0  0  0  0  0
   31.5700   31.0290   46.3760 H   0  0  0  0  0  0  0  0  0  0  0  0
   32.8150   30.7590   44.6130 N   0  0  0  0  0  0  0  0  0  0  0  0
   32.2340   31.1140   43.8120 H   0  0  0  0  0  0  0  0  0  0  0  0
   34.0650   30.2710   44.3860 C   0  0  0  0  0  0  0  0  0  0  0  0
   34.6000   30.1800   43.4510 H   0  0  0  0  0  0  0  0  0  0  0  0
   34.5330   29.9040   45.6090 N   0  0  0  0  0  0  0  0  0  0  0  0
  2  1  2  1  0  0  0
  2  5  1  0  0  0  0
  3  4  1  0  0  0  0
  3  2  1  0  0  0  0
  5 10  1  0  0  0  0
  6 12  1  0  0  0  0
  7 13  1  0  0  0  0
  7  6  2  0  0  0  0
  8  7  1  0  0  0  0
  9  8  2  0  0  0  0
  9 10  1  0  0  0  0
 10 11  2  0  0  0  0
 11  6  1  0  0  0  0
 14  8  1  0  0  0  0
 15  2  1  0  0  0  0
 16 15  1  0  0  0  0
 17 18  1  0  0  0  0
 17 16  2  0  0  0  0
 19 17  1  0  0  0  0
 20 19  1  0  0  0  0
 21 19  1  0  0  0  0
 21 23  2  0  0  0  0
 22 21  1  0  0  0  0
 23 16  1  0  0  0  0
M  END
>  <minimizedAffinity>
-4.16605997

>  <minimizedRMSD>
1.06240273

$$$$
