REMARK  Name = 
REMARK  4 active torsions:
REMARK  status: ('A' for Active; 'I' for Inactive)
REMARK    1  A    between atoms: C_3  and  C_10
REMARK    2  A    between atoms: C_8  and  C_15
REMARK    3  A    between atoms: C_15  and  O_17
REMARK    4  A    between atoms: O_17  and  C_23
REMARK                            x       y       z     vdW  Elec       q    Type
REMARK                         _______ _______ _______ _____ _____    ______ ____
ROOT
ATOM      1 CL   UNL     1      36.803  32.183  50.126  0.00  0.00    +0.000 Cl
ATOM      2  C   UNL     1      37.538  31.921  48.586  0.00  0.00    +0.000 A 
ATOM      3  C   UNL     1      36.963  30.914  47.883  0.00  0.00    +0.000 A 
ATOM      4  C   UNL     1      37.486  30.609  46.600  0.00  0.00    +0.000 A 
ATOM      5  C   UNL     1      38.540  31.309  46.082  0.00  0.00    +0.000 A 
ATOM      6  C   UNL     1      39.105  32.328  46.820  0.00  0.00    +0.000 A 
ATOM      7 CL   UNL     1      40.440  33.236  46.199  0.00  0.00    +0.000 Cl
ATOM      8  C   UNL     1      38.597  32.612  48.047  0.00  0.00    +0.000 A 
ATOM      9  H   UNL     1      37.093  29.824  45.967  0.00  0.00    +0.000 HD
ATOM     10  H   UNL     1      38.961  31.099  45.105  0.00  0.00    +0.000 HD
ENDROOT
BRANCH   3  12
ATOM     11  C   UNL     1      36.041  29.091  49.256  0.00  0.00    +0.000 A 
ATOM     12  C   UNL     1      35.831  30.032  48.234  0.00  0.00    +0.000 A 
ATOM     13  C   UNL     1      34.587  30.091  47.609  0.00  0.00    +0.000 A 
ATOM     14  N   UNL     1      33.634  29.211  48.040  0.00  0.00    +0.000 NA
ATOM     15  C   UNL     1      33.856  28.327  49.011  0.00  0.00    +0.000 A 
ATOM     16  N   UNL     1      35.078  28.256  49.638  0.00  0.00    +0.000 NA
ATOM     17  H   UNL     1      36.975  28.974  49.797  0.00  0.00    +0.000 HD
ATOM     18  H   UNL     1      34.449  30.824  46.825  0.00  0.00    +0.000 HD
ATOM     19  H   UNL     1      32.979  27.729  49.198  0.00  0.00    +0.000 HD
ENDBRANCH   3  12
BRANCH   8  20
ATOM     20  C   UNL     1      39.140  33.685  48.900  0.00  0.00    +0.000 C 
ATOM     21  O   UNL     1      39.273  34.890  48.654  0.00  0.00    +0.000 OA
BRANCH  20  22
ATOM     22  O   UNL     1      39.633  33.539  50.218  0.00  0.00    +0.000 OA
BRANCH  22  23
ATOM     23  C   UNL     1      40.123  34.594  50.945  0.00  0.00    +0.000 A 
ATOM     24  C   UNL     1      39.554  35.768  51.363  0.00  0.00    +0.000 A 
ATOM     25  H   UNL     1      38.507  35.991  51.112  0.00  0.00    +0.000 HD
ATOM     26  N   UNL     1      40.420  36.532  52.069  0.00  0.00    +0.000 N 
ATOM     27  H   UNL     1      40.162  37.463  52.468  0.00  0.00    +0.000 HD
ATOM     28  C   UNL     1      41.558  35.799  52.084  0.00  0.00    +0.000 A 
ATOM     29  H   UNL     1      42.463  36.159  52.591  0.00  0.00    +0.000 HD
ATOM     30  N   UNL     1      41.392  34.650  51.421  0.00  0.00    +0.000 NA
ENDBRANCH  22  23
ENDBRANCH  20  22
ENDBRANCH   8  20
TORSDOF 4
