
 OpenBabel03272503463D

 23 24  0  0  0  0  0  0  0  0999 V2000
   35.4800   30.1400   46.6170 O   0  0  0  0  0  0  0  0  0  0  0  0
   34.2100   29.9910   47.4140 P   0  0  2  0  0  0  0  0  0  0  0  0
   33.0720   31.0170   46.6810 O   0  0  0  0  0  0  0  0  0  0  0  0
   32.1700   30.7330   46.8950 H   0  0  0  0  0  0  0  0  0  0  0  0
   34.4140   30.4650   49.0530 O   0  0  0  0  0  0  0  0  0  0  0  0
   35.6390   30.4060   49.6830 C   0  0  0  0  0  0  0  0  0  0  0  0
   36.0720   29.3780   50.5460 C   0  0  0  0  0  0  0  0  0  0  0  0
   37.3370   29.4710   51.0980 C   0  0  0  0  0  0  0  0  0  0  0  0
   38.1110   30.5430   50.7920 N   0  0  0  0  0  0  0  0  0  0  0  0
   37.6760   31.5260   49.9560 C   0  0  0  0  0  0  0  0  0  0  0  0
   36.4340   31.4460   49.4060 N   0  0  0  0  0  0  0  0  0  0  0  0
   35.3730   28.5880   50.7100 H   0  0  0  0  0  0  0  0  0  0  0  0
   37.6620   28.6800   51.7590 H   0  0  0  0  0  0  0  0  0  0  0  0
   38.3260   32.3810   49.7270 H   0  0  0  0  0  0  0  0  0  0  0  0
   33.6450   28.3990   47.4500 O   0  0  0  0  0  0  0  0  0  0  0  0
   32.2970   28.1390   47.6610 C   0  0  0  0  0  0  0  0  0  0  0  0
   31.0990   28.1060   46.9760 C   0  0  0  0  0  0  0  0  0  0  0  0
   31.1690   28.3550   45.9370 H   0  0  0  0  0  0  0  0  0  0  0  0
   30.1290   27.7560   47.8390 N   0  0  0  0  0  0  0  0  0  0  0  0
   29.1390   27.6770   47.5070 H   0  0  0  0  0  0  0  0  0  0  0  0
   30.6890   27.5650   49.0600 C   0  0  0  0  0  0  0  0  0  0  0  0
   30.0910   27.2730   49.9280 H   0  0  0  0  0  0  0  0  0  0  0  0
   32.0290   27.8010   48.9570 N   0  0  0  0  0  0  0  0  0  0  0  0
  2  1  2  6  0  0  0
  2 15  1  0  0  0  0
  2  5  1  0  0  0  0
  3  4  1  0  0  0  0
  3  2  1  0  0  0  0
  5  6  1  0  0  0  0
  6  7  1  0  0  0  0
  7 12  1  0  0  0  0
  7  8  2  0  0  0  0
  8 13  1  0  0  0  0
  9  8  1  0  0  0  0
 10  9  2  0  0  0  0
 11  6  2  0  0  0  0
 11 10  1  0  0  0  0
 14 10  1  0  0  0  0
 15 16  1  0  0  0  0
 16 23  1  0  0  0  0
 17 16  2  0  0  0  0
 17 19  1  0  0  0  0
 18 17  1  0  0  0  0
 19 21  1  0  0  0  0
 20 19  1  0  0  0  0
 21 22  1  0  0  0  0
 23 21  2  0  0  0  0
M  END
>  <minimizedAffinity>
-4.43148708

>  <minimizedRMSD>
2.62921286

$$$$
