
 OpenBabel03272508273D

 37 40  0  0  1  0  0  0  0  0999 V2000
   33.8810   28.9470   47.2620 C   0  0  2  0  0  0  0  0  0  0  0  0
   34.5970   28.1730   48.3560 C   0  0  2  0  0  0  0  0  0  0  0  0
   33.6880   28.0140   49.3540 O   0  0  0  0  0  0  0  0  0  0  0  0
   32.4170   28.1040   48.8700 C   0  0  0  0  0  0  0  0  0  0  0  0
   32.4940   28.3040   47.3740 C   0  0  1  0  0  0  0  0  0  0  0  0
   33.8060   30.0210   47.4760 H   0  0  0  0  0  0  0  0  0  0  0  0
   34.8730   27.1920   47.9470 H   0  0  0  0  0  0  0  0  0  0  0  0
   31.9360   29.0180   49.3070 H   0  0  0  0  0  0  0  0  0  0  0  0
   31.7620   27.2530   49.1490 H   0  0  0  0  0  0  0  0  0  0  0  0
   32.4920   27.3000   46.9060 H   0  0  0  0  0  0  0  0  0  0  0  0
   35.6870   30.4120   49.0530 C   0  0  1  0  0  0  0  0  0  0  0  0
   35.7680   28.9950   48.7880 C   0  0  1  0  0  0  0  0  0  0  0  0
   35.9430   29.4300   50.2060 C   0  0  0  0  0  0  0  0  0  0  0  0
   34.7850   31.0110   49.2710 H   0  0  0  0  0  0  0  0  0  0  0  0
   36.7250   28.6480   48.2990 H   0  0  0  0  0  0  0  0  0  0  0  0
   35.1460   29.2380   50.9350 H   0  0  0  0  0  0  0  0  0  0  0  0
   36.9640   29.4120   50.6640 H   0  0  0  0  0  0  0  0  0  0  0  0
   36.8800   31.3270   48.8180 C   0  0  0  0  0  0  0  0  0  0  0  0
   37.0800   32.3740   49.7180 C   0  0  0  0  0  0  0  0  0  0  0  0
   38.1640   33.1860   49.4460 C   0  0  0  0  0  0  0  0  0  0  0  0
   38.9670   32.9580   48.3660 N   0  0  0  0  0  0  0  0  0  0  0  0
   38.7380   31.9240   47.5100 C   0  0  0  0  0  0  0  0  0  0  0  0
   37.6820   31.1040   47.7450 N   0  0  0  0  0  0  0  0  0  0  0  0
   36.4240   32.5180   50.5540 H   0  0  0  0  0  0  0  0  0  0  0  0
   38.3900   34.0290   50.1040 H   0  0  0  0  0  0  0  0  0  0  0  0
   39.3980   31.7790   46.6670 H   0  0  0  0  0  0  0  0  0  0  0  0
   34.4220   28.7720   46.0030 O   0  0  0  0  0  0  0  0  0  0  0  0
   35.4050   28.7180   46.1300 H   0  0  0  0  0  0  0  0  0  0  0  0
   31.5130   29.0970   46.8510 O   0  0  0  0  0  0  0  0  0  0  0  0
   30.5680   28.6210   45.9530 C   0  0  0  0  0  0  0  0  0  0  0  0
   30.6590   27.3500   45.4280 C   0  0  0  0  0  0  0  0  0  0  0  0
   31.3830   26.5450   45.5760 H   0  0  0  0  0  0  0  0  0  0  0  0
   29.6330   27.1040   44.5790 N   0  0  0  0  0  0  0  0  0  0  0  0
   29.3530   26.2910   44.0010 H   0  0  0  0  0  0  0  0  0  0  0  0
   28.8860   28.2450   44.5710 C   0  0  0  0  0  0  0  0  0  0  0  0
   27.9830   28.4500   44.0170 H   0  0  0  0  0  0  0  0  0  0  0  0
   29.4430   29.1380   45.3850 N   0  0  0  0  0  0  0  0  0  0  0  0
  1  5  1  0  0  0  0
  1  6  1  1  0  0  0
  1  2  1  0  0  0  0
  2  7  1  6  0  0  0
  2 12  1  0  0  0  0
  2  3  1  0  0  0  0
  4  9  1  0  0  0  0
  4  8  1  0  0  0  0
  4  3  1  0  0  0  0
  5 10  1  6  0  0  0
  5  4  1  0  0  0  0
 11 14  1  6  0  0  0
 11 13  1  0  0  0  0
 12 15  1  6  0  0  0
 12 11  1  0  0  0  0
 12 13  1  0  0  0  0
 13 17  1  0  0  0  0
 13 16  1  0  0  0  0
 18 11  1  0  0  0  0
 18 19  1  0  0  0  0
 19 24  1  0  0  0  0
 20 19  2  0  0  0  0
 20 25  1  0  0  0  0
 21 20  1  0  0  0  0
 22 23  1  0  0  0  0
 22 21  2  0  0  0  0
 23 18  2  0  0  0  0
 26 22  1  0  0  0  0
 27 28  1  0  0  0  0
 27  1  1  0  0  0  0
 29  5  1  0  0  0  0
 30 29  1  0  0  0  0
 31 32  1  0  0  0  0
 31 30  2  0  0  0  0
 33 31  1  0  0  0  0
 34 33  1  0  0  0  0
 35 33  1  0  0  0  0
 35 37  2  0  0  0  0
 36 35  1  0  0  0  0
 37 30  1  0  0  0  0
M  END
>  <minimizedAffinity>
-4.72705841

>  <minimizedRMSD>
0.231787458

$$$$
