
 OpenBabel03262521053D

 35 37  0  0  0  0  0  0  0  0999 V2000
   38.5010   31.7250   48.0820 Br  0  0  0  0  0  0  0  0  0  0  0  0
   37.3390   31.1060   46.7400 C   0  0  0  0  0  0  0  0  0  0  0  0
   36.2790   30.3710   47.1730 C   0  0  0  0  0  0  0  0  0  0  0  0
   35.3560   29.8660   46.2410 C   0  0  0  0  0  0  0  0  0  0  0  0
   35.5460   30.1280   44.8920 C   0  0  0  0  0  0  0  0  0  0  0  0
   36.6270   30.8680   44.5350 C   0  0  0  0  0  0  0  0  0  0  0  0
   37.5390   31.3700   45.4300 C   0  0  0  0  0  0  0  0  0  0  0  0
   34.4910   29.2770   46.5130 H   0  0  0  0  0  0  0  0  0  0  0  0
   34.8400   29.7440   44.1520 H   0  0  0  0  0  0  0  0  0  0  0  0
   36.7670   31.0670   43.4790 H   0  0  0  0  0  0  0  0  0  0  0  0
   36.8300   29.4440   49.4740 C   0  0  0  0  0  0  0  0  0  0  0  0
   35.9320   30.0050   48.5610 C   0  0  0  0  0  0  0  0  0  0  0  0
   34.6030   30.2370   49.0000 C   0  0  0  0  0  0  0  0  0  0  0  0
   34.3010   29.8890   50.2910 N   0  0  0  0  0  0  0  0  0  0  0  0
   35.2040   29.3560   51.1150 C   0  0  0  0  0  0  0  0  0  0  0  0
   36.4600   29.1310   50.7220 N   0  0  0  0  0  0  0  0  0  0  0  0
   37.8440   29.2760   49.1130 H   0  0  0  0  0  0  0  0  0  0  0  0
   33.9180   30.6680   48.2950 H   0  0  0  0  0  0  0  0  0  0  0  0
   34.7640   29.1560   52.0860 H   0  0  0  0  0  0  0  0  0  0  0  0
   38.6700   32.1420   45.0650 N   0  0  0  0  0  0  0  0  0  0  0  0
   38.3890   33.1600   45.0210 H   0  0  0  0  0  0  0  0  0  0  0  0
   40.2830   31.7430   44.7090 S   0  0  0  0  0  0  0  0  0  0  0  0
   40.7220   30.5210   45.4420 O   0  0  0  0  0  0  0  0  0  0  0  0
   40.1480   29.8410   45.8710 H   0  0  0  0  0  0  0  0  0  0  0  0
   41.1900   32.8840   45.1240 O   0  0  0  0  0  0  0  0  0  0  0  0
   42.0530   32.7950   45.5980 H   0  0  0  0  0  0  0  0  0  0  0  0
   40.4160   31.4810   43.0330 O   0  0  0  0  0  0  0  0  0  0  0  0
   39.4280   32.0620   42.2470 C   0  0  0  0  0  0  0  0  0  0  0  0
   38.6070   31.3620   41.3550 C   0  0  0  0  0  0  0  0  0  0  0  0
   38.5810   30.3080   41.1160 H   0  0  0  0  0  0  0  0  0  0  0  0
   37.8060   32.3270   40.8190 N   0  0  0  0  0  0  0  0  0  0  0  0
   37.0680   32.0850   40.0940 H   0  0  0  0  0  0  0  0  0  0  0  0
   38.0820   33.5450   41.3180 C   0  0  0  0  0  0  0  0  0  0  0  0
   37.5600   34.4470   41.0240 H   0  0  0  0  0  0  0  0  0  0  0  0
   39.0910   33.3630   42.2030 N   0  0  0  0  0  0  0  0  0  0  0  0
  2  3  1  0  0  0  0
  2  1  1  0  0  0  0
  3 12  1  0  0  0  0
  4  8  1  0  0  0  0
  4  3  2  0  0  0  0
  5  4  1  0  0  0  0
  6  5  2  0  0  0  0
  6  7  1  0  0  0  0
  7  2  2  0  0  0  0
  9  5  1  0  0  0  0
 10  6  1  0  0  0  0
 11 16  1  0  0  0  0
 12 13  1  0  0  0  0
 12 11  2  0  0  0  0
 13 14  2  0  0  0  0
 14 15  1  0  0  0  0
 15 19  1  0  0  0  0
 16 15  2  0  0  0  0
 17 11  1  0  0  0  0
 18 13  1  0  0  0  0
 20  7  1  0  0  0  0
 21 20  1  0  0  0  0
 22 20  1  0  0  0  0
 22 25  1  0  0  0  0
 22 23  1  0  0  0  0
 23 24  1  0  0  0  0
 25 26  1  0  0  0  0
 27 22  1  0  0  0  0
 28 27  1  0  0  0  0
 29 28  2  0  0  0  0
 30 29  1  0  0  0  0
 31 33  1  0  0  0  0
 31 29  1  0  0  0  0
 32 31  1  0  0  0  0
 33 35  2  0  0  0  0
 34 33  1  0  0  0  0
 35 28  1  0  0  0  0
M  END
>  <minimizedAffinity>
-5.44785929

>  <minimizedRMSD>
1.77037418

$$$$
