
 OpenBabel03272510293D

 27 29  0  0  0  0  0  0  0  0999 V2000
   37.3150   31.3680   49.2260 C   0  0  0  0  0  0  0  0  0  0  0  0
   37.6090   32.6600   49.6580 C   0  0  0  0  0  0  0  0  0  0  0  0
   38.5090   33.3640   48.8740 C   0  0  0  0  0  0  0  0  0  0  0  0
   39.0450   32.7840   47.7590 N   0  0  0  0  0  0  0  0  0  0  0  0
   38.7320   31.5150   47.3680 C   0  0  0  0  0  0  0  0  0  0  0  0
   37.8440   30.7960   48.1270 N   0  0  0  0  0  0  0  0  0  0  0  0
   37.1770   33.0950   50.5360 H   0  0  0  0  0  0  0  0  0  0  0  0
   38.8160   34.3570   49.0970 H   0  0  0  0  0  0  0  0  0  0  0  0
   36.3150   30.5790   50.0290 C   0  0  0  0  0  0  0  0  0  0  0  0
   36.2340   29.1400   49.9690 C   0  0  0  0  0  0  0  0  0  0  0  0
   36.9620   29.7510   51.1440 C   0  0  0  0  0  0  0  0  0  0  0  0
   35.4000   31.1510   50.3650 H   0  0  0  0  0  0  0  0  0  0  0  0
   35.2990   28.6010   50.1160 H   0  0  0  0  0  0  0  0  0  0  0  0
   36.8960   28.6320   49.2190 H   0  0  0  0  0  0  0  0  0  0  0  0
   38.0500   29.7330   51.2100 H   0  0  0  0  0  0  0  0  0  0  0  0
   36.3780   29.6760   52.0820 H   0  0  0  0  0  0  0  0  0  0  0  0
   39.2720   30.8550   46.1850 C   0  0  0  0  0  0  0  0  0  0  0  0
   40.3490   30.6140   46.4130 H   0  0  0  0  0  0  0  0  0  0  0  0
   38.7630   29.8990   46.0470 H   0  0  0  0  0  0  0  0  0  0  0  0
   39.1810   31.7090   44.9590 C   0  0  0  0  0  0  0  0  0  0  0  0
   40.1430   32.3630   44.2190 C   0  0  0  0  0  0  0  0  0  0  0  0
   41.1940   32.3270   44.4700 H   0  0  0  0  0  0  0  0  0  0  0  0
   39.4740   32.9800   43.2170 N   0  0  0  0  0  0  0  0  0  0  0  0
   39.9550   33.5610   42.4860 H   0  0  0  0  0  0  0  0  0  0  0  0
   38.1590   32.7450   43.2990 C   0  0  0  0  0  0  0  0  0  0  0  0
   37.3860   33.1000   42.6470 H   0  0  0  0  0  0  0  0  0  0  0  0
   37.9820   31.9520   44.3860 N   0  0  0  0  0  0  0  0  0  0  0  0
  1  2  1  0  0  0  0
  1  9  1  0  0  0  0
  2  7  1  0  0  0  0
  3  8  1  0  0  0  0
  3  2  2  0  0  0  0
  4  3  1  0  0  0  0
  5  4  2  0  0  0  0
  5  6  1  0  0  0  0
  6  1  2  0  0  0  0
  9 12  1  0  0  0  0
  9 11  1  0  0  0  0
 10  9  1  0  0  0  0
 10 13  1  0  0  0  0
 10 11  1  0  0  0  0
 11 15  1  0  0  0  0
 11 16  1  0  0  0  0
 14 10  1  0  0  0  0
 17 18  1  0  0  0  0
 17  5  1  0  0  0  0
 19 17  1  0  0  0  0
 20 17  1  0  0  0  0
 21 22  1  0  0  0  0
 21 20  2  0  0  0  0
 23 25  1  0  0  0  0
 23 21  1  0  0  0  0
 24 23  1  0  0  0  0
 25 27  2  0  0  0  0
 26 25  1  0  0  0  0
 27 20  1  0  0  0  0
M  END
>  <minimizedAffinity>
-5.18151331

>  <minimizedRMSD>
1.17401147

$$$$
