REMARK  Name = 
REMARK  5 active torsions:
REMARK  status: ('A' for Active; 'I' for Inactive)
REMARK    1  A    between atoms: C_2  and  O_7
REMARK    2  A    between atoms: O_7  and  P_9
REMARK    3  A    between atoms: P_9  and  O_10
REMARK    4  A    between atoms: P_9  and  O_11
REMARK    5  A    between atoms: O_11  and  C_16
REMARK                            x       y       z     vdW  Elec       q    Type
REMARK                         _______ _______ _______ _____ _____    ______ ____
ROOT
ATOM      1  O   UNL     1      37.293  33.711  49.519  0.00  0.00    +0.000 OA
ATOM      2  P   UNL     1      38.678  33.140  49.228  0.00  0.00    +0.000 P 
ENDROOT
BRANCH   2   3
ATOM      3  O   UNL     1      39.811  34.056  50.114  0.00  0.00    +0.000 OA
ATOM      4  H   UNL     1      39.357  34.682  50.719  0.00  0.00    +0.000 HD
ENDBRANCH   2   3
BRANCH   2   5
ATOM      5  O   UNL     1      38.729  31.570  49.877  0.00  0.00    +0.000 OA
BRANCH   5   7
ATOM      6  C   UNL     1      37.206  30.303  51.198  0.00  0.00    +0.000 A 
ATOM      7  C   UNL     1      37.714  30.671  49.942  0.00  0.00    +0.000 A 
ATOM      8  C   UNL     1      37.117  30.066  48.824  0.00  0.00    +0.000 A 
ATOM      9  N   UNL     1      36.102  29.173  48.997  0.00  0.00    +0.000 NA
ATOM     10  C   UNL     1      35.657  28.860  50.242  0.00  0.00    +0.000 A 
ATOM     11  N   UNL     1      36.203  29.419  51.340  0.00  0.00    +0.000 NA
ATOM     12  H   UNL     1      37.633  30.742  52.089  0.00  0.00    +0.000 HD
ATOM     13  H   UNL     1      37.493  30.334  47.839  0.00  0.00    +0.000 HD
ATOM     14  H   UNL     1      34.851  28.137  50.161  0.00  0.00    +0.000 HD
ENDBRANCH   5   7
ENDBRANCH   2   5
BRANCH   2  15
ATOM     15  O   UNL     1      38.956  33.223  47.597  0.00  0.00    +0.000 OA
BRANCH  15  16
ATOM     16  C   UNL     1      40.193  33.340  46.978  0.00  0.00    +0.000 A 
ATOM     17  C   UNL     1      41.107  32.321  47.213  0.00  0.00    +0.000 A 
ATOM     18  H   UNL     1      41.098  31.401  47.794  0.00  0.00    +0.000 HD
ATOM     19  N   UNL     1      42.230  32.645  46.514  0.00  0.00    +0.000 N 
ATOM     20  H   UNL     1      43.131  32.128  46.441  0.00  0.00    +0.000 HD
ATOM     21  C   UNL     1      42.031  33.826  45.861  0.00  0.00    +0.000 A 
ATOM     22  H   UNL     1      42.742  34.338  45.226  0.00  0.00    +0.000 HD
ATOM     23  N   UNL     1      40.781  34.232  46.158  0.00  0.00    +0.000 NA
ENDBRANCH  15  16
ENDBRANCH   2  15
TORSDOF 5
