
 OpenBabel03272510293D

 27 29  0  0  0  0  0  0  0  0999 V2000
   37.2870   31.3710   49.1860 C   0  0  0  0  0  0  0  0  0  0  0  0
   37.5350   32.6500   49.6840 C   0  0  0  0  0  0  0  0  0  0  0  0
   38.4730   33.3930   48.9870 C   0  0  0  0  0  0  0  0  0  0  0  0
   39.0880   32.8630   47.8880 N   0  0  0  0  0  0  0  0  0  0  0  0
   38.8180   31.6060   47.4300 C   0  0  0  0  0  0  0  0  0  0  0  0
   37.8940   30.8480   48.1030 N   0  0  0  0  0  0  0  0  0  0  0  0
   37.0410   33.0460   50.5480 H   0  0  0  0  0  0  0  0  0  0  0  0
   38.7510   34.3810   49.2660 H   0  0  0  0  0  0  0  0  0  0  0  0
   36.2500   30.5400   49.8940 C   0  0  0  0  0  0  0  0  0  0  0  0
   36.2250   29.1000   49.8180 C   0  0  0  0  0  0  0  0  0  0  0  0
   36.8250   29.7260   51.0560 C   0  0  0  0  0  0  0  0  0  0  0  0
   35.2890   31.0770   50.1500 H   0  0  0  0  0  0  0  0  0  0  0  0
   35.3020   28.5280   49.8780 H   0  0  0  0  0  0  0  0  0  0  0  0
   36.9690   28.6230   49.1270 H   0  0  0  0  0  0  0  0  0  0  0  0
   37.9030   29.7450   51.2180 H   0  0  0  0  0  0  0  0  0  0  0  0
   36.1630   29.6210   51.9380 H   0  0  0  0  0  0  0  0  0  0  0  0
   39.4420   30.9980   46.2610 C   0  0  0  0  0  0  0  0  0  0  0  0
   40.5550   31.0190   46.4410 H   0  0  0  0  0  0  0  0  0  0  0  0
   39.1550   29.9460   46.2110 H   0  0  0  0  0  0  0  0  0  0  0  0
   39.1100   31.7200   44.9920 C   0  0  0  0  0  0  0  0  0  0  0  0
   37.9380   32.2780   44.5310 C   0  0  0  0  0  0  0  0  0  0  0  0
   37.0190   32.2560   45.1000 H   0  0  0  0  0  0  0  0  0  0  0  0
   38.2360   32.7960   43.3160 N   0  0  0  0  0  0  0  0  0  0  0  0
   37.5260   33.2910   42.7210 H   0  0  0  0  0  0  0  0  0  0  0  0
   39.5200   32.5900   43.0040 C   0  0  0  0  0  0  0  0  0  0  0  0
   40.0380   32.8850   42.1140 H   0  0  0  0  0  0  0  0  0  0  0  0
   40.0620   31.9180   44.0530 N   0  0  0  0  0  0  0  0  0  0  0  0
  1  2  1  0  0  0  0
  1  9  1  0  0  0  0
  2  7  1  0  0  0  0
  3  8  1  0  0  0  0
  3  2  2  0  0  0  0
  4  3  1  0  0  0  0
  5  4  2  0  0  0  0
  5  6  1  0  0  0  0
  6  1  2  0  0  0  0
  9 12  1  0  0  0  0
  9 11  1  0  0  0  0
 10 13  1  0  0  0  0
 10  9  1  0  0  0  0
 10 11  1  0  0  0  0
 11 15  1  0  0  0  0
 11 16  1  0  0  0  0
 14 10  1  0  0  0  0
 17 18  1  0  0  0  0
 17  5  1  0  0  0  0
 19 17  1  0  0  0  0
 20 17  1  0  0  0  0
 21 20  2  0  0  0  0
 21 22  1  0  0  0  0
 23 21  1  0  0  0  0
 24 23  1  0  0  0  0
 25 23  1  0  0  0  0
 25 27  2  0  0  0  0
 26 25  1  0  0  0  0
 27 20  1  0  0  0  0
M  END
>  <minimizedAffinity>
-5.25087118

>  <minimizedRMSD>
1.01870227

$$$$
