
 OpenBabel03262522193D

 23 24  0  0  0  0  0  0  0  0999 V2000
   31.5030   29.4980   45.1940 O   0  0  0  0  0  0  0  0  0  0  0  0
   32.8850   29.9780   45.6280 P   0  0  1  0  0  0  0  0  0  0  0  0
   32.6750   31.4070   46.5350 O   0  0  0  0  0  0  0  0  0  0  0  0
   31.7220   31.5770   46.7020 H   0  0  0  0  0  0  0  0  0  0  0  0
   33.5120   28.8230   46.7050 O   0  0  0  0  0  0  0  0  0  0  0  0
   33.6960   26.6030   47.5460 C   0  0  0  0  0  0  0  0  0  0  0  0
   33.7210   27.5030   46.4690 C   0  0  0  0  0  0  0  0  0  0  0  0
   33.9670   26.9530   45.2000 C   0  0  0  0  0  0  0  0  0  0  0  0
   34.1660   25.6110   45.0690 N   0  0  0  0  0  0  0  0  0  0  0  0
   34.1280   24.7940   46.1540 C   0  0  0  0  0  0  0  0  0  0  0  0
   33.8950   25.2820   47.3880 N   0  0  0  0  0  0  0  0  0  0  0  0
   33.5100   26.9780   48.5430 H   0  0  0  0  0  0  0  0  0  0  0  0
   33.9920   27.6300   44.3480 H   0  0  0  0  0  0  0  0  0  0  0  0
   34.3090   23.7720   45.8370 H   0  0  0  0  0  0  0  0  0  0  0  0
   33.8070   30.2350   44.2760 O   0  0  0  0  0  0  0  0  0  0  0  0
   35.1670   30.5150   44.2480 C   0  0  0  0  0  0  0  0  0  0  0  0
   35.6280   31.2600   43.1700 C   0  0  0  0  0  0  0  0  0  0  0  0
   35.1660   31.7050   42.2910 H   0  0  0  0  0  0  0  0  0  0  0  0
   36.9690   31.4090   43.3540 N   0  0  0  0  0  0  0  0  0  0  0  0
   37.6630   31.9060   42.7570 H   0  0  0  0  0  0  0  0  0  0  0  0
   37.3400   30.7810   44.5070 C   0  0  0  0  0  0  0  0  0  0  0  0
   38.3400   30.7260   44.9160 H   0  0  0  0  0  0  0  0  0  0  0  0
   36.2240   30.2430   45.0360 N   0  0  0  0  0  0  0  0  0  0  0  0
  2  1  2  6  0  0  0
  2  3  1  0  0  0  0
  2  5  1  0  0  0  0
  3  4  1  0  0  0  0
  6 12  1  0  0  0  0
  7  5  1  0  0  0  0
  7  6  2  0  0  0  0
  8  7  1  0  0  0  0
  9  8  2  0  0  0  0
  9 10  1  0  0  0  0
 10 11  2  0  0  0  0
 11  6  1  0  0  0  0
 13  8  1  0  0  0  0
 14 10  1  0  0  0  0
 15  2  1  0  0  0  0
 16 15  1  0  0  0  0
 16 23  1  0  0  0  0
 17 19  1  0  0  0  0
 17 16  2  0  0  0  0
 18 17  1  0  0  0  0
 19 21  1  0  0  0  0
 20 19  1  0  0  0  0
 21 22  1  0  0  0  0
 21 23  2  0  0  0  0
M  END
>  <minimizedAffinity>
-2.41525197

>  <minimizedRMSD>
6.62672853

$$$$
