
 OpenBabel03272505433D

 23 24  0  0  0  0  0  0  0  0999 V2000
   32.4620   28.0180   49.0460 O   0  0  0  0  0  0  0  0  0  0  0  0
   33.8380   28.3440   48.4840 P   0  0  2  0  0  0  0  0  0  0  0  0
   34.0690   27.2700   47.2020 O   0  0  0  0  0  0  0  0  0  0  0  0
   33.6800   26.3810   47.4400 H   0  0  0  0  0  0  0  0  0  0  0  0
   34.9780   28.1200   49.7250 O   0  0  0  0  0  0  0  0  0  0  0  0
   37.3310   30.3430   51.3910 C   0  0  0  0  0  0  0  0  0  0  0  0
   38.0580   30.8290   50.2710 C   0  0  0  0  0  0  0  0  0  0  0  0
   37.6800   30.3470   48.9960 C   0  0  0  0  0  0  0  0  0  0  0  0
   36.6540   29.4590   48.9280 N   0  0  0  0  0  0  0  0  0  0  0  0
   35.9890   29.0230   50.0160 C   0  0  0  0  0  0  0  0  0  0  0  0
   36.3220   29.4610   51.2520 N   0  0  0  0  0  0  0  0  0  0  0  0
   37.5810   30.6810   52.3940 H   0  0  0  0  0  0  0  0  0  0  0  0
   38.8670   31.5390   50.4050 H   0  0  0  0  0  0  0  0  0  0  0  0
   38.2120   30.6960   48.1220 H   0  0  0  0  0  0  0  0  0  0  0  0
   33.7720   29.9000   47.8870 O   0  0  0  0  0  0  0  0  0  0  0  0
   33.5760   30.1710   46.5390 C   0  0  0  0  0  0  0  0  0  0  0  0
   32.4830   30.7170   45.9010 C   0  0  0  0  0  0  0  0  0  0  0  0
   31.5710   31.0300   46.3760 H   0  0  0  0  0  0  0  0  0  0  0  0
   32.8160   30.7590   44.6140 N   0  0  0  0  0  0  0  0  0  0  0  0
   32.2370   31.1140   43.8120 H   0  0  0  0  0  0  0  0  0  0  0  0
   34.0660   30.2690   44.3870 C   0  0  0  0  0  0  0  0  0  0  0  0
   34.6010   30.1770   43.4520 H   0  0  0  0  0  0  0  0  0  0  0  0
   34.5330   29.9030   45.6110 N   0  0  0  0  0  0  0  0  0  0  0  0
  2  1  2  1  0  0  0
  2  5  1  0  0  0  0
  3  4  1  0  0  0  0
  3  2  1  0  0  0  0
  5 10  1  0  0  0  0
  6 12  1  0  0  0  0
  7 13  1  0  0  0  0
  7  6  2  0  0  0  0
  8  7  1  0  0  0  0
  9  8  2  0  0  0  0
  9 10  1  0  0  0  0
 10 11  2  0  0  0  0
 11  6  1  0  0  0  0
 14  8  1  0  0  0  0
 15  2  1  0  0  0  0
 16 15  1  0  0  0  0
 17 18  1  0  0  0  0
 17 16  2  0  0  0  0
 19 17  1  0  0  0  0
 20 19  1  0  0  0  0
 21 19  1  0  0  0  0
 21 23  2  0  0  0  0
 22 21  1  0  0  0  0
 23 16  1  0  0  0  0
M  END
>  <minimizedAffinity>
-4.16329288

>  <minimizedRMSD>
0.97460252

$$$$
