
     RDKit          3D

 23 24  0  0  0  0  0  0  0  0999 V2000
   37.3376   30.1497   51.3609 C   0  0  0  0  0  0  0  0  0  0  0  0
   38.0091   30.5087   50.1721 C   0  0  0  0  0  0  0  0  0  0  0  0
   37.4207   30.1465   48.9597 C   0  0  0  0  0  0  0  0  0  0  0  0
   36.2377   29.4706   48.9939 N   0  0  0  0  0  0  0  0  0  0  0  0
   35.6357   29.1506   50.1437 C   0  0  0  0  0  0  0  0  0  0  0  0
   36.1809   29.4874   51.3240 N   0  0  0  0  0  0  0  0  0  0  0  0
   37.8683   30.3754   47.6982 O   0  0  0  0  0  0  0  0  0  0  0  0
   39.0666   32.7237   48.1336 O   0  0  0  0  0  0  0  0  0  0  0  0
   38.6836   31.7150   47.1057 P   0  0  2  0  0  0  0  0  0  0  0  0
   37.8148   32.4542   45.8500 O   0  0  0  0  0  0  0  0  0  0  0  0
   40.1651   31.1901   46.4113 O   0  0  0  0  0  0  0  0  0  0  0  0
   37.8552   30.4650   52.2702 H   0  0  0  0  0  0  0  0  0  0  0  0
   38.9251   31.0305   50.0685 H   0  0  0  0  0  0  0  0  0  0  0  0
   34.6957   28.6138   50.1778 H   0  0  0  0  0  0  0  0  0  0  0  0
   38.0053   32.0133   44.9938 H   0  0  0  0  0  0  0  0  0  0  0  0
   40.8437   32.1833   45.6777 C   0  0  0  0  0  0  0  0  0  0  0  0
   40.6864   33.5601   45.6311 C   0  0  0  0  0  0  0  0  0  0  0  0
   39.9479   34.0739   46.2145 H   0  0  0  0  0  0  0  0  0  0  0  0
   41.5874   34.0657   44.7667 N   0  0  0  0  0  0  0  0  0  0  0  0
   41.6747   35.0832   44.5522 H   0  0  0  0  0  0  0  0  0  0  0  0
   42.2834   33.0048   44.2945 C   0  0  0  0  0  0  0  0  0  0  0  0
   43.0742   33.2135   43.5677 H   0  0  0  0  0  0  0  0  0  0  0  0
   41.8429   31.8554   44.8389 N   0  0  0  0  0  0  0  0  0  0  0  0
  2  1  2  0
  3  4  2  0
  3  2  1  0
  4  5  1  0
  5  6  2  0
  6  1  1  0
  7  3  1  0
  9  7  1  1
  9  8  2  0
 10  9  1  0
 11  9  1  0
  1 12  1  0
  2 13  1  0
  5 14  1  0
 10 15  1  0
 16 17  2  0
 17 18  1  0
 17 19  1  0
 19 20  1  0
 19 21  1  0
 21 22  1  0
 21 23  2  0
 23 16  1  0
 11 16  1  0
M  ISO  7  12  14  13  14  14  14  15   3  18  15  20   5  22  14
M  END
>  <DihAtoms>  (1) 
8,10,15,16

>  <DihDeg>  (1) 
0.0005603739616852327

$$$$
