
 OpenBabel03272508163D

 30 32  0  0  0  0  0  0  0  0999 V2000
   35.2310   30.5530   47.5620 Cl  0  0  0  0  0  0  0  0  0  0  0  0
   35.4310   29.8970   45.9770 C   0  0  0  0  0  0  0  0  0  0  0  0
   34.4900   28.9750   45.6570 C   0  0  0  0  0  0  0  0  0  0  0  0
   34.5560   28.3680   44.3770 C   0  0  0  0  0  0  0  0  0  0  0  0
   35.5390   28.7000   43.4860 C   0  0  0  0  0  0  0  0  0  0  0  0
   36.4830   29.6420   43.8400 C   0  0  0  0  0  0  0  0  0  0  0  0
   37.7420   30.0890   42.7410 Cl  0  0  0  0  0  0  0  0  0  0  0  0
   36.4110   30.2170   45.0680 C   0  0  0  0  0  0  0  0  0  0  0  0
   33.8500   27.6230   44.0330 H   0  0  0  0  0  0  0  0  0  0  0  0
   35.6150   28.2540   42.5010 H   0  0  0  0  0  0  0  0  0  0  0  0
   33.6050   27.4050   47.3330 C   0  0  0  0  0  0  0  0  0  0  0  0
   33.3500   28.4630   46.4450 C   0  0  0  0  0  0  0  0  0  0  0  0
   32.0570   28.9740   46.3490 C   0  0  0  0  0  0  0  0  0  0  0  0
   31.1030   28.4000   47.1420 N   0  0  0  0  0  0  0  0  0  0  0  0
   31.3680   27.3970   47.9770 C   0  0  0  0  0  0  0  0  0  0  0  0
   32.6390   26.8810   48.0830 N   0  0  0  0  0  0  0  0  0  0  0  0
   34.5790   26.9450   47.4740 H   0  0  0  0  0  0  0  0  0  0  0  0
   31.8850   29.7890   45.6590 H   0  0  0  0  0  0  0  0  0  0  0  0
   30.4810   27.0900   48.5070 H   0  0  0  0  0  0  0  0  0  0  0  0
   37.3780   31.2320   45.5250 C   0  0  0  0  0  0  0  0  0  0  0  0
   37.5830   32.3710   45.0890 O   0  0  0  0  0  0  0  0  0  0  0  0
   38.2960   31.0940   46.5930 O   0  0  0  0  0  0  0  0  0  0  0  0
   38.5370   32.0990   47.4950 C   0  0  0  0  0  0  0  0  0  0  0  0
   39.4490   33.1200   47.5150 C   0  0  0  0  0  0  0  0  0  0  0  0
   40.1660   33.2330   46.6890 H   0  0  0  0  0  0  0  0  0  0  0  0
   39.3270   33.8920   48.6210 N   0  0  0  0  0  0  0  0  0  0  0  0
   39.9380   34.7180   48.8080 H   0  0  0  0  0  0  0  0  0  0  0  0
   38.3040   33.3220   49.3000 C   0  0  0  0  0  0  0  0  0  0  0  0
   37.9600   33.7280   50.2600 H   0  0  0  0  0  0  0  0  0  0  0  0
   37.8300   32.2590   48.6420 N   0  0  0  0  0  0  0  0  0  0  0  0
  2  1  1  0  0  0  0
  3  2  1  0  0  0  0
  3 12  1  0  0  0  0
  4  3  2  0  0  0  0
  5  6  2  0  0  0  0
  5  4  1  0  0  0  0
  6  8  1  0  0  0  0
  7  6  1  0  0  0  0
  8 20  1  0  0  0  0
  8  2  2  0  0  0  0
  9  4  1  0  0  0  0
 10  5  1  0  0  0  0
 11 17  1  0  0  0  0
 11 16  1  0  0  0  0
 12 11  2  0  0  0  0
 13 12  1  0  0  0  0
 13 14  2  0  0  0  0
 14 15  1  0  0  0  0
 15 16  2  0  0  0  0
 15 19  1  0  0  0  0
 18 13  1  0  0  0  0
 20 22  1  0  0  0  0
 21 20  2  0  0  0  0
 22 23  1  0  0  0  0
 23 24  2  0  0  0  0
 23 30  1  0  0  0  0
 24 26  1  0  0  0  0
 25 24  1  0  0  0  0
 26 27  1  0  0  0  0
 26 28  1  0  0  0  0
 28 29  1  0  0  0  0
 30 28  2  0  0  0  0
M  END
>  <minimizedAffinity>
-4.51604128

>  <minimizedRMSD>
4.19231176

$$$$
