
 OpenBabel03262522183D

 23 24  0  0  0  0  0  0  0  0999 V2000
   36.9030   32.3590   49.5930 O   0  0  0  0  0  0  0  0  0  0  0  0
   37.9320   31.5080   48.8530 P   0  0  1  0  0  0  0  0  0  0  0  0
   38.7880   30.6040   50.0180 O   0  0  0  0  0  0  0  0  0  0  0  0
   38.3860   30.7100   50.9070 H   0  0  0  0  0  0  0  0  0  0  0  0
   37.0780   30.3790   47.9120 O   0  0  0  0  0  0  0  0  0  0  0  0
   35.8460   28.9530   49.3680 C   0  0  0  0  0  0  0  0  0  0  0  0
   35.9100   29.7630   48.2220 C   0  0  0  0  0  0  0  0  0  0  0  0
   34.7290   29.8750   47.4700 C   0  0  0  0  0  0  0  0  0  0  0  0
   33.6060   29.2130   47.8670 N   0  0  0  0  0  0  0  0  0  0  0  0
   33.6120   28.4440   48.9870 C   0  0  0  0  0  0  0  0  0  0  0  0
   34.7240   28.3110   49.7370 N   0  0  0  0  0  0  0  0  0  0  0  0
   36.7300   28.8360   49.9800 H   0  0  0  0  0  0  0  0  0  0  0  0
   34.7520   30.4960   46.5770 H   0  0  0  0  0  0  0  0  0  0  0  0
   32.6270   28.0090   49.1260 H   0  0  0  0  0  0  0  0  0  0  0  0
   38.9310   32.5110   47.9920 O   0  0  0  0  0  0  0  0  0  0  0  0
   39.5760   32.2050   46.8010 C   0  0  0  0  0  0  0  0  0  0  0  0
   40.0540   33.2780   46.0590 C   0  0  0  0  0  0  0  0  0  0  0  0
   40.0520   34.3590   46.1820 H   0  0  0  0  0  0  0  0  0  0  0  0
   40.6390   32.7450   44.9500 N   0  0  0  0  0  0  0  0  0  0  0  0
   41.1100   33.2300   44.1590 H   0  0  0  0  0  0  0  0  0  0  0  0
   40.5320   31.3850   44.9910 C   0  0  0  0  0  0  0  0  0  0  0  0
   40.9020   30.6880   44.2510 H   0  0  0  0  0  0  0  0  0  0  0  0
   39.8800   31.0770   46.1290 N   0  0  0  0  0  0  0  0  0  0  0  0
  2  1  2  1  0  0  0
  2  3  1  0  0  0  0
  3  4  1  0  0  0  0
  5  7  1  0  0  0  0
  5  2  1  0  0  0  0
  6 11  1  0  0  0  0
  6 12  1  0  0  0  0
  7  6  2  0  0  0  0
  8  9  2  0  0  0  0
  8  7  1  0  0  0  0
  9 10  1  0  0  0  0
 10 14  1  0  0  0  0
 10 11  2  0  0  0  0
 13  8  1  0  0  0  0
 15  2  1  0  0  0  0
 16 15  1  0  0  0  0
 17 18  1  0  0  0  0
 17 16  2  0  0  0  0
 19 21  1  0  0  0  0
 19 17  1  0  0  0  0
 20 19  1  0  0  0  0
 21 23  2  0  0  0  0
 22 21  1  0  0  0  0
 23 16  1  0  0  0  0
M  END
>  <minimizedAffinity>
-4.8474803

>  <minimizedRMSD>
2.35469031

$$$$
