REMARK  Name = 
REMARK  5 active torsions:
REMARK  status: ('A' for Active; 'I' for Inactive)
REMARK    1  A    between atoms: C_3  and  O_7
REMARK    2  A    between atoms: O_7  and  P_9
REMARK    3  A    between atoms: P_9  and  O_10
REMARK    4  A    between atoms: P_9  and  O_11
REMARK    5  A    between atoms: O_11  and  C_16
REMARK                            x       y       z     vdW  Elec       q    Type
REMARK                         _______ _______ _______ _____ _____    ______ ____
ROOT
ATOM      1  O   UNL     1      39.067  32.724  48.134  0.00  0.00    +0.000 OA
ATOM      2  P   UNL     1      38.684  31.715  47.106  0.00  0.00    +0.000 P 
ENDROOT
BRANCH   2   3
ATOM      3  O   UNL     1      37.815  32.454  45.850  0.00  0.00    +0.000 OA
ATOM      4  H   UNL     1      38.005  32.013  44.994  0.00  0.00    +0.000 HD
ENDBRANCH   2   3
BRANCH   2   5
ATOM      5  O   UNL     1      37.868  30.375  47.698  0.00  0.00    +0.000 OA
BRANCH   5   8
ATOM      6  C   UNL     1      37.338  30.150  51.361  0.00  0.00    +0.000 A 
ATOM      7  C   UNL     1      38.009  30.509  50.172  0.00  0.00    +0.000 A 
ATOM      8  C   UNL     1      37.421  30.146  48.960  0.00  0.00    +0.000 A 
ATOM      9  N   UNL     1      36.238  29.471  48.994  0.00  0.00    +0.000 NA
ATOM     10  C   UNL     1      35.636  29.151  50.144  0.00  0.00    +0.000 A 
ATOM     11  N   UNL     1      36.181  29.487  51.324  0.00  0.00    +0.000 NA
ATOM     12  H   UNL     1      37.855  30.465  52.270  0.00  0.00    +0.000 HD
ATOM     13  H   UNL     1      38.925  31.030  50.069  0.00  0.00    +0.000 HD
ATOM     14  H   UNL     1      34.696  28.614  50.178  0.00  0.00    +0.000 HD
ENDBRANCH   5   8
ENDBRANCH   2   5
BRANCH   2  15
ATOM     15  O   UNL     1      40.165  31.190  46.411  0.00  0.00    +0.000 OA
BRANCH  15  16
ATOM     16  C   UNL     1      40.844  32.183  45.678  0.00  0.00    +0.000 A 
ATOM     17  C   UNL     1      41.792  33.121  46.059  0.00  0.00    +0.000 A 
ATOM     18  H   UNL     1      42.150  33.198  47.066  0.00  0.00    +0.000 HD
ATOM     19  N   UNL     1      42.133  33.849  44.978  0.00  0.00    +0.000 N 
ATOM     20  H   UNL     1      42.833  34.623  45.000  0.00  0.00    +0.000 HD
ATOM     21  C   UNL     1      41.399  33.356  43.953  0.00  0.00    +0.000 A 
ATOM     22  H   UNL     1      41.537  33.825  42.973  0.00  0.00    +0.000 HD
ATOM     23  N   UNL     1      40.611  32.345  44.363  0.00  0.00    +0.000 NA
ENDBRANCH  15  16
ENDBRANCH   2  15
TORSDOF 5
