
 OpenBabel03272505443D

 23 24  0  0  0  0  0  0  0  0999 V2000
   39.4910   27.1850   33.6050 O   0  0  0  0  0  0  0  0  0  0  0  0
   38.3430   26.8480   34.5470 P   0  0  2  0  0  0  0  0  0  0  0  0
   38.7170   27.6070   36.0070 O   0  0  0  0  0  0  0  0  0  0  0  0
   39.7020   27.5500   36.1680 H   0  0  0  0  0  0  0  0  0  0  0  0
   38.2710   25.1570   34.7000 O   0  0  0  0  0  0  0  0  0  0  0  0
   39.6950   22.9220   37.1970 C   0  0  0  0  0  0  0  0  0  0  0  0
   38.9370   23.2990   38.3370 C   0  0  0  0  0  0  0  0  0  0  0  0
   37.9710   24.3170   38.1640 C   0  0  0  0  0  0  0  0  0  0  0  0
   37.8320   24.8610   36.9270 N   0  0  0  0  0  0  0  0  0  0  0  0
   38.5710   24.4740   35.8690 C   0  0  0  0  0  0  0  0  0  0  0  0
   39.5050   23.5040   35.9960 N   0  0  0  0  0  0  0  0  0  0  0  0
   40.4520   22.1450   37.2750 H   0  0  0  0  0  0  0  0  0  0  0  0
   39.1050   22.8180   39.2950 H   0  0  0  0  0  0  0  0  0  0  0  0
   37.3760   24.6290   39.0110 H   0  0  0  0  0  0  0  0  0  0  0  0
   36.9640   27.5380   33.9100 O   0  0  0  0  0  0  0  0  0  0  0  0
   36.7090   27.5660   32.5450 C   0  0  0  0  0  0  0  0  0  0  0  0
   36.2350   26.5700   31.7180 C   0  0  0  0  0  0  0  0  0  0  0  0
   35.9780   25.5710   32.0220 H   0  0  0  0  0  0  0  0  0  0  0  0
   36.1750   27.1210   30.5080 N   0  0  0  0  0  0  0  0  0  0  0  0
   35.8600   26.6700   29.6140 H   0  0  0  0  0  0  0  0  0  0  0  0
   36.5850   28.4200   30.5110 C   0  0  0  0  0  0  0  0  0  0  0  0
   36.6460   29.1160   29.6860 H   0  0  0  0  0  0  0  0  0  0  0  0
   36.9190   28.6850   31.8030 N   0  0  0  0  0  0  0  0  0  0  0  0
  2  1  2  6  0  0  0
  2  5  1  0  0  0  0
  2  3  1  0  0  0  0
  3  4  1  0  0  0  0
  5 10  1  0  0  0  0
  6 12  1  0  0  0  0
  6  7  1  0  0  0  0
  7 13  1  0  0  0  0
  8  7  2  0  0  0  0
  8 14  1  0  0  0  0
  9  8  1  0  0  0  0
 10 11  1  0  0  0  0
 10  9  2  0  0  0  0
 11  6  2  0  0  0  0
 15  2  1  0  0  0  0
 16 15  1  0  0  0  0
 17 18  1  0  0  0  0
 17 16  2  0  0  0  0
 19 21  1  0  0  0  0
 19 17  1  0  0  0  0
 20 19  1  0  0  0  0
 21 23  2  0  0  0  0
 22 21  1  0  0  0  0
 23 16  1  0  0  0  0
M  END
>  <minimizedAffinity>
-4.57192326

$$$$

 OpenBabel03272505443D

 23 24  0  0  0  0  0  0  0  0999 V2000
   38.7100   27.2610   36.0200 O   0  0  0  0  0  0  0  0  0  0  0  0
   38.4350   26.0150   35.1890 P   0  0  2  0  0  0  0  0  0  0  0  0
   39.9520   25.4200   34.7500 O   0  0  0  0  0  0  0  0  0  0  0  0
   40.5650   26.1850   34.5550 H   0  0  0  0  0  0  0  0  0  0  0  0
   37.5100   26.4790   33.8410 O   0  0  0  0  0  0  0  0  0  0  0  0
   35.7580   24.8940   31.0700 C   0  0  0  0  0  0  0  0  0  0  0  0
   36.3890   23.6220   31.0650 C   0  0  0  0  0  0  0  0  0  0  0  0
   37.3930   23.3940   32.0340 C   0  0  0  0  0  0  0  0  0  0  0  0
   37.6850   24.3990   32.9000 N   0  0  0  0  0  0  0  0  0  0  0  0
   37.0620   25.5950   32.8710 C   0  0  0  0  0  0  0  0  0  0  0  0
   36.0970   25.8490   31.9590 N   0  0  0  0  0  0  0  0  0  0  0  0
   34.9790   25.1220   30.3450 H   0  0  0  0  0  0  0  0  0  0  0  0
   36.1020   22.8670   30.3410 H   0  0  0  0  0  0  0  0  0  0  0  0
   37.8940   22.4360   32.0600 H   0  0  0  0  0  0  0  0  0  0  0  0
   37.6830   24.9120   36.1890 O   0  0  0  0  0  0  0  0  0  0  0  0
   38.3940   24.0670   37.0310 C   0  0  0  0  0  0  0  0  0  0  0  0
   38.1840   23.7690   38.3610 C   0  0  0  0  0  0  0  0  0  0  0  0
   37.3960   24.1660   38.9760 H   0  0  0  0  0  0  0  0  0  0  0  0
   39.1480   22.9090   38.6820 N   0  0  0  0  0  0  0  0  0  0  0  0
   39.3170   22.4550   39.6130 H   0  0  0  0  0  0  0  0  0  0  0  0
   39.9690   22.6370   37.6300 C   0  0  0  0  0  0  0  0  0  0  0  0
   40.8290   21.9840   37.5900 H   0  0  0  0  0  0  0  0  0  0  0  0
   39.4800   23.3760   36.5960 N   0  0  0  0  0  0  0  0  0  0  0  0
  2  1  2  1  0  0  0
  2 15  1  0  0  0  0
  3  2  1  0  0  0  0
  4  3  1  0  0  0  0
  5  2  1  0  0  0  0
  6 11  1  0  0  0  0
  7  6  2  0  0  0  0
  7  8  1  0  0  0  0
  8 14  1  0  0  0  0
  8  9  2  0  0  0  0
 10  9  1  0  0  0  0
 10  5  1  0  0  0  0
 11 10  2  0  0  0  0
 12  6  1  0  0  0  0
 13  7  1  0  0  0  0
 15 16  1  0  0  0  0
 16 17  2  0  0  0  0
 17 19  1  0  0  0  0
 17 18  1  0  0  0  0
 19 20  1  0  0  0  0
 21 19  1  0  0  0  0
 22 21  1  0  0  0  0
 23 16  1  0  0  0  0
 23 21  2  0  0  0  0
M  END
>  <minimizedAffinity>
-4.51946068

$$$$

 OpenBabel03272505443D

 23 24  0  0  0  0  0  0  0  0999 V2000
   40.2730   27.2970   34.0350 O   0  0  0  0  0  0  0  0  0  0  0  0
   38.9830   26.8050   34.6760 P   0  0  2  0  0  0  0  0  0  0  0  0
   38.9070   27.5670   36.1810 O   0  0  0  0  0  0  0  0  0  0  0  0
   39.8250   27.6200   36.5720 H   0  0  0  0  0  0  0  0  0  0  0  0
   39.0780   25.1140   34.8140 O   0  0  0  0  0  0  0  0  0  0  0  0
   39.7640   22.8570   37.5880 C   0  0  0  0  0  0  0  0  0  0  0  0
   38.7730   23.2830   38.5130 C   0  0  0  0  0  0  0  0  0  0  0  0
   37.9220   24.3380   38.1090 C   0  0  0  0  0  0  0  0  0  0  0  0
   38.1070   24.8690   36.8730 N   0  0  0  0  0  0  0  0  0  0  0  0
   39.0600   24.4360   36.0240 C   0  0  0  0  0  0  0  0  0  0  0  0
   39.8930   23.4290   36.3750 N   0  0  0  0  0  0  0  0  0  0  0  0
   40.4450   22.0500   37.8480 H   0  0  0  0  0  0  0  0  0  0  0  0
   38.6860   22.8090   39.4850 H   0  0  0  0  0  0  0  0  0  0  0  0
   37.1560   24.6870   38.7880 H   0  0  0  0  0  0  0  0  0  0  0  0
   37.7230   27.3450   33.7270 O   0  0  0  0  0  0  0  0  0  0  0  0
   37.3780   26.7310   32.5290 C   0  0  0  0  0  0  0  0  0  0  0  0
   37.7470   27.0480   31.2400 C   0  0  0  0  0  0  0  0  0  0  0  0
   38.3920   27.8590   30.9530 H   0  0  0  0  0  0  0  0  0  0  0  0
   37.1410   26.1460   30.4720 N   0  0  0  0  0  0  0  0  0  0  0  0
   37.1830   26.0630   29.4260 H   0  0  0  0  0  0  0  0  0  0  0  0
   36.3990   25.2640   31.1980 C   0  0  0  0  0  0  0  0  0  0  0  0
   35.8020   24.4320   30.8540 H   0  0  0  0  0  0  0  0  0  0  0  0
   36.5590   25.6470   32.4940 N   0  0  0  0  0  0  0  0  0  0  0  0
  2  1  2  6  0  0  0
  2  5  1  0  0  0  0
  2  3  1  0  0  0  0
  3  4  1  0  0  0  0
  5 10  1  0  0  0  0
  6 12  1  0  0  0  0
  6  7  1  0  0  0  0
  7 13  1  0  0  0  0
  8  7  2  0  0  0  0
  8 14  1  0  0  0  0
  9  8  1  0  0  0  0
 10 11  1  0  0  0  0
 10  9  2  0  0  0  0
 11  6  2  0  0  0  0
 15  2  1  0  0  0  0
 16 15  1  0  0  0  0
 17 16  2  0  0  0  0
 18 17  1  0  0  0  0
 19 21  1  0  0  0  0
 19 17  1  0  0  0  0
 20 19  1  0  0  0  0
 21 23  2  0  0  0  0
 22 21  1  0  0  0  0
 23 16  1  0  0  0  0
M  END
>  <minimizedAffinity>
-4.50278091

$$$$

 OpenBabel03272505443D

 23 24  0  0  0  0  0  0  0  0999 V2000
   39.2010   26.6950   35.8070 O   0  0  0  0  0  0  0  0  0  0  0  0
   38.0170   25.8810   35.3050 P   0  0  2  0  0  0  0  0  0  0  0  0
   38.6000   24.9940   33.9920 O   0  0  0  0  0  0  0  0  0  0  0  0
   39.2440   25.5550   33.4730 H   0  0  0  0  0  0  0  0  0  0  0  0
   36.7890   26.9670   34.8550 O   0  0  0  0  0  0  0  0  0  0  0  0
   37.5130   28.2550   31.5270 C   0  0  0  0  0  0  0  0  0  0  0  0
   36.5670   29.3120   31.4520 C   0  0  0  0  0  0  0  0  0  0  0  0
   35.7290   29.5110   32.5740 C   0  0  0  0  0  0  0  0  0  0  0  0
   35.8840   28.6840   33.6410 N   0  0  0  0  0  0  0  0  0  0  0  0
   36.7960   27.6920   33.6730 C   0  0  0  0  0  0  0  0  0  0  0  0
   37.6150   27.4710   32.6190 N   0  0  0  0  0  0  0  0  0  0  0  0
   38.1810   28.0580   30.6910 H   0  0  0  0  0  0  0  0  0  0  0  0
   36.5010   29.9310   30.5640 H   0  0  0  0  0  0  0  0  0  0  0  0
   34.9970   30.3070   32.5510 H   0  0  0  0  0  0  0  0  0  0  0  0
   37.5870   24.8300   36.5260 O   0  0  0  0  0  0  0  0  0  0  0  0
   38.4830   23.9200   37.0740 C   0  0  0  0  0  0  0  0  0  0  0  0
   38.5810   23.4500   38.3660 C   0  0  0  0  0  0  0  0  0  0  0  0
   37.9440   23.7310   39.1860 H   0  0  0  0  0  0  0  0  0  0  0  0
   39.6060   22.6010   38.3510 N   0  0  0  0  0  0  0  0  0  0  0  0
   39.9870   22.0430   39.1550 H   0  0  0  0  0  0  0  0  0  0  0  0
   40.1750   22.5000   37.1180 C   0  0  0  0  0  0  0  0  0  0  0  0
   41.0160   21.8970   36.8040 H   0  0  0  0  0  0  0  0  0  0  0  0
   39.4560   23.3380   36.3230 N   0  0  0  0  0  0  0  0  0  0  0  0
  2  1  2  1  0  0  0
  2 15  1  0  0  0  0
  3  2  1  0  0  0  0
  4  3  1  0  0  0  0
  5  2  1  0  0  0  0
  6 11  1  0  0  0  0
  7  6  2  0  0  0  0
  7  8  1  0  0  0  0
  8  9  2  0  0  0  0
  9 10  1  0  0  0  0
 10  5  1  0  0  0  0
 11 10  2  0  0  0  0
 12  6  1  0  0  0  0
 13  7  1  0  0  0  0
 14  8  1  0  0  0  0
 15 16  1  0  0  0  0
 16 17  2  0  0  0  0
 17 18  1  0  0  0  0
 19 17  1  0  0  0  0
 19 20  1  0  0  0  0
 21 19  1  0  0  0  0
 22 21  1  0  0  0  0
 23 16  1  0  0  0  0
 23 21  2  0  0  0  0
M  END
>  <minimizedAffinity>
-4.38118601

$$$$

 OpenBabel03272505443D

 23 24  0  0  0  0  0  0  0  0999 V2000
   40.1940   25.6580   35.0360 O   0  0  0  0  0  0  0  0  0  0  0  0
   39.2520   24.7860   34.2170 P   0  0  2  0  0  0  0  0  0  0  0  0
   40.2240   23.5870   33.5340 O   0  0  0  0  0  0  0  0  0  0  0  0
   41.1040   23.9820   33.2720 H   0  0  0  0  0  0  0  0  0  0  0  0
   38.5180   25.7680   33.0410 O   0  0  0  0  0  0  0  0  0  0  0  0
   35.7840   23.9650   31.4500 C   0  0  0  0  0  0  0  0  0  0  0  0
   35.0120   25.0540   30.9630 C   0  0  0  0  0  0  0  0  0  0  0  0
   35.4960   26.3580   31.2210 C   0  0  0  0  0  0  0  0  0  0  0  0
   36.6580   26.4810   31.9130 N   0  0  0  0  0  0  0  0  0  0  0  0
   37.3620   25.4220   32.3590 C   0  0  0  0  0  0  0  0  0  0  0  0
   36.9310   24.1600   32.1300 N   0  0  0  0  0  0  0  0  0  0  0  0
   35.4570   22.9420   31.2800 H   0  0  0  0  0  0  0  0  0  0  0  0
   34.0910   24.8760   30.4170 H   0  0  0  0  0  0  0  0  0  0  0  0
   34.9330   27.2090   30.8640 H   0  0  0  0  0  0  0  0  0  0  0  0
   38.1830   24.0790   35.2850 O   0  0  0  0  0  0  0  0  0  0  0  0
   38.5680   23.6500   36.5480 C   0  0  0  0  0  0  0  0  0  0  0  0
   39.5390   22.7420   36.9110 C   0  0  0  0  0  0  0  0  0  0  0  0
   40.1790   22.2040   36.2350 H   0  0  0  0  0  0  0  0  0  0  0  0
   39.4970   22.6980   38.2410 N   0  0  0  0  0  0  0  0  0  0  0  0
   40.0910   22.1170   38.8820 H   0  0  0  0  0  0  0  0  0  0  0  0
   38.5480   23.5290   38.7540 C   0  0  0  0  0  0  0  0  0  0  0  0
   38.2840   23.7040   39.7880 H   0  0  0  0  0  0  0  0  0  0  0  0
   37.9710   24.1220   37.6740 N   0  0  0  0  0  0  0  0  0  0  0  0
  2  1  2  1  0  0  0
  2 15  1  0  0  0  0
  3  2  1  0  0  0  0
  4  3  1  0  0  0  0
  5  2  1  0  0  0  0
  6 11  1  0  0  0  0
  7  8  1  0  0  0  0
  7  6  2  0  0  0  0
  8  9  2  0  0  0  0
  9 10  1  0  0  0  0
 10  5  1  0  0  0  0
 11 10  2  0  0  0  0
 12  6  1  0  0  0  0
 13  7  1  0  0  0  0
 14  8  1  0  0  0  0
 15 16  1  0  0  0  0
 16 17  2  0  0  0  0
 16 23  1  0  0  0  0
 17 19  1  0  0  0  0
 18 17  1  0  0  0  0
 19 21  1  0  0  0  0
 19 20  1  0  0  0  0
 21 22  1  0  0  0  0
 23 21  2  0  0  0  0
M  END
>  <minimizedAffinity>
-4.3474884

$$$$

 OpenBabel03272505443D

 23 24  0  0  0  0  0  0  0  0999 V2000
   36.8380   27.1590   34.9100 O   0  0  0  0  0  0  0  0  0  0  0  0
   38.0180   26.3490   35.4280 P   0  0  2  0  0  0  0  0  0  0  0  0
   38.8860   27.4010   36.4230 O   0  0  0  0  0  0  0  0  0  0  0  0
   38.8770   28.3170   36.0250 H   0  0  0  0  0  0  0  0  0  0  0  0
   38.9270   25.8310   34.0890 O   0  0  0  0  0  0  0  0  0  0  0  0
   37.7220   23.1440   31.9480 C   0  0  0  0  0  0  0  0  0  0  0  0
   37.3310   23.8880   30.8020 C   0  0  0  0  0  0  0  0  0  0  0  0
   37.5120   25.2900   30.8490 C   0  0  0  0  0  0  0  0  0  0  0  0
   38.0450   25.8280   31.9760 N   0  0  0  0  0  0  0  0  0  0  0  0
   38.4040   25.0860   33.0430 C   0  0  0  0  0  0  0  0  0  0  0  0
   38.2460   23.7430   33.0360 N   0  0  0  0  0  0  0  0  0  0  0  0
   37.6040   22.0630   31.9650 H   0  0  0  0  0  0  0  0  0  0  0  0
   36.9110   23.3870   29.9370 H   0  0  0  0  0  0  0  0  0  0  0  0
   37.2250   25.8870   29.9940 H   0  0  0  0  0  0  0  0  0  0  0  0
   37.3970   25.1090   36.3550 O   0  0  0  0  0  0  0  0  0  0  0  0
   38.2070   24.2380   37.0710 C   0  0  0  0  0  0  0  0  0  0  0  0
   38.1240   23.8410   38.3890 C   0  0  0  0  0  0  0  0  0  0  0  0
   37.3790   24.1620   39.0950 H   0  0  0  0  0  0  0  0  0  0  0  0
   39.1420   23.0010   38.5650 N   0  0  0  0  0  0  0  0  0  0  0  0
   39.4070   22.4910   39.4430 H   0  0  0  0  0  0  0  0  0  0  0  0
   39.8770   22.8360   37.4300 C   0  0  0  0  0  0  0  0  0  0  0  0
   40.7530   22.2230   37.2710 H   0  0  0  0  0  0  0  0  0  0  0  0
   39.2750   23.6230   36.4980 N   0  0  0  0  0  0  0  0  0  0  0  0
  2  1  2  6  0  0  0
  2 15  1  0  0  0  0
  2  3  1  0  0  0  0
  4  3  1  0  0  0  0
  5  2  1  0  0  0  0
  6 12  1  0  0  0  0
  6 11  1  0  0  0  0
  7  8  1  0  0  0  0
  7  6  2  0  0  0  0
  8  9  2  0  0  0  0
  9 10  1  0  0  0  0
 10  5  1  0  0  0  0
 11 10  2  0  0  0  0
 13  7  1  0  0  0  0
 14  8  1  0  0  0  0
 15 16  1  0  0  0  0
 16 17  2  0  0  0  0
 17 19  1  0  0  0  0
 17 18  1  0  0  0  0
 19 20  1  0  0  0  0
 21 19  1  0  0  0  0
 22 21  1  0  0  0  0
 23 16  1  0  0  0  0
 23 21  2  0  0  0  0
M  END
>  <minimizedAffinity>
-4.33060598

$$$$

 OpenBabel03272505443D

 23 24  0  0  0  0  0  0  0  0999 V2000
   37.4790   25.6300   33.5550 O   0  0  0  0  0  0  0  0  0  0  0  0
   38.4320   24.6800   34.2670 P   0  0  2  0  0  0  0  0  0  0  0  0
   39.9250   25.4660   34.2870 O   0  0  0  0  0  0  0  0  0  0  0  0
   40.0520   25.9580   33.4260 H   0  0  0  0  0  0  0  0  0  0  0  0
   38.4800   23.2280   33.3850 O   0  0  0  0  0  0  0  0  0  0  0  0
   35.5980   22.0010   31.5290 C   0  0  0  0  0  0  0  0  0  0  0  0
   35.1240   21.0050   32.4240 C   0  0  0  0  0  0  0  0  0  0  0  0
   35.8450   20.8210   33.6280 C   0  0  0  0  0  0  0  0  0  0  0  0
   36.9330   21.6050   33.8460 N   0  0  0  0  0  0  0  0  0  0  0  0
   37.3500   22.5400   32.9690 C   0  0  0  0  0  0  0  0  0  0  0  0
   36.6870   22.7440   31.8080 N   0  0  0  0  0  0  0  0  0  0  0  0
   35.0810   22.1820   30.5890 H   0  0  0  0  0  0  0  0  0  0  0  0
   34.2460   20.4170   32.1810 H   0  0  0  0  0  0  0  0  0  0  0  0
   35.5120   20.0720   34.3320 H   0  0  0  0  0  0  0  0  0  0  0  0
   37.8830   24.5120   35.8330 O   0  0  0  0  0  0  0  0  0  0  0  0
   38.5760   23.7820   36.7900 C   0  0  0  0  0  0  0  0  0  0  0  0
   38.1980   23.4200   38.0650 C   0  0  0  0  0  0  0  0  0  0  0  0
   37.2600   23.6610   38.5340 H   0  0  0  0  0  0  0  0  0  0  0  0
   39.2270   22.7310   38.5520 N   0  0  0  0  0  0  0  0  0  0  0  0
   39.3120   22.2900   39.5010 H   0  0  0  0  0  0  0  0  0  0  0  0
   40.2490   22.6290   37.6580 C   0  0  0  0  0  0  0  0  0  0  0  0
   41.2040   22.1350   37.7690 H   0  0  0  0  0  0  0  0  0  0  0  0
   39.8230   23.2980   36.5520 N   0  0  0  0  0  0  0  0  0  0  0  0
  2  1  2  6  0  0  0
  2  3  1  0  0  0  0
  2 15  1  0  0  0  0
  4  3  1  0  0  0  0
  5  2  1  0  0  0  0
  6 11  2  0  0  0  0
  6  7  1  0  0  0  0
  7  8  2  0  0  0  0
  8  9  1  0  0  0  0
  8 14  1  0  0  0  0
 10  5  1  0  0  0  0
 10  9  2  0  0  0  0
 11 10  1  0  0  0  0
 12  6  1  0  0  0  0
 13  7  1  0  0  0  0
 15 16  1  0  0  0  0
 16 17  2  0  0  0  0
 17 18  1  0  0  0  0
 17 19  1  0  0  0  0
 19 20  1  0  0  0  0
 21 22  1  0  0  0  0
 21 19  1  0  0  0  0
 23 16  1  0  0  0  0
 23 21  2  0  0  0  0
M  END
>  <minimizedAffinity>
-4.32964611

$$$$

 OpenBabel03272505443D

 23 24  0  0  0  0  0  0  0  0999 V2000
   39.5200   21.2720   33.1590 O   0  0  0  0  0  0  0  0  0  0  0  0
   38.9600   22.4400   33.9600 P   0  0  2  0  0  0  0  0  0  0  0  0
   37.4540   21.9240   34.5190 O   0  0  0  0  0  0  0  0  0  0  0  0
   37.0090   21.3730   33.8140 H   0  0  0  0  0  0  0  0  0  0  0  0
   38.8380   23.7780   32.9190 O   0  0  0  0  0  0  0  0  0  0  0  0
   36.0870   25.7610   31.5940 C   0  0  0  0  0  0  0  0  0  0  0  0
   35.2130   24.7280   31.1640 C   0  0  0  0  0  0  0  0  0  0  0  0
   35.6400   23.3940   31.3630 C   0  0  0  0  0  0  0  0  0  0  0  0
   36.8490   23.1920   31.9490 N   0  0  0  0  0  0  0  0  0  0  0  0
   37.6500   24.2020   32.3440 C   0  0  0  0  0  0  0  0  0  0  0  0
   37.2750   25.4900   32.1700 N   0  0  0  0  0  0  0  0  0  0  0  0
   35.8070   26.8040   31.4640 H   0  0  0  0  0  0  0  0  0  0  0  0
   34.2610   24.9670   30.7020 H   0  0  0  0  0  0  0  0  0  0  0  0
   34.9990   22.5820   31.0470 H   0  0  0  0  0  0  0  0  0  0  0  0
   39.9750   22.6760   35.2630 O   0  0  0  0  0  0  0  0  0  0  0  0
   39.4960   22.8580   36.5540 C   0  0  0  0  0  0  0  0  0  0  0  0
   40.0950   22.5740   37.7620 C   0  0  0  0  0  0  0  0  0  0  0  0
   41.0740   22.1480   37.8930 H   0  0  0  0  0  0  0  0  0  0  0  0
   39.2090   22.9410   38.6860 N   0  0  0  0  0  0  0  0  0  0  0  0
   39.3070   22.8770   39.7290 H   0  0  0  0  0  0  0  0  0  0  0  0
   38.0700   23.4450   38.1360 C   0  0  0  0  0  0  0  0  0  0  0  0
   37.1840   23.8190   38.6300 H   0  0  0  0  0  0  0  0  0  0  0  0
   38.2670   23.3860   36.7910 N   0  0  0  0  0  0  0  0  0  0  0  0
  2  1  2  6  0  0  0
  2  3  1  0  0  0  0
  2 15  1  0  0  0  0
  4  3  1  0  0  0  0
  5  2  1  0  0  0  0
  6 11  1  0  0  0  0
  7  8  1  0  0  0  0
  7  6  2  0  0  0  0
  8  9  2  0  0  0  0
  9 10  1  0  0  0  0
 10  5  1  0  0  0  0
 11 10  2  0  0  0  0
 12  6  1  0  0  0  0
 13  7  1  0  0  0  0
 14  8  1  0  0  0  0
 15 16  1  0  0  0  0
 16 23  1  0  0  0  0
 16 17  2  0  0  0  0
 17 18  1  0  0  0  0
 17 19  1  0  0  0  0
 19 20  1  0  0  0  0
 21 22  1  0  0  0  0
 21 19  1  0  0  0  0
 23 21  2  0  0  0  0
M  END
>  <minimizedAffinity>
-4.18814325

$$$$

 OpenBabel03272505443D

 23 24  0  0  0  0  0  0  0  0999 V2000
   39.2900   26.6700   34.0530 O   0  0  0  0  0  0  0  0  0  0  0  0
   38.0280   26.9670   34.8500 P   0  0  2  0  0  0  0  0  0  0  0  0
   38.5240   27.9380   36.1380 O   0  0  0  0  0  0  0  0  0  0  0  0
   39.4170   27.6270   36.4640 H   0  0  0  0  0  0  0  0  0  0  0  0
   37.3780   25.4860   35.3730 O   0  0  0  0  0  0  0  0  0  0  0  0
   39.3630   23.1000   37.2780 C   0  0  0  0  0  0  0  0  0  0  0  0
   39.6570   22.1490   36.2650 C   0  0  0  0  0  0  0  0  0  0  0  0
   39.1410   22.4000   34.9720 C   0  0  0  0  0  0  0  0  0  0  0  0
   38.4050   23.5260   34.7860 N   0  0  0  0  0  0  0  0  0  0  0  0
   38.1480   24.4050   35.7750 C   0  0  0  0  0  0  0  0  0  0  0  0
   38.6240   24.1990   37.0240 N   0  0  0  0  0  0  0  0  0  0  0  0
   39.7340   22.9550   38.2900 H   0  0  0  0  0  0  0  0  0  0  0  0
   40.2530   21.2710   36.4900 H   0  0  0  0  0  0  0  0  0  0  0  0
   39.3470   21.6960   34.1770 H   0  0  0  0  0  0  0  0  0  0  0  0
   37.0150   27.8480   33.8610 O   0  0  0  0  0  0  0  0  0  0  0  0
   36.6720   27.4260   32.5830 C   0  0  0  0  0  0  0  0  0  0  0  0
   36.5260   28.1580   31.4240 C   0  0  0  0  0  0  0  0  0  0  0  0
   36.6640   29.2200   31.3310 H   0  0  0  0  0  0  0  0  0  0  0  0
   36.1890   27.2700   30.4910 N   0  0  0  0  0  0  0  0  0  0  0  0
   35.9930   27.4510   29.4750 H   0  0  0  0  0  0  0  0  0  0  0  0
   36.1100   26.0040   30.9870 C   0  0  0  0  0  0  0  0  0  0  0  0
   35.8610   25.0870   30.4730 H   0  0  0  0  0  0  0  0  0  0  0  0
   36.4170   26.1190   32.3080 N   0  0  0  0  0  0  0  0  0  0  0  0
  2  1  2  6  0  0  0
  2  5  1  0  0  0  0
  2  3  1  0  0  0  0
  3  4  1  0  0  0  0
  5 10  1  0  0  0  0
  6 12  1  0  0  0  0
  7 13  1  0  0  0  0
  7  6  2  0  0  0  0
  8  7  1  0  0  0  0
  9  8  2  0  0  0  0
  9 10  1  0  0  0  0
 10 11  2  0  0  0  0
 11  6  1  0  0  0  0
 14  8  1  0  0  0  0
 15  2  1  0  0  0  0
 16 15  1  0  0  0  0
 17 16  2  0  0  0  0
 18 17  1  0  0  0  0
 19 21  1  0  0  0  0
 19 17  1  0  0  0  0
 20 19  1  0  0  0  0
 21 23  2  0  0  0  0
 22 21  1  0  0  0  0
 23 16  1  0  0  0  0
M  END
>  <minimizedAffinity>
-4.13077116

$$$$
