
 OpenBabel03272510293D

 27 29  0  0  0  0  0  0  0  0999 V2000
   37.1780   31.3220   49.2070 C   0  0  0  0  0  0  0  0  0  0  0  0
   37.3500   32.5730   49.7970 C   0  0  0  0  0  0  0  0  0  0  0  0
   38.3110   33.3850   49.2150 C   0  0  0  0  0  0  0  0  0  0  0  0
   39.0180   32.9400   48.1340 N   0  0  0  0  0  0  0  0  0  0  0  0
   38.8210   31.7080   47.5830 C   0  0  0  0  0  0  0  0  0  0  0  0
   37.8760   30.8840   48.1410 N   0  0  0  0  0  0  0  0  0  0  0  0
   36.7840   32.9010   50.6450 H   0  0  0  0  0  0  0  0  0  0  0  0
   38.5360   34.3600   49.5730 H   0  0  0  0  0  0  0  0  0  0  0  0
   36.1210   30.4200   49.7860 C   0  0  0  0  0  0  0  0  0  0  0  0
   36.1330   28.9900   49.6000 C   0  0  0  0  0  0  0  0  0  0  0  0
   36.6460   29.5300   50.9160 C   0  0  0  0  0  0  0  0  0  0  0  0
   35.1350   30.9180   50.0250 H   0  0  0  0  0  0  0  0  0  0  0  0
   35.2210   28.3980   49.5620 H   0  0  0  0  0  0  0  0  0  0  0  0
   36.9270   28.5810   48.9200 H   0  0  0  0  0  0  0  0  0  0  0  0
   37.7120   29.5560   51.1430 H   0  0  0  0  0  0  0  0  0  0  0  0
   35.9370   29.3460   51.7460 H   0  0  0  0  0  0  0  0  0  0  0  0
   39.5450   31.1910   46.4280 C   0  0  0  0  0  0  0  0  0  0  0  0
   40.6070   31.5550   46.5230 H   0  0  0  0  0  0  0  0  0  0  0  0
   39.5840   30.1010   46.4900 H   0  0  0  0  0  0  0  0  0  0  0  0
   38.9560   31.6480   45.1290 C   0  0  0  0  0  0  0  0  0  0  0  0
   38.9460   32.8760   44.5050 C   0  0  0  0  0  0  0  0  0  0  0  0
   39.4180   33.7510   44.9330 H   0  0  0  0  0  0  0  0  0  0  0  0
   38.2630   32.6920   43.3510 N   0  0  0  0  0  0  0  0  0  0  0  0
   38.0930   33.4660   42.6610 H   0  0  0  0  0  0  0  0  0  0  0  0
   37.8530   31.4240   43.2300 C   0  0  0  0  0  0  0  0  0  0  0  0
   37.2940   30.9870   42.4270 H   0  0  0  0  0  0  0  0  0  0  0  0
   38.2880   30.7770   44.3410 N   0  0  0  0  0  0  0  0  0  0  0  0
  1  9  1  0  0  0  0
  1  2  1  0  0  0  0
  2  7  1  0  0  0  0
  3  8  1  0  0  0  0
  3  2  2  0  0  0  0
  4  3  1  0  0  0  0
  5  4  2  0  0  0  0
  5  6  1  0  0  0  0
  6  1  2  0  0  0  0
  9 12  1  0  0  0  0
  9 11  1  0  0  0  0
 10  9  1  0  0  0  0
 10 11  1  0  0  0  0
 11 15  1  0  0  0  0
 11 16  1  0  0  0  0
 13 10  1  0  0  0  0
 14 10  1  0  0  0  0
 17 19  1  0  0  0  0
 17 18  1  0  0  0  0
 17  5  1  0  0  0  0
 20 17  1  0  0  0  0
 21 22  1  0  0  0  0
 21 20  2  0  0  0  0
 23 21  1  0  0  0  0
 24 23  1  0  0  0  0
 25 23  1  0  0  0  0
 25 27  2  0  0  0  0
 26 25  1  0  0  0  0
 27 20  1  0  0  0  0
M  END
>  <minimizedAffinity>
-5.03409529

>  <minimizedRMSD>
0.810616732

$$$$
