
 OpenBabel03272504203D

 26 27  0  0  0  0  0  0  0  0999 V2000
   35.5750   30.6870   50.0270 O   0  0  0  0  0  0  0  0  0  0  0  0
   34.6630   29.6650   50.0690 C   0  0  0  0  0  0  0  0  0  0  0  0
   33.8480   29.9460   50.7980 H   0  0  0  0  0  0  0  0  0  0  0  0
   35.0660   28.7070   50.4640 H   0  0  0  0  0  0  0  0  0  0  0  0
   34.0890   29.3370   48.7400 C   0  0  0  0  0  0  0  0  0  0  0  0
   34.3050   30.2460   47.7100 C   0  0  0  0  0  0  0  0  0  0  0  0
   33.7660   29.9470   46.4480 C   0  0  0  0  0  0  0  0  0  0  0  0
   33.0690   28.7900   46.3150 N   0  0  0  0  0  0  0  0  0  0  0  0
   32.8740   27.9300   47.3230 C   0  0  0  0  0  0  0  0  0  0  0  0
   33.3840   28.2080   48.5280 N   0  0  0  0  0  0  0  0  0  0  0  0
   34.8590   31.1750   47.7960 H   0  0  0  0  0  0  0  0  0  0  0  0
   33.8960   30.6070   45.6040 H   0  0  0  0  0  0  0  0  0  0  0  0
   32.3170   27.0090   47.2130 H   0  0  0  0  0  0  0  0  0  0  0  0
   37.0310   28.5010   50.0490 O   0  0  0  0  0  0  0  0  0  0  0  0
   37.1220   30.0040   50.0660 P   0  0  2  0  0  0  0  0  0  0  0  0
   37.9020   30.4470   51.5230 O   0  0  0  0  0  0  0  0  0  0  0  0
   38.1460   31.4010   51.4170 H   0  0  0  0  0  0  0  0  0  0  0  0
   38.0420   30.5190   48.7400 O   0  0  0  0  0  0  0  0  0  0  0  0
   38.5200   31.8280   48.6920 C   0  0  0  0  0  0  0  0  0  0  0  0
   38.9620   32.4040   47.5160 C   0  0  0  0  0  0  0  0  0  0  0  0
   39.0360   32.0280   46.4870 H   0  0  0  0  0  0  0  0  0  0  0  0
   39.3700   33.6760   47.7500 N   0  0  0  0  0  0  0  0  0  0  0  0
   39.7630   34.4440   47.1630 H   0  0  0  0  0  0  0  0  0  0  0  0
   39.1820   33.8990   49.0760 C   0  0  0  0  0  0  0  0  0  0  0  0
   39.3450   34.7430   49.7590 H   0  0  0  0  0  0  0  0  0  0  0  0
   38.6750   32.7860   49.6170 N   0  0  0  0  0  0  0  0  0  0  0  0
  1 15  1  0  0  0  0
  1  2  1  0  0  0  0
  2  4  1  0  0  0  0
  2  3  1  0  0  0  0
  5  2  1  0  0  0  0
  6 11  1  0  0  0  0
  6  5  2  0  0  0  0
  7  6  1  0  0  0  0
  8  7  2  0  0  0  0
  8  9  1  0  0  0  0
  9 10  2  0  0  0  0
 10  5  1  0  0  0  0
 12  7  1  0  0  0  0
 13  9  1  0  0  0  0
 15 14  2  6  0  0  0
 15 16  1  0  0  0  0
 17 16  1  0  0  0  0
 18 15  1  0  0  0  0
 19 18  1  0  0  0  0
 19 26  1  0  0  0  0
 20 22  1  0  0  0  0
 20 19  2  0  0  0  0
 21 20  1  0  0  0  0
 22 24  1  0  0  0  0
 23 22  1  0  0  0  0
 24 26  2  0  0  0  0
 24 25  1  0  0  0  0
M  END
>  <minimizedAffinity>
-4.49402618

>  <minimizedRMSD>
2.63763356

$$$$
