
 OpenBabel03272510293D

 27 29  0  0  0  0  0  0  0  0999 V2000
   37.3670   31.3760   49.2260 C   0  0  0  0  0  0  0  0  0  0  0  0
   37.7070   32.6450   49.6950 C   0  0  0  0  0  0  0  0  0  0  0  0
   38.6150   33.3470   48.9190 C   0  0  0  0  0  0  0  0  0  0  0  0
   39.1140   32.7890   47.7760 N   0  0  0  0  0  0  0  0  0  0  0  0
   38.7560   31.5440   47.3500 C   0  0  0  0  0  0  0  0  0  0  0  0
   37.8610   30.8260   48.1010 N   0  0  0  0  0  0  0  0  0  0  0  0
   37.3030   33.0630   50.5940 H   0  0  0  0  0  0  0  0  0  0  0  0
   38.9540   34.3230   49.1690 H   0  0  0  0  0  0  0  0  0  0  0  0
   36.3590   30.5900   50.0220 C   0  0  0  0  0  0  0  0  0  0  0  0
   36.2410   29.1560   49.9250 C   0  0  0  0  0  0  0  0  0  0  0  0
   36.9990   29.7180   51.1060 C   0  0  0  0  0  0  0  0  0  0  0  0
   35.4620   31.1750   50.3840 H   0  0  0  0  0  0  0  0  0  0  0  0
   35.2960   28.6360   50.0690 H   0  0  0  0  0  0  0  0  0  0  0  0
   36.8820   28.6530   49.1530 H   0  0  0  0  0  0  0  0  0  0  0  0
   38.0860   29.6720   51.1580 H   0  0  0  0  0  0  0  0  0  0  0  0
   36.4230   29.6320   52.0480 H   0  0  0  0  0  0  0  0  0  0  0  0
   39.2570   30.9080   46.1360 C   0  0  0  0  0  0  0  0  0  0  0  0
   40.3250   31.2460   46.0110 H   0  0  0  0  0  0  0  0  0  0  0  0
   39.2890   29.8270   46.2880 H   0  0  0  0  0  0  0  0  0  0  0  0
   38.4550   31.2700   44.9250 C   0  0  0  0  0  0  0  0  0  0  0  0
   38.7090   32.1250   43.8750 C   0  0  0  0  0  0  0  0  0  0  0  0
   39.6240   32.6970   43.7980 H   0  0  0  0  0  0  0  0  0  0  0  0
   37.6210   32.0480   43.0720 N   0  0  0  0  0  0  0  0  0  0  0  0
   37.5330   32.5990   42.1820 H   0  0  0  0  0  0  0  0  0  0  0  0
   36.7150   31.1980   43.5680 C   0  0  0  0  0  0  0  0  0  0  0  0
   35.7630   30.9360   43.1520 H   0  0  0  0  0  0  0  0  0  0  0  0
   37.2400   30.7150   44.7240 N   0  0  0  0  0  0  0  0  0  0  0  0
  1  2  1  0  0  0  0
  1  9  1  0  0  0  0
  2  7  1  0  0  0  0
  3  8  1  0  0  0  0
  3  2  2  0  0  0  0
  4  3  1  0  0  0  0
  5  4  2  0  0  0  0
  5  6  1  0  0  0  0
  6  1  2  0  0  0  0
  9 12  1  0  0  0  0
  9 11  1  0  0  0  0
 10  9  1  0  0  0  0
 10 13  1  0  0  0  0
 10 11  1  0  0  0  0
 11 15  1  0  0  0  0
 11 16  1  0  0  0  0
 14 10  1  0  0  0  0
 17 19  1  0  0  0  0
 17  5  1  0  0  0  0
 18 17  1  0  0  0  0
 20 17  1  0  0  0  0
 21 20  2  0  0  0  0
 22 21  1  0  0  0  0
 23 25  1  0  0  0  0
 23 21  1  0  0  0  0
 24 23  1  0  0  0  0
 25 27  2  0  0  0  0
 26 25  1  0  0  0  0
 27 20  1  0  0  0  0
M  END
>  <minimizedAffinity>
-4.84298754

>  <minimizedRMSD>
0.273027509

$$$$
