
 OpenBabel03272510113D

 34 37  0  0  0  0  0  0  0  0999 V2000
   33.4510   28.5240   48.1880 C   0  0  0  0  0  0  0  0  0  0  0  0
   34.0730   28.0180   49.2750 C   0  0  0  0  0  0  0  0  0  0  0  0
   35.3070   28.4170   49.7380 C   0  0  0  0  0  0  0  0  0  0  0  0
   35.9930   29.3990   49.0780 C   0  0  0  0  0  0  0  0  0  0  0  0
   35.3540   29.9250   47.9540 C   0  0  0  0  0  0  0  0  0  0  0  0
   34.1490   29.5010   47.5420 N   0  0  0  0  0  0  0  0  0  0  0  0
   33.6080   27.2390   49.8610 H   0  0  0  0  0  0  0  0  0  0  0  0
   35.7950   28.0030   50.6130 H   0  0  0  0  0  0  0  0  0  0  0  0
   35.8580   30.7120   47.3870 H   0  0  0  0  0  0  0  0  0  0  0  0
   31.3790   27.1080   48.3290 C   0  0  0  0  0  0  0  0  0  0  0  0
   32.1680   28.1040   47.7130 C   0  0  0  0  0  0  0  0  0  0  0  0
   31.6290   28.6830   46.5830 C   0  0  0  0  0  0  0  0  0  0  0  0
   30.4060   28.2920   46.1180 N   0  0  0  0  0  0  0  0  0  0  0  0
   29.7040   27.3350   46.7540 C   0  0  0  0  0  0  0  0  0  0  0  0
   30.1790   26.7400   47.8540 N   0  0  0  0  0  0  0  0  0  0  0  0
   31.7730   26.6360   49.2170 H   0  0  0  0  0  0  0  0  0  0  0  0
   32.2140   29.4520   46.0870 H   0  0  0  0  0  0  0  0  0  0  0  0
   28.7650   27.1670   46.2340 H   0  0  0  0  0  0  0  0  0  0  0  0
   37.2440   29.9190   49.4070 O   0  0  0  0  0  0  0  0  0  0  0  0
   37.8630   30.8690   48.6000 C   0  0  0  0  0  0  0  0  0  0  0  0
   38.2640   32.0250   49.2860 C   0  0  0  0  0  0  0  0  0  0  0  0
   38.8620   32.8860   48.3840 C   0  0  0  0  0  0  0  0  0  0  0  0
   38.8080   32.2460   47.2070 N   0  0  0  0  0  0  0  0  0  0  0  0
   38.2310   31.0750   47.3220 N   0  0  0  0  0  0  0  0  0  0  0  0
   38.2020   32.3600   50.3350 H   0  0  0  0  0  0  0  0  0  0  0  0
   39.3120   33.8600   48.4310 H   0  0  0  0  0  0  0  0  0  0  0  0
   39.2810   32.6740   45.9260 C   0  0  0  0  0  0  0  0  0  0  0  0
   40.3820   33.2890   45.3780 C   0  0  0  0  0  0  0  0  0  0  0  0
   41.1630   33.5530   46.0830 H   0  0  0  0  0  0  0  0  0  0  0  0
   40.1540   33.3860   44.0630 N   0  0  0  0  0  0  0  0  0  0  0  0
   40.8810   33.8300   43.4630 H   0  0  0  0  0  0  0  0  0  0  0  0
   38.9570   32.8590   43.7600 C   0  0  0  0  0  0  0  0  0  0  0  0
   38.5440   32.8220   42.7390 H   0  0  0  0  0  0  0  0  0  0  0  0
   38.4110   32.4170   44.9060 N   0  0  0  0  0  0  0  0  0  0  0  0
  1  2  1  0  0  0  0
  2  3  2  0  0  0  0
  2  7  1  0  0  0  0
  3  8  1  0  0  0  0
  4 19  1  0  0  0  0
  4  3  1  0  0  0  0
  5  4  2  0  0  0  0
  6  5  1  0  0  0  0
  6  1  2  0  0  0  0
  9  5  1  0  0  0  0
 10 16  1  0  0  0  0
 11  1  1  0  0  0  0
 11 10  2  0  0  0  0
 12 11  1  0  0  0  0
 13 12  2  0  0  0  0
 13 14  1  0  0  0  0
 14 15  2  0  0  0  0
 15 10  1  0  0  0  0
 17 12  1  0  0  0  0
 18 14  1  0  0  0  0
 20 21  1  0  0  0  0
 20 19  1  0  0  0  0
 21 25  1  0  0  0  0
 22 26  1  0  0  0  0
 22 21  2  0  0  0  0
 23 24  1  0  0  0  0
 23 22  1  0  0  0  0
 24 20  2  0  0  0  0
 27 23  1  0  0  0  0
 28 27  2  0  0  0  0
 28 29  1  0  0  0  0
 30 28  1  0  0  0  0
 31 30  1  0  0  0  0
 32 30  1  0  0  0  0
 32 34  2  0  0  0  0
 33 32  1  0  0  0  0
 34 27  1  0  0  0  0
M  END
>  <minimizedAffinity>
-5.85670519

>  <minimizedRMSD>
1.14929593

$$$$
