
 OpenBabel03272510123D

 34 37  0  0  0  0  0  0  0  0999 V2000
   36.1060   23.9500   31.7540 C   0  0  0  0  0  0  0  0  0  0  0  0
   35.2570   24.7110   31.0290 C   0  0  0  0  0  0  0  0  0  0  0  0
   35.2620   26.0870   30.9920 C   0  0  0  0  0  0  0  0  0  0  0  0
   36.1820   26.7810   31.7300 C   0  0  0  0  0  0  0  0  0  0  0  0
   37.0610   25.9980   32.4800 C   0  0  0  0  0  0  0  0  0  0  0  0
   37.0140   24.6580   32.4840 N   0  0  0  0  0  0  0  0  0  0  0  0
   34.4970   24.2520   30.4140 H   0  0  0  0  0  0  0  0  0  0  0  0
   34.5760   26.6850   30.4050 H   0  0  0  0  0  0  0  0  0  0  0  0
   37.8160   26.5010   33.0900 H   0  0  0  0  0  0  0  0  0  0  0  0
   35.1270   21.7480   32.4690 C   0  0  0  0  0  0  0  0  0  0  0  0
   36.0940   22.5190   31.7870 C   0  0  0  0  0  0  0  0  0  0  0  0
   37.0710   21.8070   31.1240 C   0  0  0  0  0  0  0  0  0  0  0  0
   37.0720   20.4410   31.1470 N   0  0  0  0  0  0  0  0  0  0  0  0
   36.1190   19.7660   31.8180 C   0  0  0  0  0  0  0  0  0  0  0  0
   35.1480   20.4070   32.4790 N   0  0  0  0  0  0  0  0  0  0  0  0
   34.3480   22.2770   32.9980 H   0  0  0  0  0  0  0  0  0  0  0  0
   37.8290   22.3730   30.5900 H   0  0  0  0  0  0  0  0  0  0  0  0
   36.2920   18.6980   31.7170 H   0  0  0  0  0  0  0  0  0  0  0  0
   36.3260   28.1650   31.8080 O   0  0  0  0  0  0  0  0  0  0  0  0
   35.6390   28.9060   32.7650 C   0  0  0  0  0  0  0  0  0  0  0  0
   34.2500   28.9360   32.5720 C   0  0  0  0  0  0  0  0  0  0  0  0
   33.6830   29.6970   33.5790 C   0  0  0  0  0  0  0  0  0  0  0  0
   34.7160   30.0970   34.3340 N   0  0  0  0  0  0  0  0  0  0  0  0
   35.8550   29.6430   33.8700 N   0  0  0  0  0  0  0  0  0  0  0  0
   33.5650   28.5010   31.8260 H   0  0  0  0  0  0  0  0  0  0  0  0
   32.6890   30.0000   33.8490 H   0  0  0  0  0  0  0  0  0  0  0  0
   34.7110   30.9100   35.5120 C   0  0  0  0  0  0  0  0  0  0  0  0
   35.5860   31.6620   36.2600 C   0  0  0  0  0  0  0  0  0  0  0  0
   36.6070   31.6830   35.8930 H   0  0  0  0  0  0  0  0  0  0  0  0
   34.8820   32.1730   37.2750 N   0  0  0  0  0  0  0  0  0  0  0  0
   35.3720   32.7820   37.9640 H   0  0  0  0  0  0  0  0  0  0  0  0
   33.6020   31.7770   37.1990 C   0  0  0  0  0  0  0  0  0  0  0  0
   32.8260   32.0690   37.9250 H   0  0  0  0  0  0  0  0  0  0  0  0
   33.4870   30.9950   36.1130 N   0  0  0  0  0  0  0  0  0  0  0  0
  1 11  1  0  0  0  0
  1  6  1  0  0  0  0
  2  1  2  0  0  0  0
  3  2  1  0  0  0  0
  3  4  2  0  0  0  0
  4 19  1  0  0  0  0
  4  5  1  0  0  0  0
  5  6  2  0  0  0  0
  5  9  1  0  0  0  0
  7  2  1  0  0  0  0
  8  3  1  0  0  0  0
 10 15  1  0  0  0  0
 10 16  1  0  0  0  0
 11 10  2  0  0  0  0
 12 13  2  0  0  0  0
 12 11  1  0  0  0  0
 13 14  1  0  0  0  0
 14 15  2  0  0  0  0
 17 12  1  0  0  0  0
 18 14  1  0  0  0  0
 19 20  1  0  0  0  0
 20 24  2  0  0  0  0
 21 20  1  0  0  0  0
 21 22  2  0  0  0  0
 22 26  1  0  0  0  0
 22 23  1  0  0  0  0
 23 27  1  0  0  0  0
 24 23  1  0  0  0  0
 25 21  1  0  0  0  0
 27 34  1  0  0  0  0
 27 28  2  0  0  0  0
 28 30  1  0  0  0  0
 29 28  1  0  0  0  0
 30 31  1  0  0  0  0
 32 30  1  0  0  0  0
 32 33  1  0  0  0  0
 34 32  2  0  0  0  0
M  END
>  <minimizedAffinity>
-5.51839542

$$$$

 OpenBabel03272510123D

 34 37  0  0  0  0  0  0  0  0999 V2000
   38.5750   25.3590   35.3990 C   0  0  0  0  0  0  0  0  0  0  0  0
   38.4840   26.6140   35.8880 C   0  0  0  0  0  0  0  0  0  0  0  0
   37.8040   27.6500   35.2880 C   0  0  0  0  0  0  0  0  0  0  0  0
   37.1540   27.4370   34.1030 C   0  0  0  0  0  0  0  0  0  0  0  0
   37.2460   26.1410   33.5940 C   0  0  0  0  0  0  0  0  0  0  0  0
   37.9230   25.1650   34.2170 N   0  0  0  0  0  0  0  0  0  0  0  0
   38.9640   26.8770   36.8190 H   0  0  0  0  0  0  0  0  0  0  0  0
   37.7380   28.6530   35.6920 H   0  0  0  0  0  0  0  0  0  0  0  0
   36.7460   25.9160   32.6490 H   0  0  0  0  0  0  0  0  0  0  0  0
   40.4390   23.6750   35.4940 C   0  0  0  0  0  0  0  0  0  0  0  0
   39.2840   24.2870   36.0290 C   0  0  0  0  0  0  0  0  0  0  0  0
   38.8460   23.7880   37.2380 C   0  0  0  0  0  0  0  0  0  0  0  0
   39.5130   22.7660   37.8510 N   0  0  0  0  0  0  0  0  0  0  0  0
   40.6090   22.2260   37.2860 C   0  0  0  0  0  0  0  0  0  0  0  0
   41.0780   22.6710   36.1140 N   0  0  0  0  0  0  0  0  0  0  0  0
   40.8070   24.0430   34.5480 H   0  0  0  0  0  0  0  0  0  0  0  0
   37.9590   24.2400   37.6740 H   0  0  0  0  0  0  0  0  0  0  0  0
   40.9920   21.4330   37.9210 H   0  0  0  0  0  0  0  0  0  0  0  0
   36.4250   28.3680   33.3650 O   0  0  0  0  0  0  0  0  0  0  0  0
   35.6100   29.3050   33.9950 C   0  0  0  0  0  0  0  0  0  0  0  0
   34.3310   29.4190   33.4290 C   0  0  0  0  0  0  0  0  0  0  0  0
   33.6220   30.3730   34.1370 C   0  0  0  0  0  0  0  0  0  0  0  0
   34.4680   30.8000   35.0850 N   0  0  0  0  0  0  0  0  0  0  0  0
   35.6240   30.1860   35.0120 N   0  0  0  0  0  0  0  0  0  0  0  0
   33.8130   28.9300   32.5880 H   0  0  0  0  0  0  0  0  0  0  0  0
   32.6370   30.7960   34.0840 H   0  0  0  0  0  0  0  0  0  0  0  0
   34.2590   31.7860   36.1020 C   0  0  0  0  0  0  0  0  0  0  0  0
   33.5340   31.9480   37.2590 C   0  0  0  0  0  0  0  0  0  0  0  0
   32.9120   31.1040   37.5370 H   0  0  0  0  0  0  0  0  0  0  0  0
   33.8240   33.1670   37.7260 N   0  0  0  0  0  0  0  0  0  0  0  0
   33.3700   33.4840   38.6080 H   0  0  0  0  0  0  0  0  0  0  0  0
   34.7010   33.7800   36.9150 C   0  0  0  0  0  0  0  0  0  0  0  0
   35.0920   34.7940   37.0890 H   0  0  0  0  0  0  0  0  0  0  0  0
   34.9750   32.9330   35.9080 N   0  0  0  0  0  0  0  0  0  0  0  0
  1  2  1  0  0  0  0
  1 11  1  0  0  0  0
  2  7  1  0  0  0  0
  3  8  1  0  0  0  0
  3  2  2  0  0  0  0
  4  3  1  0  0  0  0
  5  4  2  0  0  0  0
  5  6  1  0  0  0  0
  6  1  2  0  0  0  0
  9  5  1  0  0  0  0
 10 11  2  0  0  0  0
 10 15  1  0  0  0  0
 11 12  1  0  0  0  0
 12 17  1  0  0  0  0
 12 13  2  0  0  0  0
 14 13  1  0  0  0  0
 14 18  1  0  0  0  0
 15 14  2  0  0  0  0
 16 10  1  0  0  0  0
 19 20  1  0  0  0  0
 19  4  1  0  0  0  0
 20 24  2  0  0  0  0
 21 20  1  0  0  0  0
 21 22  2  0  0  0  0
 22 23  1  0  0  0  0
 23 27  1  0  0  0  0
 24 23  1  0  0  0  0
 25 21  1  0  0  0  0
 26 22  1  0  0  0  0
 27 28  2  0  0  0  0
 28 29  1  0  0  0  0
 28 30  1  0  0  0  0
 30 31  1  0  0  0  0
 32 33  1  0  0  0  0
 32 30  1  0  0  0  0
 34 27  1  0  0  0  0
 34 32  2  0  0  0  0
M  END
>  <minimizedAffinity>
-5.48700523

$$$$

 OpenBabel03272510123D

 34 37  0  0  0  0  0  0  0  0999 V2000
   34.4430   29.2190   32.9180 C   0  0  0  0  0  0  0  0  0  0  0  0
   35.0830   29.1450   34.1050 C   0  0  0  0  0  0  0  0  0  0  0  0
   36.2910   28.5200   34.3160 C   0  0  0  0  0  0  0  0  0  0  0  0
   36.9310   27.9130   33.2710 C   0  0  0  0  0  0  0  0  0  0  0  0
   36.2740   27.9860   32.0420 C   0  0  0  0  0  0  0  0  0  0  0  0
   35.0950   28.6080   31.8870 N   0  0  0  0  0  0  0  0  0  0  0  0
   34.6550   29.5970   34.9880 H   0  0  0  0  0  0  0  0  0  0  0  0
   36.7940   28.4700   35.2750 H   0  0  0  0  0  0  0  0  0  0  0  0
   36.7400   27.5170   31.1720 H   0  0  0  0  0  0  0  0  0  0  0  0
   32.9940   30.9600   31.8290 C   0  0  0  0  0  0  0  0  0  0  0  0
   33.1870   29.8700   32.7060 C   0  0  0  0  0  0  0  0  0  0  0  0
   32.0650   29.4380   33.3820 C   0  0  0  0  0  0  0  0  0  0  0  0
   30.8590   30.0500   33.1900 N   0  0  0  0  0  0  0  0  0  0  0  0
   30.7440   31.0870   32.3380 C   0  0  0  0  0  0  0  0  0  0  0  0
   31.8000   31.5460   31.6560 N   0  0  0  0  0  0  0  0  0  0  0  0
   33.8540   31.3220   31.2840 H   0  0  0  0  0  0  0  0  0  0  0  0
   32.1830   28.6010   34.0650 H   0  0  0  0  0  0  0  0  0  0  0  0
   29.7150   31.4330   32.3240 H   0  0  0  0  0  0  0  0  0  0  0  0
   38.1510   27.2390   33.3080 O   0  0  0  0  0  0  0  0  0  0  0  0
   38.3040   26.0700   34.0490 C   0  0  0  0  0  0  0  0  0  0  0  0
   37.9690   24.9040   33.3450 C   0  0  0  0  0  0  0  0  0  0  0  0
   38.1610   23.8170   34.1800 C   0  0  0  0  0  0  0  0  0  0  0  0
   38.5950   24.3410   35.3350 N   0  0  0  0  0  0  0  0  0  0  0  0
   38.6820   25.6470   35.2690 N   0  0  0  0  0  0  0  0  0  0  0  0
   37.6070   24.6950   32.3250 H   0  0  0  0  0  0  0  0  0  0  0  0
   38.0440   22.7530   34.0970 H   0  0  0  0  0  0  0  0  0  0  0  0
   38.9510   23.6730   36.5500 C   0  0  0  0  0  0  0  0  0  0  0  0
   39.8310   22.7120   36.9880 C   0  0  0  0  0  0  0  0  0  0  0  0
   40.4780   22.2950   36.2230 H   0  0  0  0  0  0  0  0  0  0  0  0
   39.6160   22.5630   38.2990 N   0  0  0  0  0  0  0  0  0  0  0  0
   40.1920   21.8710   38.8230 H   0  0  0  0  0  0  0  0  0  0  0  0
   38.6410   23.3910   38.7070 C   0  0  0  0  0  0  0  0  0  0  0  0
   38.2840   23.4520   39.7470 H   0  0  0  0  0  0  0  0  0  0  0  0
   38.2230   24.0800   37.6320 N   0  0  0  0  0  0  0  0  0  0  0  0
  1  2  1  0  0  0  0
  2  3  2  0  0  0  0
  2  7  1  0  0  0  0
  3  8  1  0  0  0  0
  4 19  1  0  0  0  0
  4  3  1  0  0  0  0
  5  4  2  0  0  0  0
  6  5  1  0  0  0  0
  6  1  2  0  0  0  0
  9  5  1  0  0  0  0
 10 11  1  0  0  0  0
 11  1  1  0  0  0  0
 11 12  2  0  0  0  0
 12 17  1  0  0  0  0
 13 12  1  0  0  0  0
 14 13  2  0  0  0  0
 15 10  2  0  0  0  0
 15 14  1  0  0  0  0
 16 10  1  0  0  0  0
 18 14  1  0  0  0  0
 19 20  1  0  0  0  0
 20 24  2  0  0  0  0
 21 20  1  0  0  0  0
 21 22  2  0  0  0  0
 22 23  1  0  0  0  0
 23 27  1  0  0  0  0
 24 23  1  0  0  0  0
 25 21  1  0  0  0  0
 26 22  1  0  0  0  0
 27 28  2  0  0  0  0
 27 34  1  0  0  0  0
 28 30  1  0  0  0  0
 29 28  1  0  0  0  0
 30 32  1  0  0  0  0
 30 31  1  0  0  0  0
 32 33  1  0  0  0  0
 34 32  2  0  0  0  0
M  END
>  <minimizedAffinity>
-5.40935421

$$$$

 OpenBabel03272510123D

 34 37  0  0  0  0  0  0  0  0999 V2000
   35.5960   29.2220   33.9910 C   0  0  0  0  0  0  0  0  0  0  0  0
   36.4680   28.2380   34.2960 C   0  0  0  0  0  0  0  0  0  0  0  0
   36.9470   27.3010   33.4080 C   0  0  0  0  0  0  0  0  0  0  0  0
   36.5340   27.3310   32.1040 C   0  0  0  0  0  0  0  0  0  0  0  0
   35.6320   28.3460   31.7840 C   0  0  0  0  0  0  0  0  0  0  0  0
   35.1940   29.2360   32.6880 N   0  0  0  0  0  0  0  0  0  0  0  0
   36.8510   28.1350   35.3010 H   0  0  0  0  0  0  0  0  0  0  0  0
   37.6480   26.5160   33.6670 H   0  0  0  0  0  0  0  0  0  0  0  0
   35.2680   28.4160   30.7560 H   0  0  0  0  0  0  0  0  0  0  0  0
   35.9230   31.0560   35.6780 C   0  0  0  0  0  0  0  0  0  0  0  0
   35.1030   30.1930   34.9200 C   0  0  0  0  0  0  0  0  0  0  0  0
   33.7440   30.3280   35.1180 C   0  0  0  0  0  0  0  0  0  0  0  0
   33.2590   31.2510   36.0010 N   0  0  0  0  0  0  0  0  0  0  0  0
   34.0980   32.0440   36.6940 C   0  0  0  0  0  0  0  0  0  0  0  0
   35.4250   31.9550   36.5410 N   0  0  0  0  0  0  0  0  0  0  0  0
   36.9920   30.9750   35.5450 H   0  0  0  0  0  0  0  0  0  0  0  0
   33.0880   29.6770   34.5480 H   0  0  0  0  0  0  0  0  0  0  0  0
   33.5240   32.7040   37.3380 H   0  0  0  0  0  0  0  0  0  0  0  0
   36.9160   26.4640   31.0820 O   0  0  0  0  0  0  0  0  0  0  0  0
   36.8930   25.0830   31.2630 C   0  0  0  0  0  0  0  0  0  0  0  0
   37.9030   24.4020   30.5690 C   0  0  0  0  0  0  0  0  0  0  0  0
   37.7780   23.0480   30.8280 C   0  0  0  0  0  0  0  0  0  0  0  0
   36.7230   22.9500   31.6500 N   0  0  0  0  0  0  0  0  0  0  0  0
   36.2040   24.1250   31.9090 N   0  0  0  0  0  0  0  0  0  0  0  0
   38.7240   24.7110   29.9010 H   0  0  0  0  0  0  0  0  0  0  0  0
   38.2980   22.1570   30.5340 H   0  0  0  0  0  0  0  0  0  0  0  0
   36.1430   21.7800   32.2360 C   0  0  0  0  0  0  0  0  0  0  0  0
   36.1540   21.1040   33.4330 C   0  0  0  0  0  0  0  0  0  0  0  0
   36.7730   21.5440   34.2070 H   0  0  0  0  0  0  0  0  0  0  0  0
   35.3550   20.0420   33.2820 N   0  0  0  0  0  0  0  0  0  0  0  0
   35.2280   19.3950   34.0880 H   0  0  0  0  0  0  0  0  0  0  0  0
   34.8400   20.0220   32.0420 C   0  0  0  0  0  0  0  0  0  0  0  0
   34.1510   19.2430   31.6770 H   0  0  0  0  0  0  0  0  0  0  0  0
   35.3220   21.0920   31.3890 N   0  0  0  0  0  0  0  0  0  0  0  0
  1  2  1  0  0  0  0
  1 11  1  0  0  0  0
  2  7  1  0  0  0  0
  3  8  1  0  0  0  0
  3  2  2  0  0  0  0
  4  3  1  0  0  0  0
  5  4  2  0  0  0  0
  5  6  1  0  0  0  0
  6  1  2  0  0  0  0
  9  5  1  0  0  0  0
 10 15  1  0  0  0  0
 11 12  1  0  0  0  0
 11 10  2  0  0  0  0
 12 13  2  0  0  0  0
 13 14  1  0  0  0  0
 14 18  1  0  0  0  0
 15 14  2  0  0  0  0
 16 10  1  0  0  0  0
 17 12  1  0  0  0  0
 19 20  1  0  0  0  0
 19  4  1  0  0  0  0
 20 24  2  0  0  0  0
 21 22  2  0  0  0  0
 21 20  1  0  0  0  0
 22 23  1  0  0  0  0
 23 24  1  0  0  0  0
 23 27  1  0  0  0  0
 25 21  1  0  0  0  0
 26 22  1  0  0  0  0
 27 28  2  0  0  0  0
 28 29  1  0  0  0  0
 30 28  1  0  0  0  0
 30 31  1  0  0  0  0
 32 30  1  0  0  0  0
 33 32  1  0  0  0  0
 34 32  2  0  0  0  0
 34 27  1  0  0  0  0
M  END
>  <minimizedAffinity>
-5.3881216

$$$$

 OpenBabel03272510123D

 34 37  0  0  0  0  0  0  0  0999 V2000
   38.3550   25.5840   35.4400 C   0  0  0  0  0  0  0  0  0  0  0  0
   38.2690   26.8400   35.9290 C   0  0  0  0  0  0  0  0  0  0  0  0
   37.6100   27.8830   35.3190 C   0  0  0  0  0  0  0  0  0  0  0  0
   36.9780   27.6780   34.1230 C   0  0  0  0  0  0  0  0  0  0  0  0
   37.0650   26.3810   33.6140 C   0  0  0  0  0  0  0  0  0  0  0  0
   37.7210   25.3980   34.2480 N   0  0  0  0  0  0  0  0  0  0  0  0
   38.7360   27.0970   36.8690 H   0  0  0  0  0  0  0  0  0  0  0  0
   37.5470   28.8870   35.7220 H   0  0  0  0  0  0  0  0  0  0  0  0
   36.5790   26.1620   32.6600 H   0  0  0  0  0  0  0  0  0  0  0  0
   40.2130   23.8970   35.5770 C   0  0  0  0  0  0  0  0  0  0  0  0
   39.0430   24.5050   36.0810 C   0  0  0  0  0  0  0  0  0  0  0  0
   38.5660   23.9940   37.2700 C   0  0  0  0  0  0  0  0  0  0  0  0
   39.2110   22.9640   37.8930 N   0  0  0  0  0  0  0  0  0  0  0  0
   40.3250   22.4280   37.3580 C   0  0  0  0  0  0  0  0  0  0  0  0
   40.8310   22.8850   36.2060 N   0  0  0  0  0  0  0  0  0  0  0  0
   40.6120   24.2740   34.6470 H   0  0  0  0  0  0  0  0  0  0  0  0
   37.6660   24.4420   37.6830 H   0  0  0  0  0  0  0  0  0  0  0  0
   40.6860   21.6280   37.9970 H   0  0  0  0  0  0  0  0  0  0  0  0
   36.2710   28.6170   33.3730 O   0  0  0  0  0  0  0  0  0  0  0  0
   35.2880   29.4110   33.9590 C   0  0  0  0  0  0  0  0  0  0  0  0
   35.5250   30.7880   33.8400 C   0  0  0  0  0  0  0  0  0  0  0  0
   34.4880   31.4670   34.4550 C   0  0  0  0  0  0  0  0  0  0  0  0
   33.6740   30.5070   34.9170 N   0  0  0  0  0  0  0  0  0  0  0  0
   34.1290   29.3110   34.6340 N   0  0  0  0  0  0  0  0  0  0  0  0
   36.3220   31.3980   33.3830 H   0  0  0  0  0  0  0  0  0  0  0  0
   34.2320   32.4960   34.6190 H   0  0  0  0  0  0  0  0  0  0  0  0
   32.4430   30.6390   35.6370 C   0  0  0  0  0  0  0  0  0  0  0  0
   31.9980   31.0780   36.8620 C   0  0  0  0  0  0  0  0  0  0  0  0
   32.7700   31.4480   37.5280 H   0  0  0  0  0  0  0  0  0  0  0  0
   30.6720   30.9070   36.8720 N   0  0  0  0  0  0  0  0  0  0  0  0
   30.1400   31.1840   37.7240 H   0  0  0  0  0  0  0  0  0  0  0  0
   30.2620   30.3820   35.7060 C   0  0  0  0  0  0  0  0  0  0  0  0
   29.2100   30.1510   35.4740 H   0  0  0  0  0  0  0  0  0  0  0  0
   31.3500   30.2130   34.9370 N   0  0  0  0  0  0  0  0  0  0  0  0
  1  2  1  0  0  0  0
  1 11  1  0  0  0  0
  2  7  1  0  0  0  0
  3  8  1  0  0  0  0
  3  2  2  0  0  0  0
  4  3  1  0  0  0  0
  5  4  2  0  0  0  0
  5  6  1  0  0  0  0
  6  1  2  0  0  0  0
  9  5  1  0  0  0  0
 10 11  2  0  0  0  0
 10 15  1  0  0  0  0
 11 12  1  0  0  0  0
 12 17  1  0  0  0  0
 12 13  2  0  0  0  0
 14 13  1  0  0  0  0
 14 18  1  0  0  0  0
 15 14  2  0  0  0  0
 16 10  1  0  0  0  0
 19 20  1  0  0  0  0
 19  4  1  0  0  0  0
 20 24  2  0  0  0  0
 21 20  1  0  0  0  0
 21 22  2  0  0  0  0
 22 26  1  0  0  0  0
 22 23  1  0  0  0  0
 23 27  1  0  0  0  0
 24 23  1  0  0  0  0
 25 21  1  0  0  0  0
 27 28  2  0  0  0  0
 28 30  1  0  0  0  0
 28 29  1  0  0  0  0
 30 31  1  0  0  0  0
 32 30  1  0  0  0  0
 33 32  1  0  0  0  0
 34 27  1  0  0  0  0
 34 32  2  0  0  0  0
M  END
>  <minimizedAffinity>
-5.32212305

$$$$

 OpenBabel03272510123D

 34 37  0  0  0  0  0  0  0  0999 V2000
   38.5940   25.3830   35.4110 C   0  0  0  0  0  0  0  0  0  0  0  0
   38.4930   26.6320   35.9140 C   0  0  0  0  0  0  0  0  0  0  0  0
   37.7390   27.6470   35.3690 C   0  0  0  0  0  0  0  0  0  0  0  0
   37.0190   27.4170   34.2280 C   0  0  0  0  0  0  0  0  0  0  0  0
   37.1210   26.1280   33.7040 C   0  0  0  0  0  0  0  0  0  0  0  0
   37.8720   25.1730   34.2740 N   0  0  0  0  0  0  0  0  0  0  0  0
   39.0250   26.9070   36.8130 H   0  0  0  0  0  0  0  0  0  0  0  0
   37.6650   28.6450   35.7840 H   0  0  0  0  0  0  0  0  0  0  0  0
   36.5680   25.8900   32.7930 H   0  0  0  0  0  0  0  0  0  0  0  0
   39.0140   23.6020   37.1340 C   0  0  0  0  0  0  0  0  0  0  0  0
   39.3810   24.3340   35.9840 C   0  0  0  0  0  0  0  0  0  0  0  0
   40.5830   23.9810   35.4070 C   0  0  0  0  0  0  0  0  0  0  0  0
   41.3440   22.9810   35.9420 N   0  0  0  0  0  0  0  0  0  0  0  0
   40.9350   22.3220   37.0430 C   0  0  0  0  0  0  0  0  0  0  0  0
   39.7780   22.6240   37.6440 N   0  0  0  0  0  0  0  0  0  0  0  0
   38.0770   23.8550   37.6100 H   0  0  0  0  0  0  0  0  0  0  0  0
   40.8920   24.5260   34.5200 H   0  0  0  0  0  0  0  0  0  0  0  0
   41.6720   21.5710   37.3120 H   0  0  0  0  0  0  0  0  0  0  0  0
   36.2100   28.3250   33.5480 O   0  0  0  0  0  0  0  0  0  0  0  0
   36.5370   28.7600   32.2660 C   0  0  0  0  0  0  0  0  0  0  0  0
   35.8110   29.8840   31.8440 C   0  0  0  0  0  0  0  0  0  0  0  0
   36.2230   30.2180   30.5660 C   0  0  0  0  0  0  0  0  0  0  0  0
   37.1630   29.3120   30.2580 N   0  0  0  0  0  0  0  0  0  0  0  0
   37.3520   28.4620   31.2380 N   0  0  0  0  0  0  0  0  0  0  0  0
   35.0280   30.5120   32.2990 H   0  0  0  0  0  0  0  0  0  0  0  0
   35.9690   30.9740   29.8480 H   0  0  0  0  0  0  0  0  0  0  0  0
   37.9290   29.1820   29.0560 C   0  0  0  0  0  0  0  0  0  0  0  0
   38.1890   29.8910   27.9070 C   0  0  0  0  0  0  0  0  0  0  0  0
   37.6860   30.8500   27.8330 H   0  0  0  0  0  0  0  0  0  0  0  0
   39.0290   29.1480   27.1790 N   0  0  0  0  0  0  0  0  0  0  0  0
   39.3500   29.5170   26.2590 H   0  0  0  0  0  0  0  0  0  0  0  0
   39.3120   28.0030   27.8200 C   0  0  0  0  0  0  0  0  0  0  0  0
   39.9830   27.2270   27.4200 H   0  0  0  0  0  0  0  0  0  0  0  0
   38.6360   28.0150   28.9810 N   0  0  0  0  0  0  0  0  0  0  0  0
  1  2  1  0  0  0  0
  1 11  1  0  0  0  0
  2  7  1  0  0  0  0
  3  8  1  0  0  0  0
  3  2  2  0  0  0  0
  4  3  1  0  0  0  0
  5  4  2  0  0  0  0
  5  6  1  0  0  0  0
  6  1  2  0  0  0  0
  9  5  1  0  0  0  0
 10 16  1  0  0  0  0
 10 15  1  0  0  0  0
 11 10  2  0  0  0  0
 12 13  2  0  0  0  0
 12 11  1  0  0  0  0
 13 14  1  0  0  0  0
 14 18  1  0  0  0  0
 14 15  2  0  0  0  0
 17 12  1  0  0  0  0
 19  4  1  0  0  0  0
 20 19  1  0  0  0  0
 21 20  1  0  0  0  0
 21 25  1  0  0  0  0
 22 21  2  0  0  0  0
 23 22  1  0  0  0  0
 23 24  1  0  0  0  0
 24 20  2  0  0  0  0
 26 22  1  0  0  0  0
 27 23  1  0  0  0  0
 28 27  2  0  0  0  0
 29 28  1  0  0  0  0
 30 32  1  0  0  0  0
 30 28  1  0  0  0  0
 31 30  1  0  0  0  0
 32 34  2  0  0  0  0
 33 32  1  0  0  0  0
 34 27  1  0  0  0  0
M  END
>  <minimizedAffinity>
-5.28763866

$$$$

 OpenBabel03272510123D

 34 37  0  0  0  0  0  0  0  0999 V2000
   35.4740   29.1220   32.2200 C   0  0  0  0  0  0  0  0  0  0  0  0
   36.2760   28.7620   31.1950 C   0  0  0  0  0  0  0  0  0  0  0  0
   37.4100   27.9900   31.3100 C   0  0  0  0  0  0  0  0  0  0  0  0
   37.7920   27.5280   32.5400 C   0  0  0  0  0  0  0  0  0  0  0  0
   36.9660   27.8980   33.6020 C   0  0  0  0  0  0  0  0  0  0  0  0
   35.8700   28.6540   33.4370 N   0  0  0  0  0  0  0  0  0  0  0  0
   36.0550   29.0790   30.1860 H   0  0  0  0  0  0  0  0  0  0  0  0
   38.0450   27.7080   30.4790 H   0  0  0  0  0  0  0  0  0  0  0  0
   37.2250   27.5570   34.6080 H   0  0  0  0  0  0  0  0  0  0  0  0
   33.0700   29.6490   32.7350 C   0  0  0  0  0  0  0  0  0  0  0  0
   34.2960   29.9260   32.0910 C   0  0  0  0  0  0  0  0  0  0  0  0
   34.3160   31.0530   31.2970 C   0  0  0  0  0  0  0  0  0  0  0  0
   33.2000   31.8300   31.1650 N   0  0  0  0  0  0  0  0  0  0  0  0
   32.0610   31.5090   31.8070 C   0  0  0  0  0  0  0  0  0  0  0  0
   31.9860   30.4260   32.5900 N   0  0  0  0  0  0  0  0  0  0  0  0
   33.0230   28.7720   33.3640 H   0  0  0  0  0  0  0  0  0  0  0  0
   35.2460   31.2920   30.7890 H   0  0  0  0  0  0  0  0  0  0  0  0
   31.2940   32.2430   31.5770 H   0  0  0  0  0  0  0  0  0  0  0  0
   38.9040   26.7410   32.8350 O   0  0  0  0  0  0  0  0  0  0  0  0
   38.8170   25.6820   33.7350 C   0  0  0  0  0  0  0  0  0  0  0  0
   38.3030   24.5020   33.1770 C   0  0  0  0  0  0  0  0  0  0  0  0
   38.2670   23.5310   34.1620 C   0  0  0  0  0  0  0  0  0  0  0  0
   38.7470   24.1330   35.2590 N   0  0  0  0  0  0  0  0  0  0  0  0
   39.0690   25.3810   35.0220 N   0  0  0  0  0  0  0  0  0  0  0  0
   37.9460   24.2140   32.1740 H   0  0  0  0  0  0  0  0  0  0  0  0
   37.9640   22.5030   34.2180 H   0  0  0  0  0  0  0  0  0  0  0  0
   38.9330   23.5970   36.5730 C   0  0  0  0  0  0  0  0  0  0  0  0
   39.7910   22.7540   37.2390 C   0  0  0  0  0  0  0  0  0  0  0  0
   40.5910   22.3380   36.6360 H   0  0  0  0  0  0  0  0  0  0  0  0
   39.3620   22.6900   38.5040 N   0  0  0  0  0  0  0  0  0  0  0  0
   39.8870   22.0940   39.1780 H   0  0  0  0  0  0  0  0  0  0  0  0
   38.2730   23.4570   38.6640 C   0  0  0  0  0  0  0  0  0  0  0  0
   37.7360   23.5680   39.6200 H   0  0  0  0  0  0  0  0  0  0  0  0
   38.0000   24.0210   37.4760 N   0  0  0  0  0  0  0  0  0  0  0  0
  1  6  1  0  0  0  0
  2  3  1  0  0  0  0
  2  1  2  0  0  0  0
  3  4  2  0  0  0  0
  4 19  1  0  0  0  0
  4  5  1  0  0  0  0
  5  9  1  0  0  0  0
  6  5  2  0  0  0  0
  7  2  1  0  0  0  0
  8  3  1  0  0  0  0
 10 16  1  0  0  0  0
 11  1  1  0  0  0  0
 11 10  2  0  0  0  0
 12 11  1  0  0  0  0
 13 12  2  0  0  0  0
 13 14  1  0  0  0  0
 14 15  2  0  0  0  0
 15 10  1  0  0  0  0
 17 12  1  0  0  0  0
 18 14  1  0  0  0  0
 19 20  1  0  0  0  0
 20 24  2  0  0  0  0
 21 20  1  0  0  0  0
 21 22  2  0  0  0  0
 22 26  1  0  0  0  0
 22 23  1  0  0  0  0
 23 27  1  0  0  0  0
 24 23  1  0  0  0  0
 25 21  1  0  0  0  0
 27 28  2  0  0  0  0
 27 34  1  0  0  0  0
 28 30  1  0  0  0  0
 29 28  1  0  0  0  0
 30 32  1  0  0  0  0
 30 31  1  0  0  0  0
 32 33  1  0  0  0  0
 34 32  2  0  0  0  0
M  END
>  <minimizedAffinity>
-5.20072842

$$$$

 OpenBabel03272510123D

 34 37  0  0  0  0  0  0  0  0999 V2000
   37.9440   25.6630   35.0720 C   0  0  0  0  0  0  0  0  0  0  0  0
   37.6130   26.9430   35.3460 C   0  0  0  0  0  0  0  0  0  0  0  0
   37.1190   27.8460   34.4320 C   0  0  0  0  0  0  0  0  0  0  0  0
   36.9300   27.4610   33.1330 C   0  0  0  0  0  0  0  0  0  0  0  0
   37.2710   26.1380   32.8450 C   0  0  0  0  0  0  0  0  0  0  0  0
   37.7510   25.2960   33.7730 N   0  0  0  0  0  0  0  0  0  0  0  0
   37.7270   27.3380   36.3450 H   0  0  0  0  0  0  0  0  0  0  0  0
   36.8560   28.8710   34.6650 H   0  0  0  0  0  0  0  0  0  0  0  0
   37.1410   25.7770   31.8220 H   0  0  0  0  0  0  0  0  0  0  0  0
   39.5980   23.9230   35.8180 C   0  0  0  0  0  0  0  0  0  0  0  0
   38.4580   24.7300   36.0280 C   0  0  0  0  0  0  0  0  0  0  0  0
   37.8300   24.5770   37.2460 C   0  0  0  0  0  0  0  0  0  0  0  0
   38.3100   23.6910   38.1690 N   0  0  0  0  0  0  0  0  0  0  0  0
   39.4030   22.9510   37.9050 C   0  0  0  0  0  0  0  0  0  0  0  0
   40.0510   23.0590   36.7380 N   0  0  0  0  0  0  0  0  0  0  0  0
   40.1110   24.0200   34.8730 H   0  0  0  0  0  0  0  0  0  0  0  0
   36.9500   25.1850   37.4360 H   0  0  0  0  0  0  0  0  0  0  0  0
   39.6230   22.3120   38.7550 H   0  0  0  0  0  0  0  0  0  0  0  0
   36.4430   28.2410   32.0860 O   0  0  0  0  0  0  0  0  0  0  0  0
   35.2500   28.9500   32.2120 C   0  0  0  0  0  0  0  0  0  0  0  0
   35.2390   30.1720   31.5240 C   0  0  0  0  0  0  0  0  0  0  0  0
   34.0110   30.7770   31.7240 C   0  0  0  0  0  0  0  0  0  0  0  0
   33.3310   29.9270   32.5060 N   0  0  0  0  0  0  0  0  0  0  0  0
   34.0410   28.8640   32.7950 N   0  0  0  0  0  0  0  0  0  0  0  0
   35.9680   30.7110   30.8960 H   0  0  0  0  0  0  0  0  0  0  0  0
   33.5440   31.6920   31.4120 H   0  0  0  0  0  0  0  0  0  0  0  0
   32.0020   30.0470   33.0250 C   0  0  0  0  0  0  0  0  0  0  0  0
   30.8690   30.7980   32.8170 C   0  0  0  0  0  0  0  0  0  0  0  0
   30.9470   31.5440   32.0320 H   0  0  0  0  0  0  0  0  0  0  0  0
   29.9560   30.3660   33.6930 N   0  0  0  0  0  0  0  0  0  0  0  0
   29.0160   30.8150   33.6940 H   0  0  0  0  0  0  0  0  0  0  0  0
   30.4630   29.3750   34.4420 C   0  0  0  0  0  0  0  0  0  0  0  0
   29.9000   28.8560   35.2350 H   0  0  0  0  0  0  0  0  0  0  0  0
   31.7280   29.1710   34.0370 N   0  0  0  0  0  0  0  0  0  0  0  0
  1  2  1  0  0  0  0
  1 11  1  0  0  0  0
  2  7  1  0  0  0  0
  3  8  1  0  0  0  0
  3  2  2  0  0  0  0
  4  3  1  0  0  0  0
  5  4  2  0  0  0  0
  5  6  1  0  0  0  0
  6  1  2  0  0  0  0
  9  5  1  0  0  0  0
 10 11  2  0  0  0  0
 10 15  1  0  0  0  0
 11 12  1  0  0  0  0
 12 17  1  0  0  0  0
 12 13  2  0  0  0  0
 14 13  1  0  0  0  0
 14 18  1  0  0  0  0
 15 14  2  0  0  0  0
 16 10  1  0  0  0  0
 19 20  1  0  0  0  0
 19  4  1  0  0  0  0
 20 24  2  0  0  0  0
 21 22  2  0  0  0  0
 21 20  1  0  0  0  0
 22 23  1  0  0  0  0
 23 24  1  0  0  0  0
 23 27  1  0  0  0  0
 25 21  1  0  0  0  0
 26 22  1  0  0  0  0
 27 34  1  0  0  0  0
 28 27  2  0  0  0  0
 28 30  1  0  0  0  0
 29 28  1  0  0  0  0
 30 31  1  0  0  0  0
 30 32  1  0  0  0  0
 32 33  1  0  0  0  0
 34 32  2  0  0  0  0
M  END
>  <minimizedAffinity>
-5.14412594

$$$$

 OpenBabel03272510123D

 34 37  0  0  0  0  0  0  0  0999 V2000
   39.1950   24.9050   34.9930 C   0  0  0  0  0  0  0  0  0  0  0  0
   39.6860   26.1580   34.8860 C   0  0  0  0  0  0  0  0  0  0  0  0
   39.1540   27.1520   34.0950 C   0  0  0  0  0  0  0  0  0  0  0  0
   38.0410   26.8950   33.3420 C   0  0  0  0  0  0  0  0  0  0  0  0
   37.5310   25.6000   33.4490 C   0  0  0  0  0  0  0  0  0  0  0  0
   38.0870   24.6660   34.2350 N   0  0  0  0  0  0  0  0  0  0  0  0
   40.5620   26.4550   35.4440 H   0  0  0  0  0  0  0  0  0  0  0  0
   39.5570   28.1550   34.0190 H   0  0  0  0  0  0  0  0  0  0  0  0
   36.6420   25.3400   32.8680 H   0  0  0  0  0  0  0  0  0  0  0  0
   39.2790   23.5430   37.1040 C   0  0  0  0  0  0  0  0  0  0  0  0
   39.7540   23.8770   35.8170 C   0  0  0  0  0  0  0  0  0  0  0  0
   40.8280   23.1400   35.3640 C   0  0  0  0  0  0  0  0  0  0  0  0
   41.3730   22.1550   36.1390 N   0  0  0  0  0  0  0  0  0  0  0  0
   40.8710   21.8880   37.3600 C   0  0  0  0  0  0  0  0  0  0  0  0
   39.8300   22.5720   37.8490 N   0  0  0  0  0  0  0  0  0  0  0  0
   38.4390   24.1030   37.4870 H   0  0  0  0  0  0  0  0  0  0  0  0
   41.2160   23.3740   34.3760 H   0  0  0  0  0  0  0  0  0  0  0  0
   41.4350   21.0790   37.8150 H   0  0  0  0  0  0  0  0  0  0  0  0
   37.3780   27.7790   32.4920 O   0  0  0  0  0  0  0  0  0  0  0  0
   36.1680   28.3610   32.8620 C   0  0  0  0  0  0  0  0  0  0  0  0
   36.1460   28.8380   34.1810 C   0  0  0  0  0  0  0  0  0  0  0  0
   34.9010   29.3890   34.4280 C   0  0  0  0  0  0  0  0  0  0  0  0
   34.2220   29.2350   33.2820 N   0  0  0  0  0  0  0  0  0  0  0  0
   34.9480   28.6400   32.3680 N   0  0  0  0  0  0  0  0  0  0  0  0
   36.8760   28.8590   35.0070 H   0  0  0  0  0  0  0  0  0  0  0  0
   34.4210   29.8640   35.2620 H   0  0  0  0  0  0  0  0  0  0  0  0
   32.8800   29.6250   32.9710 C   0  0  0  0  0  0  0  0  0  0  0  0
   31.5960   29.1720   33.1610 C   0  0  0  0  0  0  0  0  0  0  0  0
   31.5110   28.2380   33.7070 H   0  0  0  0  0  0  0  0  0  0  0  0
   30.7840   30.0640   32.5820 N   0  0  0  0  0  0  0  0  0  0  0  0
   29.7560   29.8990   32.6180 H   0  0  0  0  0  0  0  0  0  0  0  0
   31.5010   31.0600   32.0380 C   0  0  0  0  0  0  0  0  0  0  0  0
   31.0560   31.9140   31.5050 H   0  0  0  0  0  0  0  0  0  0  0  0
   32.7980   30.7960   32.2730 N   0  0  0  0  0  0  0  0  0  0  0  0
  1 11  1  0  0  0  0
  2  1  1  0  0  0  0
  2  7  1  0  0  0  0
  3  2  2  0  0  0  0
  4  5  2  0  0  0  0
  4  3  1  0  0  0  0
  5  6  1  0  0  0  0
  6  1  2  0  0  0  0
  8  3  1  0  0  0  0
  9  5  1  0  0  0  0
 10 16  1  0  0  0  0
 10 15  1  0  0  0  0
 11 10  2  0  0  0  0
 12 11  1  0  0  0  0
 12 13  2  0  0  0  0
 13 14  1  0  0  0  0
 14 18  1  0  0  0  0
 14 15  2  0  0  0  0
 17 12  1  0  0  0  0
 19 20  1  0  0  0  0
 19  4  1  0  0  0  0
 20 21  1  0  0  0  0
 21 22  2  0  0  0  0
 21 25  1  0  0  0  0
 22 26  1  0  0  0  0
 23 22  1  0  0  0  0
 24 20  2  0  0  0  0
 24 23  1  0  0  0  0
 27 28  2  0  0  0  0
 27 23  1  0  0  0  0
 28 29  1  0  0  0  0
 30 31  1  0  0  0  0
 30 28  1  0  0  0  0
 32 34  2  0  0  0  0
 32 30  1  0  0  0  0
 33 32  1  0  0  0  0
 34 27  1  0  0  0  0
M  END
>  <minimizedAffinity>
-5.12508535

$$$$
