
     RDKit          3D

 34 37  0  0  0  0  0  0  0  0999 V2000
   33.8399   28.7831   48.2797 C   0  0  0  0  0  0  0  0  0  0  0  0
   34.4365   28.4274   49.4377 C   0  0  0  0  0  0  0  0  0  0  0  0
   35.7078   28.7943   49.8195 C   0  0  0  0  0  0  0  0  0  0  0  0
   36.4620   29.5805   48.9919 C   0  0  0  0  0  0  0  0  0  0  0  0
   35.8494   29.9505   47.7940 C   0  0  0  0  0  0  0  0  0  0  0  0
   34.6064   29.5660   47.4685 N   0  0  0  0  0  0  0  0  0  0  0  0
   31.6393   27.6440   48.7002 C   0  0  0  0  0  0  0  0  0  0  0  0
   32.5177   28.3969   47.8910 C   0  0  0  0  0  0  0  0  0  0  0  0
   32.0296   28.7630   46.6537 C   0  0  0  0  0  0  0  0  0  0  0  0
   30.7703   28.4020   46.2689 N   0  0  0  0  0  0  0  0  0  0  0  0
   29.9816   27.6820   47.0900 C   0  0  0  0  0  0  0  0  0  0  0  0
   30.4047   27.3000   48.3014 N   0  0  0  0  0  0  0  0  0  0  0  0
   37.7577   30.0414   49.2198 O   0  0  0  0  0  0  0  0  0  0  0  0
   38.1648   31.2949   48.7721 C   0  0  0  0  0  0  0  0  0  0  0  0
   37.8820   32.3381   49.6657 C   0  0  0  0  0  0  0  0  0  0  0  0
   38.3306   33.5240   49.1127 C   0  0  0  0  0  0  0  0  0  0  0  0
   38.8590   33.1756   47.9306 N   0  0  0  0  0  0  0  0  0  0  0  0
   38.7678   31.8854   47.7236 N   0  0  0  0  0  0  0  0  0  0  0  0
   33.9192   27.8072   50.1553 H   0  0  0  0  0  0  0  0  0  0  0  0
   36.1752   28.5020   50.7520 H   0  0  0  0  0  0  0  0  0  0  0  0
   36.4073   30.5788   47.0953 H   0  0  0  0  0  0  0  0  0  0  0  0
   31.9918   27.3416   49.6753 H   0  0  0  0  0  0  0  0  0  0  0  0
   32.6837   29.3434   46.0087 H   0  0  0  0  0  0  0  0  0  0  0  0
   29.0275   27.4974   46.6072 H   0  0  0  0  0  0  0  0  0  0  0  0
   37.4036   32.3962   50.6577 H   0  0  0  0  0  0  0  0  0  0  0  0
   38.3400   34.5565   49.4079 H   0  0  0  0  0  0  0  0  0  0  0  0
   39.4706   34.0063   46.9376 C   0  0  0  0  0  0  0  0  0  0  0  0
   39.3784   35.2925   46.4592 C   0  0  0  0  0  0  0  0  0  0  0  0
   38.6326   35.9134   46.9432 H   0  0  0  0  0  0  0  0  0  0  0  0
   40.2865   35.4046   45.4839 N   0  0  0  0  0  0  0  0  0  0  0  0
   40.3747   36.3168   44.9880 H   0  0  0  0  0  0  0  0  0  0  0  0
   40.9460   34.2455   45.3274 C   0  0  0  0  0  0  0  0  0  0  0  0
   41.7433   34.0896   44.5839 H   0  0  0  0  0  0  0  0  0  0  0  0
   40.4477   33.3763   46.2220 N   0  0  0  0  0  0  0  0  0  0  0  0
  1  2  2  0
  2  3  1  0
  4 13  1  0
  4  3  2  0
  5  4  1  0
  6  5  2  0
  6  1  1  0
  8  1  1  0
  8  7  2  0
  9  8  1  0
 10  9  2  0
 10 11  1  0
 11 12  2  0
 12  7  1  0
 14 13  1  0
 14 15  1  0
 16 15  2  0
 17 16  1  0
 18 17  1  0
 18 14  2  0
  2 19  1  0
  3 20  1  0
  5 21  1  0
  7 22  1  0
  9 23  1  0
 11 24  1  0
 15 25  1  0
 16 26  1  0
 27 28  2  0
 28 29  1  0
 28 30  1  0
 30 31  1  0
 30 32  1  0
 32 33  1  0
 32 34  2  0
 34 27  1  0
 17 27  1  0
M  ISO  8  19  14  20  14  21  14  22  14  23  14  24  14  25  14  26  14
M  ISO  3  29  15  31   5  33  14
M  END
>  <DihAtoms>  (1) 
15,16,26,27

>  <DihDeg>  (1) 
104.18927902405373

$$$$
