
 OpenBabel03272504193D

 26 27  0  0  0  0  0  0  0  0999 V2000
   35.5970   30.5370   50.1790 O   0  0  0  0  0  0  0  0  0  0  0  0
   34.7480   29.4610   50.1820 C   0  0  0  0  0  0  0  0  0  0  0  0
   34.0120   29.5920   51.0280 H   0  0  0  0  0  0  0  0  0  0  0  0
   35.2420   28.4880   50.3970 H   0  0  0  0  0  0  0  0  0  0  0  0
   34.0390   29.2710   48.8920 C   0  0  0  0  0  0  0  0  0  0  0  0
   34.3120   30.1790   47.8740 C   0  0  0  0  0  0  0  0  0  0  0  0
   33.6460   30.0090   46.6490 C   0  0  0  0  0  0  0  0  0  0  0  0
   32.7800   28.9700   46.5380 N   0  0  0  0  0  0  0  0  0  0  0  0
   32.5330   28.1090   47.5330 C   0  0  0  0  0  0  0  0  0  0  0  0
   33.1630   28.2640   48.7030 N   0  0  0  0  0  0  0  0  0  0  0  0
   35.0000   31.0140   47.9430 H   0  0  0  0  0  0  0  0  0  0  0  0
   33.8110   30.6750   45.8170 H   0  0  0  0  0  0  0  0  0  0  0  0
   31.8410   27.2820   47.4400 H   0  0  0  0  0  0  0  0  0  0  0  0
   37.1810   28.4420   50.1620 O   0  0  0  0  0  0  0  0  0  0  0  0
   37.1820   29.9480   50.1520 P   0  0  2  0  0  0  0  0  0  0  0  0
   38.0040   30.4630   51.5610 O   0  0  0  0  0  0  0  0  0  0  0  0
   38.1850   31.4270   51.4280 H   0  0  0  0  0  0  0  0  0  0  0  0
   38.0040   30.4920   48.7740 O   0  0  0  0  0  0  0  0  0  0  0  0
   38.4820   31.8010   48.7210 C   0  0  0  0  0  0  0  0  0  0  0  0
   38.9220   32.3730   47.5420 C   0  0  0  0  0  0  0  0  0  0  0  0
   38.9930   31.9940   46.5150 H   0  0  0  0  0  0  0  0  0  0  0  0
   39.3300   33.6460   47.7710 N   0  0  0  0  0  0  0  0  0  0  0  0
   39.7220   34.4120   47.1820 H   0  0  0  0  0  0  0  0  0  0  0  0
   39.1450   33.8730   49.0970 C   0  0  0  0  0  0  0  0  0  0  0  0
   39.3100   34.7180   49.7780 H   0  0  0  0  0  0  0  0  0  0  0  0
   38.6390   32.7610   49.6440 N   0  0  0  0  0  0  0  0  0  0  0  0
  1  2  1  0  0  0  0
  2  4  1  0  0  0  0
  2  3  1  0  0  0  0
  5  2  1  0  0  0  0
  6 11  1  0  0  0  0
  6  5  2  0  0  0  0
  7  6  1  0  0  0  0
  8  7  2  0  0  0  0
  8  9  1  0  0  0  0
  9 10  2  0  0  0  0
 10  5  1  0  0  0  0
 12  7  1  0  0  0  0
 13  9  1  0  0  0  0
 15 14  2  6  0  0  0
 15  1  1  0  0  0  0
 15 16  1  0  0  0  0
 17 16  1  0  0  0  0
 18 15  1  0  0  0  0
 19 18  1  0  0  0  0
 19 26  1  0  0  0  0
 20 22  1  0  0  0  0
 20 19  2  0  0  0  0
 21 20  1  0  0  0  0
 22 24  1  0  0  0  0
 23 22  1  0  0  0  0
 24 26  2  0  0  0  0
 24 25  1  0  0  0  0
M  END
>  <minimizedAffinity>
-4.47084522

>  <minimizedRMSD>
2.62754607

$$$$
