
 OpenBabel03272508563D

 39 42  0  0  1  0  0  0  0  0999 V2000
   38.3580   31.9020   44.5050 C   0  0  0  0  0  0  0  0  0  0  0  0
   37.2510   32.4530   44.4040 O   0  0  0  0  0  0  0  0  0  0  0  0
   38.9410   31.6320   45.8120 N   0  0  0  0  0  0  0  0  0  0  0  0
   39.9240   31.3860   45.9570 H   0  0  0  0  0  0  0  0  0  0  0  0
   39.1500   31.4880   43.3200 C   0  0  0  0  0  0  0  0  0  0  0  0
   40.1430   30.5610   43.4660 C   0  0  0  0  0  0  0  0  0  0  0  0
   40.8490   30.2190   42.3240 C   0  0  0  0  0  0  0  0  0  0  0  0
   40.5200   30.8170   41.1340 C   0  0  0  0  0  0  0  0  0  0  0  0
   39.5150   31.7550   40.9900 C   0  0  0  0  0  0  0  0  0  0  0  0
   38.8590   32.0550   42.1210 N   0  0  0  0  0  0  0  0  0  0  0  0
   40.3970   30.0940   44.4060 H   0  0  0  0  0  0  0  0  0  0  0  0
   41.6320   29.5050   42.3770 H   0  0  0  0  0  0  0  0  0  0  0  0
   41.0890   30.5360   40.2390 H   0  0  0  0  0  0  0  0  0  0  0  0
   39.2070   32.3600   39.6980 C   0  0  0  0  0  0  0  0  0  0  0  0
   38.7790   33.5380   39.6830 O   0  0  0  0  0  0  0  0  0  0  0  0
   39.3930   31.6100   38.4600 C   0  0  0  0  0  0  0  0  0  0  0  0
   38.5380   30.6310   38.0000 C   0  0  0  0  0  0  0  0  0  0  0  0
   37.6190   30.2360   38.4190 H   0  0  0  0  0  0  0  0  0  0  0  0
   39.0980   30.2180   36.8380 N   0  0  0  0  0  0  0  0  0  0  0  0
   38.7450   29.4750   36.1790 H   0  0  0  0  0  0  0  0  0  0  0  0
   40.2490   30.8950   36.5680 C   0  0  0  0  0  0  0  0  0  0  0  0
   40.8850   30.7570   35.7080 H   0  0  0  0  0  0  0  0  0  0  0  0
   40.4180   31.7690   37.6040 N   0  0  0  0  0  0  0  0  0  0  0  0
   38.4390   31.1000   48.1830 C   0  0  2  0  0  0  0  0  0  0  0  0
   38.6770   32.5670   48.1110 C   0  0  0  0  0  0  0  0  0  0  0  0
   38.0660   31.7210   46.9540 C   0  0  1  0  0  0  0  0  0  0  0  0
   39.3610   30.4820   48.2590 H   0  0  0  0  0  0  0  0  0  0  0  0
   39.7030   32.9100   48.0080 H   0  0  0  0  0  0  0  0  0  0  0  0
   37.9930   33.2240   48.6690 H   0  0  0  0  0  0  0  0  0  0  0  0
   36.9870   31.9530   46.7630 H   0  0  0  0  0  0  0  0  0  0  0  0
   35.0680   30.2390   49.4990 C   0  0  0  0  0  0  0  0  0  0  0  0
   35.3980   29.5450   50.7130 C   0  0  0  0  0  0  0  0  0  0  0  0
   36.7840   29.4010   51.0480 C   0  0  0  0  0  0  0  0  0  0  0  0
   37.7450   29.9180   50.2150 N   0  0  0  0  0  0  0  0  0  0  0  0
   37.3610   30.5580   49.0920 C   0  0  0  0  0  0  0  0  0  0  0  0
   36.0360   30.7340   48.7070 N   0  0  0  0  0  0  0  0  0  0  0  0
   34.0130   30.3300   49.2760 H   0  0  0  0  0  0  0  0  0  0  0  0
   34.6380   29.1500   51.3490 H   0  0  0  0  0  0  0  0  0  0  0  0
   37.0430   28.8810   51.9590 H   0  0  0  0  0  0  0  0  0  0  0  0
  1  3  1  0  0  0  0
  2  1  2  0  0  0  0
  3  4  1  0  0  0  0
  3 26  1  0  0  0  0
  5  6  1  0  0  0  0
  5  1  1  0  0  0  0
  6 11  1  0  0  0  0
  7 12  1  0  0  0  0
  7  6  2  0  0  0  0
  8  7  1  0  0  0  0
  9  8  2  0  0  0  0
  9 10  1  0  0  0  0
 10  5  2  0  0  0  0
 13  8  1  0  0  0  0
 14  9  1  0  0  0  0
 15 14  2  0  0  0  0
 16 14  1  0  0  0  0
 17 18  1  0  0  0  0
 17 16  2  0  0  0  0
 19 17  1  0  0  0  0
 20 19  1  0  0  0  0
 21 19  1  0  0  0  0
 21 23  2  0  0  0  0
 22 21  1  0  0  0  0
 23 16  1  0  0  0  0
 24 27  1  6  0  0  0
 24 35  1  0  0  0  0
 25 24  1  0  0  0  0
 25 29  1  0  0  0  0
 26 30  1  6  0  0  0
 26 25  1  0  0  0  0
 26 24  1  0  0  0  0
 28 25  1  0  0  0  0
 31 32  1  0  0  0  0
 32 33  2  0  0  0  0
 32 38  1  0  0  0  0
 33 39  1  0  0  0  0
 34 33  1  0  0  0  0
 35 34  2  0  0  0  0
 36 35  1  0  0  0  0
 36 31  2  0  0  0  0
 37 31  1  0  0  0  0
M  END
>  <minimizedAffinity>
-4.90224457

>  <minimizedRMSD>
0.471085399

$$$$
