
 OpenBabel03272508593D

 39 42  0  0  1  0  0  0  0  0999 V2000
   36.1100   25.0810   31.5690 C   0  0  0  0  0  0  0  0  0  0  0  0
   35.0310   25.0440   30.9590 O   0  0  0  0  0  0  0  0  0  0  0  0
   36.8970   26.3060   31.6200 N   0  0  0  0  0  0  0  0  0  0  0  0
   37.8780   26.3400   31.9140 H   0  0  0  0  0  0  0  0  0  0  0  0
   36.6650   23.9000   32.2760 C   0  0  0  0  0  0  0  0  0  0  0  0
   36.1840   22.6550   31.9850 C   0  0  0  0  0  0  0  0  0  0  0  0
   36.7390   21.5940   32.6820 C   0  0  0  0  0  0  0  0  0  0  0  0
   37.7200   21.8450   33.6070 C   0  0  0  0  0  0  0  0  0  0  0  0
   38.2040   23.1060   33.8990 C   0  0  0  0  0  0  0  0  0  0  0  0
   37.6390   24.1020   33.2010 N   0  0  0  0  0  0  0  0  0  0  0  0
   35.4110   22.4640   31.2550 H   0  0  0  0  0  0  0  0  0  0  0  0
   36.4040   20.6030   32.4980 H   0  0  0  0  0  0  0  0  0  0  0  0
   38.1490   20.9940   34.1500 H   0  0  0  0  0  0  0  0  0  0  0  0
   39.2520   23.3160   34.8940 C   0  0  0  0  0  0  0  0  0  0  0  0
   40.4120   23.5630   34.4890 O   0  0  0  0  0  0  0  0  0  0  0  0
   38.9520   23.2400   36.3200 C   0  0  0  0  0  0  0  0  0  0  0  0
   39.8050   22.7280   37.2750 C   0  0  0  0  0  0  0  0  0  0  0  0
   40.7990   22.3070   37.1860 H   0  0  0  0  0  0  0  0  0  0  0  0
   39.1220   22.8580   38.4370 N   0  0  0  0  0  0  0  0  0  0  0  0
   39.4330   22.5810   39.4050 H   0  0  0  0  0  0  0  0  0  0  0  0
   37.8970   23.4220   38.2370 C   0  0  0  0  0  0  0  0  0  0  0  0
   37.1600   23.6330   38.9970 H   0  0  0  0  0  0  0  0  0  0  0  0
   37.8100   23.6550   36.8960 N   0  0  0  0  0  0  0  0  0  0  0  0
   36.0450   28.5650   32.1930 C   0  0  2  0  0  0  0  0  0  0  0  0
   37.1930   28.7590   31.2670 C   0  0  0  0  0  0  0  0  0  0  0  0
   36.2390   27.5280   31.2320 C   0  0  1  0  0  0  0  0  0  0  0  0
   36.3270   28.4210   33.2600 H   0  0  0  0  0  0  0  0  0  0  0  0
   38.1950   28.6190   31.6640 H   0  0  0  0  0  0  0  0  0  0  0  0
   37.0820   29.5030   30.4640 H   0  0  0  0  0  0  0  0  0  0  0  0
   35.5910   27.5000   30.3190 H   0  0  0  0  0  0  0  0  0  0  0  0
   32.6150   29.9020   32.7290 C   0  0  0  0  0  0  0  0  0  0  0  0
   32.6340   31.0860   31.9160 C   0  0  0  0  0  0  0  0  0  0  0  0
   33.8360   31.3870   31.1960 C   0  0  0  0  0  0  0  0  0  0  0  0
   34.9210   30.5510   31.2990 N   0  0  0  0  0  0  0  0  0  0  0  0
   34.8300   29.4560   32.0810 C   0  0  0  0  0  0  0  0  0  0  0  0
   33.6960   29.1050   32.8050 N   0  0  0  0  0  0  0  0  0  0  0  0
   31.6930   29.7050   33.2590 H   0  0  0  0  0  0  0  0  0  0  0  0
   31.7820   31.7240   31.8470 H   0  0  0  0  0  0  0  0  0  0  0  0
   33.8610   32.2750   30.5810 H   0  0  0  0  0  0  0  0  0  0  0  0
  1  3  1  0  0  0  0
  1  5  1  0  0  0  0
  2  1  2  0  0  0  0
  3  4  1  0  0  0  0
  5 10  1  0  0  0  0
  6  5  2  0  0  0  0
  6  7  1  0  0  0  0
  7  8  2  0  0  0  0
  8  9  1  0  0  0  0
  8 13  1  0  0  0  0
  9 14  1  0  0  0  0
 10  9  2  0  0  0  0
 11  6  1  0  0  0  0
 12  7  1  0  0  0  0
 14 16  1  0  0  0  0
 15 14  2  0  0  0  0
 16 23  1  0  0  0  0
 16 17  2  0  0  0  0
 17 19  1  0  0  0  0
 18 17  1  0  0  0  0
 19 20  1  0  0  0  0
 21 19  1  0  0  0  0
 21 22  1  0  0  0  0
 23 21  2  0  0  0  0
 24 27  1  1  0  0  0
 25 28  1  0  0  0  0
 25 24  1  0  0  0  0
 26 30  1  6  0  0  0
 26 25  1  0  0  0  0
 26  3  1  0  0  0  0
 26 24  1  0  0  0  0
 29 25  1  0  0  0  0
 31 36  1  0  0  0  0
 31 37  1  0  0  0  0
 32 31  2  0  0  0  0
 33 34  2  0  0  0  0
 33 32  1  0  0  0  0
 34 35  1  0  0  0  0
 35 24  1  0  0  0  0
 35 36  2  0  0  0  0
 38 32  1  0  0  0  0
 39 33  1  0  0  0  0
M  END
>  <minimizedAffinity>
-5.67512846

$$$$

 OpenBabel03272508593D

 39 42  0  0  1  0  0  0  0  0999 V2000
   36.6240   24.4850   31.4570 C   0  0  0  0  0  0  0  0  0  0  0  0
   37.3160   24.3740   30.4340 O   0  0  0  0  0  0  0  0  0  0  0  0
   35.5990   23.5000   31.7770 N   0  0  0  0  0  0  0  0  0  0  0  0
   34.8640   23.6500   32.4740 H   0  0  0  0  0  0  0  0  0  0  0  0
   36.7900   25.6110   32.4100 C   0  0  0  0  0  0  0  0  0  0  0  0
   36.3870   26.8650   32.0460 C   0  0  0  0  0  0  0  0  0  0  0  0
   36.5730   27.8740   32.9770 C   0  0  0  0  0  0  0  0  0  0  0  0
   37.1380   27.5660   34.1880 C   0  0  0  0  0  0  0  0  0  0  0  0
   37.5440   26.2960   34.5530 C   0  0  0  0  0  0  0  0  0  0  0  0
   37.3460   25.3520   33.6220 N   0  0  0  0  0  0  0  0  0  0  0  0
   35.9430   27.1010   31.0900 H   0  0  0  0  0  0  0  0  0  0  0  0
   36.2800   28.8690   32.7490 H   0  0  0  0  0  0  0  0  0  0  0  0
   37.2780   28.3760   34.9150 H   0  0  0  0  0  0  0  0  0  0  0  0
   38.1400   26.0250   35.8580 C   0  0  0  0  0  0  0  0  0  0  0  0
   38.4280   26.9990   36.5920 O   0  0  0  0  0  0  0  0  0  0  0  0
   38.3910   24.6550   36.2920 C   0  0  0  0  0  0  0  0  0  0  0  0
   37.5310   23.9070   37.0690 C   0  0  0  0  0  0  0  0  0  0  0  0
   36.5630   24.1500   37.4910 H   0  0  0  0  0  0  0  0  0  0  0  0
   38.1630   22.7190   37.2210 N   0  0  0  0  0  0  0  0  0  0  0  0
   37.8310   21.8720   37.7530 H   0  0  0  0  0  0  0  0  0  0  0  0
   39.3650   22.7070   36.5760 C   0  0  0  0  0  0  0  0  0  0  0  0
   40.0620   21.8840   36.5420 H   0  0  0  0  0  0  0  0  0  0  0  0
   39.4890   23.9360   35.9970 N   0  0  0  0  0  0  0  0  0  0  0  0
   36.5390   21.2230   31.4790 C   0  0  2  0  0  0  0  0  0  0  0  0
   35.1250   21.0540   31.9130 C   0  0  0  0  0  0  0  0  0  0  0  0
   35.6420   22.2510   31.0600 C   0  0  1  0  0  0  0  0  0  0  0  0
   37.2630   21.3930   32.3070 H   0  0  0  0  0  0  0  0  0  0  0  0
   34.8910   21.2340   32.9590 H   0  0  0  0  0  0  0  0  0  0  0  0
   34.5200   20.2930   31.3980 H   0  0  0  0  0  0  0  0  0  0  0  0
   35.2520   22.2420   30.0100 H   0  0  0  0  0  0  0  0  0  0  0  0
   36.8950   18.3250   29.1740 C   0  0  0  0  0  0  0  0  0  0  0  0
   38.1570   18.6060   28.5460 C   0  0  0  0  0  0  0  0  0  0  0  0
   38.8560   19.7920   28.9450 C   0  0  0  0  0  0  0  0  0  0  0  0
   38.3120   20.6170   29.8990 N   0  0  0  0  0  0  0  0  0  0  0  0
   37.1240   20.2890   30.4460 C   0  0  0  0  0  0  0  0  0  0  0  0
   36.3940   19.1550   30.1070 N   0  0  0  0  0  0  0  0  0  0  0  0
   36.3940   17.4230   28.8500 H   0  0  0  0  0  0  0  0  0  0  0  0
   38.5640   17.9540   27.8070 H   0  0  0  0  0  0  0  0  0  0  0  0
   39.8050   20.0120   28.4790 H   0  0  0  0  0  0  0  0  0  0  0  0
  1  3  1  0  0  0  0
  1  5  1  0  0  0  0
  2  1  2  0  0  0  0
  3  4  1  0  0  0  0
  5 10  1  0  0  0  0
  6  5  2  0  0  0  0
  6  7  1  0  0  0  0
  7  8  2  0  0  0  0
  8  9  1  0  0  0  0
  8 13  1  0  0  0  0
  9 14  1  0  0  0  0
 10  9  2  0  0  0  0
 11  6  1  0  0  0  0
 12  7  1  0  0  0  0
 14 16  1  0  0  0  0
 14 15  2  0  0  0  0
 16 17  2  0  0  0  0
 17 19  1  0  0  0  0
 17 18  1  0  0  0  0
 19 20  1  0  0  0  0
 21 19  1  0  0  0  0
 22 21  1  0  0  0  0
 23 16  1  0  0  0  0
 23 21  2  0  0  0  0
 24 25  1  0  0  0  0
 24 27  1  1  0  0  0
 25 28  1  0  0  0  0
 26 30  1  6  0  0  0
 26 24  1  0  0  0  0
 26  3  1  0  0  0  0
 26 25  1  0  0  0  0
 29 25  1  0  0  0  0
 31 36  1  0  0  0  0
 32 33  1  0  0  0  0
 32 31  2  0  0  0  0
 33 34  2  0  0  0  0
 34 35  1  0  0  0  0
 35 24  1  0  0  0  0
 36 35  2  0  0  0  0
 37 31  1  0  0  0  0
 38 32  1  0  0  0  0
 39 33  1  0  0  0  0
M  END
>  <minimizedAffinity>
-5.66810703

$$$$

 OpenBabel03272508593D

 39 42  0  0  1  0  0  0  0  0999 V2000
   36.7150   27.4080   32.8610 C   0  0  0  0  0  0  0  0  0  0  0  0
   36.0010   27.0780   31.9020 O   0  0  0  0  0  0  0  0  0  0  0  0
   36.4360   28.6210   33.6170 N   0  0  0  0  0  0  0  0  0  0  0  0
   37.1020   29.0530   34.2640 H   0  0  0  0  0  0  0  0  0  0  0  0
   37.8820   26.6010   33.2960 C   0  0  0  0  0  0  0  0  0  0  0  0
   39.1460   27.0510   33.0330 C   0  0  0  0  0  0  0  0  0  0  0  0
   40.1930   26.2510   33.4610 C   0  0  0  0  0  0  0  0  0  0  0  0
   39.9110   25.0770   34.1120 C   0  0  0  0  0  0  0  0  0  0  0  0
   38.6320   24.6250   34.3760 C   0  0  0  0  0  0  0  0  0  0  0  0
   37.6500   25.4300   33.9440 N   0  0  0  0  0  0  0  0  0  0  0  0
   39.3600   27.9760   32.5200 H   0  0  0  0  0  0  0  0  0  0  0  0
   41.1960   26.5490   33.2830 H   0  0  0  0  0  0  0  0  0  0  0  0
   40.7520   24.4550   34.4430 H   0  0  0  0  0  0  0  0  0  0  0  0
   38.3900   23.3660   35.0740 C   0  0  0  0  0  0  0  0  0  0  0  0
   37.8730   22.4230   34.4310 O   0  0  0  0  0  0  0  0  0  0  0  0
   38.7410   23.2140   36.4820 C   0  0  0  0  0  0  0  0  0  0  0  0
   39.8300   22.5060   36.9470 C   0  0  0  0  0  0  0  0  0  0  0  0
   40.5970   21.9550   36.4160 H   0  0  0  0  0  0  0  0  0  0  0  0
   39.7620   22.6340   38.2930 N   0  0  0  0  0  0  0  0  0  0  0  0
   40.4180   22.2350   39.0150 H   0  0  0  0  0  0  0  0  0  0  0  0
   38.6880   23.3840   38.6700 C   0  0  0  0  0  0  0  0  0  0  0  0
   38.4080   23.6350   39.6820 H   0  0  0  0  0  0  0  0  0  0  0  0
   38.0580   23.7400   37.5130 N   0  0  0  0  0  0  0  0  0  0  0  0
   34.4530   29.7860   34.5470 C   0  0  2  0  0  0  0  0  0  0  0  0
   35.1660   30.7690   33.6870 C   0  0  0  0  0  0  0  0  0  0  0  0
   35.1450   29.2320   33.4290 C   0  0  1  0  0  0  0  0  0  0  0  0
   34.8570   29.6900   35.5790 H   0  0  0  0  0  0  0  0  0  0  0  0
   36.0810   31.2100   34.0730 H   0  0  0  0  0  0  0  0  0  0  0  0
   34.5600   31.3990   33.0200 H   0  0  0  0  0  0  0  0  0  0  0  0
   34.5660   28.9490   32.5120 H   0  0  0  0  0  0  0  0  0  0  0  0
   30.9540   30.1300   35.7650 C   0  0  0  0  0  0  0  0  0  0  0  0
   30.2020   29.7580   34.5980 C   0  0  0  0  0  0  0  0  0  0  0  0
   30.9300   29.3900   33.4200 C   0  0  0  0  0  0  0  0  0  0  0  0
   32.3030   29.4020   33.4330 N   0  0  0  0  0  0  0  0  0  0  0  0
   32.9420   29.7610   34.5650 C   0  0  0  0  0  0  0  0  0  0  0  0
   32.3000   30.1290   35.7420 N   0  0  0  0  0  0  0  0  0  0  0  0
   30.3750   30.4020   36.6360 H   0  0  0  0  0  0  0  0  0  0  0  0
   29.1360   29.7540   34.6060 H   0  0  0  0  0  0  0  0  0  0  0  0
   30.3740   29.1090   32.5370 H   0  0  0  0  0  0  0  0  0  0  0  0
  1  5  1  0  0  0  0
  1  3  1  0  0  0  0
  2  1  2  0  0  0  0
  3  4  1  0  0  0  0
  5 10  1  0  0  0  0
  6  5  2  0  0  0  0
  6  7  1  0  0  0  0
  7  8  2  0  0  0  0
  8  9  1  0  0  0  0
  8 13  1  0  0  0  0
  9 14  1  0  0  0  0
 10  9  2  0  0  0  0
 11  6  1  0  0  0  0
 12  7  1  0  0  0  0
 14 16  1  0  0  0  0
 15 14  2  0  0  0  0
 16 17  2  0  0  0  0
 16 23  1  0  0  0  0
 17 19  1  0  0  0  0
 18 17  1  0  0  0  0
 19 21  1  0  0  0  0
 19 20  1  0  0  0  0
 21 22  1  0  0  0  0
 23 21  2  0  0  0  0
 24 35  1  0  0  0  0
 24 27  1  1  0  0  0
 25 28  1  0  0  0  0
 25 24  1  0  0  0  0
 26 30  1  6  0  0  0
 26  3  1  0  0  0  0
 26 25  1  0  0  0  0
 26 24  1  0  0  0  0
 29 25  1  0  0  0  0
 31 37  1  0  0  0  0
 32 38  1  0  0  0  0
 32 31  2  0  0  0  0
 33 34  2  0  0  0  0
 33 32  1  0  0  0  0
 34 35  1  0  0  0  0
 35 36  2  0  0  0  0
 36 31  1  0  0  0  0
 39 33  1  0  0  0  0
M  END
>  <minimizedAffinity>
-5.50366449

$$$$

 OpenBabel03272508593D

 39 42  0  0  1  0  0  0  0  0999 V2000
   38.3140   24.1050   34.8850 C   0  0  0  0  0  0  0  0  0  0  0  0
   38.4380   23.2110   34.0340 O   0  0  0  0  0  0  0  0  0  0  0  0
   38.6660   23.8630   36.2780 N   0  0  0  0  0  0  0  0  0  0  0  0
   38.3860   24.4760   37.0500 H   0  0  0  0  0  0  0  0  0  0  0  0
   37.8080   25.4580   34.5480 C   0  0  0  0  0  0  0  0  0  0  0  0
   37.9420   26.4720   35.4540 C   0  0  0  0  0  0  0  0  0  0  0  0
   37.4450   27.7110   35.0820 C   0  0  0  0  0  0  0  0  0  0  0  0
   36.8590   27.8490   33.8490 C   0  0  0  0  0  0  0  0  0  0  0  0
   36.7250   26.8220   32.9350 C   0  0  0  0  0  0  0  0  0  0  0  0
   37.2190   25.6420   33.3370 N   0  0  0  0  0  0  0  0  0  0  0  0
   38.4040   26.3550   36.4230 H   0  0  0  0  0  0  0  0  0  0  0  0
   37.5200   28.5350   35.7460 H   0  0  0  0  0  0  0  0  0  0  0  0
   36.4700   28.8370   33.5700 H   0  0  0  0  0  0  0  0  0  0  0  0
   36.0930   27.0270   31.6350 C   0  0  0  0  0  0  0  0  0  0  0  0
   35.2620   26.1750   31.2400 O   0  0  0  0  0  0  0  0  0  0  0  0
   36.4200   28.1930   30.8220 C   0  0  0  0  0  0  0  0  0  0  0  0
   35.8240   29.4300   30.9480 C   0  0  0  0  0  0  0  0  0  0  0  0
   35.0500   29.7800   31.6210 H   0  0  0  0  0  0  0  0  0  0  0  0
   36.4300   30.1910   30.0060 N   0  0  0  0  0  0  0  0  0  0  0  0
   36.2540   31.2060   29.7810 H   0  0  0  0  0  0  0  0  0  0  0  0
   37.3640   29.4790   29.3130 C   0  0  0  0  0  0  0  0  0  0  0  0
   37.9840   29.8510   28.5120 H   0  0  0  0  0  0  0  0  0  0  0  0
   37.3420   28.2220   29.8430 N   0  0  0  0  0  0  0  0  0  0  0  0
   40.8690   22.8060   36.7090 C   0  0  2  0  0  0  0  0  0  0  0  0
   40.1000   22.7350   37.9810 C   0  0  0  0  0  0  0  0  0  0  0  0
   39.4540   22.6910   36.5640 C   0  0  1  0  0  0  0  0  0  0  0  0
   41.3890   23.7730   36.5320 H   0  0  0  0  0  0  0  0  0  0  0  0
   39.9970   23.6480   38.5620 H   0  0  0  0  0  0  0  0  0  0  0  0
   40.1340   21.7930   38.5480 H   0  0  0  0  0  0  0  0  0  0  0  0
   39.0080   21.6940   36.3160 H   0  0  0  0  0  0  0  0  0  0  0  0
   42.7590   20.4280   34.5620 C   0  0  0  0  0  0  0  0  0  0  0  0
   43.3720   19.5740   35.5420 C   0  0  0  0  0  0  0  0  0  0  0  0
   43.1070   19.8420   36.9250 C   0  0  0  0  0  0  0  0  0  0  0  0
   42.2890   20.8890   37.2730 N   0  0  0  0  0  0  0  0  0  0  0  0
   41.7480   21.6480   36.2980 C   0  0  0  0  0  0  0  0  0  0  0  0
   41.9620   21.4440   34.9390 N   0  0  0  0  0  0  0  0  0  0  0  0
   42.9810   20.1980   33.5290 H   0  0  0  0  0  0  0  0  0  0  0  0
   44.0040   18.7650   35.2530 H   0  0  0  0  0  0  0  0  0  0  0  0
   43.5630   19.2060   37.6700 H   0  0  0  0  0  0  0  0  0  0  0  0
  1  3  1  0  0  0  0
  2  1  2  0  0  0  0
  3 26  1  0  0  0  0
  3  4  1  0  0  0  0
  5  1  1  0  0  0  0
  5  6  1  0  0  0  0
  6 11  1  0  0  0  0
  7  6  2  0  0  0  0
  7 12  1  0  0  0  0
  8  7  1  0  0  0  0
  9 10  1  0  0  0  0
  9  8  2  0  0  0  0
 10  5  2  0  0  0  0
 13  8  1  0  0  0  0
 14  9  1  0  0  0  0
 15 14  2  0  0  0  0
 16 17  2  0  0  0  0
 16 14  1  0  0  0  0
 17 18  1  0  0  0  0
 19 17  1  0  0  0  0
 20 19  1  0  0  0  0
 21 23  2  0  0  0  0
 21 19  1  0  0  0  0
 22 21  1  0  0  0  0
 23 16  1  0  0  0  0
 24 27  1  6  0  0  0
 24 25  1  0  0  0  0
 25 29  1  0  0  0  0
 25 28  1  0  0  0  0
 26 30  1  6  0  0  0
 26 24  1  0  0  0  0
 26 25  1  0  0  0  0
 31 36  2  0  0  0  0
 31 32  1  0  0  0  0
 32 33  2  0  0  0  0
 33 34  1  0  0  0  0
 33 39  1  0  0  0  0
 35 24  1  0  0  0  0
 35 34  2  0  0  0  0
 36 35  1  0  0  0  0
 37 31  1  0  0  0  0
 38 32  1  0  0  0  0
M  END
>  <minimizedAffinity>
-5.42149925

$$$$

 OpenBabel03272508593D

 39 42  0  0  1  0  0  0  0  0999 V2000
   38.1160   26.9270   34.7950 C   0  0  0  0  0  0  0  0  0  0  0  0
   37.7070   26.1600   35.6800 O   0  0  0  0  0  0  0  0  0  0  0  0
   39.5420   27.1500   34.6010 N   0  0  0  0  0  0  0  0  0  0  0  0
   39.9270   27.9200   34.0460 H   0  0  0  0  0  0  0  0  0  0  0  0
   37.1950   27.6570   33.8890 C   0  0  0  0  0  0  0  0  0  0  0  0
   37.3950   27.6010   32.5380 C   0  0  0  0  0  0  0  0  0  0  0  0
   36.5040   28.3080   31.7460 C   0  0  0  0  0  0  0  0  0  0  0  0
   35.4910   29.0100   32.3480 C   0  0  0  0  0  0  0  0  0  0  0  0
   35.2910   29.0640   33.7140 C   0  0  0  0  0  0  0  0  0  0  0  0
   36.1770   28.3670   34.4410 N   0  0  0  0  0  0  0  0  0  0  0  0
   38.1960   27.0470   32.0720 H   0  0  0  0  0  0  0  0  0  0  0  0
   36.6110   28.3010   30.6900 H   0  0  0  0  0  0  0  0  0  0  0  0
   34.7950   29.5640   31.7070 H   0  0  0  0  0  0  0  0  0  0  0  0
   34.1940   29.8280   34.3010 C   0  0  0  0  0  0  0  0  0  0  0  0
   33.0390   29.6500   33.8480 O   0  0  0  0  0  0  0  0  0  0  0  0
   34.4400   30.7710   35.3870 C   0  0  0  0  0  0  0  0  0  0  0  0
   35.6660   31.3310   35.6780 C   0  0  0  0  0  0  0  0  0  0  0  0
   36.6340   31.2060   35.2050 H   0  0  0  0  0  0  0  0  0  0  0  0
   35.4250   32.1300   36.7440 N   0  0  0  0  0  0  0  0  0  0  0  0
   36.1110   32.7360   37.2680 H   0  0  0  0  0  0  0  0  0  0  0  0
   34.1140   32.0840   37.1160 C   0  0  0  0  0  0  0  0  0  0  0  0
   33.6640   32.6260   37.9340 H   0  0  0  0  0  0  0  0  0  0  0  0
   33.5110   31.2220   36.2480 N   0  0  0  0  0  0  0  0  0  0  0  0
   40.6720   24.9420   34.6460 C   0  0  2  0  0  0  0  0  0  0  0  0
   41.7250   25.9590   34.3840 C   0  0  0  0  0  0  0  0  0  0  0  0
   40.4450   26.2220   35.2330 C   0  0  1  0  0  0  0  0  0  0  0  0
   40.1080   24.6130   33.7440 H   0  0  0  0  0  0  0  0  0  0  0  0
   41.7760   26.3920   33.3890 H   0  0  0  0  0  0  0  0  0  0  0  0
   42.6770   25.8620   34.9270 H   0  0  0  0  0  0  0  0  0  0  0  0
   40.6630   26.3710   36.3220 H   0  0  0  0  0  0  0  0  0  0  0  0
   40.2610   22.3330   37.2660 C   0  0  0  0  0  0  0  0  0  0  0  0
   41.4920   21.6010   37.1440 C   0  0  0  0  0  0  0  0  0  0  0  0
   42.4370   22.0380   36.1590 C   0  0  0  0  0  0  0  0  0  0  0  0
   42.1490   23.1240   35.3690 N   0  0  0  0  0  0  0  0  0  0  0  0
   40.9730   23.7620   35.5410 C   0  0  0  0  0  0  0  0  0  0  0  0
   40.0120   23.3930   36.4760 N   0  0  0  0  0  0  0  0  0  0  0  0
   39.5700   21.9770   38.0180 H   0  0  0  0  0  0  0  0  0  0  0  0
   41.6990   20.7600   37.7660 H   0  0  0  0  0  0  0  0  0  0  0  0
   43.3650   21.4950   36.0590 H   0  0  0  0  0  0  0  0  0  0  0  0
  1  2  2  0  0  0  0
  3  1  1  0  0  0  0
  3 26  1  0  0  0  0
  4  3  1  0  0  0  0
  5 10  1  0  0  0  0
  5  1  1  0  0  0  0
  6  5  2  0  0  0  0
  7  8  2  0  0  0  0
  7  6  1  0  0  0  0
  8  9  1  0  0  0  0
  9 14  1  0  0  0  0
  9 10  2  0  0  0  0
 11  6  1  0  0  0  0
 12  7  1  0  0  0  0
 13  8  1  0  0  0  0
 14 16  1  0  0  0  0
 15 14  2  0  0  0  0
 16 17  2  0  0  0  0
 16 23  1  0  0  0  0
 17 19  1  0  0  0  0
 18 17  1  0  0  0  0
 19 21  1  0  0  0  0
 19 20  1  0  0  0  0
 21 22  1  0  0  0  0
 23 21  2  0  0  0  0
 24 27  1  6  0  0  0
 24 26  1  0  0  0  0
 24 35  1  0  0  0  0
 25 24  1  0  0  0  0
 25 29  1  0  0  0  0
 25 26  1  0  0  0  0
 26 30  1  1  0  0  0
 28 25  1  0  0  0  0
 31 37  1  0  0  0  0
 32 31  1  0  0  0  0
 32 38  1  0  0  0  0
 33 32  2  0  0  0  0
 34 35  2  0  0  0  0
 34 33  1  0  0  0  0
 35 36  1  0  0  0  0
 36 31  2  0  0  0  0
 39 33  1  0  0  0  0
M  END
>  <minimizedAffinity>
-5.41335392

$$$$

 OpenBabel03272508593D

 39 42  0  0  1  0  0  0  0  0999 V2000
   36.9200   27.0840   33.3590 C   0  0  0  0  0  0  0  0  0  0  0  0
   37.2730   26.6190   34.4530 O   0  0  0  0  0  0  0  0  0  0  0  0
   37.0390   26.2960   32.1390 N   0  0  0  0  0  0  0  0  0  0  0  0
   36.9720   26.6920   31.1970 H   0  0  0  0  0  0  0  0  0  0  0  0
   36.3610   28.4510   33.2190 C   0  0  0  0  0  0  0  0  0  0  0  0
   36.2830   29.0230   31.9810 C   0  0  0  0  0  0  0  0  0  0  0  0
   35.7550   30.3030   31.9180 C   0  0  0  0  0  0  0  0  0  0  0  0
   35.3470   30.9130   33.0770 C   0  0  0  0  0  0  0  0  0  0  0  0
   35.4280   30.3310   34.3280 C   0  0  0  0  0  0  0  0  0  0  0  0
   35.9440   29.0940   34.3420 N   0  0  0  0  0  0  0  0  0  0  0  0
   36.6060   28.5370   31.0720 H   0  0  0  0  0  0  0  0  0  0  0  0
   35.6710   30.7980   30.9820 H   0  0  0  0  0  0  0  0  0  0  0  0
   34.9320   31.9260   33.0090 H   0  0  0  0  0  0  0  0  0  0  0  0
   34.9780   31.0270   35.5300 C   0  0  0  0  0  0  0  0  0  0  0  0
   35.7950   31.7680   36.1250 O   0  0  0  0  0  0  0  0  0  0  0  0
   33.6140   30.8620   36.0210 C   0  0  0  0  0  0  0  0  0  0  0  0
   33.1120   31.4570   37.1590 C   0  0  0  0  0  0  0  0  0  0  0  0
   33.5780   32.1220   37.8770 H   0  0  0  0  0  0  0  0  0  0  0  0
   31.8290   31.0290   37.2230 N   0  0  0  0  0  0  0  0  0  0  0  0
   31.1040   31.2610   37.9520 H   0  0  0  0  0  0  0  0  0  0  0  0
   31.5250   30.2030   36.1810 C   0  0  0  0  0  0  0  0  0  0  0  0
   30.5730   29.7280   36.0000 H   0  0  0  0  0  0  0  0  0  0  0  0
   32.6640   30.1110   35.4350 N   0  0  0  0  0  0  0  0  0  0  0  0
   36.5490   23.9580   31.4700 C   0  0  2  0  0  0  0  0  0  0  0  0
   37.9430   24.2460   31.0400 C   0  0  0  0  0  0  0  0  0  0  0  0
   37.2640   24.8810   32.2900 C   0  0  1  0  0  0  0  0  0  0  0  0
   35.7620   24.3050   30.7640 H   0  0  0  0  0  0  0  0  0  0  0  0
   38.0840   24.8700   30.1610 H   0  0  0  0  0  0  0  0  0  0  0  0
   38.7040   23.4720   31.2190 H   0  0  0  0  0  0  0  0  0  0  0  0
   37.7060   24.5260   33.2570 H   0  0  0  0  0  0  0  0  0  0  0  0
   36.4850   21.0020   33.7280 C   0  0  0  0  0  0  0  0  0  0  0  0
   35.5470   20.1440   33.0580 C   0  0  0  0  0  0  0  0  0  0  0  0
   34.9660   20.6110   31.8350 C   0  0  0  0  0  0  0  0  0  0  0  0
   35.3110   21.8450   31.3410 N   0  0  0  0  0  0  0  0  0  0  0  0
   36.2000   22.5960   32.0240 C   0  0  0  0  0  0  0  0  0  0  0  0
   36.8020   22.2040   33.2150 N   0  0  0  0  0  0  0  0  0  0  0  0
   36.9040   20.6190   34.6480 H   0  0  0  0  0  0  0  0  0  0  0  0
   35.2900   19.1880   33.4560 H   0  0  0  0  0  0  0  0  0  0  0  0
   34.2590   19.9740   31.3230 H   0  0  0  0  0  0  0  0  0  0  0  0
  1  2  2  0  0  0  0
  3 26  1  0  0  0  0
  3  1  1  0  0  0  0
  4  3  1  0  0  0  0
  5  1  1  0  0  0  0
  5 10  1  0  0  0  0
  6  5  2  0  0  0  0
  7  6  1  0  0  0  0
  7  8  2  0  0  0  0
  8  9  1  0  0  0  0
  9 10  2  0  0  0  0
  9 14  1  0  0  0  0
 11  6  1  0  0  0  0
 12  7  1  0  0  0  0
 13  8  1  0  0  0  0
 14 16  1  0  0  0  0
 14 15  2  0  0  0  0
 16 17  2  0  0  0  0
 17 19  1  0  0  0  0
 17 18  1  0  0  0  0
 19 20  1  0  0  0  0
 21 19  1  0  0  0  0
 22 21  1  0  0  0  0
 23 16  1  0  0  0  0
 23 21  2  0  0  0  0
 24 27  1  6  0  0  0
 24 35  1  0  0  0  0
 24 26  1  0  0  0  0
 25 29  1  0  0  0  0
 25 24  1  0  0  0  0
 25 26  1  0  0  0  0
 26 30  1  1  0  0  0
 28 25  1  0  0  0  0
 31 37  1  0  0  0  0
 32 38  1  0  0  0  0
 32 31  2  0  0  0  0
 33 32  1  0  0  0  0
 34 33  2  0  0  0  0
 34 35  1  0  0  0  0
 35 36  2  0  0  0  0
 36 31  1  0  0  0  0
 39 33  1  0  0  0  0
M  END
>  <minimizedAffinity>
-5.34970284

$$$$

 OpenBabel03272508593D

 39 42  0  0  1  0  0  0  0  0999 V2000
   36.1990   29.2060   34.2010 C   0  0  0  0  0  0  0  0  0  0  0  0
   36.8710   28.3220   34.7540 O   0  0  0  0  0  0  0  0  0  0  0  0
   36.2160   29.3620   32.7530 N   0  0  0  0  0  0  0  0  0  0  0  0
   35.8640   30.1910   32.2660 H   0  0  0  0  0  0  0  0  0  0  0  0
   35.3450   30.1490   34.9660 C   0  0  0  0  0  0  0  0  0  0  0  0
   35.9050   31.2680   35.5150 C   0  0  0  0  0  0  0  0  0  0  0  0
   35.0560   32.1070   36.2200 C   0  0  0  0  0  0  0  0  0  0  0  0
   33.7290   31.7760   36.3250 C   0  0  0  0  0  0  0  0  0  0  0  0
   33.1670   30.6430   35.7690 C   0  0  0  0  0  0  0  0  0  0  0  0
   34.0240   29.8610   35.0960 N   0  0  0  0  0  0  0  0  0  0  0  0
   36.9500   31.5230   35.4280 H   0  0  0  0  0  0  0  0  0  0  0  0
   35.4350   32.9910   36.6700 H   0  0  0  0  0  0  0  0  0  0  0  0
   33.0710   32.4500   36.8870 H   0  0  0  0  0  0  0  0  0  0  0  0
   31.7460   30.3400   35.9120 C   0  0  0  0  0  0  0  0  0  0  0  0
   30.9540   31.2920   36.1030 O   0  0  0  0  0  0  0  0  0  0  0  0
   31.2660   28.9640   35.8330 C   0  0  0  0  0  0  0  0  0  0  0  0
   31.4740   28.0040   36.8020 C   0  0  0  0  0  0  0  0  0  0  0  0
   31.9930   28.0550   37.7520 H   0  0  0  0  0  0  0  0  0  0  0  0
   30.8630   26.8990   36.3130 N   0  0  0  0  0  0  0  0  0  0  0  0
   30.7950   25.9460   36.7590 H   0  0  0  0  0  0  0  0  0  0  0  0
   30.2940   27.1380   35.0970 C   0  0  0  0  0  0  0  0  0  0  0  0
   29.7500   26.4250   34.4970 H   0  0  0  0  0  0  0  0  0  0  0  0
   30.5610   28.4460   34.8130 N   0  0  0  0  0  0  0  0  0  0  0  0
   35.8870   27.3410   31.3520 C   0  0  2  0  0  0  0  0  0  0  0  0
   36.4390   28.3980   30.4620 C   0  0  0  0  0  0  0  0  0  0  0  0
   36.7630   28.2750   31.9810 C   0  0  1  0  0  0  0  0  0  0  0  0
   34.7860   27.3900   31.5060 H   0  0  0  0  0  0  0  0  0  0  0  0
   35.7700   29.1930   30.1440 H   0  0  0  0  0  0  0  0  0  0  0  0
   37.2300   28.1090   29.7540 H   0  0  0  0  0  0  0  0  0  0  0  0
   37.8260   27.9810   32.1810 H   0  0  0  0  0  0  0  0  0  0  0  0
   38.1060   24.3960   30.8600 C   0  0  0  0  0  0  0  0  0  0  0  0
   37.1660   23.3110   30.9140 C   0  0  0  0  0  0  0  0  0  0  0  0
   35.7830   23.6300   31.1130 C   0  0  0  0  0  0  0  0  0  0  0  0
   35.3970   24.9410   31.2460 N   0  0  0  0  0  0  0  0  0  0  0  0
   36.3360   25.9080   31.1830 C   0  0  0  0  0  0  0  0  0  0  0  0
   37.6920   25.6690   30.9920 N   0  0  0  0  0  0  0  0  0  0  0  0
   39.1410   24.1200   30.7090 H   0  0  0  0  0  0  0  0  0  0  0  0
   37.4840   22.2980   30.8090 H   0  0  0  0  0  0  0  0  0  0  0  0
   35.0680   22.8220   31.1550 H   0  0  0  0  0  0  0  0  0  0  0  0
  1  2  2  0  0  0  0
  1  5  1  0  0  0  0
  3  1  1  0  0  0  0
  4  3  1  0  0  0  0
  5 10  2  0  0  0  0
  5  6  1  0  0  0  0
  6  7  2  0  0  0  0
  7  8  1  0  0  0  0
  7 12  1  0  0  0  0
  8 13  1  0  0  0  0
  9 14  1  0  0  0  0
  9  8  2  0  0  0  0
 10  9  1  0  0  0  0
 11  6  1  0  0  0  0
 14 15  2  0  0  0  0
 16 14  1  0  0  0  0
 16 17  2  0  0  0  0
 17 18  1  0  0  0  0
 19 20  1  0  0  0  0
 19 17  1  0  0  0  0
 21 19  1  0  0  0  0
 22 21  1  0  0  0  0
 23 21  2  0  0  0  0
 23 16  1  0  0  0  0
 24 27  1  1  0  0  0
 24 26  1  0  0  0  0
 25 24  1  0  0  0  0
 25 26  1  0  0  0  0
 26 30  1  1  0  0  0
 26  3  1  0  0  0  0
 28 25  1  0  0  0  0
 29 25  1  0  0  0  0
 31 32  2  0  0  0  0
 31 36  1  0  0  0  0
 32 33  1  0  0  0  0
 33 39  1  0  0  0  0
 33 34  2  0  0  0  0
 35 34  1  0  0  0  0
 35 24  1  0  0  0  0
 36 35  2  0  0  0  0
 37 31  1  0  0  0  0
 38 32  1  0  0  0  0
M  END
>  <minimizedAffinity>
-5.33260202

$$$$

 OpenBabel03272508593D

 39 42  0  0  1  0  0  0  0  0999 V2000
   35.9510   29.4350   33.3100 C   0  0  0  0  0  0  0  0  0  0  0  0
   35.6290   30.1750   32.3680 O   0  0  0  0  0  0  0  0  0  0  0  0
   35.9320   29.9210   34.6820 N   0  0  0  0  0  0  0  0  0  0  0  0
   36.3870   29.4390   35.4630 H   0  0  0  0  0  0  0  0  0  0  0  0
   36.3710   28.0260   33.1050 C   0  0  0  0  0  0  0  0  0  0  0  0
   35.9280   27.3450   32.0060 C   0  0  0  0  0  0  0  0  0  0  0  0
   36.3520   26.0320   31.8740 C   0  0  0  0  0  0  0  0  0  0  0  0
   37.1770   25.5000   32.8320 C   0  0  0  0  0  0  0  0  0  0  0  0
   37.6230   26.1910   33.9420 C   0  0  0  0  0  0  0  0  0  0  0  0
   37.1880   27.4570   34.0290 N   0  0  0  0  0  0  0  0  0  0  0  0
   35.2790   27.7710   31.2560 H   0  0  0  0  0  0  0  0  0  0  0  0
   36.0390   25.4540   31.0410 H   0  0  0  0  0  0  0  0  0  0  0  0
   37.5030   24.4590   32.7130 H   0  0  0  0  0  0  0  0  0  0  0  0
   38.5010   25.5740   34.9310 C   0  0  0  0  0  0  0  0  0  0  0  0
   39.5610   26.1700   35.2360 O   0  0  0  0  0  0  0  0  0  0  0  0
   38.1510   24.2980   35.5460 C   0  0  0  0  0  0  0  0  0  0  0  0
   37.6480   24.1530   36.8220 C   0  0  0  0  0  0  0  0  0  0  0  0
   37.4210   24.8900   37.5830 H   0  0  0  0  0  0  0  0  0  0  0  0
   37.4740   22.8180   36.9640 N   0  0  0  0  0  0  0  0  0  0  0  0
   37.1050   22.2980   37.8030 H   0  0  0  0  0  0  0  0  0  0  0  0
   37.8460   22.1430   35.8390 C   0  0  0  0  0  0  0  0  0  0  0  0
   37.8070   21.0740   35.6940 H   0  0  0  0  0  0  0  0  0  0  0  0
   38.2700   23.0950   34.9570 N   0  0  0  0  0  0  0  0  0  0  0  0
   34.9630   31.5560   36.2770 C   0  0  2  0  0  0  0  0  0  0  0  0
   36.1240   32.2240   35.6270 C   0  0  0  0  0  0  0  0  0  0  0  0
   35.2280   31.1530   34.9340 C   0  0  1  0  0  0  0  0  0  0  0  0
   35.2260   30.9010   37.1370 H   0  0  0  0  0  0  0  0  0  0  0  0
   37.1210   31.9300   35.9430 H   0  0  0  0  0  0  0  0  0  0  0  0
   35.9980   33.2680   35.3050 H   0  0  0  0  0  0  0  0  0  0  0  0
   34.6040   31.5730   34.1040 H   0  0  0  0  0  0  0  0  0  0  0  0
   32.7530   34.3110   37.4450 C   0  0  0  0  0  0  0  0  0  0  0  0
   31.4540   33.8130   37.0890 C   0  0  0  0  0  0  0  0  0  0  0  0
   31.3770   32.5280   36.4590 C   0  0  0  0  0  0  0  0  0  0  0  0
   32.5270   31.8180   36.2140 N   0  0  0  0  0  0  0  0  0  0  0  0
   33.7120   32.3490   36.5760 C   0  0  0  0  0  0  0  0  0  0  0  0
   33.8590   33.5880   37.1910 N   0  0  0  0  0  0  0  0  0  0  0  0
   32.7750   35.2840   37.9180 H   0  0  0  0  0  0  0  0  0  0  0  0
   30.5710   34.3780   37.2880 H   0  0  0  0  0  0  0  0  0  0  0  0
   30.4050   32.1440   36.1880 H   0  0  0  0  0  0  0  0  0  0  0  0
  1  3  1  0  0  0  0
  2  1  2  0  0  0  0
  3 26  1  0  0  0  0
  3  4  1  0  0  0  0
  5  1  1  0  0  0  0
  5 10  1  0  0  0  0
  6  5  2  0  0  0  0
  7  6  1  0  0  0  0
  7  8  2  0  0  0  0
  8  9  1  0  0  0  0
  9 10  2  0  0  0  0
  9 14  1  0  0  0  0
 11  6  1  0  0  0  0
 12  7  1  0  0  0  0
 13  8  1  0  0  0  0
 14 15  2  0  0  0  0
 14 16  1  0  0  0  0
 16 17  2  0  0  0  0
 17 19  1  0  0  0  0
 17 18  1  0  0  0  0
 19 20  1  0  0  0  0
 21 19  1  0  0  0  0
 22 21  1  0  0  0  0
 23 16  1  0  0  0  0
 23 21  2  0  0  0  0
 24 35  1  0  0  0  0
 24 27  1  1  0  0  0
 25 28  1  0  0  0  0
 25 24  1  0  0  0  0
 26 30  1  6  0  0  0
 26 25  1  0  0  0  0
 26 24  1  0  0  0  0
 29 25  1  0  0  0  0
 31 37  1  0  0  0  0
 32 38  1  0  0  0  0
 32 31  2  0  0  0  0
 33 32  1  0  0  0  0
 34 33  2  0  0  0  0
 34 35  1  0  0  0  0
 35 36  2  0  0  0  0
 36 31  1  0  0  0  0
 39 33  1  0  0  0  0
M  END
>  <minimizedAffinity>
-5.2437458

$$$$

 OpenBabel03272508593D

 39 42  0  0  1  0  0  0  0  0999 V2000
   37.7770   26.6340   32.7440 C   0  0  0  0  0  0  0  0  0  0  0  0
   38.5120   27.3430   33.4460 O   0  0  0  0  0  0  0  0  0  0  0  0
   36.9410   27.2230   31.7060 N   0  0  0  0  0  0  0  0  0  0  0  0
   36.1670   26.7300   31.2520 H   0  0  0  0  0  0  0  0  0  0  0  0
   37.6990   25.1610   32.9090 C   0  0  0  0  0  0  0  0  0  0  0  0
   36.8690   24.4360   32.1020 C   0  0  0  0  0  0  0  0  0  0  0  0
   36.8380   23.0660   32.3090 C   0  0  0  0  0  0  0  0  0  0  0  0
   37.6270   22.5240   33.2910 C   0  0  0  0  0  0  0  0  0  0  0  0
   38.4670   23.2600   34.1050 C   0  0  0  0  0  0  0  0  0  0  0  0
   38.4640   24.5800   33.8700 N   0  0  0  0  0  0  0  0  0  0  0  0
   36.2500   24.8700   31.3310 H   0  0  0  0  0  0  0  0  0  0  0  0
   36.2100   22.4530   31.7120 H   0  0  0  0  0  0  0  0  0  0  0  0
   37.5910   21.4380   33.4420 H   0  0  0  0  0  0  0  0  0  0  0  0
   39.2860   22.6290   35.1350 C   0  0  0  0  0  0  0  0  0  0  0  0
   40.2440   21.9070   34.7710 O   0  0  0  0  0  0  0  0  0  0  0  0
   38.9950   22.8370   36.5500 C   0  0  0  0  0  0  0  0  0  0  0  0
   39.9010   22.6510   37.5730 C   0  0  0  0  0  0  0  0  0  0  0  0
   40.9380   22.3380   37.5550 H   0  0  0  0  0  0  0  0  0  0  0  0
   39.2060   22.9550   38.6950 N   0  0  0  0  0  0  0  0  0  0  0  0
   39.5460   22.9370   39.6920 H   0  0  0  0  0  0  0  0  0  0  0  0
   37.9230   23.3150   38.4060 C   0  0  0  0  0  0  0  0  0  0  0  0
   37.1650   23.6030   39.1180 H   0  0  0  0  0  0  0  0  0  0  0  0
   37.8110   23.2340   37.0480 N   0  0  0  0  0  0  0  0  0  0  0  0
   36.6940   29.0980   30.1000 C   0  0  2  0  0  0  0  0  0  0  0  0
   35.9810   29.4980   31.3430 C   0  0  0  0  0  0  0  0  0  0  0  0
   37.2370   28.5770   31.3130 C   0  0  1  0  0  0  0  0  0  0  0  0
   36.1030   28.4550   29.4110 H   0  0  0  0  0  0  0  0  0  0  0  0
   35.0160   29.0410   31.5440 H   0  0  0  0  0  0  0  0  0  0  0  0
   36.1210   30.5280   31.7050 H   0  0  0  0  0  0  0  0  0  0  0  0
   38.1460   29.0590   31.7560 H   0  0  0  0  0  0  0  0  0  0  0  0
   38.5930   30.7010   27.3320 C   0  0  0  0  0  0  0  0  0  0  0  0
   38.8750   31.9970   27.8840 C   0  0  0  0  0  0  0  0  0  0  0  0
   38.4040   32.2790   29.2080 C   0  0  0  0  0  0  0  0  0  0  0  0
   37.7070   31.3220   29.9040 N   0  0  0  0  0  0  0  0  0  0  0  0
   37.4800   30.1270   29.3220 C   0  0  0  0  0  0  0  0  0  0  0  0
   37.9080   29.7870   28.0430 N   0  0  0  0  0  0  0  0  0  0  0  0
   38.9620   30.5220   26.3310 H   0  0  0  0  0  0  0  0  0  0  0  0
   39.4180   32.7290   27.3300 H   0  0  0  0  0  0  0  0  0  0  0  0
   38.6100   33.2510   29.6330 H   0  0  0  0  0  0  0  0  0  0  0  0
  1  5  1  0  0  0  0
  1  2  2  0  0  0  0
  3  1  1  0  0  0  0
  4  3  1  0  0  0  0
  5 10  1  0  0  0  0
  6  7  1  0  0  0  0
  6  5  2  0  0  0  0
  7  8  2  0  0  0  0
  8 13  1  0  0  0  0
  8  9  1  0  0  0  0
  9 14  1  0  0  0  0
 10  9  2  0  0  0  0
 11  6  1  0  0  0  0
 12  7  1  0  0  0  0
 14 16  1  0  0  0  0
 15 14  2  0  0  0  0
 16 23  1  0  0  0  0
 16 17  2  0  0  0  0
 17 19  1  0  0  0  0
 18 17  1  0  0  0  0
 19 20  1  0  0  0  0
 21 19  1  0  0  0  0
 21 22  1  0  0  0  0
 23 21  2  0  0  0  0
 24 27  1  6  0  0  0
 24 26  1  0  0  0  0
 24 25  1  0  0  0  0
 25 28  1  0  0  0  0
 25 29  1  0  0  0  0
 26 25  1  0  0  0  0
 26  3  1  0  0  0  0
 26 30  1  1  0  0  0
 31 32  2  0  0  0  0
 31 36  1  0  0  0  0
 32 33  1  0  0  0  0
 33 39  1  0  0  0  0
 33 34  2  0  0  0  0
 35 34  1  0  0  0  0
 35 24  1  0  0  0  0
 36 35  2  0  0  0  0
 37 31  1  0  0  0  0
 38 32  1  0  0  0  0
M  END
>  <minimizedAffinity>
-5.19845247

$$$$
