
 OpenBabel03272508563D

 39 42  0  0  1  0  0  0  0  0999 V2000
   38.3510   31.9020   44.5060 C   0  0  0  0  0  0  0  0  0  0  0  0
   37.2400   32.4420   44.4040 O   0  0  0  0  0  0  0  0  0  0  0  0
   38.9390   31.6430   45.8130 N   0  0  0  0  0  0  0  0  0  0  0  0
   39.9250   31.4060   45.9560 H   0  0  0  0  0  0  0  0  0  0  0  0
   39.1450   31.4880   43.3210 C   0  0  0  0  0  0  0  0  0  0  0  0
   40.1340   30.5580   43.4670 C   0  0  0  0  0  0  0  0  0  0  0  0
   40.8410   30.2170   42.3240 C   0  0  0  0  0  0  0  0  0  0  0  0
   40.5160   30.8190   41.1360 C   0  0  0  0  0  0  0  0  0  0  0  0
   39.5140   31.7590   40.9930 C   0  0  0  0  0  0  0  0  0  0  0  0
   38.8570   32.0590   42.1230 N   0  0  0  0  0  0  0  0  0  0  0  0
   40.3850   30.0880   44.4060 H   0  0  0  0  0  0  0  0  0  0  0  0
   41.6230   29.5000   42.3770 H   0  0  0  0  0  0  0  0  0  0  0  0
   41.0860   30.5380   40.2410 H   0  0  0  0  0  0  0  0  0  0  0  0
   39.2100   32.3680   39.7010 C   0  0  0  0  0  0  0  0  0  0  0  0
   38.7810   33.5460   39.6880 O   0  0  0  0  0  0  0  0  0  0  0  0
   39.4000   31.6220   38.4620 C   0  0  0  0  0  0  0  0  0  0  0  0
   40.4210   31.8450   37.5610 C   0  0  0  0  0  0  0  0  0  0  0  0
   41.2340   32.5610   37.5730 H   0  0  0  0  0  0  0  0  0  0  0  0
   40.2050   30.9370   36.5800 N   0  0  0  0  0  0  0  0  0  0  0  0
   40.7700   30.7840   35.7040 H   0  0  0  0  0  0  0  0  0  0  0  0
   39.1060   30.1730   36.8380 C   0  0  0  0  0  0  0  0  0  0  0  0
   38.7190   29.3810   36.2170 H   0  0  0  0  0  0  0  0  0  0  0  0
   38.6130   30.6210   38.0290 N   0  0  0  0  0  0  0  0  0  0  0  0
   38.4400   31.1050   48.1830 C   0  0  2  0  0  0  0  0  0  0  0  0
   38.6800   32.5720   48.1150 C   0  0  0  0  0  0  0  0  0  0  0  0
   38.0660   31.7300   46.9560 C   0  0  1  0  0  0  0  0  0  0  0  0
   39.3610   30.4850   48.2560 H   0  0  0  0  0  0  0  0  0  0  0  0
   39.7070   32.9130   48.0110 H   0  0  0  0  0  0  0  0  0  0  0  0
   37.9980   33.2280   48.6750 H   0  0  0  0  0  0  0  0  0  0  0  0
   36.9870   31.9650   46.7670 H   0  0  0  0  0  0  0  0  0  0  0  0
   35.0690   30.2430   49.4990 C   0  0  0  0  0  0  0  0  0  0  0  0
   35.3990   29.5480   50.7130 C   0  0  0  0  0  0  0  0  0  0  0  0
   36.7850   29.4030   51.0470 C   0  0  0  0  0  0  0  0  0  0  0  0
   37.7460   29.9210   50.2140 N   0  0  0  0  0  0  0  0  0  0  0  0
   37.3620   30.5620   49.0920 C   0  0  0  0  0  0  0  0  0  0  0  0
   36.0370   30.7390   48.7080 N   0  0  0  0  0  0  0  0  0  0  0  0
   34.0140   30.3350   49.2770 H   0  0  0  0  0  0  0  0  0  0  0  0
   34.6390   29.1530   51.3480 H   0  0  0  0  0  0  0  0  0  0  0  0
   37.0440   28.8820   51.9570 H   0  0  0  0  0  0  0  0  0  0  0  0
  1  3  1  0  0  0  0
  2  1  2  0  0  0  0
  3  4  1  0  0  0  0
  3 26  1  0  0  0  0
  5  6  1  0  0  0  0
  5  1  1  0  0  0  0
  6 11  1  0  0  0  0
  7 12  1  0  0  0  0
  7  6  2  0  0  0  0
  8  7  1  0  0  0  0
  9  8  2  0  0  0  0
  9 10  1  0  0  0  0
 10  5  2  0  0  0  0
 13  8  1  0  0  0  0
 14  9  1  0  0  0  0
 15 14  2  0  0  0  0
 16 14  1  0  0  0  0
 17 18  1  0  0  0  0
 17 16  2  0  0  0  0
 19 21  1  0  0  0  0
 19 17  1  0  0  0  0
 20 19  1  0  0  0  0
 21 23  2  0  0  0  0
 22 21  1  0  0  0  0
 23 16  1  0  0  0  0
 24 27  1  6  0  0  0
 24 35  1  0  0  0  0
 25 24  1  0  0  0  0
 25 29  1  0  0  0  0
 26 30  1  6  0  0  0
 26 25  1  0  0  0  0
 26 24  1  0  0  0  0
 28 25  1  0  0  0  0
 31 32  1  0  0  0  0
 32 33  2  0  0  0  0
 32 38  1  0  0  0  0
 33 39  1  0  0  0  0
 34 33  1  0  0  0  0
 35 34  2  0  0  0  0
 36 35  1  0  0  0  0
 36 31  2  0  0  0  0
 37 31  1  0  0  0  0
M  END
>  <minimizedAffinity>
-4.90637016

>  <minimizedRMSD>
0.346607864

$$$$
