REMARK  Name = 
REMARK  6 active torsions:
REMARK  status: ('A' for Active; 'I' for Inactive)
REMARK    1  A    between atoms: C_1  and  C_13
REMARK    2  A    between atoms: C_2  and  O_14
REMARK    3  A    between atoms: C_6  and  C_7
REMARK    4  A    between atoms: O_14  and  C_15
REMARK    5  A    between atoms: C_16  and  N_23
REMARK    6  A    between atoms: C_21  and  C_33
REMARK                            x       y       z     vdW  Elec       q    Type
REMARK                         _______ _______ _______ _____ _____    ______ ____
ROOT
ATOM      1  O   UNL     1      36.820  32.312  49.389  0.00  0.00    +0.000 OA
ENDROOT
BRANCH   1   3
ATOM      2  C   UNL     1      38.264  32.292  47.393  0.00  0.00    +0.000 A 
ATOM      3  C   UNL     1      37.908  32.733  48.656  0.00  0.00    +0.000 A 
ATOM      4  C   UNL     1      38.670  33.687  49.310  0.00  0.00    +0.000 A 
ATOM      5  C   UNL     1      39.803  34.202  48.683  0.00  0.00    +0.000 A 
ATOM      6  C   UNL     1      40.152  33.759  47.425  0.00  0.00    +0.000 A 
ATOM      7  C   UNL     1      39.370  32.811  46.810  0.00  0.00    +0.000 A 
ATOM      8  H   UNL     1      38.465  34.076  50.275  0.00  0.00    +0.000 HD
ATOM      9  H   UNL     1      40.414  34.949  49.174  0.00  0.00    +0.000 HD
ATOM     10  H   UNL     1      41.027  34.153  46.935  0.00  0.00    +0.000 HD
BRANCH   7  11
ATOM     11  C   UNL     1      39.758  32.343  45.458  0.00  0.00    +0.000 A 
ATOM     12  C   UNL     1      40.619  31.329  45.102  0.00  0.00    +0.000 A 
ATOM     13  C   UNL     1      40.650  31.282  43.711  0.00  0.00    +0.000 A 
ATOM     14  C   UNL     1      39.796  32.282  43.307  0.00  0.00    +0.000 A 
ATOM     15  O   UNL     1      39.277  32.900  44.357  0.00  0.00    +0.000 OA
ATOM     16  H   UNL     1      41.156  30.703  45.784  0.00  0.00    +0.000 HD
ATOM     17  H   UNL     1      41.221  30.606  43.077  0.00  0.00    +0.000 HD
ATOM     18  H   UNL     1      39.534  32.582  42.309  0.00  0.00    +0.000 HD
ENDBRANCH   7  11
BRANCH   2  20
ATOM     19  N   UNL     1      36.749  30.525  46.296  0.00  0.00    +0.000 NA
ATOM     20  C   UNL     1      37.422  31.307  46.795  0.00  0.00    +0.000 C 
ENDBRANCH   2  20
ENDBRANCH   1   3
BRANCH   1  21
ATOM     21  C   UNL     1      36.792  31.200  50.166  0.00  0.00    +0.000 A 
ATOM     22  C   UNL     1      35.651  30.427  49.949  0.00  0.00    +0.000 A 
ATOM     23  C   UNL     1      35.437  29.255  50.645  0.00  0.00    +0.000 A 
ATOM     24  N   UNL     1      36.386  28.886  51.548  0.00  0.00    +0.000 NA
ATOM     25  C   UNL     1      37.498  29.654  51.748  0.00  0.00    +0.000 A 
ATOM     26  N   UNL     1      37.673  30.769  51.068  0.00  0.00    +0.000 NA
ATOM     27  H   UNL     1      34.602  28.609  50.543  0.00  0.00    +0.000 HD
ATOM     28  H   UNL     1      38.210  29.306  52.478  0.00  0.00    +0.000 HD
BRANCH  22  31
ATOM     29  C   UNL     1      34.128  29.726  48.152  0.00  0.00    +0.000 C 
ATOM     30  O   UNL     1      34.555  28.520  47.871  0.00  0.00    +0.000 OA
ATOM     31  N   UNL     1      34.622  30.712  49.043  0.00  0.00    +0.000 N 
ATOM     32  H   UNL     1      34.202  31.654  49.007  0.00  0.00    +0.000 HD
BRANCH  29  33
ATOM     33  C   UNL     1      32.914  30.063  47.374  0.00  0.00    +0.000 A 
ATOM     34  C   UNL     1      31.602  30.109  47.857  0.00  0.00    +0.000 A 
ATOM     35  H   UNL     1      31.280  29.900  48.888  0.00  0.00    +0.000 HD
ATOM     36  N   UNL     1      30.727  30.445  46.910  0.00  0.00    +0.000 N 
ATOM     37  H   UNL     1      29.697  30.547  47.010  0.00  0.00    +0.000 HD
ATOM     38  C   UNL     1      31.463  30.620  45.800  0.00  0.00    +0.000 A 
ATOM     39  H   UNL     1      31.065  30.903  44.830  0.00  0.00    +0.000 HD
ATOM     40  N   UNL     1      32.751  30.389  46.102  0.00  0.00    +0.000 NA
ENDBRANCH  29  33
ENDBRANCH  22  31
ENDBRANCH   1  21
TORSDOF 6
