
     RDKit          3D

 40 43  0  0  0  0  0  0  0  0999 V2000
   38.2642   32.2917   47.3933 C   0  0  0  0  0  0  0  0  0  0  0  0
   37.9084   32.7328   48.6563 C   0  0  0  0  0  0  0  0  0  0  0  0
   38.6702   33.6872   49.3101 C   0  0  0  0  0  0  0  0  0  0  0  0
   39.8033   34.2021   48.6827 C   0  0  0  0  0  0  0  0  0  0  0  0
   40.1524   33.7588   47.4248 C   0  0  0  0  0  0  0  0  0  0  0  0
   39.3697   32.8107   46.8105 C   0  0  0  0  0  0  0  0  0  0  0  0
   39.7583   32.3434   45.4575 C   0  0  0  0  0  0  0  0  0  0  0  0
   40.6191   31.3293   45.1015 C   0  0  0  0  0  0  0  0  0  0  0  0
   40.6497   31.2823   43.7108 C   0  0  0  0  0  0  0  0  0  0  0  0
   39.7963   32.2818   43.3068 C   0  0  0  0  0  0  0  0  0  0  0  0
   39.2774   32.8998   44.3567 O   0  0  0  0  0  0  0  0  0  0  0  0
   36.7492   30.5251   46.2963 N   0  0  0  0  0  0  0  0  0  0  0  0
   37.4221   31.3073   46.7948 C   0  0  0  0  0  0  0  0  0  0  0  0
   36.8203   32.3120   49.3892 O   0  0  0  0  0  0  0  0  0  0  0  0
   36.7925   31.2003   50.1658 C   0  0  0  0  0  0  0  0  0  0  0  0
   35.6511   30.4271   49.9493 C   0  0  0  0  0  0  0  0  0  0  0  0
   35.4371   29.2546   50.6447 C   0  0  0  0  0  0  0  0  0  0  0  0
   36.3855   28.8860   51.5483 N   0  0  0  0  0  0  0  0  0  0  0  0
   37.4982   29.6544   51.7485 C   0  0  0  0  0  0  0  0  0  0  0  0
   37.6730   30.7691   51.0684 N   0  0  0  0  0  0  0  0  0  0  0  0
   34.1284   29.7256   48.1524 C   0  0  0  0  0  0  0  0  0  0  0  0
   34.5551   28.5203   47.8707 O   0  0  0  0  0  0  0  0  0  0  0  0
   34.6216   30.7125   49.0426 N   0  0  0  0  0  0  0  0  0  0  0  0
   38.4654   34.0757   50.2751 H   0  0  0  0  0  0  0  0  0  0  0  0
   40.4142   34.9488   49.1741 H   0  0  0  0  0  0  0  0  0  0  0  0
   41.0270   34.1534   46.9355 H   0  0  0  0  0  0  0  0  0  0  0  0
   41.1564   30.7033   45.7836 H   0  0  0  0  0  0  0  0  0  0  0  0
   41.2213   30.6057   43.0766 H   0  0  0  0  0  0  0  0  0  0  0  0
   39.5341   32.5819   42.3094 H   0  0  0  0  0  0  0  0  0  0  0  0
   34.6015   28.6092   50.5434 H   0  0  0  0  0  0  0  0  0  0  0  0
   38.2103   29.3064   52.4778 H   0  0  0  0  0  0  0  0  0  0  0  0
   34.2015   31.6543   49.0065 H   0  0  0  0  0  0  0  0  0  0  0  0
   32.9138   30.0628   47.3740 C   0  0  0  0  0  0  0  0  0  0  0  0
   32.7099   29.8339   46.0090 C   0  0  0  0  0  0  0  0  0  0  0  0
   33.4235   29.3690   45.3132 H   0  0  0  0  0  0  0  0  0  0  0  0
   31.5113   30.2500   45.6015 N   0  0  0  0  0  0  0  0  0  0  0  0
   31.1179   30.1952   44.6406 H   0  0  0  0  0  0  0  0  0  0  0  0
   30.9237   30.7542   46.6988 C   0  0  0  0  0  0  0  0  0  0  0  0
   29.9278   31.1848   46.7268 H   0  0  0  0  0  0  0  0  0  0  0  0
   31.7738   30.6312   47.7323 N   0  0  0  0  0  0  0  0  0  0  0  0
  1  2  2  0
  2  3  1  0
  2 14  1  0
  4  3  2  0
  5  4  1  0
  6  1  1  0
  6  5  2  0
  7  6  1  0
  8  7  2  0
  9  8  1  0
 10  9  2  0
 10 11  1  0
 11  7  1  0
 12 13  3  0
 13  1  1  0
 14 15  1  0
 15 20  2  0
 16 15  1  0
 16 17  2  0
 17 18  1  0
 18 19  2  0
 20 19  1  0
 21 23  1  0
 22 21  2  0
 23 16  1  0
  3 24  1  0
  4 25  1  0
  5 26  1  0
  8 27  1  0
  9 28  1  0
 10 29  1  0
 17 30  1  0
 19 31  1  0
 23 32  1  0
 33 34  2  0
 34 35  1  0
 34 36  1  0
 36 37  1  0
 36 38  1  0
 38 39  1  0
 38 40  2  0
 40 33  1  0
 21 33  1  0
M  ISO  8  24  14  25  14  26  14  27  14  28  14  29  14  30  14  31  14
M  ISO  3  35  15  37   5  39  14
M  END
>  <DihAtoms>  (1) 
22,20,32,33

>  <DihDeg>  (1) 
-0.0020850210036256795

$$$$
