
 OpenBabel03272507413D

 40 43  0  0  0  0  0  0  0  0999 V2000
   36.7910   32.2490   49.1350 O   0  0  0  0  0  0  0  0  0  0  0  0
   38.2550   32.1860   47.1540 C   0  0  0  0  0  0  0  0  0  0  0  0
   37.8970   32.6400   48.4120 C   0  0  0  0  0  0  0  0  0  0  0  0
   38.6760   33.5760   49.0710 C   0  0  0  0  0  0  0  0  0  0  0  0
   39.8280   34.0610   48.4550 C   0  0  0  0  0  0  0  0  0  0  0  0
   40.1790   33.6050   47.2020 C   0  0  0  0  0  0  0  0  0  0  0  0
   39.3800   32.6750   46.5810 C   0  0  0  0  0  0  0  0  0  0  0  0
   38.4710   33.9730   50.0330 H   0  0  0  0  0  0  0  0  0  0  0  0
   40.4530   34.7930   48.9500 H   0  0  0  0  0  0  0  0  0  0  0  0
   41.0690   33.9750   46.7200 H   0  0  0  0  0  0  0  0  0  0  0  0
   39.7700   32.1930   45.2350 C   0  0  0  0  0  0  0  0  0  0  0  0
   40.6380   31.1820   44.8900 C   0  0  0  0  0  0  0  0  0  0  0  0
   40.6680   31.1180   43.5000 C   0  0  0  0  0  0  0  0  0  0  0  0
   39.8050   32.1050   43.0840 C   0  0  0  0  0  0  0  0  0  0  0  0
   39.2820   32.7320   44.1270 O   0  0  0  0  0  0  0  0  0  0  0  0
   41.1820   30.5690   45.5790 H   0  0  0  0  0  0  0  0  0  0  0  0
   41.2440   30.4380   42.8740 H   0  0  0  0  0  0  0  0  0  0  0  0
   39.5390   32.3900   42.0830 H   0  0  0  0  0  0  0  0  0  0  0  0
   36.7070   30.4550   46.0460 N   0  0  0  0  0  0  0  0  0  0  0  0
   37.3940   31.2210   46.5500 C   0  0  0  0  0  0  0  0  0  0  0  0
   36.7690   31.2250   50.0250 C   0  0  0  0  0  0  0  0  0  0  0  0
   35.7180   30.3380   49.7910 C   0  0  0  0  0  0  0  0  0  0  0  0
   35.5240   29.2310   50.5910 C   0  0  0  0  0  0  0  0  0  0  0  0
   36.4020   29.0400   51.6130 N   0  0  0  0  0  0  0  0  0  0  0  0
   37.4270   29.9180   51.8280 C   0  0  0  0  0  0  0  0  0  0  0  0
   37.5850   30.9670   51.0470 N   0  0  0  0  0  0  0  0  0  0  0  0
   34.7550   28.5080   50.4850 H   0  0  0  0  0  0  0  0  0  0  0  0
   38.0860   29.7100   52.6540 H   0  0  0  0  0  0  0  0  0  0  0  0
   34.3080   29.2920   48.0720 C   0  0  0  0  0  0  0  0  0  0  0  0
   34.7150   28.0470   48.0880 O   0  0  0  0  0  0  0  0  0  0  0  0
   34.7670   30.4380   48.7680 N   0  0  0  0  0  0  0  0  0  0  0  0
   34.3810   31.3570   48.5000 H   0  0  0  0  0  0  0  0  0  0  0  0
   33.1650   29.4730   47.1480 C   0  0  0  0  0  0  0  0  0  0  0  0
   32.9760   30.5330   46.2560 C   0  0  0  0  0  0  0  0  0  0  0  0
   33.6510   31.3890   46.1090 H   0  0  0  0  0  0  0  0  0  0  0  0
   31.8460   30.4120   45.5590 N   0  0  0  0  0  0  0  0  0  0  0  0
   31.4780   31.0620   44.8360 H   0  0  0  0  0  0  0  0  0  0  0  0
   31.2890   29.2690   45.9930 C   0  0  0  0  0  0  0  0  0  0  0  0
   30.3500   28.8620   45.6320 H   0  0  0  0  0  0  0  0  0  0  0  0
   32.0880   28.7340   46.9310 N   0  0  0  0  0  0  0  0  0  0  0  0
  1 21  1  0  0  0  0
  2  3  1  0  0  0  0
  3  4  2  0  0  0  0
  3  1  1  0  0  0  0
  4  8  1  0  0  0  0
  5  9  1  0  0  0  0
  5  4  1  0  0  0  0
  6  5  2  0  0  0  0
  7  2  2  0  0  0  0
  7  6  1  0  0  0  0
 10  6  1  0  0  0  0
 11  7  1  0  0  0  0
 12 11  2  0  0  0  0
 12 16  1  0  0  0  0
 13 12  1  0  0  0  0
 14 13  2  0  0  0  0
 14 15  1  0  0  0  0
 15 11  1  0  0  0  0
 17 13  1  0  0  0  0
 18 14  1  0  0  0  0
 19 20  3  0  0  0  0
 20  2  1  0  0  0  0
 21 26  1  0  0  0  0
 22 21  2  0  0  0  0
 22 23  1  0  0  0  0
 23 24  2  0  0  0  0
 24 25  1  0  0  0  0
 25 28  1  0  0  0  0
 26 25  2  0  0  0  0
 27 23  1  0  0  0  0
 29 30  2  0  0  0  0
 29 31  1  0  0  0  0
 31 22  1  0  0  0  0
 32 31  1  0  0  0  0
 33 29  1  0  0  0  0
 34 33  2  0  0  0  0
 35 34  1  0  0  0  0
 36 38  1  0  0  0  0
 36 34  1  0  0  0  0
 37 36  1  0  0  0  0
 38 40  2  0  0  0  0
 39 38  1  0  0  0  0
 40 33  1  0  0  0  0
M  END
>  <minimizedAffinity>
-5.95175934

>  <minimizedRMSD>
0.595026076

$$$$
