
 OpenBabel03272507413D

 40 43  0  0  0  0  0  0  0  0999 V2000
   36.7830   32.2870   49.2520 O   0  0  0  0  0  0  0  0  0  0  0  0
   38.2550   32.2600   47.2760 C   0  0  0  0  0  0  0  0  0  0  0  0
   37.8880   32.6970   48.5370 C   0  0  0  0  0  0  0  0  0  0  0  0
   38.6560   33.6330   49.2090 C   0  0  0  0  0  0  0  0  0  0  0  0
   39.8060   34.1350   48.6020 C   0  0  0  0  0  0  0  0  0  0  0  0
   40.1650   33.6960   47.3460 C   0  0  0  0  0  0  0  0  0  0  0  0
   39.3770   32.7650   46.7120 C   0  0  0  0  0  0  0  0  0  0  0  0
   38.4440   34.0180   50.1750 H   0  0  0  0  0  0  0  0  0  0  0  0
   40.4220   34.8680   49.1080 H   0  0  0  0  0  0  0  0  0  0  0  0
   41.0530   34.0790   46.8710 H   0  0  0  0  0  0  0  0  0  0  0  0
   39.7760   32.3010   45.3620 C   0  0  0  0  0  0  0  0  0  0  0  0
   40.5950   31.2520   45.0100 C   0  0  0  0  0  0  0  0  0  0  0  0
   40.6600   31.2270   43.6190 C   0  0  0  0  0  0  0  0  0  0  0  0
   39.8660   32.2750   43.2120 C   0  0  0  0  0  0  0  0  0  0  0  0
   39.3510   32.9000   44.2600 O   0  0  0  0  0  0  0  0  0  0  0  0
   41.0840   30.5900   45.6930 H   0  0  0  0  0  0  0  0  0  0  0  0
   41.2130   30.5350   42.9870 H   0  0  0  0  0  0  0  0  0  0  0  0
   39.6450   32.6040   42.2140 H   0  0  0  0  0  0  0  0  0  0  0  0
   36.7270   30.5260   46.1440 N   0  0  0  0  0  0  0  0  0  0  0  0
   37.4050   31.2930   46.6590 C   0  0  0  0  0  0  0  0  0  0  0  0
   36.7570   31.2280   50.1000 C   0  0  0  0  0  0  0  0  0  0  0  0
   35.7070   30.3520   49.8250 C   0  0  0  0  0  0  0  0  0  0  0  0
   35.5090   29.2130   50.5780 C   0  0  0  0  0  0  0  0  0  0  0  0
   36.3820   28.9810   51.5960 N   0  0  0  0  0  0  0  0  0  0  0  0
   37.4060   29.8490   51.8520 C   0  0  0  0  0  0  0  0  0  0  0  0
   37.5670   30.9300   51.1140 N   0  0  0  0  0  0  0  0  0  0  0  0
   34.7410   28.4950   50.4390 H   0  0  0  0  0  0  0  0  0  0  0  0
   38.0610   29.6080   52.6730 H   0  0  0  0  0  0  0  0  0  0  0  0
   34.3270   29.3800   48.0380 C   0  0  0  0  0  0  0  0  0  0  0  0
   34.7570   28.1440   47.9870 O   0  0  0  0  0  0  0  0  0  0  0  0
   34.7610   30.4930   48.8020 N   0  0  0  0  0  0  0  0  0  0  0  0
   34.3610   31.4190   48.5830 H   0  0  0  0  0  0  0  0  0  0  0  0
   33.1870   29.5930   47.1180 C   0  0  0  0  0  0  0  0  0  0  0  0
   32.1390   28.7010   46.8700 C   0  0  0  0  0  0  0  0  0  0  0  0
   32.0090   27.7070   47.3240 H   0  0  0  0  0  0  0  0  0  0  0  0
   31.2640   29.1820   45.9870 N   0  0  0  0  0  0  0  0  0  0  0  0
   30.4030   28.7180   45.6360 H   0  0  0  0  0  0  0  0  0  0  0  0
   31.7350   30.3950   45.6530 C   0  0  0  0  0  0  0  0  0  0  0  0
   31.2620   31.0710   44.9490 H   0  0  0  0  0  0  0  0  0  0  0  0
   32.8720   30.6130   46.3350 N   0  0  0  0  0  0  0  0  0  0  0  0
  1 21  1  0  0  0  0
  2  3  1  0  0  0  0
  3  4  2  0  0  0  0
  3  1  1  0  0  0  0
  4  8  1  0  0  0  0
  5  9  1  0  0  0  0
  5  4  1  0  0  0  0
  6  5  2  0  0  0  0
  7  2  2  0  0  0  0
  7  6  1  0  0  0  0
 10  6  1  0  0  0  0
 11  7  1  0  0  0  0
 12 11  2  0  0  0  0
 12 16  1  0  0  0  0
 13 12  1  0  0  0  0
 14 13  2  0  0  0  0
 14 15  1  0  0  0  0
 15 11  1  0  0  0  0
 17 13  1  0  0  0  0
 18 14  1  0  0  0  0
 19 20  3  0  0  0  0
 20  2  1  0  0  0  0
 21 26  1  0  0  0  0
 22 21  2  0  0  0  0
 22 23  1  0  0  0  0
 23 24  2  0  0  0  0
 24 25  1  0  0  0  0
 25 28  1  0  0  0  0
 26 25  2  0  0  0  0
 27 23  1  0  0  0  0
 29 31  1  0  0  0  0
 30 29  2  0  0  0  0
 31 22  1  0  0  0  0
 32 31  1  0  0  0  0
 33 29  1  0  0  0  0
 34 33  2  0  0  0  0
 34 35  1  0  0  0  0
 36 34  1  0  0  0  0
 37 36  1  0  0  0  0
 38 36  1  0  0  0  0
 38 40  2  0  0  0  0
 39 38  1  0  0  0  0
 40 33  1  0  0  0  0
M  END
>  <minimizedAffinity>
-5.99261761

>  <minimizedRMSD>
0.398723364

$$$$
