
     RDKit          3D

 39 43  0  0  0  0  0  0  0  0999 V2000
   35.8597   29.1199   49.8118 C   0  0  0  0  0  0  0  0  0  0  0  0
   34.8253   29.6157   50.5530 C   0  0  0  0  0  0  0  0  0  0  0  0
   33.6500   29.0340   50.0629 C   0  0  0  0  0  0  0  0  0  0  0  0
   34.0602   28.2011   49.0285 C   0  0  0  0  0  0  0  0  0  0  0  0
   35.3560   28.3008   48.9387 O   0  0  0  0  0  0  0  0  0  0  0  0
   33.5327   26.4307   47.3546 C   0  0  0  0  0  0  0  0  0  0  0  0
   33.1288   27.3958   48.2391 C   0  0  0  0  0  0  0  0  0  0  0  0
   31.7807   27.6723   48.4383 C   0  0  0  0  0  0  0  0  0  0  0  0
   30.8462   26.9430   47.7151 C   0  0  0  0  0  0  0  0  0  0  0  0
   29.5092   26.9910   47.6993 N   0  0  0  0  0  0  0  0  0  0  0  0
   29.0865   26.0735   46.8211 N   0  0  0  0  0  0  0  0  0  0  0  0
   30.1673   25.4539   46.2903 C   0  0  0  0  0  0  0  0  0  0  0  0
   31.3034   25.9845   46.8388 C   0  0  0  0  0  0  0  0  0  0  0  0
   32.6395   25.6984   46.6304 C   0  0  0  0  0  0  0  0  0  0  0  0
   37.2350   29.5200   50.0586 C   0  0  0  0  0  0  0  0  0  0  0  0
   37.8749   28.9640   50.9708 O   0  0  0  0  0  0  0  0  0  0  0  0
   37.7827   30.5599   49.2110 C   0  0  0  0  0  0  0  0  0  0  0  0
   38.1265   31.7616   49.8234 C   0  0  0  0  0  0  0  0  0  0  0  0
   38.6593   32.7957   49.0460 C   0  0  0  0  0  0  0  0  0  0  0  0
   38.8089   32.5483   47.7073 N   0  0  0  0  0  0  0  0  0  0  0  0
   38.4735   31.3895   47.1380 C   0  0  0  0  0  0  0  0  0  0  0  0
   37.9629   30.4045   47.8960 N   0  0  0  0  0  0  0  0  0  0  0  0
   34.8573   30.3338   51.3835 H   0  0  0  0  0  0  0  0  0  0  0  0
   32.6712   29.2556   50.4764 H   0  0  0  0  0  0  0  0  0  0  0  0
   34.5923   26.2516   47.2340 H   0  0  0  0  0  0  0  0  0  0  0  0
   31.3759   28.4275   49.1266 H   0  0  0  0  0  0  0  0  0  0  0  0
   28.8820   27.6213   48.2608 H   0  0  0  0  0  0  0  0  0  0  0  0
   30.1003   24.6714   45.5545 H   0  0  0  0  0  0  0  0  0  0  0  0
   32.9361   24.9321   45.9270 H   0  0  0  0  0  0  0  0  0  0  0  0
   38.0259   31.9997   50.8732 H   0  0  0  0  0  0  0  0  0  0  0  0
   38.9396   33.7424   49.4760 H   0  0  0  0  0  0  0  0  0  0  0  0
   38.6399   31.1434   45.7094 C   0  0  0  0  0  0  0  0  0  0  0  0
   39.6938   31.6518   44.9633 C   0  0  0  0  0  0  0  0  0  0  0  0
   40.5015   32.2707   45.3124 H   0  0  0  0  0  0  0  0  0  0  0  0
   39.5076   31.2124   43.6909 N   0  0  0  0  0  0  0  0  0  0  0  0
   40.1330   31.4178   42.8616 H   0  0  0  0  0  0  0  0  0  0  0  0
   38.3809   30.4507   43.6125 C   0  0  0  0  0  0  0  0  0  0  0  0
   37.9966   29.9738   42.7136 H   0  0  0  0  0  0  0  0  0  0  0  0
   37.8598   30.4184   44.8611 N   0  0  0  0  0  0  0  0  0  0  0  0
  1 15  1  0
  1  2  2  0
  3  2  1  0
  4  3  2  0
  5  4  1  0
  5  1  1  0
  6  7  2  0
  7  8  1  0
  7  4  1  0
  9  8  2  0
 10  9  1  0
 11 10  1  0
 12 13  1  0
 12 11  2  0
 13  9  1  0
 14 13  2  0
 14  6  1  0
 15 16  2  0
 17 18  2  0
 17 15  1  0
 19 18  1  0
 20 19  2  0
 21 20  1  0
 21 22  2  0
 22 17  1  0
  2 23  1  0
  3 24  1  0
  6 25  1  0
  8 26  1  0
 10 27  1  0
 12 28  1  0
 14 29  1  0
 18 30  1  0
 19 31  1  0
 32 33  2  0
 33 34  1  0
 33 35  1  0
 35 36  1  0
 35 37  1  0
 37 38  1  0
 37 39  2  0
 39 32  1  0
 21 32  1  0
M  ISO  8  23  14  24  14  25  14  26  14  27   9  28  14  29  14  30  14
M  ISO  4  31  14  34  15  36   5  38  14
M  END
>  <DihAtoms>  (1) 
19,20,31,32

>  <DihDeg>  (1) 
80.30398812847675

$$$$
