
 OpenBabel03272507433D

 40 43  0  0  0  0  0  0  0  0999 V2000
   38.8940   26.2380   32.2390 O   0  0  0  0  0  0  0  0  0  0  0  0
   37.1320   27.8260   32.9070 C   0  0  0  0  0  0  0  0  0  0  0  0
   38.0700   27.3210   32.0230 C   0  0  0  0  0  0  0  0  0  0  0  0
   38.2550   27.9070   30.7810 C   0  0  0  0  0  0  0  0  0  0  0  0
   37.4860   29.0150   30.4290 C   0  0  0  0  0  0  0  0  0  0  0  0
   36.5540   29.5130   31.3140 C   0  0  0  0  0  0  0  0  0  0  0  0
   36.4010   28.9020   32.5360 C   0  0  0  0  0  0  0  0  0  0  0  0
   38.9510   27.5820   30.0500 H   0  0  0  0  0  0  0  0  0  0  0  0
   37.6130   29.4900   29.4650 H   0  0  0  0  0  0  0  0  0  0  0  0
   35.9570   30.3690   31.0480 H   0  0  0  0  0  0  0  0  0  0  0  0
   35.3940   29.4480   33.4780 C   0  0  0  0  0  0  0  0  0  0  0  0
   35.5630   30.3470   34.5070 C   0  0  0  0  0  0  0  0  0  0  0  0
   34.3170   30.5390   35.0970 C   0  0  0  0  0  0  0  0  0  0  0  0
   33.4610   29.7360   34.3780 C   0  0  0  0  0  0  0  0  0  0  0  0
   34.1190   29.0970   33.4230 O   0  0  0  0  0  0  0  0  0  0  0  0
   36.4900   30.8020   34.7870 H   0  0  0  0  0  0  0  0  0  0  0  0
   34.0670   31.1820   35.9390 H   0  0  0  0  0  0  0  0  0  0  0  0
   32.4040   29.5920   34.5080 H   0  0  0  0  0  0  0  0  0  0  0  0
   36.9010   26.6060   35.1610 N   0  0  0  0  0  0  0  0  0  0  0  0
   37.0090   27.1580   34.1630 C   0  0  0  0  0  0  0  0  0  0  0  0
   38.7830   25.0410   31.6080 C   0  0  0  0  0  0  0  0  0  0  0  0
   38.7420   23.9700   32.5010 C   0  0  0  0  0  0  0  0  0  0  0  0
   38.6320   22.6690   32.0540 C   0  0  0  0  0  0  0  0  0  0  0  0
   38.5640   22.4780   30.7090 N   0  0  0  0  0  0  0  0  0  0  0  0
   38.6040   23.5380   29.8480 C   0  0  0  0  0  0  0  0  0  0  0  0
   38.7110   24.7690   30.3060 N   0  0  0  0  0  0  0  0  0  0  0  0
   38.5930   21.8000   32.6600 H   0  0  0  0  0  0  0  0  0  0  0  0
   38.5470   23.3180   28.7950 H   0  0  0  0  0  0  0  0  0  0  0  0
   38.1850   23.0830   34.7250 C   0  0  0  0  0  0  0  0  0  0  0  0
   37.3830   22.0870   34.4410 O   0  0  0  0  0  0  0  0  0  0  0  0
   38.7980   24.0580   33.8970 N   0  0  0  0  0  0  0  0  0  0  0  0
   39.2910   24.8420   34.3530 H   0  0  0  0  0  0  0  0  0  0  0  0
   38.4650   23.1540   36.1770 C   0  0  0  0  0  0  0  0  0  0  0  0
   39.5280   22.5430   36.8500 C   0  0  0  0  0  0  0  0  0  0  0  0
   40.3130   21.9190   36.3970 H   0  0  0  0  0  0  0  0  0  0  0  0
   39.5070   22.7940   38.1590 N   0  0  0  0  0  0  0  0  0  0  0  0
   40.1820   22.4590   38.8760 H   0  0  0  0  0  0  0  0  0  0  0  0
   38.4300   23.5730   38.3490 C   0  0  0  0  0  0  0  0  0  0  0  0
   38.1120   23.9670   39.3090 H   0  0  0  0  0  0  0  0  0  0  0  0
   37.8310   23.7700   37.1620 N   0  0  0  0  0  0  0  0  0  0  0  0
  2 20  1  0  0  0  0
  3  1  1  0  0  0  0
  3  2  2  0  0  0  0
  4  3  1  0  0  0  0
  5  4  2  0  0  0  0
  5  6  1  0  0  0  0
  6  7  2  0  0  0  0
  7  2  1  0  0  0  0
  7 11  1  0  0  0  0
  8  4  1  0  0  0  0
  9  5  1  0  0  0  0
 10  6  1  0  0  0  0
 11 12  2  0  0  0  0
 12 16  1  0  0  0  0
 12 13  1  0  0  0  0
 13 17  1  0  0  0  0
 14 18  1  0  0  0  0
 14 13  2  0  0  0  0
 15 11  1  0  0  0  0
 15 14  1  0  0  0  0
 20 19  3  0  0  0  0
 21  1  1  0  0  0  0
 21 22  1  0  0  0  0
 22 31  1  0  0  0  0
 23 22  2  0  0  0  0
 23 27  1  0  0  0  0
 24 23  1  0  0  0  0
 25 26  1  0  0  0  0
 25 24  2  0  0  0  0
 26 21  2  0  0  0  0
 28 25  1  0  0  0  0
 29 33  1  0  0  0  0
 30 29  2  0  0  0  0
 31 32  1  0  0  0  0
 31 29  1  0  0  0  0
 33 34  2  0  0  0  0
 33 40  1  0  0  0  0
 34 36  1  0  0  0  0
 35 34  1  0  0  0  0
 36 38  1  0  0  0  0
 36 37  1  0  0  0  0
 38 39  1  0  0  0  0
 40 38  2  0  0  0  0
M  END
>  <minimizedAffinity>
-5.74142027

$$$$

 OpenBabel03272507433D

 40 43  0  0  0  0  0  0  0  0999 V2000
   37.7490   25.7920   33.1470 O   0  0  0  0  0  0  0  0  0  0  0  0
   36.7400   23.6900   32.3510 C   0  0  0  0  0  0  0  0  0  0  0  0
   36.8570   25.0690   32.3860 C   0  0  0  0  0  0  0  0  0  0  0  0
   36.0340   25.8660   31.6070 C   0  0  0  0  0  0  0  0  0  0  0  0
   35.0830   25.2650   30.7850 C   0  0  0  0  0  0  0  0  0  0  0  0
   34.9710   23.8910   30.7550 C   0  0  0  0  0  0  0  0  0  0  0  0
   35.8060   23.1360   31.5430 C   0  0  0  0  0  0  0  0  0  0  0  0
   36.0610   26.9250   31.5770 H   0  0  0  0  0  0  0  0  0  0  0  0
   34.4280   25.8670   30.1670 H   0  0  0  0  0  0  0  0  0  0  0  0
   34.2370   23.4210   30.1220 H   0  0  0  0  0  0  0  0  0  0  0  0
   35.6750   21.6600   31.5000 C   0  0  0  0  0  0  0  0  0  0  0  0
   34.8380   20.8390   32.2230 C   0  0  0  0  0  0  0  0  0  0  0  0
   35.0950   19.5310   31.8230 C   0  0  0  0  0  0  0  0  0  0  0  0
   36.0830   19.6420   30.8720 C   0  0  0  0  0  0  0  0  0  0  0  0
   36.4140   20.9120   30.6950 O   0  0  0  0  0  0  0  0  0  0  0  0
   34.1270   21.1660   32.9530 H   0  0  0  0  0  0  0  0  0  0  0  0
   34.6230   18.6170   32.1790 H   0  0  0  0  0  0  0  0  0  0  0  0
   36.5680   18.8650   30.3100 H   0  0  0  0  0  0  0  0  0  0  0  0
   38.3590   22.3640   33.8490 N   0  0  0  0  0  0  0  0  0  0  0  0
   37.6290   22.9480   33.1860 C   0  0  0  0  0  0  0  0  0  0  0  0
   38.9710   26.2050   32.7270 C   0  0  0  0  0  0  0  0  0  0  0  0
   40.0010   25.7480   33.5500 C   0  0  0  0  0  0  0  0  0  0  0  0
   41.3190   26.0620   33.2900 C   0  0  0  0  0  0  0  0  0  0  0  0
   41.5700   26.8340   32.1970 N   0  0  0  0  0  0  0  0  0  0  0  0
   40.5500   27.2730   31.4010 C   0  0  0  0  0  0  0  0  0  0  0  0
   39.3010   26.9560   31.6770 N   0  0  0  0  0  0  0  0  0  0  0  0
   42.1600   25.7580   33.8600 H   0  0  0  0  0  0  0  0  0  0  0  0
   40.8170   27.8810   30.5520 H   0  0  0  0  0  0  0  0  0  0  0  0
   39.1260   25.3990   35.8200 C   0  0  0  0  0  0  0  0  0  0  0  0
   38.6230   26.5720   36.1150 O   0  0  0  0  0  0  0  0  0  0  0  0
   39.8520   24.9470   34.6890 N   0  0  0  0  0  0  0  0  0  0  0  0
   40.2720   24.0060   34.7260 H   0  0  0  0  0  0  0  0  0  0  0  0
   38.8570   24.4130   36.8910 C   0  0  0  0  0  0  0  0  0  0  0  0
   39.5770   23.2400   37.1420 C   0  0  0  0  0  0  0  0  0  0  0  0
   40.4500   22.8780   36.5770 H   0  0  0  0  0  0  0  0  0  0  0  0
   39.0880   22.5600   38.1790 N   0  0  0  0  0  0  0  0  0  0  0  0
   39.4400   21.6610   38.5660 H   0  0  0  0  0  0  0  0  0  0  0  0
   38.0460   23.2860   38.6140 C   0  0  0  0  0  0  0  0  0  0  0  0
   37.4140   23.0210   39.4550 H   0  0  0  0  0  0  0  0  0  0  0  0
   37.9310   24.3760   37.8360 N   0  0  0  0  0  0  0  0  0  0  0  0
  2  3  1  0  0  0  0
  2 20  1  0  0  0  0
  3  1  1  0  0  0  0
  4  3  2  0  0  0  0
  5  4  1  0  0  0  0
  6  5  2  0  0  0  0
  6  7  1  0  0  0  0
  7  2  2  0  0  0  0
  8  4  1  0  0  0  0
  9  5  1  0  0  0  0
 10  6  1  0  0  0  0
 11  7  1  0  0  0  0
 11 12  2  0  0  0  0
 12 16  1  0  0  0  0
 13 17  1  0  0  0  0
 13 12  1  0  0  0  0
 14 13  2  0  0  0  0
 15 14  1  0  0  0  0
 15 11  1  0  0  0  0
 18 14  1  0  0  0  0
 20 19  3  0  0  0  0
 21  1  1  0  0  0  0
 21 22  1  0  0  0  0
 22 31  1  0  0  0  0
 23 22  2  0  0  0  0
 23 27  1  0  0  0  0
 24 23  1  0  0  0  0
 25 26  1  0  0  0  0
 25 24  2  0  0  0  0
 26 21  2  0  0  0  0
 28 25  1  0  0  0  0
 29 30  2  0  0  0  0
 29 33  1  0  0  0  0
 31 32  1  0  0  0  0
 31 29  1  0  0  0  0
 33 34  2  0  0  0  0
 33 40  1  0  0  0  0
 34 36  1  0  0  0  0
 35 34  1  0  0  0  0
 36 37  1  0  0  0  0
 36 38  1  0  0  0  0
 38 39  1  0  0  0  0
 40 38  2  0  0  0  0
M  END
>  <minimizedAffinity>
-5.60641813

$$$$

 OpenBabel03272507433D

 40 43  0  0  0  0  0  0  0  0999 V2000
   38.1780   24.0500   32.8320 O   0  0  0  0  0  0  0  0  0  0  0  0
   37.3970   26.1320   31.7710 C   0  0  0  0  0  0  0  0  0  0  0  0
   37.2600   24.8030   32.1330 C   0  0  0  0  0  0  0  0  0  0  0  0
   36.1180   24.0950   31.7960 C   0  0  0  0  0  0  0  0  0  0  0  0
   35.1030   24.7350   31.0860 C   0  0  0  0  0  0  0  0  0  0  0  0
   35.2460   26.0590   30.7280 C   0  0  0  0  0  0  0  0  0  0  0  0
   36.3940   26.7260   31.0820 C   0  0  0  0  0  0  0  0  0  0  0  0
   35.9370   23.0780   32.0340 H   0  0  0  0  0  0  0  0  0  0  0  0
   34.2020   24.2020   30.8110 H   0  0  0  0  0  0  0  0  0  0  0  0
   34.4650   26.5590   30.1800 H   0  0  0  0  0  0  0  0  0  0  0  0
   36.5330   28.1490   30.6920 C   0  0  0  0  0  0  0  0  0  0  0  0
   36.1000   29.2780   31.3500 C   0  0  0  0  0  0  0  0  0  0  0  0
   36.4710   30.3760   30.5780 C   0  0  0  0  0  0  0  0  0  0  0  0
   37.1130   29.8360   29.4880 C   0  0  0  0  0  0  0  0  0  0  0  0
   37.1400   28.5150   29.5730 O   0  0  0  0  0  0  0  0  0  0  0  0
   35.5760   29.2900   32.2830 H   0  0  0  0  0  0  0  0  0  0  0  0
   36.2950   31.4300   30.7850 H   0  0  0  0  0  0  0  0  0  0  0  0
   37.5550   30.3410   28.6480 H   0  0  0  0  0  0  0  0  0  0  0  0
   39.5660   27.3160   32.4880 N   0  0  0  0  0  0  0  0  0  0  0  0
   38.6060   26.7830   32.1600 C   0  0  0  0  0  0  0  0  0  0  0  0
   38.1360   23.8210   34.1680 C   0  0  0  0  0  0  0  0  0  0  0  0
   38.0000   22.4660   34.4730 C   0  0  0  0  0  0  0  0  0  0  0  0
   37.9380   22.0290   35.7800 C   0  0  0  0  0  0  0  0  0  0  0  0
   38.0160   22.9740   36.7560 N   0  0  0  0  0  0  0  0  0  0  0  0
   38.1490   24.2970   36.4410 C   0  0  0  0  0  0  0  0  0  0  0  0
   38.2050   24.6830   35.1830 N   0  0  0  0  0  0  0  0  0  0  0  0
   37.8360   21.0230   36.1000 H   0  0  0  0  0  0  0  0  0  0  0  0
   38.2040   24.9930   37.2610 H   0  0  0  0  0  0  0  0  0  0  0  0
   36.6730   20.8350   33.2010 C   0  0  0  0  0  0  0  0  0  0  0  0
   35.4730   20.9910   33.7030 O   0  0  0  0  0  0  0  0  0  0  0  0
   37.9180   21.4180   33.5490 N   0  0  0  0  0  0  0  0  0  0  0  0
   38.7710   21.0460   33.1010 H   0  0  0  0  0  0  0  0  0  0  0  0
   36.6660   19.8720   32.0760 C   0  0  0  0  0  0  0  0  0  0  0  0
   35.7270   18.8590   31.8530 C   0  0  0  0  0  0  0  0  0  0  0  0
   34.8560   18.6290   32.4840 H   0  0  0  0  0  0  0  0  0  0  0  0
   35.9950   18.1570   30.7530 N   0  0  0  0  0  0  0  0  0  0  0  0
   35.4540   17.3560   30.3690 H   0  0  0  0  0  0  0  0  0  0  0  0
   37.1100   18.7090   30.2470 C   0  0  0  0  0  0  0  0  0  0  0  0
   37.6100   18.3780   29.3430 H   0  0  0  0  0  0  0  0  0  0  0  0
   37.4860   19.7200   31.0490 N   0  0  0  0  0  0  0  0  0  0  0  0
  1 21  1  0  0  0  0
  2  3  1  0  0  0  0
  2 20  1  0  0  0  0
  3  1  1  0  0  0  0
  4  8  1  0  0  0  0
  4  3  2  0  0  0  0
  5  4  1  0  0  0  0
  6  7  1  0  0  0  0
  6  5  2  0  0  0  0
  7  2  2  0  0  0  0
  9  5  1  0  0  0  0
 10  6  1  0  0  0  0
 11  7  1  0  0  0  0
 11 12  2  0  0  0  0
 12 16  1  0  0  0  0
 13 17  1  0  0  0  0
 13 12  1  0  0  0  0
 14 15  1  0  0  0  0
 14 13  2  0  0  0  0
 15 11  1  0  0  0  0
 18 14  1  0  0  0  0
 20 19  3  0  0  0  0
 21 22  2  0  0  0  0
 21 26  1  0  0  0  0
 22 23  1  0  0  0  0
 23 27  1  0  0  0  0
 23 24  2  0  0  0  0
 25 24  1  0  0  0  0
 25 28  1  0  0  0  0
 26 25  2  0  0  0  0
 29 31  1  0  0  0  0
 29 30  2  0  0  0  0
 31 22  1  0  0  0  0
 32 31  1  0  0  0  0
 33 29  1  0  0  0  0
 34 33  2  0  0  0  0
 34 35  1  0  0  0  0
 36 34  1  0  0  0  0
 37 36  1  0  0  0  0
 38 36  1  0  0  0  0
 38 40  2  0  0  0  0
 39 38  1  0  0  0  0
 40 33  1  0  0  0  0
M  END
>  <minimizedAffinity>
-5.5806818

$$$$

 OpenBabel03272507433D

 40 43  0  0  0  0  0  0  0  0999 V2000
   38.8050   26.3380   32.5510 O   0  0  0  0  0  0  0  0  0  0  0  0
   37.0570   27.9470   33.2050 C   0  0  0  0  0  0  0  0  0  0  0  0
   37.8250   27.2670   32.2760 C   0  0  0  0  0  0  0  0  0  0  0  0
   37.6490   27.4880   30.9200 C   0  0  0  0  0  0  0  0  0  0  0  0
   36.6880   28.4050   30.4970 C   0  0  0  0  0  0  0  0  0  0  0  0
   35.9270   29.0790   31.4280 C   0  0  0  0  0  0  0  0  0  0  0  0
   36.1320   28.8310   32.7640 C   0  0  0  0  0  0  0  0  0  0  0  0
   38.1950   27.0090   30.1470 H   0  0  0  0  0  0  0  0  0  0  0  0
   36.5330   28.5950   29.4420 H   0  0  0  0  0  0  0  0  0  0  0  0
   35.1820   29.7890   31.1080 H   0  0  0  0  0  0  0  0  0  0  0  0
   35.3050   29.5620   33.7540 C   0  0  0  0  0  0  0  0  0  0  0  0
   35.6100   30.6940   34.4760 C   0  0  0  0  0  0  0  0  0  0  0  0
   34.5060   30.9880   35.2710 C   0  0  0  0  0  0  0  0  0  0  0  0
   33.5900   30.0040   34.9760 C   0  0  0  0  0  0  0  0  0  0  0  0
   34.0820   29.1680   34.0750 O   0  0  0  0  0  0  0  0  0  0  0  0
   36.5330   31.2340   34.4220 H   0  0  0  0  0  0  0  0  0  0  0  0
   34.3860   31.8120   35.9720 H   0  0  0  0  0  0  0  0  0  0  0  0
   32.6020   29.8640   35.3740 H   0  0  0  0  0  0  0  0  0  0  0  0
   37.5260   27.4200   35.6800 N   0  0  0  0  0  0  0  0  0  0  0  0
   37.3060   27.6560   34.5800 C   0  0  0  0  0  0  0  0  0  0  0  0
   40.1320   26.6090   32.6210 C   0  0  0  0  0  0  0  0  0  0  0  0
   40.6790   26.2800   33.8610 C   0  0  0  0  0  0  0  0  0  0  0  0
   42.0170   26.4820   34.1300 C   0  0  0  0  0  0  0  0  0  0  0  0
   42.7790   27.0120   33.1350 N   0  0  0  0  0  0  0  0  0  0  0  0
   42.2280   27.3280   31.9250 C   0  0  0  0  0  0  0  0  0  0  0  0
   40.9460   27.1240   31.6990 N   0  0  0  0  0  0  0  0  0  0  0  0
   42.5140   26.2610   35.0410 H   0  0  0  0  0  0  0  0  0  0  0  0
   42.8850   27.7460   31.1810 H   0  0  0  0  0  0  0  0  0  0  0  0
   39.8640   24.3230   35.1040 C   0  0  0  0  0  0  0  0  0  0  0  0
   40.1740   23.3300   34.3070 O   0  0  0  0  0  0  0  0  0  0  0  0
   39.9880   25.7260   34.9460 N   0  0  0  0  0  0  0  0  0  0  0  0
   39.5530   26.3360   35.6560 H   0  0  0  0  0  0  0  0  0  0  0  0
   39.2900   23.8320   36.3780 C   0  0  0  0  0  0  0  0  0  0  0  0
   39.8780   22.9190   37.2590 C   0  0  0  0  0  0  0  0  0  0  0  0
   40.8560   22.4310   37.1330 H   0  0  0  0  0  0  0  0  0  0  0  0
   39.1110   22.6770   38.3210 N   0  0  0  0  0  0  0  0  0  0  0  0
   39.3180   22.0410   39.1170 H   0  0  0  0  0  0  0  0  0  0  0  0
   38.0150   23.4330   38.1420 C   0  0  0  0  0  0  0  0  0  0  0  0
   37.1750   23.4790   38.8260 H   0  0  0  0  0  0  0  0  0  0  0  0
   38.1460   24.1050   36.9850 N   0  0  0  0  0  0  0  0  0  0  0  0
  1 21  1  0  0  0  0
  2 20  1  0  0  0  0
  3  1  1  0  0  0  0
  3  2  2  0  0  0  0
  4  3  1  0  0  0  0
  5  4  2  0  0  0  0
  5  6  1  0  0  0  0
  6  7  2  0  0  0  0
  7  2  1  0  0  0  0
  7 11  1  0  0  0  0
  8  4  1  0  0  0  0
  9  5  1  0  0  0  0
 10  6  1  0  0  0  0
 11 15  1  0  0  0  0
 11 12  2  0  0  0  0
 12 13  1  0  0  0  0
 13 17  1  0  0  0  0
 14 13  2  0  0  0  0
 14 18  1  0  0  0  0
 15 14  1  0  0  0  0
 16 12  1  0  0  0  0
 20 19  3  0  0  0  0
 21 22  1  0  0  0  0
 22 23  2  0  0  0  0
 22 31  1  0  0  0  0
 23 27  1  0  0  0  0
 24 23  1  0  0  0  0
 25 24  2  0  0  0  0
 26 25  1  0  0  0  0
 26 21  2  0  0  0  0
 28 25  1  0  0  0  0
 29 33  1  0  0  0  0
 30 29  2  0  0  0  0
 31 29  1  0  0  0  0
 31 32  1  0  0  0  0
 33 40  1  0  0  0  0
 33 34  2  0  0  0  0
 34 36  1  0  0  0  0
 35 34  1  0  0  0  0
 36 37  1  0  0  0  0
 38 36  1  0  0  0  0
 38 39  1  0  0  0  0
 40 38  2  0  0  0  0
M  END
>  <minimizedAffinity>
-5.57484531

$$$$

 OpenBabel03272507433D

 40 43  0  0  0  0  0  0  0  0999 V2000
   38.1930   24.8820   33.0580 O   0  0  0  0  0  0  0  0  0  0  0  0
   37.1790   22.6940   32.5560 C   0  0  0  0  0  0  0  0  0  0  0  0
   37.2520   24.0730   32.4600 C   0  0  0  0  0  0  0  0  0  0  0  0
   36.3260   24.7770   31.7080 C   0  0  0  0  0  0  0  0  0  0  0  0
   35.3160   24.0830   31.0460 C   0  0  0  0  0  0  0  0  0  0  0  0
   35.2480   22.7100   31.1450 C   0  0  0  0  0  0  0  0  0  0  0  0
   36.1860   22.0480   31.9010 C   0  0  0  0  0  0  0  0  0  0  0  0
   36.3130   25.8310   31.5850 H   0  0  0  0  0  0  0  0  0  0  0  0
   34.5800   24.6120   30.4530 H   0  0  0  0  0  0  0  0  0  0  0  0
   34.4690   22.1670   30.6360 H   0  0  0  0  0  0  0  0  0  0  0  0
   36.1010   20.5710   31.9980 C   0  0  0  0  0  0  0  0  0  0  0  0
   35.4070   19.7960   32.9000 C   0  0  0  0  0  0  0  0  0  0  0  0
   35.6490   18.4650   32.5740 C   0  0  0  0  0  0  0  0  0  0  0  0
   36.4840   18.5170   31.4830 C   0  0  0  0  0  0  0  0  0  0  0  0
   36.7410   19.7740   31.1560 O   0  0  0  0  0  0  0  0  0  0  0  0
   34.7980   20.1690   33.6980 H   0  0  0  0  0  0  0  0  0  0  0  0
   35.2640   17.5750   33.0690 H   0  0  0  0  0  0  0  0  0  0  0  0
   36.9090   17.7060   30.9200 H   0  0  0  0  0  0  0  0  0  0  0  0
   38.9790   21.5230   33.9730 N   0  0  0  0  0  0  0  0  0  0  0  0
   38.1740   22.0510   33.3510 C   0  0  0  0  0  0  0  0  0  0  0  0
   37.9100   25.9710   33.8170 C   0  0  0  0  0  0  0  0  0  0  0  0
   38.7040   26.0440   34.9610 C   0  0  0  0  0  0  0  0  0  0  0  0
   38.5670   27.0790   35.8630 C   0  0  0  0  0  0  0  0  0  0  0  0
   37.6270   28.0240   35.5870 N   0  0  0  0  0  0  0  0  0  0  0  0
   36.8580   27.9380   34.4610 C   0  0  0  0  0  0  0  0  0  0  0  0
   37.0130   26.9360   33.6190 N   0  0  0  0  0  0  0  0  0  0  0  0
   39.1270   27.2130   36.7540 H   0  0  0  0  0  0  0  0  0  0  0  0
   36.1320   28.7180   34.3020 H   0  0  0  0  0  0  0  0  0  0  0  0
   39.4500   24.1170   36.2920 C   0  0  0  0  0  0  0  0  0  0  0  0
   38.4270   23.9040   37.0830 O   0  0  0  0  0  0  0  0  0  0  0  0
   39.6990   25.1320   35.3340 N   0  0  0  0  0  0  0  0  0  0  0  0
   40.6410   25.1840   34.9150 H   0  0  0  0  0  0  0  0  0  0  0  0
   40.4960   23.0850   36.4740 C   0  0  0  0  0  0  0  0  0  0  0  0
   41.7230   23.0160   35.8050 C   0  0  0  0  0  0  0  0  0  0  0  0
   42.0890   23.7210   35.0430 H   0  0  0  0  0  0  0  0  0  0  0  0
   42.4480   21.9670   36.1890 N   0  0  0  0  0  0  0  0  0  0  0  0
   43.3910   21.6920   35.8460 H   0  0  0  0  0  0  0  0  0  0  0  0
   41.7010   21.3430   37.1150 C   0  0  0  0  0  0  0  0  0  0  0  0
   41.9930   20.4410   37.6410 H   0  0  0  0  0  0  0  0  0  0  0  0
   40.5520   22.0240   37.2640 N   0  0  0  0  0  0  0  0  0  0  0  0
  1 21  1  0  0  0  0
  2 20  1  0  0  0  0
  3  2  1  0  0  0  0
  3  1  1  0  0  0  0
  4  3  2  0  0  0  0
  5  6  2  0  0  0  0
  5  4  1  0  0  0  0
  6  7  1  0  0  0  0
  7 11  1  0  0  0  0
  7  2  2  0  0  0  0
  8  4  1  0  0  0  0
  9  5  1  0  0  0  0
 10  6  1  0  0  0  0
 11 12  2  0  0  0  0
 12 16  1  0  0  0  0
 13 12  1  0  0  0  0
 13 17  1  0  0  0  0
 14 13  2  0  0  0  0
 15 14  1  0  0  0  0
 15 11  1  0  0  0  0
 18 14  1  0  0  0  0
 20 19  3  0  0  0  0
 21 22  1  0  0  0  0
 22 31  1  0  0  0  0
 22 23  2  0  0  0  0
 23 27  1  0  0  0  0
 24 23  1  0  0  0  0
 25 24  2  0  0  0  0
 26 21  2  0  0  0  0
 26 25  1  0  0  0  0
 28 25  1  0  0  0  0
 29 33  1  0  0  0  0
 29 30  2  0  0  0  0
 31 29  1  0  0  0  0
 32 31  1  0  0  0  0
 33 40  1  0  0  0  0
 34 36  1  0  0  0  0
 34 33  2  0  0  0  0
 35 34  1  0  0  0  0
 36 38  1  0  0  0  0
 37 36  1  0  0  0  0
 38 40  2  0  0  0  0
 38 39  1  0  0  0  0
M  END
>  <minimizedAffinity>
-5.56600428

$$$$

 OpenBabel03272507433D

 40 43  0  0  0  0  0  0  0  0999 V2000
   37.3290   27.4410   31.6240 O   0  0  0  0  0  0  0  0  0  0  0  0
   36.2680   29.1010   33.1040 C   0  0  0  0  0  0  0  0  0  0  0  0
   36.6580   28.6200   31.8650 C   0  0  0  0  0  0  0  0  0  0  0  0
   36.3830   29.3370   30.7130 C   0  0  0  0  0  0  0  0  0  0  0  0
   35.7080   30.5520   30.8100 C   0  0  0  0  0  0  0  0  0  0  0  0
   35.3220   31.0250   32.0460 C   0  0  0  0  0  0  0  0  0  0  0  0
   35.6140   30.2840   33.1660 C   0  0  0  0  0  0  0  0  0  0  0  0
   36.6480   29.0390   29.7300 H   0  0  0  0  0  0  0  0  0  0  0  0
   35.4820   31.1310   29.9230 H   0  0  0  0  0  0  0  0  0  0  0  0
   34.8000   31.9640   32.1290 H   0  0  0  0  0  0  0  0  0  0  0  0
   35.1920   30.8040   34.4880 C   0  0  0  0  0  0  0  0  0  0  0  0
   35.9170   31.5250   35.4110 C   0  0  0  0  0  0  0  0  0  0  0  0
   35.0770   31.7750   36.4930 C   0  0  0  0  0  0  0  0  0  0  0  0
   33.8820   31.1840   36.1530 C   0  0  0  0  0  0  0  0  0  0  0  0
   33.9700   30.6130   34.9620 O   0  0  0  0  0  0  0  0  0  0  0  0
   36.9370   31.8280   35.2990 H   0  0  0  0  0  0  0  0  0  0  0  0
   35.3080   32.3190   37.4080 H   0  0  0  0  0  0  0  0  0  0  0  0
   32.9660   31.1450   36.7140 H   0  0  0  0  0  0  0  0  0  0  0  0
   36.8630   27.6660   35.1550 N   0  0  0  0  0  0  0  0  0  0  0  0
   36.5930   28.2960   34.2370 C   0  0  0  0  0  0  0  0  0  0  0  0
   36.7450   26.2180   31.5520 C   0  0  0  0  0  0  0  0  0  0  0  0
   37.5390   25.2150   32.1090 C   0  0  0  0  0  0  0  0  0  0  0  0
   37.1210   23.9000   32.1310 C   0  0  0  0  0  0  0  0  0  0  0  0
   35.9020   23.6260   31.5900 N   0  0  0  0  0  0  0  0  0  0  0  0
   35.1370   24.6200   31.0500 C   0  0  0  0  0  0  0  0  0  0  0  0
   35.5650   25.8660   31.0420 N   0  0  0  0  0  0  0  0  0  0  0  0
   37.6580   23.0790   32.5330 H   0  0  0  0  0  0  0  0  0  0  0  0
   34.1830   24.3360   30.6370 H   0  0  0  0  0  0  0  0  0  0  0  0
   39.0440   25.0270   34.0420 C   0  0  0  0  0  0  0  0  0  0  0  0
   38.2340   24.6440   34.9980 O   0  0  0  0  0  0  0  0  0  0  0  0
   38.7990   25.3910   32.6940 N   0  0  0  0  0  0  0  0  0  0  0  0
   39.5780   25.7930   32.1490 H   0  0  0  0  0  0  0  0  0  0  0  0
   40.4490   25.0660   34.5100 C   0  0  0  0  0  0  0  0  0  0  0  0
   41.2550   26.2030   34.6310 C   0  0  0  0  0  0  0  0  0  0  0  0
   40.9610   27.2370   34.3940 H   0  0  0  0  0  0  0  0  0  0  0  0
   42.4750   25.9120   35.0790 N   0  0  0  0  0  0  0  0  0  0  0  0
   43.2570   26.5740   35.2540 H   0  0  0  0  0  0  0  0  0  0  0  0
   42.4740   24.5800   35.2560 C   0  0  0  0  0  0  0  0  0  0  0  0
   43.3190   24.0030   35.6170 H   0  0  0  0  0  0  0  0  0  0  0  0
   41.2660   24.1050   34.9120 N   0  0  0  0  0  0  0  0  0  0  0  0
  1  3  1  0  0  0  0
  2  7  1  0  0  0  0
  2 20  1  0  0  0  0
  3  2  2  0  0  0  0
  4  5  2  0  0  0  0
  4  3  1  0  0  0  0
  5  6  1  0  0  0  0
  6 10  1  0  0  0  0
  6  7  2  0  0  0  0
  7 11  1  0  0  0  0
  8  4  1  0  0  0  0
  9  5  1  0  0  0  0
 11 15  1  0  0  0  0
 11 12  2  0  0  0  0
 12 13  1  0  0  0  0
 13 17  1  0  0  0  0
 14 13  2  0  0  0  0
 14 18  1  0  0  0  0
 15 14  1  0  0  0  0
 16 12  1  0  0  0  0
 20 19  3  0  0  0  0
 21  1  1  0  0  0  0
 21 22  1  0  0  0  0
 22 23  2  0  0  0  0
 22 31  1  0  0  0  0
 23 27  1  0  0  0  0
 24 23  1  0  0  0  0
 25 24  2  0  0  0  0
 26 25  1  0  0  0  0
 26 21  2  0  0  0  0
 28 25  1  0  0  0  0
 29 33  1  0  0  0  0
 29 30  2  0  0  0  0
 31 29  1  0  0  0  0
 32 31  1  0  0  0  0
 33 34  2  0  0  0  0
 33 40  1  0  0  0  0
 34 36  1  0  0  0  0
 35 34  1  0  0  0  0
 36 37  1  0  0  0  0
 36 38  1  0  0  0  0
 38 39  1  0  0  0  0
 40 38  2  0  0  0  0
M  END
>  <minimizedAffinity>
-5.56286764

$$$$

 OpenBabel03272507433D

 40 43  0  0  0  0  0  0  0  0999 V2000
   37.2090   24.6480   32.2660 O   0  0  0  0  0  0  0  0  0  0  0  0
   37.9340   24.4360   34.6110 C   0  0  0  0  0  0  0  0  0  0  0  0
   37.5700   25.1640   33.4920 C   0  0  0  0  0  0  0  0  0  0  0  0
   37.5400   26.5490   33.5310 C   0  0  0  0  0  0  0  0  0  0  0  0
   37.8830   27.2050   34.7120 C   0  0  0  0  0  0  0  0  0  0  0  0
   38.2450   26.4740   35.8230 C   0  0  0  0  0  0  0  0  0  0  0  0
   38.2620   25.1020   35.7430 C   0  0  0  0  0  0  0  0  0  0  0  0
   37.2730   27.1770   32.7200 H   0  0  0  0  0  0  0  0  0  0  0  0
   37.8680   28.2860   34.7660 H   0  0  0  0  0  0  0  0  0  0  0  0
   38.5110   26.9750   36.7390 H   0  0  0  0  0  0  0  0  0  0  0  0
   38.6520   24.3290   36.9460 C   0  0  0  0  0  0  0  0  0  0  0  0
   38.0550   24.2880   38.1860 C   0  0  0  0  0  0  0  0  0  0  0  0
   38.7990   23.4140   38.9750 C   0  0  0  0  0  0  0  0  0  0  0  0
   39.8110   22.9750   38.1530 C   0  0  0  0  0  0  0  0  0  0  0  0
   39.7080   23.5290   36.9550 O   0  0  0  0  0  0  0  0  0  0  0  0
   37.1810   24.8350   38.4720 H   0  0  0  0  0  0  0  0  0  0  0  0
   38.6230   23.1350   40.0120 H   0  0  0  0  0  0  0  0  0  0  0  0
   40.6070   22.2870   38.3730 H   0  0  0  0  0  0  0  0  0  0  0  0
   37.9580   21.8730   34.3810 N   0  0  0  0  0  0  0  0  0  0  0  0
   37.9360   23.0150   34.4810 C   0  0  0  0  0  0  0  0  0  0  0  0
   38.0160   24.6010   31.1770 C   0  0  0  0  0  0  0  0  0  0  0  0
   38.2840   23.2930   30.7690 C   0  0  0  0  0  0  0  0  0  0  0  0
   39.0880   23.0340   29.6790 C   0  0  0  0  0  0  0  0  0  0  0  0
   39.6060   24.1060   29.0190 N   0  0  0  0  0  0  0  0  0  0  0  0
   39.3330   25.3790   29.4310 C   0  0  0  0  0  0  0  0  0  0  0  0
   38.5620   25.5940   30.4770 N   0  0  0  0  0  0  0  0  0  0  0  0
   39.3420   22.0760   29.3010 H   0  0  0  0  0  0  0  0  0  0  0  0
   39.7750   26.1830   28.8650 H   0  0  0  0  0  0  0  0  0  0  0  0
   36.4510   21.7150   31.2080 C   0  0  0  0  0  0  0  0  0  0  0  0
   35.4210   22.3180   30.6680 O   0  0  0  0  0  0  0  0  0  0  0  0
   37.7980   22.1260   31.3720 N   0  0  0  0  0  0  0  0  0  0  0  0
   38.4180   21.5390   31.9520 H   0  0  0  0  0  0  0  0  0  0  0  0
   36.0850   20.3740   31.7160 C   0  0  0  0  0  0  0  0  0  0  0  0
   35.3250   20.0950   32.8570 C   0  0  0  0  0  0  0  0  0  0  0  0
   34.8880   20.8350   33.5450 H   0  0  0  0  0  0  0  0  0  0  0  0
   35.1680   18.7860   33.0520 N   0  0  0  0  0  0  0  0  0  0  0  0
   34.6490   18.3210   33.8230 H   0  0  0  0  0  0  0  0  0  0  0  0
   35.8240   18.2000   32.0370 C   0  0  0  0  0  0  0  0  0  0  0  0
   35.9010   17.1290   31.8850 H   0  0  0  0  0  0  0  0  0  0  0  0
   36.3580   19.1600   31.2630 N   0  0  0  0  0  0  0  0  0  0  0  0
  1  3  1  0  0  0  0
  2  7  1  0  0  0  0
  3  4  1  0  0  0  0
  3  2  2  0  0  0  0
  4  5  2  0  0  0  0
  5  9  1  0  0  0  0
  5  6  1  0  0  0  0
  6 10  1  0  0  0  0
  7  6  2  0  0  0  0
  7 11  1  0  0  0  0
  8  4  1  0  0  0  0
 11 15  1  0  0  0  0
 11 12  2  0  0  0  0
 12 16  1  0  0  0  0
 12 13  1  0  0  0  0
 13 17  1  0  0  0  0
 14 18  1  0  0  0  0
 14 13  2  0  0  0  0
 15 14  1  0  0  0  0
 19 20  3  0  0  0  0
 20  2  1  0  0  0  0
 21  1  1  0  0  0  0
 22 21  1  0  0  0  0
 22 31  1  0  0  0  0
 23 22  2  0  0  0  0
 24 25  2  0  0  0  0
 24 23  1  0  0  0  0
 25 26  1  0  0  0  0
 26 21  2  0  0  0  0
 27 23  1  0  0  0  0
 28 25  1  0  0  0  0
 29 31  1  0  0  0  0
 29 33  1  0  0  0  0
 30 29  2  0  0  0  0
 31 32  1  0  0  0  0
 33 34  2  0  0  0  0
 34 36  1  0  0  0  0
 34 35  1  0  0  0  0
 36 37  1  0  0  0  0
 38 36  1  0  0  0  0
 39 38  1  0  0  0  0
 40 33  1  0  0  0  0
 40 38  2  0  0  0  0
M  END
>  <minimizedAffinity>
-5.41157579

$$$$

 OpenBabel03272507433D

 40 43  0  0  0  0  0  0  0  0999 V2000
   37.6340   26.1930   34.3060 O   0  0  0  0  0  0  0  0  0  0  0  0
   39.4220   24.6700   35.0480 C   0  0  0  0  0  0  0  0  0  0  0  0
   38.9530   25.8670   34.5360 C   0  0  0  0  0  0  0  0  0  0  0  0
   39.8320   26.8830   34.2000 C   0  0  0  0  0  0  0  0  0  0  0  0
   41.2000   26.6890   34.3820 C   0  0  0  0  0  0  0  0  0  0  0  0
   41.6620   25.4940   34.8910 C   0  0  0  0  0  0  0  0  0  0  0  0
   40.7570   24.5110   35.2130 C   0  0  0  0  0  0  0  0  0  0  0  0
   39.5530   27.8260   33.8040 H   0  0  0  0  0  0  0  0  0  0  0  0
   41.9070   27.4680   34.1260 H   0  0  0  0  0  0  0  0  0  0  0  0
   42.7180   25.3380   35.0350 H   0  0  0  0  0  0  0  0  0  0  0  0
   41.2670   23.2320   35.7610 C   0  0  0  0  0  0  0  0  0  0  0  0
   41.9260   22.2100   35.1150 C   0  0  0  0  0  0  0  0  0  0  0  0
   42.1940   21.2260   36.0630 C   0  0  0  0  0  0  0  0  0  0  0  0
   41.6750   21.7200   37.2380 C   0  0  0  0  0  0  0  0  0  0  0  0
   41.1290   22.9100   37.0380 O   0  0  0  0  0  0  0  0  0  0  0  0
   42.1770   22.1930   34.0750 H   0  0  0  0  0  0  0  0  0  0  0  0
   42.7030   20.2750   35.9150 H   0  0  0  0  0  0  0  0  0  0  0  0
   41.6710   21.2710   38.2140 H   0  0  0  0  0  0  0  0  0  0  0  0
   37.6490   22.8910   35.6060 N   0  0  0  0  0  0  0  0  0  0  0  0
   38.4450   23.6800   35.3670 C   0  0  0  0  0  0  0  0  0  0  0  0
   36.9840   26.0100   33.1290 C   0  0  0  0  0  0  0  0  0  0  0  0
   36.4450   27.1950   32.6280 C   0  0  0  0  0  0  0  0  0  0  0  0
   35.7440   27.2170   31.4400 C   0  0  0  0  0  0  0  0  0  0  0  0
   35.6040   26.0350   30.7790 N   0  0  0  0  0  0  0  0  0  0  0  0
   36.1380   24.8840   31.2830 C   0  0  0  0  0  0  0  0  0  0  0  0
   36.8020   24.8960   32.4220 N   0  0  0  0  0  0  0  0  0  0  0  0
   35.3030   28.0690   30.9880 H   0  0  0  0  0  0  0  0  0  0  0  0
   35.9910   23.9820   30.7120 H   0  0  0  0  0  0  0  0  0  0  0  0
   35.3790   29.2190   33.5280 C   0  0  0  0  0  0  0  0  0  0  0  0
   34.1180   29.0350   33.2250 O   0  0  0  0  0  0  0  0  0  0  0  0
   36.5370   28.4590   33.2230 N   0  0  0  0  0  0  0  0  0  0  0  0
   37.4580   28.8650   33.4520 H   0  0  0  0  0  0  0  0  0  0  0  0
   35.5670   30.4490   34.3300 C   0  0  0  0  0  0  0  0  0  0  0  0
   35.2570   31.7550   33.9360 C   0  0  0  0  0  0  0  0  0  0  0  0
   34.8280   32.0590   32.9700 H   0  0  0  0  0  0  0  0  0  0  0  0
   35.5430   32.6490   34.8830 N   0  0  0  0  0  0  0  0  0  0  0  0
   35.4080   33.6790   34.8390 H   0  0  0  0  0  0  0  0  0  0  0  0
   36.0410   31.9310   35.9030 C   0  0  0  0  0  0  0  0  0  0  0  0
   36.3800   32.3470   36.8460 H   0  0  0  0  0  0  0  0  0  0  0  0
   36.0450   30.6350   35.5500 N   0  0  0  0  0  0  0  0  0  0  0  0
  1  3  1  0  0  0  0
  2  7  1  0  0  0  0
  2 20  1  0  0  0  0
  3  2  2  0  0  0  0
  4  5  2  0  0  0  0
  4  3  1  0  0  0  0
  5  6  1  0  0  0  0
  6 10  1  0  0  0  0
  6  7  2  0  0  0  0
  7 11  1  0  0  0  0
  8  4  1  0  0  0  0
  9  5  1  0  0  0  0
 11 15  1  0  0  0  0
 12 11  2  0  0  0  0
 12 13  1  0  0  0  0
 13 14  2  0  0  0  0
 14 18  1  0  0  0  0
 15 14  1  0  0  0  0
 16 12  1  0  0  0  0
 17 13  1  0  0  0  0
 20 19  3  0  0  0  0
 21  1  1  0  0  0  0
 22 21  1  0  0  0  0
 22 31  1  0  0  0  0
 23 22  2  0  0  0  0
 24 25  2  0  0  0  0
 24 23  1  0  0  0  0
 25 26  1  0  0  0  0
 26 21  2  0  0  0  0
 27 23  1  0  0  0  0
 28 25  1  0  0  0  0
 29 33  1  0  0  0  0
 30 29  2  0  0  0  0
 31 32  1  0  0  0  0
 31 29  1  0  0  0  0
 33 40  1  0  0  0  0
 34 33  2  0  0  0  0
 34 36  1  0  0  0  0
 35 34  1  0  0  0  0
 36 38  1  0  0  0  0
 37 36  1  0  0  0  0
 38 39  1  0  0  0  0
 40 38  2  0  0  0  0
M  END
>  <minimizedAffinity>
-5.39159012

$$$$

 OpenBabel03272507433D

 40 43  0  0  0  0  0  0  0  0999 V2000
   37.1810   26.8580   32.8910 O   0  0  0  0  0  0  0  0  0  0  0  0
   38.0140   25.2300   34.5420 C   0  0  0  0  0  0  0  0  0  0  0  0
   37.4590   25.5800   33.3230 C   0  0  0  0  0  0  0  0  0  0  0  0
   37.1260   24.6060   32.3950 C   0  0  0  0  0  0  0  0  0  0  0  0
   37.3540   23.2660   32.7020 C   0  0  0  0  0  0  0  0  0  0  0  0
   37.9060   22.9250   33.9180 C   0  0  0  0  0  0  0  0  0  0  0  0
   38.2230   23.9200   34.8100 C   0  0  0  0  0  0  0  0  0  0  0  0
   36.6990   24.7910   31.4430 H   0  0  0  0  0  0  0  0  0  0  0  0
   37.1020   22.4880   31.9930 H   0  0  0  0  0  0  0  0  0  0  0  0
   38.0860   21.8900   34.1600 H   0  0  0  0  0  0  0  0  0  0  0  0
   38.8180   23.5380   36.1140 C   0  0  0  0  0  0  0  0  0  0  0  0
   40.0880   23.0850   36.3910 C   0  0  0  0  0  0  0  0  0  0  0  0
   40.1570   22.8620   37.7640 C   0  0  0  0  0  0  0  0  0  0  0  0
   38.9100   23.1990   38.2370 C   0  0  0  0  0  0  0  0  0  0  0  0
   38.1290   23.5970   37.2440 O   0  0  0  0  0  0  0  0  0  0  0  0
   40.8650   22.9370   35.6710 H   0  0  0  0  0  0  0  0  0  0  0  0
   41.0060   22.5020   38.3420 H   0  0  0  0  0  0  0  0  0  0  0  0
   38.5420   23.1710   39.2460 H   0  0  0  0  0  0  0  0  0  0  0  0
   38.5650   27.1470   36.1680 N   0  0  0  0  0  0  0  0  0  0  0  0
   38.3270   26.2980   35.4360 C   0  0  0  0  0  0  0  0  0  0  0  0
   37.8180   27.4880   31.8720 C   0  0  0  0  0  0  0  0  0  0  0  0
   36.9800   28.3630   31.1800 C   0  0  0  0  0  0  0  0  0  0  0  0
   37.4410   29.0980   30.1070 C   0  0  0  0  0  0  0  0  0  0  0  0
   38.7460   28.9340   29.7560 N   0  0  0  0  0  0  0  0  0  0  0  0
   39.5530   28.0730   30.4440 C   0  0  0  0  0  0  0  0  0  0  0  0
   39.0820   27.3850   31.4640 N   0  0  0  0  0  0  0  0  0  0  0  0
   36.8760   29.7830   29.5280 H   0  0  0  0  0  0  0  0  0  0  0  0
   40.5750   27.9890   30.1140 H   0  0  0  0  0  0  0  0  0  0  0  0
   35.2290   29.7310   32.2300 C   0  0  0  0  0  0  0  0  0  0  0  0
   35.9240   30.6070   32.9130 O   0  0  0  0  0  0  0  0  0  0  0  0
   35.6310   28.6090   31.4620 N   0  0  0  0  0  0  0  0  0  0  0  0
   34.8980   27.9710   31.1140 H   0  0  0  0  0  0  0  0  0  0  0  0
   33.7780   30.0150   32.3090 C   0  0  0  0  0  0  0  0  0  0  0  0
   32.7970   29.1850   32.8630 C   0  0  0  0  0  0  0  0  0  0  0  0
   32.9620   28.1990   33.3220 H   0  0  0  0  0  0  0  0  0  0  0  0
   31.5790   29.7210   32.7820 N   0  0  0  0  0  0  0  0  0  0  0  0
   30.6860   29.3090   33.1180 H   0  0  0  0  0  0  0  0  0  0  0  0
   31.7570   30.9060   32.1750 C   0  0  0  0  0  0  0  0  0  0  0  0
   30.9650   31.6110   31.9480 H   0  0  0  0  0  0  0  0  0  0  0  0
   33.0650   31.0540   31.9060 N   0  0  0  0  0  0  0  0  0  0  0  0
  1  3  1  0  0  0  0
  2  7  1  0  0  0  0
  2 20  1  0  0  0  0
  3  2  2  0  0  0  0
  4  5  2  0  0  0  0
  4  3  1  0  0  0  0
  5  6  1  0  0  0  0
  6 10  1  0  0  0  0
  6  7  2  0  0  0  0
  7 11  1  0  0  0  0
  8  4  1  0  0  0  0
  9  5  1  0  0  0  0
 11 12  2  0  0  0  0
 11 15  1  0  0  0  0
 12 13  1  0  0  0  0
 13 14  2  0  0  0  0
 13 17  1  0  0  0  0
 14 18  1  0  0  0  0
 15 14  1  0  0  0  0
 16 12  1  0  0  0  0
 20 19  3  0  0  0  0
 21  1  1  0  0  0  0
 22 31  1  0  0  0  0
 22 21  2  0  0  0  0
 23 22  1  0  0  0  0
 24 23  2  0  0  0  0
 24 25  1  0  0  0  0
 25 26  2  0  0  0  0
 26 21  1  0  0  0  0
 27 23  1  0  0  0  0
 28 25  1  0  0  0  0
 29 33  1  0  0  0  0
 29 30  2  0  0  0  0
 31 29  1  0  0  0  0
 32 31  1  0  0  0  0
 33 34  2  0  0  0  0
 34 35  1  0  0  0  0
 36 34  1  0  0  0  0
 36 37  1  0  0  0  0
 38 36  1  0  0  0  0
 39 38  1  0  0  0  0
 40 38  2  0  0  0  0
 40 33  1  0  0  0  0
M  END
>  <minimizedAffinity>
-5.38872814

$$$$
