
 OpenBabel03272507413D

 40 43  0  0  0  0  0  0  0  0999 V2000
   36.7990   32.2840   49.1820 O   0  0  0  0  0  0  0  0  0  0  0  0
   38.2710   32.2130   47.2070 C   0  0  0  0  0  0  0  0  0  0  0  0
   37.9080   32.6730   48.4610 C   0  0  0  0  0  0  0  0  0  0  0  0
   38.6830   33.6130   49.1190 C   0  0  0  0  0  0  0  0  0  0  0  0
   39.8370   34.0950   48.5040 C   0  0  0  0  0  0  0  0  0  0  0  0
   40.1930   33.6340   47.2550 C   0  0  0  0  0  0  0  0  0  0  0  0
   39.3970   32.7000   46.6360 C   0  0  0  0  0  0  0  0  0  0  0  0
   38.4740   34.0140   50.0780 H   0  0  0  0  0  0  0  0  0  0  0  0
   40.4590   34.8310   48.9980 H   0  0  0  0  0  0  0  0  0  0  0  0
   41.0840   34.0030   46.7740 H   0  0  0  0  0  0  0  0  0  0  0  0
   39.7930   32.2130   45.2930 C   0  0  0  0  0  0  0  0  0  0  0  0
   40.6300   31.1720   44.9570 C   0  0  0  0  0  0  0  0  0  0  0  0
   40.6820   31.1150   43.5670 C   0  0  0  0  0  0  0  0  0  0  0  0
   39.8620   32.1360   43.1430 C   0  0  0  0  0  0  0  0  0  0  0  0
   39.3450   32.7750   44.1810 O   0  0  0  0  0  0  0  0  0  0  0  0
   41.1390   30.5360   45.6520 H   0  0  0  0  0  0  0  0  0  0  0  0
   41.2430   30.4190   42.9470 H   0  0  0  0  0  0  0  0  0  0  0  0
   39.6240   32.4360   42.1390 H   0  0  0  0  0  0  0  0  0  0  0  0
   36.7290   30.4750   46.1020 N   0  0  0  0  0  0  0  0  0  0  0  0
   37.4130   31.2440   46.6040 C   0  0  0  0  0  0  0  0  0  0  0  0
   36.7660   31.2440   50.0520 C   0  0  0  0  0  0  0  0  0  0  0  0
   35.7100   30.3680   49.7960 C   0  0  0  0  0  0  0  0  0  0  0  0
   35.5050   29.2470   50.5740 C   0  0  0  0  0  0  0  0  0  0  0  0
   36.3770   29.0320   51.5960 N   0  0  0  0  0  0  0  0  0  0  0  0
   37.4070   29.8980   51.8330 C   0  0  0  0  0  0  0  0  0  0  0  0
   37.5750   30.9610   51.0730 N   0  0  0  0  0  0  0  0  0  0  0  0
   34.7320   28.5310   50.4500 H   0  0  0  0  0  0  0  0  0  0  0  0
   38.0600   29.6700   52.6590 H   0  0  0  0  0  0  0  0  0  0  0  0
   34.3190   29.3670   48.0350 C   0  0  0  0  0  0  0  0  0  0  0  0
   34.7350   28.1250   48.0150 O   0  0  0  0  0  0  0  0  0  0  0  0
   34.7650   30.4940   48.7710 N   0  0  0  0  0  0  0  0  0  0  0  0
   34.3740   31.4180   48.5290 H   0  0  0  0  0  0  0  0  0  0  0  0
   33.1810   29.5690   47.1100 C   0  0  0  0  0  0  0  0  0  0  0  0
   32.1280   28.6760   46.8780 C   0  0  0  0  0  0  0  0  0  0  0  0
   31.9930   27.6930   47.3500 H   0  0  0  0  0  0  0  0  0  0  0  0
   31.2550   29.1460   45.9870 N   0  0  0  0  0  0  0  0  0  0  0  0
   30.3930   28.6800   45.6430 H   0  0  0  0  0  0  0  0  0  0  0  0
   31.7330   30.3500   45.6300 C   0  0  0  0  0  0  0  0  0  0  0  0
   31.2640   31.0160   44.9130 H   0  0  0  0  0  0  0  0  0  0  0  0
   32.8710   30.5750   46.3090 N   0  0  0  0  0  0  0  0  0  0  0  0
  1 21  1  0  0  0  0
  2  3  1  0  0  0  0
  3  4  2  0  0  0  0
  3  1  1  0  0  0  0
  4  8  1  0  0  0  0
  5  9  1  0  0  0  0
  5  4  1  0  0  0  0
  6  5  2  0  0  0  0
  7  2  2  0  0  0  0
  7  6  1  0  0  0  0
 10  6  1  0  0  0  0
 11  7  1  0  0  0  0
 12 11  2  0  0  0  0
 12 16  1  0  0  0  0
 13 12  1  0  0  0  0
 14 13  2  0  0  0  0
 14 15  1  0  0  0  0
 15 11  1  0  0  0  0
 17 13  1  0  0  0  0
 18 14  1  0  0  0  0
 19 20  3  0  0  0  0
 20  2  1  0  0  0  0
 21 26  1  0  0  0  0
 22 21  2  0  0  0  0
 22 23  1  0  0  0  0
 23 24  2  0  0  0  0
 24 25  1  0  0  0  0
 25 28  1  0  0  0  0
 26 25  2  0  0  0  0
 27 23  1  0  0  0  0
 29 31  1  0  0  0  0
 30 29  2  0  0  0  0
 31 22  1  0  0  0  0
 32 31  1  0  0  0  0
 33 29  1  0  0  0  0
 34 33  2  0  0  0  0
 34 35  1  0  0  0  0
 36 34  1  0  0  0  0
 37 36  1  0  0  0  0
 38 36  1  0  0  0  0
 38 40  2  0  0  0  0
 39 38  1  0  0  0  0
 40 33  1  0  0  0  0
M  END
>  <minimizedAffinity>
-5.98511076

>  <minimizedRMSD>
0.471270204

$$$$
