
     RDKit          3D

 46 50  0  0  0  0  0  0  0  0999 V2000
   36.9495   31.3860   47.3907 C   0  0  1  0  0  0  0  0  0  0  0  0
   38.1358   31.9901   48.0498 C   0  0  0  0  0  0  0  0  0  0  0  0
   38.4457   30.8884   47.1619 C   0  0  2  0  0  0  0  0  0  0  0  0
   39.1244   31.3779   45.9139 C   0  0  0  0  0  0  0  0  0  0  0  0
   39.6166   32.6675   46.0983 C   0  0  0  0  0  0  0  0  0  0  0  0
   40.3656   33.2669   45.1197 C   0  0  0  0  0  0  0  0  0  0  0  0
   40.6512   32.6006   43.9212 C   0  0  0  0  0  0  0  0  0  0  0  0
   40.1478   31.3164   43.7659 C   0  0  0  0  0  0  0  0  0  0  0  0
   40.3493   30.5684   42.6402 C   0  0  0  0  0  0  0  0  0  0  0  0
   39.8501   29.3029   42.4675 C   0  0  0  0  0  0  0  0  0  0  0  0
   39.0959   28.7466   43.4939 C   0  0  0  0  0  0  0  0  0  0  0  0
   38.8897   29.4943   44.6307 C   0  0  0  0  0  0  0  0  0  0  0  0
   39.4146   30.7677   44.7582 C   0  0  0  0  0  0  0  0  0  0  0  0
   34.4339   28.7554   48.3823 C   0  0  0  0  0  0  0  0  0  0  0  0
   35.1781   29.6769   47.5913 C   0  0  0  0  0  0  0  0  0  0  0  0
   36.1623   30.4087   48.1867 C   0  0  0  0  0  0  0  0  0  0  0  0
   36.3582   30.1891   49.5357 N   0  0  0  0  0  0  0  0  0  0  0  0
   35.6529   29.3225   50.2640 C   0  0  0  0  0  0  0  0  0  0  0  0
   34.6796   28.5897   49.7060 N   0  0  0  0  0  0  0  0  0  0  0  0
   35.9943   29.2079   51.7352 C   0  0  0  0  0  0  0  0  0  0  0  0
   37.3264   29.9340   51.9400 C   0  0  0  0  0  0  0  0  0  0  0  0
   36.4838   31.7595   46.4894 H   0  0  0  0  0  0  0  0  0  0  0  0
   38.2286   31.7463   49.1526 H   0  0  0  0  0  0  0  0  0  0  0  0
   38.1403   33.0622   47.9067 H   0  0  0  0  0  0  0  0  0  0  0  0
   38.4592   29.8167   47.3187 H   0  0  0  0  0  0  0  0  0  0  0  0
   39.5899   33.4071   46.8718 H   0  0  0  0  0  0  0  0  0  0  0  0
   40.8241   34.2436   45.0824 H   0  0  0  0  0  0  0  0  0  0  0  0
   41.2280   32.9515   43.0658 H   0  0  0  0  0  0  0  0  0  0  0  0
   40.9295   30.9609   41.8172 H   0  0  0  0  0  0  0  0  0  0  0  0
   40.0093   28.7171   41.5831 H   0  0  0  0  0  0  0  0  0  0  0  0
   38.6656   27.7580   43.4409 H   0  0  0  0  0  0  0  0  0  0  0  0
   38.2892   29.0387   45.4375 H   0  0  0  0  0  0  0  0  0  0  0  0
   33.6597   28.1909   47.8757 H   0  0  0  0  0  0  0  0  0  0  0  0
   34.9213   29.7524   46.5382 H   0  0  0  0  0  0  0  0  0  0  0  0
   35.2121   29.8209   52.2533 H   0  0  0  0  0  0  0  0  0  0  0  0
   36.0244   28.1657   52.0550 H   0  0  0  0  0  0  0  0  0  0  0  0
   38.0676   29.4845   51.2487 H   0  0  0  0  0  0  0  0  0  0  0  0
   37.1319   30.9845   51.6057 H   0  0  0  0  0  0  0  0  0  0  0  0
   37.7657   29.8912   53.3392 C   0  0  0  0  0  0  0  0  0  0  0  0
   37.4880   30.7977   54.3669 C   0  0  0  0  0  0  0  0  0  0  0  0
   36.8939   31.6910   54.2911 H   0  0  0  0  0  0  0  0  0  0  0  0
   38.1265   30.2910   55.4337 N   0  0  0  0  0  0  0  0  0  0  0  0
   38.0750   30.7992   56.3641 H   0  0  0  0  0  0  0  0  0  0  0  0
   38.7782   29.1510   55.1691 C   0  0  0  0  0  0  0  0  0  0  0  0
   39.3574   28.5751   55.8843 H   0  0  0  0  0  0  0  0  0  0  0  0
   38.5354   28.9343   53.8731 N   0  0  0  0  0  0  0  0  0  0  0  0
  1  2  1  0
  1 16  1  0
  3  1  1  0
  3  2  1  0
  4  5  2  0
  4  3  1  0
  6  5  1  0
  7  6  2  0
  8  7  1  0
  8 13  2  0
  9  8  1  0
 10  9  2  0
 10 11  1  0
 11 12  2  0
 12 13  1  0
 13  4  1  0
 14 19  2  0
 15 16  2  0
 15 14  1  0
 16 17  1  0
 17 18  2  0
 18 20  1  0
 19 18  1  0
 20 21  1  0
  1 22  1  6
  2 23  1  0
  2 24  1  0
  3 25  1  1
  5 26  1  0
  6 27  1  0
  7 28  1  0
  9 29  1  0
 10 30  1  0
 11 31  1  0
 12 32  1  0
 14 33  1  0
 15 34  1  0
 20 35  1  0
 20 36  1  0
 21 37  1  0
 21 38  1  0
 39 40  2  0
 40 41  1  0
 40 42  1  0
 42 43  1  0
 42 44  1  0
 44 45  1  0
 44 46  2  0
 46 39  1  0
 21 39  1  0
M  ISO  8  22  13  23  13  24  13  25  13  26  14  27  14  28  14  29  14
M  ISO  8  30  14  31  14  32  14  33  14  34  14  35   8  36   8  37   8
M  ISO  4  38   8  41  15  43   5  45  14
M  END
>  <DihAtoms>  (1) 
19,20,38,39

>  <DihDeg>  (1) 
-89.99998833883238

$$$$
