
 OpenBabel03272504293D

 41 44  0  0  0  0  0  0  0  0999 V2000
   38.1180   25.6670   33.5990 C   0  0  0  0  0  0  0  0  0  0  0  0
   38.0690   26.8500   34.2430 C   0  0  0  0  0  0  0  0  0  0  0  0
   39.0280   27.2180   35.0990 C   0  0  0  0  0  0  0  0  0  0  0  0
   40.0710   26.3740   35.3210 N   0  0  0  0  0  0  0  0  0  0  0  0
   40.1130   25.2100   34.6840 C   0  0  0  0  0  0  0  0  0  0  0  0
   39.1520   24.8400   33.8230 N   0  0  0  0  0  0  0  0  0  0  0  0
   37.2190   27.4980   34.0390 H   0  0  0  0  0  0  0  0  0  0  0  0
   38.9840   28.1710   35.6160 H   0  0  0  0  0  0  0  0  0  0  0  0
   41.2020   23.4120   35.9510 C   0  0  0  0  0  0  0  0  0  0  0  0
   41.2760   24.4020   34.9720 C   0  0  0  0  0  0  0  0  0  0  0  0
   42.4170   24.6970   34.2520 C   0  0  0  0  0  0  0  0  0  0  0  0
   43.5680   23.9790   34.5000 C   0  0  0  0  0  0  0  0  0  0  0  0
   43.5880   22.9830   35.4510 C   0  0  0  0  0  0  0  0  0  0  0  0
   42.4210   22.7660   36.1050 C   0  0  0  0  0  0  0  0  0  0  0  0
   42.4280   25.4740   33.5010 H   0  0  0  0  0  0  0  0  0  0  0  0
   44.4540   24.2230   33.9260 H   0  0  0  0  0  0  0  0  0  0  0  0
   44.4720   22.4140   35.6600 H   0  0  0  0  0  0  0  0  0  0  0  0
   42.4450   21.9670   36.8630 H   0  0  0  0  0  0  0  0  0  0  0  0
   39.8370   23.0150   36.8220 S   0  0  0  0  0  0  0  0  0  0  0  0
   40.5600   22.1730   37.9250 O   0  0  0  0  0  0  0  0  0  0  0  0
   39.0190   22.0810   35.9680 O   0  0  0  0  0  0  0  0  0  0  0  0
   38.7000   23.3410   37.8960 C   0  0  0  0  0  0  0  0  0  0  0  0
   37.3670   22.8900   37.8270 F   0  0  0  0  0  0  0  0  0  0  0  0
   38.2270   24.7250   37.7070 F   0  0  0  0  0  0  0  0  0  0  0  0
   39.0220   23.7290   39.2300 F   0  0  0  0  0  0  0  0  0  0  0  0
   35.4700   25.6630   31.0590 C   0  0  0  0  0  0  0  0  0  0  0  0
   35.1830   24.2910   30.9170 C   0  0  0  0  0  0  0  0  0  0  0  0
   35.9150   23.3990   31.7070 C   0  0  0  0  0  0  0  0  0  0  0  0
   36.8440   23.9140   32.5490 N   0  0  0  0  0  0  0  0  0  0  0  0
   37.0940   25.2500   32.6600 C   0  0  0  0  0  0  0  0  0  0  0  0
   36.4030   26.1140   31.9110 N   0  0  0  0  0  0  0  0  0  0  0  0
   34.9000   26.3540   30.4430 H   0  0  0  0  0  0  0  0  0  0  0  0
   34.4390   23.9050   30.2390 H   0  0  0  0  0  0  0  0  0  0  0  0
   35.7220   21.9610   31.6600 C   0  0  0  0  0  0  0  0  0  0  0  0
   36.4610   21.0820   30.8780 C   0  0  0  0  0  0  0  0  0  0  0  0
   37.2680   21.2610   30.1930 H   0  0  0  0  0  0  0  0  0  0  0  0
   36.0060   19.8320   31.0890 N   0  0  0  0  0  0  0  0  0  0  0  0
   36.2390   18.8760   30.7400 H   0  0  0  0  0  0  0  0  0  0  0  0
   34.9880   19.9000   31.9960 C   0  0  0  0  0  0  0  0  0  0  0  0
   34.2930   19.2420   32.5070 H   0  0  0  0  0  0  0  0  0  0  0  0
   34.8390   21.1960   32.3220 N   0  0  0  0  0  0  0  0  0  0  0  0
  1  6  2  0  0  0  0
  1  2  1  0  0  0  0
  2  3  2  0  0  0  0
  3  4  1  0  0  0  0
  3  8  1  0  0  0  0
  5 10  1  0  0  0  0
  5  4  2  0  0  0  0
  6  5  1  0  0  0  0
  7  2  1  0  0  0  0
  9 14  1  0  0  0  0
  9 19  1  0  0  0  0
 10  9  2  0  0  0  0
 11 12  2  0  0  0  0
 11 10  1  0  0  0  0
 12 13  1  0  0  0  0
 13 17  1  0  0  0  0
 13 14  2  0  0  0  0
 14 18  1  0  0  0  0
 15 11  1  0  0  0  0
 16 12  1  0  0  0  0
 19 22  1  0  0  0  0
 19 20  2  0  0  0  0
 21 19  2  0  0  0  0
 22 25  1  0  0  0  0
 23 22  1  0  0  0  0
 24 22  1  0  0  0  0
 26 31  1  0  0  0  0
 27 26  2  0  0  0  0
 27 28  1  0  0  0  0
 28 29  2  0  0  0  0
 29 30  1  0  0  0  0
 30  1  1  0  0  0  0
 31 30  2  0  0  0  0
 32 26  1  0  0  0  0
 33 27  1  0  0  0  0
 34 28  1  0  0  0  0
 34 41  1  0  0  0  0
 35 37  1  0  0  0  0
 35 34  2  0  0  0  0
 36 35  1  0  0  0  0
 37 39  1  0  0  0  0
 38 37  1  0  0  0  0
 39 41  2  0  0  0  0
 39 40  1  0  0  0  0
M  END
>  <minimizedAffinity>
-6.88674688

$$$$

 OpenBabel03272504293D

 41 44  0  0  0  0  0  0  0  0999 V2000
   37.8100   25.6340   32.4400 C   0  0  0  0  0  0  0  0  0  0  0  0
   36.7120   24.9040   32.1630 C   0  0  0  0  0  0  0  0  0  0  0  0
   35.7400   25.3770   31.3760 C   0  0  0  0  0  0  0  0  0  0  0  0
   35.8710   26.6240   30.8470 N   0  0  0  0  0  0  0  0  0  0  0  0
   36.9550   27.3370   31.1230 C   0  0  0  0  0  0  0  0  0  0  0  0
   37.9320   26.8630   31.9130 N   0  0  0  0  0  0  0  0  0  0  0  0
   36.6440   23.9120   32.6050 H   0  0  0  0  0  0  0  0  0  0  0  0
   34.8570   24.7860   31.1560 H   0  0  0  0  0  0  0  0  0  0  0  0
   36.4820   29.7460   31.1520 C   0  0  0  0  0  0  0  0  0  0  0  0
   37.0050   28.6360   30.4900 C   0  0  0  0  0  0  0  0  0  0  0  0
   37.5610   28.6770   29.2270 C   0  0  0  0  0  0  0  0  0  0  0  0
   37.6130   29.8820   28.5590 C   0  0  0  0  0  0  0  0  0  0  0  0
   37.1180   31.0320   29.1350 C   0  0  0  0  0  0  0  0  0  0  0  0
   36.5930   30.8910   30.3760 C   0  0  0  0  0  0  0  0  0  0  0  0
   37.9560   27.7900   28.7530 H   0  0  0  0  0  0  0  0  0  0  0  0
   38.0540   29.8970   27.5690 H   0  0  0  0  0  0  0  0  0  0  0  0
   37.1480   31.9780   28.6330 H   0  0  0  0  0  0  0  0  0  0  0  0
   36.2000   31.8150   30.8300 H   0  0  0  0  0  0  0  0  0  0  0  0
   35.8240   29.7350   32.6840 S   0  0  0  0  0  0  0  0  0  0  0  0
   34.3630   29.3750   32.2550 O   0  0  0  0  0  0  0  0  0  0  0  0
   35.8360   31.1570   33.1840 O   0  0  0  0  0  0  0  0  0  0  0  0
   35.5230   29.0390   34.0890 C   0  0  0  0  0  0  0  0  0  0  0  0
   34.3200   29.1590   34.8130 F   0  0  0  0  0  0  0  0  0  0  0  0
   36.2250   29.7690   35.1610 F   0  0  0  0  0  0  0  0  0  0  0  0
   36.2470   27.8890   34.5230 F   0  0  0  0  0  0  0  0  0  0  0  0
   41.1010   24.6430   33.7250 C   0  0  0  0  0  0  0  0  0  0  0  0
   40.7970   24.1720   35.0180 C   0  0  0  0  0  0  0  0  0  0  0  0
   39.4560   24.2090   35.4130 C   0  0  0  0  0  0  0  0  0  0  0  0
   38.5490   24.6920   34.5300 N   0  0  0  0  0  0  0  0  0  0  0  0
   38.8810   25.1390   33.2860 C   0  0  0  0  0  0  0  0  0  0  0  0
   40.1580   25.1110   32.8940 N   0  0  0  0  0  0  0  0  0  0  0  0
   42.1450   24.6140   33.4200 H   0  0  0  0  0  0  0  0  0  0  0  0
   41.5370   23.7930   35.7030 H   0  0  0  0  0  0  0  0  0  0  0  0
   39.0040   23.7570   36.7160 C   0  0  0  0  0  0  0  0  0  0  0  0
   39.6990   22.8800   37.5410 C   0  0  0  0  0  0  0  0  0  0  0  0
   40.6440   22.3880   37.4050 H   0  0  0  0  0  0  0  0  0  0  0  0
   38.9810   22.6870   38.6640 N   0  0  0  0  0  0  0  0  0  0  0  0
   39.0900   22.1320   39.5420 H   0  0  0  0  0  0  0  0  0  0  0  0
   37.8380   23.4260   38.5680 C   0  0  0  0  0  0  0  0  0  0  0  0
   36.9450   23.6430   39.1450 H   0  0  0  0  0  0  0  0  0  0  0  0
   37.8800   24.0610   37.3830 N   0  0  0  0  0  0  0  0  0  0  0  0
  1 30  1  0  0  0  0
  2  1  1  0  0  0  0
  2  7  1  0  0  0  0
  3  2  2  0  0  0  0
  4  5  2  0  0  0  0
  4  3  1  0  0  0  0
  5  6  1  0  0  0  0
  6  1  2  0  0  0  0
  8  3  1  0  0  0  0
  9 19  1  0  0  0  0
 10  5  1  0  0  0  0
 10  9  1  0  0  0  0
 11 10  2  0  0  0  0
 12 13  2  0  0  0  0
 12 11  1  0  0  0  0
 13 14  1  0  0  0  0
 14 18  1  0  0  0  0
 14  9  2  0  0  0  0
 15 11  1  0  0  0  0
 16 12  1  0  0  0  0
 17 13  1  0  0  0  0
 19 21  2  0  0  0  0
 19 22  1  0  0  0  0
 20 19  2  0  0  0  0
 22 25  1  0  0  0  0
 22 23  1  0  0  0  0
 22 24  1  0  0  0  0
 26 27  1  0  0  0  0
 27 28  2  0  0  0  0
 27 33  1  0  0  0  0
 28 34  1  0  0  0  0
 29 28  1  0  0  0  0
 30 29  2  0  0  0  0
 31 30  1  0  0  0  0
 31 26  2  0  0  0  0
 32 26  1  0  0  0  0
 34 41  1  0  0  0  0
 34 35  2  0  0  0  0
 35 37  1  0  0  0  0
 36 35  1  0  0  0  0
 37 38  1  0  0  0  0
 39 37  1  0  0  0  0
 39 40  1  0  0  0  0
 41 39  2  0  0  0  0
M  END
>  <minimizedAffinity>
-6.66859293

$$$$

 OpenBabel03272504293D

 41 44  0  0  0  0  0  0  0  0999 V2000
   36.2970   28.0960   33.0020 C   0  0  0  0  0  0  0  0  0  0  0  0
   35.9780   28.6160   31.8000 C   0  0  0  0  0  0  0  0  0  0  0  0
   35.2690   29.7440   31.6950 C   0  0  0  0  0  0  0  0  0  0  0  0
   34.8630   30.3750   32.8300 N   0  0  0  0  0  0  0  0  0  0  0  0
   35.1800   29.8580   34.0100 C   0  0  0  0  0  0  0  0  0  0  0  0
   35.8940   28.7250   34.1180 N   0  0  0  0  0  0  0  0  0  0  0  0
   36.3210   28.0820   30.9150 H   0  0  0  0  0  0  0  0  0  0  0  0
   35.0140   30.1590   30.7250 H   0  0  0  0  0  0  0  0  0  0  0  0
   33.4120   30.4680   35.5990 C   0  0  0  0  0  0  0  0  0  0  0  0
   34.7230   30.6200   35.1490 C   0  0  0  0  0  0  0  0  0  0  0  0
   35.6390   31.4870   35.7100 C   0  0  0  0  0  0  0  0  0  0  0  0
   35.2550   32.2630   36.7840 C   0  0  0  0  0  0  0  0  0  0  0  0
   33.9780   32.1800   37.2940 C   0  0  0  0  0  0  0  0  0  0  0  0
   33.1510   31.3010   36.6780 C   0  0  0  0  0  0  0  0  0  0  0  0
   36.6470   31.5710   35.3290 H   0  0  0  0  0  0  0  0  0  0  0  0
   35.9870   32.9380   37.2120 H   0  0  0  0  0  0  0  0  0  0  0  0
   33.6590   32.7750   38.1270 H   0  0  0  0  0  0  0  0  0  0  0  0
   32.1320   31.2400   37.0920 H   0  0  0  0  0  0  0  0  0  0  0  0
   32.2880   29.4150   34.9600 S   0  0  0  0  0  0  0  0  0  0  0  0
   31.0260   30.2940   35.2490 O   0  0  0  0  0  0  0  0  0  0  0  0
   32.2450   28.2080   35.8610 O   0  0  0  0  0  0  0  0  0  0  0  0
   31.4890   28.7710   33.7360 C   0  0  0  0  0  0  0  0  0  0  0  0
   31.0050   27.4480   33.6900 F   0  0  0  0  0  0  0  0  0  0  0  0
   32.4310   28.4490   32.6480 F   0  0  0  0  0  0  0  0  0  0  0  0
   30.8040   29.5800   32.7820 F   0  0  0  0  0  0  0  0  0  0  0  0
   38.3980   25.1690   32.3090 C   0  0  0  0  0  0  0  0  0  0  0  0
   38.5100   24.5640   33.5780 C   0  0  0  0  0  0  0  0  0  0  0  0
   37.8540   25.1870   34.6430 C   0  0  0  0  0  0  0  0  0  0  0  0
   37.1590   26.3210   34.3830 N   0  0  0  0  0  0  0  0  0  0  0  0
   37.0720   26.8770   33.1420 C   0  0  0  0  0  0  0  0  0  0  0  0
   37.6950   26.2940   32.1130 N   0  0  0  0  0  0  0  0  0  0  0  0
   38.9100   24.6820   31.4830 H   0  0  0  0  0  0  0  0  0  0  0  0
   39.0690   23.6620   33.7600 H   0  0  0  0  0  0  0  0  0  0  0  0
   37.8870   24.6730   36.0000 C   0  0  0  0  0  0  0  0  0  0  0  0
   37.8000   23.3290   36.3460 C   0  0  0  0  0  0  0  0  0  0  0  0
   37.6980   22.4520   35.7350 H   0  0  0  0  0  0  0  0  0  0  0  0
   37.8640   23.2260   37.6880 N   0  0  0  0  0  0  0  0  0  0  0  0
   37.8410   22.4500   38.3860 H   0  0  0  0  0  0  0  0  0  0  0  0
   37.9900   24.4840   38.2030 C   0  0  0  0  0  0  0  0  0  0  0  0
   38.0800   24.9750   39.1670 H   0  0  0  0  0  0  0  0  0  0  0  0
   38.0010   25.3350   37.1620 N   0  0  0  0  0  0  0  0  0  0  0  0
  1 30  1  0  0  0  0
  1  6  1  0  0  0  0
  2  1  2  0  0  0  0
  3  2  1  0  0  0  0
  3  4  2  0  0  0  0
  4  5  1  0  0  0  0
  5  6  2  0  0  0  0
  5 10  1  0  0  0  0
  7  2  1  0  0  0  0
  8  3  1  0  0  0  0
  9 14  1  0  0  0  0
 10  9  2  0  0  0  0
 10 11  1  0  0  0  0
 11 12  2  0  0  0  0
 12 16  1  0  0  0  0
 12 13  1  0  0  0  0
 13 17  1  0  0  0  0
 14 18  1  0  0  0  0
 14 13  2  0  0  0  0
 15 11  1  0  0  0  0
 19 20  2  0  0  0  0
 19  9  1  0  0  0  0
 19 21  2  0  0  0  0
 22 19  1  0  0  0  0
 23 22  1  0  0  0  0
 24 22  1  0  0  0  0
 25 22  1  0  0  0  0
 26 27  1  0  0  0  0
 27 33  1  0  0  0  0
 27 28  2  0  0  0  0
 28 34  1  0  0  0  0
 29 28  1  0  0  0  0
 30 29  2  0  0  0  0
 31 26  2  0  0  0  0
 31 30  1  0  0  0  0
 32 26  1  0  0  0  0
 34 35  2  0  0  0  0
 34 41  1  0  0  0  0
 35 37  1  0  0  0  0
 36 35  1  0  0  0  0
 37 39  1  0  0  0  0
 37 38  1  0  0  0  0
 39 40  1  0  0  0  0
 41 39  2  0  0  0  0
M  END
>  <minimizedAffinity>
-6.66772509

$$$$

 OpenBabel03272504293D

 41 44  0  0  0  0  0  0  0  0999 V2000
   37.4770   27.1260   33.9360 C   0  0  0  0  0  0  0  0  0  0  0  0
   38.5080   27.4250   34.7510 C   0  0  0  0  0  0  0  0  0  0  0  0
   39.4680   26.5330   35.0160 C   0  0  0  0  0  0  0  0  0  0  0  0
   39.3960   25.2990   34.4490 N   0  0  0  0  0  0  0  0  0  0  0  0
   38.3780   25.0110   33.6470 C   0  0  0  0  0  0  0  0  0  0  0  0
   37.4130   25.9050   33.3790 N   0  0  0  0  0  0  0  0  0  0  0  0
   38.5310   28.4220   35.1850 H   0  0  0  0  0  0  0  0  0  0  0  0
   40.2960   26.7780   35.6740 H   0  0  0  0  0  0  0  0  0  0  0  0
   38.3040   22.5710   33.9140 C   0  0  0  0  0  0  0  0  0  0  0  0
   38.4110   23.6830   33.0780 C   0  0  0  0  0  0  0  0  0  0  0  0
   38.5770   23.6100   31.7090 C   0  0  0  0  0  0  0  0  0  0  0  0
   38.6440   22.3710   31.1090 C   0  0  0  0  0  0  0  0  0  0  0  0
   38.5490   21.2180   31.8560 C   0  0  0  0  0  0  0  0  0  0  0  0
   38.3870   21.3900   33.1900 C   0  0  0  0  0  0  0  0  0  0  0  0
   38.6540   24.5000   31.1010 H   0  0  0  0  0  0  0  0  0  0  0  0
   38.7740   22.3320   30.0330 H   0  0  0  0  0  0  0  0  0  0  0  0
   38.5990   20.2450   31.4090 H   0  0  0  0  0  0  0  0  0  0  0  0
   38.3110   20.4630   33.7810 H   0  0  0  0  0  0  0  0  0  0  0  0
   38.0810   22.6230   35.5650 S   0  0  0  0  0  0  0  0  0  0  0  0
   39.4460   21.9660   35.9570 O   0  0  0  0  0  0  0  0  0  0  0  0
   36.9740   21.6550   35.8950 O   0  0  0  0  0  0  0  0  0  0  0  0
   38.1050   23.3770   36.9730 C   0  0  0  0  0  0  0  0  0  0  0  0
   39.0080   23.1100   38.0210 F   0  0  0  0  0  0  0  0  0  0  0  0
   37.0010   22.8810   37.8160 F   0  0  0  0  0  0  0  0  0  0  0  0
   37.5280   24.6710   37.1360 F   0  0  0  0  0  0  0  0  0  0  0  0
   34.8560   29.0300   32.2150 C   0  0  0  0  0  0  0  0  0  0  0  0
   34.4460   29.9490   33.2020 C   0  0  0  0  0  0  0  0  0  0  0  0
   35.0900   29.8860   34.4410 C   0  0  0  0  0  0  0  0  0  0  0  0
   36.0570   28.9520   34.6050 N   0  0  0  0  0  0  0  0  0  0  0  0
   36.4280   28.0790   33.6260 C   0  0  0  0  0  0  0  0  0  0  0  0
   35.8210   28.1260   32.4370 N   0  0  0  0  0  0  0  0  0  0  0  0
   34.3520   29.0810   31.2520 H   0  0  0  0  0  0  0  0  0  0  0  0
   33.6730   30.6830   33.0480 H   0  0  0  0  0  0  0  0  0  0  0  0
   34.7670   30.7710   35.5450 C   0  0  0  0  0  0  0  0  0  0  0  0
   35.6780   31.5830   36.2090 C   0  0  0  0  0  0  0  0  0  0  0  0
   36.7330   31.7200   36.0640 H   0  0  0  0  0  0  0  0  0  0  0  0
   35.0260   32.2620   37.1730 N   0  0  0  0  0  0  0  0  0  0  0  0
   35.2800   32.9650   37.9030 H   0  0  0  0  0  0  0  0  0  0  0  0
   33.7120   31.8970   37.1330 C   0  0  0  0  0  0  0  0  0  0  0  0
   32.7800   32.1110   37.6460 H   0  0  0  0  0  0  0  0  0  0  0  0
   33.5850   30.9970   36.1420 N   0  0  0  0  0  0  0  0  0  0  0  0
  1  2  1  0  0  0  0
  2  3  2  0  0  0  0
  2  7  1  0  0  0  0
  3  8  1  0  0  0  0
  4  3  1  0  0  0  0
  5  4  2  0  0  0  0
  6  5  1  0  0  0  0
  6  1  2  0  0  0  0
  9 19  1  0  0  0  0
 10  5  1  0  0  0  0
 10  9  2  0  0  0  0
 11 10  1  0  0  0  0
 12 11  2  0  0  0  0
 12 13  1  0  0  0  0
 13 14  2  0  0  0  0
 14 18  1  0  0  0  0
 14  9  1  0  0  0  0
 15 11  1  0  0  0  0
 16 12  1  0  0  0  0
 17 13  1  0  0  0  0
 19 21  2  0  0  0  0
 19 20  2  0  0  0  0
 19 22  1  0  0  0  0
 22 25  1  0  0  0  0
 22 24  1  0  0  0  0
 22 23  1  0  0  0  0
 26 31  2  0  0  0  0
 26 27  1  0  0  0  0
 27 28  2  0  0  0  0
 28 29  1  0  0  0  0
 28 34  1  0  0  0  0
 30  1  1  0  0  0  0
 30 29  2  0  0  0  0
 31 30  1  0  0  0  0
 32 26  1  0  0  0  0
 33 27  1  0  0  0  0
 34 41  1  0  0  0  0
 34 35  2  0  0  0  0
 35 37  1  0  0  0  0
 36 35  1  0  0  0  0
 37 38  1  0  0  0  0
 39 37  1  0  0  0  0
 39 40  1  0  0  0  0
 41 39  2  0  0  0  0
M  END
>  <minimizedAffinity>
-6.42409801

$$$$

 OpenBabel03272504293D

 41 44  0  0  0  0  0  0  0  0999 V2000
   36.4280   28.3010   33.0900 C   0  0  0  0  0  0  0  0  0  0  0  0
   36.1000   28.7730   31.8710 C   0  0  0  0  0  0  0  0  0  0  0  0
   35.3450   29.8670   31.7260 C   0  0  0  0  0  0  0  0  0  0  0  0
   34.9010   30.5110   32.8390 N   0  0  0  0  0  0  0  0  0  0  0  0
   35.2270   30.0420   34.0360 C   0  0  0  0  0  0  0  0  0  0  0  0
   35.9870   28.9440   34.1830 N   0  0  0  0  0  0  0  0  0  0  0  0
   36.4740   28.2290   31.0050 H   0  0  0  0  0  0  0  0  0  0  0  0
   35.0830   30.2420   30.7430 H   0  0  0  0  0  0  0  0  0  0  0  0
   33.3870   30.6990   35.5220 C   0  0  0  0  0  0  0  0  0  0  0  0
   34.7260   30.8160   35.1490 C   0  0  0  0  0  0  0  0  0  0  0  0
   35.6320   31.6580   35.7630 C   0  0  0  0  0  0  0  0  0  0  0  0
   35.2070   32.4440   36.8140 C   0  0  0  0  0  0  0  0  0  0  0  0
   33.9010   32.3960   37.2500 C   0  0  0  0  0  0  0  0  0  0  0  0
   33.0880   31.5390   36.5860 C   0  0  0  0  0  0  0  0  0  0  0  0
   36.6610   31.7150   35.4400 H   0  0  0  0  0  0  0  0  0  0  0  0
   35.9310   33.0990   37.2850 H   0  0  0  0  0  0  0  0  0  0  0  0
   33.5510   32.9990   38.0640 H   0  0  0  0  0  0  0  0  0  0  0  0
   32.0460   31.5060   36.9410 H   0  0  0  0  0  0  0  0  0  0  0  0
   32.2740   29.6780   34.8180 S   0  0  0  0  0  0  0  0  0  0  0  0
   31.0460   30.6420   34.9230 O   0  0  0  0  0  0  0  0  0  0  0  0
   32.0600   28.5290   35.7690 O   0  0  0  0  0  0  0  0  0  0  0  0
   31.5710   29.0110   33.5480 C   0  0  0  0  0  0  0  0  0  0  0  0
   30.3430   29.4230   32.9920 F   0  0  0  0  0  0  0  0  0  0  0  0
   30.9480   27.7340   33.9430 F   0  0  0  0  0  0  0  0  0  0  0  0
   32.3130   28.2510   32.5970 F   0  0  0  0  0  0  0  0  0  0  0  0
   39.1340   26.0200   34.0570 C   0  0  0  0  0  0  0  0  0  0  0  0
   38.6950   24.7850   33.5370 C   0  0  0  0  0  0  0  0  0  0  0  0
   37.4710   24.7740   32.8620 C   0  0  0  0  0  0  0  0  0  0  0  0
   36.7960   25.9450   32.7560 N   0  0  0  0  0  0  0  0  0  0  0  0
   37.2520   27.1210   33.2720 C   0  0  0  0  0  0  0  0  0  0  0  0
   38.4200   27.1470   33.9200 N   0  0  0  0  0  0  0  0  0  0  0  0
   40.0860   26.0250   34.5820 H   0  0  0  0  0  0  0  0  0  0  0  0
   39.2500   23.8670   33.6340 H   0  0  0  0  0  0  0  0  0  0  0  0
   36.9020   23.5740   32.2780 C   0  0  0  0  0  0  0  0  0  0  0  0
   35.8520   23.5500   31.3680 C   0  0  0  0  0  0  0  0  0  0  0  0
   35.2800   24.3490   30.9350 H   0  0  0  0  0  0  0  0  0  0  0  0
   35.5910   22.2680   31.0450 N   0  0  0  0  0  0  0  0  0  0  0  0
   34.9160   21.7700   30.4230 H   0  0  0  0  0  0  0  0  0  0  0  0
   36.4590   21.4730   31.7360 C   0  0  0  0  0  0  0  0  0  0  0  0
   36.6950   20.4210   31.8600 H   0  0  0  0  0  0  0  0  0  0  0  0
   37.2380   22.2880   32.4700 N   0  0  0  0  0  0  0  0  0  0  0  0
  1 30  1  0  0  0  0
  1  6  1  0  0  0  0
  2  1  2  0  0  0  0
  3  2  1  0  0  0  0
  3  4  2  0  0  0  0
  4  5  1  0  0  0  0
  5  6  2  0  0  0  0
  5 10  1  0  0  0  0
  7  2  1  0  0  0  0
  8  3  1  0  0  0  0
  9 14  1  0  0  0  0
 10  9  2  0  0  0  0
 10 11  1  0  0  0  0
 11 12  2  0  0  0  0
 12 13  1  0  0  0  0
 12 16  1  0  0  0  0
 13 17  1  0  0  0  0
 14 18  1  0  0  0  0
 14 13  2  0  0  0  0
 15 11  1  0  0  0  0
 19 20  2  0  0  0  0
 19  9  1  0  0  0  0
 19 21  2  0  0  0  0
 22 24  1  0  0  0  0
 22 19  1  0  0  0  0
 23 22  1  0  0  0  0
 25 22  1  0  0  0  0
 26 32  1  0  0  0  0
 27 33  1  0  0  0  0
 27 26  2  0  0  0  0
 28 27  1  0  0  0  0
 29 28  2  0  0  0  0
 29 30  1  0  0  0  0
 30 31  2  0  0  0  0
 31 26  1  0  0  0  0
 34 41  1  0  0  0  0
 34 28  1  0  0  0  0
 35 34  2  0  0  0  0
 36 35  1  0  0  0  0
 37 35  1  0  0  0  0
 37 39  1  0  0  0  0
 38 37  1  0  0  0  0
 39 40  1  0  0  0  0
 39 41  2  0  0  0  0
M  END
>  <minimizedAffinity>
-6.41776705

$$$$

 OpenBabel03272504293D

 41 44  0  0  0  0  0  0  0  0999 V2000
   39.5500   25.7350   33.4860 C   0  0  0  0  0  0  0  0  0  0  0  0
   40.3620   26.8090   33.5440 C   0  0  0  0  0  0  0  0  0  0  0  0
   41.5070   26.7800   34.2340 C   0  0  0  0  0  0  0  0  0  0  0  0
   41.8530   25.6390   34.8900 N   0  0  0  0  0  0  0  0  0  0  0  0
   41.0490   24.5850   34.8280 C   0  0  0  0  0  0  0  0  0  0  0  0
   39.8990   24.6120   34.1350 N   0  0  0  0  0  0  0  0  0  0  0  0
   40.0520   27.7030   33.0070 H   0  0  0  0  0  0  0  0  0  0  0  0
   42.1580   27.6480   34.2790 H   0  0  0  0  0  0  0  0  0  0  0  0
   40.7370   22.8590   36.5450 C   0  0  0  0  0  0  0  0  0  0  0  0
   41.5220   23.4190   35.5370 C   0  0  0  0  0  0  0  0  0  0  0  0
   42.7660   22.9450   35.1700 C   0  0  0  0  0  0  0  0  0  0  0  0
   43.2860   21.8500   35.8290 C   0  0  0  0  0  0  0  0  0  0  0  0
   42.5810   21.2340   36.8390 C   0  0  0  0  0  0  0  0  0  0  0  0
   41.3700   21.7690   37.1270 C   0  0  0  0  0  0  0  0  0  0  0  0
   43.3390   23.4110   34.3810 H   0  0  0  0  0  0  0  0  0  0  0  0
   44.2630   21.4920   35.5280 H   0  0  0  0  0  0  0  0  0  0  0  0
   42.9670   20.3830   37.3640 H   0  0  0  0  0  0  0  0  0  0  0  0
   40.8130   21.2710   37.9360 H   0  0  0  0  0  0  0  0  0  0  0  0
   39.2240   23.3910   36.9980 S   0  0  0  0  0  0  0  0  0  0  0  0
   39.3470   23.0300   38.5150 O   0  0  0  0  0  0  0  0  0  0  0  0
   38.2180   22.4620   36.3670 O   0  0  0  0  0  0  0  0  0  0  0  0
   38.1940   24.5390   37.4130 C   0  0  0  0  0  0  0  0  0  0  0  0
   37.7810   24.8200   38.7310 F   0  0  0  0  0  0  0  0  0  0  0  0
   36.8210   24.1090   37.0900 F   0  0  0  0  0  0  0  0  0  0  0  0
   37.9450   25.6600   36.5680 F   0  0  0  0  0  0  0  0  0  0  0  0
   36.6110   24.7010   31.5490 C   0  0  0  0  0  0  0  0  0  0  0  0
   35.9330   25.9190   31.3460 C   0  0  0  0  0  0  0  0  0  0  0  0
   36.5120   27.0710   31.8850 C   0  0  0  0  0  0  0  0  0  0  0  0
   37.6790   26.9360   32.5620 N   0  0  0  0  0  0  0  0  0  0  0  0
   38.3070   25.7390   32.7380 C   0  0  0  0  0  0  0  0  0  0  0  0
   37.7650   24.6290   32.2280 N   0  0  0  0  0  0  0  0  0  0  0  0
   36.1580   23.8060   31.1280 H   0  0  0  0  0  0  0  0  0  0  0  0
   35.0050   26.0010   30.8040 H   0  0  0  0  0  0  0  0  0  0  0  0
   35.9210   28.3900   31.7520 C   0  0  0  0  0  0  0  0  0  0  0  0
   35.0360   28.9630   32.6570 C   0  0  0  0  0  0  0  0  0  0  0  0
   34.6300   28.5850   33.5770 H   0  0  0  0  0  0  0  0  0  0  0  0
   34.6960   30.1870   32.2100 N   0  0  0  0  0  0  0  0  0  0  0  0
   34.0810   30.9660   32.5380 H   0  0  0  0  0  0  0  0  0  0  0  0
   35.3510   30.4050   31.0330 C   0  0  0  0  0  0  0  0  0  0  0  0
   35.4500   31.1730   30.2730 H   0  0  0  0  0  0  0  0  0  0  0  0
   36.0820   29.3040   30.7820 N   0  0  0  0  0  0  0  0  0  0  0  0
  1  2  2  0  0  0  0
  1  6  1  0  0  0  0
  2  3  1  0  0  0  0
  3  8  1  0  0  0  0
  3  4  2  0  0  0  0
  5  4  1  0  0  0  0
  5 10  1  0  0  0  0
  6  5  2  0  0  0  0
  7  2  1  0  0  0  0
  9 19  1  0  0  0  0
  9 14  1  0  0  0  0
 10  9  2  0  0  0  0
 11 10  1  0  0  0  0
 11 12  2  0  0  0  0
 12 13  1  0  0  0  0
 13 14  2  0  0  0  0
 13 17  1  0  0  0  0
 14 18  1  0  0  0  0
 15 11  1  0  0  0  0
 16 12  1  0  0  0  0
 19 22  1  0  0  0  0
 19 20  2  0  0  0  0
 21 19  2  0  0  0  0
 22 23  1  0  0  0  0
 24 22  1  0  0  0  0
 25 22  1  0  0  0  0
 26 31  1  0  0  0  0
 27 26  2  0  0  0  0
 27 28  1  0  0  0  0
 28 29  2  0  0  0  0
 29 30  1  0  0  0  0
 30  1  1  0  0  0  0
 31 30  2  0  0  0  0
 32 26  1  0  0  0  0
 33 27  1  0  0  0  0
 34 28  1  0  0  0  0
 34 35  2  0  0  0  0
 35 36  1  0  0  0  0
 37 38  1  0  0  0  0
 37 35  1  0  0  0  0
 39 37  1  0  0  0  0
 40 39  1  0  0  0  0
 41 39  2  0  0  0  0
 41 34  1  0  0  0  0
M  END
>  <minimizedAffinity>
-6.4072547

$$$$

 OpenBabel03272504293D

 41 44  0  0  0  0  0  0  0  0999 V2000
   36.1620   28.3970   32.6050 C   0  0  0  0  0  0  0  0  0  0  0  0
   35.8600   29.0140   31.4450 C   0  0  0  0  0  0  0  0  0  0  0  0
   35.2270   30.1910   31.4260 C   0  0  0  0  0  0  0  0  0  0  0  0
   34.8810   30.7720   32.6070 N   0  0  0  0  0  0  0  0  0  0  0  0
   35.1810   30.1590   33.7450 C   0  0  0  0  0  0  0  0  0  0  0  0
   35.8180   28.9770   33.7660 N   0  0  0  0  0  0  0  0  0  0  0  0
   36.1530   28.5180   30.5220 H   0  0  0  0  0  0  0  0  0  0  0  0
   34.9860   30.6840   30.4900 H   0  0  0  0  0  0  0  0  0  0  0  0
   33.5410   30.6370   35.5080 C   0  0  0  0  0  0  0  0  0  0  0  0
   34.7920   30.8730   34.9400 C   0  0  0  0  0  0  0  0  0  0  0  0
   35.7070   31.7840   35.4300 C   0  0  0  0  0  0  0  0  0  0  0  0
   35.3840   32.5180   36.5520 C   0  0  0  0  0  0  0  0  0  0  0  0
   34.1690   32.3510   37.1790 C   0  0  0  0  0  0  0  0  0  0  0  0
   33.3380   31.4350   36.6260 C   0  0  0  0  0  0  0  0  0  0  0  0
   36.6670   31.9330   34.9560 H   0  0  0  0  0  0  0  0  0  0  0  0
   36.1140   33.2270   36.9240 H   0  0  0  0  0  0  0  0  0  0  0  0
   33.8980   32.9120   38.0520 H   0  0  0  0  0  0  0  0  0  0  0  0
   32.3690   31.3080   37.1330 H   0  0  0  0  0  0  0  0  0  0  0  0
   32.4230   29.5310   34.9560 S   0  0  0  0  0  0  0  0  0  0  0  0
   31.2270   30.5300   34.8180 O   0  0  0  0  0  0  0  0  0  0  0  0
   32.1280   28.5890   36.0950 O   0  0  0  0  0  0  0  0  0  0  0  0
   31.7510   28.6550   33.8010 C   0  0  0  0  0  0  0  0  0  0  0  0
   32.3110   28.4230   32.5290 F   0  0  0  0  0  0  0  0  0  0  0  0
   30.6650   29.4250   33.1680 F   0  0  0  0  0  0  0  0  0  0  0  0
   30.7610   27.6700   34.0910 F   0  0  0  0  0  0  0  0  0  0  0  0
   37.0100   24.8440   32.2660 C   0  0  0  0  0  0  0  0  0  0  0  0
   38.3100   24.7860   32.8070 C   0  0  0  0  0  0  0  0  0  0  0  0
   38.8620   25.9810   33.2770 C   0  0  0  0  0  0  0  0  0  0  0  0
   38.1110   27.1050   33.1800 N   0  0  0  0  0  0  0  0  0  0  0  0
   36.8550   27.1230   32.6510 C   0  0  0  0  0  0  0  0  0  0  0  0
   36.3150   25.9880   32.1970 N   0  0  0  0  0  0  0  0  0  0  0  0
   36.5850   23.9120   31.9000 H   0  0  0  0  0  0  0  0  0  0  0  0
   38.8880   23.8780   32.8730 H   0  0  0  0  0  0  0  0  0  0  0  0
   40.1890   26.0640   33.8570 C   0  0  0  0  0  0  0  0  0  0  0  0
   40.9960   27.1970   33.8440 C   0  0  0  0  0  0  0  0  0  0  0  0
   40.8260   28.1750   33.4360 H   0  0  0  0  0  0  0  0  0  0  0  0
   42.1530   26.9070   34.4710 N   0  0  0  0  0  0  0  0  0  0  0  0
   43.0340   27.4190   34.7020 H   0  0  0  0  0  0  0  0  0  0  0  0
   42.0970   25.6080   34.8840 C   0  0  0  0  0  0  0  0  0  0  0  0
   42.7090   24.8820   35.4100 H   0  0  0  0  0  0  0  0  0  0  0  0
   40.9010   25.1250   34.5000 N   0  0  0  0  0  0  0  0  0  0  0  0
  1 30  1  0  0  0  0
  1  6  1  0  0  0  0
  2  1  2  0  0  0  0
  3  2  1  0  0  0  0
  3  4  2  0  0  0  0
  4  5  1  0  0  0  0
  5  6  2  0  0  0  0
  5 10  1  0  0  0  0
  7  2  1  0  0  0  0
  8  3  1  0  0  0  0
  9 14  1  0  0  0  0
 10 11  1  0  0  0  0
 10  9  2  0  0  0  0
 11 12  2  0  0  0  0
 12 16  1  0  0  0  0
 12 13  1  0  0  0  0
 13 17  1  0  0  0  0
 14 18  1  0  0  0  0
 14 13  2  0  0  0  0
 15 11  1  0  0  0  0
 19  9  1  0  0  0  0
 19 21  2  0  0  0  0
 20 19  2  0  0  0  0
 22 25  1  0  0  0  0
 22 19  1  0  0  0  0
 23 22  1  0  0  0  0
 24 22  1  0  0  0  0
 26 27  1  0  0  0  0
 27 33  1  0  0  0  0
 27 28  2  0  0  0  0
 28 34  1  0  0  0  0
 29 28  1  0  0  0  0
 30 29  2  0  0  0  0
 31 26  2  0  0  0  0
 31 30  1  0  0  0  0
 32 26  1  0  0  0  0
 34 41  1  0  0  0  0
 35 34  2  0  0  0  0
 35 37  1  0  0  0  0
 36 35  1  0  0  0  0
 37 38  1  0  0  0  0
 37 39  1  0  0  0  0
 39 40  1  0  0  0  0
 41 39  2  0  0  0  0
M  END
>  <minimizedAffinity>
-6.38136387

$$$$

 OpenBabel03272504293D

 41 44  0  0  0  0  0  0  0  0999 V2000
   36.3140   28.2730   33.5000 C   0  0  0  0  0  0  0  0  0  0  0  0
   36.1990   28.7850   32.2580 C   0  0  0  0  0  0  0  0  0  0  0  0
   35.5730   29.9460   32.0380 C   0  0  0  0  0  0  0  0  0  0  0  0
   35.0420   30.6180   33.0950 N   0  0  0  0  0  0  0  0  0  0  0  0
   35.1580   30.1080   34.3140 C   0  0  0  0  0  0  0  0  0  0  0  0
   35.7880   28.9430   34.5380 N   0  0  0  0  0  0  0  0  0  0  0  0
   36.6360   28.2180   31.4390 H   0  0  0  0  0  0  0  0  0  0  0  0
   35.4820   30.3540   31.0370 H   0  0  0  0  0  0  0  0  0  0  0  0
   33.2390   30.7520   35.7030 C   0  0  0  0  0  0  0  0  0  0  0  0
   34.5820   30.9140   35.3670 C   0  0  0  0  0  0  0  0  0  0  0  0
   35.4250   31.8320   35.9630 C   0  0  0  0  0  0  0  0  0  0  0  0
   34.9280   32.6500   36.9550 C   0  0  0  0  0  0  0  0  0  0  0  0
   33.6110   32.5610   37.3510 C   0  0  0  0  0  0  0  0  0  0  0  0
   32.8630   31.6310   36.7090 C   0  0  0  0  0  0  0  0  0  0  0  0
   36.4620   31.9220   35.6700 H   0  0  0  0  0  0  0  0  0  0  0  0
   35.6030   33.3640   37.4120 H   0  0  0  0  0  0  0  0  0  0  0  0
   33.2050   33.1880   38.1190 H   0  0  0  0  0  0  0  0  0  0  0  0
   31.8120   31.5650   37.0310 H   0  0  0  0  0  0  0  0  0  0  0  0
   32.2000   29.6410   35.0200 S   0  0  0  0  0  0  0  0  0  0  0  0
   30.8810   30.4470   35.2620 O   0  0  0  0  0  0  0  0  0  0  0  0
   32.1900   28.4300   35.9180 O   0  0  0  0  0  0  0  0  0  0  0  0
   31.4860   28.9570   33.7650 C   0  0  0  0  0  0  0  0  0  0  0  0
   31.0370   27.6220   33.7160 F   0  0  0  0  0  0  0  0  0  0  0  0
   32.4930   28.6420   32.7360 F   0  0  0  0  0  0  0  0  0  0  0  0
   30.8350   29.7340   32.7620 F   0  0  0  0  0  0  0  0  0  0  0  0
   37.8550   25.3970   35.1780 C   0  0  0  0  0  0  0  0  0  0  0  0
   38.2990   24.6120   34.0950 C   0  0  0  0  0  0  0  0  0  0  0  0
   38.0540   25.1000   32.8080 C   0  0  0  0  0  0  0  0  0  0  0  0
   37.4100   26.2860   32.6930 N   0  0  0  0  0  0  0  0  0  0  0  0
   36.9950   27.0190   33.7640 C   0  0  0  0  0  0  0  0  0  0  0  0
   37.2210   26.5660   35.0000 N   0  0  0  0  0  0  0  0  0  0  0  0
   38.0460   25.0150   36.1780 H   0  0  0  0  0  0  0  0  0  0  0  0
   38.8090   23.6700   34.2120 H   0  0  0  0  0  0  0  0  0  0  0  0
   38.4570   24.3930   31.6060 C   0  0  0  0  0  0  0  0  0  0  0  0
   38.9380   23.0900   31.5700 C   0  0  0  0  0  0  0  0  0  0  0  0
   39.1050   22.3810   32.3590 H   0  0  0  0  0  0  0  0  0  0  0  0
   39.2110   22.7680   30.2910 N   0  0  0  0  0  0  0  0  0  0  0  0
   39.5780   21.9300   29.7860 H   0  0  0  0  0  0  0  0  0  0  0  0
   38.9090   23.8450   29.5090 C   0  0  0  0  0  0  0  0  0  0  0  0
   38.9280   24.1370   28.4640 H   0  0  0  0  0  0  0  0  0  0  0  0
   38.4570   24.8100   30.3300 N   0  0  0  0  0  0  0  0  0  0  0  0
  1 30  1  0  0  0  0
  1  6  1  0  0  0  0
  2  1  2  0  0  0  0
  3  2  1  0  0  0  0
  3  4  2  0  0  0  0
  4  5  1  0  0  0  0
  5  6  2  0  0  0  0
  5 10  1  0  0  0  0
  7  2  1  0  0  0  0
  8  3  1  0  0  0  0
  9 14  1  0  0  0  0
 10  9  2  0  0  0  0
 10 11  1  0  0  0  0
 11 12  2  0  0  0  0
 12 13  1  0  0  0  0
 12 16  1  0  0  0  0
 13 17  1  0  0  0  0
 14 18  1  0  0  0  0
 14 13  2  0  0  0  0
 15 11  1  0  0  0  0
 19 20  2  0  0  0  0
 19  9  1  0  0  0  0
 19 21  2  0  0  0  0
 22 19  1  0  0  0  0
 23 22  1  0  0  0  0
 24 22  1  0  0  0  0
 25 22  1  0  0  0  0
 26 32  1  0  0  0  0
 27 33  1  0  0  0  0
 27 26  2  0  0  0  0
 28 27  1  0  0  0  0
 29 28  2  0  0  0  0
 29 30  1  0  0  0  0
 30 31  2  0  0  0  0
 31 26  1  0  0  0  0
 34 28  1  0  0  0  0
 35 34  2  0  0  0  0
 35 36  1  0  0  0  0
 37 35  1  0  0  0  0
 38 37  1  0  0  0  0
 39 37  1  0  0  0  0
 39 41  2  0  0  0  0
 40 39  1  0  0  0  0
 41 34  1  0  0  0  0
M  END
>  <minimizedAffinity>
-6.1317277

$$$$

 OpenBabel03272504293D

 41 44  0  0  0  0  0  0  0  0999 V2000
   35.9300   29.0950   32.4970 C   0  0  0  0  0  0  0  0  0  0  0  0
   35.5360   29.8610   31.4600 C   0  0  0  0  0  0  0  0  0  0  0  0
   34.5430   30.7480   31.5860 C   0  0  0  0  0  0  0  0  0  0  0  0
   33.9230   30.8750   32.7900 N   0  0  0  0  0  0  0  0  0  0  0  0
   34.3160   30.1180   33.8070 C   0  0  0  0  0  0  0  0  0  0  0  0
   35.3130   29.2270   33.6820 N   0  0  0  0  0  0  0  0  0  0  0  0
   36.0560   29.7300   30.5130 H   0  0  0  0  0  0  0  0  0  0  0  0
   34.2290   31.3610   30.7490 H   0  0  0  0  0  0  0  0  0  0  0  0
   33.9910   31.4090   35.8700 C   0  0  0  0  0  0  0  0  0  0  0  0
   33.6090   30.3500   35.0460 C   0  0  0  0  0  0  0  0  0  0  0  0
   32.5920   29.4640   35.3430 C   0  0  0  0  0  0  0  0  0  0  0  0
   31.8970   29.6160   36.5240 C   0  0  0  0  0  0  0  0  0  0  0  0
   32.2070   30.6330   37.4010 C   0  0  0  0  0  0  0  0  0  0  0  0
   33.2180   31.4520   37.0220 C   0  0  0  0  0  0  0  0  0  0  0  0
   32.3300   28.6580   34.6730 H   0  0  0  0  0  0  0  0  0  0  0  0
   31.1030   28.9120   36.7410 H   0  0  0  0  0  0  0  0  0  0  0  0
   31.6800   30.7680   38.3240 H   0  0  0  0  0  0  0  0  0  0  0  0
   33.4590   32.2620   37.7280 H   0  0  0  0  0  0  0  0  0  0  0  0
   35.1970   32.5090   35.5320 S   0  0  0  0  0  0  0  0  0  0  0  0
   36.3990   31.6030   35.9570 O   0  0  0  0  0  0  0  0  0  0  0  0
   35.0690   33.6310   36.5310 O   0  0  0  0  0  0  0  0  0  0  0  0
   36.1890   33.2570   34.5280 C   0  0  0  0  0  0  0  0  0  0  0  0
   36.7690   32.6780   33.3810 F   0  0  0  0  0  0  0  0  0  0  0  0
   37.5270   33.3540   35.1390 F   0  0  0  0  0  0  0  0  0  0  0  0
   36.2260   34.6790   34.4350 F   0  0  0  0  0  0  0  0  0  0  0  0
   38.8640   27.2230   31.3370 C   0  0  0  0  0  0  0  0  0  0  0  0
   39.0060   26.2300   32.3270 C   0  0  0  0  0  0  0  0  0  0  0  0
   38.0790   26.2340   33.3740 C   0  0  0  0  0  0  0  0  0  0  0  0
   37.1150   27.1860   33.3630 N   0  0  0  0  0  0  0  0  0  0  0  0
   37.0090   28.1310   32.3860 C   0  0  0  0  0  0  0  0  0  0  0  0
   37.8870   28.1410   31.3800 N   0  0  0  0  0  0  0  0  0  0  0  0
   39.5870   27.2180   30.5240 H   0  0  0  0  0  0  0  0  0  0  0  0
   39.7820   25.4830   32.3140 H   0  0  0  0  0  0  0  0  0  0  0  0
   38.1100   25.2700   34.4580 C   0  0  0  0  0  0  0  0  0  0  0  0
   38.2790   23.8990   34.3030 C   0  0  0  0  0  0  0  0  0  0  0  0
   38.4130   23.3040   33.4190 H   0  0  0  0  0  0  0  0  0  0  0  0
   38.2540   23.3220   35.5200 N   0  0  0  0  0  0  0  0  0  0  0  0
   38.3380   22.3510   35.8950 H   0  0  0  0  0  0  0  0  0  0  0  0
   38.0720   24.3040   36.4500 C   0  0  0  0  0  0  0  0  0  0  0  0
   37.9790   24.4140   37.5260 H   0  0  0  0  0  0  0  0  0  0  0  0
   37.9880   25.4670   35.7810 N   0  0  0  0  0  0  0  0  0  0  0  0
  1  6  1  0  0  0  0
  2  3  1  0  0  0  0
  2  1  2  0  0  0  0
  3  4  2  0  0  0  0
  4  5  1  0  0  0  0
  5 10  1  0  0  0  0
  6  5  2  0  0  0  0
  7  2  1  0  0  0  0
  8  3  1  0  0  0  0
  9 14  1  0  0  0  0
 10 11  1  0  0  0  0
 10  9  2  0  0  0  0
 11 12  2  0  0  0  0
 12 16  1  0  0  0  0
 12 13  1  0  0  0  0
 13 17  1  0  0  0  0
 14 13  2  0  0  0  0
 14 18  1  0  0  0  0
 15 11  1  0  0  0  0
 19  9  1  0  0  0  0
 19 20  2  0  0  0  0
 19 21  2  0  0  0  0
 22 24  1  0  0  0  0
 22 19  1  0  0  0  0
 23 22  1  0  0  0  0
 25 22  1  0  0  0  0
 26 31  2  0  0  0  0
 26 27  1  0  0  0  0
 27 28  2  0  0  0  0
 28 34  1  0  0  0  0
 29 28  1  0  0  0  0
 30  1  1  0  0  0  0
 30 29  2  0  0  0  0
 31 30  1  0  0  0  0
 32 26  1  0  0  0  0
 33 27  1  0  0  0  0
 34 41  1  0  0  0  0
 35 34  2  0  0  0  0
 35 37  1  0  0  0  0
 36 35  1  0  0  0  0
 37 38  1  0  0  0  0
 37 39  1  0  0  0  0
 39 40  1  0  0  0  0
 41 39  2  0  0  0  0
M  END
>  <minimizedAffinity>
-6.09140587

$$$$
