
 OpenBabel03272508423D

 19 20  0  0  0  0  0  0  0  0999 V2000
   33.3330   28.0670   48.6210 C   0  0  0  0  0  0  0  0  0  0  0  0
   32.2020   28.0590   49.1570 O   0  0  0  0  0  0  0  0  0  0  0  0
   35.9360   29.4640   50.7210 C   0  0  0  0  0  0  0  0  0  0  0  0
   36.4860   30.5020   49.9340 C   0  0  0  0  0  0  0  0  0  0  0  0
   35.9370   30.7070   48.6590 C   0  0  0  0  0  0  0  0  0  0  0  0
   34.9230   29.9150   48.2510 N   0  0  0  0  0  0  0  0  0  0  0  0
   34.4300   28.9360   49.0420 C   0  0  0  0  0  0  0  0  0  0  0  0
   34.9190   28.7020   50.2610 N   0  0  0  0  0  0  0  0  0  0  0  0
   36.3890   29.3410   51.6970 H   0  0  0  0  0  0  0  0  0  0  0  0
   37.2960   31.1220   50.2770 H   0  0  0  0  0  0  0  0  0  0  0  0
   36.2940   31.4740   47.9940 H   0  0  0  0  0  0  0  0  0  0  0  0
   33.6000   27.1620   47.5070 C   0  0  0  0  0  0  0  0  0  0  0  0
   33.5660   27.5510   46.1620 C   0  0  0  0  0  0  0  0  0  0  0  0
   33.3440   28.5410   45.7910 H   0  0  0  0  0  0  0  0  0  0  0  0
   33.8650   26.4420   45.4600 N   0  0  0  0  0  0  0  0  0  0  0  0
   33.9330   26.3500   44.4220 H   0  0  0  0  0  0  0  0  0  0  0  0
   34.0820   25.3970   46.2680 C   0  0  0  0  0  0  0  0  0  0  0  0
   34.3390   24.3620   46.0890 H   0  0  0  0  0  0  0  0  0  0  0  0
   33.9120   25.8680   47.5170 N   0  0  0  0  0  0  0  0  0  0  0  0
  1  7  1  0  0  0  0
  1  2  2  0  0  0  0
  3  9  1  0  0  0  0
  4 10  1  0  0  0  0
  4  3  2  0  0  0  0
  5  4  1  0  0  0  0
  6  5  2  0  0  0  0
  6  7  1  0  0  0  0
  7  8  2  0  0  0  0
  8  3  1  0  0  0  0
 11  5  1  0  0  0  0
 12 19  1  0  0  0  0
 12  1  1  0  0  0  0
 13 12  2  0  0  0  0
 14 13  1  0  0  0  0
 15 13  1  0  0  0  0
 15 17  1  0  0  0  0
 16 15  1  0  0  0  0
 17 19  2  0  0  0  0
 18 17  1  0  0  0  0
M  END
>  <minimizedAffinity>
-3.16134524

>  <minimizedRMSD>
2.28708625

$$$$
