REMARK  Name = 
REMARK  2 active torsions:
REMARK  status: ('A' for Active; 'I' for Inactive)
REMARK    1  A    between atoms: C_2  and  C_12
REMARK    2  A    between atoms: C_20  and  C_36
REMARK                            x       y       z     vdW  Elec       q    Type
REMARK                         _______ _______ _______ _____ _____    ______ ____
ROOT
ATOM      1  C   UNL     1      36.850  31.105  48.556  0.00  0.00    +0.000 A 
ATOM      2  N   UNL     1      36.795  32.012  49.568  0.00  0.00    +0.000 NA
ATOM      3  C   UNL     1      37.673  33.026  49.597  0.00  0.00    +0.000 A 
ATOM      4  N   UNL     1      38.648  33.232  48.670  0.00  0.00    +0.000 NA
ATOM      5  C   UNL     1      38.734  32.352  47.651  0.00  0.00    +0.000 A 
ATOM      6  C   UNL     1      39.666  32.488  46.636  0.00  0.00    +0.000 A 
ATOM      7  C   UNL     1      39.702  31.579  45.580  0.00  0.00    +0.000 A 
ATOM      8  C   UNL     1      38.787  30.526  45.558  0.00  0.00    +0.000 A 
ATOM      9  C   UNL     1      37.872  30.421  46.588  0.00  0.00    +0.000 A 
ATOM     10  C   UNL     1      37.831  31.309  47.621  0.00  0.00    +0.000 A 
ATOM     11  H   UNL     1      37.651  33.765  50.395  0.00  0.00    +0.000 HD
ATOM     12  H   UNL     1      40.337  33.329  46.731  0.00  0.00    +0.000 HD
ATOM     13  H   UNL     1      40.461  31.796  44.867  0.00  0.00    +0.000 HD
ATOM     14  H   UNL     1      38.974  29.946  44.678  0.00  0.00    +0.000 HD
ENDROOT
BRANCH   1  16
ATOM     15  C   UNL     1      35.837  28.926  49.397  0.00  0.00    +0.000 A 
ATOM     16  C   UNL     1      35.860  30.087  48.595  0.00  0.00    +0.000 A 
ATOM     17  C   UNL     1      34.782  30.303  47.683  0.00  0.00    +0.000 A 
ATOM     18  N   UNL     1      33.779  29.392  47.609  0.00  0.00    +0.000 NA
ATOM     19  C   UNL     1      33.819  28.287  48.411  0.00  0.00    +0.000 A 
ATOM     20  N   UNL     1      34.813  28.058  49.279  0.00  0.00    +0.000 NA
ATOM     21  N   UNL     1      32.737  27.337  48.275  0.00  0.00    +0.000 N 
ATOM     22  C   UNL     1      31.359  27.642  48.540  0.00  0.00    +0.000 C 
ATOM     23  C   UNL     1      30.602  26.462  48.013  0.00  0.00    +0.000 C 
ATOM     24  C   UNL     1      31.597  25.605  47.247  0.00  0.00    +0.000 C 
ATOM     25  C   UNL     1      32.899  25.936  47.847  0.00  0.00    +0.000 C 
ATOM     26  H   UNL     1      36.673  28.831  50.060  0.00  0.00    +0.000 HD
ATOM     27  H   UNL     1      34.711  31.148  47.042  0.00  0.00    +0.000 HD
ATOM     28  H   UNL     1      31.000  28.572  48.046  0.00  0.00    +0.000 HD
ATOM     29  H   UNL     1      31.213  27.783  49.646  0.00  0.00    +0.000 HD
ATOM     30  H   UNL     1      29.790  26.808  47.334  0.00  0.00    +0.000 HD
ATOM     31  H   UNL     1      30.136  25.935  48.854  0.00  0.00    +0.000 HD
ATOM     32  H   UNL     1      31.263  24.536  47.384  0.00  0.00    +0.000 HD
ATOM     33  H   UNL     1      31.510  25.814  46.172  0.00  0.00    +0.000 HD
ATOM     34  H   UNL     1      33.163  25.310  48.707  0.00  0.00    +0.000 HD
ATOM     35  H   UNL     1      33.712  25.857  47.069  0.00  0.00    +0.000 HD
ENDBRANCH   1  16
BRANCH   9  36
ATOM     36  C   UNL     1      37.089  29.236  46.236  0.00  0.00    +0.000 A 
ATOM     37  C   UNL     1      37.262  28.159  45.390  0.00  0.00    +0.000 A 
ATOM     38  H   UNL     1      38.198  28.032  44.843  0.00  0.00    +0.000 HD
ATOM     39  N   UNL     1      36.212  27.345  45.296  0.00  0.00    +0.000 N 
ATOM     40  H   UNL     1      36.173  26.489  44.706  0.00  0.00    +0.000 HD
ATOM     41  C   UNL     1      35.328  27.928  46.115  0.00  0.00    +0.000 A 
ATOM     42  H   UNL     1      34.322  27.539  46.301  0.00  0.00    +0.000 HD
ATOM     43  N   UNL     1      35.804  29.041  46.686  0.00  0.00    +0.000 NA
ENDBRANCH   9  36
TORSDOF 2
