
 OpenBabel03272509323D

 37 39  0  0  1  0  0  0  0  0999 V2000
   36.6930   25.1810   32.2940 C   0  0  2  0  0  0  0  0  0  0  0  0
   36.6680   25.9210   30.9910 C   0  0  0  0  0  0  0  0  0  0  0  0
   37.9140   26.7510   30.7600 C   0  0  0  0  0  0  0  0  0  0  0  0
   38.0990   27.7410   31.9100 C   0  0  0  0  0  0  0  0  0  0  0  0
   37.7500   27.1790   33.2620 C   0  0  0  0  0  0  0  0  0  0  0  0
   37.8000   25.6420   33.1830 C   0  0  1  0  0  0  0  0  0  0  0  0
   35.7230   25.2780   32.8790 H   0  0  0  0  0  0  0  0  0  0  0  0
   35.8560   26.7120   31.1330 H   0  0  0  0  0  0  0  0  0  0  0  0
   36.3590   25.3770   30.1170 H   0  0  0  0  0  0  0  0  0  0  0  0
   38.8300   26.1460   30.6840 H   0  0  0  0  0  0  0  0  0  0  0  0
   37.7180   27.3580   29.8560 H   0  0  0  0  0  0  0  0  0  0  0  0
   39.1790   28.0370   31.9100 H   0  0  0  0  0  0  0  0  0  0  0  0
   37.4710   28.6470   31.7400 H   0  0  0  0  0  0  0  0  0  0  0  0
   38.4520   27.4920   34.0660 H   0  0  0  0  0  0  0  0  0  0  0  0
   36.7190   27.4210   33.5790 H   0  0  0  0  0  0  0  0  0  0  0  0
   38.7460   25.5110   32.7150 H   0  0  0  0  0  0  0  0  0  0  0  0
   36.8400   23.7170   32.0730 C   0  0  0  0  0  0  0  0  0  0  0  0
   35.6630   23.0380   31.6830 C   0  0  0  0  0  0  0  0  0  0  0  0
   35.7880   21.6610   31.4680 C   0  0  0  0  0  0  0  0  0  0  0  0
   37.0120   21.0600   31.6420 N   0  0  0  0  0  0  0  0  0  0  0  0
   38.1250   21.7720   32.0220 C   0  0  0  0  0  0  0  0  0  0  0  0
   38.0150   23.0980   32.2320 N   0  0  0  0  0  0  0  0  0  0  0  0
   34.6700   23.3980   31.5110 H   0  0  0  0  0  0  0  0  0  0  0  0
   34.9770   21.0160   31.1700 H   0  0  0  0  0  0  0  0  0  0  0  0
   39.0320   21.2050   32.1280 H   0  0  0  0  0  0  0  0  0  0  0  0
   39.0430   24.8420   35.2500 C   0  0  0  0  0  0  0  0  0  0  0  0
   40.2240   25.2750   35.1140 O   0  0  0  0  0  0  0  0  0  0  0  0
   37.8860   24.9840   34.4350 N   0  0  0  0  0  0  0  0  0  0  0  0
   37.0190   24.5260   34.8660 H   0  0  0  0  0  0  0  0  0  0  0  0
   38.9650   24.0690   36.5040 C   0  0  0  0  0  0  0  0  0  0  0  0
   39.7230   23.0020   36.9210 C   0  0  0  0  0  0  0  0  0  0  0  0
   40.5260   22.5280   36.3940 H   0  0  0  0  0  0  0  0  0  0  0  0
   39.3380   22.5640   38.1500 N   0  0  0  0  0  0  0  0  0  0  0  0
   39.7540   21.7690   38.6870 H   0  0  0  0  0  0  0  0  0  0  0  0
   38.3270   23.3620   38.5170 C   0  0  0  0  0  0  0  0  0  0  0  0
   37.7920   23.2840   39.4470 H   0  0  0  0  0  0  0  0  0  0  0  0
   38.1050   24.2560   37.5390 N   0  0  0  0  0  0  0  0  0  0  0  0
  1  7  1  1  0  0  0
  1  6  1  0  0  0  0
  2  8  1  0  0  0  0
  2  1  1  0  0  0  0
  3  2  1  0  0  0  0
  3  4  1  0  0  0  0
  4  5  1  0  0  0  0
  5 15  1  0  0  0  0
  5 14  1  0  0  0  0
  6 16  1  6  0  0  0
  6  5  1  0  0  0  0
  6 28  1  0  0  0  0
  9  2  1  0  0  0  0
 10  3  1  0  0  0  0
 11  3  1  0  0  0  0
 12  4  1  0  0  0  0
 13  4  1  0  0  0  0
 17 22  1  0  0  0  0
 17  1  1  0  0  0  0
 18 17  2  0  0  0  0
 19 20  2  0  0  0  0
 19 18  1  0  0  0  0
 20 21  1  0  0  0  0
 21 25  1  0  0  0  0
 21 22  2  0  0  0  0
 23 18  1  0  0  0  0
 24 19  1  0  0  0  0
 26 30  1  0  0  0  0
 27 26  2  0  0  0  0
 28 29  1  0  0  0  0
 28 26  1  0  0  0  0
 30 31  2  0  0  0  0
 30 37  1  0  0  0  0
 31 33  1  0  0  0  0
 32 31  1  0  0  0  0
 33 35  1  0  0  0  0
 33 34  1  0  0  0  0
 35 36  1  0  0  0  0
 37 35  2  0  0  0  0
M  END
>  <minimizedAffinity>
-5.13430643

$$$$

 OpenBabel03272509323D

 37 39  0  0  1  0  0  0  0  0999 V2000
   38.4750   25.8950   34.2440 C   0  0  2  0  0  0  0  0  0  0  0  0
   38.3400   27.2370   34.8960 C   0  0  0  0  0  0  0  0  0  0  0  0
   36.9810   27.8670   34.6740 C   0  0  0  0  0  0  0  0  0  0  0  0
   36.7060   27.9950   33.1760 C   0  0  0  0  0  0  0  0  0  0  0  0
   37.1870   26.8220   32.3640 C   0  0  0  0  0  0  0  0  0  0  0  0
   37.3520   25.6110   33.3010 C   0  0  1  0  0  0  0  0  0  0  0  0
   39.4450   25.7790   33.6620 H   0  0  0  0  0  0  0  0  0  0  0  0
   39.0370   27.9130   34.2950 H   0  0  0  0  0  0  0  0  0  0  0  0
   38.6850   27.3330   35.9090 H   0  0  0  0  0  0  0  0  0  0  0  0
   36.1570   27.2900   35.1210 H   0  0  0  0  0  0  0  0  0  0  0  0
   37.0510   28.8990   35.0660 H   0  0  0  0  0  0  0  0  0  0  0  0
   35.5960   28.0850   33.0580 H   0  0  0  0  0  0  0  0  0  0  0  0
   37.1920   28.9150   32.7750 H   0  0  0  0  0  0  0  0  0  0  0  0
   36.4820   26.5230   31.5570 H   0  0  0  0  0  0  0  0  0  0  0  0
   38.1870   26.9840   31.9190 H   0  0  0  0  0  0  0  0  0  0  0  0
   36.4150   25.6370   33.8040 H   0  0  0  0  0  0  0  0  0  0  0  0
   38.5270   24.8100   35.2600 C   0  0  0  0  0  0  0  0  0  0  0  0
   38.0530   25.1570   36.5470 C   0  0  0  0  0  0  0  0  0  0  0  0
   38.0930   24.1440   37.5110 C   0  0  0  0  0  0  0  0  0  0  0  0
   38.5740   22.9040   37.1680 N   0  0  0  0  0  0  0  0  0  0  0  0
   39.0210   22.6230   35.8980 C   0  0  0  0  0  0  0  0  0  0  0  0
   38.9880   23.5900   34.9620 N   0  0  0  0  0  0  0  0  0  0  0  0
   37.6530   26.0760   36.9220 H   0  0  0  0  0  0  0  0  0  0  0  0
   37.7660   24.2640   38.5320 H   0  0  0  0  0  0  0  0  0  0  0  0
   39.3760   21.6210   35.7360 H   0  0  0  0  0  0  0  0  0  0  0  0
   36.3840   23.7380   31.8830 C   0  0  0  0  0  0  0  0  0  0  0  0
   35.2260   24.1320   31.5610 O   0  0  0  0  0  0  0  0  0  0  0  0
   37.4130   24.3560   32.6470 N   0  0  0  0  0  0  0  0  0  0  0  0
   38.3040   23.7630   32.6950 H   0  0  0  0  0  0  0  0  0  0  0  0
   36.5990   22.3920   31.3180 C   0  0  0  0  0  0  0  0  0  0  0  0
   35.6930   21.3850   31.0900 C   0  0  0  0  0  0  0  0  0  0  0  0
   34.6410   21.3990   31.2890 H   0  0  0  0  0  0  0  0  0  0  0  0
   36.2900   20.2880   30.5520 N   0  0  0  0  0  0  0  0  0  0  0  0
   35.8210   19.3910   30.2860 H   0  0  0  0  0  0  0  0  0  0  0  0
   37.5860   20.6020   30.4360 C   0  0  0  0  0  0  0  0  0  0  0  0
   38.3420   19.9460   30.0400 H   0  0  0  0  0  0  0  0  0  0  0  0
   37.7700   21.8520   30.8910 N   0  0  0  0  0  0  0  0  0  0  0  0
  1  7  1  6  0  0  0
  1  2  1  0  0  0  0
  1 17  1  0  0  0  0
  2  9  1  0  0  0  0
  3  2  1  0  0  0  0
  3 11  1  0  0  0  0
  3 10  1  0  0  0  0
  4  3  1  0  0  0  0
  5  4  1  0  0  0  0
  5  6  1  0  0  0  0
  6 16  1  1  0  0  0
  6  1  1  0  0  0  0
  8  2  1  0  0  0  0
 12  4  1  0  0  0  0
 13  4  1  0  0  0  0
 14  5  1  0  0  0  0
 15  5  1  0  0  0  0
 17 18  1  0  0  0  0
 18 23  1  0  0  0  0
 18 19  2  0  0  0  0
 19 24  1  0  0  0  0
 20 19  1  0  0  0  0
 21 20  2  0  0  0  0
 22 17  2  0  0  0  0
 22 21  1  0  0  0  0
 25 21  1  0  0  0  0
 26 28  1  0  0  0  0
 27 26  2  0  0  0  0
 28 29  1  0  0  0  0
 28  6  1  0  0  0  0
 30 26  1  0  0  0  0
 31 32  1  0  0  0  0
 31 30  2  0  0  0  0
 33 31  1  0  0  0  0
 34 33  1  0  0  0  0
 35 33  1  0  0  0  0
 35 37  2  0  0  0  0
 36 35  1  0  0  0  0
 37 30  1  0  0  0  0
M  END
>  <minimizedAffinity>
-5.0959425

$$$$

 OpenBabel03272509323D

 37 39  0  0  1  0  0  0  0  0999 V2000
   36.9510   24.9610   32.4260 C   0  0  2  0  0  0  0  0  0  0  0  0
   36.4570   25.8970   31.3650 C   0  0  0  0  0  0  0  0  0  0  0  0
   37.5320   26.8370   30.8610 C   0  0  0  0  0  0  0  0  0  0  0  0
   38.1070   27.6410   32.0270 C   0  0  0  0  0  0  0  0  0  0  0  0
   38.2690   26.8470   33.2960 C   0  0  0  0  0  0  0  0  0  0  0  0
   38.2990   25.3490   32.9370 C   0  0  1  0  0  0  0  0  0  0  0  0
   36.2530   24.8950   33.3210 H   0  0  0  0  0  0  0  0  0  0  0  0
   35.7430   26.5970   31.9170 H   0  0  0  0  0  0  0  0  0  0  0  0
   35.8610   25.4800   30.5740 H   0  0  0  0  0  0  0  0  0  0  0  0
   38.3650   26.3170   30.3650 H   0  0  0  0  0  0  0  0  0  0  0  0
   37.0220   27.5660   30.2030 H   0  0  0  0  0  0  0  0  0  0  0  0
   39.1140   28.0080   31.7000 H   0  0  0  0  0  0  0  0  0  0  0  0
   37.4530   28.5170   32.2480 H   0  0  0  0  0  0  0  0  0  0  0  0
   39.2090   27.0750   33.8440 H   0  0  0  0  0  0  0  0  0  0  0  0
   37.4160   26.9630   33.9900 H   0  0  0  0  0  0  0  0  0  0  0  0
   39.0170   25.3610   32.1530 H   0  0  0  0  0  0  0  0  0  0  0  0
   37.0210   23.5650   31.9160 C   0  0  0  0  0  0  0  0  0  0  0  0
   35.7860   22.8790   31.8450 C   0  0  0  0  0  0  0  0  0  0  0  0
   35.8380   21.5670   31.3630 C   0  0  0  0  0  0  0  0  0  0  0  0
   37.0480   21.0300   30.9960 N   0  0  0  0  0  0  0  0  0  0  0  0
   38.2190   21.7460   31.0850 C   0  0  0  0  0  0  0  0  0  0  0  0
   38.1810   23.0100   31.5480 N   0  0  0  0  0  0  0  0  0  0  0  0
   34.7940   23.1950   32.0920 H   0  0  0  0  0  0  0  0  0  0  0  0
   34.9780   20.9240   31.2550 H   0  0  0  0  0  0  0  0  0  0  0  0
   39.1090   21.2320   30.7700 H   0  0  0  0  0  0  0  0  0  0  0  0
   38.4570   24.4720   35.3160 C   0  0  0  0  0  0  0  0  0  0  0  0
   37.5740   25.1080   35.9630 O   0  0  0  0  0  0  0  0  0  0  0  0
   38.8310   24.5070   33.9440 N   0  0  0  0  0  0  0  0  0  0  0  0
   39.5970   23.7980   33.7070 H   0  0  0  0  0  0  0  0  0  0  0  0
   39.1610   23.5660   36.2450 C   0  0  0  0  0  0  0  0  0  0  0  0
   38.8980   23.2920   37.5650 C   0  0  0  0  0  0  0  0  0  0  0  0
   38.1160   23.6990   38.1710 H   0  0  0  0  0  0  0  0  0  0  0  0
   39.7840   22.3940   38.0750 N   0  0  0  0  0  0  0  0  0  0  0  0
   39.8010   22.0220   39.0520 H   0  0  0  0  0  0  0  0  0  0  0  0
   40.6160   22.0960   37.0690 C   0  0  0  0  0  0  0  0  0  0  0  0
   41.4400   21.4080   37.1390 H   0  0  0  0  0  0  0  0  0  0  0  0
   40.2460   22.7920   35.9810 N   0  0  0  0  0  0  0  0  0  0  0  0
  1  6  1  0  0  0  0
  1  7  1  1  0  0  0
  2  8  1  0  0  0  0
  2  1  1  0  0  0  0
  3  2  1  0  0  0  0
  3  4  1  0  0  0  0
  4 13  1  0  0  0  0
  4  5  1  0  0  0  0
  5 14  1  0  0  0  0
  5 15  1  0  0  0  0
  6 16  1  6  0  0  0
  6  5  1  0  0  0  0
  6 28  1  0  0  0  0
  9  2  1  0  0  0  0
 10  3  1  0  0  0  0
 11  3  1  0  0  0  0
 12  4  1  0  0  0  0
 17  1  1  0  0  0  0
 18 17  1  0  0  0  0
 18 23  1  0  0  0  0
 19 18  2  0  0  0  0
 20 21  2  0  0  0  0
 20 19  1  0  0  0  0
 21 22  1  0  0  0  0
 22 17  2  0  0  0  0
 24 19  1  0  0  0  0
 25 21  1  0  0  0  0
 26 27  2  0  0  0  0
 26 30  1  0  0  0  0
 28 26  1  0  0  0  0
 29 28  1  0  0  0  0
 30 31  2  0  0  0  0
 31 33  1  0  0  0  0
 31 32  1  0  0  0  0
 33 34  1  0  0  0  0
 35 36  1  0  0  0  0
 35 33  1  0  0  0  0
 37 30  1  0  0  0  0
 37 35  2  0  0  0  0
M  END
>  <minimizedAffinity>
-5.02104521

$$$$

 OpenBabel03272509323D

 37 39  0  0  1  0  0  0  0  0999 V2000
   37.2590   25.4630   32.9590 C   0  0  2  0  0  0  0  0  0  0  0  0
   36.4830   26.5850   32.3400 C   0  0  0  0  0  0  0  0  0  0  0  0
   36.9020   27.9470   32.8540 C   0  0  0  0  0  0  0  0  0  0  0  0
   36.7530   27.9970   34.3740 C   0  0  0  0  0  0  0  0  0  0  0  0
   37.1490   26.7220   35.0700 C   0  0  0  0  0  0  0  0  0  0  0  0
   38.0660   25.9150   34.1310 C   0  0  1  0  0  0  0  0  0  0  0  0
   36.5990   24.6060   33.3100 H   0  0  0  0  0  0  0  0  0  0  0  0
   35.4290   26.4660   32.7640 H   0  0  0  0  0  0  0  0  0  0  0  0
   36.3450   26.5640   31.2740 H   0  0  0  0  0  0  0  0  0  0  0  0
   37.9450   28.2010   32.6080 H   0  0  0  0  0  0  0  0  0  0  0  0
   36.1710   28.6700   32.4460 H   0  0  0  0  0  0  0  0  0  0  0  0
   37.4140   28.8250   34.7360 H   0  0  0  0  0  0  0  0  0  0  0  0
   35.6970   28.2260   34.6480 H   0  0  0  0  0  0  0  0  0  0  0  0
   37.7090   26.8890   36.0160 H   0  0  0  0  0  0  0  0  0  0  0  0
   36.2910   26.0570   35.2780 H   0  0  0  0  0  0  0  0  0  0  0  0
   38.7570   26.6740   33.8500 H   0  0  0  0  0  0  0  0  0  0  0  0
   38.1730   24.8360   31.9670 C   0  0  0  0  0  0  0  0  0  0  0  0
   37.6300   23.7540   31.2350 C   0  0  0  0  0  0  0  0  0  0  0  0
   38.4780   23.1580   30.2960 C   0  0  0  0  0  0  0  0  0  0  0  0
   39.7550   23.6390   30.1390 N   0  0  0  0  0  0  0  0  0  0  0  0
   40.2300   24.6970   30.8780 C   0  0  0  0  0  0  0  0  0  0  0  0
   39.4230   25.2780   31.7860 N   0  0  0  0  0  0  0  0  0  0  0  0
   36.6590   23.3050   31.2670 H   0  0  0  0  0  0  0  0  0  0  0  0
   38.2000   22.3250   29.6690 H   0  0  0  0  0  0  0  0  0  0  0  0
   41.2430   24.9950   30.6750 H   0  0  0  0  0  0  0  0  0  0  0  0
   38.4910   24.1950   35.9530 C   0  0  0  0  0  0  0  0  0  0  0  0
   37.4630   24.2350   36.6910 O   0  0  0  0  0  0  0  0  0  0  0  0
   38.8290   24.9050   34.7670 N   0  0  0  0  0  0  0  0  0  0  0  0
   39.7700   24.5980   34.3570 H   0  0  0  0  0  0  0  0  0  0  0  0
   39.4360   23.2110   36.5130 C   0  0  0  0  0  0  0  0  0  0  0  0
   39.6080   22.8070   37.8140 C   0  0  0  0  0  0  0  0  0  0  0  0
   39.0730   23.1460   38.6770 H   0  0  0  0  0  0  0  0  0  0  0  0
   40.5910   21.8720   37.9220 N   0  0  0  0  0  0  0  0  0  0  0  0
   40.9140   21.4070   38.8010 H   0  0  0  0  0  0  0  0  0  0  0  0
   41.0450   21.6800   36.6780 C   0  0  0  0  0  0  0  0  0  0  0  0
   41.8310   20.9960   36.4120 H   0  0  0  0  0  0  0  0  0  0  0  0
   40.3590   22.4760   35.8400 N   0  0  0  0  0  0  0  0  0  0  0  0
  1  7  1  1  0  0  0
  1  6  1  0  0  0  0
  2  8  1  0  0  0  0
  2  3  1  0  0  0  0
  2  1  1  0  0  0  0
  3  4  1  0  0  0  0
  4 13  1  0  0  0  0
  4 12  1  0  0  0  0
  4  5  1  0  0  0  0
  5 15  1  0  0  0  0
  5 14  1  0  0  0  0
  6 16  1  6  0  0  0
  6 28  1  0  0  0  0
  6  5  1  0  0  0  0
  9  2  1  0  0  0  0
 10  3  1  0  0  0  0
 11  3  1  0  0  0  0
 17  1  1  0  0  0  0
 18 23  1  0  0  0  0
 18 17  2  0  0  0  0
 19 18  1  0  0  0  0
 20 19  2  0  0  0  0
 20 21  1  0  0  0  0
 21 22  2  0  0  0  0
 22 17  1  0  0  0  0
 24 19  1  0  0  0  0
 25 21  1  0  0  0  0
 26 30  1  0  0  0  0
 26 27  2  0  0  0  0
 28 26  1  0  0  0  0
 29 28  1  0  0  0  0
 30 31  2  0  0  0  0
 31 33  1  0  0  0  0
 31 32  1  0  0  0  0
 33 34  1  0  0  0  0
 35 33  1  0  0  0  0
 36 35  1  0  0  0  0
 37 30  1  0  0  0  0
 37 35  2  0  0  0  0
M  END
>  <minimizedAffinity>
-4.95619822

$$$$

 OpenBabel03272509323D

 37 39  0  0  1  0  0  0  0  0999 V2000
   38.0810   24.8730   32.6320 C   0  0  2  0  0  0  0  0  0  0  0  0
   37.2500   25.2590   31.4470 C   0  0  0  0  0  0  0  0  0  0  0  0
   35.9960   24.4210   31.3070 C   0  0  0  0  0  0  0  0  0  0  0  0
   36.3680   22.9410   31.2140 C   0  0  0  0  0  0  0  0  0  0  0  0
   37.5040   22.5380   32.1150 C   0  0  0  0  0  0  0  0  0  0  0  0
   37.6340   23.5840   33.2390 C   0  0  1  0  0  0  0  0  0  0  0  0
   39.1860   24.7680   32.3850 H   0  0  0  0  0  0  0  0  0  0  0  0
   37.8750   24.9350   30.5470 H   0  0  0  0  0  0  0  0  0  0  0  0
   37.0740   26.3060   31.2840 H   0  0  0  0  0  0  0  0  0  0  0  0
   35.2980   24.5410   32.1490 H   0  0  0  0  0  0  0  0  0  0  0  0
   35.5500   24.6910   30.3320 H   0  0  0  0  0  0  0  0  0  0  0  0
   35.4550   22.3600   31.5020 H   0  0  0  0  0  0  0  0  0  0  0  0
   36.6500   22.6820   30.1660 H   0  0  0  0  0  0  0  0  0  0  0  0
   37.3550   21.5480   32.6000 H   0  0  0  0  0  0  0  0  0  0  0  0
   38.4850   22.5380   31.6040 H   0  0  0  0  0  0  0  0  0  0  0  0
   36.6200   23.6420   33.5560 H   0  0  0  0  0  0  0  0  0  0  0  0
   38.0410   25.9290   33.6790 C   0  0  0  0  0  0  0  0  0  0  0  0
   36.9240   26.7950   33.6280 C   0  0  0  0  0  0  0  0  0  0  0  0
   36.8710   27.7900   34.6100 C   0  0  0  0  0  0  0  0  0  0  0  0
   37.8770   27.8710   35.5430 N   0  0  0  0  0  0  0  0  0  0  0  0
   38.9400   27.0000   35.5450 C   0  0  0  0  0  0  0  0  0  0  0  0
   39.0010   26.0380   34.6040 N   0  0  0  0  0  0  0  0  0  0  0  0
   36.0870   26.8210   32.9620 H   0  0  0  0  0  0  0  0  0  0  0  0
   36.0810   28.5210   34.6940 H   0  0  0  0  0  0  0  0  0  0  0  0
   39.6700   27.1510   36.3190 H   0  0  0  0  0  0  0  0  0  0  0  0
   39.7260   22.7090   34.3860 C   0  0  0  0  0  0  0  0  0  0  0  0
   40.5930   22.6200   33.4680 O   0  0  0  0  0  0  0  0  0  0  0  0
   38.3760   23.1560   34.3680 N   0  0  0  0  0  0  0  0  0  0  0  0
   37.9250   23.1480   35.3390 H   0  0  0  0  0  0  0  0  0  0  0  0
   40.3260   22.2420   35.6500 C   0  0  0  0  0  0  0  0  0  0  0  0
   39.8230   22.2930   36.9270 C   0  0  0  0  0  0  0  0  0  0  0  0
   38.8810   22.6950   37.2400 H   0  0  0  0  0  0  0  0  0  0  0  0
   40.6880   21.7530   37.8270 N   0  0  0  0  0  0  0  0  0  0  0  0
   40.5430   21.6720   38.8600 H   0  0  0  0  0  0  0  0  0  0  0  0
   41.7490   21.3540   37.1140 C   0  0  0  0  0  0  0  0  0  0  0  0
   42.6220   20.8800   37.5280 H   0  0  0  0  0  0  0  0  0  0  0  0
   41.5340   21.6450   35.8200 N   0  0  0  0  0  0  0  0  0  0  0  0
  1  7  1  6  0  0  0
  1  6  1  0  0  0  0
  1 17  1  0  0  0  0
  2  1  1  0  0  0  0
  3  2  1  0  0  0  0
  3 10  1  0  0  0  0
  4  3  1  0  0  0  0
  4 12  1  0  0  0  0
  4  5  1  0  0  0  0
  5 14  1  0  0  0  0
  5  6  1  0  0  0  0
  6 16  1  1  0  0  0
  6 28  1  0  0  0  0
  8  2  1  0  0  0  0
  9  2  1  0  0  0  0
 11  3  1  0  0  0  0
 13  4  1  0  0  0  0
 15  5  1  0  0  0  0
 17 22  1  0  0  0  0
 18 17  2  0  0  0  0
 18 19  1  0  0  0  0
 19 24  1  0  0  0  0
 19 20  2  0  0  0  0
 20 21  1  0  0  0  0
 21 25  1  0  0  0  0
 22 21  2  0  0  0  0
 23 18  1  0  0  0  0
 26 30  1  0  0  0  0
 27 26  2  0  0  0  0
 28 26  1  0  0  0  0
 28 29  1  0  0  0  0
 30 37  1  0  0  0  0
 30 31  2  0  0  0  0
 31 32  1  0  0  0  0
 31 33  1  0  0  0  0
 33 34  1  0  0  0  0
 35 36  1  0  0  0  0
 35 33  1  0  0  0  0
 37 35  2  0  0  0  0
M  END
>  <minimizedAffinity>
-4.90024996

$$$$

 OpenBabel03272509323D

 37 39  0  0  1  0  0  0  0  0999 V2000
   40.0020   24.6550   34.5270 C   0  0  2  0  0  0  0  0  0  0  0  0
   40.9980   25.7660   34.6650 C   0  0  0  0  0  0  0  0  0  0  0  0
   40.4390   27.1140   34.2600 C   0  0  0  0  0  0  0  0  0  0  0  0
   39.9320   27.0550   32.8190 C   0  0  0  0  0  0  0  0  0  0  0  0
   39.2430   25.7640   32.4660 C   0  0  0  0  0  0  0  0  0  0  0  0
   38.7870   25.0780   33.7680 C   0  0  1  0  0  0  0  0  0  0  0  0
   40.4270   23.7390   34.0060 H   0  0  0  0  0  0  0  0  0  0  0  0
   41.7700   25.5540   33.8490 H   0  0  0  0  0  0  0  0  0  0  0  0
   41.5740   25.8060   35.5710 H   0  0  0  0  0  0  0  0  0  0  0  0
   39.6070   27.4470   34.8980 H   0  0  0  0  0  0  0  0  0  0  0  0
   41.2940   27.8160   34.2600 H   0  0  0  0  0  0  0  0  0  0  0  0
   39.2030   27.8970   32.6990 H   0  0  0  0  0  0  0  0  0  0  0  0
   40.7790   27.2010   32.1090 H   0  0  0  0  0  0  0  0  0  0  0  0
   38.3400   25.9030   31.8320 H   0  0  0  0  0  0  0  0  0  0  0  0
   39.9140   25.0360   31.9740 H   0  0  0  0  0  0  0  0  0  0  0  0
   38.3020   25.8950   34.2470 H   0  0  0  0  0  0  0  0  0  0  0  0
   39.5770   24.1520   35.8600 C   0  0  0  0  0  0  0  0  0  0  0  0
   40.4070   23.1580   36.4300 C   0  0  0  0  0  0  0  0  0  0  0  0
   40.0200   22.6790   37.6860 C   0  0  0  0  0  0  0  0  0  0  0  0
   38.8890   23.1830   38.2810 N   0  0  0  0  0  0  0  0  0  0  0  0
   38.1200   24.1510   37.6810 C   0  0  0  0  0  0  0  0  0  0  0  0
   38.4820   24.6190   36.4710 N   0  0  0  0  0  0  0  0  0  0  0  0
   41.3040   22.7020   36.0670 H   0  0  0  0  0  0  0  0  0  0  0  0
   40.5550   21.9220   38.2390 H   0  0  0  0  0  0  0  0  0  0  0  0
   37.2570   24.4760   38.2340 H   0  0  0  0  0  0  0  0  0  0  0  0
   37.9140   22.8810   32.8390 C   0  0  0  0  0  0  0  0  0  0  0  0
   38.8800   22.3910   32.1850 O   0  0  0  0  0  0  0  0  0  0  0  0
   37.7990   24.0770   33.6000 N   0  0  0  0  0  0  0  0  0  0  0  0
   36.8440   24.1750   34.0730 H   0  0  0  0  0  0  0  0  0  0  0  0
   36.7570   21.9720   32.7240 C   0  0  0  0  0  0  0  0  0  0  0  0
   35.7430   21.9630   31.7970 C   0  0  0  0  0  0  0  0  0  0  0  0
   35.6080   22.6330   30.9730 H   0  0  0  0  0  0  0  0  0  0  0  0
   34.8580   20.9580   32.0340 N   0  0  0  0  0  0  0  0  0  0  0  0
   34.0020   20.7370   31.4760 H   0  0  0  0  0  0  0  0  0  0  0  0
   35.3150   20.3230   33.1200 C   0  0  0  0  0  0  0  0  0  0  0  0
   34.8420   19.4700   33.5760 H   0  0  0  0  0  0  0  0  0  0  0  0
   36.4440   20.9260   33.5300 N   0  0  0  0  0  0  0  0  0  0  0  0
  1  7  1  6  0  0  0
  1  2  1  0  0  0  0
  1 17  1  0  0  0  0
  2  9  1  0  0  0  0
  3  2  1  0  0  0  0
  3 10  1  0  0  0  0
  4  3  1  0  0  0  0
  5  4  1  0  0  0  0
  5  6  1  0  0  0  0
  6 16  1  1  0  0  0
  6  1  1  0  0  0  0
  8  2  1  0  0  0  0
 11  3  1  0  0  0  0
 12  4  1  0  0  0  0
 13  4  1  0  0  0  0
 14  5  1  0  0  0  0
 15  5  1  0  0  0  0
 17 18  2  0  0  0  0
 17 22  1  0  0  0  0
 18 19  1  0  0  0  0
 19 24  1  0  0  0  0
 19 20  2  0  0  0  0
 21 25  1  0  0  0  0
 21 20  1  0  0  0  0
 22 21  2  0  0  0  0
 23 18  1  0  0  0  0
 26 28  1  0  0  0  0
 27 26  2  0  0  0  0
 28  6  1  0  0  0  0
 28 29  1  0  0  0  0
 30 26  1  0  0  0  0
 30 37  1  0  0  0  0
 31 33  1  0  0  0  0
 31 30  2  0  0  0  0
 32 31  1  0  0  0  0
 33 35  1  0  0  0  0
 34 33  1  0  0  0  0
 35 37  2  0  0  0  0
 35 36  1  0  0  0  0
M  END
>  <minimizedAffinity>
-4.84457111

$$$$

 OpenBabel03272509323D

 37 39  0  0  1  0  0  0  0  0999 V2000
   36.6670   26.2730   32.2340 C   0  0  2  0  0  0  0  0  0  0  0  0
   36.4040   27.3900   31.2710 C   0  0  0  0  0  0  0  0  0  0  0  0
   36.9300   28.7250   31.7560 C   0  0  0  0  0  0  0  0  0  0  0  0
   36.3160   29.0630   33.1150 C   0  0  0  0  0  0  0  0  0  0  0  0
   36.1710   27.8780   34.0320 C   0  0  0  0  0  0  0  0  0  0  0  0
   37.1350   26.7720   33.5620 C   0  0  1  0  0  0  0  0  0  0  0  0
   35.7550   25.6200   32.4180 H   0  0  0  0  0  0  0  0  0  0  0  0
   35.2710   27.5330   31.3100 H   0  0  0  0  0  0  0  0  0  0  0  0
   36.6140   27.2100   30.2330 H   0  0  0  0  0  0  0  0  0  0  0  0
   38.0250   28.7450   31.8660 H   0  0  0  0  0  0  0  0  0  0  0  0
   36.5510   29.4840   31.0470 H   0  0  0  0  0  0  0  0  0  0  0  0
   36.9940   29.8120   33.5980 H   0  0  0  0  0  0  0  0  0  0  0  0
   35.3080   29.5180   32.9760 H   0  0  0  0  0  0  0  0  0  0  0  0
   36.4200   28.1050   35.0920 H   0  0  0  0  0  0  0  0  0  0  0  0
   35.1650   27.4210   33.9940 H   0  0  0  0  0  0  0  0  0  0  0  0
   38.0310   27.3370   33.4640 H   0  0  0  0  0  0  0  0  0  0  0  0
   37.6860   25.3330   31.6950 C   0  0  0  0  0  0  0  0  0  0  0  0
   37.1850   24.2950   30.8760 C   0  0  0  0  0  0  0  0  0  0  0  0
   38.1330   23.4060   30.3590 C   0  0  0  0  0  0  0  0  0  0  0  0
   39.4600   23.5820   30.6650 N   0  0  0  0  0  0  0  0  0  0  0  0
   39.8920   24.6120   31.4670 C   0  0  0  0  0  0  0  0  0  0  0  0
   38.9870   25.4740   31.9710 N   0  0  0  0  0  0  0  0  0  0  0  0
   36.1860   24.0670   30.5660 H   0  0  0  0  0  0  0  0  0  0  0  0
   37.8970   22.5680   29.7210 H   0  0  0  0  0  0  0  0  0  0  0  0
   40.9510   24.6600   31.6430 H   0  0  0  0  0  0  0  0  0  0  0  0
   38.0220   25.9460   35.7950 C   0  0  0  0  0  0  0  0  0  0  0  0
   38.4280   26.9840   36.3940 O   0  0  0  0  0  0  0  0  0  0  0  0
   37.4060   25.7690   34.5250 N   0  0  0  0  0  0  0  0  0  0  0  0
   37.1400   24.7500   34.3340 H   0  0  0  0  0  0  0  0  0  0  0  0
   38.2820   24.7740   36.6520 C   0  0  0  0  0  0  0  0  0  0  0  0
   38.8680   23.5730   36.3350 C   0  0  0  0  0  0  0  0  0  0  0  0
   39.2480   23.2650   35.3830 H   0  0  0  0  0  0  0  0  0  0  0  0
   38.9260   22.7450   37.4130 N   0  0  0  0  0  0  0  0  0  0  0  0
   39.3240   21.7780   37.4350 H   0  0  0  0  0  0  0  0  0  0  0  0
   38.3740   23.4270   38.4230 C   0  0  0  0  0  0  0  0  0  0  0  0
   38.2630   23.0540   39.4260 H   0  0  0  0  0  0  0  0  0  0  0  0
   37.9910   24.6330   37.9710 N   0  0  0  0  0  0  0  0  0  0  0  0
  1  7  1  1  0  0  0
  1  6  1  0  0  0  0
  2  8  1  0  0  0  0
  2  3  1  0  0  0  0
  2  1  1  0  0  0  0
  3 10  1  0  0  0  0
  3  4  1  0  0  0  0
  4 12  1  0  0  0  0
  4  5  1  0  0  0  0
  5 14  1  0  0  0  0
  6 16  1  6  0  0  0
  6  5  1  0  0  0  0
  6 28  1  0  0  0  0
  9  2  1  0  0  0  0
 11  3  1  0  0  0  0
 13  4  1  0  0  0  0
 15  5  1  0  0  0  0
 17 22  1  0  0  0  0
 17  1  1  0  0  0  0
 18 17  2  0  0  0  0
 19 20  2  0  0  0  0
 19 18  1  0  0  0  0
 20 21  1  0  0  0  0
 21 25  1  0  0  0  0
 21 22  2  0  0  0  0
 23 18  1  0  0  0  0
 24 19  1  0  0  0  0
 26 27  2  0  0  0  0
 26 30  1  0  0  0  0
 28 26  1  0  0  0  0
 29 28  1  0  0  0  0
 30 37  1  0  0  0  0
 31 30  2  0  0  0  0
 31 33  1  0  0  0  0
 32 31  1  0  0  0  0
 33 34  1  0  0  0  0
 33 35  1  0  0  0  0
 35 36  1  0  0  0  0
 37 35  2  0  0  0  0
M  END
>  <minimizedAffinity>
-4.83340979

$$$$

 OpenBabel03272509323D

 37 39  0  0  1  0  0  0  0  0999 V2000
   38.4070   26.9010   32.2660 C   0  0  2  0  0  0  0  0  0  0  0  0
   39.0880   27.5770   31.1160 C   0  0  0  0  0  0  0  0  0  0  0  0
   40.5350   27.1570   30.9560 C   0  0  0  0  0  0  0  0  0  0  0  0
   41.3030   27.4410   32.2470 C   0  0  0  0  0  0  0  0  0  0  0  0
   40.5200   27.1550   33.5000 C   0  0  0  0  0  0  0  0  0  0  0  0
   39.3730   26.1870   33.1530 C   0  0  1  0  0  0  0  0  0  0  0  0
   37.8140   27.6200   32.9170 H   0  0  0  0  0  0  0  0  0  0  0  0
   39.1740   28.6690   31.4420 H   0  0  0  0  0  0  0  0  0  0  0  0
   38.5590   27.6200   30.1810 H   0  0  0  0  0  0  0  0  0  0  0  0
   40.6520   26.0890   30.7200 H   0  0  0  0  0  0  0  0  0  0  0  0
   40.9670   27.8220   30.1850 H   0  0  0  0  0  0  0  0  0  0  0  0
   42.2110   26.7850   32.2320 H   0  0  0  0  0  0  0  0  0  0  0  0
   41.6230   28.5080   32.2760 H   0  0  0  0  0  0  0  0  0  0  0  0
   41.1250   26.6770   34.3010 H   0  0  0  0  0  0  0  0  0  0  0  0
   40.0260   28.0520   33.9170 H   0  0  0  0  0  0  0  0  0  0  0  0
   39.9130   25.4470   32.6120 H   0  0  0  0  0  0  0  0  0  0  0  0
   37.3930   25.9240   31.7860 C   0  0  0  0  0  0  0  0  0  0  0  0
   36.1120   26.4590   31.5140 C   0  0  0  0  0  0  0  0  0  0  0  0
   35.1500   25.5520   31.0580 C   0  0  0  0  0  0  0  0  0  0  0  0
   35.4890   24.2300   30.9030 N   0  0  0  0  0  0  0  0  0  0  0  0
   36.7530   23.7650   31.1810 C   0  0  0  0  0  0  0  0  0  0  0  0
   37.6870   24.6300   31.6210 N   0  0  0  0  0  0  0  0  0  0  0  0
   35.7400   27.4600   31.5900 H   0  0  0  0  0  0  0  0  0  0  0  0
   34.1330   25.8170   30.8130 H   0  0  0  0  0  0  0  0  0  0  0  0
   36.9120   22.7140   31.0230 H   0  0  0  0  0  0  0  0  0  0  0  0
   39.3010   24.3650   34.9230 C   0  0  0  0  0  0  0  0  0  0  0  0
   40.3540   23.6860   34.7410 O   0  0  0  0  0  0  0  0  0  0  0  0
   38.7980   25.5210   34.2630 N   0  0  0  0  0  0  0  0  0  0  0  0
   37.8880   25.8800   34.6980 H   0  0  0  0  0  0  0  0  0  0  0  0
   38.5380   23.7650   36.0330 C   0  0  0  0  0  0  0  0  0  0  0  0
   37.8040   22.6040   36.0620 C   0  0  0  0  0  0  0  0  0  0  0  0
   37.6500   21.9110   35.2600 H   0  0  0  0  0  0  0  0  0  0  0  0
   37.2450   22.3960   37.2850 N   0  0  0  0  0  0  0  0  0  0  0  0
   36.6440   21.5880   37.5650 H   0  0  0  0  0  0  0  0  0  0  0  0
   37.6300   23.4330   38.0390 C   0  0  0  0  0  0  0  0  0  0  0  0
   37.3580   23.5740   39.0700 H   0  0  0  0  0  0  0  0  0  0  0  0
   38.3980   24.2470   37.2950 N   0  0  0  0  0  0  0  0  0  0  0  0
  1  7  1  1  0  0  0
  1  6  1  0  0  0  0
  2  8  1  0  0  0  0
  2  1  1  0  0  0  0
  3  2  1  0  0  0  0
  3  4  1  0  0  0  0
  4 13  1  0  0  0  0
  4  5  1  0  0  0  0
  5 15  1  0  0  0  0
  5 14  1  0  0  0  0
  6 16  1  6  0  0  0
  6  5  1  0  0  0  0
  6 28  1  0  0  0  0
  9  2  1  0  0  0  0
 10  3  1  0  0  0  0
 11  3  1  0  0  0  0
 12  4  1  0  0  0  0
 17  1  1  0  0  0  0
 18 23  1  0  0  0  0
 18 17  2  0  0  0  0
 19 18  1  0  0  0  0
 20 19  2  0  0  0  0
 20 21  1  0  0  0  0
 21 22  2  0  0  0  0
 22 17  1  0  0  0  0
 24 19  1  0  0  0  0
 25 21  1  0  0  0  0
 26 30  1  0  0  0  0
 27 26  2  0  0  0  0
 28 29  1  0  0  0  0
 28 26  1  0  0  0  0
 30 31  2  0  0  0  0
 30 37  1  0  0  0  0
 31 33  1  0  0  0  0
 32 31  1  0  0  0  0
 33 34  1  0  0  0  0
 33 35  1  0  0  0  0
 35 36  1  0  0  0  0
 37 35  2  0  0  0  0
M  END
>  <minimizedAffinity>
-4.81625414

$$$$

 OpenBabel03272509323D

 37 39  0  0  1  0  0  0  0  0999 V2000
   38.3370   22.9080   34.2890 C   0  0  2  0  0  0  0  0  0  0  0  0
   38.3890   22.1580   35.5850 C   0  0  0  0  0  0  0  0  0  0  0  0
   37.7490   22.9140   36.7310 C   0  0  0  0  0  0  0  0  0  0  0  0
   38.4250   24.2740   36.8980 C   0  0  0  0  0  0  0  0  0  0  0  0
   38.7810   24.9440   35.5980 C   0  0  0  0  0  0  0  0  0  0  0  0
   37.9200   24.3300   34.4770 C   0  0  1  0  0  0  0  0  0  0  0  0
   39.3310   22.9150   33.7380 H   0  0  0  0  0  0  0  0  0  0  0  0
   39.4960   22.1580   35.8660 H   0  0  0  0  0  0  0  0  0  0  0  0
   38.1200   21.1180   35.5670 H   0  0  0  0  0  0  0  0  0  0  0  0
   36.6720   23.0870   36.5880 H   0  0  0  0  0  0  0  0  0  0  0  0
   37.9780   22.3380   37.6470 H   0  0  0  0  0  0  0  0  0  0  0  0
   37.7040   24.9270   37.4540 H   0  0  0  0  0  0  0  0  0  0  0  0
   39.3580   24.1670   37.4990 H   0  0  0  0  0  0  0  0  0  0  0  0
   38.5930   26.0390   35.5970 H   0  0  0  0  0  0  0  0  0  0  0  0
   39.8280   24.7640   35.2900 H   0  0  0  0  0  0  0  0  0  0  0  0
   36.9590   24.3900   34.9290 H   0  0  0  0  0  0  0  0  0  0  0  0
   37.3960   22.2610   33.3350 C   0  0  0  0  0  0  0  0  0  0  0  0
   36.4800   21.3480   33.9070 C   0  0  0  0  0  0  0  0  0  0  0  0
   35.5880   20.7350   33.0210 C   0  0  0  0  0  0  0  0  0  0  0  0
   35.6460   21.0440   31.6840 N   0  0  0  0  0  0  0  0  0  0  0  0
   36.5580   21.9430   31.1830 C   0  0  0  0  0  0  0  0  0  0  0  0
   37.4220   22.5380   32.0270 N   0  0  0  0  0  0  0  0  0  0  0  0
   36.3400   21.0390   34.9220 H   0  0  0  0  0  0  0  0  0  0  0  0
   34.8370   20.0180   33.3140 H   0  0  0  0  0  0  0  0  0  0  0  0
   36.5160   22.1130   30.1230 H   0  0  0  0  0  0  0  0  0  0  0  0
   37.2600   26.3890   33.1430 C   0  0  0  0  0  0  0  0  0  0  0  0
   36.7180   27.1670   33.9820 O   0  0  0  0  0  0  0  0  0  0  0  0
   37.8470   25.1020   33.2920 N   0  0  0  0  0  0  0  0  0  0  0  0
   38.2630   24.7300   32.3780 H   0  0  0  0  0  0  0  0  0  0  0  0
   37.2200   27.0270   31.8140 C   0  0  0  0  0  0  0  0  0  0  0  0
   36.1870   27.0990   30.9100 C   0  0  0  0  0  0  0  0  0  0  0  0
   35.2020   26.6930   31.0140 H   0  0  0  0  0  0  0  0  0  0  0  0
   36.5500   27.7790   29.7890 N   0  0  0  0  0  0  0  0  0  0  0  0
   35.9490   27.9720   28.9560 H   0  0  0  0  0  0  0  0  0  0  0  0
   37.8240   28.1430   29.9840 C   0  0  0  0  0  0  0  0  0  0  0  0
   38.4150   28.7020   29.2800 H   0  0  0  0  0  0  0  0  0  0  0  0
   38.2220   27.6960   31.1870 N   0  0  0  0  0  0  0  0  0  0  0  0
  1  7  1  6  0  0  0
  1  6  1  0  0  0  0
  1  2  1  0  0  0  0
  2  8  1  0  0  0  0
  2  3  1  0  0  0  0
  3  4  1  0  0  0  0
  3 11  1  0  0  0  0
  4 12  1  0  0  0  0
  4 13  1  0  0  0  0
  5  4  1  0  0  0  0
  6 16  1  1  0  0  0
  6  5  1  0  0  0  0
  9  2  1  0  0  0  0
 10  3  1  0  0  0  0
 14  5  1  0  0  0  0
 15  5  1  0  0  0  0
 17 18  1  0  0  0  0
 17  1  1  0  0  0  0
 18 23  1  0  0  0  0
 19 24  1  0  0  0  0
 19 18  2  0  0  0  0
 20 19  1  0  0  0  0
 21 20  2  0  0  0  0
 21 22  1  0  0  0  0
 22 17  2  0  0  0  0
 25 21  1  0  0  0  0
 26 28  1  0  0  0  0
 26 27  2  0  0  0  0
 28  6  1  0  0  0  0
 29 28  1  0  0  0  0
 30 26  1  0  0  0  0
 31 32  1  0  0  0  0
 31 30  2  0  0  0  0
 33 35  1  0  0  0  0
 33 31  1  0  0  0  0
 34 33  1  0  0  0  0
 35 37  2  0  0  0  0
 36 35  1  0  0  0  0
 37 30  1  0  0  0  0
M  END
>  <minimizedAffinity>
-4.80173683

$$$$
