
 OpenBabel03272509303D

 37 39  0  0  1  0  0  0  0  0999 V2000
   36.2940   30.7000   48.9850 C   0  0  2  0  0  0  0  0  0  0  0  0
   37.2650   31.5770   49.7150 C   0  0  0  0  0  0  0  0  0  0  0  0
   38.1610   30.8070   50.6610 C   0  0  0  0  0  0  0  0  0  0  0  0
   37.3110   30.0330   51.6690 C   0  0  0  0  0  0  0  0  0  0  0  0
   36.0620   29.4320   51.0800 C   0  0  0  0  0  0  0  0  0  0  0  0
   36.2430   29.3210   49.5550 C   0  0  1  0  0  0  0  0  0  0  0  0
   35.2340   31.1100   48.9900 H   0  0  0  0  0  0  0  0  0  0  0  0
   36.6120   32.1900   50.4240 H   0  0  0  0  0  0  0  0  0  0  0  0
   37.7970   32.3140   49.1410 H   0  0  0  0  0  0  0  0  0  0  0  0
   38.8160   30.0860   50.1480 H   0  0  0  0  0  0  0  0  0  0  0  0
   38.7210   31.5630   51.2430 H   0  0  0  0  0  0  0  0  0  0  0  0
   37.9550   29.2080   52.0690 H   0  0  0  0  0  0  0  0  0  0  0  0
   37.0100   30.7020   52.5090 H   0  0  0  0  0  0  0  0  0  0  0  0
   35.8400   28.4120   51.4630 H   0  0  0  0  0  0  0  0  0  0  0  0
   35.1680   30.0670   51.2220 H   0  0  0  0  0  0  0  0  0  0  0  0
   37.1980   28.8550   49.5150 H   0  0  0  0  0  0  0  0  0  0  0  0
   36.6420   30.6050   47.5420 C   0  0  0  0  0  0  0  0  0  0  0  0
   38.0090   30.7890   47.2310 C   0  0  0  0  0  0  0  0  0  0  0  0
   38.3500   30.6980   45.8770 C   0  0  0  0  0  0  0  0  0  0  0  0
   37.3690   30.4410   44.9500 N   0  0  0  0  0  0  0  0  0  0  0  0
   36.0540   30.2690   45.3110 C   0  0  0  0  0  0  0  0  0  0  0  0
   35.7140   30.3550   46.6110 N   0  0  0  0  0  0  0  0  0  0  0  0
   38.8510   30.9830   47.8620 H   0  0  0  0  0  0  0  0  0  0  0  0
   39.3510   30.8170   45.4930 H   0  0  0  0  0  0  0  0  0  0  0  0
   35.3680   30.0720   44.5070 H   0  0  0  0  0  0  0  0  0  0  0  0
   33.9390   28.3450   49.1110 C   0  0  0  0  0  0  0  0  0  0  0  0
   33.1490   29.0210   49.8330 O   0  0  0  0  0  0  0  0  0  0  0  0
   35.3450   28.4330   48.9120 N   0  0  0  0  0  0  0  0  0  0  0  0
   35.7040   27.7310   48.1880 H   0  0  0  0  0  0  0  0  0  0  0  0
   33.1610   27.3150   48.3960 C   0  0  0  0  0  0  0  0  0  0  0  0
   33.5910   26.3450   47.5230 C   0  0  0  0  0  0  0  0  0  0  0  0
   34.5940   26.1600   47.1990 H   0  0  0  0  0  0  0  0  0  0  0  0
   32.5570   25.5840   47.0740 N   0  0  0  0  0  0  0  0  0  0  0  0
   32.6190   24.7830   46.4040 H   0  0  0  0  0  0  0  0  0  0  0  0
   31.4620   26.0760   47.6650 C   0  0  0  0  0  0  0  0  0  0  0  0
   30.4660   25.6960   47.5220 H   0  0  0  0  0  0  0  0  0  0  0  0
   31.8200   27.1050   48.4510 N   0  0  0  0  0  0  0  0  0  0  0  0
  1  7  1  1  0  0  0
  1  6  1  0  0  0  0
  1  2  1  0  0  0  0
  2  8  1  0  0  0  0
  2  3  1  0  0  0  0
  3 11  1  0  0  0  0
  3  4  1  0  0  0  0
  4 12  1  0  0  0  0
  4 13  1  0  0  0  0
  5 15  1  0  0  0  0
  5 14  1  0  0  0  0
  5  4  1  0  0  0  0
  6 16  1  6  0  0  0
  6  5  1  0  0  0  0
  9  2  1  0  0  0  0
 10  3  1  0  0  0  0
 17  1  1  0  0  0  0
 18 17  1  0  0  0  0
 18 23  1  0  0  0  0
 19 18  2  0  0  0  0
 20 21  2  0  0  0  0
 20 19  1  0  0  0  0
 21 22  1  0  0  0  0
 22 17  2  0  0  0  0
 24 19  1  0  0  0  0
 25 21  1  0  0  0  0
 26 27  2  0  0  0  0
 28 26  1  0  0  0  0
 28  6  1  0  0  0  0
 29 28  1  0  0  0  0
 30 37  1  0  0  0  0
 30 26  1  0  0  0  0
 31 30  2  0  0  0  0
 32 31  1  0  0  0  0
 33 31  1  0  0  0  0
 33 35  1  0  0  0  0
 34 33  1  0  0  0  0
 35 37  2  0  0  0  0
 36 35  1  0  0  0  0
M  END
>  <minimizedAffinity>
-5.7624135

>  <minimizedRMSD>
0.469997972

$$$$
