
 OpenBabel03272509353D

 46 50  0  0  1  0  0  0  0  0999 V2000
   36.1810   30.4760   44.2850 C   0  0  1  0  0  0  0  0  0  0  0  0
   37.1450   31.4890   44.7850 C   0  0  0  0  0  0  0  0  0  0  0  0
   37.7160   30.1730   44.5850 C   0  0  2  0  0  0  0  0  0  0  0  0
   35.9150   30.3320   43.2460 H   0  0  0  0  0  0  0  0  0  0  0  0
   36.9940   31.7770   45.8710 H   0  0  0  0  0  0  0  0  0  0  0  0
   37.1190   32.3730   44.1620 H   0  0  0  0  0  0  0  0  0  0  0  0
   37.7550   29.2990   45.2230 H   0  0  0  0  0  0  0  0  0  0  0  0
   38.6340   30.1610   43.3960 C   0  0  0  0  0  0  0  0  0  0  0  0
   39.1110   31.4420   43.1320 C   0  0  0  0  0  0  0  0  0  0  0  0
   40.0490   31.6430   42.1530 C   0  0  0  0  0  0  0  0  0  0  0  0
   40.5460   30.5700   41.4020 C   0  0  0  0  0  0  0  0  0  0  0  0
   40.0550   29.3040   41.6890 C   0  0  0  0  0  0  0  0  0  0  0  0
   40.4540   28.1810   41.0210 C   0  0  0  0  0  0  0  0  0  0  0  0
   39.9700   26.9260   41.2850 C   0  0  0  0  0  0  0  0  0  0  0  0
   39.0190   26.7840   42.2880 C   0  0  0  0  0  0  0  0  0  0  0  0
   38.6120   27.9110   42.9650 C   0  0  0  0  0  0  0  0  0  0  0  0
   39.1310   29.1570   42.6620 C   0  0  0  0  0  0  0  0  0  0  0  0
   38.9500   32.4270   43.5210 H   0  0  0  0  0  0  0  0  0  0  0  0
   40.5270   32.5480   41.8100 H   0  0  0  0  0  0  0  0  0  0  0  0
   41.2860   30.5830   40.6020 H   0  0  0  0  0  0  0  0  0  0  0  0
   41.1910   28.2440   40.2330 H   0  0  0  0  0  0  0  0  0  0  0  0
   40.2850   26.0450   40.7590 H   0  0  0  0  0  0  0  0  0  0  0  0
   38.5850   25.8330   42.5600 H   0  0  0  0  0  0  0  0  0  0  0  0
   37.8560   27.7830   43.7600 H   0  0  0  0  0  0  0  0  0  0  0  0
   33.6250   28.2270   45.9100 C   0  0  0  0  0  0  0  0  0  0  0  0
   34.4750   28.8100   44.9260 C   0  0  0  0  0  0  0  0  0  0  0  0
   35.2890   29.8410   45.2900 C   0  0  0  0  0  0  0  0  0  0  0  0
   35.2190   30.2420   46.6090 N   0  0  0  0  0  0  0  0  0  0  0  0
   34.4170   29.6880   47.5190 C   0  0  0  0  0  0  0  0  0  0  0  0
   33.6060   28.6730   47.1910 N   0  0  0  0  0  0  0  0  0  0  0  0
   32.9910   27.4100   45.5860 H   0  0  0  0  0  0  0  0  0  0  0  0
   34.4320   28.3970   43.9220 H   0  0  0  0  0  0  0  0  0  0  0  0
   34.4610   30.2520   48.9240 C   0  0  0  0  0  0  0  0  0  0  0  0
   33.6820   31.0580   48.9260 H   0  0  0  0  0  0  0  0  0  0  0  0
   34.2950   29.4740   49.6690 H   0  0  0  0  0  0  0  0  0  0  0  0
   35.8140   30.9500   49.0800 C   0  0  0  0  0  0  0  0  0  0  0  0
   36.2940   30.9890   48.0810 H   0  0  0  0  0  0  0  0  0  0  0  0
   35.5600   31.9980   49.3850 H   0  0  0  0  0  0  0  0  0  0  0  0
   36.6590   30.2920   50.0820 C   0  0  0  0  0  0  0  0  0  0  0  0
   37.4340   30.8800   51.0880 C   0  0  0  0  0  0  0  0  0  0  0  0
   37.5340   31.9310   51.2890 H   0  0  0  0  0  0  0  0  0  0  0  0
   38.0010   29.8370   51.7170 N   0  0  0  0  0  0  0  0  0  0  0  0
   38.6500   30.0120   52.5370 H   0  0  0  0  0  0  0  0  0  0  0  0
   37.6530   28.6530   51.1980 C   0  0  0  0  0  0  0  0  0  0  0  0
   37.9940   27.6850   51.5520 H   0  0  0  0  0  0  0  0  0  0  0  0
   36.8280   28.9690   50.1960 N   0  0  0  0  0  0  0  0  0  0  0  0
  1  4  1  6  0  0  0
  1  3  1  0  0  0  0
  1  2  1  0  0  0  0
  1 27  1  0  0  0  0
  2  5  1  0  0  0  0
  3  2  1  0  0  0  0
  3  7  1  1  0  0  0
  6  2  1  0  0  0  0
  8  3  1  0  0  0  0
  9  8  1  0  0  0  0
  9 18  1  0  0  0  0
 10  9  2  0  0  0  0
 11 12  2  0  0  0  0
 11 10  1  0  0  0  0
 12 17  1  0  0  0  0
 13 14  2  0  0  0  0
 13 12  1  0  0  0  0
 14 15  1  0  0  0  0
 15 23  1  0  0  0  0
 15 16  2  0  0  0  0
 16 24  1  0  0  0  0
 17 16  1  0  0  0  0
 17  8  2  0  0  0  0
 19 10  1  0  0  0  0
 20 11  1  0  0  0  0
 21 13  1  0  0  0  0
 22 14  1  0  0  0  0
 25 30  1  0  0  0  0
 26 27  1  0  0  0  0
 26 25  2  0  0  0  0
 27 28  2  0  0  0  0
 28 29  1  0  0  0  0
 29 33  1  0  0  0  0
 30 29  2  0  0  0  0
 31 25  1  0  0  0  0
 32 26  1  0  0  0  0
 33 34  1  0  0  0  0
 33 36  1  0  0  0  0
 33 35  1  0  0  0  0
 36 38  1  0  0  0  0
 36 39  1  0  0  0  0
 37 36  1  0  0  0  0
 39 46  1  0  0  0  0
 39 40  2  0  0  0  0
 40 41  1  0  0  0  0
 40 42  1  0  0  0  0
 42 43  1  0  0  0  0
 44 45  1  0  0  0  0
 44 42  1  0  0  0  0
 46 44  2  0  0  0  0
M  END
>  <minimizedAffinity>
-4.967875

>  <minimizedRMSD>
3.14738417

$$$$
