
 OpenBabel03272508433D

 19 20  0  0  0  0  0  0  0  0999 V2000
   38.7240   22.8380   35.0620 C   0  0  0  0  0  0  0  0  0  0  0  0
   39.6030   23.3530   34.3360 O   0  0  0  0  0  0  0  0  0  0  0  0
   35.7820   20.7210   35.0960 C   0  0  0  0  0  0  0  0  0  0  0  0
   35.5560   20.4320   33.7300 C   0  0  0  0  0  0  0  0  0  0  0  0
   36.4450   20.9870   32.7970 C   0  0  0  0  0  0  0  0  0  0  0  0
   37.4580   21.7590   33.2400 N   0  0  0  0  0  0  0  0  0  0  0  0
   37.6330   22.0050   34.5580 C   0  0  0  0  0  0  0  0  0  0  0  0
   36.8160   21.5010   35.4830 N   0  0  0  0  0  0  0  0  0  0  0  0
   35.0730   20.2730   35.7810 H   0  0  0  0  0  0  0  0  0  0  0  0
   34.7410   19.8140   33.3960 H   0  0  0  0  0  0  0  0  0  0  0  0
   36.3480   20.8190   31.7380 H   0  0  0  0  0  0  0  0  0  0  0  0
   38.7650   23.0660   36.5040 C   0  0  0  0  0  0  0  0  0  0  0  0
   39.6990   22.4690   37.3600 C   0  0  0  0  0  0  0  0  0  0  0  0
   40.4830   21.7860   37.0700 H   0  0  0  0  0  0  0  0  0  0  0  0
   39.4040   22.9300   38.5900 N   0  0  0  0  0  0  0  0  0  0  0  0
   39.8910   22.7010   39.4850 H   0  0  0  0  0  0  0  0  0  0  0  0
   38.3590   23.7670   38.5590 C   0  0  0  0  0  0  0  0  0  0  0  0
   37.8350   24.3260   39.3220 H   0  0  0  0  0  0  0  0  0  0  0  0
   37.9880   23.8300   37.2670 N   0  0  0  0  0  0  0  0  0  0  0  0
  1 12  1  0  0  0  0
  2  1  2  0  0  0  0
  3  8  1  0  0  0  0
  3  9  1  0  0  0  0
  4  3  2  0  0  0  0
  5  6  2  0  0  0  0
  5  4  1  0  0  0  0
  6  7  1  0  0  0  0
  7  1  1  0  0  0  0
  7  8  2  0  0  0  0
 10  4  1  0  0  0  0
 11  5  1  0  0  0  0
 12 19  1  0  0  0  0
 12 13  2  0  0  0  0
 13 15  1  0  0  0  0
 14 13  1  0  0  0  0
 15 16  1  0  0  0  0
 17 15  1  0  0  0  0
 17 18  1  0  0  0  0
 19 17  2  0  0  0  0
M  END
>  <minimizedAffinity>
-4.03804684

$$$$

 OpenBabel03272508433D

 19 20  0  0  0  0  0  0  0  0999 V2000
   39.0810   23.9690   35.1010 C   0  0  0  0  0  0  0  0  0  0  0  0
   40.0150   24.7400   34.7880 O   0  0  0  0  0  0  0  0  0  0  0  0
   36.9580   23.6480   32.1810 C   0  0  0  0  0  0  0  0  0  0  0  0
   36.4570   22.3280   32.2680 C   0  0  0  0  0  0  0  0  0  0  0  0
   36.8720   21.5510   33.3610 C   0  0  0  0  0  0  0  0  0  0  0  0
   37.7160   22.0930   34.2630 N   0  0  0  0  0  0  0  0  0  0  0  0
   38.1660   23.3610   34.1350 C   0  0  0  0  0  0  0  0  0  0  0  0
   37.8020   24.1380   33.1150 N   0  0  0  0  0  0  0  0  0  0  0  0
   36.6130   24.2110   31.3220 H   0  0  0  0  0  0  0  0  0  0  0  0
   35.7850   21.9140   31.5380 H   0  0  0  0  0  0  0  0  0  0  0  0
   36.5400   20.5370   33.5060 H   0  0  0  0  0  0  0  0  0  0  0  0
   38.8680   23.6370   36.5070 C   0  0  0  0  0  0  0  0  0  0  0  0
   39.7500   22.8580   37.2660 C   0  0  0  0  0  0  0  0  0  0  0  0
   40.6720   22.4170   36.9160 H   0  0  0  0  0  0  0  0  0  0  0  0
   39.2010   22.7880   38.4930 N   0  0  0  0  0  0  0  0  0  0  0  0
   39.5810   22.2870   39.3280 H   0  0  0  0  0  0  0  0  0  0  0  0
   38.0480   23.4650   38.5510 C   0  0  0  0  0  0  0  0  0  0  0  0
   37.3300   23.6400   39.3400 H   0  0  0  0  0  0  0  0  0  0  0  0
   37.8690   23.9750   37.3190 N   0  0  0  0  0  0  0  0  0  0  0  0
  1 12  1  0  0  0  0
  2  1  2  0  0  0  0
  3  4  2  0  0  0  0
  3  8  1  0  0  0  0
  4  5  1  0  0  0  0
  5 11  1  0  0  0  0
  5  6  2  0  0  0  0
  7  6  1  0  0  0  0
  7  1  1  0  0  0  0
  8  7  2  0  0  0  0
  9  3  1  0  0  0  0
 10  4  1  0  0  0  0
 12 13  2  0  0  0  0
 12 19  1  0  0  0  0
 13 15  1  0  0  0  0
 14 13  1  0  0  0  0
 15 17  1  0  0  0  0
 15 16  1  0  0  0  0
 17 18  1  0  0  0  0
 19 17  2  0  0  0  0
M  END
>  <minimizedAffinity>
-3.8883028

$$$$

 OpenBabel03272508433D

 19 20  0  0  0  0  0  0  0  0999 V2000
   38.2310   23.3840   35.0330 C   0  0  0  0  0  0  0  0  0  0  0  0
   37.7820   22.3890   34.4200 O   0  0  0  0  0  0  0  0  0  0  0  0
   37.7620   26.1840   32.7800 C   0  0  0  0  0  0  0  0  0  0  0  0
   38.7300   27.1240   33.2000 C   0  0  0  0  0  0  0  0  0  0  0  0
   39.5500   26.7670   34.2820 C   0  0  0  0  0  0  0  0  0  0  0  0
   39.3770   25.5610   34.8610 N   0  0  0  0  0  0  0  0  0  0  0  0
   38.4360   24.6960   34.4210 C   0  0  0  0  0  0  0  0  0  0  0  0
   37.6330   24.9880   33.3980 N   0  0  0  0  0  0  0  0  0  0  0  0
   37.1510   26.5000   31.9430 H   0  0  0  0  0  0  0  0  0  0  0  0
   38.8530   28.0820   32.7250 H   0  0  0  0  0  0  0  0  0  0  0  0
   40.3140   27.4210   34.6670 H   0  0  0  0  0  0  0  0  0  0  0  0
   38.5800   23.2550   36.4450 C   0  0  0  0  0  0  0  0  0  0  0  0
   39.7010   22.5570   36.9100 C   0  0  0  0  0  0  0  0  0  0  0  0
   40.4280   22.0410   36.3000 H   0  0  0  0  0  0  0  0  0  0  0  0
   39.6650   22.6730   38.2510 N   0  0  0  0  0  0  0  0  0  0  0  0
   40.3460   22.2780   38.9380 H   0  0  0  0  0  0  0  0  0  0  0  0
   38.6080   23.3900   38.6500 C   0  0  0  0  0  0  0  0  0  0  0  0
   38.2420   23.6940   39.6210 H   0  0  0  0  0  0  0  0  0  0  0  0
   37.9600   23.7330   37.5220 N   0  0  0  0  0  0  0  0  0  0  0  0
  1 12  1  0  0  0  0
  2  1  2  0  0  0  0
  3  4  2  0  0  0  0
  3  8  1  0  0  0  0
  4  5  1  0  0  0  0
  5 11  1  0  0  0  0
  5  6  2  0  0  0  0
  7  6  1  0  0  0  0
  7  1  1  0  0  0  0
  8  7  2  0  0  0  0
  9  3  1  0  0  0  0
 10  4  1  0  0  0  0
 12 13  2  0  0  0  0
 12 19  1  0  0  0  0
 13 15  1  0  0  0  0
 14 13  1  0  0  0  0
 15 17  1  0  0  0  0
 15 16  1  0  0  0  0
 17 18  1  0  0  0  0
 19 17  2  0  0  0  0
M  END
>  <minimizedAffinity>
-3.87426567

$$$$

 OpenBabel03272508433D

 19 20  0  0  0  0  0  0  0  0999 V2000
   37.3660   27.3460   32.4860 C   0  0  0  0  0  0  0  0  0  0  0  0
   37.4530   28.3890   31.8010 O   0  0  0  0  0  0  0  0  0  0  0  0
   34.9120   25.2360   30.8540 C   0  0  0  0  0  0  0  0  0  0  0  0
   35.3450   23.9220   31.1460 C   0  0  0  0  0  0  0  0  0  0  0  0
   36.5070   23.7830   31.9210 C   0  0  0  0  0  0  0  0  0  0  0  0
   37.1460   24.8930   32.3440 N   0  0  0  0  0  0  0  0  0  0  0  0
   36.6910   26.1290   32.0380 C   0  0  0  0  0  0  0  0  0  0  0  0
   35.5920   26.3130   31.3050 N   0  0  0  0  0  0  0  0  0  0  0  0
   34.0120   25.2970   30.2540 H   0  0  0  0  0  0  0  0  0  0  0  0
   34.8220   23.0480   30.7990 H   0  0  0  0  0  0  0  0  0  0  0  0
   36.9080   22.8210   32.1920 H   0  0  0  0  0  0  0  0  0  0  0  0
   37.9660   27.3140   33.8170 C   0  0  0  0  0  0  0  0  0  0  0  0
   37.2860   27.6750   34.9870 C   0  0  0  0  0  0  0  0  0  0  0  0
   36.2630   28.0130   35.0490 H   0  0  0  0  0  0  0  0  0  0  0  0
   38.1760   27.5090   35.9840 N   0  0  0  0  0  0  0  0  0  0  0  0
   38.0230   27.6820   37.0030 H   0  0  0  0  0  0  0  0  0  0  0  0
   39.3530   27.0710   35.5190 C   0  0  0  0  0  0  0  0  0  0  0  0
   40.2920   26.8260   35.9950 H   0  0  0  0  0  0  0  0  0  0  0  0
   39.1950   26.9620   34.1880 N   0  0  0  0  0  0  0  0  0  0  0  0
  1 12  1  0  0  0  0
  2  1  2  0  0  0  0
  3  4  2  0  0  0  0
  3  8  1  0  0  0  0
  4  5  1  0  0  0  0
  5 11  1  0  0  0  0
  5  6  2  0  0  0  0
  7  6  1  0  0  0  0
  7  1  1  0  0  0  0
  8  7  2  0  0  0  0
  9  3  1  0  0  0  0
 10  4  1  0  0  0  0
 12 19  1  0  0  0  0
 12 13  2  0  0  0  0
 13 14  1  0  0  0  0
 13 15  1  0  0  0  0
 15 16  1  0  0  0  0
 17 15  1  0  0  0  0
 17 18  1  0  0  0  0
 19 17  2  0  0  0  0
M  END
>  <minimizedAffinity>
-3.78770399

$$$$

 OpenBabel03272508433D

 19 20  0  0  0  0  0  0  0  0999 V2000
   39.6750   23.1980   34.7710 C   0  0  0  0  0  0  0  0  0  0  0  0
   39.4560   22.5830   33.7030 O   0  0  0  0  0  0  0  0  0  0  0  0
   40.0450   26.7950   35.0150 C   0  0  0  0  0  0  0  0  0  0  0  0
   38.7590   27.2440   35.3930 C   0  0  0  0  0  0  0  0  0  0  0  0
   37.7600   26.2730   35.5620 C   0  0  0  0  0  0  0  0  0  0  0  0
   38.0700   24.9760   35.3580 N   0  0  0  0  0  0  0  0  0  0  0  0
   39.3160   24.5970   34.9970 C   0  0  0  0  0  0  0  0  0  0  0  0
   40.2990   25.4810   34.8240 N   0  0  0  0  0  0  0  0  0  0  0  0
   40.7850   27.5770   34.8960 H   0  0  0  0  0  0  0  0  0  0  0  0
   38.5310   28.2840   35.5510 H   0  0  0  0  0  0  0  0  0  0  0  0
   36.7530   26.5250   35.8490 H   0  0  0  0  0  0  0  0  0  0  0  0
   40.3280   22.5000   35.8750 C   0  0  0  0  0  0  0  0  0  0  0  0
   39.8250   22.4670   37.1820 C   0  0  0  0  0  0  0  0  0  0  0  0
   38.9180   22.9400   37.5270 H   0  0  0  0  0  0  0  0  0  0  0  0
   40.7070   21.7320   37.8860 N   0  0  0  0  0  0  0  0  0  0  0  0
   40.6600   21.4920   38.9020 H   0  0  0  0  0  0  0  0  0  0  0  0
   41.7150   21.3080   37.1150 C   0  0  0  0  0  0  0  0  0  0  0  0
   42.5950   20.7100   37.3080 H   0  0  0  0  0  0  0  0  0  0  0  0
   41.4570   21.7940   35.8870 N   0  0  0  0  0  0  0  0  0  0  0  0
  1  7  1  0  0  0  0
  1 12  1  0  0  0  0
  2  1  2  0  0  0  0
  3  4  1  0  0  0  0
  4 10  1  0  0  0  0
  4  5  2  0  0  0  0
  5 11  1  0  0  0  0
  6  5  1  0  0  0  0
  7  6  2  0  0  0  0
  8  7  1  0  0  0  0
  8  3  2  0  0  0  0
  9  3  1  0  0  0  0
 12 19  1  0  0  0  0
 12 13  2  0  0  0  0
 13 14  1  0  0  0  0
 13 15  1  0  0  0  0
 15 16  1  0  0  0  0
 17 18  1  0  0  0  0
 17 15  1  0  0  0  0
 19 17  2  0  0  0  0
M  END
>  <minimizedAffinity>
-3.78268242

$$$$

 OpenBabel03272508433D

 19 20  0  0  0  0  0  0  0  0999 V2000
   38.2590   24.1980   35.3430 C   0  0  0  0  0  0  0  0  0  0  0  0
   37.9640   25.4080   35.4620 O   0  0  0  0  0  0  0  0  0  0  0  0
   37.6170   23.3430   31.8790 C   0  0  0  0  0  0  0  0  0  0  0  0
   37.3010   21.9660   31.9220 C   0  0  0  0  0  0  0  0  0  0  0  0
   37.3160   21.3390   33.1770 C   0  0  0  0  0  0  0  0  0  0  0  0
   37.6260   22.0700   34.2680 N   0  0  0  0  0  0  0  0  0  0  0  0
   37.9200   23.3860   34.1750 C   0  0  0  0  0  0  0  0  0  0  0  0
   37.9200   24.0270   33.0060 N   0  0  0  0  0  0  0  0  0  0  0  0
   37.5940   23.7870   30.8910 H   0  0  0  0  0  0  0  0  0  0  0  0
   37.0560   21.3990   31.0410 H   0  0  0  0  0  0  0  0  0  0  0  0
   37.0870   20.2940   33.3030 H   0  0  0  0  0  0  0  0  0  0  0  0
   38.9870   23.5310   36.4190 C   0  0  0  0  0  0  0  0  0  0  0  0
   38.4570   23.3100   37.6970 C   0  0  0  0  0  0  0  0  0  0  0  0
   37.4730   23.5960   38.0360 H   0  0  0  0  0  0  0  0  0  0  0  0
   39.4280   22.6770   38.3820 N   0  0  0  0  0  0  0  0  0  0  0  0
   39.3920   22.3510   39.3740 H   0  0  0  0  0  0  0  0  0  0  0  0
   40.5160   22.4890   37.6250 C   0  0  0  0  0  0  0  0  0  0  0  0
   41.4790   22.0320   37.8110 H   0  0  0  0  0  0  0  0  0  0  0  0
   40.2170   23.0240   36.4270 N   0  0  0  0  0  0  0  0  0  0  0  0
  1  2  2  0  0  0  0
  1 12  1  0  0  0  0
  3  4  2  0  0  0  0
  3  8  1  0  0  0  0
  4  5  1  0  0  0  0
  5 11  1  0  0  0  0
  5  6  2  0  0  0  0
  7  6  1  0  0  0  0
  7  1  1  0  0  0  0
  8  7  2  0  0  0  0
  9  3  1  0  0  0  0
 10  4  1  0  0  0  0
 12 19  1  0  0  0  0
 12 13  2  0  0  0  0
 13 14  1  0  0  0  0
 13 15  1  0  0  0  0
 15 16  1  0  0  0  0
 17 18  1  0  0  0  0
 17 15  1  0  0  0  0
 19 17  2  0  0  0  0
M  END
>  <minimizedAffinity>
-3.68209457

$$$$

 OpenBabel03272508433D

 19 20  0  0  0  0  0  0  0  0999 V2000
   38.5440   23.9110   33.7170 C   0  0  0  0  0  0  0  0  0  0  0  0
   39.7510   23.9390   33.3860 O   0  0  0  0  0  0  0  0  0  0  0  0
   36.1340   25.7460   31.7280 C   0  0  0  0  0  0  0  0  0  0  0  0
   35.3850   24.7350   31.0840 C   0  0  0  0  0  0  0  0  0  0  0  0
   35.7340   23.4020   31.3520 C   0  0  0  0  0  0  0  0  0  0  0  0
   36.7520   23.1540   32.2020 N   0  0  0  0  0  0  0  0  0  0  0  0
   37.4380   24.1570   32.7940 C   0  0  0  0  0  0  0  0  0  0  0  0
   37.1450   25.4380   32.5710 N   0  0  0  0  0  0  0  0  0  0  0  0
   35.8310   26.7590   31.4930 H   0  0  0  0  0  0  0  0  0  0  0  0
   34.5760   24.9540   30.4090 H   0  0  0  0  0  0  0  0  0  0  0  0
   35.2170   22.5700   30.9060 H   0  0  0  0  0  0  0  0  0  0  0  0
   38.1920   23.6170   35.1040 C   0  0  0  0  0  0  0  0  0  0  0  0
   38.0580   22.3210   35.6160 C   0  0  0  0  0  0  0  0  0  0  0  0
   38.1960   21.4020   35.0650 H   0  0  0  0  0  0  0  0  0  0  0  0
   37.7300   22.4790   36.9120 N   0  0  0  0  0  0  0  0  0  0  0  0
   37.5490   21.7280   37.6150 H   0  0  0  0  0  0  0  0  0  0  0  0
   37.6500   23.7750   37.2400 C   0  0  0  0  0  0  0  0  0  0  0  0
   37.4170   24.2930   38.1590 H   0  0  0  0  0  0  0  0  0  0  0  0
   37.9380   24.4490   36.1120 N   0  0  0  0  0  0  0  0  0  0  0  0
  1 12  1  0  0  0  0
  2  1  2  0  0  0  0
  3  8  1  0  0  0  0
  4  5  1  0  0  0  0
  4  3  2  0  0  0  0
  5  6  2  0  0  0  0
  6  7  1  0  0  0  0
  7  1  1  0  0  0  0
  8  7  2  0  0  0  0
  9  3  1  0  0  0  0
 10  4  1  0  0  0  0
 11  5  1  0  0  0  0
 12 13  2  0  0  0  0
 12 19  1  0  0  0  0
 13 15  1  0  0  0  0
 14 13  1  0  0  0  0
 15 17  1  0  0  0  0
 15 16  1  0  0  0  0
 17 18  1  0  0  0  0
 19 17  2  0  0  0  0
M  END
>  <minimizedAffinity>
-3.67957783

$$$$

 OpenBabel03272508433D

 19 20  0  0  0  0  0  0  0  0999 V2000
   38.1350   26.0430   35.7640 C   0  0  0  0  0  0  0  0  0  0  0  0
   38.3940   27.0120   36.5120 O   0  0  0  0  0  0  0  0  0  0  0  0
   36.5170   27.5820   32.9090 C   0  0  0  0  0  0  0  0  0  0  0  0
   36.4240   26.5340   31.9650 C   0  0  0  0  0  0  0  0  0  0  0  0
   36.9350   25.2810   32.3380 C   0  0  0  0  0  0  0  0  0  0  0  0
   37.4830   25.1390   33.5630 N   0  0  0  0  0  0  0  0  0  0  0  0
   37.5470   26.1730   34.4310 C   0  0  0  0  0  0  0  0  0  0  0  0
   37.0760   27.3820   34.1230 N   0  0  0  0  0  0  0  0  0  0  0  0
   36.1110   28.5310   32.5790 H   0  0  0  0  0  0  0  0  0  0  0  0
   35.9850   26.6670   30.9920 H   0  0  0  0  0  0  0  0  0  0  0  0
   36.9060   24.4280   31.6830 H   0  0  0  0  0  0  0  0  0  0  0  0
   38.4280   24.6880   36.2240 C   0  0  0  0  0  0  0  0  0  0  0  0
   37.5550   23.9270   37.0110 C   0  0  0  0  0  0  0  0  0  0  0  0
   36.5840   24.2380   37.3670 H   0  0  0  0  0  0  0  0  0  0  0  0
   38.1860   22.7560   37.2160 N   0  0  0  0  0  0  0  0  0  0  0  0
   37.8370   21.9370   37.7630 H   0  0  0  0  0  0  0  0  0  0  0  0
   39.3810   22.7340   36.6140 C   0  0  0  0  0  0  0  0  0  0  0  0
   40.1650   21.9920   36.5490 H   0  0  0  0  0  0  0  0  0  0  0  0
   39.5030   23.9320   36.0140 N   0  0  0  0  0  0  0  0  0  0  0  0
  1 12  1  0  0  0  0
  1  2  2  0  0  0  0
  3  8  1  0  0  0  0
  4  5  1  0  0  0  0
  4  3  2  0  0  0  0
  5  6  2  0  0  0  0
  6  7  1  0  0  0  0
  7  1  1  0  0  0  0
  8  7  2  0  0  0  0
  9  3  1  0  0  0  0
 10  4  1  0  0  0  0
 11  5  1  0  0  0  0
 12 13  2  0  0  0  0
 13 15  1  0  0  0  0
 13 14  1  0  0  0  0
 15 16  1  0  0  0  0
 17 15  1  0  0  0  0
 18 17  1  0  0  0  0
 19 12  1  0  0  0  0
 19 17  2  0  0  0  0
M  END
>  <minimizedAffinity>
-3.67408681

$$$$

 OpenBabel03272508433D

 19 20  0  0  0  0  0  0  0  0999 V2000
   37.7840   24.6190   32.6880 C   0  0  0  0  0  0  0  0  0  0  0  0
   38.3110   23.4990   32.5050 O   0  0  0  0  0  0  0  0  0  0  0  0
   39.9470   26.5350   34.8750 C   0  0  0  0  0  0  0  0  0  0  0  0
   39.0490   27.2600   35.6920 C   0  0  0  0  0  0  0  0  0  0  0  0
   37.6770   27.0720   35.4680 C   0  0  0  0  0  0  0  0  0  0  0  0
   37.2850   26.2190   34.4980 N   0  0  0  0  0  0  0  0  0  0  0  0
   38.1840   25.5480   33.7440 C   0  0  0  0  0  0  0  0  0  0  0  0
   39.4980   25.6930   33.9180 N   0  0  0  0  0  0  0  0  0  0  0  0
   40.9960   26.7100   35.0820 H   0  0  0  0  0  0  0  0  0  0  0  0
   39.3810   27.9360   36.4600 H   0  0  0  0  0  0  0  0  0  0  0  0
   36.9230   27.5830   36.0420 H   0  0  0  0  0  0  0  0  0  0  0  0
   36.7000   25.0500   31.8090 C   0  0  0  0  0  0  0  0  0  0  0  0
   36.7550   26.1980   31.0100 C   0  0  0  0  0  0  0  0  0  0  0  0
   37.5830   26.8890   30.9450 H   0  0  0  0  0  0  0  0  0  0  0  0
   35.5760   26.2400   30.3610 N   0  0  0  0  0  0  0  0  0  0  0  0
   35.2580   26.9610   29.6750 H   0  0  0  0  0  0  0  0  0  0  0  0
   34.7970   25.2060   30.6980 C   0  0  0  0  0  0  0  0  0  0  0  0
   33.8040   24.8980   30.4010 H   0  0  0  0  0  0  0  0  0  0  0  0
   35.5110   24.4930   31.5880 N   0  0  0  0  0  0  0  0  0  0  0  0
  1  7  1  0  0  0  0
  2  1  2  0  0  0  0
  3  9  1  0  0  0  0
  3  4  1  0  0  0  0
  4 10  1  0  0  0  0
  5  4  2  0  0  0  0
  5 11  1  0  0  0  0
  6  5  1  0  0  0  0
  7  8  1  0  0  0  0
  7  6  2  0  0  0  0
  8  3  2  0  0  0  0
 12  1  1  0  0  0  0
 13 12  2  0  0  0  0
 14 13  1  0  0  0  0
 15 17  1  0  0  0  0
 15 13  1  0  0  0  0
 16 15  1  0  0  0  0
 17 19  2  0  0  0  0
 18 17  1  0  0  0  0
 19 12  1  0  0  0  0
M  END
>  <minimizedAffinity>
-3.63029718

$$$$
