REMARK  Name = 
REMARK  5 active torsions:
REMARK  status: ('A' for Active; 'I' for Inactive)
REMARK    1  A    between atoms: C_1  and  C_16
REMARK    2  A    between atoms: C_3  and  C_4
REMARK    3  A    between atoms: C_18  and  C_20
REMARK    4  A    between atoms: C_20  and  C_21
REMARK    5  A    between atoms: C_21  and  C_39
REMARK                            x       y       z     vdW  Elec       q    Type
REMARK                         _______ _______ _______ _____ _____    ______ ____
ROOT
ATOM      1  C   UNL     1      36.950  31.386  47.391  0.00  0.00    +0.000 C 
ATOM      2  C   UNL     1      38.136  31.990  48.050  0.00  0.00    +0.000 C 
ATOM      3  C   UNL     1      38.446  30.888  47.162  0.00  0.00    +0.000 C 
ATOM      4  H   UNL     1      36.484  31.759  46.489  0.00  0.00    +0.000 HD
ATOM      5  H   UNL     1      38.229  31.746  49.153  0.00  0.00    +0.000 HD
ATOM      6  H   UNL     1      38.140  33.062  47.907  0.00  0.00    +0.000 HD
ATOM      7  H   UNL     1      38.459  29.817  47.319  0.00  0.00    +0.000 HD
ENDROOT
BRANCH   3   8
ATOM      8  C   UNL     1      39.124  31.378  45.914  0.00  0.00    +0.000 A 
ATOM      9  C   UNL     1      39.617  32.667  46.098  0.00  0.00    +0.000 A 
ATOM     10  C   UNL     1      40.366  33.267  45.120  0.00  0.00    +0.000 A 
ATOM     11  C   UNL     1      40.651  32.601  43.921  0.00  0.00    +0.000 A 
ATOM     12  C   UNL     1      40.148  31.316  43.766  0.00  0.00    +0.000 A 
ATOM     13  C   UNL     1      40.349  30.568  42.640  0.00  0.00    +0.000 A 
ATOM     14  C   UNL     1      39.850  29.303  42.468  0.00  0.00    +0.000 A 
ATOM     15  C   UNL     1      39.096  28.747  43.494  0.00  0.00    +0.000 A 
ATOM     16  C   UNL     1      38.890  29.494  44.631  0.00  0.00    +0.000 A 
ATOM     17  C   UNL     1      39.415  30.768  44.758  0.00  0.00    +0.000 A 
ATOM     18  H   UNL     1      39.590  33.407  46.872  0.00  0.00    +0.000 HD
ATOM     19  H   UNL     1      40.824  34.244  45.082  0.00  0.00    +0.000 HD
ATOM     20  H   UNL     1      41.228  32.952  43.066  0.00  0.00    +0.000 HD
ATOM     21  H   UNL     1      40.929  30.961  41.817  0.00  0.00    +0.000 HD
ATOM     22  H   UNL     1      40.009  28.717  41.583  0.00  0.00    +0.000 HD
ATOM     23  H   UNL     1      38.666  27.758  43.441  0.00  0.00    +0.000 HD
ATOM     24  H   UNL     1      38.289  29.039  45.438  0.00  0.00    +0.000 HD
ENDBRANCH   3   8
BRANCH   1  27
ATOM     25  C   UNL     1      34.434  28.755  48.382  0.00  0.00    +0.000 A 
ATOM     26  C   UNL     1      35.178  29.677  47.591  0.00  0.00    +0.000 A 
ATOM     27  C   UNL     1      36.162  30.409  48.187  0.00  0.00    +0.000 A 
ATOM     28  N   UNL     1      36.358  30.189  49.536  0.00  0.00    +0.000 NA
ATOM     29  C   UNL     1      35.653  29.323  50.264  0.00  0.00    +0.000 A 
ATOM     30  N   UNL     1      34.680  28.590  49.706  0.00  0.00    +0.000 NA
ATOM     31  H   UNL     1      33.660  28.191  47.876  0.00  0.00    +0.000 HD
ATOM     32  H   UNL     1      34.921  29.752  46.538  0.00  0.00    +0.000 HD
BRANCH  29  33
ATOM     33  C   UNL     1      35.994  29.208  51.735  0.00  0.00    +0.000 C 
ATOM     34  H   UNL     1      35.212  29.821  52.253  0.00  0.00    +0.000 HD
ATOM     35  H   UNL     1      36.024  28.166  52.055  0.00  0.00    +0.000 HD
BRANCH  33  36
ATOM     36  C   UNL     1      37.326  29.934  51.940  0.00  0.00    +0.000 C 
ATOM     37  H   UNL     1      38.068  29.485  51.249  0.00  0.00    +0.000 HD
ATOM     38  H   UNL     1      37.132  30.985  51.606  0.00  0.00    +0.000 HD
BRANCH  36  39
ATOM     39  C   UNL     1      37.766  29.891  53.339  0.00  0.00    +0.000 A 
ATOM     40  C   UNL     1      38.565  28.934  53.972  0.00  0.00    +0.000 A 
ATOM     41  H   UNL     1      38.993  28.057  53.521  0.00  0.00    +0.000 HD
ATOM     42  N   UNL     1      38.659  29.369  55.238  0.00  0.00    +0.000 N 
ATOM     43  H   UNL     1      39.224  28.811  55.943  0.00  0.00    +0.000 HD
ATOM     44  C   UNL     1      37.993  30.511  55.457  0.00  0.00    +0.000 A 
ATOM     45  H   UNL     1      37.936  31.036  56.406  0.00  0.00    +0.000 HD
ATOM     46  N   UNL     1      37.456  30.803  54.269  0.00  0.00    +0.000 NA
ENDBRANCH  36  39
ENDBRANCH  33  36
ENDBRANCH  29  33
ENDBRANCH   1  27
TORSDOF 5
