
 OpenBabel03272510083D

 43 47  0  0  0  0  0  0  0  0999 V2000
   36.3180   30.0890   48.2770 C   0  0  0  0  0  0  0  0  0  0  0  0
   36.9350   30.3140   49.4680 N   0  0  0  0  0  0  0  0  0  0  0  0
   38.0490   31.0610   49.5070 C   0  0  0  0  0  0  0  0  0  0  0  0
   38.6360   31.6320   48.4200 N   0  0  0  0  0  0  0  0  0  0  0  0
   38.0530   31.4310   47.2200 C   0  0  0  0  0  0  0  0  0  0  0  0
   38.5470   31.9960   46.0570 C   0  0  0  0  0  0  0  0  0  0  0  0
   37.8980   31.7950   44.8400 C   0  0  0  0  0  0  0  0  0  0  0  0
   36.7410   31.0150   44.8070 C   0  0  0  0  0  0  0  0  0  0  0  0
   36.2770   30.4670   45.9870 C   0  0  0  0  0  0  0  0  0  0  0  0
   36.9070   30.6630   47.1800 C   0  0  0  0  0  0  0  0  0  0  0  0
   38.5610   31.2550   50.4470 H   0  0  0  0  0  0  0  0  0  0  0  0
   39.4460   32.5830   46.1710 H   0  0  0  0  0  0  0  0  0  0  0  0
   38.3760   32.2830   44.0250 H   0  0  0  0  0  0  0  0  0  0  0  0
   36.3960   30.9820   43.7940 H   0  0  0  0  0  0  0  0  0  0  0  0
   35.0040   27.9090   48.2850 C   0  0  0  0  0  0  0  0  0  0  0  0
   35.1300   29.3140   48.3410 C   0  0  0  0  0  0  0  0  0  0  0  0
   33.9420   30.0980   48.4650 C   0  0  0  0  0  0  0  0  0  0  0  0
   32.7370   29.4770   48.5180 N   0  0  0  0  0  0  0  0  0  0  0  0
   32.6840   28.1130   48.4550 C   0  0  0  0  0  0  0  0  0  0  0  0
   33.7790   27.3510   48.3430 N   0  0  0  0  0  0  0  0  0  0  0  0
   31.3720   27.5050   48.4920 N   0  0  0  0  0  0  0  0  0  0  0  0
   30.4610   27.6210   49.5960 C   0  0  0  0  0  0  0  0  0  0  0  0
   29.1680   27.0710   49.0790 C   0  0  0  0  0  0  0  0  0  0  0  0
   29.3430   26.8600   47.5840 C   0  0  0  0  0  0  0  0  0  0  0  0
   30.7940   26.6890   47.4090 C   0  0  0  0  0  0  0  0  0  0  0  0
   35.9340   27.3860   48.1970 H   0  0  0  0  0  0  0  0  0  0  0  0
   33.9380   31.1590   48.5180 H   0  0  0  0  0  0  0  0  0  0  0  0
   30.3130   28.6650   49.9510 H   0  0  0  0  0  0  0  0  0  0  0  0
   30.8550   27.0330   50.4700 H   0  0  0  0  0  0  0  0  0  0  0  0
   28.3460   27.7980   49.2710 H   0  0  0  0  0  0  0  0  0  0  0  0
   28.9330   26.1470   49.6210 H   0  0  0  0  0  0  0  0  0  0  0  0
   28.7180   25.9600   47.3170 H   0  0  0  0  0  0  0  0  0  0  0  0
   28.9030   27.7070   47.0400 H   0  0  0  0  0  0  0  0  0  0  0  0
   31.1320   25.6510   47.5020 H   0  0  0  0  0  0  0  0  0  0  0  0
   31.1110   27.0930   46.4050 H   0  0  0  0  0  0  0  0  0  0  0  0
   35.0740   29.7400   45.5820 C   0  0  0  0  0  0  0  0  0  0  0  0
   34.7950   28.4540   45.1670 C   0  0  0  0  0  0  0  0  0  0  0  0
   35.5810   27.6970   45.1530 H   0  0  0  0  0  0  0  0  0  0  0  0
   33.5370   28.2490   44.7810 N   0  0  0  0  0  0  0  0  0  0  0  0
   33.1590   27.3410   44.4420 H   0  0  0  0  0  0  0  0  0  0  0  0
   32.9870   29.4570   44.9550 C   0  0  0  0  0  0  0  0  0  0  0  0
   31.9400   29.6860   44.7390 H   0  0  0  0  0  0  0  0  0  0  0  0
   33.8560   30.3610   45.4230 N   0  0  0  0  0  0  0  0  0  0  0  0
  1 16  1  0  0  0  0
  1  2  1  0  0  0  0
  2  3  2  0  0  0  0
  3 11  1  0  0  0  0
  4  3  1  0  0  0  0
  5  4  2  0  0  0  0
  6 12  1  0  0  0  0
  6  5  1  0  0  0  0
  7  6  2  0  0  0  0
  8  7  1  0  0  0  0
  8  9  2  0  0  0  0
  9 10  1  0  0  0  0
 10  5  1  0  0  0  0
 10  1  2  0  0  0  0
 13  7  1  0  0  0  0
 14  8  1  0  0  0  0
 15 16  2  0  0  0  0
 15 20  1  0  0  0  0
 16 17  1  0  0  0  0
 17 27  1  0  0  0  0
 17 18  2  0  0  0  0
 19 21  1  0  0  0  0
 19 18  1  0  0  0  0
 20 19  2  0  0  0  0
 21 22  1  0  0  0  0
 22 28  1  0  0  0  0
 22 29  1  0  0  0  0
 23 30  1  0  0  0  0
 23 22  1  0  0  0  0
 23 31  1  0  0  0  0
 24 23  1  0  0  0  0
 25 34  1  0  0  0  0
 25 24  1  0  0  0  0
 25 21  1  0  0  0  0
 26 15  1  0  0  0  0
 32 24  1  0  0  0  0
 33 24  1  0  0  0  0
 35 25  1  0  0  0  0
 36  9  1  0  0  0  0
 37 36  2  0  0  0  0
 38 37  1  0  0  0  0
 39 41  1  0  0  0  0
 39 37  1  0  0  0  0
 40 39  1  0  0  0  0
 41 43  2  0  0  0  0
 42 41  1  0  0  0  0
 43 36  1  0  0  0  0
M  END
>  <minimizedAffinity>
-3.99163485

>  <minimizedRMSD>
2.02410793

$$$$
