
 OpenBabel03272509293D

 37 39  0  0  1  0  0  0  0  0999 V2000
   36.2970   30.6950   48.9810 C   0  0  2  0  0  0  0  0  0  0  0  0
   37.2550   31.5790   49.7190 C   0  0  0  0  0  0  0  0  0  0  0  0
   38.1520   30.8140   50.6700 C   0  0  0  0  0  0  0  0  0  0  0  0
   37.3010   30.0310   51.6700 C   0  0  0  0  0  0  0  0  0  0  0  0
   36.0620   29.4200   51.0720 C   0  0  0  0  0  0  0  0  0  0  0  0
   36.2530   29.3130   49.5480 C   0  0  1  0  0  0  0  0  0  0  0  0
   35.2320   31.0950   48.9800 H   0  0  0  0  0  0  0  0  0  0  0  0
   36.5910   32.1840   50.4260 H   0  0  0  0  0  0  0  0  0  0  0  0
   37.7840   32.3210   49.1500 H   0  0  0  0  0  0  0  0  0  0  0  0
   38.8160   30.1000   50.1590 H   0  0  0  0  0  0  0  0  0  0  0  0
   38.7000   31.5740   51.2570 H   0  0  0  0  0  0  0  0  0  0  0  0
   37.9490   29.2100   52.0720 H   0  0  0  0  0  0  0  0  0  0  0  0
   36.9890   30.6950   52.5100 H   0  0  0  0  0  0  0  0  0  0  0  0
   35.8460   28.3970   51.4510 H   0  0  0  0  0  0  0  0  0  0  0  0
   35.1610   30.0460   51.2090 H   0  0  0  0  0  0  0  0  0  0  0  0
   37.2130   28.8560   49.5130 H   0  0  0  0  0  0  0  0  0  0  0  0
   36.6540   30.6050   47.5400 C   0  0  0  0  0  0  0  0  0  0  0  0
   38.0240   30.7890   47.2400 C   0  0  0  0  0  0  0  0  0  0  0  0
   38.3750   30.7030   45.8880 C   0  0  0  0  0  0  0  0  0  0  0  0
   37.4000   30.4530   44.9530 N   0  0  0  0  0  0  0  0  0  0  0  0
   36.0820   30.2810   45.3030 C   0  0  0  0  0  0  0  0  0  0  0  0
   35.7330   30.3620   46.6020 N   0  0  0  0  0  0  0  0  0  0  0  0
   38.8620   30.9780   47.8780 H   0  0  0  0  0  0  0  0  0  0  0  0
   39.3790   30.8230   45.5120 H   0  0  0  0  0  0  0  0  0  0  0  0
   35.4010   30.0890   44.4940 H   0  0  0  0  0  0  0  0  0  0  0  0
   33.9610   28.3190   49.0860 C   0  0  0  0  0  0  0  0  0  0  0  0
   33.1610   28.9860   49.8040 O   0  0  0  0  0  0  0  0  0  0  0  0
   35.3680   28.4190   48.8970 N   0  0  0  0  0  0  0  0  0  0  0  0
   35.7380   27.7220   48.1740 H   0  0  0  0  0  0  0  0  0  0  0  0
   33.1970   27.2840   48.3640 C   0  0  0  0  0  0  0  0  0  0  0  0
   31.8400   27.0840   48.3030 C   0  0  0  0  0  0  0  0  0  0  0  0
   31.0750   27.6600   48.7830 H   0  0  0  0  0  0  0  0  0  0  0  0
   31.5260   26.0130   47.5260 N   0  0  0  0  0  0  0  0  0  0  0  0
   30.5660   25.6520   47.3210 H   0  0  0  0  0  0  0  0  0  0  0  0
   32.6950   25.5290   47.0880 C   0  0  0  0  0  0  0  0  0  0  0  0
   32.8010   24.6740   46.4450 H   0  0  0  0  0  0  0  0  0  0  0  0
   33.6900   26.2840   47.5870 N   0  0  0  0  0  0  0  0  0  0  0  0
  1  7  1  1  0  0  0
  1  6  1  0  0  0  0
  1  2  1  0  0  0  0
  2  8  1  0  0  0  0
  2  3  1  0  0  0  0
  3 11  1  0  0  0  0
  3  4  1  0  0  0  0
  4 12  1  0  0  0  0
  4 13  1  0  0  0  0
  5 15  1  0  0  0  0
  5 14  1  0  0  0  0
  5  4  1  0  0  0  0
  6 16  1  6  0  0  0
  6  5  1  0  0  0  0
  9  2  1  0  0  0  0
 10  3  1  0  0  0  0
 17  1  1  0  0  0  0
 18 17  1  0  0  0  0
 18 23  1  0  0  0  0
 19 18  2  0  0  0  0
 20 21  2  0  0  0  0
 20 19  1  0  0  0  0
 21 22  1  0  0  0  0
 22 17  2  0  0  0  0
 24 19  1  0  0  0  0
 25 21  1  0  0  0  0
 26 27  2  0  0  0  0
 28 26  1  0  0  0  0
 28  6  1  0  0  0  0
 29 28  1  0  0  0  0
 30 26  1  0  0  0  0
 31 30  2  0  0  0  0
 31 32  1  0  0  0  0
 33 31  1  0  0  0  0
 34 33  1  0  0  0  0
 35 33  1  0  0  0  0
 35 37  2  0  0  0  0
 36 35  1  0  0  0  0
 37 30  1  0  0  0  0
M  END
>  <minimizedAffinity>
-5.75746918

>  <minimizedRMSD>
0.636295915

$$$$
