
     RDKit          3D

 37 39  0  0  0  0  0  0  0  0999 V2000
   36.0748   30.6896   49.0676 C   0  0  2  0  0  0  0  0  0  0  0  0
   37.0148   31.6419   49.7424 C   0  0  0  0  0  0  0  0  0  0  0  0
   38.0482   30.9428   50.6008 C   0  0  0  0  0  0  0  0  0  0  0  0
   37.3506   30.0792   51.6518 C   0  0  0  0  0  0  0  0  0  0  0  0
   36.1213   29.3740   51.1462 C   0  0  0  0  0  0  0  0  0  0  0  0
   36.1926   29.3033   49.6088 C   0  0  1  0  0  0  0  0  0  0  0  0
   36.3184   30.6489   47.6006 C   0  0  0  0  0  0  0  0  0  0  0  0
   37.5866   31.1098   47.1800 C   0  0  0  0  0  0  0  0  0  0  0  0
   37.8297   31.0731   45.8035 C   0  0  0  0  0  0  0  0  0  0  0  0
   36.8533   30.6045   44.9579 N   0  0  0  0  0  0  0  0  0  0  0  0
   35.6361   30.1673   45.4240 C   0  0  0  0  0  0  0  0  0  0  0  0
   35.3907   30.1986   46.7477 N   0  0  0  0  0  0  0  0  0  0  0  0
   33.9364   28.1966   49.2380 C   0  0  0  0  0  0  0  0  0  0  0  0
   33.1216   28.8620   49.9428 O   0  0  0  0  0  0  0  0  0  0  0  0
   35.3328   28.3455   49.0159 N   0  0  0  0  0  0  0  0  0  0  0  0
   34.9850   30.9997   49.1615 H   0  0  0  0  0  0  0  0  0  0  0  0
   36.3647   32.1807   50.5120 H   0  0  0  0  0  0  0  0  0  0  0  0
   37.4321   32.4334   49.1460 H   0  0  0  0  0  0  0  0  0  0  0  0
   38.7245   30.2938   50.0240 H   0  0  0  0  0  0  0  0  0  0  0  0
   38.5793   31.7395   51.1559 H   0  0  0  0  0  0  0  0  0  0  0  0
   38.0965   29.3106   51.9837 H   0  0  0  0  0  0  0  0  0  0  0  0
   37.0565   30.7036   52.5273 H   0  0  0  0  0  0  0  0  0  0  0  0
   36.0215   28.3324   51.5211 H   0  0  0  0  0  0  0  0  0  0  0  0
   35.1858   29.9207   51.3680 H   0  0  0  0  0  0  0  0  0  0  0  0
   37.1807   28.9280   49.4868 H   0  0  0  0  0  0  0  0  0  0  0  0
   38.4179   31.4843   47.7406 H   0  0  0  0  0  0  0  0  0  0  0  0
   38.7497   31.3927   45.3385 H   0  0  0  0  0  0  0  0  0  0  0  0
   34.9439   29.8204   44.6784 H   0  0  0  0  0  0  0  0  0  0  0  0
   35.7184   27.6325   48.3159 H   0  0  0  0  0  0  0  0  0  0  0  0
   33.2020   27.1010   48.5772 C   0  0  0  0  0  0  0  0  0  0  0  0
   33.0435   26.8393   47.2378 C   0  0  0  0  0  0  0  0  0  0  0  0
   33.4356   27.3997   46.4142 H   0  0  0  0  0  0  0  0  0  0  0  0
   32.2903   25.7256   47.0321 N   0  0  0  0  0  0  0  0  0  0  0  0
   32.0249   25.3156   46.1074 H   0  0  0  0  0  0  0  0  0  0  0  0
   31.9679   25.2766   48.2510 C   0  0  0  0  0  0  0  0  0  0  0  0
   31.3714   24.4022   48.4443 H   0  0  0  0  0  0  0  0  0  0  0  0
   32.5096   26.0938   49.1703 N   0  0  0  0  0  0  0  0  0  0  0  0
  1  6  1  0
  1  2  1  0
  2  3  1  0
  3  4  1  0
  5  4  1  0
  6  5  1  0
  7  1  1  0
  8  7  2  0
  9  8  1  0
 10 11  1  0
 10  9  2  0
 11 12  2  0
 12  7  1  0
 13 14  2  0
 15 13  1  0
 15  6  1  0
  1 16  1  6
  2 17  1  0
  2 18  1  0
  3 19  1  0
  3 20  1  0
  4 21  1  0
  4 22  1  0
  5 23  1  0
  5 24  1  0
  6 25  1  1
  8 26  1  0
  9 27  1  0
 11 28  1  0
 15 29  1  0
 30 31  2  0
 31 32  1  0
 31 33  1  0
 33 34  1  0
 33 35  1  0
 35 36  1  0
 35 37  2  0
 37 30  1  0
 13 30  1  0
M  ISO  8  16  13  17  13  18  13  19  13  20  13  21  13  22  13  23  13
M  ISO  8  24  13  25  13  26  14  27  14  28  14  32  15  34   5  36  14
M  END
>  <DihAtoms>  (1) 
13,12,29,30

>  <DihDeg>  (1) 
-0.024190036933080118

$$$$
