
 OpenBabel03272507493D

 27 29  0  0  0  0  0  0  0  0999 V2000
   35.8160   29.3150   49.0000 C   0  0  0  0  0  0  0  0  0  0  0  0
   36.0210   30.2790   47.9990 C   0  0  0  0  0  0  0  0  0  0  0  0
   35.2720   30.1890   46.8120 C   0  0  0  0  0  0  0  0  0  0  0  0
   34.3820   29.1700   46.6940 N   0  0  0  0  0  0  0  0  0  0  0  0
   34.1980   28.2620   47.6540 C   0  0  0  0  0  0  0  0  0  0  0  0
   34.9010   28.3260   48.7960 N   0  0  0  0  0  0  0  0  0  0  0  0
   35.4540   30.9460   46.0610 H   0  0  0  0  0  0  0  0  0  0  0  0
   33.4740   27.4470   47.5360 H   0  0  0  0  0  0  0  0  0  0  0  0
   36.9850   31.3080   48.2350 N   0  0  0  0  0  0  0  0  0  0  0  0
   36.8020   32.2220   49.2220 C   0  0  0  0  0  0  0  0  0  0  0  0
   37.7800   33.1980   49.4330 C   0  0  0  0  0  0  0  0  0  0  0  0
   38.8510   33.1160   48.5820 C   0  0  0  0  0  0  0  0  0  0  0  0
   39.7350   34.0130   48.7900 O   0  0  0  0  0  0  0  0  0  0  0  0
   39.0610   32.2270   47.5940 N   0  0  0  0  0  0  0  0  0  0  0  0
   38.0800   31.3070   47.4400 C   0  0  0  0  0  0  0  0  0  0  0  0
   38.2420   30.4640   46.5300 O   0  0  0  0  0  0  0  0  0  0  0  0
   35.9130   32.1910   49.8360 H   0  0  0  0  0  0  0  0  0  0  0  0
   37.6760   33.9270   50.1920 H   0  0  0  0  0  0  0  0  0  0  0  0
   39.9150   32.2500   46.9970 H   0  0  0  0  0  0  0  0  0  0  0  0
   36.5420   29.3030   50.2620 C   0  0  0  0  0  0  0  0  0  0  0  0
   37.8010   28.7810   50.4550 C   0  0  0  0  0  0  0  0  0  0  0  0
   38.4590   28.2970   49.7230 H   0  0  0  0  0  0  0  0  0  0  0  0
   38.2010   28.9200   51.7280 N   0  0  0  0  0  0  0  0  0  0  0  0
   39.1030   28.6170   52.1520 H   0  0  0  0  0  0  0  0  0  0  0  0
   37.2200   29.5280   52.3730 C   0  0  0  0  0  0  0  0  0  0  0  0
   37.1750   29.8130   53.4260 H   0  0  0  0  0  0  0  0  0  0  0  0
   36.2450   29.7480   51.4920 N   0  0  0  0  0  0  0  0  0  0  0  0
  1 20  1  0  0  0  0
  2  9  1  0  0  0  0
  2  1  2  0  0  0  0
  3  2  1  0  0  0  0
  4  3  2  0  0  0  0
  4  5  1  0  0  0  0
  5  6  2  0  0  0  0
  6  1  1  0  0  0  0
  7  3  1  0  0  0  0
  8  5  1  0  0  0  0
  9 10  1  0  0  0  0
 10 11  2  0  0  0  0
 10 17  1  0  0  0  0
 11 18  1  0  0  0  0
 12 13  2  0  0  0  0
 12 11  1  0  0  0  0
 14 12  1  0  0  0  0
 15 14  1  0  0  0  0
 15  9  1  0  0  0  0
 16 15  2  0  0  0  0
 19 14  1  0  0  0  0
 20 21  2  0  0  0  0
 20 27  1  0  0  0  0
 21 23  1  0  0  0  0
 22 21  1  0  0  0  0
 23 24  1  0  0  0  0
 23 25  1  0  0  0  0
 25 26  1  0  0  0  0
 27 25  2  0  0  0  0
M  END
>  <minimizedAffinity>
-4.74387217

>  <minimizedRMSD>
0.873303413

$$$$
