
 OpenBabel03272506493D

 33 35  0  0  1  0  0  0  0  0999 V2000
   34.6980   30.4230   48.6280 C   0  0  1  0  0  0  0  0  0  0  0  0
   33.7720   30.3410   47.5080 C   0  0  0  0  0  0  0  0  0  0  0  0
   33.5520   28.9890   46.8900 C   0  0  0  0  0  0  0  0  0  0  0  0
   33.5650   27.8440   47.8270 C   0  0  2  0  0  0  0  0  0  0  0  0
   34.5050   27.9070   48.9820 C   0  0  0  0  0  0  0  0  0  0  0  0
   34.5440   29.2740   49.5860 C   0  0  0  0  0  0  0  0  0  0  0  0
   34.4070   31.3200   49.2670 H   0  0  0  0  0  0  0  0  0  0  0  0
   33.8810   31.0550   46.6850 H   0  0  0  0  0  0  0  0  0  0  0  0
   32.7440   30.6030   47.9270 H   0  0  0  0  0  0  0  0  0  0  0  0
   32.5860   29.0000   46.3510 H   0  0  0  0  0  0  0  0  0  0  0  0
   34.3480   28.8450   46.1410 H   0  0  0  0  0  0  0  0  0  0  0  0
   32.5230   27.7410   48.2360 H   0  0  0  0  0  0  0  0  0  0  0  0
   35.5380   27.6030   48.7410 H   0  0  0  0  0  0  0  0  0  0  0  0
   34.1610   27.2190   49.7700 H   0  0  0  0  0  0  0  0  0  0  0  0
   33.4690   29.4030   49.9430 H   0  0  0  0  0  0  0  0  0  0  0  0
   35.0950   29.3470   50.5170 H   0  0  0  0  0  0  0  0  0  0  0  0
   36.6210   30.5850   46.9870 C   0  0  0  0  0  0  0  0  0  0  0  0
   36.1120   30.7130   48.3050 C   0  0  0  0  0  0  0  0  0  0  0  0
   37.0000   31.1330   49.2720 C   0  0  0  0  0  0  0  0  0  0  0  0
   38.2980   31.3990   48.9190 N   0  0  0  0  0  0  0  0  0  0  0  0
   38.7380   31.2650   47.6600 C   0  0  0  0  0  0  0  0  0  0  0  0
   37.8860   30.8520   46.6810 N   0  0  0  0  0  0  0  0  0  0  0  0
   36.0050   30.2640   46.1620 H   0  0  0  0  0  0  0  0  0  0  0  0
   36.7350   31.2650   50.2910 H   0  0  0  0  0  0  0  0  0  0  0  0
   39.7610   31.4740   47.3770 H   0  0  0  0  0  0  0  0  0  0  0  0
   33.8160   26.5850   47.0750 C   0  0  0  0  0  0  0  0  0  0  0  0
   33.9330   26.5470   45.6860 C   0  0  0  0  0  0  0  0  0  0  0  0
   33.8550   27.4110   45.0270 H   0  0  0  0  0  0  0  0  0  0  0  0
   34.1580   25.2600   45.3030 N   0  0  0  0  0  0  0  0  0  0  0  0
   34.2860   24.9290   44.3320 H   0  0  0  0  0  0  0  0  0  0  0  0
   34.1820   24.5150   46.4190 C   0  0  0  0  0  0  0  0  0  0  0  0
   34.3400   23.4380   46.4870 H   0  0  0  0  0  0  0  0  0  0  0  0
   33.9740   25.3170   47.5000 N   0  0  0  0  0  0  0  0  0  0  0  0
  1  7  1  1  0  0  0
  1  6  1  0  0  0  0
  2  9  1  0  0  0  0
  2  1  1  0  0  0  0
  3  2  1  0  0  0  0
  3  4  1  0  0  0  0
  4 12  1  1  0  0  0
  4  5  1  0  0  0  0
  5  6  1  0  0  0  0
  5 14  1  0  0  0  0
  6 15  1  0  0  0  0
  6 16  1  0  0  0  0
  8  2  1  0  0  0  0
 10  3  1  0  0  0  0
 11  3  1  0  0  0  0
 13  5  1  0  0  0  0
 17 18  1  0  0  0  0
 18  1  1  0  0  0  0
 18 19  2  0  0  0  0
 19 24  1  0  0  0  0
 20 19  1  0  0  0  0
 21 20  2  0  0  0  0
 22 17  2  0  0  0  0
 22 21  1  0  0  0  0
 23 17  1  0  0  0  0
 25 21  1  0  0  0  0
 26 33  1  0  0  0  0
 26  4  1  0  0  0  0
 27 26  2  0  0  0  0
 28 27  1  0  0  0  0
 29 27  1  0  0  0  0
 29 31  1  0  0  0  0
 30 29  1  0  0  0  0
 31 32  1  0  0  0  0
 31 33  2  0  0  0  0
M  END
>  <minimizedAffinity>
-4.3412571

>  <minimizedRMSD>
1.55876148

$$$$
