
 OpenBabel03272510133D

 40 43  0  0  0  0  0  0  0  0999 V2000
   38.1970   31.5310   48.9130 C   0  0  0  0  0  0  0  0  0  0  0  0
   38.4210   32.8130   49.4210 C   0  0  0  0  0  0  0  0  0  0  0  0
   39.1080   33.5190   48.4390 C   0  0  0  0  0  0  0  0  0  0  0  0
   39.2760   32.6930   47.4110 N   0  0  0  0  0  0  0  0  0  0  0  0
   38.7400   31.5200   47.6880 N   0  0  0  0  0  0  0  0  0  0  0  0
   38.1830   33.3290   50.3590 H   0  0  0  0  0  0  0  0  0  0  0  0
   39.4590   34.5510   48.4630 H   0  0  0  0  0  0  0  0  0  0  0  0
   39.9450   33.0300   46.1770 C   0  0  0  0  0  0  0  0  0  0  0  0
   40.1110   34.1250   46.1730 H   0  0  0  0  0  0  0  0  0  0  0  0
   40.8940   32.4620   46.1340 H   0  0  0  0  0  0  0  0  0  0  0  0
   39.0240   32.6660   45.0300 C   0  0  0  0  0  0  0  0  0  0  0  0
   38.0070   32.5570   45.4250 H   0  0  0  0  0  0  0  0  0  0  0  0
   39.0120   33.5390   44.3360 H   0  0  0  0  0  0  0  0  0  0  0  0
   39.4660   31.4200   44.3550 C   0  0  0  0  0  0  0  0  0  0  0  0
   40.5770   30.9370   43.7130 C   0  0  0  0  0  0  0  0  0  0  0  0
   41.4230   31.6070   43.6370 H   0  0  0  0  0  0  0  0  0  0  0  0
   40.3510   29.6780   43.3020 N   0  0  0  0  0  0  0  0  0  0  0  0
   41.0570   29.1340   42.7990 H   0  0  0  0  0  0  0  0  0  0  0  0
   39.1000   29.3750   43.6870 C   0  0  0  0  0  0  0  0  0  0  0  0
   38.6260   28.4090   43.4940 H   0  0  0  0  0  0  0  0  0  0  0  0
   38.5480   30.4200   44.3270 N   0  0  0  0  0  0  0  0  0  0  0  0
   37.5190   30.6940   49.7720 O   0  0  0  0  0  0  0  0  0  0  0  0
   33.9750   28.8630   48.3890 C   0  0  0  0  0  0  0  0  0  0  0  0
   34.7150   28.3040   49.3940 C   0  0  0  0  0  0  0  0  0  0  0  0
   35.8800   28.8460   49.8940 C   0  0  0  0  0  0  0  0  0  0  0  0
   36.3690   30.0110   49.3900 C   0  0  0  0  0  0  0  0  0  0  0  0
   35.6160   30.5890   48.3590 C   0  0  0  0  0  0  0  0  0  0  0  0
   34.4770   30.0340   47.8900 N   0  0  0  0  0  0  0  0  0  0  0  0
   34.4100   27.3770   49.8620 H   0  0  0  0  0  0  0  0  0  0  0  0
   36.4640   28.4000   50.6920 H   0  0  0  0  0  0  0  0  0  0  0  0
   35.9290   31.5210   47.8970 H   0  0  0  0  0  0  0  0  0  0  0  0
   31.9490   27.4260   48.5950 C   0  0  0  0  0  0  0  0  0  0  0  0
   32.7750   28.2890   47.8780 C   0  0  0  0  0  0  0  0  0  0  0  0
   32.3870   28.5880   46.5930 C   0  0  0  0  0  0  0  0  0  0  0  0
   31.2390   28.0470   46.0710 N   0  0  0  0  0  0  0  0  0  0  0  0
   30.4770   27.2110   46.8190 C   0  0  0  0  0  0  0  0  0  0  0  0
   30.8190   26.8860   48.0950 N   0  0  0  0  0  0  0  0  0  0  0  0
   32.2180   27.1670   49.6070 H   0  0  0  0  0  0  0  0  0  0  0  0
   32.9910   29.2580   45.9820 H   0  0  0  0  0  0  0  0  0  0  0  0
   29.5740   26.7910   46.3940 H   0  0  0  0  0  0  0  0  0  0  0  0
  1  2  1  0  0  0  0
  1 22  1  0  0  0  0
  2  6  1  0  0  0  0
  3  7  1  0  0  0  0
  3  2  2  0  0  0  0
  4  5  1  0  0  0  0
  4  3  1  0  0  0  0
  5  1  2  0  0  0  0
  8  4  1  0  0  0  0
  9  8  1  0  0  0  0
 10  8  1  0  0  0  0
 11 12  1  0  0  0  0
 11  8  1  0  0  0  0
 13 11  1  0  0  0  0
 14 11  1  0  0  0  0
 15 14  2  0  0  0  0
 16 15  1  0  0  0  0
 17 19  1  0  0  0  0
 17 15  1  0  0  0  0
 18 17  1  0  0  0  0
 19 21  2  0  0  0  0
 20 19  1  0  0  0  0
 21 14  1  0  0  0  0
 23 24  1  0  0  0  0
 24 29  1  0  0  0  0
 24 25  2  0  0  0  0
 25 30  1  0  0  0  0
 26 22  1  0  0  0  0
 26 25  1  0  0  0  0
 27 26  2  0  0  0  0
 28 27  1  0  0  0  0
 28 23  2  0  0  0  0
 31 27  1  0  0  0  0
 32 38  1  0  0  0  0
 33 23  1  0  0  0  0
 33 32  2  0  0  0  0
 34 33  1  0  0  0  0
 35 34  2  0  0  0  0
 35 36  1  0  0  0  0
 36 37  2  0  0  0  0
 37 32  1  0  0  0  0
 39 34  1  0  0  0  0
 40 36  1  0  0  0  0
M  END
>  <minimizedAffinity>
-6.06492424

>  <minimizedRMSD>
1.98282444

$$$$
