
 OpenBabel03272508413D

 41 44  0  0  1  0  0  0  0  0999 V2000
   36.4400   28.1280   32.1230 N   0  0  0  0  0  0  0  0  0  0  0  0
   36.6850   26.9440   32.9410 C   0  0  0  0  0  0  0  0  0  0  0  0
   37.9350   26.2440   32.6420 C   0  0  2  0  0  0  0  0  0  0  0  0
   38.1550   26.1030   31.1730 N   0  0  0  0  0  0  0  0  0  0  0  0
   38.0880   27.4620   30.5990 C   0  0  0  0  0  0  0  0  0  0  0  0
   36.6240   27.8180   30.7490 C   0  0  0  0  0  0  0  0  0  0  0  0
   35.8440   26.2700   32.5560 H   0  0  0  0  0  0  0  0  0  0  0  0
   36.5700   27.2140   33.9860 H   0  0  0  0  0  0  0  0  0  0  0  0
   38.8730   26.7670   32.9030 H   0  0  0  0  0  0  0  0  0  0  0  0
   37.3610   25.5620   30.7790 H   0  0  0  0  0  0  0  0  0  0  0  0
   38.3720   27.3920   29.5480 H   0  0  0  0  0  0  0  0  0  0  0  0
   38.7210   28.1400   31.1980 H   0  0  0  0  0  0  0  0  0  0  0  0
   36.0420   26.9410   30.3940 H   0  0  0  0  0  0  0  0  0  0  0  0
   36.4110   28.7000   30.1130 H   0  0  0  0  0  0  0  0  0  0  0  0
   38.8320   26.1170   35.4720 Cl  0  0  0  0  0  0  0  0  0  0  0  0
   38.2830   24.7180   34.5480 C   0  0  0  0  0  0  0  0  0  0  0  0
   37.9300   24.9200   33.2410 C   0  0  0  0  0  0  0  0  0  0  0  0
   37.4770   23.9080   32.3820 C   0  0  0  0  0  0  0  0  0  0  0  0
   37.4060   22.6260   32.9460 C   0  0  0  0  0  0  0  0  0  0  0  0
   37.7680   22.4090   34.2800 C   0  0  0  0  0  0  0  0  0  0  0  0
   38.1990   23.4550   35.0570 C   0  0  0  0  0  0  0  0  0  0  0  0
   37.1450   23.7890   31.3800 H   0  0  0  0  0  0  0  0  0  0  0  0
   37.0940   21.6980   32.4910 H   0  0  0  0  0  0  0  0  0  0  0  0
   37.7440   21.4570   34.7890 H   0  0  0  0  0  0  0  0  0  0  0  0
   38.5860   23.2830   36.4500 C   0  0  0  0  0  0  0  0  0  0  0  0
   39.7300   22.6080   36.8710 C   0  0  0  0  0  0  0  0  0  0  0  0
   40.4680   22.1330   36.2470 H   0  0  0  0  0  0  0  0  0  0  0  0
   39.8180   22.6130   38.2030 N   0  0  0  0  0  0  0  0  0  0  0  0
   40.5600   22.1910   38.8170 H   0  0  0  0  0  0  0  0  0  0  0  0
   38.7240   23.2940   38.6170 C   0  0  0  0  0  0  0  0  0  0  0  0
   38.5250   23.4620   39.6710 H   0  0  0  0  0  0  0  0  0  0  0  0
   37.9800   23.6990   37.5730 N   0  0  0  0  0  0  0  0  0  0  0  0
   36.0610   29.3740   32.6770 C   0  0  0  0  0  0  0  0  0  0  0  0
   35.6070   29.4960   33.9950 C   0  0  0  0  0  0  0  0  0  0  0  0
   35.2580   30.7560   34.4660 C   0  0  0  0  0  0  0  0  0  0  0  0
   35.3790   31.8310   33.5950 N   0  0  0  0  0  0  0  0  0  0  0  0
   35.8200   31.6640   32.3360 C   0  0  0  0  0  0  0  0  0  0  0  0
   36.1590   30.4660   31.8730 N   0  0  0  0  0  0  0  0  0  0  0  0
   35.5350   28.6280   34.6220 H   0  0  0  0  0  0  0  0  0  0  0  0
   34.9020   30.9090   35.4750 H   0  0  0  0  0  0  0  0  0  0  0  0
   35.9110   32.5080   31.6690 H   0  0  0  0  0  0  0  0  0  0  0  0
  1 33  1  0  0  0  0
  1  2  1  0  0  0  0
  2  8  1  0  0  0  0
  3  9  1  1  0  0  0
  3  2  1  0  0  0  0
  3 17  1  0  0  0  0
  4  3  1  0  0  0  0
  5  6  1  0  0  0  0
  5  4  1  0  0  0  0
  5 12  1  0  0  0  0
  6  1  1  0  0  0  0
  7  2  1  0  0  0  0
 10  4  1  0  0  0  0
 11  5  1  0  0  0  0
 13  6  1  0  0  0  0
 14  6  1  0  0  0  0
 16 21  1  0  0  0  0
 16 15  1  0  0  0  0
 17 16  2  0  0  0  0
 18 19  2  0  0  0  0
 18 17  1  0  0  0  0
 19 20  1  0  0  0  0
 20 24  1  0  0  0  0
 20 21  2  0  0  0  0
 21 25  1  0  0  0  0
 22 18  1  0  0  0  0
 23 19  1  0  0  0  0
 25 26  2  0  0  0  0
 25 32  1  0  0  0  0
 26 28  1  0  0  0  0
 27 26  1  0  0  0  0
 28 30  1  0  0  0  0
 28 29  1  0  0  0  0
 30 31  1  0  0  0  0
 32 30  2  0  0  0  0
 33 34  1  0  0  0  0
 34 35  2  0  0  0  0
 34 39  1  0  0  0  0
 35 40  1  0  0  0  0
 36 35  1  0  0  0  0
 37 36  2  0  0  0  0
 38 37  1  0  0  0  0
 38 33  2  0  0  0  0
 41 37  1  0  0  0  0
M  END
>  <minimizedAffinity>
-5.81185389

$$$$

 OpenBabel03272508413D

 41 44  0  0  1  0  0  0  0  0999 V2000
   36.7670   27.7300   31.3320 N   0  0  0  0  0  0  0  0  0  0  0  0
   36.7740   26.5340   32.1700 C   0  0  0  0  0  0  0  0  0  0  0  0
   38.0960   26.1390   32.6570 C   0  0  2  0  0  0  0  0  0  0  0  0
   39.1290   26.2130   31.5840 N   0  0  0  0  0  0  0  0  0  0  0  0
   39.0860   27.5860   31.0430 C   0  0  0  0  0  0  0  0  0  0  0  0
   37.7580   27.6210   30.3200 C   0  0  0  0  0  0  0  0  0  0  0  0
   36.4780   25.7530   31.3880 H   0  0  0  0  0  0  0  0  0  0  0  0
   36.0330   26.6550   32.9540 H   0  0  0  0  0  0  0  0  0  0  0  0
   38.5750   26.8060   33.3970 H   0  0  0  0  0  0  0  0  0  0  0  0
   38.8450   25.5710   30.8180 H   0  0  0  0  0  0  0  0  0  0  0  0
   39.9190   27.6940   30.3480 H   0  0  0  0  0  0  0  0  0  0  0  0
   39.0970   28.3050   31.8820 H   0  0  0  0  0  0  0  0  0  0  0  0
   37.6960   26.6910   29.7150 H   0  0  0  0  0  0  0  0  0  0  0  0
   37.7440   28.5090   29.6560 H   0  0  0  0  0  0  0  0  0  0  0  0
   39.6470   25.6770   35.1500 Cl  0  0  0  0  0  0  0  0  0  0  0  0
   38.6970   24.4340   34.3360 C   0  0  0  0  0  0  0  0  0  0  0  0
   38.0590   24.7820   33.1760 C   0  0  0  0  0  0  0  0  0  0  0  0
   37.2700   23.9030   32.4170 C   0  0  0  0  0  0  0  0  0  0  0  0
   37.1670   22.5990   32.9210 C   0  0  0  0  0  0  0  0  0  0  0  0
   37.8180   22.2340   34.1040 C   0  0  0  0  0  0  0  0  0  0  0  0
   38.5700   23.1540   34.7900 C   0  0  0  0  0  0  0  0  0  0  0  0
   36.6850   23.9070   31.5310 H   0  0  0  0  0  0  0  0  0  0  0  0
   36.6270   21.7550   32.5200 H   0  0  0  0  0  0  0  0  0  0  0  0
   37.7920   21.2540   34.5580 H   0  0  0  0  0  0  0  0  0  0  0  0
   39.2650   22.8260   36.0260 C   0  0  0  0  0  0  0  0  0  0  0  0
   38.7470   23.0420   37.3010 C   0  0  0  0  0  0  0  0  0  0  0  0
   37.7900   23.4680   37.5480 H   0  0  0  0  0  0  0  0  0  0  0  0
   39.6120   22.6420   38.2370 N   0  0  0  0  0  0  0  0  0  0  0  0
   39.5140   22.6720   39.2840 H   0  0  0  0  0  0  0  0  0  0  0  0
   40.6760   22.1740   37.5430 C   0  0  0  0  0  0  0  0  0  0  0  0
   41.5500   21.7750   38.0470 H   0  0  0  0  0  0  0  0  0  0  0  0
   40.4770   22.2810   36.2180 N   0  0  0  0  0  0  0  0  0  0  0  0
   35.8690   28.8030   31.5400 C   0  0  0  0  0  0  0  0  0  0  0  0
   35.9790   30.0130   30.8460 C   0  0  0  0  0  0  0  0  0  0  0  0
   35.0540   31.0170   31.1070 C   0  0  0  0  0  0  0  0  0  0  0  0
   34.0660   30.7620   32.0480 N   0  0  0  0  0  0  0  0  0  0  0  0
   34.0010   29.5820   32.6900 C   0  0  0  0  0  0  0  0  0  0  0  0
   34.8770   28.6130   32.4510 N   0  0  0  0  0  0  0  0  0  0  0  0
   36.7650   30.1520   30.1290 H   0  0  0  0  0  0  0  0  0  0  0  0
   35.0920   31.9720   30.6000 H   0  0  0  0  0  0  0  0  0  0  0  0
   33.2260   29.3960   33.4190 H   0  0  0  0  0  0  0  0  0  0  0  0
  1 33  1  0  0  0  0
  1  2  1  0  0  0  0
  2  3  1  0  0  0  0
  2  8  1  0  0  0  0
  3 17  1  0  0  0  0
  3  9  1  1  0  0  0
  4  3  1  0  0  0  0
  5  4  1  0  0  0  0
  5 12  1  0  0  0  0
  6  5  1  0  0  0  0
  6  1  1  0  0  0  0
  7  2  1  0  0  0  0
 10  4  1  0  0  0  0
 11  5  1  0  0  0  0
 13  6  1  0  0  0  0
 14  6  1  0  0  0  0
 16 21  1  0  0  0  0
 16 15  1  0  0  0  0
 17 16  2  0  0  0  0
 18 19  2  0  0  0  0
 18 17  1  0  0  0  0
 19 20  1  0  0  0  0
 20 24  1  0  0  0  0
 20 21  2  0  0  0  0
 21 25  1  0  0  0  0
 22 18  1  0  0  0  0
 23 19  1  0  0  0  0
 25 32  1  0  0  0  0
 25 26  2  0  0  0  0
 26 27  1  0  0  0  0
 26 28  1  0  0  0  0
 28 29  1  0  0  0  0
 30 31  1  0  0  0  0
 30 28  1  0  0  0  0
 32 30  2  0  0  0  0
 33 38  1  0  0  0  0
 34 35  1  0  0  0  0
 34 33  2  0  0  0  0
 35 36  2  0  0  0  0
 36 37  1  0  0  0  0
 37 41  1  0  0  0  0
 38 37  2  0  0  0  0
 39 34  1  0  0  0  0
 40 35  1  0  0  0  0
M  END
>  <minimizedAffinity>
-5.49071693

$$$$

 OpenBabel03272508413D

 41 44  0  0  1  0  0  0  0  0999 V2000
   38.4690   24.3150   34.3460 N   0  0  0  0  0  0  0  0  0  0  0  0
   38.1770   25.6810   33.9210 C   0  0  0  0  0  0  0  0  0  0  0  0
   37.0450   25.8040   33.0010 C   0  0  2  0  0  0  0  0  0  0  0  0
   37.0790   24.7610   31.9360 N   0  0  0  0  0  0  0  0  0  0  0  0
   37.1440   23.4540   32.6190 C   0  0  0  0  0  0  0  0  0  0  0  0
   38.5340   23.4560   33.2170 C   0  0  0  0  0  0  0  0  0  0  0  0
   39.1150   25.8900   33.2990 H   0  0  0  0  0  0  0  0  0  0  0  0
   38.1000   26.3100   34.8020 H   0  0  0  0  0  0  0  0  0  0  0  0
   36.0430   25.5900   33.4140 H   0  0  0  0  0  0  0  0  0  0  0  0
   37.9620   24.8740   31.4020 H   0  0  0  0  0  0  0  0  0  0  0  0
   37.0410   22.6780   31.8600 H   0  0  0  0  0  0  0  0  0  0  0  0
   36.3740   23.4210   33.4110 H   0  0  0  0  0  0  0  0  0  0  0  0
   39.2270   23.7980   32.4190 H   0  0  0  0  0  0  0  0  0  0  0  0
   38.7860   22.4200   33.5220 H   0  0  0  0  0  0  0  0  0  0  0  0
   38.8790   26.1100   30.6820 Cl  0  0  0  0  0  0  0  0  0  0  0  0
   37.8130   27.3860   31.2720 C   0  0  0  0  0  0  0  0  0  0  0  0
   37.0460   27.1140   32.3720 C   0  0  0  0  0  0  0  0  0  0  0  0
   36.1540   28.0270   32.9560 C   0  0  0  0  0  0  0  0  0  0  0  0
   36.0880   29.2830   32.3370 C   0  0  0  0  0  0  0  0  0  0  0  0
   36.8700   29.5720   31.2150 C   0  0  0  0  0  0  0  0  0  0  0  0
   37.7170   28.6210   30.7010 C   0  0  0  0  0  0  0  0  0  0  0  0
   35.4650   28.0770   33.7630 H   0  0  0  0  0  0  0  0  0  0  0  0
   35.4860   30.1400   32.6000 H   0  0  0  0  0  0  0  0  0  0  0  0
   36.8810   30.5110   30.6810 H   0  0  0  0  0  0  0  0  0  0  0  0
   38.5510   28.8700   29.5340 C   0  0  0  0  0  0  0  0  0  0  0  0
   38.0880   28.8610   28.2200 C   0  0  0  0  0  0  0  0  0  0  0  0
   37.0810   28.6740   27.8890 H   0  0  0  0  0  0  0  0  0  0  0  0
   39.0820   29.1220   27.3660 N   0  0  0  0  0  0  0  0  0  0  0  0
   39.0520   29.1850   26.3170 H   0  0  0  0  0  0  0  0  0  0  0  0
   40.1710   29.2950   28.1520 C   0  0  0  0  0  0  0  0  0  0  0  0
   41.1440   29.5240   27.7280 H   0  0  0  0  0  0  0  0  0  0  0  0
   39.8620   29.1460   29.4510 N   0  0  0  0  0  0  0  0  0  0  0  0
   38.6630   23.9630   35.7040 C   0  0  0  0  0  0  0  0  0  0  0  0
   37.8220   24.4280   36.7210 C   0  0  0  0  0  0  0  0  0  0  0  0
   38.0790   24.0340   38.0290 C   0  0  0  0  0  0  0  0  0  0  0  0
   39.1620   23.1950   38.2550 N   0  0  0  0  0  0  0  0  0  0  0  0
   39.9420   22.7740   37.2430 C   0  0  0  0  0  0  0  0  0  0  0  0
   39.7090   23.1420   35.9880 N   0  0  0  0  0  0  0  0  0  0  0  0
   36.9990   25.0750   36.4850 H   0  0  0  0  0  0  0  0  0  0  0  0
   37.4620   24.3630   38.8540 H   0  0  0  0  0  0  0  0  0  0  0  0
   40.7810   22.1220   37.4310 H   0  0  0  0  0  0  0  0  0  0  0  0
  1 33  1  0  0  0  0
  2  1  1  0  0  0  0
  2  8  1  0  0  0  0
  3  9  1  1  0  0  0
  3  2  1  0  0  0  0
  4  5  1  0  0  0  0
  4  3  1  0  0  0  0
  5  6  1  0  0  0  0
  5 12  1  0  0  0  0
  6 14  1  0  0  0  0
  6  1  1  0  0  0  0
  7  2  1  0  0  0  0
 10  4  1  0  0  0  0
 11  5  1  0  0  0  0
 13  6  1  0  0  0  0
 15 16  1  0  0  0  0
 16 17  1  0  0  0  0
 17 18  2  0  0  0  0
 17  3  1  0  0  0  0
 18 22  1  0  0  0  0
 19 23  1  0  0  0  0
 19 18  1  0  0  0  0
 20 19  2  0  0  0  0
 21 20  1  0  0  0  0
 21 16  2  0  0  0  0
 24 20  1  0  0  0  0
 25 21  1  0  0  0  0
 26 25  2  0  0  0  0
 27 26  1  0  0  0  0
 28 30  1  0  0  0  0
 28 26  1  0  0  0  0
 29 28  1  0  0  0  0
 30 32  2  0  0  0  0
 31 30  1  0  0  0  0
 32 25  1  0  0  0  0
 33 38  2  0  0  0  0
 33 34  1  0  0  0  0
 34 35  2  0  0  0  0
 35 36  1  0  0  0  0
 35 40  1  0  0  0  0
 37 41  1  0  0  0  0
 37 36  2  0  0  0  0
 38 37  1  0  0  0  0
 39 34  1  0  0  0  0
M  END
>  <minimizedAffinity>
-5.45049334

$$$$

 OpenBabel03272508413D

 41 44  0  0  1  0  0  0  0  0999 V2000
   35.5900   30.0660   32.5850 N   0  0  0  0  0  0  0  0  0  0  0  0
   35.7920   28.6270   32.7300 C   0  0  0  0  0  0  0  0  0  0  0  0
   36.6490   28.0260   31.7070 C   0  0  2  0  0  0  0  0  0  0  0  0
   36.3160   28.5240   30.3410 N   0  0  0  0  0  0  0  0  0  0  0  0
   36.4010   29.9970   30.3890 C   0  0  0  0  0  0  0  0  0  0  0  0
   35.2140   30.3730   31.2500 C   0  0  0  0  0  0  0  0  0  0  0  0
   34.7300   28.2630   32.5080 H   0  0  0  0  0  0  0  0  0  0  0  0
   36.1100   28.4220   33.7470 H   0  0  0  0  0  0  0  0  0  0  0  0
   37.7190   28.3010   31.7280 H   0  0  0  0  0  0  0  0  0  0  0  0
   35.3260   28.2780   30.1400 H   0  0  0  0  0  0  0  0  0  0  0  0
   36.2850   30.3690   29.3710 H   0  0  0  0  0  0  0  0  0  0  0  0
   37.3480   30.2890   30.8760 H   0  0  0  0  0  0  0  0  0  0  0  0
   34.3450   29.7920   30.8720 H   0  0  0  0  0  0  0  0  0  0  0  0
   35.0260   31.4600   31.1320 H   0  0  0  0  0  0  0  0  0  0  0  0
   38.6980   26.5670   33.2890 Cl  0  0  0  0  0  0  0  0  0  0  0  0
   37.3660   25.7830   32.4380 C   0  0  0  0  0  0  0  0  0  0  0  0
   36.5150   26.5790   31.7210 C   0  0  0  0  0  0  0  0  0  0  0  0
   35.4140   26.1010   30.9930 C   0  0  0  0  0  0  0  0  0  0  0  0
   35.2240   24.7130   31.0330 C   0  0  0  0  0  0  0  0  0  0  0  0
   36.0900   23.8910   31.7610 C   0  0  0  0  0  0  0  0  0  0  0  0
   37.1440   24.4370   32.4500 C   0  0  0  0  0  0  0  0  0  0  0  0
   34.6260   26.4740   30.3880 H   0  0  0  0  0  0  0  0  0  0  0  0
   34.4580   24.1170   30.5590 H   0  0  0  0  0  0  0  0  0  0  0  0
   36.0150   22.8160   31.8420 H   0  0  0  0  0  0  0  0  0  0  0  0
   38.0730   23.6260   33.2230 C   0  0  0  0  0  0  0  0  0  0  0  0
   39.1980   22.9980   32.6930 C   0  0  0  0  0  0  0  0  0  0  0  0
   39.5320   23.0220   31.6700 H   0  0  0  0  0  0  0  0  0  0  0  0
   39.8550   22.3260   33.6420 N   0  0  0  0  0  0  0  0  0  0  0  0
   40.7350   21.7560   33.5580 H   0  0  0  0  0  0  0  0  0  0  0  0
   39.1370   22.5350   34.7700 C   0  0  0  0  0  0  0  0  0  0  0  0
   39.4360   22.1040   35.7200 H   0  0  0  0  0  0  0  0  0  0  0  0
   38.0670   23.3120   34.5280 N   0  0  0  0  0  0  0  0  0  0  0  0
   35.7470   30.9710   33.6610 C   0  0  0  0  0  0  0  0  0  0  0  0
   35.6360   30.5680   34.9960 C   0  0  0  0  0  0  0  0  0  0  0  0
   35.8080   31.5180   35.9960 C   0  0  0  0  0  0  0  0  0  0  0  0
   36.0810   32.8240   35.6120 N   0  0  0  0  0  0  0  0  0  0  0  0
   36.1780   33.1640   34.3140 C   0  0  0  0  0  0  0  0  0  0  0  0
   36.0180   32.2670   33.3480 N   0  0  0  0  0  0  0  0  0  0  0  0
   35.4240   29.5430   35.2330 H   0  0  0  0  0  0  0  0  0  0  0  0
   35.7330   31.2620   37.0440 H   0  0  0  0  0  0  0  0  0  0  0  0
   36.3920   34.1830   34.0280 H   0  0  0  0  0  0  0  0  0  0  0  0
  1  2  1  0  0  0  0
  1 33  1  0  0  0  0
  2  8  1  0  0  0  0
  3 17  1  0  0  0  0
  3  9  1  1  0  0  0
  3  2  1  0  0  0  0
  4  5  1  0  0  0  0
  4  3  1  0  0  0  0
  5 12  1  0  0  0  0
  5  6  1  0  0  0  0
  6  1  1  0  0  0  0
  7  2  1  0  0  0  0
 10  4  1  0  0  0  0
 11  5  1  0  0  0  0
 13  6  1  0  0  0  0
 14  6  1  0  0  0  0
 16 21  1  0  0  0  0
 16 15  1  0  0  0  0
 17 16  2  0  0  0  0
 18 19  2  0  0  0  0
 18 17  1  0  0  0  0
 19 20  1  0  0  0  0
 20 24  1  0  0  0  0
 20 21  2  0  0  0  0
 21 25  1  0  0  0  0
 22 18  1  0  0  0  0
 23 19  1  0  0  0  0
 25 32  1  0  0  0  0
 26 25  2  0  0  0  0
 26 28  1  0  0  0  0
 27 26  1  0  0  0  0
 28 30  1  0  0  0  0
 29 28  1  0  0  0  0
 30 31  1  0  0  0  0
 32 30  2  0  0  0  0
 33 34  1  0  0  0  0
 34 39  1  0  0  0  0
 34 35  2  0  0  0  0
 35 40  1  0  0  0  0
 36 35  1  0  0  0  0
 37 36  2  0  0  0  0
 38 33  2  0  0  0  0
 38 37  1  0  0  0  0
 41 37  1  0  0  0  0
M  END
>  <minimizedAffinity>
-5.42845964

$$$$

 OpenBabel03272508413D

 41 44  0  0  1  0  0  0  0  0999 V2000
   39.2020   22.8630   35.8040 N   0  0  0  0  0  0  0  0  0  0  0  0
   38.6810   23.3140   34.5170 C   0  0  0  0  0  0  0  0  0  0  0  0
   38.2480   24.7110   34.4890 C   0  0  2  0  0  0  0  0  0  0  0  0
   37.4540   25.0710   35.6990 N   0  0  0  0  0  0  0  0  0  0  0  0
   38.2840   24.7330   36.8720 C   0  0  0  0  0  0  0  0  0  0  0  0
   38.3050   23.2200   36.8450 C   0  0  0  0  0  0  0  0  0  0  0  0
   37.7260   22.6850   34.4690 H   0  0  0  0  0  0  0  0  0  0  0  0
   39.3980   23.0590   33.7430 H   0  0  0  0  0  0  0  0  0  0  0  0
   39.0390   25.4790   34.5740 H   0  0  0  0  0  0  0  0  0  0  0  0
   36.6150   24.4580   35.7280 H   0  0  0  0  0  0  0  0  0  0  0  0
   37.7710   25.1060   37.7600 H   0  0  0  0  0  0  0  0  0  0  0  0
   39.2990   25.1440   36.7270 H   0  0  0  0  0  0  0  0  0  0  0  0
   37.2570   22.8870   36.6830 H   0  0  0  0  0  0  0  0  0  0  0  0
   38.6730   22.8570   37.8260 H   0  0  0  0  0  0  0  0  0  0  0  0
   37.7160   27.5750   33.9000 Cl  0  0  0  0  0  0  0  0  0  0  0  0
   37.1490   26.2400   32.8970 C   0  0  0  0  0  0  0  0  0  0  0  0
   37.4420   24.9680   33.3080 C   0  0  0  0  0  0  0  0  0  0  0  0
   37.0570   23.8080   32.6180 C   0  0  0  0  0  0  0  0  0  0  0  0
   36.3250   24.0230   31.4420 C   0  0  0  0  0  0  0  0  0  0  0  0
   36.0180   25.3190   31.0150 C   0  0  0  0  0  0  0  0  0  0  0  0
   36.4340   26.4030   31.7460 C   0  0  0  0  0  0  0  0  0  0  0  0
   37.1500   22.7540   32.6990 H   0  0  0  0  0  0  0  0  0  0  0  0
   35.9210   23.3000   30.7490 H   0  0  0  0  0  0  0  0  0  0  0  0
   35.4590   25.5710   30.1250 H   0  0  0  0  0  0  0  0  0  0  0  0
   36.1430   27.7720   31.3440 C   0  0  0  0  0  0  0  0  0  0  0  0
   36.6770   28.3910   30.2160 C   0  0  0  0  0  0  0  0  0  0  0  0
   37.3590   27.9600   29.5020 H   0  0  0  0  0  0  0  0  0  0  0  0
   36.2290   29.6440   30.1070 N   0  0  0  0  0  0  0  0  0  0  0  0
   36.4460   30.3620   29.3700 H   0  0  0  0  0  0  0  0  0  0  0  0
   35.4110   29.8090   31.1740 C   0  0  0  0  0  0  0  0  0  0  0  0
   34.8940   30.7470   31.3510 H   0  0  0  0  0  0  0  0  0  0  0  0
   35.3540   28.6930   31.9200 N   0  0  0  0  0  0  0  0  0  0  0  0
   40.4270   22.1640   35.9290 C   0  0  0  0  0  0  0  0  0  0  0  0
   40.9420   21.7810   37.1730 C   0  0  0  0  0  0  0  0  0  0  0  0
   42.1500   21.0940   37.2100 C   0  0  0  0  0  0  0  0  0  0  0  0
   42.7810   20.8240   36.0030 N   0  0  0  0  0  0  0  0  0  0  0  0
   42.2460   21.2120   34.8320 C   0  0  0  0  0  0  0  0  0  0  0  0
   41.0920   21.8690   34.7810 N   0  0  0  0  0  0  0  0  0  0  0  0
   40.4080   22.0180   38.0730 H   0  0  0  0  0  0  0  0  0  0  0  0
   42.5940   20.7740   38.1420 H   0  0  0  0  0  0  0  0  0  0  0  0
   42.7460   20.9950   33.9010 H   0  0  0  0  0  0  0  0  0  0  0  0
  1 33  1  0  0  0  0
  1  6  1  0  0  0  0
  2  1  1  0  0  0  0
  3  2  1  0  0  0  0
  3  9  1  6  0  0  0
  3  4  1  0  0  0  0
  4 10  1  0  0  0  0
  4  5  1  0  0  0  0
  5 11  1  0  0  0  0
  6  5  1  0  0  0  0
  6 14  1  0  0  0  0
  7  2  1  0  0  0  0
  8  2  1  0  0  0  0
 12  5  1  0  0  0  0
 13  6  1  0  0  0  0
 16 17  1  0  0  0  0
 16 15  1  0  0  0  0
 17  3  1  0  0  0  0
 18 22  1  0  0  0  0
 18 17  2  0  0  0  0
 19 18  1  0  0  0  0
 20 19  2  0  0  0  0
 20 21  1  0  0  0  0
 21 16  2  0  0  0  0
 23 19  1  0  0  0  0
 24 20  1  0  0  0  0
 25 21  1  0  0  0  0
 25 32  1  0  0  0  0
 26 25  2  0  0  0  0
 27 26  1  0  0  0  0
 28 26  1  0  0  0  0
 28 30  1  0  0  0  0
 29 28  1  0  0  0  0
 30 31  1  0  0  0  0
 30 32  2  0  0  0  0
 33 34  1  0  0  0  0
 34 35  2  0  0  0  0
 34 39  1  0  0  0  0
 35 40  1  0  0  0  0
 36 35  1  0  0  0  0
 37 36  2  0  0  0  0
 38 37  1  0  0  0  0
 38 33  2  0  0  0  0
 41 37  1  0  0  0  0
M  END
>  <minimizedAffinity>
-5.34171867

$$$$

 OpenBabel03272508413D

 41 44  0  0  1  0  0  0  0  0999 V2000
   37.3790   24.6890   32.9020 N   0  0  0  0  0  0  0  0  0  0  0  0
   36.6490   25.9050   32.5520 C   0  0  0  0  0  0  0  0  0  0  0  0
   37.4890   27.0050   32.0780 C   0  0  2  0  0  0  0  0  0  0  0  0
   38.7100   27.1730   32.9180 N   0  0  0  0  0  0  0  0  0  0  0  0
   39.4010   25.8680   32.9330 C   0  0  0  0  0  0  0  0  0  0  0  0
   38.4690   25.0040   33.7550 C   0  0  0  0  0  0  0  0  0  0  0  0
   36.2820   26.2110   33.5920 H   0  0  0  0  0  0  0  0  0  0  0  0
   35.8420   25.6430   31.8740 H   0  0  0  0  0  0  0  0  0  0  0  0
   37.9780   26.8720   31.0960 H   0  0  0  0  0  0  0  0  0  0  0  0
   38.4070   27.3730   33.8910 H   0  0  0  0  0  0  0  0  0  0  0  0
   40.3590   26.0070   33.4360 H   0  0  0  0  0  0  0  0  0  0  0  0
   39.4800   25.4890   31.8990 H   0  0  0  0  0  0  0  0  0  0  0  0
   38.1920   25.5950   34.6550 H   0  0  0  0  0  0  0  0  0  0  0  0
   39.0150   24.0870   34.0540 H   0  0  0  0  0  0  0  0  0  0  0  0
   36.6210   27.9590   34.7560 Cl  0  0  0  0  0  0  0  0  0  0  0  0
   36.3110   28.8270   33.2520 C   0  0  0  0  0  0  0  0  0  0  0  0
   36.7420   28.2520   32.0870 C   0  0  0  0  0  0  0  0  0  0  0  0
   36.5670   28.8200   30.8160 C   0  0  0  0  0  0  0  0  0  0  0  0
   35.8990   30.0530   30.7950 C   0  0  0  0  0  0  0  0  0  0  0  0
   35.4530   30.6470   31.9800 C   0  0  0  0  0  0  0  0  0  0  0  0
   35.6660   30.0270   33.1860 C   0  0  0  0  0  0  0  0  0  0  0  0
   36.7950   28.6090   29.8010 H   0  0  0  0  0  0  0  0  0  0  0  0
   35.6470   30.6760   29.9500 H   0  0  0  0  0  0  0  0  0  0  0  0
   34.9310   31.5900   32.0510 H   0  0  0  0  0  0  0  0  0  0  0  0
   35.2240   30.6040   34.4470 C   0  0  0  0  0  0  0  0  0  0  0  0
   33.9320   30.4860   34.9550 C   0  0  0  0  0  0  0  0  0  0  0  0
   33.1020   29.9690   34.5040 H   0  0  0  0  0  0  0  0  0  0  0  0
   33.8250   31.1190   36.1270 N   0  0  0  0  0  0  0  0  0  0  0  0
   32.9850   31.2100   36.7540 H   0  0  0  0  0  0  0  0  0  0  0  0
   35.0560   31.6340   36.3510 C   0  0  0  0  0  0  0  0  0  0  0  0
   35.2750   32.2100   37.2440 H   0  0  0  0  0  0  0  0  0  0  0  0
   35.9000   31.3310   35.3500 N   0  0  0  0  0  0  0  0  0  0  0  0
   36.9960   23.4080   32.4360 C   0  0  0  0  0  0  0  0  0  0  0  0
   35.9020   23.2210   31.5850 C   0  0  0  0  0  0  0  0  0  0  0  0
   35.5930   21.9310   31.1700 C   0  0  0  0  0  0  0  0  0  0  0  0
   36.3940   20.8930   31.6270 N   0  0  0  0  0  0  0  0  0  0  0  0
   37.4360   21.1230   32.4460 C   0  0  0  0  0  0  0  0  0  0  0  0
   37.7430   22.3500   32.8500 N   0  0  0  0  0  0  0  0  0  0  0  0
   35.3200   24.0640   31.2630 H   0  0  0  0  0  0  0  0  0  0  0  0
   34.7600   21.7290   30.5120 H   0  0  0  0  0  0  0  0  0  0  0  0
   38.0510   20.3060   32.7940 H   0  0  0  0  0  0  0  0  0  0  0  0
  1  6  1  0  0  0  0
  2  1  1  0  0  0  0
  2  7  1  0  0  0  0
  3  9  1  6  0  0  0
  3 17  1  0  0  0  0
  3  2  1  0  0  0  0
  3  4  1  0  0  0  0
  4  5  1  0  0  0  0
  4 10  1  0  0  0  0
  5 11  1  0  0  0  0
  5  6  1  0  0  0  0
  6 14  1  0  0  0  0
  6 13  1  0  0  0  0
  8  2  1  0  0  0  0
 12  5  1  0  0  0  0
 16 15  1  0  0  0  0
 17 16  2  0  0  0  0
 18 17  1  0  0  0  0
 19 18  2  0  0  0  0
 19 20  1  0  0  0  0
 20 24  1  0  0  0  0
 20 21  2  0  0  0  0
 21 16  1  0  0  0  0
 21 25  1  0  0  0  0
 22 18  1  0  0  0  0
 23 19  1  0  0  0  0
 25 26  2  0  0  0  0
 25 32  1  0  0  0  0
 26 28  1  0  0  0  0
 27 26  1  0  0  0  0
 28 30  1  0  0  0  0
 28 29  1  0  0  0  0
 30 31  1  0  0  0  0
 32 30  2  0  0  0  0
 33 38  1  0  0  0  0
 33  1  1  0  0  0  0
 34 33  2  0  0  0  0
 35 34  1  0  0  0  0
 35 36  2  0  0  0  0
 36 37  1  0  0  0  0
 37 41  1  0  0  0  0
 37 38  2  0  0  0  0
 39 34  1  0  0  0  0
 40 35  1  0  0  0  0
M  END
>  <minimizedAffinity>
-5.3401804

$$$$

 OpenBabel03272508413D

 41 44  0  0  1  0  0  0  0  0999 V2000
   37.2330   27.2590   33.7780 N   0  0  0  0  0  0  0  0  0  0  0  0
   36.5520   28.2490   34.6080 C   0  0  0  0  0  0  0  0  0  0  0  0
   35.3990   28.8860   33.9720 C   0  0  2  0  0  0  0  0  0  0  0  0
   35.6860   29.2760   32.5620 N   0  0  0  0  0  0  0  0  0  0  0  0
   36.1420   28.0560   31.8660 C   0  0  0  0  0  0  0  0  0  0  0  0
   37.4960   27.7990   32.4910 C   0  0  0  0  0  0  0  0  0  0  0  0
   37.3690   29.0480   34.6570 H   0  0  0  0  0  0  0  0  0  0  0  0
   36.3320   27.8020   35.5720 H   0  0  0  0  0  0  0  0  0  0  0  0
   34.5130   28.2500   33.7930 H   0  0  0  0  0  0  0  0  0  0  0  0
   36.4820   29.9440   32.5670 H   0  0  0  0  0  0  0  0  0  0  0  0
   36.2350   28.2940   30.8060 H   0  0  0  0  0  0  0  0  0  0  0  0
   35.4430   27.2300   32.0870 H   0  0  0  0  0  0  0  0  0  0  0  0
   38.0350   28.7720   32.5030 H   0  0  0  0  0  0  0  0  0  0  0  0
   38.0420   27.0690   31.8600 H   0  0  0  0  0  0  0  0  0  0  0  0
   32.4920   29.5070   33.9480 Cl  0  0  0  0  0  0  0  0  0  0  0  0
   33.6960   30.4590   34.8180 C   0  0  0  0  0  0  0  0  0  0  0  0
   35.0060   30.0740   34.7130 C   0  0  0  0  0  0  0  0  0  0  0  0
   36.0730   30.7310   35.3430 C   0  0  0  0  0  0  0  0  0  0  0  0
   35.7210   31.8490   36.1130 C   0  0  0  0  0  0  0  0  0  0  0  0
   34.3870   32.2520   36.2240 C   0  0  0  0  0  0  0  0  0  0  0  0
   33.3990   31.5520   35.5770 C   0  0  0  0  0  0  0  0  0  0  0  0
   37.1280   30.6490   35.4370 H   0  0  0  0  0  0  0  0  0  0  0  0
   36.3560   32.5100   36.6830 H   0  0  0  0  0  0  0  0  0  0  0  0
   34.0320   33.0990   36.7930 H   0  0  0  0  0  0  0  0  0  0  0  0
   31.9950   31.9290   35.6610 C   0  0  0  0  0  0  0  0  0  0  0  0
   31.1210   31.4890   36.6530 C   0  0  0  0  0  0  0  0  0  0  0  0
   31.3500   30.8300   37.4730 H   0  0  0  0  0  0  0  0  0  0  0  0
   29.9010   32.0000   36.4690 N   0  0  0  0  0  0  0  0  0  0  0  0
   29.0320   31.8590   37.0450 H   0  0  0  0  0  0  0  0  0  0  0  0
   30.0130   32.7630   35.3560 C   0  0  0  0  0  0  0  0  0  0  0  0
   29.1660   33.3120   34.9580 H   0  0  0  0  0  0  0  0  0  0  0  0
   31.2640   32.7250   34.8660 N   0  0  0  0  0  0  0  0  0  0  0  0
   37.5680   25.9670   34.2500 C   0  0  0  0  0  0  0  0  0  0  0  0
   37.7420   25.6940   35.6110 C   0  0  0  0  0  0  0  0  0  0  0  0
   38.0680   24.3980   35.9940 C   0  0  0  0  0  0  0  0  0  0  0  0
   38.2030   23.4400   34.9980 N   0  0  0  0  0  0  0  0  0  0  0  0
   38.0260   23.7520   33.7010 C   0  0  0  0  0  0  0  0  0  0  0  0
   37.7140   24.9850   33.3210 N   0  0  0  0  0  0  0  0  0  0  0  0
   37.6240   26.4750   36.3370 H   0  0  0  0  0  0  0  0  0  0  0  0
   38.2140   24.1300   37.0320 H   0  0  0  0  0  0  0  0  0  0  0  0
   38.1330   22.9980   32.9360 H   0  0  0  0  0  0  0  0  0  0  0  0
  1 33  1  0  0  0  0
  1  2  1  0  0  0  0
  2  7  1  0  0  0  0
  2  8  1  0  0  0  0
  3  9  1  1  0  0  0
  3  2  1  0  0  0  0
  3 17  1  0  0  0  0
  4 10  1  0  0  0  0
  4  3  1  0  0  0  0
  5 12  1  0  0  0  0
  5  6  1  0  0  0  0
  5  4  1  0  0  0  0
  6 13  1  0  0  0  0
  6  1  1  0  0  0  0
 11  5  1  0  0  0  0
 14  6  1  0  0  0  0
 15 16  1  0  0  0  0
 16 21  1  0  0  0  0
 17 16  2  0  0  0  0
 17 18  1  0  0  0  0
 18 22  1  0  0  0  0
 18 19  2  0  0  0  0
 19 20  1  0  0  0  0
 19 23  1  0  0  0  0
 20 24  1  0  0  0  0
 21 25  1  0  0  0  0
 21 20  2  0  0  0  0
 25 26  2  0  0  0  0
 26 27  1  0  0  0  0
 28 26  1  0  0  0  0
 28 29  1  0  0  0  0
 30 28  1  0  0  0  0
 31 30  1  0  0  0  0
 32 30  2  0  0  0  0
 32 25  1  0  0  0  0
 33 34  1  0  0  0  0
 34 35  2  0  0  0  0
 34 39  1  0  0  0  0
 35 40  1  0  0  0  0
 36 35  1  0  0  0  0
 37 36  2  0  0  0  0
 38 37  1  0  0  0  0
 38 33  2  0  0  0  0
 41 37  1  0  0  0  0
M  END
>  <minimizedAffinity>
-5.26130438

$$$$

 OpenBabel03272508413D

 41 44  0  0  1  0  0  0  0  0999 V2000
   40.2220   24.0800   34.2950 N   0  0  0  0  0  0  0  0  0  0  0  0
   38.8670   24.3480   33.8210 C   0  0  0  0  0  0  0  0  0  0  0  0
   38.6570   24.0860   32.3970 C   0  0  2  0  0  0  0  0  0  0  0  0
   39.7760   24.6120   31.5630 N   0  0  0  0  0  0  0  0  0  0  0  0
   41.0200   24.0190   32.0940 C   0  0  0  0  0  0  0  0  0  0  0  0
   41.1700   24.7000   33.4380 C   0  0  0  0  0  0  0  0  0  0  0  0
   38.8460   25.4860   33.9400 H   0  0  0  0  0  0  0  0  0  0  0  0
   38.1640   23.8380   34.4720 H   0  0  0  0  0  0  0  0  0  0  0  0
   38.6900   23.0300   32.0740 H   0  0  0  0  0  0  0  0  0  0  0  0
   39.8350   25.6380   31.7130 H   0  0  0  0  0  0  0  0  0  0  0  0
   41.8320   24.2920   31.4190 H   0  0  0  0  0  0  0  0  0  0  0  0
   40.8770   22.9300   32.2190 H   0  0  0  0  0  0  0  0  0  0  0  0
   40.9960   25.7850   33.2700 H   0  0  0  0  0  0  0  0  0  0  0  0
   42.2030   24.5310   33.8030 H   0  0  0  0  0  0  0  0  0  0  0  0
   38.6010   27.0580   32.4360 Cl  0  0  0  0  0  0  0  0  0  0  0  0
   37.2620   26.0540   31.8790 C   0  0  0  0  0  0  0  0  0  0  0  0
   37.4160   24.6960   31.9480 C   0  0  0  0  0  0  0  0  0  0  0  0
   36.4400   23.7710   31.5450 C   0  0  0  0  0  0  0  0  0  0  0  0
   35.2510   24.3270   31.0540 C   0  0  0  0  0  0  0  0  0  0  0  0
   35.0830   25.7130   30.9820 C   0  0  0  0  0  0  0  0  0  0  0  0
   36.0880   26.5520   31.3940 C   0  0  0  0  0  0  0  0  0  0  0  0
   36.3030   22.7200   31.4830 H   0  0  0  0  0  0  0  0  0  0  0  0
   34.3650   23.8270   30.6900 H   0  0  0  0  0  0  0  0  0  0  0  0
   34.2010   26.2210   30.6190 H   0  0  0  0  0  0  0  0  0  0  0  0
   35.9650   28.0020   31.3390 C   0  0  0  0  0  0  0  0  0  0  0  0
   35.3460   28.7760   32.3190 C   0  0  0  0  0  0  0  0  0  0  0  0
   34.8860   28.4260   33.2270 H   0  0  0  0  0  0  0  0  0  0  0  0
   35.3860   30.0710   31.9930 N   0  0  0  0  0  0  0  0  0  0  0  0
   35.0090   30.8970   32.5230 H   0  0  0  0  0  0  0  0  0  0  0  0
   36.0330   30.1050   30.8040 C   0  0  0  0  0  0  0  0  0  0  0  0
   36.2180   31.0410   30.2870 H   0  0  0  0  0  0  0  0  0  0  0  0
   36.3830   28.8700   30.4050 N   0  0  0  0  0  0  0  0  0  0  0  0
   40.4870   23.3160   35.4570 C   0  0  0  0  0  0  0  0  0  0  0  0
   39.6730   23.3820   36.5930 C   0  0  0  0  0  0  0  0  0  0  0  0
   40.0000   22.5980   37.6930 C   0  0  0  0  0  0  0  0  0  0  0  0
   41.1240   21.7870   37.6020 N   0  0  0  0  0  0  0  0  0  0  0  0
   41.8760   21.7580   36.4870 C   0  0  0  0  0  0  0  0  0  0  0  0
   41.5750   22.5020   35.4280 N   0  0  0  0  0  0  0  0  0  0  0  0
   38.8160   24.0280   36.6050 H   0  0  0  0  0  0  0  0  0  0  0  0
   39.4070   22.6090   38.5970 H   0  0  0  0  0  0  0  0  0  0  0  0
   42.7470   21.1230   36.4290 H   0  0  0  0  0  0  0  0  0  0  0  0
  1 33  1  0  0  0  0
  2  7  1  0  0  0  0
  2  1  1  0  0  0  0
  2  8  1  0  0  0  0
  3  9  1  6  0  0  0
  3  2  1  0  0  0  0
  4 10  1  0  0  0  0
  4  5  1  0  0  0  0
  4  3  1  0  0  0  0
  5 12  1  0  0  0  0
  5  6  1  0  0  0  0
  6 14  1  0  0  0  0
  6  1  1  0  0  0  0
 11  5  1  0  0  0  0
 13  6  1  0  0  0  0
 16 17  1  0  0  0  0
 16 15  1  0  0  0  0
 17  3  1  0  0  0  0
 18 17  2  0  0  0  0
 19 18  1  0  0  0  0
 20 19  2  0  0  0  0
 20 21  1  0  0  0  0
 21 16  2  0  0  0  0
 22 18  1  0  0  0  0
 23 19  1  0  0  0  0
 24 20  1  0  0  0  0
 25 21  1  0  0  0  0
 25 26  2  0  0  0  0
 26 27  1  0  0  0  0
 28 26  1  0  0  0  0
 28 29  1  0  0  0  0
 30 28  1  0  0  0  0
 31 30  1  0  0  0  0
 32 30  2  0  0  0  0
 32 25  1  0  0  0  0
 33 34  1  0  0  0  0
 34 39  1  0  0  0  0
 34 35  2  0  0  0  0
 35 40  1  0  0  0  0
 36 35  1  0  0  0  0
 37 36  2  0  0  0  0
 38 33  2  0  0  0  0
 38 37  1  0  0  0  0
 41 37  1  0  0  0  0
M  END
>  <minimizedAffinity>
-5.16879797

$$$$

 OpenBabel03272508413D

 41 44  0  0  1  0  0  0  0  0999 V2000
   37.5150   25.5460   32.9530 N   0  0  0  0  0  0  0  0  0  0  0  0
   37.3130   26.9870   32.8330 C   0  0  0  0  0  0  0  0  0  0  0  0
   36.0980   27.3740   32.1170 C   0  0  2  0  0  0  0  0  0  0  0  0
   35.8990   26.5630   30.8810 N   0  0  0  0  0  0  0  0  0  0  0  0
   35.9130   25.1460   31.2930 C   0  0  0  0  0  0  0  0  0  0  0  0
   37.3580   24.9250   31.6850 C   0  0  0  0  0  0  0  0  0  0  0  0
   38.1860   27.2440   32.1390 H   0  0  0  0  0  0  0  0  0  0  0  0
   37.4050   27.4340   33.8180 H   0  0  0  0  0  0  0  0  0  0  0  0
   35.1350   27.1590   32.6150 H   0  0  0  0  0  0  0  0  0  0  0  0
   36.7190   26.7130   30.2610 H   0  0  0  0  0  0  0  0  0  0  0  0
   35.6430   24.5450   30.4240 H   0  0  0  0  0  0  0  0  0  0  0  0
   35.2450   25.0150   32.1630 H   0  0  0  0  0  0  0  0  0  0  0  0
   37.9820   25.3650   30.8780 H   0  0  0  0  0  0  0  0  0  0  0  0
   37.5390   23.8330   31.7550 H   0  0  0  0  0  0  0  0  0  0  0  0
   35.1030   29.2780   34.1710 Cl  0  0  0  0  0  0  0  0  0  0  0  0
   35.7630   29.7680   32.6100 C   0  0  0  0  0  0  0  0  0  0  0  0
   36.1540   28.7790   31.7480 C   0  0  0  0  0  0  0  0  0  0  0  0
   36.6950   29.0130   30.4740 C   0  0  0  0  0  0  0  0  0  0  0  0
   36.8150   30.3610   30.1100 C   0  0  0  0  0  0  0  0  0  0  0  0
   36.4160   31.3780   30.9830 C   0  0  0  0  0  0  0  0  0  0  0  0
   35.8990   31.0660   32.2150 C   0  0  0  0  0  0  0  0  0  0  0  0
   37.0700   28.4650   29.6460 H   0  0  0  0  0  0  0  0  0  0  0  0
   37.1950   30.7870   29.1930 H   0  0  0  0  0  0  0  0  0  0  0  0
   36.4740   32.4380   30.7800 H   0  0  0  0  0  0  0  0  0  0  0  0
   35.4700   32.0870   33.1610 C   0  0  0  0  0  0  0  0  0  0  0  0
   34.1920   32.6400   33.1940 C   0  0  0  0  0  0  0  0  0  0  0  0
   33.3640   32.4010   32.5480 H   0  0  0  0  0  0  0  0  0  0  0  0
   34.0960   33.5510   34.1670 N   0  0  0  0  0  0  0  0  0  0  0  0
   33.2680   34.1370   34.4450 H   0  0  0  0  0  0  0  0  0  0  0  0
   35.3210   33.5660   34.7440 C   0  0  0  0  0  0  0  0  0  0  0  0
   35.5460   34.2200   35.5800 H   0  0  0  0  0  0  0  0  0  0  0  0
   36.1500   32.6920   34.1470 N   0  0  0  0  0  0  0  0  0  0  0  0
   37.8340   24.9190   34.1810 C   0  0  0  0  0  0  0  0  0  0  0  0
   37.8260   25.6130   35.3960 C   0  0  0  0  0  0  0  0  0  0  0  0
   38.1480   24.9240   36.5590 C   0  0  0  0  0  0  0  0  0  0  0  0
   38.4610   23.5760   36.4500 N   0  0  0  0  0  0  0  0  0  0  0  0
   38.4550   22.9510   35.2590 C   0  0  0  0  0  0  0  0  0  0  0  0
   38.1490   23.5970   34.1390 N   0  0  0  0  0  0  0  0  0  0  0  0
   37.5750   26.6560   35.4180 H   0  0  0  0  0  0  0  0  0  0  0  0
   38.1580   25.4100   37.5250 H   0  0  0  0  0  0  0  0  0  0  0  0
   38.7000   21.9020   35.1880 H   0  0  0  0  0  0  0  0  0  0  0  0
  1 33  1  0  0  0  0
  2  1  1  0  0  0  0
  2  8  1  0  0  0  0
  3  9  1  1  0  0  0
  3  2  1  0  0  0  0
  4  5  1  0  0  0  0
  4  3  1  0  0  0  0
  5  6  1  0  0  0  0
  5 12  1  0  0  0  0
  6 14  1  0  0  0  0
  6  1  1  0  0  0  0
  7  2  1  0  0  0  0
 10  4  1  0  0  0  0
 11  5  1  0  0  0  0
 13  6  1  0  0  0  0
 16 15  1  0  0  0  0
 17  3  1  0  0  0  0
 17 16  2  0  0  0  0
 18 17  1  0  0  0  0
 19 18  2  0  0  0  0
 19 20  1  0  0  0  0
 20 21  2  0  0  0  0
 21 16  1  0  0  0  0
 21 25  1  0  0  0  0
 22 18  1  0  0  0  0
 23 19  1  0  0  0  0
 24 20  1  0  0  0  0
 25 26  2  0  0  0  0
 25 32  1  0  0  0  0
 26 28  1  0  0  0  0
 27 26  1  0  0  0  0
 28 29  1  0  0  0  0
 28 30  1  0  0  0  0
 30 31  1  0  0  0  0
 32 30  2  0  0  0  0
 33 34  1  0  0  0  0
 34 39  1  0  0  0  0
 34 35  2  0  0  0  0
 35 40  1  0  0  0  0
 36 35  1  0  0  0  0
 37 36  2  0  0  0  0
 38 33  2  0  0  0  0
 38 37  1  0  0  0  0
 41 37  1  0  0  0  0
M  END
>  <minimizedAffinity>
-5.16433668

$$$$
