
 OpenBabel03272507173D

 29 31  0  0  1  0  0  0  0  0999 V2000
   37.7680   31.4640   49.5260 C   0  0  0  0  0  0  0  0  0  0  0  0
   38.0750   32.7750   49.8660 C   0  0  0  0  0  0  0  0  0  0  0  0
   38.7880   33.4780   48.8820 C   0  0  0  0  0  0  0  0  0  0  0  0
   39.1330   32.8830   47.6940 N   0  0  0  0  0  0  0  0  0  0  0  0
   38.8070   31.6000   47.4120 C   0  0  0  0  0  0  0  0  0  0  0  0
   38.1140   30.8820   48.3470 N   0  0  0  0  0  0  0  0  0  0  0  0
   37.7850   33.1920   50.7980 H   0  0  0  0  0  0  0  0  0  0  0  0
   39.0490   34.5050   49.1040 H   0  0  0  0  0  0  0  0  0  0  0  0
   39.1820   30.9830   46.1450 C   0  0  0  0  0  0  0  0  0  0  0  0
   40.4580   31.1080   45.6330 C   0  0  0  0  0  0  0  0  0  0  0  0
   41.3300   31.6220   46.0160 H   0  0  0  0  0  0  0  0  0  0  0  0
   40.4660   30.4220   44.4530 N   0  0  0  0  0  0  0  0  0  0  0  0
   41.2490   30.2810   43.7670 H   0  0  0  0  0  0  0  0  0  0  0  0
   39.2360   29.8850   44.2360 C   0  0  0  0  0  0  0  0  0  0  0  0
   38.8680   29.2840   43.4170 H   0  0  0  0  0  0  0  0  0  0  0  0
   38.4380   30.2310   45.2810 N   0  0  0  0  0  0  0  0  0  0  0  0
   36.9910   30.6860   50.5420 C   0  0  1  0  0  0  0  0  0  0  0  0
   36.1570   29.5460   50.1710 C   0  0  2  0  0  0  0  0  0  0  0  0
   37.5230   29.2460   50.7020 C   0  0  0  0  0  0  0  0  0  0  0  0
   36.7980   31.2170   51.4950 H   0  0  0  0  0  0  0  0  0  0  0  0
   35.2290   29.4560   50.7970 H   0  0  0  0  0  0  0  0  0  0  0  0
   38.2690   28.8750   50.0000 H   0  0  0  0  0  0  0  0  0  0  0  0
   37.4940   28.8400   51.7470 H   0  0  0  0  0  0  0  0  0  0  0  0
   35.9000   29.3630   48.8180 O   0  0  0  0  0  0  0  0  0  0  0  0
   34.7230   29.1320   48.1860 C   0  0  0  0  0  0  0  0  0  0  0  0
   34.3570   27.9860   47.8530 O   0  0  0  0  0  0  0  0  0  0  0  0
   34.0730   30.3530   48.0050 N   0  0  0  0  0  0  0  0  0  0  0  0
   34.2940   30.4250   46.9800 H   0  0  0  0  0  0  0  0  0  0  0  0
   33.5940   30.8360   48.7980 H   0  0  0  0  0  0  0  0  0  0  0  0
  1  2  1  0  0  0  0
  1 17  1  0  0  0  0
  2  7  1  0  0  0  0
  3  8  1  0  0  0  0
  3  2  2  0  0  0  0
  4  3  1  0  0  0  0
  5  4  2  0  0  0  0
  5  6  1  0  0  0  0
  6  1  2  0  0  0  0
  9  5  1  0  0  0  0
 10 11  1  0  0  0  0
 10  9  2  0  0  0  0
 12 10  1  0  0  0  0
 13 12  1  0  0  0  0
 14 12  1  0  0  0  0
 14 16  2  0  0  0  0
 15 14  1  0  0  0  0
 16  9  1  0  0  0  0
 17 19  1  0  0  0  0
 17 20  1  1  0  0  0
 18 17  1  0  0  0  0
 18 19  1  0  0  0  0
 18 21  1  1  0  0  0
 19 23  1  0  0  0  0
 22 19  1  0  0  0  0
 24 18  1  0  0  0  0
 25 24  1  0  0  0  0
 26 25  2  0  0  0  0
 27 25  1  0  0  0  0
 27 29  1  0  0  0  0
 28 27  1  0  0  0  0
M  END
>  <minimizedAffinity>
-5.68103743

>  <minimizedRMSD>
2.02067184

$$$$
