
 OpenBabel03272509413D

 34 36  0  0  1  0  0  0  0  0999 V2000
   39.3650   27.1940   32.3280 C   0  0  0  0  0  0  0  0  0  0  0  0
   40.3080   27.4780   31.3450 C   0  0  0  0  0  0  0  0  0  0  0  0
   41.6610   27.5780   31.6090 C   0  0  0  0  0  0  0  0  0  0  0  0
   42.1240   27.3880   32.9070 C   0  0  0  0  0  0  0  0  0  0  0  0
   41.1830   27.1070   33.8710 C   0  0  0  0  0  0  0  0  0  0  0  0
   39.8330   27.0130   33.5790 C   0  0  0  0  0  0  0  0  0  0  0  0
   40.0500   27.6420   30.3130 H   0  0  0  0  0  0  0  0  0  0  0  0
   42.3880   27.7990   30.8380 H   0  0  0  0  0  0  0  0  0  0  0  0
   43.1870   27.4660   33.1170 H   0  0  0  0  0  0  0  0  0  0  0  0
   41.6170   26.9710   34.8640 H   0  0  0  0  0  0  0  0  0  0  0  0
   37.9690   27.1120   31.9530 C   0  0  2  0  0  3  0  0  0  0  0  0
   37.3680   28.2570   31.8890 O   0  0  0  0  0  1  0  0  0  0  0  0
   35.1220   25.0560   31.0840 C   0  0  0  0  0  0  0  0  0  0  0  0
   35.6330   23.7560   31.0700 C   0  0  0  0  0  0  0  0  0  0  0  0
   36.9630   23.5900   31.3620 C   0  0  0  0  0  0  0  0  0  0  0  0
   37.7370   24.6680   31.6510 N   0  0  0  0  0  0  0  0  0  0  0  0
   37.2380   25.8910   31.6600 C   0  0  0  0  0  0  0  0  0  0  0  0
   35.9280   26.0680   31.3740 N   0  0  0  0  0  0  0  0  0  0  0  0
   34.0690   25.1950   30.8540 H   0  0  0  0  0  0  0  0  0  0  0  0
   35.0430   22.8770   30.8440 H   0  0  0  0  0  0  0  0  0  0  0  0
   37.4340   22.6170   31.3720 H   0  0  0  0  0  0  0  0  0  0  0  0
   38.9880   26.7160   34.7120 C   0  0  0  0  0  3  0  0  0  0  0  0
   38.6540   25.5170   35.1610 C   0  0  0  0  0  3  0  0  0  0  0  0
   37.8270   25.0830   36.2950 C   0  0  0  0  0  0  0  0  0  0  0  0
   36.8890   24.6440   35.9100 H   0  0  0  0  0  0  0  0  0  0  0  0
   37.6510   25.9670   36.9320 H   0  0  0  0  0  0  0  0  0  0  0  0
   38.5610   24.0670   37.0940 C   0  0  0  0  0  0  0  0  0  0  0  0
   38.3150   23.5910   38.3860 C   0  0  0  0  0  0  0  0  0  0  0  0
   37.4880   23.9650   38.9600 H   0  0  0  0  0  0  0  0  0  0  0  0
   39.2740   22.6820   38.6320 N   0  0  0  0  0  0  0  0  0  0  0  0
   39.3340   22.1550   39.5480 H   0  0  0  0  0  0  0  0  0  0  0  0
   40.0870   22.5790   37.5650 C   0  0  0  0  0  0  0  0  0  0  0  0
   40.9290   21.9040   37.5440 H   0  0  0  0  0  0  0  0  0  0  0  0
   39.6600   23.4210   36.6180 N   0  0  0  0  0  0  0  0  0  0  0  0
  1  6  1  0  0  0  0
  2  3  1  0  0  0  0
  2  1  2  0  0  0  0
  3  4  2  0  0  0  0
  4  9  1  0  0  0  0
  4  5  1  0  0  0  0
  5 10  1  0  0  0  0
  6  5  2  0  0  0  0
  6 22  1  0  0  0  0
  7  2  1  0  0  0  0
  8  3  1  0  0  0  0
 11 12  1  1  0  0  0
 11  1  1  0  0  0  0
 13 18  1  0  0  0  0
 14 13  2  0  0  0  0
 14 15  1  0  0  0  0
 15 21  1  0  0  0  0
 15 16  2  0  0  0  0
 16 17  1  0  0  0  0
 17 11  1  0  0  0  0
 18 17  2  0  0  0  0
 19 13  1  0  0  0  0
 20 14  1  0  0  0  0
 22 23  2  0  0  0  0
 23 24  1  0  0  0  0
 24 26  1  0  0  0  0
 24 27  1  0  0  0  0
 25 24  1  0  0  0  0
 27 28  2  0  0  0  0
 28 30  1  0  0  0  0
 28 29  1  0  0  0  0
 30 31  1  0  0  0  0
 32 30  1  0  0  0  0
 33 32  1  0  0  0  0
 34 27  1  0  0  0  0
 34 32  2  0  0  0  0
M  END
>  <minimizedAffinity>
-5.73947144

$$$$

 OpenBabel03272509413D

 34 36  0  0  1  0  0  0  0  0999 V2000
   36.7750   23.9020   31.4980 C   0  0  0  0  0  0  0  0  0  0  0  0
   35.6520   24.4040   30.8490 C   0  0  0  0  0  0  0  0  0  0  0  0
   35.1970   25.6970   31.0260 C   0  0  0  0  0  0  0  0  0  0  0  0
   35.8770   26.5520   31.8880 C   0  0  0  0  0  0  0  0  0  0  0  0
   36.9850   26.0450   32.5250 C   0  0  0  0  0  0  0  0  0  0  0  0
   37.4190   24.7460   32.3280 C   0  0  0  0  0  0  0  0  0  0  0  0
   35.0590   23.8220   30.1640 H   0  0  0  0  0  0  0  0  0  0  0  0
   34.3220   26.0790   30.5160 H   0  0  0  0  0  0  0  0  0  0  0  0
   35.5200   27.5690   32.0290 H   0  0  0  0  0  0  0  0  0  0  0  0
   37.4680   26.7710   33.1850 H   0  0  0  0  0  0  0  0  0  0  0  0
   37.1720   22.5330   31.2480 C   0  0  1  0  0  3  0  0  0  0  0  0
   38.2010   22.4110   30.4700 O   0  0  0  0  0  1  0  0  0  0  0  0
   35.6490   20.4080   33.7490 C   0  0  0  0  0  0  0  0  0  0  0  0
   35.3070   19.2480   33.0480 C   0  0  0  0  0  0  0  0  0  0  0  0
   35.6050   19.2020   31.7090 C   0  0  0  0  0  0  0  0  0  0  0  0
   36.2100   20.2590   31.1080 N   0  0  0  0  0  0  0  0  0  0  0  0
   36.5260   21.3470   31.7860 C   0  0  0  0  0  0  0  0  0  0  0  0
   36.2390   21.4060   33.1060 N   0  0  0  0  0  0  0  0  0  0  0  0
   35.4160   20.4520   34.8100 H   0  0  0  0  0  0  0  0  0  0  0  0
   34.8250   18.3900   33.4980 H   0  0  0  0  0  0  0  0  0  0  0  0
   35.3730   18.3410   31.0970 H   0  0  0  0  0  0  0  0  0  0  0  0
   38.5970   24.3810   33.0810 C   0  0  0  0  0  3  0  0  0  0  0  0
   38.6500   24.0380   34.3580 C   0  0  0  0  0  3  0  0  0  0  0  0
   39.7640   23.6370   35.2280 C   0  0  0  0  0  0  0  0  0  0  0  0
   40.5280   24.4340   35.2250 H   0  0  0  0  0  0  0  0  0  0  0  0
   40.1510   22.6770   34.8440 H   0  0  0  0  0  0  0  0  0  0  0  0
   39.2700   23.4240   36.6130 C   0  0  0  0  0  0  0  0  0  0  0  0
   39.8710   22.7640   37.6890 C   0  0  0  0  0  0  0  0  0  0  0  0
   40.8400   22.3120   37.5840 H   0  0  0  0  0  0  0  0  0  0  0  0
   39.0030   22.8600   38.7110 N   0  0  0  0  0  0  0  0  0  0  0  0
   39.2010   22.4430   39.6640 H   0  0  0  0  0  0  0  0  0  0  0  0
   37.9120   23.5400   38.3170 C   0  0  0  0  0  0  0  0  0  0  0  0
   37.0830   23.7360   38.9810 H   0  0  0  0  0  0  0  0  0  0  0  0
   38.0630   23.8910   37.0360 N   0  0  0  0  0  0  0  0  0  0  0  0
  1  6  1  0  0  0  0
  2  3  1  0  0  0  0
  2  1  2  0  0  0  0
  3  4  2  0  0  0  0
  4  9  1  0  0  0  0
  4  5  1  0  0  0  0
  5 10  1  0  0  0  0
  6  5  2  0  0  0  0
  6 22  1  0  0  0  0
  7  2  1  0  0  0  0
  8  3  1  0  0  0  0
 11 12  1  1  0  0  0
 11  1  1  0  0  0  0
 11 17  1  0  0  0  0
 13 19  1  0  0  0  0
 14 20  1  0  0  0  0
 14 13  2  0  0  0  0
 15 14  1  0  0  0  0
 16 15  2  0  0  0  0
 16 17  1  0  0  0  0
 17 18  2  0  0  0  0
 18 13  1  0  0  0  0
 21 15  1  0  0  0  0
 22 23  2  0  0  0  0
 23 24  1  0  0  0  0
 24 27  1  0  0  0  0
 25 24  1  0  0  0  0
 26 24  1  0  0  0  0
 27 34  1  0  0  0  0
 27 28  2  0  0  0  0
 28 30  1  0  0  0  0
 29 28  1  0  0  0  0
 30 31  1  0  0  0  0
 32 30  1  0  0  0  0
 32 33  1  0  0  0  0
 34 32  2  0  0  0  0
M  END
>  <minimizedAffinity>
-5.60270739

$$$$

 OpenBabel03272509413D

 34 36  0  0  1  0  0  0  0  0999 V2000
   36.5980   22.0580   31.7640 C   0  0  0  0  0  0  0  0  0  0  0  0
   35.5040   21.4000   31.2120 C   0  0  0  0  0  0  0  0  0  0  0  0
   34.7950   20.4240   31.8860 C   0  0  0  0  0  0  0  0  0  0  0  0
   35.1740   20.0690   33.1770 C   0  0  0  0  0  0  0  0  0  0  0  0
   36.2570   20.7250   33.7140 C   0  0  0  0  0  0  0  0  0  0  0  0
   36.9490   21.6990   33.0150 C   0  0  0  0  0  0  0  0  0  0  0  0
   35.1340   21.6040   30.2210 H   0  0  0  0  0  0  0  0  0  0  0  0
   33.9450   19.9180   31.4480 H   0  0  0  0  0  0  0  0  0  0  0  0
   34.6180   19.3020   33.7090 H   0  0  0  0  0  0  0  0  0  0  0  0
   36.4960   20.3960   34.7280 H   0  0  0  0  0  0  0  0  0  0  0  0
   37.2780   23.0650   30.9780 C   0  0  1  0  0  3  0  0  0  0  0  0
   38.2310   22.6040   30.2310 O   0  0  0  0  0  1  0  0  0  0  0  0
   37.9470   26.6180   30.8350 C   0  0  0  0  0  0  0  0  0  0  0  0
   36.6840   27.2060   30.9320 C   0  0  0  0  0  0  0  0  0  0  0  0
   35.6000   26.3730   31.0480 C   0  0  0  0  0  0  0  0  0  0  0  0
   35.7740   25.0260   31.0640 N   0  0  0  0  0  0  0  0  0  0  0  0
   36.9760   24.4860   30.9710 C   0  0  0  0  0  0  0  0  0  0  0  0
   38.0530   25.2960   30.8570 N   0  0  0  0  0  0  0  0  0  0  0  0
   38.8110   27.2720   30.7430 H   0  0  0  0  0  0  0  0  0  0  0  0
   36.5120   28.2750   30.9230 H   0  0  0  0  0  0  0  0  0  0  0  0
   34.5900   26.7500   31.1270 H   0  0  0  0  0  0  0  0  0  0  0  0
   38.0620   22.2810   33.7300 C   0  0  0  0  0  3  0  0  0  0  0  0
   38.0760   23.4380   34.3730 C   0  0  0  0  0  3  0  0  0  0  0  0
   39.1220   24.1270   35.1410 C   0  0  0  0  0  0  0  0  0  0  0  0
   38.9280   25.2140   35.1160 H   0  0  0  0  0  0  0  0  0  0  0  0
   40.0930   23.8590   34.6900 H   0  0  0  0  0  0  0  0  0  0  0  0
   39.1100   23.6500   36.5470 C   0  0  0  0  0  0  0  0  0  0  0  0
   39.9630   22.7540   37.1990 C   0  0  0  0  0  0  0  0  0  0  0  0
   40.7800   22.2930   36.6750 H   0  0  0  0  0  0  0  0  0  0  0  0
   39.5140   22.6690   38.4630 N   0  0  0  0  0  0  0  0  0  0  0  0
   39.9760   22.0550   39.1900 H   0  0  0  0  0  0  0  0  0  0  0  0
   38.4380   23.4620   38.6160 C   0  0  0  0  0  0  0  0  0  0  0  0
   37.9140   23.5490   39.5550 H   0  0  0  0  0  0  0  0  0  0  0  0
   38.1810   24.0670   37.4510 N   0  0  0  0  0  0  0  0  0  0  0  0
  1  6  1  0  0  0  0
  2  1  2  0  0  0  0
  2  3  1  0  0  0  0
  3  4  2  0  0  0  0
  4  9  1  0  0  0  0
  4  5  1  0  0  0  0
  5 10  1  0  0  0  0
  6  5  2  0  0  0  0
  6 22  1  0  0  0  0
  7  2  1  0  0  0  0
  8  3  1  0  0  0  0
 11 12  1  6  0  0  0
 11  1  1  0  0  0  0
 13 18  2  0  0  0  0
 13 14  1  0  0  0  0
 14 15  2  0  0  0  0
 15 16  1  0  0  0  0
 15 21  1  0  0  0  0
 17 11  1  0  0  0  0
 17 16  2  0  0  0  0
 18 17  1  0  0  0  0
 19 13  1  0  0  0  0
 20 14  1  0  0  0  0
 22 23  2  0  0  0  0
 23 24  1  0  0  0  0
 24 27  1  0  0  0  0
 25 24  1  0  0  0  0
 26 24  1  0  0  0  0
 27 28  2  0  0  0  0
 27 34  1  0  0  0  0
 28 30  1  0  0  0  0
 29 28  1  0  0  0  0
 30 32  1  0  0  0  0
 30 31  1  0  0  0  0
 32 33  1  0  0  0  0
 34 32  2  0  0  0  0
M  END
>  <minimizedAffinity>
-5.59766674

$$$$

 OpenBabel03272509413D

 34 36  0  0  1  0  0  0  0  0999 V2000
   36.9680   27.1930   32.4940 C   0  0  0  0  0  0  0  0  0  0  0  0
   35.9850   28.1510   32.2660 C   0  0  0  0  0  0  0  0  0  0  0  0
   35.5230   29.0010   33.2530 C   0  0  0  0  0  0  0  0  0  0  0  0
   36.0510   28.9140   34.5370 C   0  0  0  0  0  0  0  0  0  0  0  0
   37.0220   27.9640   34.7510 C   0  0  0  0  0  0  0  0  0  0  0  0
   37.4660   27.1240   33.7440 C   0  0  0  0  0  0  0  0  0  0  0  0
   35.5150   28.2960   31.3080 H   0  0  0  0  0  0  0  0  0  0  0  0
   34.7580   29.7440   33.0670 H   0  0  0  0  0  0  0  0  0  0  0  0
   35.6880   29.5820   35.3140 H   0  0  0  0  0  0  0  0  0  0  0  0
   37.3890   27.9530   35.7800 H   0  0  0  0  0  0  0  0  0  0  0  0
   37.3850   26.3460   31.3960 C   0  0  1  0  0  3  0  0  0  0  0  0
   38.0140   26.9710   30.4520 O   0  0  0  0  0  1  0  0  0  0  0  0
   35.5250   23.2460   31.5310 C   0  0  0  0  0  0  0  0  0  0  0  0
   36.4600   22.2720   31.1700 C   0  0  0  0  0  0  0  0  0  0  0  0
   37.7350   22.6890   30.8810 C   0  0  0  0  0  0  0  0  0  0  0  0
   38.0530   24.0070   30.9480 N   0  0  0  0  0  0  0  0  0  0  0  0
   37.1570   24.9150   31.2910 C   0  0  0  0  0  0  0  0  0  0  0  0
   35.8970   24.5180   31.5790 N   0  0  0  0  0  0  0  0  0  0  0  0
   34.5130   22.9240   31.7620 H   0  0  0  0  0  0  0  0  0  0  0  0
   36.2380   21.2150   31.1080 H   0  0  0  0  0  0  0  0  0  0  0  0
   38.5150   21.9970   30.5930 H   0  0  0  0  0  0  0  0  0  0  0  0
   38.4870   26.1840   34.1460 C   0  0  0  0  0  3  0  0  0  0  0  0
   38.3050   25.0310   34.7690 C   0  0  0  0  0  3  0  0  0  0  0  0
   39.2420   23.9910   35.2160 C   0  0  0  0  0  0  0  0  0  0  0  0
   40.2740   24.3670   35.1080 H   0  0  0  0  0  0  0  0  0  0  0  0
   39.0510   23.0920   34.6040 H   0  0  0  0  0  0  0  0  0  0  0  0
   38.9790   23.6550   36.6390 C   0  0  0  0  0  0  0  0  0  0  0  0
   39.6500   22.7730   37.4920 C   0  0  0  0  0  0  0  0  0  0  0  0
   40.4970   22.2110   37.1450 H   0  0  0  0  0  0  0  0  0  0  0  0
   39.0080   22.8410   38.6710 N   0  0  0  0  0  0  0  0  0  0  0  0
   39.3060   22.2710   39.5120 H   0  0  0  0  0  0  0  0  0  0  0  0
   37.9880   23.7140   38.5830 C   0  0  0  0  0  0  0  0  0  0  0  0
   37.3370   23.9260   39.4170 H   0  0  0  0  0  0  0  0  0  0  0  0
   37.9600   24.2180   37.3450 N   0  0  0  0  0  0  0  0  0  0  0  0
  1  6  1  0  0  0  0
  2  1  2  0  0  0  0
  2  3  1  0  0  0  0
  3  4  2  0  0  0  0
  4  5  1  0  0  0  0
  4  9  1  0  0  0  0
  5 10  1  0  0  0  0
  6 22  1  0  0  0  0
  6  5  2  0  0  0  0
  7  2  1  0  0  0  0
  8  3  1  0  0  0  0
 11 12  1  1  0  0  0
 11  1  1  0  0  0  0
 13 18  1  0  0  0  0
 13 19  1  0  0  0  0
 14 13  2  0  0  0  0
 15 16  2  0  0  0  0
 15 14  1  0  0  0  0
 16 17  1  0  0  0  0
 17 11  1  0  0  0  0
 17 18  2  0  0  0  0
 20 14  1  0  0  0  0
 21 15  1  0  0  0  0
 22 23  2  0  0  0  0
 23 24  1  0  0  0  0
 24 27  1  0  0  0  0
 25 24  1  0  0  0  0
 26 24  1  0  0  0  0
 27 34  1  0  0  0  0
 27 28  2  0  0  0  0
 28 30  1  0  0  0  0
 29 28  1  0  0  0  0
 30 31  1  0  0  0  0
 32 30  1  0  0  0  0
 32 33  1  0  0  0  0
 34 32  2  0  0  0  0
M  END
>  <minimizedAffinity>
-5.5705452

$$$$

 OpenBabel03272509413D

 34 36  0  0  1  0  0  0  0  0999 V2000
   37.6250   27.3190   32.9280 C   0  0  0  0  0  0  0  0  0  0  0  0
   38.8800   26.7230   33.0020 C   0  0  0  0  0  0  0  0  0  0  0  0
   39.5990   26.6290   34.1780 C   0  0  0  0  0  0  0  0  0  0  0  0
   39.0630   27.1460   35.3540 C   0  0  0  0  0  0  0  0  0  0  0  0
   37.8220   27.7330   35.2700 C   0  0  0  0  0  0  0  0  0  0  0  0
   37.1240   27.8140   34.0770 C   0  0  0  0  0  0  0  0  0  0  0  0
   39.3790   26.2950   32.1490 H   0  0  0  0  0  0  0  0  0  0  0  0
   40.5750   26.1640   34.2260 H   0  0  0  0  0  0  0  0  0  0  0  0
   39.6270   27.0740   36.2790 H   0  0  0  0  0  0  0  0  0  0  0  0
   37.4650   28.1160   36.2290 H   0  0  0  0  0  0  0  0  0  0  0  0
   36.9500   27.3710   31.6480 C   0  0  2  0  0  3  0  0  0  0  0  0
   36.0940   26.4180   31.4600 O   0  0  0  0  0  1  0  0  0  0  0  0
   36.7650   30.6170   30.0600 C   0  0  0  0  0  0  0  0  0  0  0  0
   37.4200   30.4360   28.8400 C   0  0  0  0  0  0  0  0  0  0  0  0
   37.9260   29.1910   28.5660 C   0  0  0  0  0  0  0  0  0  0  0  0
   37.7840   28.1840   29.4660 N   0  0  0  0  0  0  0  0  0  0  0  0
   37.1610   28.3720   30.6150 C   0  0  0  0  0  0  0  0  0  0  0  0
   36.6570   29.5940   30.8980 N   0  0  0  0  0  0  0  0  0  0  0  0
   36.3610   31.6010   30.2840 H   0  0  0  0  0  0  0  0  0  0  0  0
   37.5500   31.2180   28.1020 H   0  0  0  0  0  0  0  0  0  0  0  0
   38.4470   28.9710   27.6440 H   0  0  0  0  0  0  0  0  0  0  0  0
   35.8380   28.4660   34.1720 C   0  0  0  0  0  3  0  0  0  0  0  0
   35.6120   29.7660   34.2710 C   0  0  0  0  0  3  0  0  0  0  0  0
   34.3710   30.5490   34.3590 C   0  0  0  0  0  0  0  0  0  0  0  0
   33.5080   29.8620   34.3020 H   0  0  0  0  0  0  0  0  0  0  0  0
   34.3850   31.2820   33.5340 H   0  0  0  0  0  0  0  0  0  0  0  0
   34.3340   31.2910   35.6450 C   0  0  0  0  0  0  0  0  0  0  0  0
   35.3840   31.7710   36.4360 C   0  0  0  0  0  0  0  0  0  0  0  0
   36.4060   31.6230   36.1400 H   0  0  0  0  0  0  0  0  0  0  0  0
   34.8060   32.3680   37.4920 N   0  0  0  0  0  0  0  0  0  0  0  0
   35.3690   32.8250   38.2630 H   0  0  0  0  0  0  0  0  0  0  0  0
   33.4680   32.2780   37.3890 C   0  0  0  0  0  0  0  0  0  0  0  0
   32.8030   32.6910   38.1310 H   0  0  0  0  0  0  0  0  0  0  0  0
   33.1670   31.6210   36.2630 N   0  0  0  0  0  0  0  0  0  0  0  0
  1  2  2  0  0  0  0
  1  6  1  0  0  0  0
  2  3  1  0  0  0  0
  3  8  1  0  0  0  0
  3  4  2  0  0  0  0
  4  9  1  0  0  0  0
  5  4  1  0  0  0  0
  5 10  1  0  0  0  0
  6 22  1  0  0  0  0
  6  5  2  0  0  0  0
  7  2  1  0  0  0  0
 11 12  1  6  0  0  0
 11  1  1  0  0  0  0
 13 19  1  0  0  0  0
 13 18  1  0  0  0  0
 14 13  2  0  0  0  0
 15 14  1  0  0  0  0
 15 16  2  0  0  0  0
 16 17  1  0  0  0  0
 17 18  2  0  0  0  0
 17 11  1  0  0  0  0
 20 14  1  0  0  0  0
 21 15  1  0  0  0  0
 22 23  2  0  0  0  0
 23 24  1  0  0  0  0
 24 27  1  0  0  0  0
 25 24  1  0  0  0  0
 26 24  1  0  0  0  0
 27 34  1  0  0  0  0
 27 28  2  0  0  0  0
 28 30  1  0  0  0  0
 29 28  1  0  0  0  0
 30 31  1  0  0  0  0
 32 30  1  0  0  0  0
 32 33  1  0  0  0  0
 34 32  2  0  0  0  0
M  END
>  <minimizedAffinity>
-5.46336079

$$$$

 OpenBabel03272509413D

 34 36  0  0  1  0  0  0  0  0999 V2000
   35.9910   29.0730   32.9740 C   0  0  0  0  0  0  0  0  0  0  0  0
   36.0190   29.5210   31.6580 C   0  0  0  0  0  0  0  0  0  0  0  0
   36.8470   28.9740   30.6960 C   0  0  0  0  0  0  0  0  0  0  0  0
   37.6990   27.9280   31.0370 C   0  0  0  0  0  0  0  0  0  0  0  0
   37.6630   27.4930   32.3420 C   0  0  0  0  0  0  0  0  0  0  0  0
   36.8230   28.0600   33.2850 C   0  0  0  0  0  0  0  0  0  0  0  0
   35.4000   30.3240   31.2960 H   0  0  0  0  0  0  0  0  0  0  0  0
   36.8630   29.3280   29.6730 H   0  0  0  0  0  0  0  0  0  0  0  0
   38.3510   27.4960   30.2830 H   0  0  0  0  0  0  0  0  0  0  0  0
   38.3560   26.6710   32.5380 H   0  0  0  0  0  0  0  0  0  0  0  0
   35.0890   29.7120   33.9100 C   0  0  1  0  0  3  0  0  0  0  0  0
   35.6500   30.5990   34.6690 O   0  0  0  0  0  1  0  0  0  0  0  0
   31.9040   29.3570   35.5890 C   0  0  0  0  0  0  0  0  0  0  0  0
   31.0240   28.9780   34.5720 C   0  0  0  0  0  0  0  0  0  0  0  0
   31.5330   28.8450   33.3050 C   0  0  0  0  0  0  0  0  0  0  0  0
   32.8500   29.0800   33.0710 N   0  0  0  0  0  0  0  0  0  0  0  0
   33.6690   29.4370   34.0440 C   0  0  0  0  0  0  0  0  0  0  0  0
   33.1800   29.5710   35.2980 N   0  0  0  0  0  0  0  0  0  0  0  0
   31.5080   29.4630   36.5960 H   0  0  0  0  0  0  0  0  0  0  0  0
   29.9700   28.7840   34.7260 H   0  0  0  0  0  0  0  0  0  0  0  0
   30.9170   28.5570   32.4650 H   0  0  0  0  0  0  0  0  0  0  0  0
   36.9190   27.4820   34.6060 C   0  0  0  0  0  3  0  0  0  0  0  0
   38.0050   26.9900   35.1810 C   0  0  0  0  0  3  0  0  0  0  0  0
   38.2380   26.3960   36.5050 C   0  0  0  0  0  0  0  0  0  0  0  0
   37.5100   26.8170   37.2210 H   0  0  0  0  0  0  0  0  0  0  0  0
   39.2830   26.6150   36.7840 H   0  0  0  0  0  0  0  0  0  0  0  0
   38.0710   24.9220   36.4300 C   0  0  0  0  0  0  0  0  0  0  0  0
   37.6810   24.0110   37.4180 C   0  0  0  0  0  0  0  0  0  0  0  0
   37.4470   24.3460   38.4120 H   0  0  0  0  0  0  0  0  0  0  0  0
   37.6910   22.8030   36.8290 N   0  0  0  0  0  0  0  0  0  0  0  0
   37.4330   21.9170   37.3490 H   0  0  0  0  0  0  0  0  0  0  0  0
   38.0640   22.9280   35.5430 C   0  0  0  0  0  0  0  0  0  0  0  0
   38.1390   22.0800   34.8790 H   0  0  0  0  0  0  0  0  0  0  0  0
   38.2980   24.2190   35.2870 N   0  0  0  0  0  0  0  0  0  0  0  0
  1  6  1  0  0  0  0
  1 11  1  0  0  0  0
  2  1  2  0  0  0  0
  3  4  2  0  0  0  0
  3  2  1  0  0  0  0
  4  5  1  0  0  0  0
  5 10  1  0  0  0  0
  5  6  2  0  0  0  0
  6 22  1  0  0  0  0
  7  2  1  0  0  0  0
  8  3  1  0  0  0  0
  9  4  1  0  0  0  0
 11 17  1  0  0  0  0
 11 12  1  6  0  0  0
 13 19  1  0  0  0  0
 14 20  1  0  0  0  0
 14 13  2  0  0  0  0
 15 14  1  0  0  0  0
 16 15  2  0  0  0  0
 16 17  1  0  0  0  0
 17 18  2  0  0  0  0
 18 13  1  0  0  0  0
 21 15  1  0  0  0  0
 22 23  2  0  0  0  0
 23 24  1  0  0  0  0
 24 26  1  0  0  0  0
 24 25  1  0  0  0  0
 27 24  1  0  0  0  0
 27 28  2  0  0  0  0
 28 29  1  0  0  0  0
 30 31  1  0  0  0  0
 30 28  1  0  0  0  0
 32 30  1  0  0  0  0
 33 32  1  0  0  0  0
 34 32  2  0  0  0  0
 34 27  1  0  0  0  0
M  END
>  <minimizedAffinity>
-5.44171

$$$$

 OpenBabel03272509413D

 34 36  0  0  1  0  0  0  0  0999 V2000
   36.4770   28.6480   32.5080 C   0  0  0  0  0  0  0  0  0  0  0  0
   35.9740   29.7000   31.7500 C   0  0  0  0  0  0  0  0  0  0  0  0
   35.3000   30.7710   32.3050 C   0  0  0  0  0  0  0  0  0  0  0  0
   35.1040   30.8200   33.6820 C   0  0  0  0  0  0  0  0  0  0  0  0
   35.6050   29.7750   34.4220 C   0  0  0  0  0  0  0  0  0  0  0  0
   36.2770   28.7140   33.8390 C   0  0  0  0  0  0  0  0  0  0  0  0
   36.0740   29.7540   30.6790 H   0  0  0  0  0  0  0  0  0  0  0  0
   34.9120   31.5860   31.7080 H   0  0  0  0  0  0  0  0  0  0  0  0
   34.5740   31.6610   34.1210 H   0  0  0  0  0  0  0  0  0  0  0  0
   35.4160   29.8790   35.4930 H   0  0  0  0  0  0  0  0  0  0  0  0
   37.1680   27.5700   31.8340 C   0  0  1  0  0  3  0  0  0  0  0  0
   38.3110   27.9060   31.3250 O   0  0  0  0  0  1  0  0  0  0  0  0
   34.9320   24.9020   30.8480 C   0  0  0  0  0  0  0  0  0  0  0  0
   35.5610   23.7430   31.3090 C   0  0  0  0  0  0  0  0  0  0  0  0
   36.7590   23.8850   31.9620 C   0  0  0  0  0  0  0  0  0  0  0  0
   37.2970   25.1190   32.1410 N   0  0  0  0  0  0  0  0  0  0  0  0
   36.6880   26.2050   31.6980 C   0  0  0  0  0  0  0  0  0  0  0  0
   35.5070   26.0790   31.0530 N   0  0  0  0  0  0  0  0  0  0  0  0
   33.9820   24.7970   30.3290 H   0  0  0  0  0  0  0  0  0  0  0  0
   35.1600   22.7450   31.1830 H   0  0  0  0  0  0  0  0  0  0  0  0
   37.3080   23.0370   32.3490 H   0  0  0  0  0  0  0  0  0  0  0  0
   36.7320   27.7030   34.7660 C   0  0  0  0  0  3  0  0  0  0  0  0
   37.8840   27.6810   35.4160 C   0  0  0  0  0  3  0  0  0  0  0  0
   38.4540   26.7330   36.3830 C   0  0  0  0  0  0  0  0  0  0  0  0
   37.7540   26.6180   37.2300 H   0  0  0  0  0  0  0  0  0  0  0  0
   39.4350   27.1300   36.6940 H   0  0  0  0  0  0  0  0  0  0  0  0
   38.6670   25.4160   35.7300 C   0  0  0  0  0  0  0  0  0  0  0  0
   39.6210   25.0260   34.7840 C   0  0  0  0  0  0  0  0  0  0  0  0
   40.3500   25.7250   34.4190 H   0  0  0  0  0  0  0  0  0  0  0  0
   39.3750   23.7300   34.5250 N   0  0  0  0  0  0  0  0  0  0  0  0
   39.9520   23.1700   33.8370 H   0  0  0  0  0  0  0  0  0  0  0  0
   38.3290   23.3110   35.2600 C   0  0  0  0  0  0  0  0  0  0  0  0
   37.9580   22.2990   35.2100 H   0  0  0  0  0  0  0  0  0  0  0  0
   37.8870   24.3330   36.0010 N   0  0  0  0  0  0  0  0  0  0  0  0
  1  6  1  0  0  0  0
  2  3  1  0  0  0  0
  2  1  2  0  0  0  0
  3  4  2  0  0  0  0
  4  9  1  0  0  0  0
  4  5  1  0  0  0  0
  5 10  1  0  0  0  0
  6  5  2  0  0  0  0
  6 22  1  0  0  0  0
  7  2  1  0  0  0  0
  8  3  1  0  0  0  0
 11 12  1  1  0  0  0
 11  1  1  0  0  0  0
 13 18  2  0  0  0  0
 13 14  1  0  0  0  0
 14 15  2  0  0  0  0
 15 16  1  0  0  0  0
 15 21  1  0  0  0  0
 17 11  1  0  0  0  0
 17 16  2  0  0  0  0
 18 17  1  0  0  0  0
 19 13  1  0  0  0  0
 20 14  1  0  0  0  0
 22 23  2  0  0  0  0
 23 24  1  0  0  0  0
 24 26  1  0  0  0  0
 24 25  1  0  0  0  0
 27 34  1  0  0  0  0
 27 24  1  0  0  0  0
 28 27  2  0  0  0  0
 29 28  1  0  0  0  0
 30 28  1  0  0  0  0
 30 32  1  0  0  0  0
 31 30  1  0  0  0  0
 32 34  2  0  0  0  0
 33 32  1  0  0  0  0
M  END
>  <minimizedAffinity>
-5.35013056

$$$$

 OpenBabel03272509413D

 34 36  0  0  1  0  0  0  0  0999 V2000
   37.6220   22.2790   33.4250 C   0  0  0  0  0  0  0  0  0  0  0  0
   36.8890   21.1010   33.3280 C   0  0  0  0  0  0  0  0  0  0  0  0
   35.7970   20.9620   32.4920 C   0  0  0  0  0  0  0  0  0  0  0  0
   35.3960   22.0350   31.7030 C   0  0  0  0  0  0  0  0  0  0  0  0
   36.1280   23.1950   31.8060 C   0  0  0  0  0  0  0  0  0  0  0  0
   37.2180   23.3060   32.6520 C   0  0  0  0  0  0  0  0  0  0  0  0
   37.1190   20.2160   33.8980 H   0  0  0  0  0  0  0  0  0  0  0  0
   35.2330   20.0410   32.4230 H   0  0  0  0  0  0  0  0  0  0  0  0
   34.5380   21.9280   31.0450 H   0  0  0  0  0  0  0  0  0  0  0  0
   35.7570   23.9930   31.1590 H   0  0  0  0  0  0  0  0  0  0  0  0
   38.7500   22.3270   34.3320 C   0  0  1  0  0  3  0  0  0  0  0  0
   39.8760   21.9720   33.8000 O   0  0  0  0  0  1  0  0  0  0  0  0
   39.9060   22.6850   37.7410 C   0  0  0  0  0  0  0  0  0  0  0  0
   38.8690   23.3680   38.3820 C   0  0  0  0  0  0  0  0  0  0  0  0
   37.7690   23.7040   37.6340 C   0  0  0  0  0  0  0  0  0  0  0  0
   37.7130   23.3740   36.3180 N   0  0  0  0  0  0  0  0  0  0  0  0
   38.7030   22.7290   35.7280 C   0  0  0  0  0  0  0  0  0  0  0  0
   39.7920   22.3920   36.4530 N   0  0  0  0  0  0  0  0  0  0  0  0
   40.7810   22.4160   38.3280 H   0  0  0  0  0  0  0  0  0  0  0  0
   38.8830   23.6440   39.4290 H   0  0  0  0  0  0  0  0  0  0  0  0
   36.9250   24.2320   38.0570 H   0  0  0  0  0  0  0  0  0  0  0  0
   37.8670   24.5970   32.6370 C   0  0  0  0  0  3  0  0  0  0  0  0
   37.4620   25.6970   33.2520 C   0  0  0  0  0  3  0  0  0  0  0  0
   38.0290   27.0510   33.3280 C   0  0  0  0  0  0  0  0  0  0  0  0
   37.4520   27.6420   34.0610 H   0  0  0  0  0  0  0  0  0  0  0  0
   37.9900   27.4810   32.3120 H   0  0  0  0  0  0  0  0  0  0  0  0
   39.4500   26.9780   33.7530 C   0  0  0  0  0  0  0  0  0  0  0  0
   40.0030   26.5950   34.9800 C   0  0  0  0  0  0  0  0  0  0  0  0
   39.3720   26.2920   35.7950 H   0  0  0  0  0  0  0  0  0  0  0  0
   41.3340   26.7080   34.8360 N   0  0  0  0  0  0  0  0  0  0  0  0
   42.0100   26.4800   35.6170 H   0  0  0  0  0  0  0  0  0  0  0  0
   41.6220   27.1360   33.5930 C   0  0  0  0  0  0  0  0  0  0  0  0
   42.6350   27.2970   33.2580 H   0  0  0  0  0  0  0  0  0  0  0  0
   40.4780   27.3040   32.9210 N   0  0  0  0  0  0  0  0  0  0  0  0
  1 11  1  0  0  0  0
  2  1  1  0  0  0  0
  2  7  1  0  0  0  0
  3  2  2  0  0  0  0
  4  5  2  0  0  0  0
  4  3  1  0  0  0  0
  5  6  1  0  0  0  0
  6  1  2  0  0  0  0
  8  3  1  0  0  0  0
  9  4  1  0  0  0  0
 10  5  1  0  0  0  0
 11 12  1  6  0  0  0
 11 17  1  0  0  0  0
 13 19  1  0  0  0  0
 13 14  1  0  0  0  0
 14 20  1  0  0  0  0
 15 21  1  0  0  0  0
 15 14  2  0  0  0  0
 16 15  1  0  0  0  0
 17 16  2  0  0  0  0
 17 18  1  0  0  0  0
 18 13  2  0  0  0  0
 22  6  1  0  0  0  0
 22 23  2  0  0  0  0
 23 24  1  0  0  0  0
 24 27  1  0  0  0  0
 24 25  1  0  0  0  0
 26 24  1  0  0  0  0
 27 28  2  0  0  0  0
 28 29  1  0  0  0  0
 30 28  1  0  0  0  0
 30 31  1  0  0  0  0
 32 30  1  0  0  0  0
 33 32  1  0  0  0  0
 34 32  2  0  0  0  0
 34 27  1  0  0  0  0
M  END
>  <minimizedAffinity>
-5.29998636

$$$$

 OpenBabel03272509413D

 34 36  0  0  1  0  0  0  0  0999 V2000
   40.0060   22.7610   36.4060 C   0  0  0  0  0  0  0  0  0  0  0  0
   40.5890   21.7700   37.1880 C   0  0  0  0  0  0  0  0  0  0  0  0
   41.9550   21.5660   37.2460 C   0  0  0  0  0  0  0  0  0  0  0  0
   42.8030   22.3770   36.4990 C   0  0  0  0  0  0  0  0  0  0  0  0
   42.2160   23.3550   35.7300 C   0  0  0  0  0  0  0  0  0  0  0  0
   40.8440   23.5370   35.6910 C   0  0  0  0  0  0  0  0  0  0  0  0
   40.0190   21.0910   37.8000 H   0  0  0  0  0  0  0  0  0  0  0  0
   42.4010   20.7910   37.8570 H   0  0  0  0  0  0  0  0  0  0  0  0
   43.8770   22.2190   36.5430 H   0  0  0  0  0  0  0  0  0  0  0  0
   42.9400   23.9530   35.1720 H   0  0  0  0  0  0  0  0  0  0  0  0
   38.5640   22.8950   36.4100 C   0  0  1  0  0  3  0  0  0  0  0  0
   38.1140   23.7730   37.2500 O   0  0  0  0  0  1  0  0  0  0  0  0
   35.6910   20.8410   35.6270 C   0  0  0  0  0  0  0  0  0  0  0  0
   35.7540   20.6820   34.2400 C   0  0  0  0  0  0  0  0  0  0  0  0
   36.7920   21.2860   33.5760 C   0  0  0  0  0  0  0  0  0  0  0  0
   37.7130   22.0080   34.2640 N   0  0  0  0  0  0  0  0  0  0  0  0
   37.6380   22.1480   35.5750 C   0  0  0  0  0  0  0  0  0  0  0  0
   36.6210   21.5580   36.2420 N   0  0  0  0  0  0  0  0  0  0  0  0
   34.8720   20.3650   36.1600 H   0  0  0  0  0  0  0  0  0  0  0  0
   35.0360   20.1120   33.6640 H   0  0  0  0  0  0  0  0  0  0  0  0
   36.9100   21.2100   32.5040 H   0  0  0  0  0  0  0  0  0  0  0  0
   40.4000   24.6070   34.8270 C   0  0  0  0  0  3  0  0  0  0  0  0
   40.7830   25.8730   34.8690 C   0  0  0  0  0  3  0  0  0  0  0  0
   40.4250   27.0400   34.0520 C   0  0  0  0  0  0  0  0  0  0  0  0
   40.8380   26.9090   33.0360 H   0  0  0  0  0  0  0  0  0  0  0  0
   40.8260   27.9340   34.5610 H   0  0  0  0  0  0  0  0  0  0  0  0
   38.9470   27.1670   33.9770 C   0  0  0  0  0  0  0  0  0  0  0  0
   38.0940   27.0980   32.8700 C   0  0  0  0  0  0  0  0  0  0  0  0
   38.4870   26.9300   31.8850 H   0  0  0  0  0  0  0  0  0  0  0  0
   36.8520   27.2780   33.3510 N   0  0  0  0  0  0  0  0  0  0  0  0
   35.9970   27.2730   32.7270 H   0  0  0  0  0  0  0  0  0  0  0  0
   36.9010   27.4520   34.6840 C   0  0  0  0  0  0  0  0  0  0  0  0
   36.0150   27.6130   35.2770 H   0  0  0  0  0  0  0  0  0  0  0  0
   38.1770   27.3860   35.0780 N   0  0  0  0  0  0  0  0  0  0  0  0
  1 11  1  0  0  0  0
  1  2  1  0  0  0  0
  2  3  2  0  0  0  0
  2  7  1  0  0  0  0
  3  8  1  0  0  0  0
  4  9  1  0  0  0  0
  4  3  1  0  0  0  0
  5  4  2  0  0  0  0
  6  5  1  0  0  0  0
  6  1  2  0  0  0  0
 10  5  1  0  0  0  0
 11 12  1  6  0  0  0
 13 19  1  0  0  0  0
 13 18  1  0  0  0  0
 14 13  2  0  0  0  0
 15 14  1  0  0  0  0
 15 16  2  0  0  0  0
 16 17  1  0  0  0  0
 17 18  2  0  0  0  0
 17 11  1  0  0  0  0
 20 14  1  0  0  0  0
 21 15  1  0  0  0  0
 22 23  2  0  0  0  0
 22  6  1  0  0  0  0
 24 26  1  0  0  0  0
 24 23  1  0  0  0  0
 25 24  1  0  0  0  0
 27 24  1  0  0  0  0
 27 34  1  0  0  0  0
 28 30  1  0  0  0  0
 28 27  2  0  0  0  0
 29 28  1  0  0  0  0
 30 32  1  0  0  0  0
 31 30  1  0  0  0  0
 32 34  2  0  0  0  0
 32 33  1  0  0  0  0
M  END
>  <minimizedAffinity>
-5.28752327

$$$$
