
 OpenBabel03262523373D

 33 35  0  0  1  0  0  0  0  0999 V2000
   38.0040   25.8270   33.5350 C   0  0  2  0  0  0  0  0  0  0  0  0
   38.3950   24.7750   34.5520 C   0  0  0  0  0  0  0  0  0  0  0  0
   37.8800   25.0740   35.9240 C   0  0  2  0  0  0  0  0  0  0  0  0
   38.2290   26.4490   36.4210 C   0  0  0  0  0  0  0  0  0  0  0  0
   38.1490   27.5090   35.3650 C   0  0  0  0  0  0  0  0  0  0  0  0
   37.3950   27.0410   34.1370 C   0  0  0  0  0  0  0  0  0  0  0  0
   38.9430   26.1140   32.9970 H   0  0  0  0  0  0  0  0  0  0  0  0
   39.4910   24.6380   34.6090 H   0  0  0  0  0  0  0  0  0  0  0  0
   37.9970   23.7580   34.2930 H   0  0  0  0  0  0  0  0  0  0  0  0
   36.7950   24.8490   36.0250 H   0  0  0  0  0  0  0  0  0  0  0  0
   37.5100   26.7270   37.2290 H   0  0  0  0  0  0  0  0  0  0  0  0
   39.2270   26.4630   36.9430 H   0  0  0  0  0  0  0  0  0  0  0  0
   39.2130   27.6510   35.0140 H   0  0  0  0  0  0  0  0  0  0  0  0
   37.7540   28.4770   35.7020 H   0  0  0  0  0  0  0  0  0  0  0  0
   37.3850   27.8520   33.4050 H   0  0  0  0  0  0  0  0  0  0  0  0
   36.3530   26.8490   34.4560 H   0  0  0  0  0  0  0  0  0  0  0  0
   37.0290   25.2490   32.5670 C   0  0  0  0  0  0  0  0  0  0  0  0
   36.1900   26.1680   31.9120 C   0  0  0  0  0  0  0  0  0  0  0  0
   35.2590   25.6340   31.0090 C   0  0  0  0  0  0  0  0  0  0  0  0
   35.2190   24.2710   30.8200 N   0  0  0  0  0  0  0  0  0  0  0  0
   36.0450   23.4250   31.4720 C   0  0  0  0  0  0  0  0  0  0  0  0
   36.9410   23.9260   32.3380 N   0  0  0  0  0  0  0  0  0  0  0  0
   36.2240   27.2370   32.0620 H   0  0  0  0  0  0  0  0  0  0  0  0
   34.5760   26.2420   30.4600 H   0  0  0  0  0  0  0  0  0  0  0  0
   35.9890   22.3600   31.3020 H   0  0  0  0  0  0  0  0  0  0  0  0
   38.5650   24.0960   36.8400 C   0  0  0  0  0  0  0  0  0  0  0  0
   38.1490   23.7570   38.1170 C   0  0  0  0  0  0  0  0  0  0  0  0
   37.2770   24.1480   38.6300 H   0  0  0  0  0  0  0  0  0  0  0  0
   39.0520   22.8570   38.5580 N   0  0  0  0  0  0  0  0  0  0  0  0
   38.9770   22.4280   39.5120 H   0  0  0  0  0  0  0  0  0  0  0  0
   40.0000   22.6200   37.6320 C   0  0  0  0  0  0  0  0  0  0  0  0
   40.8040   21.9210   37.8200 H   0  0  0  0  0  0  0  0  0  0  0  0
   39.6990   23.3890   36.5630 N   0  0  0  0  0  0  0  0  0  0  0  0
  1  7  1  6  0  0  0
  1  6  1  0  0  0  0
  1  2  1  0  0  0  0
  2  8  1  0  0  0  0
  2  3  1  0  0  0  0
  3 10  1  1  0  0  0
  3  4  1  0  0  0  0
  3 26  1  0  0  0  0
  4 12  1  0  0  0  0
  4 11  1  0  0  0  0
  5 14  1  0  0  0  0
  5  4  1  0  0  0  0
  6 16  1  0  0  0  0
  6  5  1  0  0  0  0
  9  2  1  0  0  0  0
 13  5  1  0  0  0  0
 15  6  1  0  0  0  0
 17  1  1  0  0  0  0
 18 23  1  0  0  0  0
 18 17  2  0  0  0  0
 19 18  1  0  0  0  0
 20 19  2  0  0  0  0
 20 21  1  0  0  0  0
 21 22  2  0  0  0  0
 22 17  1  0  0  0  0
 24 19  1  0  0  0  0
 25 21  1  0  0  0  0
 26 27  2  0  0  0  0
 27 29  1  0  0  0  0
 27 28  1  0  0  0  0
 29 30  1  0  0  0  0
 31 32  1  0  0  0  0
 31 29  1  0  0  0  0
 33 26  1  0  0  0  0
 33 31  2  0  0  0  0
M  END
>  <minimizedAffinity>
-5.65122223

$$$$

 OpenBabel03262523373D

 33 35  0  0  1  0  0  0  0  0999 V2000
   38.6510   26.1940   35.2690 C   0  0  2  0  0  0  0  0  0  0  0  0
   37.5760   25.9260   34.2380 C   0  0  0  0  0  0  0  0  0  0  0  0
   38.1330   25.6370   32.8790 C   0  0  2  0  0  0  0  0  0  0  0  0
   39.0980   26.6760   32.3830 C   0  0  0  0  0  0  0  0  0  0  0  0
   40.0090   27.2100   33.4460 C   0  0  0  0  0  0  0  0  0  0  0  0
   40.0100   26.3430   34.6890 C   0  0  0  0  0  0  0  0  0  0  0  0
   38.3650   27.1450   35.7870 H   0  0  0  0  0  0  0  0  0  0  0  0
   36.8600   26.7650   34.1540 H   0  0  0  0  0  0  0  0  0  0  0  0
   36.9400   25.0390   34.5010 H   0  0  0  0  0  0  0  0  0  0  0  0
   38.5420   24.6060   32.8030 H   0  0  0  0  0  0  0  0  0  0  0  0
   39.7390   26.2160   31.5930 H   0  0  0  0  0  0  0  0  0  0  0  0
   38.5700   27.5090   31.8370 H   0  0  0  0  0  0  0  0  0  0  0  0
   39.5360   28.1820   33.7730 H   0  0  0  0  0  0  0  0  0  0  0  0
   41.0400   27.4070   33.1230 H   0  0  0  0  0  0  0  0  0  0  0  0
   40.6800   26.7930   35.4250 H   0  0  0  0  0  0  0  0  0  0  0  0
   40.4280   25.3620   34.3930 H   0  0  0  0  0  0  0  0  0  0  0  0
   38.6870   25.0780   36.2570 C   0  0  0  0  0  0  0  0  0  0  0  0
   39.5150   23.9900   35.9300 C   0  0  0  0  0  0  0  0  0  0  0  0
   39.5450   22.9270   36.8450 C   0  0  0  0  0  0  0  0  0  0  0  0
   38.7790   23.0090   37.9870 N   0  0  0  0  0  0  0  0  0  0  0  0
   37.9980   24.0750   38.2600 C   0  0  0  0  0  0  0  0  0  0  0  0
   37.9620   25.0980   37.3910 N   0  0  0  0  0  0  0  0  0  0  0  0
   40.1150   23.9290   35.0340 H   0  0  0  0  0  0  0  0  0  0  0  0
   40.1390   22.0550   36.6950 H   0  0  0  0  0  0  0  0  0  0  0  0
   37.4090   24.1080   39.1640 H   0  0  0  0  0  0  0  0  0  0  0  0
   36.9550   25.6560   31.9430 C   0  0  0  0  0  0  0  0  0  0  0  0
   36.6400   26.6780   31.0620 C   0  0  0  0  0  0  0  0  0  0  0  0
   37.1950   27.5990   30.9260 H   0  0  0  0  0  0  0  0  0  0  0  0
   35.5170   26.2710   30.4330 N   0  0  0  0  0  0  0  0  0  0  0  0
   35.0540   26.8630   29.7020 H   0  0  0  0  0  0  0  0  0  0  0  0
   35.1210   25.0620   30.8720 C   0  0  0  0  0  0  0  0  0  0  0  0
   34.2360   24.5840   30.4730 H   0  0  0  0  0  0  0  0  0  0  0  0
   36.0130   24.6780   31.8100 N   0  0  0  0  0  0  0  0  0  0  0  0
  1  7  1  1  0  0  0
  1 17  1  0  0  0  0
  2  9  1  0  0  0  0
  2  1  1  0  0  0  0
  3 10  1  6  0  0  0
  3  2  1  0  0  0  0
  4  3  1  0  0  0  0
  4  5  1  0  0  0  0
  5 13  1  0  0  0  0
  5  6  1  0  0  0  0
  6  1  1  0  0  0  0
  6 15  1  0  0  0  0
  8  2  1  0  0  0  0
 11  4  1  0  0  0  0
 12  4  1  0  0  0  0
 14  5  1  0  0  0  0
 16  6  1  0  0  0  0
 17 22  1  0  0  0  0
 18 17  2  0  0  0  0
 18 19  1  0  0  0  0
 19 20  2  0  0  0  0
 20 21  1  0  0  0  0
 21 25  1  0  0  0  0
 22 21  2  0  0  0  0
 23 18  1  0  0  0  0
 24 19  1  0  0  0  0
 26  3  1  0  0  0  0
 27 26  2  0  0  0  0
 28 27  1  0  0  0  0
 29 31  1  0  0  0  0
 29 27  1  0  0  0  0
 30 29  1  0  0  0  0
 31 33  2  0  0  0  0
 32 31  1  0  0  0  0
 33 26  1  0  0  0  0
M  END
>  <minimizedAffinity>
-4.93964767

$$$$

 OpenBabel03262523373D

 33 35  0  0  1  0  0  0  0  0999 V2000
   39.1350   25.9740   33.6230 C   0  0  2  0  0  0  0  0  0  0  0  0
   39.4320   24.8820   34.6290 C   0  0  0  0  0  0  0  0  0  0  0  0
   38.4220   24.8170   35.7310 C   0  0  2  0  0  0  0  0  0  0  0  0
   38.1920   26.1310   36.4250 C   0  0  0  0  0  0  0  0  0  0  0  0
   38.1860   27.3090   35.4990 C   0  0  0  0  0  0  0  0  0  0  0  0
   38.0500   26.8970   34.0470 C   0  0  0  0  0  0  0  0  0  0  0  0
   40.0840   26.5550   33.4950 H   0  0  0  0  0  0  0  0  0  0  0  0
   40.4370   24.9900   35.0770 H   0  0  0  0  0  0  0  0  0  0  0  0
   39.4390   23.8600   34.1640 H   0  0  0  0  0  0  0  0  0  0  0  0
   37.4730   24.3370   35.4050 H   0  0  0  0  0  0  0  0  0  0  0  0
   37.1960   26.0960   36.9280 H   0  0  0  0  0  0  0  0  0  0  0  0
   38.9110   26.2820   37.2790 H   0  0  0  0  0  0  0  0  0  0  0  0
   39.2250   27.7460   35.5790 H   0  0  0  0  0  0  0  0  0  0  0  0
   37.4520   28.0890   35.7390 H   0  0  0  0  0  0  0  0  0  0  0  0
   38.0670   27.7970   33.4280 H   0  0  0  0  0  0  0  0  0  0  0  0
   37.0570   26.4210   33.9420 H   0  0  0  0  0  0  0  0  0  0  0  0
   38.7430   25.3630   32.3210 C   0  0  0  0  0  0  0  0  0  0  0  0
   37.3930   24.9880   32.1960 C   0  0  0  0  0  0  0  0  0  0  0  0
   37.0160   24.3990   30.9800 C   0  0  0  0  0  0  0  0  0  0  0  0
   37.9680   24.2240   30.0010 N   0  0  0  0  0  0  0  0  0  0  0  0
   39.2540   24.6000   30.1650 C   0  0  0  0  0  0  0  0  0  0  0  0
   39.6250   25.1660   31.3250 N   0  0  0  0  0  0  0  0  0  0  0  0
   36.6490   25.1270   32.9670 H   0  0  0  0  0  0  0  0  0  0  0  0
   36.0190   24.0790   30.7810 H   0  0  0  0  0  0  0  0  0  0  0  0
   39.9760   24.4490   29.3770 H   0  0  0  0  0  0  0  0  0  0  0  0
   38.9970   23.8790   36.7580 C   0  0  0  0  0  0  0  0  0  0  0  0
   38.4210   23.5650   37.9770 C   0  0  0  0  0  0  0  0  0  0  0  0
   37.4820   23.9490   38.3590 H   0  0  0  0  0  0  0  0  0  0  0  0
   39.2750   22.6980   38.5600 N   0  0  0  0  0  0  0  0  0  0  0  0
   39.0820   22.2920   39.5080 H   0  0  0  0  0  0  0  0  0  0  0  0
   40.3420   22.4580   37.7760 C   0  0  0  0  0  0  0  0  0  0  0  0
   41.1280   21.7840   38.0890 H   0  0  0  0  0  0  0  0  0  0  0  0
   40.1710   23.1920   36.6550 N   0  0  0  0  0  0  0  0  0  0  0  0
  1  7  1  6  0  0  0
  1  6  1  0  0  0  0
  1  2  1  0  0  0  0
  2  8  1  0  0  0  0
  2  3  1  0  0  0  0
  3 10  1  6  0  0  0
  3  4  1  0  0  0  0
  3 26  1  0  0  0  0
  4 11  1  0  0  0  0
  4 12  1  0  0  0  0
  5 13  1  0  0  0  0
  5 14  1  0  0  0  0
  5  4  1  0  0  0  0
  6  5  1  0  0  0  0
  9  2  1  0  0  0  0
 15  6  1  0  0  0  0
 16  6  1  0  0  0  0
 17  1  1  0  0  0  0
 18 17  1  0  0  0  0
 18 23  1  0  0  0  0
 19 18  2  0  0  0  0
 20 21  2  0  0  0  0
 20 19  1  0  0  0  0
 21 22  1  0  0  0  0
 22 17  2  0  0  0  0
 24 19  1  0  0  0  0
 25 21  1  0  0  0  0
 26 27  2  0  0  0  0
 27 28  1  0  0  0  0
 27 29  1  0  0  0  0
 29 30  1  0  0  0  0
 31 32  1  0  0  0  0
 31 29  1  0  0  0  0
 33 26  1  0  0  0  0
 33 31  2  0  0  0  0
M  END
>  <minimizedAffinity>
-4.84362316

$$$$

 OpenBabel03262523373D

 33 35  0  0  1  0  0  0  0  0999 V2000
   38.4950   23.8850   32.8990 C   0  0  2  0  0  0  0  0  0  0  0  0
   38.2010   23.6270   34.3620 C   0  0  0  0  0  0  0  0  0  0  0  0
   39.0890   24.4080   35.2790 C   0  0  2  0  0  0  0  0  0  0  0  0
   40.5550   24.2420   34.9940 C   0  0  0  0  0  0  0  0  0  0  0  0
   40.8830   24.1890   33.5330 C   0  0  0  0  0  0  0  0  0  0  0  0
   39.7350   24.6700   32.6690 C   0  0  0  0  0  0  0  0  0  0  0  0
   38.5980   22.8810   32.4130 H   0  0  0  0  0  0  0  0  0  0  0  0
   38.2820   22.5550   34.6200 H   0  0  0  0  0  0  0  0  0  0  0  0
   37.1510   23.9060   34.6440 H   0  0  0  0  0  0  0  0  0  0  0  0
   38.7870   25.4760   35.3490 H   0  0  0  0  0  0  0  0  0  0  0  0
   41.1010   25.1150   35.4280 H   0  0  0  0  0  0  0  0  0  0  0  0
   40.9910   23.3620   35.5470 H   0  0  0  0  0  0  0  0  0  0  0  0
   40.9810   23.0880   33.2980 H   0  0  0  0  0  0  0  0  0  0  0  0
   41.8120   24.6980   33.2430 H   0  0  0  0  0  0  0  0  0  0  0  0
   40.0330   24.5920   31.6210 H   0  0  0  0  0  0  0  0  0  0  0  0
   39.5820   25.7390   32.9080 H   0  0  0  0  0  0  0  0  0  0  0  0
   37.3570   24.6240   32.2820 C   0  0  0  0  0  0  0  0  0  0  0  0
   36.3520   23.8350   31.6940 C   0  0  0  0  0  0  0  0  0  0  0  0
   35.2840   24.5210   31.0970 C   0  0  0  0  0  0  0  0  0  0  0  0
   35.2800   25.8980   31.1200 N   0  0  0  0  0  0  0  0  0  0  0  0
   36.2680   26.6160   31.6960 C   0  0  0  0  0  0  0  0  0  0  0  0
   37.2940   25.9690   32.2710 N   0  0  0  0  0  0  0  0  0  0  0  0
   36.3580   22.7550   31.6790 H   0  0  0  0  0  0  0  0  0  0  0  0
   34.4710   24.0190   30.6250 H   0  0  0  0  0  0  0  0  0  0  0  0
   36.2350   27.6950   31.6970 H   0  0  0  0  0  0  0  0  0  0  0  0
   38.8480   23.8470   36.6550 C   0  0  0  0  0  0  0  0  0  0  0  0
   39.6830   22.9690   37.3260 C   0  0  0  0  0  0  0  0  0  0  0  0
   40.6190   22.5680   36.9560 H   0  0  0  0  0  0  0  0  0  0  0  0
   39.0770   22.7390   38.5100 N   0  0  0  0  0  0  0  0  0  0  0  0
   39.5000   22.1000   39.2270 H   0  0  0  0  0  0  0  0  0  0  0  0
   37.9200   23.4200   38.6100 C   0  0  0  0  0  0  0  0  0  0  0  0
   37.3040   23.3510   39.4960 H   0  0  0  0  0  0  0  0  0  0  0  0
   37.7760   24.1090   37.4570 N   0  0  0  0  0  0  0  0  0  0  0  0
  1  7  1  6  0  0  0
  1  2  1  0  0  0  0
  2  8  1  0  0  0  0
  2  9  1  0  0  0  0
  2  3  1  0  0  0  0
  3 10  1  6  0  0  0
  3 26  1  0  0  0  0
  4  3  1  0  0  0  0
  4 11  1  0  0  0  0
  4 12  1  0  0  0  0
  5  4  1  0  0  0  0
  6  1  1  0  0  0  0
  6 16  1  0  0  0  0
  6  5  1  0  0  0  0
 13  5  1  0  0  0  0
 14  5  1  0  0  0  0
 15  6  1  0  0  0  0
 17  1  1  0  0  0  0
 18 17  2  0  0  0  0
 19 20  2  0  0  0  0
 19 18  1  0  0  0  0
 20 21  1  0  0  0  0
 21 25  1  0  0  0  0
 21 22  2  0  0  0  0
 22 17  1  0  0  0  0
 23 18  1  0  0  0  0
 24 19  1  0  0  0  0
 26 27  2  0  0  0  0
 26 33  1  0  0  0  0
 27 29  1  0  0  0  0
 28 27  1  0  0  0  0
 29 31  1  0  0  0  0
 29 30  1  0  0  0  0
 31 32  1  0  0  0  0
 33 31  2  0  0  0  0
M  END
>  <minimizedAffinity>
-4.83181334

$$$$

 OpenBabel03262523373D

 33 35  0  0  1  0  0  0  0  0999 V2000
   38.6960   25.8390   35.2060 C   0  0  2  0  0  0  0  0  0  0  0  0
   37.9540   25.4550   33.9430 C   0  0  0  0  0  0  0  0  0  0  0  0
   37.5530   26.6400   33.1220 C   0  0  2  0  0  0  0  0  0  0  0  0
   36.7920   27.6840   33.8900 C   0  0  0  0  0  0  0  0  0  0  0  0
   37.3030   27.9010   35.2820 C   0  0  0  0  0  0  0  0  0  0  0  0
   38.6770   27.2970   35.4890 C   0  0  0  0  0  0  0  0  0  0  0  0
   38.1970   25.2930   36.0470 H   0  0  0  0  0  0  0  0  0  0  0  0
   37.0520   24.8530   34.1580 H   0  0  0  0  0  0  0  0  0  0  0  0
   38.5700   24.8080   33.2630 H   0  0  0  0  0  0  0  0  0  0  0  0
   38.4090   27.0680   32.5560 H   0  0  0  0  0  0  0  0  0  0  0  0
   36.8780   28.6560   33.3470 H   0  0  0  0  0  0  0  0  0  0  0  0
   35.6840   27.4790   33.8850 H   0  0  0  0  0  0  0  0  0  0  0  0
   36.6160   27.2910   35.9410 H   0  0  0  0  0  0  0  0  0  0  0  0
   37.2930   28.9430   35.6260 H   0  0  0  0  0  0  0  0  0  0  0  0
   38.9830   27.4780   36.5220 H   0  0  0  0  0  0  0  0  0  0  0  0
   39.3690   27.8440   34.8220 H   0  0  0  0  0  0  0  0  0  0  0  0
   40.1190   25.4050   35.1020 C   0  0  0  0  0  0  0  0  0  0  0  0
   41.0220   26.3610   34.6050 C   0  0  0  0  0  0  0  0  0  0  0  0
   42.3610   25.9590   34.4900 C   0  0  0  0  0  0  0  0  0  0  0  0
   42.7070   24.6790   34.8610 N   0  0  0  0  0  0  0  0  0  0  0  0
   41.8040   23.7930   35.3330 C   0  0  0  0  0  0  0  0  0  0  0  0
   40.5210   24.1680   35.4480 N   0  0  0  0  0  0  0  0  0  0  0  0
   40.7470   27.3650   34.3160 H   0  0  0  0  0  0  0  0  0  0  0  0
   43.1260   26.6060   34.1250 H   0  0  0  0  0  0  0  0  0  0  0  0
   42.1080   22.7960   35.6160 H   0  0  0  0  0  0  0  0  0  0  0  0
   36.6190   26.1090   32.0680 C   0  0  0  0  0  0  0  0  0  0  0  0
   36.0580   26.8480   31.0400 C   0  0  0  0  0  0  0  0  0  0  0  0
   36.2140   27.9040   30.8530 H   0  0  0  0  0  0  0  0  0  0  0  0
   35.2980   25.9730   30.3480 N   0  0  0  0  0  0  0  0  0  0  0  0
   34.7510   26.2710   29.5040 H   0  0  0  0  0  0  0  0  0  0  0  0
   35.3550   24.7410   30.8870 C   0  0  0  0  0  0  0  0  0  0  0  0
   34.8040   23.9150   30.4560 H   0  0  0  0  0  0  0  0  0  0  0  0
   36.1760   24.8230   31.9560 N   0  0  0  0  0  0  0  0  0  0  0  0
  1  6  1  0  0  0  0
  1  7  1  1  0  0  0
  2  8  1  0  0  0  0
  2  1  1  0  0  0  0
  3 10  1  6  0  0  0
  3  4  1  0  0  0  0
  3  2  1  0  0  0  0
  4  5  1  0  0  0  0
  5  6  1  0  0  0  0
  5 14  1  0  0  0  0
  5 13  1  0  0  0  0
  6 15  1  0  0  0  0
  9  2  1  0  0  0  0
 11  4  1  0  0  0  0
 12  4  1  0  0  0  0
 16  6  1  0  0  0  0
 17  1  1  0  0  0  0
 17 22  1  0  0  0  0
 18 17  2  0  0  0  0
 19 18  1  0  0  0  0
 19 20  2  0  0  0  0
 20 21  1  0  0  0  0
 21 22  2  0  0  0  0
 21 25  1  0  0  0  0
 23 18  1  0  0  0  0
 24 19  1  0  0  0  0
 26  3  1  0  0  0  0
 27 26  2  0  0  0  0
 28 27  1  0  0  0  0
 29 31  1  0  0  0  0
 29 27  1  0  0  0  0
 30 29  1  0  0  0  0
 31 33  2  0  0  0  0
 32 31  1  0  0  0  0
 33 26  1  0  0  0  0
M  END
>  <minimizedAffinity>
-4.82558537

$$$$

 OpenBabel03262523373D

 33 35  0  0  1  0  0  0  0  0999 V2000
   37.5350   26.8570   33.2010 C   0  0  2  0  0  0  0  0  0  0  0  0
   39.0230   26.5810   33.2410 C   0  0  0  0  0  0  0  0  0  0  0  0
   39.5090   26.2130   34.6080 C   0  0  2  0  0  0  0  0  0  0  0  0
   39.1220   27.1960   35.6770 C   0  0  0  0  0  0  0  0  0  0  0  0
   37.7360   27.7440   35.5190 C   0  0  0  0  0  0  0  0  0  0  0  0
   36.9060   26.9330   34.5450 C   0  0  0  0  0  0  0  0  0  0  0  0
   37.4070   27.8390   32.6790 H   0  0  0  0  0  0  0  0  0  0  0  0
   39.6160   27.4390   32.8750 H   0  0  0  0  0  0  0  0  0  0  0  0
   39.3190   25.7280   32.5740 H   0  0  0  0  0  0  0  0  0  0  0  0
   39.2500   25.1660   34.8790 H   0  0  0  0  0  0  0  0  0  0  0  0
   39.1660   26.6800   36.6660 H   0  0  0  0  0  0  0  0  0  0  0  0
   39.8820   28.0220   35.7790 H   0  0  0  0  0  0  0  0  0  0  0  0
   37.8760   28.7460   35.0150 H   0  0  0  0  0  0  0  0  0  0  0  0
   37.1820   27.8910   36.4550 H   0  0  0  0  0  0  0  0  0  0  0  0
   35.9170   27.3920   34.4660 H   0  0  0  0  0  0  0  0  0  0  0  0
   36.7870   25.9270   34.9890 H   0  0  0  0  0  0  0  0  0  0  0  0
   36.8470   25.7850   32.4270 C   0  0  0  0  0  0  0  0  0  0  0  0
   35.8120   26.2060   31.5720 C   0  0  0  0  0  0  0  0  0  0  0  0
   35.1480   25.2050   30.8500 C   0  0  0  0  0  0  0  0  0  0  0  0
   35.5370   23.8940   31.0150 N   0  0  0  0  0  0  0  0  0  0  0  0
   36.5370   23.5350   31.8490 C   0  0  0  0  0  0  0  0  0  0  0  0
   37.1790   24.4870   32.5440 N   0  0  0  0  0  0  0  0  0  0  0  0
   35.5100   27.2360   31.4440 H   0  0  0  0  0  0  0  0  0  0  0  0
   34.3500   25.4150   30.1740 H   0  0  0  0  0  0  0  0  0  0  0  0
   36.8180   22.4980   31.9560 H   0  0  0  0  0  0  0  0  0  0  0  0
   41.0110   26.2310   34.5250 C   0  0  0  0  0  0  0  0  0  0  0  0
   41.7750   27.2120   33.9130 C   0  0  0  0  0  0  0  0  0  0  0  0
   41.3970   28.0960   33.4120 H   0  0  0  0  0  0  0  0  0  0  0  0
   43.0550   26.8210   34.0800 N   0  0  0  0  0  0  0  0  0  0  0  0
   43.8550   27.3890   33.7090 H   0  0  0  0  0  0  0  0  0  0  0  0
   43.1290   25.6600   34.7580 C   0  0  0  0  0  0  0  0  0  0  0  0
   44.0830   25.2010   34.9810 H   0  0  0  0  0  0  0  0  0  0  0  0
   41.8590   25.2920   35.0350 N   0  0  0  0  0  0  0  0  0  0  0  0
  1  7  1  6  0  0  0
  1  2  1  0  0  0  0
  1  6  1  0  0  0  0
  2  3  1  0  0  0  0
  3 10  1  1  0  0  0
  3  4  1  0  0  0  0
  4 12  1  0  0  0  0
  4 11  1  0  0  0  0
  5  4  1  0  0  0  0
  5 14  1  0  0  0  0
  6 16  1  0  0  0  0
  6  5  1  0  0  0  0
  8  2  1  0  0  0  0
  9  2  1  0  0  0  0
 13  5  1  0  0  0  0
 15  6  1  0  0  0  0
 17 22  1  0  0  0  0
 17  1  1  0  0  0  0
 18 17  2  0  0  0  0
 19 20  2  0  0  0  0
 19 18  1  0  0  0  0
 20 21  1  0  0  0  0
 21 25  1  0  0  0  0
 21 22  2  0  0  0  0
 23 18  1  0  0  0  0
 24 19  1  0  0  0  0
 26  3  1  0  0  0  0
 26 33  1  0  0  0  0
 27 29  1  0  0  0  0
 27 26  2  0  0  0  0
 28 27  1  0  0  0  0
 29 31  1  0  0  0  0
 30 29  1  0  0  0  0
 31 32  1  0  0  0  0
 31 33  2  0  0  0  0
M  END
>  <minimizedAffinity>
-4.82313061

$$$$

 OpenBabel03262523373D

 33 35  0  0  1  0  0  0  0  0999 V2000
   39.5340   26.6190   34.7590 C   0  0  2  0  0  0  0  0  0  0  0  0
   38.5510   26.9040   33.6430 C   0  0  0  0  0  0  0  0  0  0  0  0
   39.1310   26.6660   32.2840 C   0  0  2  0  0  0  0  0  0  0  0  0
   40.4310   27.3800   32.0430 C   0  0  0  0  0  0  0  0  0  0  0  0
   41.3420   27.3920   33.2320 C   0  0  0  0  0  0  0  0  0  0  0  0
   40.9230   26.3870   34.2860 C   0  0  0  0  0  0  0  0  0  0  0  0
   39.5190   27.5140   35.4330 H   0  0  0  0  0  0  0  0  0  0  0  0
   38.1620   27.9380   33.6850 H   0  0  0  0  0  0  0  0  0  0  0  0
   37.6360   26.2560   33.7010 H   0  0  0  0  0  0  0  0  0  0  0  0
   39.1870   25.5840   32.0350 H   0  0  0  0  0  0  0  0  0  0  0  0
   40.9700   26.8630   31.2130 H   0  0  0  0  0  0  0  0  0  0  0  0
   40.2670   28.4190   31.6390 H   0  0  0  0  0  0  0  0  0  0  0  0
   41.1790   28.4010   33.7130 H   0  0  0  0  0  0  0  0  0  0  0  0
   42.4100   27.2750   33.0040 H   0  0  0  0  0  0  0  0  0  0  0  0
   41.6170   26.4570   35.1270 H   0  0  0  0  0  0  0  0  0  0  0  0
   41.0280   25.3840   33.8310 H   0  0  0  0  0  0  0  0  0  0  0  0
   39.0950   25.4140   35.5180 C   0  0  0  0  0  0  0  0  0  0  0  0
   39.7140   24.2010   35.1660 C   0  0  0  0  0  0  0  0  0  0  0  0
   39.2980   23.0580   35.8640 C   0  0  0  0  0  0  0  0  0  0  0  0
   38.3270   23.1850   36.8320 N   0  0  0  0  0  0  0  0  0  0  0  0
   37.7590   24.3710   37.1370 C   0  0  0  0  0  0  0  0  0  0  0  0
   38.1510   25.4710   36.4760 N   0  0  0  0  0  0  0  0  0  0  0  0
   40.4760   24.1060   34.4060 H   0  0  0  0  0  0  0  0  0  0  0  0
   39.7030   22.0900   35.6750 H   0  0  0  0  0  0  0  0  0  0  0  0
   37.0000   24.4360   37.9020 H   0  0  0  0  0  0  0  0  0  0  0  0
   38.1350   27.2370   31.3110 C   0  0  0  0  0  0  0  0  0  0  0  0
   36.8790   26.7180   31.0430 C   0  0  0  0  0  0  0  0  0  0  0  0
   36.4420   25.8350   31.4960 H   0  0  0  0  0  0  0  0  0  0  0  0
   36.3440   27.5420   30.1180 N   0  0  0  0  0  0  0  0  0  0  0  0
   35.3820   27.3800   29.7310 H   0  0  0  0  0  0  0  0  0  0  0  0
   37.1930   28.5360   29.7980 C   0  0  0  0  0  0  0  0  0  0  0  0
   36.9230   29.2900   29.0700 H   0  0  0  0  0  0  0  0  0  0  0  0
   38.3060   28.3480   30.5380 N   0  0  0  0  0  0  0  0  0  0  0  0
  1  7  1  1  0  0  0
  1 17  1  0  0  0  0
  2  8  1  0  0  0  0
  2  9  1  0  0  0  0
  2  1  1  0  0  0  0
  3 10  1  6  0  0  0
  3  2  1  0  0  0  0
  4  3  1  0  0  0  0
  4  5  1  0  0  0  0
  5 13  1  0  0  0  0
  5  6  1  0  0  0  0
  6  1  1  0  0  0  0
  6 15  1  0  0  0  0
 11  4  1  0  0  0  0
 12  4  1  0  0  0  0
 14  5  1  0  0  0  0
 16  6  1  0  0  0  0
 17 22  1  0  0  0  0
 18 17  2  0  0  0  0
 18 19  1  0  0  0  0
 19 20  2  0  0  0  0
 20 21  1  0  0  0  0
 21 25  1  0  0  0  0
 22 21  2  0  0  0  0
 23 18  1  0  0  0  0
 24 19  1  0  0  0  0
 26  3  1  0  0  0  0
 27 26  2  0  0  0  0
 27 28  1  0  0  0  0
 29 27  1  0  0  0  0
 30 29  1  0  0  0  0
 31 29  1  0  0  0  0
 31 33  2  0  0  0  0
 32 31  1  0  0  0  0
 33 26  1  0  0  0  0
M  END
>  <minimizedAffinity>
-4.7388835

$$$$

 OpenBabel03262523373D

 33 35  0  0  1  0  0  0  0  0999 V2000
   38.0220   26.5880   33.2630 C   0  0  2  0  0  0  0  0  0  0  0  0
   37.6490   25.6760   34.4130 C   0  0  0  0  0  0  0  0  0  0  0  0
   38.6730   25.6670   35.5030 C   0  0  2  0  0  0  0  0  0  0  0  0
   40.0680   25.3760   35.0250 C   0  0  0  0  0  0  0  0  0  0  0  0
   40.4040   26.0220   33.7150 C   0  0  0  0  0  0  0  0  0  0  0  0
   39.4130   27.1050   33.3390 C   0  0  0  0  0  0  0  0  0  0  0  0
   37.9030   25.9860   32.3270 H   0  0  0  0  0  0  0  0  0  0  0  0
   37.4780   24.6350   34.0800 H   0  0  0  0  0  0  0  0  0  0  0  0
   36.6850   25.9760   34.9040 H   0  0  0  0  0  0  0  0  0  0  0  0
   38.6220   26.5790   36.1370 H   0  0  0  0  0  0  0  0  0  0  0  0
   40.7900   25.7640   35.7840 H   0  0  0  0  0  0  0  0  0  0  0  0
   40.2810   24.2700   35.0050 H   0  0  0  0  0  0  0  0  0  0  0  0
   40.2520   25.2100   32.9440 H   0  0  0  0  0  0  0  0  0  0  0  0
   41.4290   26.4050   33.6320 H   0  0  0  0  0  0  0  0  0  0  0  0
   39.7050   27.5230   32.3730 H   0  0  0  0  0  0  0  0  0  0  0  0
   39.5030   27.9000   34.1030 H   0  0  0  0  0  0  0  0  0  0  0  0
   37.0950   27.7550   33.2280 C   0  0  0  0  0  0  0  0  0  0  0  0
   36.9740   28.4120   31.9910 C   0  0  0  0  0  0  0  0  0  0  0  0
   36.1150   29.5210   31.9500 C   0  0  0  0  0  0  0  0  0  0  0  0
   35.4550   29.8950   33.0990 N   0  0  0  0  0  0  0  0  0  0  0  0
   35.6020   29.2340   34.2670 C   0  0  0  0  0  0  0  0  0  0  0  0
   36.4200   28.1710   34.3160 N   0  0  0  0  0  0  0  0  0  0  0  0
   37.4930   28.1160   31.0910 H   0  0  0  0  0  0  0  0  0  0  0  0
   35.9520   30.0890   31.0640 H   0  0  0  0  0  0  0  0  0  0  0  0
   35.0690   29.5520   35.1510 H   0  0  0  0  0  0  0  0  0  0  0  0
   38.2850   24.5370   36.4190 C   0  0  0  0  0  0  0  0  0  0  0  0
   38.0580   23.2260   36.0330 C   0  0  0  0  0  0  0  0  0  0  0  0
   38.1300   22.8350   35.0240 H   0  0  0  0  0  0  0  0  0  0  0  0
   37.7390   22.5720   37.1690 N   0  0  0  0  0  0  0  0  0  0  0  0
   37.5160   21.5470   37.1670 H   0  0  0  0  0  0  0  0  0  0  0  0
   37.7530   23.3990   38.2310 C   0  0  0  0  0  0  0  0  0  0  0  0
   37.5200   23.0380   39.2250 H   0  0  0  0  0  0  0  0  0  0  0  0
   38.0920   24.6200   37.7670 N   0  0  0  0  0  0  0  0  0  0  0  0
  1  7  1  6  0  0  0
  1  6  1  0  0  0  0
  1  2  1  0  0  0  0
  2  9  1  0  0  0  0
  2  3  1  0  0  0  0
  3 10  1  1  0  0  0
  3 26  1  0  0  0  0
  4  3  1  0  0  0  0
  4 11  1  0  0  0  0
  5  4  1  0  0  0  0
  6  5  1  0  0  0  0
  6 16  1  0  0  0  0
  8  2  1  0  0  0  0
 12  4  1  0  0  0  0
 13  5  1  0  0  0  0
 14  5  1  0  0  0  0
 15  6  1  0  0  0  0
 17  1  1  0  0  0  0
 17 22  1  0  0  0  0
 18 17  2  0  0  0  0
 19 18  1  0  0  0  0
 19 20  2  0  0  0  0
 20 21  1  0  0  0  0
 21 22  2  0  0  0  0
 21 25  1  0  0  0  0
 23 18  1  0  0  0  0
 24 19  1  0  0  0  0
 26 33  1  0  0  0  0
 27 26  2  0  0  0  0
 27 29  1  0  0  0  0
 28 27  1  0  0  0  0
 29 31  1  0  0  0  0
 30 29  1  0  0  0  0
 31 32  1  0  0  0  0
 33 31  2  0  0  0  0
M  END
>  <minimizedAffinity>
-4.69345665

$$$$

 OpenBabel03262523373D

 33 35  0  0  1  0  0  0  0  0999 V2000
   37.7220   25.2360   35.4790 C   0  0  2  0  0  0  0  0  0  0  0  0
   38.0020   24.8670   34.0380 C   0  0  0  0  0  0  0  0  0  0  0  0
   38.7730   25.9210   33.3080 C   0  0  2  0  0  0  0  0  0  0  0  0
   38.1650   27.2920   33.3960 C   0  0  0  0  0  0  0  0  0  0  0  0
   37.5910   27.6110   34.7430 C   0  0  0  0  0  0  0  0  0  0  0  0
   38.0610   26.6450   35.8110 C   0  0  0  0  0  0  0  0  0  0  0  0
   36.6260   25.0730   35.6430 H   0  0  0  0  0  0  0  0  0  0  0  0
   37.0740   24.6550   33.4750 H   0  0  0  0  0  0  0  0  0  0  0  0
   38.6090   23.9270   33.9460 H   0  0  0  0  0  0  0  0  0  0  0  0
   39.8520   25.9160   33.5770 H   0  0  0  0  0  0  0  0  0  0  0  0
   38.9610   28.0470   33.1850 H   0  0  0  0  0  0  0  0  0  0  0  0
   37.4130   27.4690   32.5760 H   0  0  0  0  0  0  0  0  0  0  0  0
   36.4830   27.4130   34.6410 H   0  0  0  0  0  0  0  0  0  0  0  0
   37.7370   28.6460   35.0810 H   0  0  0  0  0  0  0  0  0  0  0  0
   37.5970   26.9230   36.7600 H   0  0  0  0  0  0  0  0  0  0  0  0
   39.1550   26.7810   35.9060 H   0  0  0  0  0  0  0  0  0  0  0  0
   38.5020   24.3460   36.3850 C   0  0  0  0  0  0  0  0  0  0  0  0
   38.0430   24.2580   37.7120 C   0  0  0  0  0  0  0  0  0  0  0  0
   38.7780   23.4340   38.5770 C   0  0  0  0  0  0  0  0  0  0  0  0
   39.8840   22.7740   38.0890 N   0  0  0  0  0  0  0  0  0  0  0  0
   40.2880   22.8880   36.8060 C   0  0  0  0  0  0  0  0  0  0  0  0
   39.5910   23.6730   35.9700 N   0  0  0  0  0  0  0  0  0  0  0  0
   37.1750   24.7770   38.0910 H   0  0  0  0  0  0  0  0  0  0  0  0
   38.5170   23.2970   39.6010 H   0  0  0  0  0  0  0  0  0  0  0  0
   41.1600   22.3560   36.4550 H   0  0  0  0  0  0  0  0  0  0  0  0
   38.7340   25.5230   31.8570 C   0  0  0  0  0  0  0  0  0  0  0  0
   38.3770   26.3470   30.8020 C   0  0  0  0  0  0  0  0  0  0  0  0
   38.0790   27.3860   30.8760 H   0  0  0  0  0  0  0  0  0  0  0  0
   38.4850   25.5780   29.6980 N   0  0  0  0  0  0  0  0  0  0  0  0
   38.2710   25.9560   28.7440 H   0  0  0  0  0  0  0  0  0  0  0  0
   38.8870   24.3300   30.0070 C   0  0  0  0  0  0  0  0  0  0  0  0
   39.0260   23.5810   29.2400 H   0  0  0  0  0  0  0  0  0  0  0  0
   39.0420   24.2940   31.3480 N   0  0  0  0  0  0  0  0  0  0  0  0
  1  7  1  1  0  0  0
  1  6  1  0  0  0  0
  1 17  1  0  0  0  0
  2  1  1  0  0  0  0
  3  4  1  0  0  0  0
  3 10  1  1  0  0  0
  3  2  1  0  0  0  0
  4  5  1  0  0  0  0
  5 14  1  0  0  0  0
  5  6  1  0  0  0  0
  6 16  1  0  0  0  0
  6 15  1  0  0  0  0
  8  2  1  0  0  0  0
  9  2  1  0  0  0  0
 11  4  1  0  0  0  0
 12  4  1  0  0  0  0
 13  5  1  0  0  0  0
 17 18  1  0  0  0  0
 18 23  1  0  0  0  0
 18 19  2  0  0  0  0
 19 24  1  0  0  0  0
 20 19  1  0  0  0  0
 21 20  2  0  0  0  0
 22 17  2  0  0  0  0
 22 21  1  0  0  0  0
 25 21  1  0  0  0  0
 26  3  1  0  0  0  0
 27 28  1  0  0  0  0
 27 26  2  0  0  0  0
 29 31  1  0  0  0  0
 29 27  1  0  0  0  0
 30 29  1  0  0  0  0
 31 33  2  0  0  0  0
 32 31  1  0  0  0  0
 33 26  1  0  0  0  0
M  END
>  <minimizedAffinity>
-4.63504028

$$$$
