REMARK  Name = 
REMARK  7 active torsions:
REMARK  status: ('A' for Active; 'I' for Inactive)
REMARK    1  A    between atoms: C_3  and  C_9
REMARK    2  A    between atoms: C_5  and  O_14
REMARK    3  A    between atoms: O_14  and  C_15
REMARK    4  A    between atoms: C_15  and  C_16
REMARK    5  A    between atoms: C_16  and  C_17
REMARK    6  A    between atoms: C_21  and  C_23
REMARK    7  A    between atoms: C_23  and  C_38
REMARK                            x       y       z     vdW  Elec       q    Type
REMARK                         _______ _______ _______ _____ _____    ______ ____
ROOT
ATOM      1  C   UNL     1      34.448  28.644  48.171  0.00  0.00    +0.000 C 
ATOM      2  H   UNL     1      35.333  28.732  47.490  0.00  0.00    +0.000 HD
ATOM      3  H   UNL     1      33.961  29.619  48.154  0.00  0.00    +0.000 HD
ENDROOT
BRANCH   1   4
ATOM      4  C   UNL     1      33.562  27.525  47.715  0.00  0.00    +0.000 C 
ATOM      5  H   UNL     1      33.723  26.614  48.318  0.00  0.00    +0.000 HD
ATOM      6  H   UNL     1      33.799  27.303  46.647  0.00  0.00    +0.000 HD
BRANCH   4   7
ATOM      7  C   UNL     1      32.117  27.890  47.748  0.00  0.00    +0.000 A 
ATOM      8  C   UNL     1      31.374  27.483  48.841  0.00  0.00    +0.000 A 
ATOM      9  C   UNL     1      30.033  27.770  48.965  0.00  0.00    +0.000 A 
ATOM     10  N   UNL     1      29.430  28.466  47.993  0.00  0.00    +0.000 NA
ATOM     11  C   UNL     1      30.182  28.859  46.921  0.00  0.00    +0.000 A 
ATOM     12  N   UNL     1      31.485  28.591  46.780  0.00  0.00    +0.000 NA
ATOM     13  H   UNL     1      31.805  26.912  49.670  0.00  0.00    +0.000 HD
ATOM     14  H   UNL     1      29.456  27.457  49.809  0.00  0.00    +0.000 HD
BRANCH  11  15
ATOM     15  C   UNL     1      29.444  29.630  45.879  0.00  0.00    +0.000 C 
ATOM     16  H   UNL     1      29.922  29.356  44.906  0.00  0.00    +0.000 HD
ATOM     17  H   UNL     1      28.408  29.236  45.792  0.00  0.00    +0.000 HD
BRANCH  15  18
ATOM     18  C   UNL     1      29.466  31.088  46.117  0.00  0.00    +0.000 A 
ATOM     19  C   UNL     1      30.439  31.935  45.625  0.00  0.00    +0.000 A 
ATOM     20  H   UNL     1      31.317  31.752  45.016  0.00  0.00    +0.000 HD
ATOM     21  N   UNL     1      30.188  33.196  46.010  0.00  0.00    +0.000 N 
ATOM     22  H   UNL     1      30.674  34.105  45.849  0.00  0.00    +0.000 HD
ATOM     23  C   UNL     1      29.046  33.168  46.757  0.00  0.00    +0.000 A 
ATOM     24  H   UNL     1      28.530  34.006  47.242  0.00  0.00    +0.000 HD
ATOM     25  N   UNL     1      28.633  31.866  46.801  0.00  0.00    +0.000 NA
ENDBRANCH  15  18
ENDBRANCH  11  15
ENDBRANCH   4   7
ENDBRANCH   1   4
BRANCH   1  26
ATOM     26  O   UNL     1      34.998  28.349  49.456  0.00  0.00    +0.000 OA
BRANCH  26  31
ATOM     27  C   UNL     1      37.336  30.173  51.521  0.00  0.00    +0.000 A 
ATOM     28  C   UNL     1      38.063  30.862  50.528  0.00  0.00    +0.000 A 
ATOM     29  C   UNL     1      37.702  30.656  49.196  0.00  0.00    +0.000 A 
ATOM     30  N   UNL     1      36.664  29.793  48.985  0.00  0.00    +0.000 NA
ATOM     31  C   UNL     1      35.986  29.149  49.944  0.00  0.00    +0.000 A 
ATOM     32  N   UNL     1      36.339  29.352  51.226  0.00  0.00    +0.000 NA
ATOM     33  H   UNL     1      37.660  30.372  52.537  0.00  0.00    +0.000 HD
ATOM     34  H   UNL     1      38.870  31.533  50.685  0.00  0.00    +0.000 HD
BRANCH  29  37
ATOM     35  F   UNL     1      38.939  33.263  49.015  0.00  0.00    +0.000 F 
ATOM     36  C   UNL     1      38.910  32.476  47.943  0.00  0.00    +0.000 A 
ATOM     37  C   UNL     1      38.328  31.270  48.056  0.00  0.00    +0.000 A 
ATOM     38  C   UNL     1      38.353  30.529  46.874  0.00  0.00    +0.000 A 
ATOM     39  C   UNL     1      38.914  30.981  45.707  0.00  0.00    +0.000 A 
ATOM     40  C   UNL     1      39.497  32.230  45.649  0.00  0.00    +0.000 A 
ATOM     41  C   UNL     1      39.484  32.974  46.800  0.00  0.00    +0.000 A 
ATOM     42  H   UNL     1      37.909  29.523  46.834  0.00  0.00    +0.000 HD
ATOM     43  H   UNL     1      38.910  30.370  44.813  0.00  0.00    +0.000 HD
ATOM     44  H   UNL     1      39.941  32.598  44.740  0.00  0.00    +0.000 HD
ATOM     45  H   UNL     1      39.941  33.958  46.765  0.00  0.00    +0.000 HD
ENDBRANCH  29  37
ENDBRANCH  26  31
ENDBRANCH   1  26
TORSDOF 7
