
 OpenBabel03272502003D

 41 45  0  0  0  0  0  0  0  0999 V2000
   34.5400   28.2680   47.9820 C   0  0  0  0  0  0  0  0  0  0  0  0
   35.0040   29.1620   47.5360 H   0  0  0  0  0  0  0  0  0  0  0  0
   34.9320   27.3330   47.5360 H   0  0  0  0  0  0  0  0  0  0  0  0
   33.0650   28.3330   47.6850 C   0  0  0  0  0  0  0  0  0  0  0  0
   32.0800   27.5120   48.2240 C   0  0  0  0  0  0  0  0  0  0  0  0
   30.8550   27.8970   47.6950 C   0  0  0  0  0  0  0  0  0  0  0  0
   31.1360   28.9320   46.8590 N   0  0  0  0  0  0  0  0  0  0  0  0
   32.4350   29.1820   46.8590 N   0  0  0  0  0  0  0  0  0  0  0  0
   28.7440   29.2920   46.2470 N   0  0  0  0  0  0  0  0  0  0  0  0
   30.0550   29.5390   46.1640 C   0  0  0  0  0  0  0  0  0  0  0  0
   30.2020   30.5320   45.2440 N   0  0  0  0  0  0  0  0  0  0  0  0
   29.0030   30.8890   44.7720 C   0  0  0  0  0  0  0  0  0  0  0  0
   28.6700   31.8410   43.8370 C   0  0  0  0  0  0  0  0  0  0  0  0
   27.3730   32.0160   43.5250 N   0  0  0  0  0  0  0  0  0  0  0  0
   26.4310   31.2510   44.1380 C   0  0  0  0  0  0  0  0  0  0  0  0
   26.7740   30.3230   45.0520 N   0  0  0  0  0  0  0  0  0  0  0  0
   28.0620   30.1110   45.3990 C   0  0  0  0  0  0  0  0  0  0  0  0
   32.2590   26.7120   48.9350 H   0  0  0  0  0  0  0  0  0  0  0  0
   29.9490   27.3980   47.9710 H   0  0  0  0  0  0  0  0  0  0  0  0
   28.2900   28.5950   46.8530 H   0  0  0  0  0  0  0  0  0  0  0  0
   29.3970   32.4730   43.3240 H   0  0  0  0  0  0  0  0  0  0  0  0
   25.3540   31.2830   43.9870 H   0  0  0  0  0  0  0  0  0  0  0  0
   34.6580   28.2780   49.4810 C   0  0  0  0  0  0  0  0  0  0  0  0
   33.7500   28.7580   49.9460 H   0  0  0  0  0  0  0  0  0  0  0  0
   34.7430   27.2360   49.8440 H   0  0  0  0  0  0  0  0  0  0  0  0
   37.1720   30.0370   51.5390 C   0  0  0  0  0  0  0  0  0  0  0  0
   37.8930   30.7490   50.5710 C   0  0  0  0  0  0  0  0  0  0  0  0
   37.5100   30.6190   49.2200 C   0  0  0  0  0  0  0  0  0  0  0  0
   36.4690   29.8170   48.9270 N   0  0  0  0  0  0  0  0  0  0  0  0
   35.7940   29.1410   49.9020 C   0  0  0  0  0  0  0  0  0  0  0  0
   36.1550   29.2630   51.1760 N   0  0  0  0  0  0  0  0  0  0  0  0
   37.5120   30.1750   52.5660 H   0  0  0  0  0  0  0  0  0  0  0  0
   38.7250   31.3850   50.8390 H   0  0  0  0  0  0  0  0  0  0  0  0
   38.2260   31.3380   48.1750 C   0  0  0  0  0  0  0  0  0  0  0  0
   38.6040   32.6560   48.2370 C   0  0  0  0  0  0  0  0  0  0  0  0
   38.4030   33.3050   49.0870 H   0  0  0  0  0  0  0  0  0  0  0  0
   39.2500   33.0500   47.1300 N   0  0  0  0  0  0  0  0  0  0  0  0
   39.6230   34.0260   46.9790 H   0  0  0  0  0  0  0  0  0  0  0  0
   39.2850   31.9440   46.3320 C   0  0  0  0  0  0  0  0  0  0  0  0
   39.7560   31.9790   45.3590 H   0  0  0  0  0  0  0  0  0  0  0  0
   38.6700   30.9330   46.9720 N   0  0  0  0  0  0  0  0  0  0  0  0
  1 23  1  0  0  0  0
  2  1  1  0  0  0  0
  3  1  1  0  0  0  0
  4  1  1  0  0  0  0
  4  5  1  0  0  0  0
  5 18  1  0  0  0  0
  6 19  1  0  0  0  0
  6  5  2  0  0  0  0
  7  6  1  0  0  0  0
  8  7  1  0  0  0  0
  8  4  2  0  0  0  0
  9 20  1  0  0  0  0
 10  9  1  0  0  0  0
 10  7  1  0  0  0  0
 11 10  2  0  0  0  0
 12 11  1  0  0  0  0
 12 17  1  0  0  0  0
 13 12  2  0  0  0  0
 14 13  1  0  0  0  0
 14 15  2  0  0  0  0
 15 16  1  0  0  0  0
 16 17  2  0  0  0  0
 17  9  1  0  0  0  0
 21 13  1  0  0  0  0
 22 15  1  0  0  0  0
 23 25  1  0  0  0  0
 23 30  1  0  0  0  0
 23 24  1  0  0  0  0
 26 32  1  0  0  0  0
 27 33  1  0  0  0  0
 27 26  2  0  0  0  0
 28 27  1  0  0  0  0
 29 28  2  0  0  0  0
 29 30  1  0  0  0  0
 30 31  2  0  0  0  0
 31 26  1  0  0  0  0
 34 35  2  0  0  0  0
 34 28  1  0  0  0  0
 35 36  1  0  0  0  0
 37 35  1  0  0  0  0
 38 37  1  0  0  0  0
 39 41  2  0  0  0  0
 39 37  1  0  0  0  0
 40 39  1  0  0  0  0
 41 34  1  0  0  0  0
M  END
>  <minimizedAffinity>
-6.73338318

>  <minimizedRMSD>
0.441907763

$$$$
