
 OpenBabel03272506523D

 33 35  0  0  1  0  0  0  0  0999 V2000
   39.2650   26.6780   35.5110 C   0  0  1  0  0  0  0  0  0  0  0  0
   39.9340   26.9620   34.2490 C   0  0  0  0  0  0  0  0  0  0  0  0
   39.0900   26.9680   33.0050 C   0  0  0  0  0  0  0  0  0  0  0  0
   37.7160   27.4930   33.1620 C   0  0  2  0  0  0  0  0  0  0  0  0
   37.0130   27.2150   34.4470 C   0  0  0  0  0  0  0  0  0  0  0  0
   37.9290   27.3610   35.6190 C   0  0  0  0  0  0  0  0  0  0  0  0
   39.8620   27.1670   36.3480 H   0  0  0  0  0  0  0  0  0  0  0  0
   40.8530   26.4190   34.0100 H   0  0  0  0  0  0  0  0  0  0  0  0
   40.2970   28.0420   34.3190 H   0  0  0  0  0  0  0  0  0  0  0  0
   39.6120   27.5550   32.2270 H   0  0  0  0  0  0  0  0  0  0  0  0
   39.0350   25.9240   32.6510 H   0  0  0  0  0  0  0  0  0  0  0  0
   37.7730   28.6080   33.0350 H   0  0  0  0  0  0  0  0  0  0  0  0
   36.5390   26.2190   34.4960 H   0  0  0  0  0  0  0  0  0  0  0  0
   36.2000   27.9460   34.5820 H   0  0  0  0  0  0  0  0  0  0  0  0
   38.2170   28.4620   35.5550 H   0  0  0  0  0  0  0  0  0  0  0  0
   37.4440   27.3160   36.5870 H   0  0  0  0  0  0  0  0  0  0  0  0
   38.2590   24.7920   36.8680 C   0  0  0  0  0  0  0  0  0  0  0  0
   39.2220   25.2630   35.9400 C   0  0  0  0  0  0  0  0  0  0  0  0
   40.1130   24.3350   35.4470 C   0  0  0  0  0  0  0  0  0  0  0  0
   40.0240   23.0330   35.8700 N   0  0  0  0  0  0  0  0  0  0  0  0
   39.0980   22.6280   36.7500 C   0  0  0  0  0  0  0  0  0  0  0  0
   38.2030   23.5220   37.2550 N   0  0  0  0  0  0  0  0  0  0  0  0
   37.5190   25.4410   37.3090 H   0  0  0  0  0  0  0  0  0  0  0  0
   40.8760   24.5700   34.7490 H   0  0  0  0  0  0  0  0  0  0  0  0
   39.0250   21.6030   37.0850 H   0  0  0  0  0  0  0  0  0  0  0  0
   36.8660   27.0140   32.0390 C   0  0  0  0  0  0  0  0  0  0  0  0
   36.7190   27.7270   30.8490 C   0  0  0  0  0  0  0  0  0  0  0  0
   37.1970   28.6800   30.6260 H   0  0  0  0  0  0  0  0  0  0  0  0
   35.8840   27.0330   30.0270 N   0  0  0  0  0  0  0  0  0  0  0  0
   35.5920   27.3180   29.0770 H   0  0  0  0  0  0  0  0  0  0  0  0
   35.5200   25.9200   30.6820 C   0  0  0  0  0  0  0  0  0  0  0  0
   34.8570   25.1330   30.3220 H   0  0  0  0  0  0  0  0  0  0  0  0
   36.1150   25.9040   31.9070 N   0  0  0  0  0  0  0  0  0  0  0  0
  1  6  1  0  0  0  0
  1 18  1  0  0  0  0
  1  7  1  1  0  0  0
  2  9  1  0  0  0  0
  2  1  1  0  0  0  0
  3  4  1  0  0  0  0
  3  2  1  0  0  0  0
  4 12  1  6  0  0  0
  4  5  1  0  0  0  0
  5 13  1  0  0  0  0
  5 14  1  0  0  0  0
  5  6  1  0  0  0  0
  6 16  1  0  0  0  0
  8  2  1  0  0  0  0
 10  3  1  0  0  0  0
 11  3  1  0  0  0  0
 15  6  1  0  0  0  0
 17 22  1  0  0  0  0
 17 23  1  0  0  0  0
 18 17  2  0  0  0  0
 19 20  2  0  0  0  0
 19 18  1  0  0  0  0
 20 21  1  0  0  0  0
 21 25  1  0  0  0  0
 21 22  2  0  0  0  0
 24 19  1  0  0  0  0
 26  4  1  0  0  0  0
 27 26  2  0  0  0  0
 28 27  1  0  0  0  0
 29 31  1  0  0  0  0
 29 27  1  0  0  0  0
 30 29  1  0  0  0  0
 31 33  2  0  0  0  0
 32 31  1  0  0  0  0
 33 26  1  0  0  0  0
M  END
>  <minimizedAffinity>
-4.92569065

$$$$

 OpenBabel03272506523D

 33 35  0  0  1  0  0  0  0  0999 V2000
   38.7070   26.5750   33.0370 C   0  0  1  0  0  0  0  0  0  0  0  0
   39.7750   26.7960   34.0020 C   0  0  0  0  0  0  0  0  0  0  0  0
   39.7560   25.9670   35.2560 C   0  0  0  0  0  0  0  0  0  0  0  0
   39.2760   24.5770   35.1010 C   0  0  2  0  0  0  0  0  0  0  0  0
   38.1840   24.3280   34.1170 C   0  0  0  0  0  0  0  0  0  0  0  0
   38.3820   25.1170   32.8630 C   0  0  0  0  0  0  0  0  0  0  0  0
   39.0920   26.8690   32.0070 H   0  0  0  0  0  0  0  0  0  0  0  0
   40.0070   27.8230   34.3010 H   0  0  0  0  0  0  0  0  0  0  0  0
   40.7380   26.4640   33.4890 H   0  0  0  0  0  0  0  0  0  0  0  0
   40.7760   25.9500   35.6830 H   0  0  0  0  0  0  0  0  0  0  0  0
   39.1040   26.4910   35.9760 H   0  0  0  0  0  0  0  0  0  0  0  0
   40.1620   23.9550   34.7970 H   0  0  0  0  0  0  0  0  0  0  0  0
   37.1720   24.5360   34.5050 H   0  0  0  0  0  0  0  0  0  0  0  0
   38.1880   23.2650   33.8300 H   0  0  0  0  0  0  0  0  0  0  0  0
   39.3680   24.6970   32.4750 H   0  0  0  0  0  0  0  0  0  0  0  0
   37.7030   24.8690   32.0560 H   0  0  0  0  0  0  0  0  0  0  0  0
   36.7450   27.8350   32.0460 C   0  0  0  0  0  0  0  0  0  0  0  0
   37.4990   27.4190   33.1740 C   0  0  0  0  0  0  0  0  0  0  0  0
   37.0470   27.8330   34.4070 C   0  0  0  0  0  0  0  0  0  0  0  0
   35.9160   28.6060   34.4800 N   0  0  0  0  0  0  0  0  0  0  0  0
   35.2320   28.9770   33.3880 C   0  0  0  0  0  0  0  0  0  0  0  0
   35.6540   28.5840   32.1550 N   0  0  0  0  0  0  0  0  0  0  0  0
   37.0190   27.5620   31.0390 H   0  0  0  0  0  0  0  0  0  0  0  0
   37.5270   27.5850   35.3200 H   0  0  0  0  0  0  0  0  0  0  0  0
   34.3400   29.5870   33.4410 H   0  0  0  0  0  0  0  0  0  0  0  0
   38.8590   24.0400   36.4240 C   0  0  0  0  0  0  0  0  0  0  0  0
   39.5990   23.0800   37.1150 C   0  0  0  0  0  0  0  0  0  0  0  0
   40.5310   22.6370   36.7670 H   0  0  0  0  0  0  0  0  0  0  0  0
   38.9600   22.7980   38.2840 N   0  0  0  0  0  0  0  0  0  0  0  0
   39.2760   22.1230   39.0010 H   0  0  0  0  0  0  0  0  0  0  0  0
   37.8550   23.5580   38.3250 C   0  0  0  0  0  0  0  0  0  0  0  0
   37.1080   23.5900   39.1170 H   0  0  0  0  0  0  0  0  0  0  0  0
   37.7890   24.3160   37.1940 N   0  0  0  0  0  0  0  0  0  0  0  0
  1  7  1  6  0  0  0
  1 18  1  0  0  0  0
  1  2  1  0  0  0  0
  2  8  1  0  0  0  0
  2  3  1  0  0  0  0
  3 10  1  0  0  0  0
  3 11  1  0  0  0  0
  4 12  1  6  0  0  0
  4  3  1  0  0  0  0
  4 26  1  0  0  0  0
  5 13  1  0  0  0  0
  5  4  1  0  0  0  0
  6  1  1  0  0  0  0
  6  5  1  0  0  0  0
  9  2  1  0  0  0  0
 14  5  1  0  0  0  0
 15  6  1  0  0  0  0
 16  6  1  0  0  0  0
 17 22  2  0  0  0  0
 17 18  1  0  0  0  0
 18 19  2  0  0  0  0
 19 20  1  0  0  0  0
 19 24  1  0  0  0  0
 21 25  1  0  0  0  0
 21 20  2  0  0  0  0
 22 21  1  0  0  0  0
 23 17  1  0  0  0  0
 26 27  2  0  0  0  0
 26 33  1  0  0  0  0
 27 29  1  0  0  0  0
 28 27  1  0  0  0  0
 29 31  1  0  0  0  0
 29 30  1  0  0  0  0
 31 32  1  0  0  0  0
 33 31  2  0  0  0  0
M  END
>  <minimizedAffinity>
-4.8628974

$$$$

 OpenBabel03272506523D

 33 35  0  0  1  0  0  0  0  0999 V2000
   39.8290   27.0170   34.5070 C   0  0  1  0  0  0  0  0  0  0  0  0
   38.8650   27.1440   35.5910 C   0  0  0  0  0  0  0  0  0  0  0  0
   38.1930   25.8870   36.0680 C   0  0  0  0  0  0  0  0  0  0  0  0
   39.0290   24.6670   36.0610 C   0  0  2  0  0  0  0  0  0  0  0  0
   40.0240   24.5170   34.9610 C   0  0  0  0  0  0  0  0  0  0  0  0
   40.7130   25.8100   34.6620 C   0  0  0  0  0  0  0  0  0  0  0  0
   40.5700   27.8790   34.5860 H   0  0  0  0  0  0  0  0  0  0  0  0
   38.0900   27.9130   35.5160 H   0  0  0  0  0  0  0  0  0  0  0  0
   39.4590   27.4810   36.5050 H   0  0  0  0  0  0  0  0  0  0  0  0
   37.8140   26.0570   37.0940 H   0  0  0  0  0  0  0  0  0  0  0  0
   37.3190   25.7240   35.4150 H   0  0  0  0  0  0  0  0  0  0  0  0
   39.5880   24.6450   37.0360 H   0  0  0  0  0  0  0  0  0  0  0  0
   39.6020   24.1220   34.0210 H   0  0  0  0  0  0  0  0  0  0  0  0
   40.8030   23.8030   35.2690 H   0  0  0  0  0  0  0  0  0  0  0  0
   41.2430   26.0260   35.6480 H   0  0  0  0  0  0  0  0  0  0  0  0
   41.5480   25.7340   33.9760 H   0  0  0  0  0  0  0  0  0  0  0  0
   37.9360   27.4120   32.8720 C   0  0  0  0  0  0  0  0  0  0  0  0
   39.3110   27.1740   33.1310 C   0  0  0  0  0  0  0  0  0  0  0  0
   40.1440   27.1060   32.0360 C   0  0  0  0  0  0  0  0  0  0  0  0
   39.6140   27.2690   30.7810 N   0  0  0  0  0  0  0  0  0  0  0  0
   38.3080   27.4930   30.5800 C   0  0  0  0  0  0  0  0  0  0  0  0
   37.4580   27.5660   31.6410 N   0  0  0  0  0  0  0  0  0  0  0  0
   37.2060   27.4820   33.6620 H   0  0  0  0  0  0  0  0  0  0  0  0
   41.1880   26.9330   32.1060 H   0  0  0  0  0  0  0  0  0  0  0  0
   37.8860   27.6220   29.5920 H   0  0  0  0  0  0  0  0  0  0  0  0
   38.1570   23.4620   36.0840 C   0  0  0  0  0  0  0  0  0  0  0  0
   37.3870   23.1100   37.1920 C   0  0  0  0  0  0  0  0  0  0  0  0
   37.3460   23.6650   38.1290 H   0  0  0  0  0  0  0  0  0  0  0  0
   36.7060   21.9670   36.9030 N   0  0  0  0  0  0  0  0  0  0  0  0
   36.0560   21.4720   37.5360 H   0  0  0  0  0  0  0  0  0  0  0  0
   37.0380   21.6140   35.6520 C   0  0  0  0  0  0  0  0  0  0  0  0
   36.6800   20.7480   35.0960 H   0  0  0  0  0  0  0  0  0  0  0  0
   37.9220   22.5210   35.1490 N   0  0  0  0  0  0  0  0  0  0  0  0
  1  7  1  1  0  0  0
  1  6  1  0  0  0  0
  1  2  1  0  0  0  0
  2  3  1  0  0  0  0
  2  9  1  0  0  0  0
  3 10  1  0  0  0  0
  4  3  1  0  0  0  0
  4 26  1  0  0  0  0
  4 12  1  1  0  0  0
  5 14  1  0  0  0  0
  5  4  1  0  0  0  0
  6  5  1  0  0  0  0
  6 15  1  0  0  0  0
  8  2  1  0  0  0  0
 11  3  1  0  0  0  0
 13  5  1  0  0  0  0
 16  6  1  0  0  0  0
 17 18  1  0  0  0  0
 17 23  1  0  0  0  0
 18  1  1  0  0  0  0
 19 24  1  0  0  0  0
 19 18  2  0  0  0  0
 20 19  1  0  0  0  0
 21 20  2  0  0  0  0
 21 22  1  0  0  0  0
 22 17  2  0  0  0  0
 25 21  1  0  0  0  0
 26 27  2  0  0  0  0
 27 28  1  0  0  0  0
 29 27  1  0  0  0  0
 29 30  1  0  0  0  0
 31 29  1  0  0  0  0
 32 31  1  0  0  0  0
 33 31  2  0  0  0  0
 33 26  1  0  0  0  0
M  END
>  <minimizedAffinity>
-4.79135752

$$$$

 OpenBabel03272506523D

 33 35  0  0  1  0  0  0  0  0999 V2000
   38.9730   25.9370   35.5640 C   0  0  1  0  0  0  0  0  0  0  0  0
   39.9340   26.2150   34.5070 C   0  0  0  0  0  0  0  0  0  0  0  0
   39.3970   26.7360   33.2030 C   0  0  0  0  0  0  0  0  0  0  0  0
   38.2370   27.6490   33.3050 C   0  0  2  0  0  0  0  0  0  0  0  0
   37.2410   27.3840   34.3810 C   0  0  0  0  0  0  0  0  0  0  0  0
   37.9050   26.9920   35.6620 C   0  0  0  0  0  0  0  0  0  0  0  0
   39.5070   26.0320   36.5660 H   0  0  0  0  0  0  0  0  0  0  0  0
   40.6800   25.4520   34.2630 H   0  0  0  0  0  0  0  0  0  0  0  0
   40.5780   27.0780   34.8830 H   0  0  0  0  0  0  0  0  0  0  0  0
   40.2140   27.2520   32.6660 H   0  0  0  0  0  0  0  0  0  0  0  0
   39.1080   25.8570   32.6020 H   0  0  0  0  0  0  0  0  0  0  0  0
   38.6450   28.6840   33.4600 H   0  0  0  0  0  0  0  0  0  0  0  0
   36.4940   26.6120   34.1260 H   0  0  0  0  0  0  0  0  0  0  0  0
   36.6710   28.3040   34.5850 H   0  0  0  0  0  0  0  0  0  0  0  0
   38.5120   27.9260   35.9060 H   0  0  0  0  0  0  0  0  0  0  0  0
   37.2450   26.9300   36.5190 H   0  0  0  0  0  0  0  0  0  0  0  0
   38.5240   23.6690   34.5300 C   0  0  0  0  0  0  0  0  0  0  0  0
   38.4290   24.5630   35.6280 C   0  0  0  0  0  0  0  0  0  0  0  0
   37.8110   24.0860   36.7630 C   0  0  0  0  0  0  0  0  0  0  0  0
   37.3320   22.8000   36.7730 N   0  0  0  0  0  0  0  0  0  0  0  0
   37.4430   21.9870   35.7130 C   0  0  0  0  0  0  0  0  0  0  0  0
   38.0480   22.4300   34.5770 N   0  0  0  0  0  0  0  0  0  0  0  0
   38.9900   23.9500   33.5990 H   0  0  0  0  0  0  0  0  0  0  0  0
   37.6820   24.6610   37.6440 H   0  0  0  0  0  0  0  0  0  0  0  0
   37.0670   20.9730   35.7180 H   0  0  0  0  0  0  0  0  0  0  0  0
   37.5260   27.7020   31.9990 C   0  0  0  0  0  0  0  0  0  0  0  0
   36.6640   26.6930   31.5680 C   0  0  0  0  0  0  0  0  0  0  0  0
   36.4300   25.7880   32.1270 H   0  0  0  0  0  0  0  0  0  0  0  0
   36.1750   27.0330   30.3440 N   0  0  0  0  0  0  0  0  0  0  0  0
   35.5120   26.4760   29.7790 H   0  0  0  0  0  0  0  0  0  0  0  0
   36.7130   28.2180   30.0180 C   0  0  0  0  0  0  0  0  0  0  0  0
   36.5420   28.7890   29.1050 H   0  0  0  0  0  0  0  0  0  0  0  0
   37.5370   28.6300   31.0220 N   0  0  0  0  0  0  0  0  0  0  0  0
  1 18  1  0  0  0  0
  1  6  1  0  0  0  0
  1  7  1  1  0  0  0
  2  9  1  0  0  0  0
  2  1  1  0  0  0  0
  3  4  1  0  0  0  0
  3  2  1  0  0  0  0
  4 12  1  1  0  0  0
  4  5  1  0  0  0  0
  5 14  1  0  0  0  0
  5  6  1  0  0  0  0
  6 15  1  0  0  0  0
  6 16  1  0  0  0  0
  8  2  1  0  0  0  0
 10  3  1  0  0  0  0
 11  3  1  0  0  0  0
 13  5  1  0  0  0  0
 17 22  2  0  0  0  0
 17 18  1  0  0  0  0
 18 19  2  0  0  0  0
 19 20  1  0  0  0  0
 19 24  1  0  0  0  0
 21 25  1  0  0  0  0
 21 20  2  0  0  0  0
 22 21  1  0  0  0  0
 23 17  1  0  0  0  0
 26  4  1  0  0  0  0
 27 26  2  0  0  0  0
 27 28  1  0  0  0  0
 29 27  1  0  0  0  0
 30 29  1  0  0  0  0
 31 29  1  0  0  0  0
 31 33  2  0  0  0  0
 32 31  1  0  0  0  0
 33 26  1  0  0  0  0
M  END
>  <minimizedAffinity>
-4.76831198

$$$$

 OpenBabel03272506523D

 33 35  0  0  1  0  0  0  0  0999 V2000
   39.0870   25.3240   32.5830 C   0  0  1  0  0  0  0  0  0  0  0  0
   39.3020   26.2870   33.6530 C   0  0  0  0  0  0  0  0  0  0  0  0
   39.1670   25.7920   35.0660 C   0  0  0  0  0  0  0  0  0  0  0  0
   39.6350   24.4110   35.3100 C   0  0  2  0  0  0  0  0  0  0  0  0
   39.4260   23.4080   34.2270 C   0  0  0  0  0  0  0  0  0  0  0  0
   39.7100   23.9870   32.8790 C   0  0  0  0  0  0  0  0  0  0  0  0
   39.6700   25.6720   31.6680 H   0  0  0  0  0  0  0  0  0  0  0  0
   38.7870   27.2520   33.6010 H   0  0  0  0  0  0  0  0  0  0  0  0
   40.4000   26.5910   33.5910 H   0  0  0  0  0  0  0  0  0  0  0  0
   39.7150   26.4810   35.7350 H   0  0  0  0  0  0  0  0  0  0  0  0
   38.0970   25.8580   35.3270 H   0  0  0  0  0  0  0  0  0  0  0  0
   40.7380   24.4680   35.5190 H   0  0  0  0  0  0  0  0  0  0  0  0
   38.4160   22.9640   34.2110 H   0  0  0  0  0  0  0  0  0  0  0  0
   40.1250   22.5690   34.3680 H   0  0  0  0  0  0  0  0  0  0  0  0
   40.8160   24.2520   32.9660 H   0  0  0  0  0  0  0  0  0  0  0  0
   39.7190   23.2710   32.0660 H   0  0  0  0  0  0  0  0  0  0  0  0
   36.8460   26.3320   31.9690 C   0  0  0  0  0  0  0  0  0  0  0  0
   37.7110   25.2100   32.0530 C   0  0  0  0  0  0  0  0  0  0  0  0
   37.2090   24.0070   31.6080 C   0  0  0  0  0  0  0  0  0  0  0  0
   35.9290   23.9570   31.1160 N   0  0  0  0  0  0  0  0  0  0  0  0
   35.1440   25.0420   31.0540 C   0  0  0  0  0  0  0  0  0  0  0  0
   35.6110   26.2460   31.4870 N   0  0  0  0  0  0  0  0  0  0  0  0
   37.1470   27.3150   32.2930 H   0  0  0  0  0  0  0  0  0  0  0  0
   37.7610   23.1020   31.6200 H   0  0  0  0  0  0  0  0  0  0  0  0
   34.1340   25.0070   30.6680 H   0  0  0  0  0  0  0  0  0  0  0  0
   39.0270   23.8910   36.5660 C   0  0  0  0  0  0  0  0  0  0  0  0
   39.6760   22.9750   37.3940 C   0  0  0  0  0  0  0  0  0  0  0  0
   40.6650   22.5570   37.2120 H   0  0  0  0  0  0  0  0  0  0  0  0
   38.8670   22.6980   38.4530 N   0  0  0  0  0  0  0  0  0  0  0  0
   39.0850   22.0520   39.2300 H   0  0  0  0  0  0  0  0  0  0  0  0
   37.7470   23.4190   38.2940 C   0  0  0  0  0  0  0  0  0  0  0  0
   36.8810   23.4430   38.9560 H   0  0  0  0  0  0  0  0  0  0  0  0
   37.8390   24.1470   37.1460 N   0  0  0  0  0  0  0  0  0  0  0  0
  1  7  1  6  0  0  0
  1  6  1  0  0  0  0
  1  2  1  0  0  0  0
  2  3  1  0  0  0  0
  3  4  1  0  0  0  0
  3 11  1  0  0  0  0
  3 10  1  0  0  0  0
  4 12  1  1  0  0  0
  4 26  1  0  0  0  0
  5 14  1  0  0  0  0
  5  4  1  0  0  0  0
  6 15  1  0  0  0  0
  6  5  1  0  0  0  0
  8  2  1  0  0  0  0
  9  2  1  0  0  0  0
 13  5  1  0  0  0  0
 16  6  1  0  0  0  0
 17 18  1  0  0  0  0
 17 23  1  0  0  0  0
 18  1  1  0  0  0  0
 19 24  1  0  0  0  0
 19 18  2  0  0  0  0
 20 19  1  0  0  0  0
 21 20  2  0  0  0  0
 21 22  1  0  0  0  0
 22 17  2  0  0  0  0
 25 21  1  0  0  0  0
 26 33  1  0  0  0  0
 26 27  2  0  0  0  0
 27 29  1  0  0  0  0
 28 27  1  0  0  0  0
 29 30  1  0  0  0  0
 31 29  1  0  0  0  0
 31 32  1  0  0  0  0
 33 31  2  0  0  0  0
M  END
>  <minimizedAffinity>
-4.74025631

$$$$

 OpenBabel03272506523D

 33 35  0  0  1  0  0  0  0  0999 V2000
   38.3420   26.4160   35.6420 C   0  0  1  0  0  0  0  0  0  0  0  0
   39.6640   26.8190   35.1820 C   0  0  0  0  0  0  0  0  0  0  0  0
   39.8660   26.9580   33.6990 C   0  0  0  0  0  0  0  0  0  0  0  0
   38.7090   27.4770   32.9380 C   0  0  2  0  0  0  0  0  0  0  0  0
   37.3470   27.0770   33.3920 C   0  0  0  0  0  0  0  0  0  0  0  0
   37.2360   27.0960   34.8830 C   0  0  0  0  0  0  0  0  0  0  0  0
   38.1970   26.8120   36.7000 H   0  0  0  0  0  0  0  0  0  0  0  0
   40.5390   26.2950   35.5780 H   0  0  0  0  0  0  0  0  0  0  0  0
   39.8200   27.8830   35.5640 H   0  0  0  0  0  0  0  0  0  0  0  0
   40.7370   27.6170   33.5230 H   0  0  0  0  0  0  0  0  0  0  0  0
   40.1250   25.9570   33.3170 H   0  0  0  0  0  0  0  0  0  0  0  0
   38.7680   28.5990   32.9720 H   0  0  0  0  0  0  0  0  0  0  0  0
   37.0230   26.0860   33.0310 H   0  0  0  0  0  0  0  0  0  0  0  0
   36.6090   27.7980   33.0080 H   0  0  0  0  0  0  0  0  0  0  0  0
   37.4250   28.1950   35.1180 H   0  0  0  0  0  0  0  0  0  0  0  0
   36.2330   26.9580   35.2680 H   0  0  0  0  0  0  0  0  0  0  0  0
   38.2780   24.0470   34.7470 C   0  0  0  0  0  0  0  0  0  0  0  0
   38.1110   24.9650   35.8160 C   0  0  0  0  0  0  0  0  0  0  0  0
   37.7300   24.4370   37.0300 C   0  0  0  0  0  0  0  0  0  0  0  0
   37.5380   23.0830   37.1410 N   0  0  0  0  0  0  0  0  0  0  0  0
   37.7070   22.2500   36.1040 C   0  0  0  0  0  0  0  0  0  0  0  0
   38.0830   22.7410   34.8910 N   0  0  0  0  0  0  0  0  0  0  0  0
   38.5740   24.3630   33.7590 H   0  0  0  0  0  0  0  0  0  0  0  0
   37.5750   25.0240   37.9000 H   0  0  0  0  0  0  0  0  0  0  0  0
   37.5560   21.1820   36.1880 H   0  0  0  0  0  0  0  0  0  0  0  0
   38.8570   27.1220   31.5000 C   0  0  0  0  0  0  0  0  0  0  0  0
   38.4790   25.8810   30.9880 C   0  0  0  0  0  0  0  0  0  0  0  0
   38.0510   25.0660   31.5710 H   0  0  0  0  0  0  0  0  0  0  0  0
   38.7370   25.8660   29.6510 N   0  0  0  0  0  0  0  0  0  0  0  0
   38.5600   25.0760   29.0080 H   0  0  0  0  0  0  0  0  0  0  0  0
   39.2590   27.0610   29.3360 C   0  0  0  0  0  0  0  0  0  0  0  0
   39.5830   27.3980   28.3510 H   0  0  0  0  0  0  0  0  0  0  0  0
   39.3340   27.8300   30.4590 N   0  0  0  0  0  0  0  0  0  0  0  0
  1 18  1  0  0  0  0
  1  7  1  1  0  0  0
  2  9  1  0  0  0  0
  2  8  1  0  0  0  0
  2  1  1  0  0  0  0
  3  2  1  0  0  0  0
  4 12  1  1  0  0  0
  4  5  1  0  0  0  0
  4  3  1  0  0  0  0
  5  6  1  0  0  0  0
  6 15  1  0  0  0  0
  6 16  1  0  0  0  0
  6  1  1  0  0  0  0
 10  3  1  0  0  0  0
 11  3  1  0  0  0  0
 13  5  1  0  0  0  0
 14  5  1  0  0  0  0
 17 22  2  0  0  0  0
 17 18  1  0  0  0  0
 18 19  2  0  0  0  0
 19 20  1  0  0  0  0
 19 24  1  0  0  0  0
 21 25  1  0  0  0  0
 21 20  2  0  0  0  0
 22 21  1  0  0  0  0
 23 17  1  0  0  0  0
 26  4  1  0  0  0  0
 27 26  2  0  0  0  0
 27 28  1  0  0  0  0
 29 27  1  0  0  0  0
 30 29  1  0  0  0  0
 31 29  1  0  0  0  0
 31 33  2  0  0  0  0
 32 31  1  0  0  0  0
 33 26  1  0  0  0  0
M  END
>  <minimizedAffinity>
-4.68336439

$$$$

 OpenBabel03272506523D

 33 35  0  0  1  0  0  0  0  0999 V2000
   38.6310   27.0800   33.1480 C   0  0  1  0  0  0  0  0  0  0  0  0
   37.3610   27.1950   33.8520 C   0  0  0  0  0  0  0  0  0  0  0  0
   37.1620   26.3280   35.0640 C   0  0  0  0  0  0  0  0  0  0  0  0
   38.3640   26.0950   35.8930 C   0  0  2  0  0  0  0  0  0  0  0  0
   39.6750   25.9760   35.1930 C   0  0  0  0  0  0  0  0  0  0  0  0
   39.8010   26.9740   34.0870 C   0  0  0  0  0  0  0  0  0  0  0  0
   38.8310   28.0650   32.6130 H   0  0  0  0  0  0  0  0  0  0  0  0
   36.4350   27.1520   33.2720 H   0  0  0  0  0  0  0  0  0  0  0  0
   37.3330   28.2510   34.2840 H   0  0  0  0  0  0  0  0  0  0  0  0
   36.3720   26.7780   35.6940 H   0  0  0  0  0  0  0  0  0  0  0  0
   36.7850   25.3560   34.7030 H   0  0  0  0  0  0  0  0  0  0  0  0
   38.4370   26.9530   36.6160 H   0  0  0  0  0  0  0  0  0  0  0  0
   39.8770   24.9720   34.7820 H   0  0  0  0  0  0  0  0  0  0  0  0
   40.4890   26.1830   35.9060 H   0  0  0  0  0  0  0  0  0  0  0  0
   39.7440   27.9610   34.6550 H   0  0  0  0  0  0  0  0  0  0  0  0
   40.7850   27.0350   33.6380 H   0  0  0  0  0  0  0  0  0  0  0  0
   37.5390   25.4160   31.5810 C   0  0  0  0  0  0  0  0  0  0  0  0
   38.6930   26.1020   32.0410 C   0  0  0  0  0  0  0  0  0  0  0  0
   39.8780   25.8190   31.3970 C   0  0  0  0  0  0  0  0  0  0  0  0
   39.8810   24.9110   30.3690 N   0  0  0  0  0  0  0  0  0  0  0  0
   38.7660   24.2840   29.9650 C   0  0  0  0  0  0  0  0  0  0  0  0
   37.5800   24.5430   30.5810 N   0  0  0  0  0  0  0  0  0  0  0  0
   36.5670   25.5700   32.0200 H   0  0  0  0  0  0  0  0  0  0  0  0
   40.8040   26.2690   31.6520 H   0  0  0  0  0  0  0  0  0  0  0  0
   38.7640   23.5680   29.1550 H   0  0  0  0  0  0  0  0  0  0  0  0
   38.1630   24.8880   36.7400 C   0  0  0  0  0  0  0  0  0  0  0  0
   38.0740   23.6020   36.2080 C   0  0  0  0  0  0  0  0  0  0  0  0
   38.1400   23.3550   35.1490 H   0  0  0  0  0  0  0  0  0  0  0  0
   37.8920   22.7210   37.2300 N   0  0  0  0  0  0  0  0  0  0  0  0
   37.7920   21.6960   37.1380 H   0  0  0  0  0  0  0  0  0  0  0  0
   37.8690   23.4330   38.3670 C   0  0  0  0  0  0  0  0  0  0  0  0
   37.7400   23.0520   39.3790 H   0  0  0  0  0  0  0  0  0  0  0  0
   38.0330   24.7540   38.0730 N   0  0  0  0  0  0  0  0  0  0  0  0
  1  7  1  6  0  0  0
  1  2  1  0  0  0  0
  1  6  1  0  0  0  0
  2  9  1  0  0  0  0
  2  3  1  0  0  0  0
  3 10  1  0  0  0  0
  3  4  1  0  0  0  0
  4 12  1  1  0  0  0
  4 26  1  0  0  0  0
  5  4  1  0  0  0  0
  5 14  1  0  0  0  0
  6 15  1  0  0  0  0
  6  5  1  0  0  0  0
  8  2  1  0  0  0  0
 11  3  1  0  0  0  0
 13  5  1  0  0  0  0
 16  6  1  0  0  0  0
 17 23  1  0  0  0  0
 17 18  1  0  0  0  0
 18  1  1  0  0  0  0
 19 24  1  0  0  0  0
 19 18  2  0  0  0  0
 20 19  1  0  0  0  0
 21 20  2  0  0  0  0
 21 22  1  0  0  0  0
 22 17  2  0  0  0  0
 25 21  1  0  0  0  0
 26 33  1  0  0  0  0
 27 26  2  0  0  0  0
 27 29  1  0  0  0  0
 28 27  1  0  0  0  0
 29 31  1  0  0  0  0
 30 29  1  0  0  0  0
 31 32  1  0  0  0  0
 33 31  2  0  0  0  0
M  END
>  <minimizedAffinity>
-4.66852093

$$$$

 OpenBabel03272506523D

 33 35  0  0  1  0  0  0  0  0999 V2000
   38.2740   26.3430   35.5790 C   0  0  1  0  0  0  0  0  0  0  0  0
   39.5960   26.7880   35.1620 C   0  0  0  0  0  0  0  0  0  0  0  0
   39.8320   26.9690   33.6880 C   0  0  0  0  0  0  0  0  0  0  0  0
   38.6820   27.4820   32.9120 C   0  0  2  0  0  0  0  0  0  0  0  0
   37.3180   27.0410   33.3220 C   0  0  0  0  0  0  0  0  0  0  0  0
   37.1710   27.0180   34.8090 C   0  0  0  0  0  0  0  0  0  0  0  0
   38.0940   26.7090   36.6420 H   0  0  0  0  0  0  0  0  0  0  0  0
   40.4730   26.2730   35.5650 H   0  0  0  0  0  0  0  0  0  0  0  0
   39.7190   27.8440   35.5740 H   0  0  0  0  0  0  0  0  0  0  0  0
   40.6910   27.6510   33.5500 H   0  0  0  0  0  0  0  0  0  0  0  0
   40.1220   25.9840   33.2870 H   0  0  0  0  0  0  0  0  0  0  0  0
   38.7150   28.6040   32.9760 H   0  0  0  0  0  0  0  0  0  0  0  0
   37.0260   26.0520   32.9270 H   0  0  0  0  0  0  0  0  0  0  0  0
   36.5740   27.7550   32.9370 H   0  0  0  0  0  0  0  0  0  0  0  0
   37.3300   28.1150   35.0770 H   0  0  0  0  0  0  0  0  0  0  0  0
   36.1620   26.8480   35.1660 H   0  0  0  0  0  0  0  0  0  0  0  0
   37.6400   24.2940   36.9260 C   0  0  0  0  0  0  0  0  0  0  0  0
   38.0710   24.8840   35.7090 C   0  0  0  0  0  0  0  0  0  0  0  0
   38.2830   24.0300   34.6490 C   0  0  0  0  0  0  0  0  0  0  0  0
   38.0700   22.6860   34.8200 N   0  0  0  0  0  0  0  0  0  0  0  0
   37.6620   22.1690   35.9870 C   0  0  0  0  0  0  0  0  0  0  0  0
   37.4440   22.9860   37.0540 N   0  0  0  0  0  0  0  0  0  0  0  0
   37.4470   24.8780   37.8110 H   0  0  0  0  0  0  0  0  0  0  0  0
   38.6050   24.3550   33.6920 H   0  0  0  0  0  0  0  0  0  0  0  0
   37.4940   21.1090   36.1260 H   0  0  0  0  0  0  0  0  0  0  0  0
   38.8720   27.1680   31.4700 C   0  0  0  0  0  0  0  0  0  0  0  0
   37.9960   27.6140   30.4800 C   0  0  0  0  0  0  0  0  0  0  0  0
   37.1080   28.2190   30.6550 H   0  0  0  0  0  0  0  0  0  0  0  0
   38.4390   27.1650   29.2730 N   0  0  0  0  0  0  0  0  0  0  0  0
   37.9910   27.3390   28.3590 H   0  0  0  0  0  0  0  0  0  0  0  0
   39.5580   26.4600   29.5000 C   0  0  0  0  0  0  0  0  0  0  0  0
   40.1790   25.9550   28.7600 H   0  0  0  0  0  0  0  0  0  0  0  0
   39.8260   26.4590   30.8360 N   0  0  0  0  0  0  0  0  0  0  0  0
  1 18  1  0  0  0  0
  1  7  1  1  0  0  0
  2  8  1  0  0  0  0
  2  9  1  0  0  0  0
  2  1  1  0  0  0  0
  3  2  1  0  0  0  0
  4 12  1  1  0  0  0
  4  5  1  0  0  0  0
  4  3  1  0  0  0  0
  5  6  1  0  0  0  0
  6 15  1  0  0  0  0
  6 16  1  0  0  0  0
  6  1  1  0  0  0  0
 10  3  1  0  0  0  0
 11  3  1  0  0  0  0
 13  5  1  0  0  0  0
 14  5  1  0  0  0  0
 17 22  1  0  0  0  0
 17 23  1  0  0  0  0
 18 17  2  0  0  0  0
 19 20  2  0  0  0  0
 19 18  1  0  0  0  0
 20 21  1  0  0  0  0
 21 25  1  0  0  0  0
 21 22  2  0  0  0  0
 24 19  1  0  0  0  0
 26  4  1  0  0  0  0
 27 28  1  0  0  0  0
 27 26  2  0  0  0  0
 29 31  1  0  0  0  0
 29 27  1  0  0  0  0
 30 29  1  0  0  0  0
 31 33  2  0  0  0  0
 32 31  1  0  0  0  0
 33 26  1  0  0  0  0
M  END
>  <minimizedAffinity>
-4.63400745

$$$$

 OpenBabel03272506523D

 33 35  0  0  1  0  0  0  0  0999 V2000
   37.2120   27.6580   32.3670 C   0  0  1  0  0  0  0  0  0  0  0  0
   37.2690   28.6250   31.2800 C   0  0  0  0  0  0  0  0  0  0  0  0
   36.0820   29.5280   31.0950 C   0  0  0  0  0  0  0  0  0  0  0  0
   35.4040   29.9610   32.3370 C   0  0  2  0  0  0  0  0  0  0  0  0
   35.3350   28.9880   33.4630 C   0  0  0  0  0  0  0  0  0  0  0  0
   36.6190   28.2380   33.6220 C   0  0  0  0  0  0  0  0  0  0  0  0
   38.2780   27.4160   32.6850 H   0  0  0  0  0  0  0  0  0  0  0  0
   37.5650   28.2780   30.2850 H   0  0  0  0  0  0  0  0  0  0  0  0
   38.1070   29.3520   31.5470 H   0  0  0  0  0  0  0  0  0  0  0  0
   36.4040   30.4230   30.5300 H   0  0  0  0  0  0  0  0  0  0  0  0
   35.3590   28.9820   30.4670 H   0  0  0  0  0  0  0  0  0  0  0  0
   35.9440   30.8760   32.7050 H   0  0  0  0  0  0  0  0  0  0  0  0
   34.5120   28.2570   33.3790 H   0  0  0  0  0  0  0  0  0  0  0  0
   35.1640   29.5320   34.4050 H   0  0  0  0  0  0  0  0  0  0  0  0
   37.3510   29.0760   33.8670 H   0  0  0  0  0  0  0  0  0  0  0  0
   36.6820   27.6230   34.5120 H   0  0  0  0  0  0  0  0  0  0  0  0
   35.5900   26.1490   31.1390 C   0  0  0  0  0  0  0  0  0  0  0  0
   36.6710   26.3200   32.0420 C   0  0  0  0  0  0  0  0  0  0  0  0
   37.2000   25.1760   32.5970 C   0  0  0  0  0  0  0  0  0  0  0  0
   36.6680   23.9580   32.2550 N   0  0  0  0  0  0  0  0  0  0  0  0
   35.6460   23.8400   31.3960 C   0  0  0  0  0  0  0  0  0  0  0  0
   35.1010   24.9530   30.8310 N   0  0  0  0  0  0  0  0  0  0  0  0
   35.1090   26.9830   30.6540 H   0  0  0  0  0  0  0  0  0  0  0  0
   38.0090   25.1790   33.2840 H   0  0  0  0  0  0  0  0  0  0  0  0
   35.2240   22.8820   31.1240 H   0  0  0  0  0  0  0  0  0  0  0  0
   34.0260   30.4240   32.0200 C   0  0  0  0  0  0  0  0  0  0  0  0
   32.8910   29.8720   32.6140 C   0  0  0  0  0  0  0  0  0  0  0  0
   32.8960   29.0680   33.3490 H   0  0  0  0  0  0  0  0  0  0  0  0
   31.7910   30.5030   32.1200 N   0  0  0  0  0  0  0  0  0  0  0  0
   30.8100   30.3050   32.3780 H   0  0  0  0  0  0  0  0  0  0  0  0
   32.2230   31.4230   31.2440 C   0  0  0  0  0  0  0  0  0  0  0  0
   31.6140   32.1130   30.6600 H   0  0  0  0  0  0  0  0  0  0  0  0
   33.5840   31.3790   31.1790 N   0  0  0  0  0  0  0  0  0  0  0  0
  1  7  1  1  0  0  0
  1  6  1  0  0  0  0
  2  9  1  0  0  0  0
  2  1  1  0  0  0  0
  3  2  1  0  0  0  0
  3  4  1  0  0  0  0
  4 12  1  1  0  0  0
  4  5  1  0  0  0  0
  5  6  1  0  0  0  0
  5 14  1  0  0  0  0
  6 15  1  0  0  0  0
  6 16  1  0  0  0  0
  8  2  1  0  0  0  0
 10  3  1  0  0  0  0
 11  3  1  0  0  0  0
 13  5  1  0  0  0  0
 17 18  1  0  0  0  0
 18  1  1  0  0  0  0
 18 19  2  0  0  0  0
 19 24  1  0  0  0  0
 20 19  1  0  0  0  0
 21 20  2  0  0  0  0
 22 17  2  0  0  0  0
 22 21  1  0  0  0  0
 23 17  1  0  0  0  0
 25 21  1  0  0  0  0
 26  4  1  0  0  0  0
 26 27  2  0  0  0  0
 27 28  1  0  0  0  0
 29 30  1  0  0  0  0
 29 27  1  0  0  0  0
 31 29  1  0  0  0  0
 32 31  1  0  0  0  0
 33 31  2  0  0  0  0
 33 26  1  0  0  0  0
M  END
>  <minimizedAffinity>
-4.60665178

$$$$
