
 OpenBabel03272504323D

 39 42  0  0  0  0  0  0  0  0999 V2000
   34.7040   29.4440   47.5210 C   0  0  0  0  0  0  0  0  0  0  0  0
   34.7910   29.7990   46.1820 C   0  0  0  0  0  0  0  0  0  0  0  0
   33.7020   29.6240   45.3330 C   0  0  0  0  0  0  0  0  0  0  0  0
   32.5640   29.0940   45.8790 N   0  0  0  0  0  0  0  0  0  0  0  0
   32.5130   28.7590   47.1810 C   0  0  0  0  0  0  0  0  0  0  0  0
   33.5620   28.9220   48.0260 N   0  0  0  0  0  0  0  0  0  0  0  0
   35.7140   30.2150   45.7990 H   0  0  0  0  0  0  0  0  0  0  0  0
   33.7210   29.8840   44.2920 H   0  0  0  0  0  0  0  0  0  0  0  0
   35.7880   29.6000   48.4350 N   0  0  0  0  0  0  0  0  0  0  0  0
   35.8860   28.8140   49.6500 C   0  0  0  0  0  0  0  0  0  0  0  0
   36.2790   29.5940   50.8630 C   0  0  0  0  0  0  0  0  0  0  0  0
   37.0860   30.7340   50.6740 N   0  0  0  0  0  0  0  0  0  0  0  0
   36.7580   31.4780   49.4520 C   0  0  0  0  0  0  0  0  0  0  0  0
   36.8850   30.4980   48.3160 C   0  0  0  0  0  0  0  0  0  0  0  0
   36.6630   28.0340   49.4560 H   0  0  0  0  0  0  0  0  0  0  0  0
   34.9430   28.2770   49.7760 H   0  0  0  0  0  0  0  0  0  0  0  0
   36.8230   28.9040   51.5520 H   0  0  0  0  0  0  0  0  0  0  0  0
   35.3470   29.8900   51.4110 H   0  0  0  0  0  0  0  0  0  0  0  0
   38.0800   30.4370   50.5350 H   0  0  0  0  0  0  0  0  0  0  0  0
   35.6690   31.7480   49.5640 H   0  0  0  0  0  0  0  0  0  0  0  0
   37.3930   32.3640   49.3710 H   0  0  0  0  0  0  0  0  0  0  0  0
   37.8600   29.9790   48.4260 H   0  0  0  0  0  0  0  0  0  0  0  0
   36.8430   31.0420   47.3330 H   0  0  0  0  0  0  0  0  0  0  0  0
   31.2740   28.1990   47.7060 C   0  0  0  0  0  0  0  0  0  0  0  0
   31.2340   27.6030   48.9370 C   0  0  0  0  0  0  0  0  0  0  0  0
   30.0920   27.0530   49.4930 C   0  0  0  0  0  0  0  0  0  0  0  0
   28.9800   27.1370   48.7280 N   0  0  0  0  0  0  0  0  0  0  0  0
   29.0070   27.7180   47.5220 C   0  0  0  0  0  0  0  0  0  0  0  0
   30.1390   28.2530   46.9940 N   0  0  0  0  0  0  0  0  0  0  0  0
   32.1300   27.5310   49.5590 H   0  0  0  0  0  0  0  0  0  0  0  0
   30.0940   26.5940   50.4550 H   0  0  0  0  0  0  0  0  0  0  0  0
   27.8510   27.8540   46.6270 C   0  0  0  0  0  0  0  0  0  0  0  0
   26.5700   28.3510   46.6490 C   0  0  0  0  0  0  0  0  0  0  0  0
   26.2630   28.7880   47.5860 H   0  0  0  0  0  0  0  0  0  0  0  0
   26.0460   28.1320   45.4210 N   0  0  0  0  0  0  0  0  0  0  0  0
   25.0780   28.4390   45.2370 H   0  0  0  0  0  0  0  0  0  0  0  0
   26.9650   27.5180   44.6460 C   0  0  0  0  0  0  0  0  0  0  0  0
   26.7910   27.2320   43.6140 H   0  0  0  0  0  0  0  0  0  0  0  0
   28.0960   27.3390   45.3890 N   0  0  0  0  0  0  0  0  0  0  0  0
  1  6  1  0  0  0  0
  1  9  1  0  0  0  0
  2  1  2  0  0  0  0
  3  4  2  0  0  0  0
  3  2  1  0  0  0  0
  4  5  1  0  0  0  0
  5 24  1  0  0  0  0
  5  6  2  0  0  0  0
  7  2  1  0  0  0  0
  8  3  1  0  0  0  0
  9 10  1  0  0  0  0
 10 16  1  0  0  0  0
 10 11  1  0  0  0  0
 11 18  1  0  0  0  0
 11 17  1  0  0  0  0
 12 11  1  0  0  0  0
 13 20  1  0  0  0  0
 13 12  1  0  0  0  0
 14 22  1  0  0  0  0
 14  9  1  0  0  0  0
 14 13  1  0  0  0  0
 15 10  1  0  0  0  0
 19 12  1  0  0  0  0
 21 13  1  0  0  0  0
 23 14  1  0  0  0  0
 24 25  1  0  0  0  0
 25 26  2  0  0  0  0
 25 30  1  0  0  0  0
 26 31  1  0  0  0  0
 27 26  1  0  0  0  0
 28 27  2  0  0  0  0
 29 28  1  0  0  0  0
 29 24  2  0  0  0  0
 32 33  2  0  0  0  0
 32 28  1  0  0  0  0
 33 34  1  0  0  0  0
 35 33  1  0  0  0  0
 36 35  1  0  0  0  0
 37 39  2  0  0  0  0
 37 35  1  0  0  0  0
 38 37  1  0  0  0  0
 39 32  1  0  0  0  0
M  END
>  <minimizedAffinity>
-5.21737194

>  <minimizedRMSD>
0.639519811

$$$$
