
 OpenBabel03272510193D

 35 38  0  0  0  0  0  0  0  0999 V2000
   37.4430   29.1630   50.8190 Br  0  0  0  0  0  0  0  0  0  0  0  0
   36.0410   29.3110   49.5370 C   0  0  0  0  0  0  0  0  0  0  0  0
   36.0410   30.3400   48.6110 C   0  0  0  0  0  0  0  0  0  0  0  0
   35.0020   30.3920   47.7120 C   0  0  0  0  0  0  0  0  0  0  0  0
   33.9670   29.4620   47.7020 C   0  0  0  0  0  0  0  0  0  0  0  0
   33.9960   28.4640   48.6230 C   0  0  0  0  0  0  0  0  0  0  0  0
   35.0340   28.4000   49.5310 C   0  0  0  0  0  0  0  0  0  0  0  0
   34.9450   31.1670   46.9670 H   0  0  0  0  0  0  0  0  0  0  0  0
   33.2180   27.7040   48.6700 H   0  0  0  0  0  0  0  0  0  0  0  0
   35.0410   27.6080   50.2500 H   0  0  0  0  0  0  0  0  0  0  0  0
   38.0190   33.2510   49.5910 C   0  0  0  0  0  0  0  0  0  0  0  0
   39.0760   33.2630   48.6250 C   0  0  0  0  0  0  0  0  0  0  0  0
   39.0820   32.2700   47.6620 C   0  0  0  0  0  0  0  0  0  0  0  0
   38.0860   31.3320   47.6760 N   0  0  0  0  0  0  0  0  0  0  0  0
   37.1040   31.3350   48.5870 C   0  0  0  0  0  0  0  0  0  0  0  0
   37.0730   32.3050   49.5530 N   0  0  0  0  0  0  0  0  0  0  0  0
   37.9390   33.9760   50.3640 H   0  0  0  0  0  0  0  0  0  0  0  0
   39.8150   34.0410   48.6930 H   0  0  0  0  0  0  0  0  0  0  0  0
   39.8670   32.2530   46.9190 H   0  0  0  0  0  0  0  0  0  0  0  0
   32.8650   29.5140   46.7500 C   0  0  0  0  0  0  0  0  0  0  0  0
   31.9680   28.5000   46.5220 C   0  0  0  0  0  0  0  0  0  0  0  0
   30.9380   28.5950   45.6090 C   0  0  0  0  0  0  0  0  0  0  0  0
   30.7840   29.7100   44.9050 N   0  0  0  0  0  0  0  0  0  0  0  0
   31.6540   30.7320   45.1070 C   0  0  0  0  0  0  0  0  0  0  0  0
   32.6420   30.6170   45.9940 N   0  0  0  0  0  0  0  0  0  0  0  0
   32.0880   27.5810   47.0980 H   0  0  0  0  0  0  0  0  0  0  0  0
   30.2410   27.7860   45.4440 H   0  0  0  0  0  0  0  0  0  0  0  0
   31.6460   32.0410   44.4230 C   0  0  0  0  0  0  0  0  0  0  0  0
   32.3870   32.3250   43.2720 C   0  0  0  0  0  0  0  0  0  0  0  0
   33.0420   31.6800   42.7290 H   0  0  0  0  0  0  0  0  0  0  0  0
   32.1250   33.6180   42.9420 N   0  0  0  0  0  0  0  0  0  0  0  0
   32.5260   34.1240   42.1310 H   0  0  0  0  0  0  0  0  0  0  0  0
   31.2560   34.1340   43.8420 C   0  0  0  0  0  0  0  0  0  0  0  0
   30.8280   35.1280   43.8950 H   0  0  0  0  0  0  0  0  0  0  0  0
   30.9730   33.1680   44.7350 N   0  0  0  0  0  0  0  0  0  0  0  0
  2  1  1  0  0  0  0
  3  2  2  0  0  0  0
  4  3  1  0  0  0  0
  5  4  2  0  0  0  0
  5  6  1  0  0  0  0
  6  9  1  0  0  0  0
  6  7  2  0  0  0  0
  7  2  1  0  0  0  0
  7 10  1  0  0  0  0
  8  4  1  0  0  0  0
 11 17  1  0  0  0  0
 12 18  1  0  0  0  0
 12 11  2  0  0  0  0
 13 14  2  0  0  0  0
 13 12  1  0  0  0  0
 14 15  1  0  0  0  0
 15  3  1  0  0  0  0
 15 16  2  0  0  0  0
 16 11  1  0  0  0  0
 19 13  1  0  0  0  0
 20  5  1  0  0  0  0
 21 20  1  0  0  0  0
 21 26  1  0  0  0  0
 22 21  2  0  0  0  0
 23 24  2  0  0  0  0
 23 22  1  0  0  0  0
 24 25  1  0  0  0  0
 25 20  2  0  0  0  0
 27 22  1  0  0  0  0
 28 35  1  0  0  0  0
 28 24  1  0  0  0  0
 29 28  2  0  0  0  0
 30 29  1  0  0  0  0
 31 29  1  0  0  0  0
 31 33  1  0  0  0  0
 32 31  1  0  0  0  0
 33 34  1  0  0  0  0
 33 35  2  0  0  0  0
M  END
>  <minimizedAffinity>
-6.39791775

>  <minimizedRMSD>
0.565819263

$$$$
