
 OpenBabel03272510193D

 35 38  0  0  0  0  0  0  0  0999 V2000
   37.4440   29.1610   50.8180 Br  0  0  0  0  0  0  0  0  0  0  0  0
   36.0420   29.3100   49.5370 C   0  0  0  0  0  0  0  0  0  0  0  0
   36.0410   30.3390   48.6110 C   0  0  0  0  0  0  0  0  0  0  0  0
   35.0010   30.3920   47.7130 C   0  0  0  0  0  0  0  0  0  0  0  0
   33.9670   29.4620   47.7030 C   0  0  0  0  0  0  0  0  0  0  0  0
   33.9960   28.4630   48.6230 C   0  0  0  0  0  0  0  0  0  0  0  0
   35.0350   28.3990   49.5310 C   0  0  0  0  0  0  0  0  0  0  0  0
   34.9430   31.1680   46.9690 H   0  0  0  0  0  0  0  0  0  0  0  0
   33.2180   27.7030   48.6700 H   0  0  0  0  0  0  0  0  0  0  0  0
   35.0420   27.6070   50.2490 H   0  0  0  0  0  0  0  0  0  0  0  0
   38.0200   33.2500   49.5920 C   0  0  0  0  0  0  0  0  0  0  0  0
   39.0750   33.2630   48.6260 C   0  0  0  0  0  0  0  0  0  0  0  0
   39.0800   32.2720   47.6610 C   0  0  0  0  0  0  0  0  0  0  0  0
   38.0840   31.3330   47.6750 N   0  0  0  0  0  0  0  0  0  0  0  0
   37.1040   31.3350   48.5870 C   0  0  0  0  0  0  0  0  0  0  0  0
   37.0740   32.3040   49.5540 N   0  0  0  0  0  0  0  0  0  0  0  0
   37.9410   33.9730   50.3670 H   0  0  0  0  0  0  0  0  0  0  0  0
   39.8150   34.0410   48.6940 H   0  0  0  0  0  0  0  0  0  0  0  0
   39.8640   32.2560   46.9160 H   0  0  0  0  0  0  0  0  0  0  0  0
   32.8640   29.5150   46.7520 C   0  0  0  0  0  0  0  0  0  0  0  0
   31.9660   28.5010   46.5250 C   0  0  0  0  0  0  0  0  0  0  0  0
   30.9350   28.5960   45.6120 C   0  0  0  0  0  0  0  0  0  0  0  0
   30.7820   29.7120   44.9080 N   0  0  0  0  0  0  0  0  0  0  0  0
   31.6520   30.7330   45.1090 C   0  0  0  0  0  0  0  0  0  0  0  0
   32.6410   30.6170   45.9960 N   0  0  0  0  0  0  0  0  0  0  0  0
   32.0850   27.5820   47.1010 H   0  0  0  0  0  0  0  0  0  0  0  0
   30.2380   27.7880   45.4480 H   0  0  0  0  0  0  0  0  0  0  0  0
   31.6450   32.0420   44.4240 C   0  0  0  0  0  0  0  0  0  0  0  0
   32.4020   32.3310   43.2850 C   0  0  0  0  0  0  0  0  0  0  0  0
   33.0710   31.6920   42.7530 H   0  0  0  0  0  0  0  0  0  0  0  0
   32.1340   33.6220   42.9510 N   0  0  0  0  0  0  0  0  0  0  0  0
   32.5440   34.1320   42.1460 H   0  0  0  0  0  0  0  0  0  0  0  0
   31.2470   34.1320   43.8360 C   0  0  0  0  0  0  0  0  0  0  0  0
   30.8090   35.1220   43.8830 H   0  0  0  0  0  0  0  0  0  0  0  0
   30.9580   33.1620   44.7260 N   0  0  0  0  0  0  0  0  0  0  0  0
  2  1  1  0  0  0  0
  3  2  2  0  0  0  0
  4  3  1  0  0  0  0
  5  4  2  0  0  0  0
  5  6  1  0  0  0  0
  6  9  1  0  0  0  0
  6  7  2  0  0  0  0
  7  2  1  0  0  0  0
  7 10  1  0  0  0  0
  8  4  1  0  0  0  0
 11 17  1  0  0  0  0
 12 18  1  0  0  0  0
 12 11  2  0  0  0  0
 13 14  2  0  0  0  0
 13 12  1  0  0  0  0
 14 15  1  0  0  0  0
 15  3  1  0  0  0  0
 15 16  2  0  0  0  0
 16 11  1  0  0  0  0
 19 13  1  0  0  0  0
 20  5  1  0  0  0  0
 21 20  1  0  0  0  0
 21 26  1  0  0  0  0
 22 21  2  0  0  0  0
 23 24  2  0  0  0  0
 23 22  1  0  0  0  0
 24 25  1  0  0  0  0
 25 20  2  0  0  0  0
 27 22  1  0  0  0  0
 28 35  1  0  0  0  0
 28 24  1  0  0  0  0
 29 28  2  0  0  0  0
 30 29  1  0  0  0  0
 31 29  1  0  0  0  0
 31 33  1  0  0  0  0
 32 31  1  0  0  0  0
 33 34  1  0  0  0  0
 33 35  2  0  0  0  0
M  END
>  <minimizedAffinity>
-6.39842081

>  <minimizedRMSD>
0.492010415

$$$$
