
 OpenBabel03272510193D

 35 38  0  0  0  0  0  0  0  0999 V2000
   37.2990   29.3260   51.0140 Br  0  0  0  0  0  0  0  0  0  0  0  0
   35.9530   29.3180   49.6650 C   0  0  0  0  0  0  0  0  0  0  0  0
   35.9900   30.2360   48.6290 C   0  0  0  0  0  0  0  0  0  0  0  0
   34.9910   30.1790   47.6870 C   0  0  0  0  0  0  0  0  0  0  0  0
   33.9600   29.2460   47.7380 C   0  0  0  0  0  0  0  0  0  0  0  0
   33.9520   28.3580   48.7650 C   0  0  0  0  0  0  0  0  0  0  0  0
   34.9500   28.4050   49.7180 C   0  0  0  0  0  0  0  0  0  0  0  0
   34.9640   30.8660   46.8580 H   0  0  0  0  0  0  0  0  0  0  0  0
   33.1740   27.6030   48.8640 H   0  0  0  0  0  0  0  0  0  0  0  0
   34.9280   27.6990   50.5220 H   0  0  0  0  0  0  0  0  0  0  0  0
   37.9900   33.1840   49.4430 C   0  0  0  0  0  0  0  0  0  0  0  0
   39.0200   33.1590   48.4500 C   0  0  0  0  0  0  0  0  0  0  0  0
   39.0020   32.1310   47.5260 C   0  0  0  0  0  0  0  0  0  0  0  0
   38.0080   31.1930   47.6030 N   0  0  0  0  0  0  0  0  0  0  0  0
   37.0510   31.2300   48.5380 C   0  0  0  0  0  0  0  0  0  0  0  0
   37.0440   32.2370   49.4670 N   0  0  0  0  0  0  0  0  0  0  0  0
   37.9290   33.9390   50.1900 H   0  0  0  0  0  0  0  0  0  0  0  0
   39.7590   33.9400   48.4680 H   0  0  0  0  0  0  0  0  0  0  0  0
   39.7670   32.0850   46.7630 H   0  0  0  0  0  0  0  0  0  0  0  0
   32.9000   29.1830   46.7400 C   0  0  0  0  0  0  0  0  0  0  0  0
   32.3040   28.0310   46.2910 C   0  0  0  0  0  0  0  0  0  0  0  0
   31.3010   28.0190   45.3430 C   0  0  0  0  0  0  0  0  0  0  0  0
   30.8740   29.1650   44.8250 N   0  0  0  0  0  0  0  0  0  0  0  0
   31.4420   30.3220   45.2470 C   0  0  0  0  0  0  0  0  0  0  0  0
   32.4100   30.3080   46.1630 N   0  0  0  0  0  0  0  0  0  0  0  0
   32.6490   27.0860   46.7140 H   0  0  0  0  0  0  0  0  0  0  0  0
   30.8430   27.1020   45.0040 H   0  0  0  0  0  0  0  0  0  0  0  0
   31.1050   31.6850   44.7890 C   0  0  0  0  0  0  0  0  0  0  0  0
   29.8410   32.0620   44.3270 C   0  0  0  0  0  0  0  0  0  0  0  0
   28.9620   31.4620   44.2320 H   0  0  0  0  0  0  0  0  0  0  0  0
   29.9170   33.3800   44.0000 N   0  0  0  0  0  0  0  0  0  0  0  0
   29.1360   33.9530   43.6250 H   0  0  0  0  0  0  0  0  0  0  0  0
   31.1720   33.8230   44.2440 C   0  0  0  0  0  0  0  0  0  0  0  0
   31.5940   34.8110   44.1040 H   0  0  0  0  0  0  0  0  0  0  0  0
   31.8830   32.7850   44.7230 N   0  0  0  0  0  0  0  0  0  0  0  0
  2  7  1  0  0  0  0
  2  1  1  0  0  0  0
  3  2  2  0  0  0  0
  4  5  2  0  0  0  0
  4  3  1  0  0  0  0
  5  6  1  0  0  0  0
  6  9  1  0  0  0  0
  6  7  2  0  0  0  0
  7 10  1  0  0  0  0
  8  4  1  0  0  0  0
 11 16  1  0  0  0  0
 11 17  1  0  0  0  0
 12 18  1  0  0  0  0
 12 11  2  0  0  0  0
 13 14  2  0  0  0  0
 13 12  1  0  0  0  0
 14 15  1  0  0  0  0
 15  3  1  0  0  0  0
 15 16  2  0  0  0  0
 19 13  1  0  0  0  0
 20  5  1  0  0  0  0
 21 26  1  0  0  0  0
 21 20  1  0  0  0  0
 22 21  2  0  0  0  0
 23 24  2  0  0  0  0
 23 22  1  0  0  0  0
 24 25  1  0  0  0  0
 25 20  2  0  0  0  0
 27 22  1  0  0  0  0
 28 24  1  0  0  0  0
 29 28  2  0  0  0  0
 30 29  1  0  0  0  0
 31 33  1  0  0  0  0
 31 29  1  0  0  0  0
 32 31  1  0  0  0  0
 33 35  2  0  0  0  0
 34 33  1  0  0  0  0
 35 28  1  0  0  0  0
M  END
>  <minimizedAffinity>
-6.67165089

>  <minimizedRMSD>
0.171583474

$$$$
