REMARK  Name = 
REMARK  3 active torsions:
REMARK  status: ('A' for Active; 'I' for Inactive)
REMARK    1  A    between atoms: C_3  and  C_12
REMARK    2  A    between atoms: C_5  and  C_14
REMARK    3  A    between atoms: C_18  and  C_28
REMARK                            x       y       z     vdW  Elec       q    Type
REMARK                         _______ _______ _______ _____ _____    ______ ____
ROOT
ATOM      1 BR   UNL     1      37.310  29.335  51.025  0.00  0.00    +0.000 Br
ATOM      2  C   UNL     1      35.962  29.328  49.679  0.00  0.00    +0.000 A 
ATOM      3  C   UNL     1      35.995  30.248  48.645  0.00  0.00    +0.000 A 
ATOM      4  C   UNL     1      34.994  30.191  47.705  0.00  0.00    +0.000 A 
ATOM      5  C   UNL     1      33.965  29.256  47.756  0.00  0.00    +0.000 A 
ATOM      6  C   UNL     1      33.960  28.366  48.782  0.00  0.00    +0.000 A 
ATOM      7  C   UNL     1      34.960  28.413  49.733  0.00  0.00    +0.000 A 
ATOM      8  H   UNL     1      34.964  30.879  46.877  0.00  0.00    +0.000 HD
ATOM      9  H   UNL     1      33.184  27.609  48.881  0.00  0.00    +0.000 HD
ATOM     10  H   UNL     1      34.941  27.705  50.535  0.00  0.00    +0.000 HD
ENDROOT
BRANCH   3  15
ATOM     11  C   UNL     1      37.988  33.201  49.457  0.00  0.00    +0.000 A 
ATOM     12  C   UNL     1      39.019  33.177  48.465  0.00  0.00    +0.000 A 
ATOM     13  C   UNL     1      39.004  32.147  47.542  0.00  0.00    +0.000 A 
ATOM     14  N   UNL     1      38.012  31.207  47.619  0.00  0.00    +0.000 NA
ATOM     15  C   UNL     1      37.054  31.244  48.554  0.00  0.00    +0.000 A 
ATOM     16  N   UNL     1      37.044  32.252  49.481  0.00  0.00    +0.000 NA
ATOM     17  H   UNL     1      37.925  33.956  50.203  0.00  0.00    +0.000 HD
ATOM     18  H   UNL     1      39.757  33.959  48.483  0.00  0.00    +0.000 HD
ATOM     19  H   UNL     1      39.770  32.102  46.780  0.00  0.00    +0.000 HD
ENDBRANCH   3  15
BRANCH   5  20
ATOM     20  C   UNL     1      32.903  29.193  46.760  0.00  0.00    +0.000 A 
ATOM     21  C   UNL     1      32.262  28.047  46.359  0.00  0.00    +0.000 A 
ATOM     22  C   UNL     1      31.259  28.035  45.411  0.00  0.00    +0.000 A 
ATOM     23  N   UNL     1      30.877  29.174  44.845  0.00  0.00    +0.000 NA
ATOM     24  C   UNL     1      31.490  30.325  45.219  0.00  0.00    +0.000 A 
ATOM     25  N   UNL     1      32.457  30.311  46.137  0.00  0.00    +0.000 NA
ATOM     26  H   UNL     1      32.570  27.108  46.821  0.00  0.00    +0.000 HD
ATOM     27  H   UNL     1      30.766  27.123  45.109  0.00  0.00    +0.000 HD
BRANCH  24  28
ATOM     28  C   UNL     1      31.206  31.680  44.705  0.00  0.00    +0.000 A 
ATOM     29  C   UNL     1      31.727  32.851  45.264  0.00  0.00    +0.000 A 
ATOM     30  H   UNL     1      32.377  32.953  46.105  0.00  0.00    +0.000 HD
ATOM     31  N   UNL     1      31.246  33.888  44.527  0.00  0.00    +0.000 N 
ATOM     32  H   UNL     1      31.453  34.891  44.693  0.00  0.00    +0.000 HD
ATOM     33  C   UNL     1      30.455  33.400  43.543  0.00  0.00    +0.000 A 
ATOM     34  H   UNL     1      29.908  33.928  42.772  0.00  0.00    +0.000 HD
ATOM     35  N   UNL     1      30.439  32.059  43.662  0.00  0.00    +0.000 NA
ENDBRANCH  24  28
ENDBRANCH   5  20
TORSDOF 3
