
 OpenBabel03272506573D

 27 29  0  0  0  0  0  0  0  0999 V2000
   38.3640   31.6360   47.3730 C   0  0  0  0  0  0  0  0  0  0  0  0
   38.7610   32.6880   48.1860 C   0  0  0  0  0  0  0  0  0  0  0  0
   38.1800   33.0490   49.3770 C   0  0  0  0  0  0  0  0  0  0  0  0
   37.1240   32.2940   49.7740 N   0  0  0  0  0  0  0  0  0  0  0  0
   36.7120   31.2540   48.9970 C   0  0  0  0  0  0  0  0  0  0  0  0
   37.3170   30.9390   47.8350 N   0  0  0  0  0  0  0  0  0  0  0  0
   39.6020   33.2940   47.8750 H   0  0  0  0  0  0  0  0  0  0  0  0
   38.5160   33.8670   49.9720 H   0  0  0  0  0  0  0  0  0  0  0  0
   39.2370   29.9570   44.2850 C   0  0  0  0  0  0  0  0  0  0  0  0
   40.2970   30.7050   43.7450 C   0  0  0  0  0  0  0  0  0  0  0  0
   40.6970   31.8180   44.4960 C   0  0  0  0  0  0  0  0  0  0  0  0
   40.0630   32.0900   45.6520 N   0  0  0  0  0  0  0  0  0  0  0  0
   39.0600   31.3460   46.1220 C   0  0  0  0  0  0  0  0  0  0  0  0
   38.5970   30.2390   45.4590 N   0  0  0  0  0  0  0  0  0  0  0  0
   38.8640   29.0770   43.7640 H   0  0  0  0  0  0  0  0  0  0  0  0
   41.5010   32.3900   44.0920 H   0  0  0  0  0  0  0  0  0  0  0  0
   40.8850   30.3170   42.5160 N   0  0  0  0  0  0  0  0  0  0  0  0
   40.8210   29.3040   42.2600 H   0  0  0  0  0  0  0  0  0  0  0  0
   41.3550   31.0280   41.9110 H   0  0  0  0  0  0  0  0  0  0  0  0
   35.5920   30.3740   49.3210 C   0  0  0  0  0  0  0  0  0  0  0  0
   34.6220   30.2150   48.3510 C   0  0  0  0  0  0  0  0  0  0  0  0
   34.4830   30.6150   47.3340 H   0  0  0  0  0  0  0  0  0  0  0  0
   33.6560   29.3720   48.8060 N   0  0  0  0  0  0  0  0  0  0  0  0
   32.7710   28.9960   48.4010 H   0  0  0  0  0  0  0  0  0  0  0  0
   34.0340   29.0130   50.0610 C   0  0  0  0  0  0  0  0  0  0  0  0
   33.5140   28.3500   50.7400 H   0  0  0  0  0  0  0  0  0  0  0  0
   35.2140   29.6220   50.3760 N   0  0  0  0  0  0  0  0  0  0  0  0
  1  6  2  0  0  0  0
  1  2  1  0  0  0  0
  2  3  2  0  0  0  0
  3  4  1  0  0  0  0
  3  8  1  0  0  0  0
  5 20  1  0  0  0  0
  5  4  2  0  0  0  0
  6  5  1  0  0  0  0
  7  2  1  0  0  0  0
  9 14  1  0  0  0  0
 10  9  2  0  0  0  0
 10 11  1  0  0  0  0
 11 12  2  0  0  0  0
 12 13  1  0  0  0  0
 13  1  1  0  0  0  0
 14 13  2  0  0  0  0
 15  9  1  0  0  0  0
 16 11  1  0  0  0  0
 17 10  1  0  0  0  0
 18 17  1  0  0  0  0
 19 17  1  0  0  0  0
 20 27  1  0  0  0  0
 21 23  1  0  0  0  0
 21 20  2  0  0  0  0
 22 21  1  0  0  0  0
 23 25  1  0  0  0  0
 24 23  1  0  0  0  0
 25 27  2  0  0  0  0
 25 26  1  0  0  0  0
M  END
>  <minimizedAffinity>
-5.62386417

>  <minimizedRMSD>
6.32052565

$$$$
