
 OpenBabel03272510043D

 36 38  0  0  0  0  0  0  0  0999 V2000
   35.3270   29.8860   45.4650 C   0  0  0  0  0  0  0  0  0  0  0  0
   35.1190   29.7450   46.8000 C   0  0  0  0  0  0  0  0  0  0  0  0
   33.9520   29.1390   47.2550 C   0  0  0  0  0  0  0  0  0  0  0  0
   32.9770   28.6670   46.3980 C   0  0  0  0  0  0  0  0  0  0  0  0
   33.1530   28.7950   45.0520 C   0  0  0  0  0  0  0  0  0  0  0  0
   34.3150   29.3980   44.6280 C   0  0  0  0  0  0  0  0  0  0  0  0
   33.8130   29.0370   48.3410 H   0  0  0  0  0  0  0  0  0  0  0  0
   32.1190   28.2150   46.8620 H   0  0  0  0  0  0  0  0  0  0  0  0
   32.3700   28.4170   44.4170 H   0  0  0  0  0  0  0  0  0  0  0  0
   34.3350   29.4440   43.5320 H   0  0  0  0  0  0  0  0  0  0  0  0
   37.6960   31.8430   48.3640 C   0  0  0  0  0  0  0  0  0  0  0  0
   36.7650   31.3470   47.4660 C   0  0  0  0  0  0  0  0  0  0  0  0
   36.0520   30.2320   47.7590 C   0  0  0  0  0  0  0  0  0  0  0  0
   36.2920   29.6420   48.9650 N   0  0  0  0  0  0  0  0  0  0  0  0
   37.1840   30.1160   49.8380 C   0  0  0  0  0  0  0  0  0  0  0  0
   37.8820   31.2130   49.5300 N   0  0  0  0  0  0  0  0  0  0  0  0
   38.3400   32.7020   48.2910 H   0  0  0  0  0  0  0  0  0  0  0  0
   36.7900   32.0420   46.6610 H   0  0  0  0  0  0  0  0  0  0  0  0
   37.2910   29.4160   51.1450 C   0  0  0  0  0  0  0  0  0  0  0  0
   37.7240   30.2540   52.1520 F   0  0  0  0  0  0  0  0  0  0  0  0
   35.9580   29.0620   51.5870 F   0  0  0  0  0  0  0  0  0  0  0  0
   37.9290   28.2670   51.1600 F   0  0  0  0  0  0  0  0  0  0  0  0
   36.7320   30.5790   44.7820 S   0  0  0  0  0  0  0  0  0  0  0  0
   36.4180   31.8020   44.0010 O   0  0  0  0  0  0  0  0  0  0  0  0
   36.8950   29.6530   43.5940 O   0  0  0  0  0  0  0  0  0  0  0  0
   38.3620   30.2460   45.1280 C   0  0  0  0  0  0  0  0  0  0  0  0
   38.3540   29.9710   46.2570 H   0  0  0  0  0  0  0  0  0  0  0  0
   38.7170   29.2770   44.7310 H   0  0  0  0  0  0  0  0  0  0  0  0
   39.2930   31.3540   45.1200 C   0  0  0  0  0  0  0  0  0  0  0  0
   40.6160   31.0960   45.4930 C   0  0  0  0  0  0  0  0  0  0  0  0
   41.1270   30.2010   45.8030 H   0  0  0  0  0  0  0  0  0  0  0  0
   41.3050   32.2710   45.4120 N   0  0  0  0  0  0  0  0  0  0  0  0
   42.3270   32.4270   45.6260 H   0  0  0  0  0  0  0  0  0  0  0  0
   40.4160   33.1810   45.0090 C   0  0  0  0  0  0  0  0  0  0  0  0
   40.5600   34.2360   44.8220 H   0  0  0  0  0  0  0  0  0  0  0  0
   39.2000   32.6590   44.8250 N   0  0  0  0  0  0  0  0  0  0  0  0
  1  2  1  0  0  0  0
  2  3  2  0  0  0  0
  2 13  1  0  0  0  0
  3  7  1  0  0  0  0
  4  8  1  0  0  0  0
  4  3  1  0  0  0  0
  5  4  2  0  0  0  0
  6  5  1  0  0  0  0
  6  1  2  0  0  0  0
  9  5  1  0  0  0  0
 10  6  1  0  0  0  0
 11 16  1  0  0  0  0
 12 13  1  0  0  0  0
 12 11  2  0  0  0  0
 13 14  2  0  0  0  0
 14 15  1  0  0  0  0
 15 19  1  0  0  0  0
 16 15  2  0  0  0  0
 17 11  1  0  0  0  0
 18 12  1  0  0  0  0
 19 22  1  0  0  0  0
 19 21  1  0  0  0  0
 19 20  1  0  0  0  0
 23 26  1  0  0  0  0
 23  1  1  0  0  0  0
 24 23  2  0  0  0  0
 25 23  2  0  0  0  0
 26 27  1  0  0  0  0
 28 26  1  0  0  0  0
 29 26  1  0  0  0  0
 29 30  2  0  0  0  0
 30 31  1  0  0  0  0
 32 30  1  0  0  0  0
 32 33  1  0  0  0  0
 34 32  1  0  0  0  0
 35 34  1  0  0  0  0
 36 34  2  0  0  0  0
 36 29  1  0  0  0  0
M  END
>  <minimizedAffinity>
-5.61743784

>  <minimizedRMSD>
2.76185441

$$$$
