
 OpenBabel03272500473D

 31 34  0  0  1  0  0  0  0  0999 V2000
   36.0080   29.3700   34.2930 C   0  0  0  0  0  0  0  0  0  0  0  0
   35.9810   28.9090   32.9860 C   0  0  0  0  0  0  0  0  0  0  0  0
   36.5690   27.6310   32.9740 C   0  0  0  0  0  0  0  0  0  0  0  0
   36.9280   27.3610   34.2350 N   0  0  0  0  0  0  0  0  0  0  0  0
   36.5860   28.3910   34.9690 N   0  0  0  0  0  0  0  0  0  0  0  0
   35.5690   29.4570   32.1300 H   0  0  0  0  0  0  0  0  0  0  0  0
   36.6860   27.0240   32.0780 H   0  0  0  0  0  0  0  0  0  0  0  0
   35.9800   31.3560   35.8290 C   0  0  0  0  0  0  0  0  0  0  0  0
   35.4920   30.6470   34.7020 C   0  0  0  0  0  0  0  0  0  0  0  0
   34.4700   31.2470   33.9900 C   0  0  0  0  0  0  0  0  0  0  0  0
   33.9970   32.4570   34.3950 N   0  0  0  0  0  0  0  0  0  0  0  0
   34.4950   33.0900   35.4730 C   0  0  0  0  0  0  0  0  0  0  0  0
   35.5040   32.5360   36.2080 N   0  0  0  0  0  0  0  0  0  0  0  0
   36.7920   30.8460   36.3680 H   0  0  0  0  0  0  0  0  0  0  0  0
   34.0340   30.7790   33.1120 H   0  0  0  0  0  0  0  0  0  0  0  0
   34.1160   34.0610   35.7980 H   0  0  0  0  0  0  0  0  0  0  0  0
   37.5730   26.1520   34.6970 C   0  0  1  0  0  0  0  0  0  0  0  0
   39.1170   26.2080   34.8960 C   0  0  0  0  0  0  0  0  0  0  0  0
   38.1570   26.0900   36.0370 C   0  0  2  0  0  0  0  0  0  0  0  0
   37.2620   25.2150   34.1640 H   0  0  0  0  0  0  0  0  0  0  0  0
   39.5450   27.2190   34.6640 H   0  0  0  0  0  0  0  0  0  0  0  0
   39.7170   25.3730   34.5320 H   0  0  0  0  0  0  0  0  0  0  0  0
   38.0850   27.0020   36.6650 H   0  0  0  0  0  0  0  0  0  0  0  0
   38.1070   24.8020   36.8010 C   0  0  0  0  0  0  0  0  0  0  0  0
   38.1210   23.5340   36.2140 C   0  0  0  0  0  0  0  0  0  0  0  0
   38.1680   23.2620   35.1590 H   0  0  0  0  0  0  0  0  0  0  0  0
   38.0650   22.6020   37.1890 N   0  0  0  0  0  0  0  0  0  0  0  0
   38.0610   21.5590   37.0330 H   0  0  0  0  0  0  0  0  0  0  0  0
   38.0160   23.2550   38.3710 C   0  0  0  0  0  0  0  0  0  0  0  0
   37.9640   22.8150   39.3680 H   0  0  0  0  0  0  0  0  0  0  0  0
   38.0410   24.5880   38.1460 N   0  0  0  0  0  0  0  0  0  0  0  0
  1  9  1  0  0  0  0
  1  5  2  0  0  0  0
  2  1  1  0  0  0  0
  3  2  2  0  0  0  0
  3  4  1  0  0  0  0
  4 17  1  0  0  0  0
  4  5  1  0  0  0  0
  6  2  1  0  0  0  0
  7  3  1  0  0  0  0
  8 13  1  0  0  0  0
  8 14  1  0  0  0  0
  9  8  2  0  0  0  0
 10 11  2  0  0  0  0
 10  9  1  0  0  0  0
 11 12  1  0  0  0  0
 12 16  1  0  0  0  0
 12 13  2  0  0  0  0
 15 10  1  0  0  0  0
 17 20  1  6  0  0  0
 17 18  1  0  0  0  0
 17 19  1  0  0  0  0
 18 19  1  0  0  0  0
 19 23  1  1  0  0  0
 19 24  1  0  0  0  0
 21 18  1  0  0  0  0
 22 18  1  0  0  0  0
 24 31  1  0  0  0  0
 25 24  2  0  0  0  0
 25 27  1  0  0  0  0
 26 25  1  0  0  0  0
 27 29  1  0  0  0  0
 28 27  1  0  0  0  0
 29 30  1  0  0  0  0
 31 29  2  0  0  0  0
M  END
>  <minimizedAffinity>
-5.07180929

$$$$

 OpenBabel03272500473D

 31 34  0  0  1  0  0  0  0  0999 V2000
   37.1300   27.4370   34.3870 C   0  0  0  0  0  0  0  0  0  0  0  0
   37.8080   27.8360   35.5280 C   0  0  0  0  0  0  0  0  0  0  0  0
   38.5190   26.7230   36.0110 C   0  0  0  0  0  0  0  0  0  0  0  0
   38.2580   25.7090   35.1780 N   0  0  0  0  0  0  0  0  0  0  0  0
   37.4510   26.1630   34.2500 N   0  0  0  0  0  0  0  0  0  0  0  0
   37.7840   28.8450   35.9580 H   0  0  0  0  0  0  0  0  0  0  0  0
   39.1450   26.7410   36.9020 H   0  0  0  0  0  0  0  0  0  0  0  0
   35.2900   29.1330   34.1790 C   0  0  0  0  0  0  0  0  0  0  0  0
   36.2910   28.3070   33.6080 C   0  0  0  0  0  0  0  0  0  0  0  0
   36.4370   28.3710   32.2350 C   0  0  0  0  0  0  0  0  0  0  0  0
   35.6320   29.2020   31.5190 N   0  0  0  0  0  0  0  0  0  0  0  0
   34.6950   29.9670   32.1080 C   0  0  0  0  0  0  0  0  0  0  0  0
   34.5150   29.9370   33.4620 N   0  0  0  0  0  0  0  0  0  0  0  0
   35.2060   29.0540   35.2720 H   0  0  0  0  0  0  0  0  0  0  0  0
   37.1780   27.7750   31.7110 H   0  0  0  0  0  0  0  0  0  0  0  0
   34.0490   30.6340   31.5330 H   0  0  0  0  0  0  0  0  0  0  0  0
   38.7760   24.3630   35.2840 C   0  0  1  0  0  0  0  0  0  0  0  0
   39.5820   23.8190   34.0670 C   0  0  0  0  0  0  0  0  0  0  0  0
   40.2170   24.1290   35.3850 C   0  0  2  0  0  0  0  0  0  0  0  0
   38.0450   23.6030   35.6650 H   0  0  0  0  0  0  0  0  0  0  0  0
   39.6760   24.5720   33.2410 H   0  0  0  0  0  0  0  0  0  0  0  0
   39.3810   22.8020   33.7270 H   0  0  0  0  0  0  0  0  0  0  0  0
   40.8780   25.0200   35.3710 H   0  0  0  0  0  0  0  0  0  0  0  0
   40.7190   22.9940   36.2240 C   0  0  0  0  0  0  0  0  0  0  0  0
   40.1130   22.5530   37.4020 C   0  0  0  0  0  0  0  0  0  0  0  0
   39.2180   22.9290   37.9000 H   0  0  0  0  0  0  0  0  0  0  0  0
   40.8230   21.5180   37.8980 N   0  0  0  0  0  0  0  0  0  0  0  0
   40.5920   20.9900   38.7810 H   0  0  0  0  0  0  0  0  0  0  0  0
   41.8600   21.3010   37.0590 C   0  0  0  0  0  0  0  0  0  0  0  0
   42.6380   20.5410   37.1520 H   0  0  0  0  0  0  0  0  0  0  0  0
   41.8050   22.1900   36.0420 N   0  0  0  0  0  0  0  0  0  0  0  0
  1  2  1  0  0  0  0
  2  6  1  0  0  0  0
  2  3  2  0  0  0  0
  3  7  1  0  0  0  0
  4 17  1  0  0  0  0
  4  3  1  0  0  0  0
  5  1  2  0  0  0  0
  5  4  1  0  0  0  0
  8 14  1  0  0  0  0
  9  8  1  0  0  0  0
  9  1  1  0  0  0  0
 10  9  2  0  0  0  0
 11 12  2  0  0  0  0
 11 10  1  0  0  0  0
 12 13  1  0  0  0  0
 13  8  2  0  0  0  0
 15 10  1  0  0  0  0
 16 12  1  0  0  0  0
 17 19  1  0  0  0  0
 17 20  1  1  0  0  0
 18 17  1  0  0  0  0
 18 19  1  0  0  0  0
 19 23  1  1  0  0  0
 19 24  1  0  0  0  0
 21 18  1  0  0  0  0
 22 18  1  0  0  0  0
 24 25  2  0  0  0  0
 25 27  1  0  0  0  0
 25 26  1  0  0  0  0
 27 28  1  0  0  0  0
 29 30  1  0  0  0  0
 29 27  1  0  0  0  0
 31 24  1  0  0  0  0
 31 29  2  0  0  0  0
M  END
>  <minimizedAffinity>
-5.05249596

$$$$

 OpenBabel03272500473D

 31 34  0  0  1  0  0  0  0  0999 V2000
   35.9810   29.3360   34.2820 C   0  0  0  0  0  0  0  0  0  0  0  0
   35.9570   28.8670   32.9780 C   0  0  0  0  0  0  0  0  0  0  0  0
   36.5560   27.5940   32.9720 C   0  0  0  0  0  0  0  0  0  0  0  0
   36.9180   27.3340   34.2350 N   0  0  0  0  0  0  0  0  0  0  0  0
   36.5680   28.3670   34.9630 N   0  0  0  0  0  0  0  0  0  0  0  0
   35.5380   29.4060   32.1190 H   0  0  0  0  0  0  0  0  0  0  0  0
   36.6760   26.9820   32.0810 H   0  0  0  0  0  0  0  0  0  0  0  0
   34.3910   31.2590   34.0050 C   0  0  0  0  0  0  0  0  0  0  0  0
   35.4540   30.6120   34.6830 C   0  0  0  0  0  0  0  0  0  0  0  0
   35.9830   31.2700   35.7770 C   0  0  0  0  0  0  0  0  0  0  0  0
   35.4680   32.4770   36.1400 N   0  0  0  0  0  0  0  0  0  0  0  0
   34.4570   33.0510   35.4620 C   0  0  0  0  0  0  0  0  0  0  0  0
   33.9040   32.4370   34.3750 N   0  0  0  0  0  0  0  0  0  0  0  0
   33.9990   30.7030   33.1420 H   0  0  0  0  0  0  0  0  0  0  0  0
   36.7990   30.8510   36.3590 H   0  0  0  0  0  0  0  0  0  0  0  0
   34.0440   34.0190   35.7530 H   0  0  0  0  0  0  0  0  0  0  0  0
   37.5740   26.1340   34.7040 C   0  0  1  0  0  0  0  0  0  0  0  0
   39.1150   26.2120   34.9230 C   0  0  0  0  0  0  0  0  0  0  0  0
   38.1410   26.0780   36.0510 C   0  0  2  0  0  0  0  0  0  0  0  0
   37.2830   25.1940   34.1660 H   0  0  0  0  0  0  0  0  0  0  0  0
   39.5310   27.2290   34.6980 H   0  0  0  0  0  0  0  0  0  0  0  0
   39.7310   25.3850   34.5660 H   0  0  0  0  0  0  0  0  0  0  0  0
   38.0480   26.9880   36.6790 H   0  0  0  0  0  0  0  0  0  0  0  0
   38.0990   24.7880   36.8120 C   0  0  0  0  0  0  0  0  0  0  0  0
   38.0600   23.5230   36.2220 C   0  0  0  0  0  0  0  0  0  0  0  0
   38.0520   23.2550   35.1650 H   0  0  0  0  0  0  0  0  0  0  0  0
   38.0290   22.5880   37.1960 N   0  0  0  0  0  0  0  0  0  0  0  0
   37.9960   21.5460   37.0360 H   0  0  0  0  0  0  0  0  0  0  0  0
   38.0470   23.2370   38.3810 C   0  0  0  0  0  0  0  0  0  0  0  0
   38.0320   22.7940   39.3780 H   0  0  0  0  0  0  0  0  0  0  0  0
   38.0900   24.5710   38.1590 N   0  0  0  0  0  0  0  0  0  0  0  0
  1  9  1  0  0  0  0
  1  5  2  0  0  0  0
  2  1  1  0  0  0  0
  3  2  2  0  0  0  0
  3  4  1  0  0  0  0
  4 17  1  0  0  0  0
  4  5  1  0  0  0  0
  6  2  1  0  0  0  0
  7  3  1  0  0  0  0
  8 13  2  0  0  0  0
  8  9  1  0  0  0  0
  9 10  2  0  0  0  0
 10 11  1  0  0  0  0
 10 15  1  0  0  0  0
 12 16  1  0  0  0  0
 12 11  2  0  0  0  0
 13 12  1  0  0  0  0
 14  8  1  0  0  0  0
 17 20  1  6  0  0  0
 17 18  1  0  0  0  0
 17 19  1  0  0  0  0
 18 19  1  0  0  0  0
 19 23  1  1  0  0  0
 19 24  1  0  0  0  0
 21 18  1  0  0  0  0
 22 18  1  0  0  0  0
 24 31  1  0  0  0  0
 25 24  2  0  0  0  0
 25 27  1  0  0  0  0
 26 25  1  0  0  0  0
 27 29  1  0  0  0  0
 28 27  1  0  0  0  0
 29 30  1  0  0  0  0
 31 29  2  0  0  0  0
M  END
>  <minimizedAffinity>
-5.05128098

$$$$

 OpenBabel03272500473D

 31 34  0  0  1  0  0  0  0  0999 V2000
   37.7170   27.2770   31.6630 C   0  0  0  0  0  0  0  0  0  0  0  0
   36.7630   26.2830   31.8180 C   0  0  0  0  0  0  0  0  0  0  0  0
   37.0360   25.6160   33.0260 C   0  0  0  0  0  0  0  0  0  0  0  0
   38.1170   26.2040   33.5540 N   0  0  0  0  0  0  0  0  0  0  0  0
   38.4810   27.1610   32.7360 N   0  0  0  0  0  0  0  0  0  0  0  0
   35.9480   26.0730   31.1150 H   0  0  0  0  0  0  0  0  0  0  0  0
   36.4470   24.7850   33.4090 H   0  0  0  0  0  0  0  0  0  0  0  0
   36.9860   29.3580   30.4620 C   0  0  0  0  0  0  0  0  0  0  0  0
   37.7630   28.1740   30.5410 C   0  0  0  0  0  0  0  0  0  0  0  0
   38.5920   27.9060   29.4680 C   0  0  0  0  0  0  0  0  0  0  0  0
   38.6200   28.7690   28.4170 N   0  0  0  0  0  0  0  0  0  0  0  0
   37.8620   29.8810   28.3890 C   0  0  0  0  0  0  0  0  0  0  0  0
   37.0280   30.1860   29.4270 N   0  0  0  0  0  0  0  0  0  0  0  0
   36.3410   29.5350   31.3340 H   0  0  0  0  0  0  0  0  0  0  0  0
   39.2250   27.0230   29.4410 H   0  0  0  0  0  0  0  0  0  0  0  0
   37.8840   30.5730   27.5450 H   0  0  0  0  0  0  0  0  0  0  0  0
   38.7600   25.8460   34.7990 C   0  0  1  0  0  0  0  0  0  0  0  0
   38.3480   26.6560   36.0640 C   0  0  0  0  0  0  0  0  0  0  0  0
   37.9940   25.2150   35.8740 C   0  0  2  0  0  0  0  0  0  0  0  0
   39.8730   25.7180   34.7380 H   0  0  0  0  0  0  0  0  0  0  0  0
   37.5650   27.4300   35.8440 H   0  0  0  0  0  0  0  0  0  0  0  0
   39.1340   26.9920   36.7420 H   0  0  0  0  0  0  0  0  0  0  0  0
   36.9150   25.0350   35.6890 H   0  0  0  0  0  0  0  0  0  0  0  0
   38.6570   24.1930   36.7460 C   0  0  0  0  0  0  0  0  0  0  0  0
   38.1850   23.7990   38.0000 C   0  0  0  0  0  0  0  0  0  0  0  0
   37.3030   24.1400   38.5440 H   0  0  0  0  0  0  0  0  0  0  0  0
   39.0180   22.8660   38.5060 N   0  0  0  0  0  0  0  0  0  0  0  0
   38.9040   22.3920   39.4420 H   0  0  0  0  0  0  0  0  0  0  0  0
   40.0010   22.6670   37.6000 C   0  0  0  0  0  0  0  0  0  0  0  0
   40.8450   21.9810   37.6810 H   0  0  0  0  0  0  0  0  0  0  0  0
   39.7900   23.4660   36.5300 N   0  0  0  0  0  0  0  0  0  0  0  0
  1  2  1  0  0  0  0
  1  5  2  0  0  0  0
  2  3  2  0  0  0  0
  3  7  1  0  0  0  0
  3  4  1  0  0  0  0
  4 17  1  0  0  0  0
  5  4  1  0  0  0  0
  6  2  1  0  0  0  0
  8  9  1  0  0  0  0
  8 14  1  0  0  0  0
  9  1  1  0  0  0  0
 10  9  2  0  0  0  0
 11 10  1  0  0  0  0
 12 11  2  0  0  0  0
 12 13  1  0  0  0  0
 13  8  2  0  0  0  0
 15 10  1  0  0  0  0
 16 12  1  0  0  0  0
 17 20  1  6  0  0  0
 17 19  1  0  0  0  0
 17 18  1  0  0  0  0
 18 22  1  0  0  0  0
 19 23  1  6  0  0  0
 19 18  1  0  0  0  0
 19 24  1  0  0  0  0
 21 18  1  0  0  0  0
 24 25  2  0  0  0  0
 25 27  1  0  0  0  0
 25 26  1  0  0  0  0
 27 28  1  0  0  0  0
 29 30  1  0  0  0  0
 29 27  1  0  0  0  0
 31 24  1  0  0  0  0
 31 29  2  0  0  0  0
M  END
>  <minimizedAffinity>
-5.03453493

$$$$

 OpenBabel03272500473D

 31 34  0  0  1  0  0  0  0  0999 V2000
   36.5470   26.6400   32.1370 C   0  0  0  0  0  0  0  0  0  0  0  0
   36.3030   25.5270   31.3480 C   0  0  0  0  0  0  0  0  0  0  0  0
   36.8690   24.4140   31.9960 C   0  0  0  0  0  0  0  0  0  0  0  0
   37.4280   24.8690   33.1240 N   0  0  0  0  0  0  0  0  0  0  0  0
   37.2200   26.1620   33.1700 N   0  0  0  0  0  0  0  0  0  0  0  0
   35.7600   25.5330   30.3950 H   0  0  0  0  0  0  0  0  0  0  0  0
   36.8320   23.3980   31.6060 H   0  0  0  0  0  0  0  0  0  0  0  0
   35.1650   28.6920   32.5650 C   0  0  0  0  0  0  0  0  0  0  0  0
   36.1160   27.9690   31.8010 C   0  0  0  0  0  0  0  0  0  0  0  0
   36.6300   28.6080   30.6880 C   0  0  0  0  0  0  0  0  0  0  0  0
   36.2080   29.8670   30.3890 N   0  0  0  0  0  0  0  0  0  0  0  0
   35.3010   30.5110   31.1470 C   0  0  0  0  0  0  0  0  0  0  0  0
   34.7660   29.9200   32.2550 N   0  0  0  0  0  0  0  0  0  0  0  0
   34.7810   28.1500   33.4410 H   0  0  0  0  0  0  0  0  0  0  0  0
   37.3640   28.1330   30.0440 H   0  0  0  0  0  0  0  0  0  0  0  0
   34.9630   31.5210   30.9070 H   0  0  0  0  0  0  0  0  0  0  0  0
   38.1290   24.0750   34.1090 C   0  0  1  0  0  0  0  0  0  0  0  0
   39.6840   24.1800   34.1210 C   0  0  0  0  0  0  0  0  0  0  0  0
   38.8270   24.7210   35.2210 C   0  0  2  0  0  0  0  0  0  0  0  0
   37.7890   23.0090   34.1880 H   0  0  0  0  0  0  0  0  0  0  0  0
   40.0730   24.8950   33.3500 H   0  0  0  0  0  0  0  0  0  0  0  0
   40.2630   23.2600   34.2150 H   0  0  0  0  0  0  0  0  0  0  0  0
   38.7930   25.8290   35.2650 H   0  0  0  0  0  0  0  0  0  0  0  0
   38.8620   24.0450   36.5570 C   0  0  0  0  0  0  0  0  0  0  0  0
   39.7390   23.0120   36.8970 C   0  0  0  0  0  0  0  0  0  0  0  0
   40.5110   22.5350   36.2910 H   0  0  0  0  0  0  0  0  0  0  0  0
   39.5000   22.6380   38.1720 N   0  0  0  0  0  0  0  0  0  0  0  0
   40.0170   21.8780   38.6890 H   0  0  0  0  0  0  0  0  0  0  0  0
   38.4950   23.4110   38.6380 C   0  0  0  0  0  0  0  0  0  0  0  0
   38.0450   23.3820   39.6320 H   0  0  0  0  0  0  0  0  0  0  0  0
   38.1030   24.2670   37.6670 N   0  0  0  0  0  0  0  0  0  0  0  0
  1  5  2  0  0  0  0
  2  3  2  0  0  0  0
  2  1  1  0  0  0  0
  3  4  1  0  0  0  0
  4  5  1  0  0  0  0
  4 17  1  0  0  0  0
  6  2  1  0  0  0  0
  7  3  1  0  0  0  0
  8 14  1  0  0  0  0
  9  1  1  0  0  0  0
  9  8  2  0  0  0  0
 10  9  1  0  0  0  0
 11 10  2  0  0  0  0
 11 12  1  0  0  0  0
 12 13  2  0  0  0  0
 13  8  1  0  0  0  0
 15 10  1  0  0  0  0
 16 12  1  0  0  0  0
 17 18  1  0  0  0  0
 17 20  1  1  0  0  0
 17 19  1  0  0  0  0
 18 22  1  0  0  0  0
 18 19  1  0  0  0  0
 19 23  1  1  0  0  0
 19 24  1  0  0  0  0
 21 18  1  0  0  0  0
 24 25  2  0  0  0  0
 24 31  1  0  0  0  0
 25 27  1  0  0  0  0
 26 25  1  0  0  0  0
 27 29  1  0  0  0  0
 27 28  1  0  0  0  0
 29 30  1  0  0  0  0
 31 29  2  0  0  0  0
M  END
>  <minimizedAffinity>
-4.97208786

$$$$

 OpenBabel03272500473D

 31 34  0  0  1  0  0  0  0  0999 V2000
   36.8020   27.3010   32.7790 C   0  0  0  0  0  0  0  0  0  0  0  0
   36.6970   26.0410   32.2110 C   0  0  0  0  0  0  0  0  0  0  0  0
   37.4030   25.1430   33.0330 C   0  0  0  0  0  0  0  0  0  0  0  0
   37.9040   25.8620   34.0450 N   0  0  0  0  0  0  0  0  0  0  0  0
   37.5340   27.1060   33.8620 N   0  0  0  0  0  0  0  0  0  0  0  0
   36.1530   25.8060   31.2880 H   0  0  0  0  0  0  0  0  0  0  0  0
   37.4920   24.0770   32.8330 H   0  0  0  0  0  0  0  0  0  0  0  0
   36.7630   29.1890   31.1250 C   0  0  0  0  0  0  0  0  0  0  0  0
   36.2050   28.4830   32.2210 C   0  0  0  0  0  0  0  0  0  0  0  0
   35.0320   28.9870   32.7490 C   0  0  0  0  0  0  0  0  0  0  0  0
   34.4840   30.1070   32.2040 N   0  0  0  0  0  0  0  0  0  0  0  0
   35.0530   30.7420   31.1630 C   0  0  0  0  0  0  0  0  0  0  0  0
   36.2120   30.2810   30.6080 N   0  0  0  0  0  0  0  0  0  0  0  0
   37.6950   28.7560   30.7340 H   0  0  0  0  0  0  0  0  0  0  0  0
   34.5320   28.5120   33.5890 H   0  0  0  0  0  0  0  0  0  0  0  0
   34.6130   31.6410   30.7260 H   0  0  0  0  0  0  0  0  0  0  0  0
   38.7050   25.3540   35.1370 C   0  0  1  0  0  0  0  0  0  0  0  0
   38.1390   25.5470   36.5760 C   0  0  0  0  0  0  0  0  0  0  0  0
   38.2460   24.2070   35.9210 C   0  0  2  0  0  0  0  0  0  0  0  0
   39.7950   25.6130   35.0860 H   0  0  0  0  0  0  0  0  0  0  0  0
   37.1410   26.0590   36.5800 H   0  0  0  0  0  0  0  0  0  0  0  0
   38.8210   25.8840   37.3580 H   0  0  0  0  0  0  0  0  0  0  0  0
   37.2700   23.7600   35.6420 H   0  0  0  0  0  0  0  0  0  0  0  0
   39.2510   23.2290   36.4480 C   0  0  0  0  0  0  0  0  0  0  0  0
   39.4200   22.9210   37.8000 C   0  0  0  0  0  0  0  0  0  0  0  0
   38.8870   23.3110   38.6690 H   0  0  0  0  0  0  0  0  0  0  0  0
   40.4060   22.0070   37.9200 N   0  0  0  0  0  0  0  0  0  0  0  0
   40.7440   21.5950   38.8290 H   0  0  0  0  0  0  0  0  0  0  0  0
   40.8590   21.7360   36.6760 C   0  0  0  0  0  0  0  0  0  0  0  0
   41.6540   21.0410   36.3990 H   0  0  0  0  0  0  0  0  0  0  0  0
   40.1650   22.4710   35.7780 N   0  0  0  0  0  0  0  0  0  0  0  0
  1  5  2  0  0  0  0
  2  1  1  0  0  0  0
  2  3  2  0  0  0  0
  3  4  1  0  0  0  0
  4 17  1  0  0  0  0
  5  4  1  0  0  0  0
  6  2  1  0  0  0  0
  7  3  1  0  0  0  0
  8  9  1  0  0  0  0
  9 10  2  0  0  0  0
  9  1  1  0  0  0  0
 10 15  1  0  0  0  0
 11 10  1  0  0  0  0
 12 11  2  0  0  0  0
 13  8  2  0  0  0  0
 13 12  1  0  0  0  0
 14  8  1  0  0  0  0
 16 12  1  0  0  0  0
 17 20  1  6  0  0  0
 17 19  1  0  0  0  0
 17 18  1  0  0  0  0
 18 21  1  0  0  0  0
 18 22  1  0  0  0  0
 19 23  1  6  0  0  0
 19 24  1  0  0  0  0
 19 18  1  0  0  0  0
 24 25  2  0  0  0  0
 25 27  1  0  0  0  0
 25 26  1  0  0  0  0
 27 28  1  0  0  0  0
 29 27  1  0  0  0  0
 30 29  1  0  0  0  0
 31 24  1  0  0  0  0
 31 29  2  0  0  0  0
M  END
>  <minimizedAffinity>
-4.89590025

$$$$

 OpenBabel03272500473D

 31 34  0  0  1  0  0  0  0  0999 V2000
   37.8220   26.8640   34.0640 C   0  0  0  0  0  0  0  0  0  0  0  0
   37.8280   27.5840   35.2490 C   0  0  0  0  0  0  0  0  0  0  0  0
   38.2450   26.7140   36.2720 C   0  0  0  0  0  0  0  0  0  0  0  0
   38.4710   25.5250   35.6990 N   0  0  0  0  0  0  0  0  0  0  0  0
   38.2150   25.6540   34.4200 N   0  0  0  0  0  0  0  0  0  0  0  0
   37.5560   28.6420   35.3490 H   0  0  0  0  0  0  0  0  0  0  0  0
   38.3460   27.0060   37.3160 H   0  0  0  0  0  0  0  0  0  0  0  0
   36.3440   28.2920   32.6210 C   0  0  0  0  0  0  0  0  0  0  0  0
   37.4490   27.4200   32.7920 C   0  0  0  0  0  0  0  0  0  0  0  0
   38.1780   27.1150   31.6580 C   0  0  0  0  0  0  0  0  0  0  0  0
   37.8070   27.6530   30.4640 N   0  0  0  0  0  0  0  0  0  0  0  0
   36.7480   28.4760   30.3540 C   0  0  0  0  0  0  0  0  0  0  0  0
   35.9990   28.8060   31.4470 N   0  0  0  0  0  0  0  0  0  0  0  0
   35.7910   28.5100   33.5460 H   0  0  0  0  0  0  0  0  0  0  0  0
   39.0410   26.4570   31.6920 H   0  0  0  0  0  0  0  0  0  0  0  0
   36.4510   28.9080   29.3960 H   0  0  0  0  0  0  0  0  0  0  0  0
   38.9170   24.3250   36.3710 C   0  0  1  0  0  0  0  0  0  0  0  0
   38.0030   23.0690   36.2500 C   0  0  0  0  0  0  0  0  0  0  0  0
   39.3470   23.1600   35.5990 C   0  0  2  0  0  0  0  0  0  0  0  0
   39.2700   24.4750   37.4250 H   0  0  0  0  0  0  0  0  0  0  0  0
   37.0940   23.2570   35.6200 H   0  0  0  0  0  0  0  0  0  0  0  0
   37.8150   22.4770   37.1470 H   0  0  0  0  0  0  0  0  0  0  0  0
   39.3100   23.2420   34.4930 H   0  0  0  0  0  0  0  0  0  0  0  0
   40.4570   22.3010   36.1220 C   0  0  0  0  0  0  0  0  0  0  0  0
   40.6270   21.9610   37.4660 C   0  0  0  0  0  0  0  0  0  0  0  0
   40.0230   22.2400   38.3300 H   0  0  0  0  0  0  0  0  0  0  0  0
   41.7220   21.1800   37.5840 N   0  0  0  0  0  0  0  0  0  0  0  0
   42.0860   20.7770   38.4880 H   0  0  0  0  0  0  0  0  0  0  0  0
   42.2410   21.0230   36.3460 C   0  0  0  0  0  0  0  0  0  0  0  0
   43.1280   20.4510   36.0700 H   0  0  0  0  0  0  0  0  0  0  0  0
   41.4820   21.6980   35.4540 N   0  0  0  0  0  0  0  0  0  0  0  0
  1  5  2  0  0  0  0
  1  2  1  0  0  0  0
  2  6  1  0  0  0  0
  2  3  2  0  0  0  0
  3  7  1  0  0  0  0
  4  3  1  0  0  0  0
  4 17  1  0  0  0  0
  5  4  1  0  0  0  0
  8  9  1  0  0  0  0
  8 14  1  0  0  0  0
  9  1  1  0  0  0  0
 10 15  1  0  0  0  0
 10  9  2  0  0  0  0
 11 10  1  0  0  0  0
 12 11  2  0  0  0  0
 12 13  1  0  0  0  0
 13  8  2  0  0  0  0
 16 12  1  0  0  0  0
 17 20  1  1  0  0  0
 18 17  1  0  0  0  0
 18 22  1  0  0  0  0
 19 23  1  6  0  0  0
 19 24  1  0  0  0  0
 19 18  1  0  0  0  0
 19 17  1  0  0  0  0
 21 18  1  0  0  0  0
 24 25  2  0  0  0  0
 25 27  1  0  0  0  0
 25 26  1  0  0  0  0
 27 28  1  0  0  0  0
 29 27  1  0  0  0  0
 30 29  1  0  0  0  0
 31 24  1  0  0  0  0
 31 29  2  0  0  0  0
M  END
>  <minimizedAffinity>
-4.67394161

$$$$

 OpenBabel03272500473D

 31 34  0  0  1  0  0  0  0  0999 V2000
   38.1560   24.2000   34.6880 C   0  0  0  0  0  0  0  0  0  0  0  0
   38.1200   23.2270   33.7010 C   0  0  0  0  0  0  0  0  0  0  0  0
   37.8310   23.8680   32.4830 C   0  0  0  0  0  0  0  0  0  0  0  0
   37.7010   25.1720   32.7560 N   0  0  0  0  0  0  0  0  0  0  0  0
   37.8970   25.3240   34.0430 N   0  0  0  0  0  0  0  0  0  0  0  0
   38.2920   22.1560   33.8620 H   0  0  0  0  0  0  0  0  0  0  0  0
   37.7400   23.3500   31.5300 H   0  0  0  0  0  0  0  0  0  0  0  0
   37.6610   24.4720   37.1350 C   0  0  0  0  0  0  0  0  0  0  0  0
   38.4260   23.9250   36.0730 C   0  0  0  0  0  0  0  0  0  0  0  0
   39.4710   23.0930   36.4280 C   0  0  0  0  0  0  0  0  0  0  0  0
   39.7070   22.8470   37.7460 N   0  0  0  0  0  0  0  0  0  0  0  0
   38.9510   23.3920   38.7170 C   0  0  0  0  0  0  0  0  0  0  0  0
   37.9090   24.2200   38.4140 N   0  0  0  0  0  0  0  0  0  0  0  0
   36.8400   25.1270   36.8110 H   0  0  0  0  0  0  0  0  0  0  0  0
   40.1100   22.6280   35.6840 H   0  0  0  0  0  0  0  0  0  0  0  0
   39.1410   23.1940   39.7740 H   0  0  0  0  0  0  0  0  0  0  0  0
   37.4020   26.2170   31.8020 C   0  0  1  0  0  0  0  0  0  0  0  0
   37.3810   27.6790   32.3410 C   0  0  0  0  0  0  0  0  0  0  0  0
   38.4330   27.1750   31.4040 C   0  0  2  0  0  0  0  0  0  0  0  0
   36.5220   26.0130   31.1370 H   0  0  0  0  0  0  0  0  0  0  0  0
   37.6270   27.7380   33.4340 H   0  0  0  0  0  0  0  0  0  0  0  0
   36.5680   28.3350   32.0270 H   0  0  0  0  0  0  0  0  0  0  0  0
   39.4350   27.0630   31.8670 H   0  0  0  0  0  0  0  0  0  0  0  0
   38.4500   27.6950   29.9990 C   0  0  0  0  0  0  0  0  0  0  0  0
   37.4160   28.4310   29.4160 C   0  0  0  0  0  0  0  0  0  0  0  0
   36.4640   28.7450   29.8470 H   0  0  0  0  0  0  0  0  0  0  0  0
   37.7590   28.7360   28.1470 N   0  0  0  0  0  0  0  0  0  0  0  0
   37.1650   29.2870   27.4730 H   0  0  0  0  0  0  0  0  0  0  0  0
   38.9830   28.2090   27.9210 C   0  0  0  0  0  0  0  0  0  0  0  0
   39.5660   28.2630   27.0010 H   0  0  0  0  0  0  0  0  0  0  0  0
   39.4090   27.5760   29.0380 N   0  0  0  0  0  0  0  0  0  0  0  0
  1  9  1  0  0  0  0
  2  6  1  0  0  0  0
  2  1  1  0  0  0  0
  3  4  1  0  0  0  0
  3  2  2  0  0  0  0
  4  5  1  0  0  0  0
  5  1  2  0  0  0  0
  7  3  1  0  0  0  0
  8 13  1  0  0  0  0
  9 10  1  0  0  0  0
  9  8  2  0  0  0  0
 10 11  2  0  0  0  0
 11 12  1  0  0  0  0
 12 16  1  0  0  0  0
 13 12  2  0  0  0  0
 14  8  1  0  0  0  0
 15 10  1  0  0  0  0
 17 20  1  6  0  0  0
 17 18  1  0  0  0  0
 17  4  1  0  0  0  0
 18 21  1  0  0  0  0
 19 17  1  0  0  0  0
 19 23  1  1  0  0  0
 19 18  1  0  0  0  0
 22 18  1  0  0  0  0
 24 19  1  0  0  0  0
 25 26  1  0  0  0  0
 25 24  2  0  0  0  0
 27 25  1  0  0  0  0
 28 27  1  0  0  0  0
 29 27  1  0  0  0  0
 29 31  2  0  0  0  0
 30 29  1  0  0  0  0
 31 24  1  0  0  0  0
M  END
>  <minimizedAffinity>
-4.67103148

$$$$

 OpenBabel03272500473D

 31 34  0  0  1  0  0  0  0  0999 V2000
   36.1240   27.6300   31.4230 C   0  0  0  0  0  0  0  0  0  0  0  0
   36.5170   28.6060   30.5210 C   0  0  0  0  0  0  0  0  0  0  0  0
   36.1140   29.8500   31.0380 C   0  0  0  0  0  0  0  0  0  0  0  0
   35.5040   29.6030   32.2040 N   0  0  0  0  0  0  0  0  0  0  0  0
   35.5310   28.3060   32.3920 N   0  0  0  0  0  0  0  0  0  0  0  0
   37.0490   28.4200   29.5790 H   0  0  0  0  0  0  0  0  0  0  0  0
   36.2910   30.8020   30.5400 H   0  0  0  0  0  0  0  0  0  0  0  0
   37.6610   25.6750   31.0720 C   0  0  0  0  0  0  0  0  0  0  0  0
   36.3640   26.2250   31.2380 C   0  0  0  0  0  0  0  0  0  0  0  0
   35.3070   25.3340   31.2140 C   0  0  0  0  0  0  0  0  0  0  0  0
   35.5580   24.0090   31.0380 N   0  0  0  0  0  0  0  0  0  0  0  0
   36.8090   23.5360   30.8840 C   0  0  0  0  0  0  0  0  0  0  0  0
   37.8840   24.3780   30.9000 N   0  0  0  0  0  0  0  0  0  0  0  0
   38.4730   26.4150   31.0970 H   0  0  0  0  0  0  0  0  0  0  0  0
   34.2790   25.6640   31.3340 H   0  0  0  0  0  0  0  0  0  0  0  0
   37.0100   22.4720   30.7420 H   0  0  0  0  0  0  0  0  0  0  0  0
   34.9250   30.5890   33.0890 C   0  0  1  0  0  0  0  0  0  0  0  0
   33.3750   30.7370   33.0620 C   0  0  0  0  0  0  0  0  0  0  0  0
   34.1140   30.1720   34.2330 C   0  0  2  0  0  0  0  0  0  0  0  0
   35.4330   31.5890   33.0820 H   0  0  0  0  0  0  0  0  0  0  0  0
   32.8860   30.0240   32.3460 H   0  0  0  0  0  0  0  0  0  0  0  0
   32.9510   31.7430   33.0530 H   0  0  0  0  0  0  0  0  0  0  0  0
   33.9650   29.0820   34.3790 H   0  0  0  0  0  0  0  0  0  0  0  0
   34.1670   30.9690   35.5000 C   0  0  0  0  0  0  0  0  0  0  0  0
   35.3390   31.4720   36.0690 C   0  0  0  0  0  0  0  0  0  0  0  0
   36.3680   31.3840   35.7200 H   0  0  0  0  0  0  0  0  0  0  0  0
   35.0240   32.1380   37.2000 N   0  0  0  0  0  0  0  0  0  0  0  0
   35.7150   32.6200   37.8340 H   0  0  0  0  0  0  0  0  0  0  0  0
   33.6830   32.0630   37.3540 C   0  0  0  0  0  0  0  0  0  0  0  0
   33.0850   32.4910   38.1600 H   0  0  0  0  0  0  0  0  0  0  0  0
   33.1550   31.3580   36.3280 N   0  0  0  0  0  0  0  0  0  0  0  0
  1  5  2  0  0  0  0
  2  3  2  0  0  0  0
  2  1  1  0  0  0  0
  3  4  1  0  0  0  0
  4  5  1  0  0  0  0
  4 17  1  0  0  0  0
  6  2  1  0  0  0  0
  7  3  1  0  0  0  0
  8 14  1  0  0  0  0
  8  9  1  0  0  0  0
  9  1  1  0  0  0  0
 10  9  2  0  0  0  0
 10 15  1  0  0  0  0
 11 10  1  0  0  0  0
 12 13  1  0  0  0  0
 12 11  2  0  0  0  0
 13  8  2  0  0  0  0
 16 12  1  0  0  0  0
 17 20  1  1  0  0  0
 17 19  1  0  0  0  0
 18 17  1  0  0  0  0
 18 19  1  0  0  0  0
 19 23  1  1  0  0  0
 19 24  1  0  0  0  0
 21 18  1  0  0  0  0
 22 18  1  0  0  0  0
 24 25  2  0  0  0  0
 24 31  1  0  0  0  0
 25 27  1  0  0  0  0
 26 25  1  0  0  0  0
 27 29  1  0  0  0  0
 27 28  1  0  0  0  0
 29 30  1  0  0  0  0
 31 29  2  0  0  0  0
M  END
>  <minimizedAffinity>
-4.65860558

$$$$
