
 OpenBabel03272505053D

 32 34  0  0  1  0  0  0  0  0999 V2000
   37.1510   29.2960   50.3610 C   0  0  0  0  0  0  0  0  0  0  0  0
   37.8010   30.5020   50.0830 C   0  0  0  0  0  0  0  0  0  0  0  0
   37.4930   31.1620   48.9090 C   0  0  0  0  0  0  0  0  0  0  0  0
   36.5780   30.5980   48.0970 N   0  0  0  0  0  0  0  0  0  0  0  0
   35.9600   29.4450   48.3660 C   0  0  0  0  0  0  0  0  0  0  0  0
   36.2460   28.7760   49.5160 N   0  0  0  0  0  0  0  0  0  0  0  0
   38.0360   32.3900   48.4380 N   0  0  0  0  0  0  0  0  0  0  0  0
   38.2450   33.5480   49.2670 C   0  0  0  0  0  0  0  0  0  0  0  0
   39.5430   34.2360   49.1440 C   0  0  0  0  0  0  0  0  0  0  0  0
   40.1670   34.2640   47.7970 C   0  0  0  0  0  0  0  0  0  0  0  0
   39.9850   32.9410   47.1190 C   0  0  0  0  0  0  0  0  0  0  0  0
   38.4530   32.6850   47.1060 C   0  0  1  0  0  0  0  0  0  0  0  0
   37.4790   28.8790   51.3080 H   0  0  0  0  0  0  0  0  0  0  0  0
   38.5360   30.9900   50.6990 H   0  0  0  0  0  0  0  0  0  0  0  0
   35.2210   28.9970   47.7010 H   0  0  0  0  0  0  0  0  0  0  0  0
   37.4470   34.2800   48.9490 H   0  0  0  0  0  0  0  0  0  0  0  0
   38.0460   33.2710   50.3140 H   0  0  0  0  0  0  0  0  0  0  0  0
   39.3890   35.3160   49.4380 H   0  0  0  0  0  0  0  0  0  0  0  0
   40.2300   33.8390   49.9270 H   0  0  0  0  0  0  0  0  0  0  0  0
   39.8970   35.1230   47.1690 H   0  0  0  0  0  0  0  0  0  0  0  0
   41.2760   34.3600   47.9650 H   0  0  0  0  0  0  0  0  0  0  0  0
   40.3990   32.1500   47.7720 H   0  0  0  0  0  0  0  0  0  0  0  0
   40.3540   32.9210   46.0930 H   0  0  0  0  0  0  0  0  0  0  0  0
   38.0190   33.6110   46.6770 H   0  0  0  0  0  0  0  0  0  0  0  0
   38.1760   31.5920   46.1160 C   0  0  0  0  0  0  0  0  0  0  0  0
   38.9020   30.4840   45.7380 C   0  0  0  0  0  0  0  0  0  0  0  0
   39.8810   30.2510   46.1640 H   0  0  0  0  0  0  0  0  0  0  0  0
   38.2720   29.7630   44.8130 N   0  0  0  0  0  0  0  0  0  0  0  0
   38.6150   28.8830   44.3680 H   0  0  0  0  0  0  0  0  0  0  0  0
   37.1130   30.3900   44.5670 C   0  0  0  0  0  0  0  0  0  0  0  0
   36.3210   30.1190   43.8770 H   0  0  0  0  0  0  0  0  0  0  0  0
   37.0620   31.4640   45.3360 N   0  0  0  0  0  0  0  0  0  0  0  0
  1 13  1  0  0  0  0
  2  1  1  0  0  0  0
  2 14  1  0  0  0  0
  3  2  2  0  0  0  0
  4  5  2  0  0  0  0
  4  3  1  0  0  0  0
  5  6  1  0  0  0  0
  6  1  2  0  0  0  0
  7  3  1  0  0  0  0
  7  8  1  0  0  0  0
  8 17  1  0  0  0  0
  9  8  1  0  0  0  0
  9 18  1  0  0  0  0
  9 19  1  0  0  0  0
 10 21  1  0  0  0  0
 10  9  1  0  0  0  0
 11 22  1  0  0  0  0
 11 10  1  0  0  0  0
 12 24  1  6  0  0  0
 12 11  1  0  0  0  0
 12  7  1  0  0  0  0
 15  5  1  0  0  0  0
 16  8  1  0  0  0  0
 20 10  1  0  0  0  0
 23 11  1  0  0  0  0
 25 12  1  0  0  0  0
 26 25  2  0  0  0  0
 26 27  1  0  0  0  0
 28 26  1  0  0  0  0
 29 28  1  0  0  0  0
 30 28  1  0  0  0  0
 30 32  2  0  0  0  0
 31 30  1  0  0  0  0
 32 25  1  0  0  0  0
M  END
>  <minimizedAffinity>
-4.81477165

>  <minimizedRMSD>
2.12469101

$$$$
