
 OpenBabel03272507453D

 32 34  0  0  0  0  0  0  0  0999 V2000
   37.7330   23.5580   32.7240 N   0  0  0  0  0  0  0  0  0  0  0  0
   37.3780   22.2580   33.1990 C   0  0  0  0  0  0  0  0  0  0  0  0
   37.8220   21.8840   34.5610 C   0  0  0  0  0  0  0  0  0  0  0  0
   39.1040   22.4660   35.0460 C   0  0  0  0  0  0  0  0  0  0  0  0
   39.4680   23.7600   34.3950 C   0  0  0  0  0  0  0  0  0  0  0  0
   39.1560   23.7190   32.9070 C   0  0  0  0  0  0  0  0  0  0  0  0
   37.8240   21.5270   32.4900 H   0  0  0  0  0  0  0  0  0  0  0  0
   36.2760   22.0780   33.1290 H   0  0  0  0  0  0  0  0  0  0  0  0
   37.0000   22.1860   35.2750 H   0  0  0  0  0  0  0  0  0  0  0  0
   37.8520   20.7720   34.6320 H   0  0  0  0  0  0  0  0  0  0  0  0
   39.9190   21.7010   34.9460 H   0  0  0  0  0  0  0  0  0  0  0  0
   40.5830   23.8720   34.4760 H   0  0  0  0  0  0  0  0  0  0  0  0
   39.0080   24.6380   34.8880 H   0  0  0  0  0  0  0  0  0  0  0  0
   39.7570   22.9090   32.4580 H   0  0  0  0  0  0  0  0  0  0  0  0
   39.5320   24.6800   32.5000 H   0  0  0  0  0  0  0  0  0  0  0  0
   36.8490   24.5330   32.1630 C   0  0  0  0  0  0  0  0  0  0  0  0
   35.7500   24.2390   31.3400 C   0  0  0  0  0  0  0  0  0  0  0  0
   34.9930   25.3150   30.8790 C   0  0  0  0  0  0  0  0  0  0  0  0
   35.3540   26.5850   31.2480 N   0  0  0  0  0  0  0  0  0  0  0  0
   36.4230   26.8070   32.0440 C   0  0  0  0  0  0  0  0  0  0  0  0
   37.1520   25.7890   32.4880 N   0  0  0  0  0  0  0  0  0  0  0  0
   35.5860   23.2110   31.1340 H   0  0  0  0  0  0  0  0  0  0  0  0
   34.1590   25.0770   30.2520 H   0  0  0  0  0  0  0  0  0  0  0  0
   36.6500   27.8440   32.2960 H   0  0  0  0  0  0  0  0  0  0  0  0
   38.9880   22.7510   36.5140 C   0  0  0  0  0  0  0  0  0  0  0  0
   39.9010   22.5840   37.5470 C   0  0  0  0  0  0  0  0  0  0  0  0
   40.9080   22.1810   37.3670 H   0  0  0  0  0  0  0  0  0  0  0  0
   39.3280   22.9850   38.6910 N   0  0  0  0  0  0  0  0  0  0  0  0
   39.7960   22.9700   39.6440 H   0  0  0  0  0  0  0  0  0  0  0  0
   38.0630   23.4090   38.4190 C   0  0  0  0  0  0  0  0  0  0  0  0
   37.3280   23.7990   39.1290 H   0  0  0  0  0  0  0  0  0  0  0  0
   37.8620   23.2640   37.0850 N   0  0  0  0  0  0  0  0  0  0  0  0
  1  6  1  0  0  0  0
  1  2  1  0  0  0  0
  2  3  1  0  0  0  0
  3 10  1  0  0  0  0
  3  4  1  0  0  0  0
  3  9  1  0  0  0  0
  4 25  1  0  0  0  0
  5 12  1  0  0  0  0
  5 13  1  0  0  0  0
  5  4  1  0  0  0  0
  6  5  1  0  0  0  0
  7  2  1  0  0  0  0
  8  2  1  0  0  0  0
 11  4  1  0  0  0  0
 14  6  1  0  0  0  0
 15  6  1  0  0  0  0
 16 21  1  0  0  0  0
 16  1  1  0  0  0  0
 17 16  2  0  0  0  0
 18 19  2  0  0  0  0
 18 17  1  0  0  0  0
 19 20  1  0  0  0  0
 20 24  1  0  0  0  0
 20 21  2  0  0  0  0
 22 17  1  0  0  0  0
 23 18  1  0  0  0  0
 25 32  1  0  0  0  0
 25 26  2  0  0  0  0
 26 28  1  0  0  0  0
 27 26  1  0  0  0  0
 28 29  1  0  0  0  0
 30 28  1  0  0  0  0
 30 31  1  0  0  0  0
 32 30  2  0  0  0  0
M  END
>  <minimizedAffinity>
-5.00053167

$$$$

 OpenBabel03272507453D

 32 34  0  0  0  0  0  0  0  0999 V2000
   37.9870   26.1200   33.5220 N   0  0  0  0  0  0  0  0  0  0  0  0
   37.7810   24.7300   33.2650 C   0  0  0  0  0  0  0  0  0  0  0  0
   38.2180   23.7710   34.3050 C   0  0  0  0  0  0  0  0  0  0  0  0
   39.3990   24.1490   35.1300 C   0  0  0  0  0  0  0  0  0  0  0  0
   39.6210   25.6220   35.2340 C   0  0  0  0  0  0  0  0  0  0  0  0
   39.3710   26.2980   33.8950 C   0  0  0  0  0  0  0  0  0  0  0  0
   38.3410   24.4910   32.3350 H   0  0  0  0  0  0  0  0  0  0  0  0
   36.7140   24.5080   33.0130 H   0  0  0  0  0  0  0  0  0  0  0  0
   37.3400   23.6010   34.9940 H   0  0  0  0  0  0  0  0  0  0  0  0
   38.3850   22.7780   33.8250 H   0  0  0  0  0  0  0  0  0  0  0  0
   40.3070   23.6130   34.7460 H   0  0  0  0  0  0  0  0  0  0  0  0
   40.7090   25.7800   35.4640 H   0  0  0  0  0  0  0  0  0  0  0  0
   39.0360   26.0930   36.0480 H   0  0  0  0  0  0  0  0  0  0  0  0
   40.0840   25.8770   33.1650 H   0  0  0  0  0  0  0  0  0  0  0  0
   39.6380   27.3640   34.0470 H   0  0  0  0  0  0  0  0  0  0  0  0
   37.0080   27.1590   33.4310 C   0  0  0  0  0  0  0  0  0  0  0  0
   36.6520   28.0190   34.4830 C   0  0  0  0  0  0  0  0  0  0  0  0
   35.6760   28.9780   34.2180 C   0  0  0  0  0  0  0  0  0  0  0  0
   35.1230   29.0330   32.9650 N   0  0  0  0  0  0  0  0  0  0  0  0
   35.5060   28.1780   31.9910 C   0  0  0  0  0  0  0  0  0  0  0  0
   36.4340   27.2600   32.2320 N   0  0  0  0  0  0  0  0  0  0  0  0
   37.1610   27.8650   35.4000 H   0  0  0  0  0  0  0  0  0  0  0  0
   35.4140   29.6270   35.0280 H   0  0  0  0  0  0  0  0  0  0  0  0
   35.0220   28.2810   31.0200 H   0  0  0  0  0  0  0  0  0  0  0  0
   39.1950   23.6550   36.5320 C   0  0  0  0  0  0  0  0  0  0  0  0
   39.9400   22.7730   37.3030 C   0  0  0  0  0  0  0  0  0  0  0  0
   40.8530   22.2990   36.9160 H   0  0  0  0  0  0  0  0  0  0  0  0
   39.3490   22.6480   38.5000 N   0  0  0  0  0  0  0  0  0  0  0  0
   39.7020   22.0360   39.2920 H   0  0  0  0  0  0  0  0  0  0  0  0
   38.2360   23.4320   38.5200 C   0  0  0  0  0  0  0  0  0  0  0  0
   37.5290   23.5590   39.3450 H   0  0  0  0  0  0  0  0  0  0  0  0
   38.1470   24.0460   37.3130 N   0  0  0  0  0  0  0  0  0  0  0  0
  1  6  1  0  0  0  0
  2  1  1  0  0  0  0
  2  3  1  0  0  0  0
  3  9  1  0  0  0  0
  3  4  1  0  0  0  0
  4  5  1  0  0  0  0
  4 25  1  0  0  0  0
  5 12  1  0  0  0  0
  5 13  1  0  0  0  0
  6 15  1  0  0  0  0
  6  5  1  0  0  0  0
  7  2  1  0  0  0  0
  8  2  1  0  0  0  0
 10  3  1  0  0  0  0
 11  4  1  0  0  0  0
 14  6  1  0  0  0  0
 16  1  1  0  0  0  0
 16 17  1  0  0  0  0
 17 22  1  0  0  0  0
 18 17  2  0  0  0  0
 18 23  1  0  0  0  0
 19 18  1  0  0  0  0
 20 21  1  0  0  0  0
 20 19  2  0  0  0  0
 21 16  2  0  0  0  0
 24 20  1  0  0  0  0
 25 26  2  0  0  0  0
 25 32  1  0  0  0  0
 26 28  1  0  0  0  0
 27 26  1  0  0  0  0
 28 30  1  0  0  0  0
 28 29  1  0  0  0  0
 30 31  1  0  0  0  0
 32 30  2  0  0  0  0
M  END
>  <minimizedAffinity>
-4.93723679

$$$$

 OpenBabel03272507453D

 32 34  0  0  0  0  0  0  0  0999 V2000
   38.8490   26.7040   33.8730 N   0  0  0  0  0  0  0  0  0  0  0  0
   38.5030   27.2920   35.1280 C   0  0  0  0  0  0  0  0  0  0  0  0
   38.3580   26.3850   36.2900 C   0  0  0  0  0  0  0  0  0  0  0  0
   37.8730   25.0030   36.0220 C   0  0  0  0  0  0  0  0  0  0  0  0
   38.1560   24.5170   34.6380 C   0  0  0  0  0  0  0  0  0  0  0  0
   37.9220   25.6250   33.6220 C   0  0  0  0  0  0  0  0  0  0  0  0
   37.5280   27.8050   34.9820 H   0  0  0  0  0  0  0  0  0  0  0  0
   39.2100   28.1110   35.4110 H   0  0  0  0  0  0  0  0  0  0  0  0
   39.3690   26.3190   36.7900 H   0  0  0  0  0  0  0  0  0  0  0  0
   37.7090   26.8810   37.0490 H   0  0  0  0  0  0  0  0  0  0  0  0
   36.7820   24.9370   36.2750 H   0  0  0  0  0  0  0  0  0  0  0  0
   37.4040   23.7170   34.4040 H   0  0  0  0  0  0  0  0  0  0  0  0
   39.1630   24.0690   34.5330 H   0  0  0  0  0  0  0  0  0  0  0  0
   36.8620   25.9260   33.6880 H   0  0  0  0  0  0  0  0  0  0  0  0
   38.0750   25.1530   32.6300 H   0  0  0  0  0  0  0  0  0  0  0  0
   39.9170   27.1030   33.0080 C   0  0  0  0  0  0  0  0  0  0  0  0
   41.2390   27.3320   33.4220 C   0  0  0  0  0  0  0  0  0  0  0  0
   42.1540   27.7170   32.4440 C   0  0  0  0  0  0  0  0  0  0  0  0
   41.7240   27.8500   31.1490 N   0  0  0  0  0  0  0  0  0  0  0  0
   40.4370   27.6160   30.8100 C   0  0  0  0  0  0  0  0  0  0  0  0
   39.5560   27.2500   31.7340 N   0  0  0  0  0  0  0  0  0  0  0  0
   41.4330   27.1910   34.4550 H   0  0  0  0  0  0  0  0  0  0  0  0
   43.1590   27.8880   32.7720 H   0  0  0  0  0  0  0  0  0  0  0  0
   40.1680   27.7430   29.7610 H   0  0  0  0  0  0  0  0  0  0  0  0
   38.5670   24.0510   36.9510 C   0  0  0  0  0  0  0  0  0  0  0  0
   38.2480   23.6430   38.2390 C   0  0  0  0  0  0  0  0  0  0  0  0
   37.3550   24.0210   38.7590 H   0  0  0  0  0  0  0  0  0  0  0  0
   39.1810   22.7750   38.6550 N   0  0  0  0  0  0  0  0  0  0  0  0
   39.1900   22.3000   39.6050 H   0  0  0  0  0  0  0  0  0  0  0  0
   40.0980   22.6130   37.6620 C   0  0  0  0  0  0  0  0  0  0  0  0
   40.9860   21.9740   37.6780 H   0  0  0  0  0  0  0  0  0  0  0  0
   39.7160   23.3960   36.6220 N   0  0  0  0  0  0  0  0  0  0  0  0
  1  2  1  0  0  0  0
  2  8  1  0  0  0  0
  2  3  1  0  0  0  0
  3  9  1  0  0  0  0
  3 10  1  0  0  0  0
  4 11  1  0  0  0  0
  4  3  1  0  0  0  0
  4 25  1  0  0  0  0
  5  4  1  0  0  0  0
  6 14  1  0  0  0  0
  6  1  1  0  0  0  0
  6  5  1  0  0  0  0
  7  2  1  0  0  0  0
 12  5  1  0  0  0  0
 13  5  1  0  0  0  0
 15  6  1  0  0  0  0
 16 17  1  0  0  0  0
 16  1  1  0  0  0  0
 17 22  1  0  0  0  0
 18 23  1  0  0  0  0
 18 17  2  0  0  0  0
 19 18  1  0  0  0  0
 20 19  2  0  0  0  0
 20 21  1  0  0  0  0
 21 16  2  0  0  0  0
 24 20  1  0  0  0  0
 25 26  2  0  0  0  0
 26 28  1  0  0  0  0
 26 27  1  0  0  0  0
 28 29  1  0  0  0  0
 30 31  1  0  0  0  0
 30 28  1  0  0  0  0
 32 25  1  0  0  0  0
 32 30  2  0  0  0  0
M  END
>  <minimizedAffinity>
-4.89418602

$$$$

 OpenBabel03272507453D

 32 34  0  0  0  0  0  0  0  0999 V2000
   38.7740   25.8260   35.3840 N   0  0  0  0  0  0  0  0  0  0  0  0
   37.7840   26.8540   35.4310 C   0  0  0  0  0  0  0  0  0  0  0  0
   36.9900   27.0940   34.2040 C   0  0  0  0  0  0  0  0  0  0  0  0
   37.6590   26.8450   32.8970 C   0  0  0  0  0  0  0  0  0  0  0  0
   38.7760   25.8560   32.9660 C   0  0  0  0  0  0  0  0  0  0  0  0
   39.6030   26.0670   34.2250 C   0  0  0  0  0  0  0  0  0  0  0  0
   38.3160   27.7990   35.6740 H   0  0  0  0  0  0  0  0  0  0  0  0
   37.0740   26.7060   36.2820 H   0  0  0  0  0  0  0  0  0  0  0  0
   36.0720   26.4380   34.2660 H   0  0  0  0  0  0  0  0  0  0  0  0
   36.5870   28.1330   34.2390 H   0  0  0  0  0  0  0  0  0  0  0  0
   37.9890   27.8230   32.4580 H   0  0  0  0  0  0  0  0  0  0  0  0
   39.4640   26.0690   32.1030 H   0  0  0  0  0  0  0  0  0  0  0  0
   38.4340   24.8070   32.8680 H   0  0  0  0  0  0  0  0  0  0  0  0
   40.0260   27.0850   34.1850 H   0  0  0  0  0  0  0  0  0  0  0  0
   40.4470   25.3500   34.1480 H   0  0  0  0  0  0  0  0  0  0  0  0
   38.9310   24.7480   36.3110 C   0  0  0  0  0  0  0  0  0  0  0  0
   38.1190   24.5340   37.4360 C   0  0  0  0  0  0  0  0  0  0  0  0
   38.4150   23.4310   38.2350 C   0  0  0  0  0  0  0  0  0  0  0  0
   39.4670   22.6240   37.8870 N   0  0  0  0  0  0  0  0  0  0  0  0
   40.2140   22.8790   36.7910 C   0  0  0  0  0  0  0  0  0  0  0  0
   39.9420   23.9280   36.0230 N   0  0  0  0  0  0  0  0  0  0  0  0
   37.3400   25.2380   37.5860 H   0  0  0  0  0  0  0  0  0  0  0  0
   37.7880   23.2790   39.0890 H   0  0  0  0  0  0  0  0  0  0  0  0
   41.0350   22.1940   36.5770 H   0  0  0  0  0  0  0  0  0  0  0  0
   36.6570   26.2800   31.9340 C   0  0  0  0  0  0  0  0  0  0  0  0
   35.9960   26.8660   30.8620 C   0  0  0  0  0  0  0  0  0  0  0  0
   36.1630   27.9170   30.5870 H   0  0  0  0  0  0  0  0  0  0  0  0
   35.1940   25.9490   30.3030 N   0  0  0  0  0  0  0  0  0  0  0  0
   34.5680   26.1190   29.4620 H   0  0  0  0  0  0  0  0  0  0  0  0
   35.3220   24.7810   30.9900 C   0  0  0  0  0  0  0  0  0  0  0  0
   34.8080   23.8360   30.7930 H   0  0  0  0  0  0  0  0  0  0  0  0
   36.2190   24.9900   31.9870 N   0  0  0  0  0  0  0  0  0  0  0  0
  1  2  1  0  0  0  0
  1 16  1  0  0  0  0
  2  7  1  0  0  0  0
  2  8  1  0  0  0  0
  3 10  1  0  0  0  0
  3  9  1  0  0  0  0
  3  2  1  0  0  0  0
  4  5  1  0  0  0  0
  4  3  1  0  0  0  0
  5  6  1  0  0  0  0
  6  1  1  0  0  0  0
 11  4  1  0  0  0  0
 12  5  1  0  0  0  0
 13  5  1  0  0  0  0
 14  6  1  0  0  0  0
 15  6  1  0  0  0  0
 16 17  1  0  0  0  0
 17 22  1  0  0  0  0
 17 18  2  0  0  0  0
 18 23  1  0  0  0  0
 19 18  1  0  0  0  0
 20 19  2  0  0  0  0
 21 16  2  0  0  0  0
 21 20  1  0  0  0  0
 24 20  1  0  0  0  0
 25 32  1  0  0  0  0
 25  4  1  0  0  0  0
 26 25  2  0  0  0  0
 27 26  1  0  0  0  0
 28 26  1  0  0  0  0
 28 30  1  0  0  0  0
 29 28  1  0  0  0  0
 30 32  2  0  0  0  0
 31 30  1  0  0  0  0
M  END
>  <minimizedAffinity>
-4.75628996

$$$$

 OpenBabel03272507453D

 32 34  0  0  0  0  0  0  0  0999 V2000
   39.1220   24.8230   34.6800 N   0  0  0  0  0  0  0  0  0  0  0  0
   39.8170   26.0110   34.2980 C   0  0  0  0  0  0  0  0  0  0  0  0
   39.0350   27.0740   33.6270 C   0  0  0  0  0  0  0  0  0  0  0  0
   37.8880   26.6470   32.7780 C   0  0  0  0  0  0  0  0  0  0  0  0
   37.3070   25.3250   33.1630 C   0  0  0  0  0  0  0  0  0  0  0  0
   38.4080   24.3390   33.5200 C   0  0  0  0  0  0  0  0  0  0  0  0
   40.6220   25.6990   33.5990 H   0  0  0  0  0  0  0  0  0  0  0  0
   40.3590   26.4700   35.1620 H   0  0  0  0  0  0  0  0  0  0  0  0
   38.6450   27.7620   34.4340 H   0  0  0  0  0  0  0  0  0  0  0  0
   39.7340   27.7120   33.0370 H   0  0  0  0  0  0  0  0  0  0  0  0
   38.1950   26.6730   31.6990 H   0  0  0  0  0  0  0  0  0  0  0  0
   36.7990   24.9060   32.2520 H   0  0  0  0  0  0  0  0  0  0  0  0
   36.5470   25.4020   33.9630 H   0  0  0  0  0  0  0  0  0  0  0  0
   39.0470   24.2060   32.6300 H   0  0  0  0  0  0  0  0  0  0  0  0
   37.8920   23.3750   33.7090 H   0  0  0  0  0  0  0  0  0  0  0  0
   39.1240   24.2100   35.9720 C   0  0  0  0  0  0  0  0  0  0  0  0
   40.0490   23.2430   36.3990 C   0  0  0  0  0  0  0  0  0  0  0  0
   39.9030   22.7500   37.6940 C   0  0  0  0  0  0  0  0  0  0  0  0
   38.8810   23.2270   38.4730 N   0  0  0  0  0  0  0  0  0  0  0  0
   38.0200   24.1590   38.0090 C   0  0  0  0  0  0  0  0  0  0  0  0
   38.1490   24.6350   36.7760 N   0  0  0  0  0  0  0  0  0  0  0  0
   40.7890   22.9660   35.6920 H   0  0  0  0  0  0  0  0  0  0  0  0
   40.6150   22.0140   38.0070 H   0  0  0  0  0  0  0  0  0  0  0  0
   37.2320   24.4900   38.6850 H   0  0  0  0  0  0  0  0  0  0  0  0
   36.7790   27.6480   32.9130 C   0  0  0  0  0  0  0  0  0  0  0  0
   35.8830   28.1440   31.9750 C   0  0  0  0  0  0  0  0  0  0  0  0
   35.9040   27.8130   30.9270 H   0  0  0  0  0  0  0  0  0  0  0  0
   35.0750   29.0250   32.5810 N   0  0  0  0  0  0  0  0  0  0  0  0
   34.2920   29.5610   32.1050 H   0  0  0  0  0  0  0  0  0  0  0  0
   35.4290   29.1100   33.8930 C   0  0  0  0  0  0  0  0  0  0  0  0
   34.9720   29.7360   34.6640 H   0  0  0  0  0  0  0  0  0  0  0  0
   36.4720   28.2640   34.0900 N   0  0  0  0  0  0  0  0  0  0  0  0
  1 16  1  0  0  0  0
  2  1  1  0  0  0  0
  2  8  1  0  0  0  0
  3  2  1  0  0  0  0
  3  9  1  0  0  0  0
  4 25  1  0  0  0  0
  4  5  1  0  0  0  0
  4  3  1  0  0  0  0
  5  6  1  0  0  0  0
  5 13  1  0  0  0  0
  6 15  1  0  0  0  0
  6  1  1  0  0  0  0
  7  2  1  0  0  0  0
 10  3  1  0  0  0  0
 11  4  1  0  0  0  0
 12  5  1  0  0  0  0
 14  6  1  0  0  0  0
 16 17  2  0  0  0  0
 16 21  1  0  0  0  0
 17 18  1  0  0  0  0
 18 23  1  0  0  0  0
 18 19  2  0  0  0  0
 20 19  1  0  0  0  0
 20 24  1  0  0  0  0
 21 20  2  0  0  0  0
 22 17  1  0  0  0  0
 25 32  1  0  0  0  0
 26 28  1  0  0  0  0
 26 25  2  0  0  0  0
 27 26  1  0  0  0  0
 28 30  1  0  0  0  0
 29 28  1  0  0  0  0
 30 32  2  0  0  0  0
 30 31  1  0  0  0  0
M  END
>  <minimizedAffinity>
-4.51548576

$$$$

 OpenBabel03272507453D

 32 34  0  0  0  0  0  0  0  0999 V2000
   38.3810   26.0990   35.5090 N   0  0  0  0  0  0  0  0  0  0  0  0
   37.1550   26.4590   34.8700 C   0  0  0  0  0  0  0  0  0  0  0  0
   37.1910   26.6980   33.4090 C   0  0  0  0  0  0  0  0  0  0  0  0
   38.4500   27.2490   32.8370 C   0  0  0  0  0  0  0  0  0  0  0  0
   39.6690   26.9410   33.6440 C   0  0  0  0  0  0  0  0  0  0  0  0
   39.3770   27.0740   35.1300 C   0  0  0  0  0  0  0  0  0  0  0  0
   36.8070   27.3970   35.3530 H   0  0  0  0  0  0  0  0  0  0  0  0
   36.3440   25.7180   35.0820 H   0  0  0  0  0  0  0  0  0  0  0  0
   36.9700   25.7130   32.9030 H   0  0  0  0  0  0  0  0  0  0  0  0
   36.3260   27.3470   33.1340 H   0  0  0  0  0  0  0  0  0  0  0  0
   38.3280   28.3510   32.6650 H   0  0  0  0  0  0  0  0  0  0  0  0
   40.4350   27.7280   33.4060 H   0  0  0  0  0  0  0  0  0  0  0  0
   40.1150   25.9580   33.3980 H   0  0  0  0  0  0  0  0  0  0  0  0
   39.0720   28.1170   35.3230 H   0  0  0  0  0  0  0  0  0  0  0  0
   40.3490   26.9100   35.6390 H   0  0  0  0  0  0  0  0  0  0  0  0
   38.5970   24.9780   36.3710 C   0  0  0  0  0  0  0  0  0  0  0  0
   39.4020   23.8700   36.0580 C   0  0  0  0  0  0  0  0  0  0  0  0
   39.5020   22.8650   37.0180 C   0  0  0  0  0  0  0  0  0  0  0  0
   38.8200   23.0060   38.1990 N   0  0  0  0  0  0  0  0  0  0  0  0
   38.0610   24.0960   38.4450 C   0  0  0  0  0  0  0  0  0  0  0  0
   37.9580   25.0600   37.5370 N   0  0  0  0  0  0  0  0  0  0  0  0
   39.8710   23.8920   35.1070 H   0  0  0  0  0  0  0  0  0  0  0  0
   40.1180   22.0260   36.7670 H   0  0  0  0  0  0  0  0  0  0  0  0
   37.5480   24.1390   39.4060 H   0  0  0  0  0  0  0  0  0  0  0  0
   38.6790   26.6460   31.4830 C   0  0  0  0  0  0  0  0  0  0  0  0
   38.5660   27.1940   30.2130 C   0  0  0  0  0  0  0  0  0  0  0  0
   38.2640   28.2400   30.0610 H   0  0  0  0  0  0  0  0  0  0  0  0
   38.8780   26.2510   29.3120 N   0  0  0  0  0  0  0  0  0  0  0  0
   38.8770   26.3900   28.2590 H   0  0  0  0  0  0  0  0  0  0  0  0
   39.1900   25.1030   29.9740 C   0  0  0  0  0  0  0  0  0  0  0  0
   39.4880   24.1460   29.5370 H   0  0  0  0  0  0  0  0  0  0  0  0
   39.0670   25.3510   31.3020 N   0  0  0  0  0  0  0  0  0  0  0  0
  1 16  1  0  0  0  0
  2  8  1  0  0  0  0
  2  7  1  0  0  0  0
  2  1  1  0  0  0  0
  3  2  1  0  0  0  0
  4  3  1  0  0  0  0
  4  5  1  0  0  0  0
  5  6  1  0  0  0  0
  6 14  1  0  0  0  0
  6  1  1  0  0  0  0
  6 15  1  0  0  0  0
  9  3  1  0  0  0  0
 10  3  1  0  0  0  0
 11  4  1  0  0  0  0
 12  5  1  0  0  0  0
 13  5  1  0  0  0  0
 16 21  1  0  0  0  0
 17 16  2  0  0  0  0
 17 18  1  0  0  0  0
 18 19  2  0  0  0  0
 19 20  1  0  0  0  0
 20 24  1  0  0  0  0
 21 20  2  0  0  0  0
 22 17  1  0  0  0  0
 23 18  1  0  0  0  0
 25  4  1  0  0  0  0
 26 25  2  0  0  0  0
 27 26  1  0  0  0  0
 28 30  1  0  0  0  0
 28 26  1  0  0  0  0
 29 28  1  0  0  0  0
 30 32  2  0  0  0  0
 31 30  1  0  0  0  0
 32 25  1  0  0  0  0
M  END
>  <minimizedAffinity>
-4.45187378

$$$$

 OpenBabel03272507453D

 32 34  0  0  0  0  0  0  0  0999 V2000
   39.2680   25.6420   35.3460 N   0  0  0  0  0  0  0  0  0  0  0  0
   37.9740   26.1130   35.7260 C   0  0  0  0  0  0  0  0  0  0  0  0
   37.1090   26.6700   34.6620 C   0  0  0  0  0  0  0  0  0  0  0  0
   37.7820   27.3570   33.5240 C   0  0  0  0  0  0  0  0  0  0  0  0
   39.1840   26.9000   33.2820 C   0  0  0  0  0  0  0  0  0  0  0  0
   39.9160   26.6950   34.5990 C   0  0  0  0  0  0  0  0  0  0  0  0
   38.1340   26.9150   36.4790 H   0  0  0  0  0  0  0  0  0  0  0  0
   37.3920   25.3290   36.2730 H   0  0  0  0  0  0  0  0  0  0  0  0
   36.4940   25.8170   34.2500 H   0  0  0  0  0  0  0  0  0  0  0  0
   36.3590   27.3480   35.1310 H   0  0  0  0  0  0  0  0  0  0  0  0
   37.7220   28.4670   33.6740 H   0  0  0  0  0  0  0  0  0  0  0  0
   39.7210   27.7340   32.7550 H   0  0  0  0  0  0  0  0  0  0  0  0
   39.2420   26.0040   32.6350 H   0  0  0  0  0  0  0  0  0  0  0  0
   39.9400   27.6640   35.1280 H   0  0  0  0  0  0  0  0  0  0  0  0
   40.9600   26.4400   34.3210 H   0  0  0  0  0  0  0  0  0  0  0  0
   39.8330   24.3630   35.6450 C   0  0  0  0  0  0  0  0  0  0  0  0
   40.8770   23.7600   34.9240 C   0  0  0  0  0  0  0  0  0  0  0  0
   41.3070   22.5060   35.3540 C   0  0  0  0  0  0  0  0  0  0  0  0
   40.6980   21.9340   36.4400 N   0  0  0  0  0  0  0  0  0  0  0  0
   39.6970   22.5620   37.0960 C   0  0  0  0  0  0  0  0  0  0  0  0
   39.2800   23.7570   36.6940 N   0  0  0  0  0  0  0  0  0  0  0  0
   41.2550   24.3160   34.1040 H   0  0  0  0  0  0  0  0  0  0  0  0
   42.1030   22.0580   34.7960 H   0  0  0  0  0  0  0  0  0  0  0  0
   39.2610   22.0450   37.9520 H   0  0  0  0  0  0  0  0  0  0  0  0
   37.0240   27.0720   32.2620 C   0  0  0  0  0  0  0  0  0  0  0  0
   36.9410   27.7830   31.0720 C   0  0  0  0  0  0  0  0  0  0  0  0
   37.4840   28.7270   30.9250 H   0  0  0  0  0  0  0  0  0  0  0  0
   36.1310   27.1190   30.2340 N   0  0  0  0  0  0  0  0  0  0  0  0
   35.8850   27.4310   29.2500 H   0  0  0  0  0  0  0  0  0  0  0  0
   35.6880   25.9930   30.8580 C   0  0  0  0  0  0  0  0  0  0  0  0
   35.0140   25.2320   30.4540 H   0  0  0  0  0  0  0  0  0  0  0  0
   36.2390   25.9700   32.0980 N   0  0  0  0  0  0  0  0  0  0  0  0
  1 16  1  0  0  0  0
  1  2  1  0  0  0  0
  2  8  1  0  0  0  0
  2  7  1  0  0  0  0
  3 10  1  0  0  0  0
  3  2  1  0  0  0  0
  4 11  1  0  0  0  0
  4  3  1  0  0  0  0
  5  4  1  0  0  0  0
  5  6  1  0  0  0  0
  6 14  1  0  0  0  0
  6  1  1  0  0  0  0
  9  3  1  0  0  0  0
 12  5  1  0  0  0  0
 13  5  1  0  0  0  0
 15  6  1  0  0  0  0
 16 21  1  0  0  0  0
 17 18  1  0  0  0  0
 17 16  2  0  0  0  0
 18 19  2  0  0  0  0
 19 20  1  0  0  0  0
 20 24  1  0  0  0  0
 21 20  2  0  0  0  0
 22 17  1  0  0  0  0
 23 18  1  0  0  0  0
 25  4  1  0  0  0  0
 26 25  2  0  0  0  0
 27 26  1  0  0  0  0
 28 30  1  0  0  0  0
 28 26  1  0  0  0  0
 29 28  1  0  0  0  0
 30 32  2  0  0  0  0
 31 30  1  0  0  0  0
 32 25  1  0  0  0  0
M  END
>  <minimizedAffinity>
-4.44167852

$$$$

 OpenBabel03272507453D

 32 34  0  0  0  0  0  0  0  0999 V2000
   37.4780   24.9320   32.6150 N   0  0  0  0  0  0  0  0  0  0  0  0
   36.2380   25.0510   31.9160 C   0  0  0  0  0  0  0  0  0  0  0  0
   35.6480   23.8140   31.3570 C   0  0  0  0  0  0  0  0  0  0  0  0
   36.5880   22.7490   30.9110 C   0  0  0  0  0  0  0  0  0  0  0  0
   37.9140   22.7820   31.5980 C   0  0  0  0  0  0  0  0  0  0  0  0
   38.3970   24.2150   31.7620 C   0  0  0  0  0  0  0  0  0  0  0  0
   36.4160   25.7480   31.0680 H   0  0  0  0  0  0  0  0  0  0  0  0
   35.4590   25.5600   32.5370 H   0  0  0  0  0  0  0  0  0  0  0  0
   34.9670   23.3810   32.1480 H   0  0  0  0  0  0  0  0  0  0  0  0
   34.9590   24.0920   30.5260 H   0  0  0  0  0  0  0  0  0  0  0  0
   36.6920   22.7900   29.7940 H   0  0  0  0  0  0  0  0  0  0  0  0
   38.6550   22.2810   30.9190 H   0  0  0  0  0  0  0  0  0  0  0  0
   37.9180   22.2340   32.5590 H   0  0  0  0  0  0  0  0  0  0  0  0
   38.5020   24.6540   30.7550 H   0  0  0  0  0  0  0  0  0  0  0  0
   39.4130   24.1360   32.2010 H   0  0  0  0  0  0  0  0  0  0  0  0
   37.7710   25.4300   33.9240 C   0  0  0  0  0  0  0  0  0  0  0  0
   38.1620   24.6350   35.0140 C   0  0  0  0  0  0  0  0  0  0  0  0
   38.4090   25.2870   36.2210 C   0  0  0  0  0  0  0  0  0  0  0  0
   38.2600   26.6480   36.2820 N   0  0  0  0  0  0  0  0  0  0  0  0
   37.8810   27.3620   35.1990 C   0  0  0  0  0  0  0  0  0  0  0  0
   37.6420   26.7510   34.0440 N   0  0  0  0  0  0  0  0  0  0  0  0
   38.2380   23.5940   34.8260 H   0  0  0  0  0  0  0  0  0  0  0  0
   38.7070   24.6700   37.0440 H   0  0  0  0  0  0  0  0  0  0  0  0
   37.7830   28.4410   35.3220 H   0  0  0  0  0  0  0  0  0  0  0  0
   35.9900   21.4070   31.2170 C   0  0  0  0  0  0  0  0  0  0  0  0
   36.2800   20.1460   30.7140 C   0  0  0  0  0  0  0  0  0  0  0  0
   37.0640   19.9940   29.9580 H   0  0  0  0  0  0  0  0  0  0  0  0
   35.4690   19.2550   31.3020 N   0  0  0  0  0  0  0  0  0  0  0  0
   35.4700   18.2110   31.1080 H   0  0  0  0  0  0  0  0  0  0  0  0
   34.6600   19.9140   32.1750 C   0  0  0  0  0  0  0  0  0  0  0  0
   33.8840   19.4820   32.8160 H   0  0  0  0  0  0  0  0  0  0  0  0
   34.9830   21.2300   32.1200 N   0  0  0  0  0  0  0  0  0  0  0  0
  1 16  1  0  0  0  0
  2  8  1  0  0  0  0
  2  1  1  0  0  0  0
  3  2  1  0  0  0  0
  3  9  1  0  0  0  0
  4 25  1  0  0  0  0
  4  3  1  0  0  0  0
  4  5  1  0  0  0  0
  5  6  1  0  0  0  0
  5 13  1  0  0  0  0
  6 15  1  0  0  0  0
  6  1  1  0  0  0  0
  7  2  1  0  0  0  0
 10  3  1  0  0  0  0
 11  4  1  0  0  0  0
 12  5  1  0  0  0  0
 14  6  1  0  0  0  0
 16 21  2  0  0  0  0
 16 17  1  0  0  0  0
 17 18  2  0  0  0  0
 18 19  1  0  0  0  0
 18 23  1  0  0  0  0
 20 24  1  0  0  0  0
 20 19  2  0  0  0  0
 21 20  1  0  0  0  0
 22 17  1  0  0  0  0
 25 32  1  0  0  0  0
 26 25  2  0  0  0  0
 26 28  1  0  0  0  0
 27 26  1  0  0  0  0
 28 30  1  0  0  0  0
 29 28  1  0  0  0  0
 30 31  1  0  0  0  0
 32 30  2  0  0  0  0
M  END
>  <minimizedAffinity>
-4.40821934

$$$$

 OpenBabel03272507453D

 32 34  0  0  0  0  0  0  0  0999 V2000
   37.0780   27.3530   33.9130 N   0  0  0  0  0  0  0  0  0  0  0  0
   37.5340   27.5410   35.2540 C   0  0  0  0  0  0  0  0  0  0  0  0
   38.9410   27.1900   35.5530 C   0  0  0  0  0  0  0  0  0  0  0  0
   39.5490   26.0780   34.7710 C   0  0  0  0  0  0  0  0  0  0  0  0
   38.9190   25.8610   33.4340 C   0  0  0  0  0  0  0  0  0  0  0  0
   37.4080   26.0010   33.5230 C   0  0  0  0  0  0  0  0  0  0  0  0
   36.8880   26.9100   35.9020 H   0  0  0  0  0  0  0  0  0  0  0  0
   37.3510   28.5850   35.6110 H   0  0  0  0  0  0  0  0  0  0  0  0
   39.5590   28.1210   35.3890 H   0  0  0  0  0  0  0  0  0  0  0  0
   39.0330   26.9890   36.6450 H   0  0  0  0  0  0  0  0  0  0  0  0
   39.5480   25.1440   35.3930 H   0  0  0  0  0  0  0  0  0  0  0  0
   39.1160   24.7940   33.1420 H   0  0  0  0  0  0  0  0  0  0  0  0
   39.3470   26.5070   32.6430 H   0  0  0  0  0  0  0  0  0  0  0  0
   37.0370   25.2340   34.2240 H   0  0  0  0  0  0  0  0  0  0  0  0
   37.0270   25.7450   32.5130 H   0  0  0  0  0  0  0  0  0  0  0  0
   36.4120   28.3180   33.0940 C   0  0  0  0  0  0  0  0  0  0  0  0
   35.4680   29.2480   33.5590 C   0  0  0  0  0  0  0  0  0  0  0  0
   34.9150   30.1170   32.6200 C   0  0  0  0  0  0  0  0  0  0  0  0
   35.3140   30.0210   31.3120 N   0  0  0  0  0  0  0  0  0  0  0  0
   36.2280   29.1040   30.9230 C   0  0  0  0  0  0  0  0  0  0  0  0
   36.7600   28.2710   31.8090 N   0  0  0  0  0  0  0  0  0  0  0  0
   35.2520   29.2110   34.5960 H   0  0  0  0  0  0  0  0  0  0  0  0
   34.1980   30.8220   32.9870 H   0  0  0  0  0  0  0  0  0  0  0  0
   36.4970   29.0860   29.8660 H   0  0  0  0  0  0  0  0  0  0  0  0
   40.9920   26.3940   34.5090 C   0  0  0  0  0  0  0  0  0  0  0  0
   41.5810   27.4340   33.8030 C   0  0  0  0  0  0  0  0  0  0  0  0
   40.9790   28.2130   33.3140 H   0  0  0  0  0  0  0  0  0  0  0  0
   42.9120   27.2830   33.8530 N   0  0  0  0  0  0  0  0  0  0  0  0
   43.6160   27.9360   33.3980 H   0  0  0  0  0  0  0  0  0  0  0  0
   43.1970   26.1660   34.5770 C   0  0  0  0  0  0  0  0  0  0  0  0
   44.1860   25.7600   34.8080 H   0  0  0  0  0  0  0  0  0  0  0  0
   42.0170   25.6270   34.9760 N   0  0  0  0  0  0  0  0  0  0  0  0
  1  2  1  0  0  0  0
  2  3  1  0  0  0  0
  2  8  1  0  0  0  0
  2  7  1  0  0  0  0
  3 10  1  0  0  0  0
  4 11  1  0  0  0  0
  4  3  1  0  0  0  0
  5  6  1  0  0  0  0
  5  4  1  0  0  0  0
  6  1  1  0  0  0  0
  6 14  1  0  0  0  0
  9  3  1  0  0  0  0
 12  5  1  0  0  0  0
 13  5  1  0  0  0  0
 15  6  1  0  0  0  0
 16 17  1  0  0  0  0
 16  1  1  0  0  0  0
 17 22  1  0  0  0  0
 18 23  1  0  0  0  0
 18 17  2  0  0  0  0
 19 18  1  0  0  0  0
 20 19  2  0  0  0  0
 20 21  1  0  0  0  0
 21 16  2  0  0  0  0
 24 20  1  0  0  0  0
 25  4  1  0  0  0  0
 25 32  1  0  0  0  0
 26 28  1  0  0  0  0
 26 25  2  0  0  0  0
 27 26  1  0  0  0  0
 28 30  1  0  0  0  0
 29 28  1  0  0  0  0
 30 31  1  0  0  0  0
 30 32  2  0  0  0  0
M  END
>  <minimizedAffinity>
-4.39166689

$$$$
