
 OpenBabel03272508383D

 31 33  0  0  1  0  0  0  0  0999 V2000
   36.1620   30.1540   48.6220 N   0  0  0  0  0  0  0  0  0  0  0  0
   35.2880   29.8320   47.5120 C   0  0  0  0  0  0  0  0  0  0  0  0
   33.8840   29.5760   47.9240 C   0  0  2  0  0  0  0  0  0  0  0  0
   33.6910   28.9220   49.1690 N   0  0  0  0  0  0  0  0  0  0  0  0
   34.5290   29.5380   50.2050 C   0  0  0  0  0  0  0  0  0  0  0  0
   35.9370   29.2750   49.7380 C   0  0  0  0  0  0  0  0  0  0  0  0
   35.3230   30.7030   46.8260 H   0  0  0  0  0  0  0  0  0  0  0  0
   35.6590   28.9200   46.9590 H   0  0  0  0  0  0  0  0  0  0  0  0
   33.4030   30.5930   48.0340 H   0  0  0  0  0  0  0  0  0  0  0  0
   34.0650   27.9420   49.0850 H   0  0  0  0  0  0  0  0  0  0  0  0
   34.3290   30.6400   50.1010 H   0  0  0  0  0  0  0  0  0  0  0  0
   34.2950   29.1460   51.1980 H   0  0  0  0  0  0  0  0  0  0  0  0
   36.6430   29.5310   50.5390 H   0  0  0  0  0  0  0  0  0  0  0  0
   36.0540   28.2130   49.4070 H   0  0  0  0  0  0  0  0  0  0  0  0
   37.1180   31.2100   48.5990 C   0  0  0  0  0  0  0  0  0  0  0  0
   37.2410   32.1660   49.6030 C   0  0  0  0  0  0  0  0  0  0  0  0
   38.2150   33.1520   49.4730 C   0  0  0  0  0  0  0  0  0  0  0  0
   39.0080   33.1370   48.3590 N   0  0  0  0  0  0  0  0  0  0  0  0
   38.8590   32.1920   47.4050 C   0  0  0  0  0  0  0  0  0  0  0  0
   37.9260   31.2240   47.5010 N   0  0  0  0  0  0  0  0  0  0  0  0
   36.5890   32.1150   50.4400 H   0  0  0  0  0  0  0  0  0  0  0  0
   38.3180   33.9010   50.2510 H   0  0  0  0  0  0  0  0  0  0  0  0
   39.5150   32.2170   46.5300 H   0  0  0  0  0  0  0  0  0  0  0  0
   33.1540   28.8630   46.8550 C   0  0  0  0  0  0  0  0  0  0  0  0
   31.7810   28.5930   46.8290 C   0  0  0  0  0  0  0  0  0  0  0  0
   31.0730   28.8830   47.6090 H   0  0  0  0  0  0  0  0  0  0  0  0
   31.5250   27.9350   45.6990 N   0  0  0  0  0  0  0  0  0  0  0  0
   30.5480   27.6170   45.4480 H   0  0  0  0  0  0  0  0  0  0  0  0
   32.6620   27.7630   44.9890 C   0  0  0  0  0  0  0  0  0  0  0  0
   32.7420   27.2640   44.0370 H   0  0  0  0  0  0  0  0  0  0  0  0
   33.6530   28.3410   45.7180 N   0  0  0  0  0  0  0  0  0  0  0  0
  1  6  1  0  0  0  0
  2  3  1  0  0  0  0
  2  1  1  0  0  0  0
  3  9  1  1  0  0  0
  3  4  1  0  0  0  0
  4  5  1  0  0  0  0
  5 12  1  0  0  0  0
  6  5  1  0  0  0  0
  6 13  1  0  0  0  0
  7  2  1  0  0  0  0
  8  2  1  0  0  0  0
 10  4  1  0  0  0  0
 11  5  1  0  0  0  0
 14  6  1  0  0  0  0
 15  1  1  0  0  0  0
 15 16  1  0  0  0  0
 16 21  1  0  0  0  0
 17 16  2  0  0  0  0
 17 22  1  0  0  0  0
 18 17  1  0  0  0  0
 19 20  1  0  0  0  0
 19 18  2  0  0  0  0
 20 15  2  0  0  0  0
 23 19  1  0  0  0  0
 24  3  1  0  0  0  0
 25 24  2  0  0  0  0
 25 26  1  0  0  0  0
 27 25  1  0  0  0  0
 28 27  1  0  0  0  0
 29 27  1  0  0  0  0
 29 31  2  0  0  0  0
 30 29  1  0  0  0  0
 31 24  1  0  0  0  0
M  END
>  <minimizedAffinity>
-4.63441181

>  <minimizedRMSD>
6.75749159

$$$$
