
 OpenBabel03272510193D

 35 38  0  0  0  0  0  0  0  0999 V2000
   37.2990   29.3280   51.0140 Br  0  0  0  0  0  0  0  0  0  0  0  0
   35.9540   29.3200   49.6650 C   0  0  0  0  0  0  0  0  0  0  0  0
   35.9910   30.2380   48.6300 C   0  0  0  0  0  0  0  0  0  0  0  0
   34.9920   30.1800   47.6870 C   0  0  0  0  0  0  0  0  0  0  0  0
   33.9610   29.2470   47.7380 C   0  0  0  0  0  0  0  0  0  0  0  0
   33.9520   28.3590   48.7660 C   0  0  0  0  0  0  0  0  0  0  0  0
   34.9500   28.4070   49.7190 C   0  0  0  0  0  0  0  0  0  0  0  0
   34.9650   30.8660   46.8580 H   0  0  0  0  0  0  0  0  0  0  0  0
   33.1750   27.6040   48.8650 H   0  0  0  0  0  0  0  0  0  0  0  0
   34.9280   27.7000   50.5230 H   0  0  0  0  0  0  0  0  0  0  0  0
   37.9900   33.1850   49.4430 C   0  0  0  0  0  0  0  0  0  0  0  0
   39.0200   33.1610   48.4500 C   0  0  0  0  0  0  0  0  0  0  0  0
   39.0020   32.1320   47.5260 C   0  0  0  0  0  0  0  0  0  0  0  0
   38.0080   31.1940   47.6020 N   0  0  0  0  0  0  0  0  0  0  0  0
   37.0520   31.2320   48.5390 C   0  0  0  0  0  0  0  0  0  0  0  0
   37.0450   32.2380   49.4670 N   0  0  0  0  0  0  0  0  0  0  0  0
   37.9300   33.9400   50.1900 H   0  0  0  0  0  0  0  0  0  0  0  0
   39.7600   33.9410   48.4680 H   0  0  0  0  0  0  0  0  0  0  0  0
   39.7670   32.0870   46.7630 H   0  0  0  0  0  0  0  0  0  0  0  0
   32.9010   29.1840   46.7400 C   0  0  0  0  0  0  0  0  0  0  0  0
   32.3050   28.0310   46.2920 C   0  0  0  0  0  0  0  0  0  0  0  0
   31.3020   28.0190   45.3440 C   0  0  0  0  0  0  0  0  0  0  0  0
   30.8750   29.1640   44.8250 N   0  0  0  0  0  0  0  0  0  0  0  0
   31.4430   30.3220   45.2470 C   0  0  0  0  0  0  0  0  0  0  0  0
   32.4110   30.3080   46.1640 N   0  0  0  0  0  0  0  0  0  0  0  0
   32.6500   27.0860   46.7150 H   0  0  0  0  0  0  0  0  0  0  0  0
   30.8450   27.1010   45.0040 H   0  0  0  0  0  0  0  0  0  0  0  0
   31.1050   31.6850   44.7890 C   0  0  0  0  0  0  0  0  0  0  0  0
   29.8400   32.0620   44.3270 C   0  0  0  0  0  0  0  0  0  0  0  0
   28.9620   31.4620   44.2340 H   0  0  0  0  0  0  0  0  0  0  0  0
   29.9160   33.3800   44.0010 N   0  0  0  0  0  0  0  0  0  0  0  0
   29.1360   33.9520   43.6260 H   0  0  0  0  0  0  0  0  0  0  0  0
   31.1720   33.8220   44.2440 C   0  0  0  0  0  0  0  0  0  0  0  0
   31.5940   34.8100   44.1030 H   0  0  0  0  0  0  0  0  0  0  0  0
   31.8830   32.7840   44.7220 N   0  0  0  0  0  0  0  0  0  0  0  0
  2  7  1  0  0  0  0
  2  1  1  0  0  0  0
  3  2  2  0  0  0  0
  4  5  2  0  0  0  0
  4  3  1  0  0  0  0
  5  6  1  0  0  0  0
  6  9  1  0  0  0  0
  6  7  2  0  0  0  0
  7 10  1  0  0  0  0
  8  4  1  0  0  0  0
 11 16  1  0  0  0  0
 11 17  1  0  0  0  0
 12 18  1  0  0  0  0
 12 11  2  0  0  0  0
 13 14  2  0  0  0  0
 13 12  1  0  0  0  0
 14 15  1  0  0  0  0
 15  3  1  0  0  0  0
 15 16  2  0  0  0  0
 19 13  1  0  0  0  0
 20  5  1  0  0  0  0
 21 26  1  0  0  0  0
 21 20  1  0  0  0  0
 22 21  2  0  0  0  0
 23 24  2  0  0  0  0
 23 22  1  0  0  0  0
 24 25  1  0  0  0  0
 25 20  2  0  0  0  0
 27 22  1  0  0  0  0
 28 24  1  0  0  0  0
 29 28  2  0  0  0  0
 30 29  1  0  0  0  0
 31 33  1  0  0  0  0
 31 29  1  0  0  0  0
 32 31  1  0  0  0  0
 33 35  2  0  0  0  0
 34 33  1  0  0  0  0
 35 28  1  0  0  0  0
M  END
>  <minimizedAffinity>
-6.67186451

>  <minimizedRMSD>
0.105961345

$$$$
