
 OpenBabel03272509493D

 32 34  0  0  0  0  0  0  0  0999 V2000
   34.9810   28.2470   49.5520 O   0  0  0  0  0  0  0  0  0  0  0  0
   37.4130   30.2240   51.3590 C   0  0  0  0  0  0  0  0  0  0  0  0
   37.9480   30.9940   50.2980 C   0  0  0  0  0  0  0  0  0  0  0  0
   37.4300   30.7770   49.0190 C   0  0  0  0  0  0  0  0  0  0  0  0
   36.4490   29.8440   48.8800 N   0  0  0  0  0  0  0  0  0  0  0  0
   35.9670   29.1320   49.9170 C   0  0  0  0  0  0  0  0  0  0  0  0
   36.4580   29.3280   51.1710 N   0  0  0  0  0  0  0  0  0  0  0  0
   37.8070   30.3840   52.3540 H   0  0  0  0  0  0  0  0  0  0  0  0
   38.7290   31.7150   50.5010 H   0  0  0  0  0  0  0  0  0  0  0  0
   37.9360   31.5300   47.9040 C   0  0  0  0  0  0  0  0  0  0  0  0
   38.8760   32.5280   47.9270 C   0  0  0  0  0  0  0  0  0  0  0  0
   39.3490   32.8560   48.8420 H   0  0  0  0  0  0  0  0  0  0  0  0
   39.0090   32.9180   46.6360 N   0  0  0  0  0  0  0  0  0  0  0  0
   39.6930   33.6920   46.4040 H   0  0  0  0  0  0  0  0  0  0  0  0
   38.1750   32.1810   45.8520 C   0  0  0  0  0  0  0  0  0  0  0  0
   38.1550   32.3660   44.7810 H   0  0  0  0  0  0  0  0  0  0  0  0
   37.5140   31.3220   46.6490 N   0  0  0  0  0  0  0  0  0  0  0  0
   34.2540   28.5320   48.3600 C   0  0  0  0  0  0  0  0  0  0  0  0
   33.6220   29.4110   48.5990 H   0  0  0  0  0  0  0  0  0  0  0  0
   34.9160   28.7680   47.5100 H   0  0  0  0  0  0  0  0  0  0  0  0
   33.3170   27.3950   48.0410 C   0  0  0  0  0  0  0  0  0  0  0  0
   33.3740   26.5860   48.7980 H   0  0  0  0  0  0  0  0  0  0  0  0
   33.6720   26.9360   47.0820 H   0  0  0  0  0  0  0  0  0  0  0  0
   31.9090   27.8500   47.8990 C   0  0  0  0  0  0  0  0  0  0  0  0
   31.0480   27.5570   48.9360 C   0  0  0  0  0  0  0  0  0  0  0  0
   29.7240   27.9230   48.9230 C   0  0  0  0  0  0  0  0  0  0  0  0
   29.2540   28.5900   47.8670 N   0  0  0  0  0  0  0  0  0  0  0  0
   30.0940   28.8800   46.8470 C   0  0  0  0  0  0  0  0  0  0  0  0
   31.3980   28.5270   46.8440 N   0  0  0  0  0  0  0  0  0  0  0  0
   31.4040   27.0150   49.8090 H   0  0  0  0  0  0  0  0  0  0  0  0
   29.0750   27.6790   49.7500 H   0  0  0  0  0  0  0  0  0  0  0  0
   29.7340   29.4230   45.9740 H   0  0  0  0  0  0  0  0  0  0  0  0
  1  6  1  0  0  0  0
  2  8  1  0  0  0  0
  3  9  1  0  0  0  0
  3  2  2  0  0  0  0
  4  3  1  0  0  0  0
  5  4  2  0  0  0  0
  5  6  1  0  0  0  0
  6  7  2  0  0  0  0
  7  2  1  0  0  0  0
 10 11  2  0  0  0  0
 10  4  1  0  0  0  0
 11 12  1  0  0  0  0
 13 11  1  0  0  0  0
 14 13  1  0  0  0  0
 15 13  1  0  0  0  0
 15 17  2  0  0  0  0
 16 15  1  0  0  0  0
 17 10  1  0  0  0  0
 18 19  1  0  0  0  0
 18  1  1  0  0  0  0
 20 18  1  0  0  0  0
 21 18  1  0  0  0  0
 21 22  1  0  0  0  0
 23 21  1  0  0  0  0
 24 21  1  0  0  0  0
 24 25  1  0  0  0  0
 25 30  1  0  0  0  0
 26 25  2  0  0  0  0
 26 31  1  0  0  0  0
 27 26  1  0  0  0  0
 28 27  2  0  0  0  0
 29 28  1  0  0  0  0
 29 24  2  0  0  0  0
 32 28  1  0  0  0  0
M  END
>  <minimizedAffinity>
-5.58911848

>  <minimizedRMSD>
0.915410876

$$$$
