
 OpenBabel03272510323D

 27 29  0  0  0  0  0  0  0  0999 V2000
   35.9310   30.0400   47.8990 C   0  0  0  0  0  0  0  0  0  0  0  0
   35.1650   30.0230   46.7660 C   0  0  0  0  0  0  0  0  0  0  0  0
   34.1180   29.1340   46.6080 C   0  0  0  0  0  0  0  0  0  0  0  0
   33.8650   28.2490   47.6440 C   0  0  0  0  0  0  0  0  0  0  0  0
   34.6180   28.2400   48.7990 C   0  0  0  0  0  0  0  0  0  0  0  0
   35.6550   29.1430   48.9180 C   0  0  0  0  0  0  0  0  0  0  0  0
   35.3370   30.7040   45.9330 H   0  0  0  0  0  0  0  0  0  0  0  0
   33.4910   29.0960   45.7200 H   0  0  0  0  0  0  0  0  0  0  0  0
   33.0560   27.5130   47.5980 H   0  0  0  0  0  0  0  0  0  0  0  0
   34.4040   27.5440   49.5890 H   0  0  0  0  0  0  0  0  0  0  0  0
   37.9330   32.8380   49.0720 C   0  0  0  0  0  0  0  0  0  0  0  0
   39.0100   32.8920   48.1920 C   0  0  0  0  0  0  0  0  0  0  0  0
   39.0450   31.9340   47.1650 C   0  0  0  0  0  0  0  0  0  0  0  0
   38.0380   31.0370   47.1060 N   0  0  0  0  0  0  0  0  0  0  0  0
   37.0090   31.0120   47.9730 C   0  0  0  0  0  0  0  0  0  0  0  0
   36.9590   31.9230   48.9650 N   0  0  0  0  0  0  0  0  0  0  0  0
   37.9720   33.6090   49.8400 H   0  0  0  0  0  0  0  0  0  0  0  0
   39.8250   33.5820   48.2020 H   0  0  0  0  0  0  0  0  0  0  0  0
   39.8350   31.8750   46.4190 H   0  0  0  0  0  0  0  0  0  0  0  0
   36.4790   29.1740   50.1230 C   0  0  0  0  0  0  0  0  0  0  0  0
   35.9240   29.6360   51.3020 C   0  0  0  0  0  0  0  0  0  0  0  0
   34.9110   30.0070   51.5130 H   0  0  0  0  0  0  0  0  0  0  0  0
   36.8680   29.5700   52.2630 N   0  0  0  0  0  0  0  0  0  0  0  0
   36.7880   29.8390   53.2660 H   0  0  0  0  0  0  0  0  0  0  0  0
   38.0120   29.0750   51.7110 C   0  0  0  0  0  0  0  0  0  0  0  0
   38.9760   28.8860   52.1880 H   0  0  0  0  0  0  0  0  0  0  0  0
   37.7720   28.8350   50.4080 N   0  0  0  0  0  0  0  0  0  0  0  0
  1 15  1  0  0  0  0
  1  6  1  0  0  0  0
  2  1  2  0  0  0  0
  3  2  1  0  0  0  0
  3  4  2  0  0  0  0
  4  5  1  0  0  0  0
  5  6  2  0  0  0  0
  5 10  1  0  0  0  0
  6 20  1  0  0  0  0
  7  2  1  0  0  0  0
  8  3  1  0  0  0  0
  9  4  1  0  0  0  0
 11 17  1  0  0  0  0
 12 18  1  0  0  0  0
 12 11  2  0  0  0  0
 13 12  1  0  0  0  0
 14 13  2  0  0  0  0
 14 15  1  0  0  0  0
 15 16  2  0  0  0  0
 16 11  1  0  0  0  0
 19 13  1  0  0  0  0
 20 27  1  0  0  0  0
 20 21  2  0  0  0  0
 21 22  1  0  0  0  0
 21 23  1  0  0  0  0
 23 24  1  0  0  0  0
 25 26  1  0  0  0  0
 25 23  1  0  0  0  0
 27 25  2  0  0  0  0
M  END
>  <minimizedAffinity>
-4.76412821

>  <minimizedRMSD>
0.81621027

$$$$
