
 OpenBabel03272507083D

 38 42  0  0  0  0  0  0  0  0999 V2000
   37.1840   28.7780   31.2810 C   0  0  0  0  0  0  0  0  0  0  0  0
   37.6140   27.4750   31.5780 C   0  0  0  0  0  0  0  0  0  0  0  0
   37.2190   26.9400   32.8030 C   0  0  0  0  0  0  0  0  0  0  0  0
   36.4530   27.6870   33.6330 N   0  0  0  0  0  0  0  0  0  0  0  0
   36.0570   28.9380   33.3160 C   0  0  0  0  0  0  0  0  0  0  0  0
   36.4250   29.4780   32.1390 N   0  0  0  0  0  0  0  0  0  0  0  0
   37.4950   29.1890   30.3230 H   0  0  0  0  0  0  0  0  0  0  0  0
   38.2240   26.8610   30.9320 H   0  0  0  0  0  0  0  0  0  0  0  0
   33.8740   29.3880   34.3430 C   0  0  0  0  0  0  0  0  0  0  0  0
   35.2330   29.6770   34.2660 C   0  0  0  0  0  0  0  0  0  0  0  0
   35.7820   30.6430   35.0730 C   0  0  0  0  0  0  0  0  0  0  0  0
   35.0070   31.3380   35.9670 C   0  0  0  0  0  0  0  0  0  0  0  0
   35.2770   32.3120   36.8570 N   0  0  0  0  0  0  0  0  0  0  0  0
   34.0880   32.5890   37.4470 C   0  0  0  0  0  0  0  0  0  0  0  0
   33.1080   31.8070   36.9360 N   0  0  0  0  0  0  0  0  0  0  0  0
   33.6700   31.0200   36.0090 C   0  0  0  0  0  0  0  0  0  0  0  0
   33.0650   30.0670   35.2290 C   0  0  0  0  0  0  0  0  0  0  0  0
   33.4010   28.6320   33.7220 H   0  0  0  0  0  0  0  0  0  0  0  0
   36.8270   30.8790   35.0280 H   0  0  0  0  0  0  0  0  0  0  0  0
   36.1960   32.7690   37.0640 H   0  0  0  0  0  0  0  0  0  0  0  0
   34.0070   33.3530   38.2230 H   0  0  0  0  0  0  0  0  0  0  0  0
   32.0000   29.8660   35.3140 H   0  0  0  0  0  0  0  0  0  0  0  0
   37.5740   25.6100   33.2690 C   0  0  0  0  0  0  0  0  0  0  0  0
   37.7280   24.5200   32.4340 C   0  0  0  0  0  0  0  0  0  0  0  0
   38.0640   23.2490   32.8420 C   0  0  0  0  0  0  0  0  0  0  0  0
   38.2500   23.0730   34.1600 N   0  0  0  0  0  0  0  0  0  0  0  0
   38.1110   24.1020   35.0050 C   0  0  0  0  0  0  0  0  0  0  0  0
   37.7870   25.3170   34.5710 N   0  0  0  0  0  0  0  0  0  0  0  0
   37.5770   24.6570   31.3630 H   0  0  0  0  0  0  0  0  0  0  0  0
   38.1640   22.4510   32.1220 H   0  0  0  0  0  0  0  0  0  0  0  0
   38.3230   23.8740   36.4370 C   0  0  0  0  0  0  0  0  0  0  0  0
   39.0750   22.8720   37.0170 C   0  0  0  0  0  0  0  0  0  0  0  0
   39.6320   22.0910   36.5260 H   0  0  0  0  0  0  0  0  0  0  0  0
   39.0180   23.0100   38.3740 N   0  0  0  0  0  0  0  0  0  0  0  0
   39.4650   22.4320   39.1310 H   0  0  0  0  0  0  0  0  0  0  0  0
   38.2380   24.0870   38.6350 C   0  0  0  0  0  0  0  0  0  0  0  0
   38.0020   24.4530   39.6400 H   0  0  0  0  0  0  0  0  0  0  0  0
   37.8230   24.6010   37.4580 N   0  0  0  0  0  0  0  0  0  0  0  0
  1  2  2  0  0  0  0
  1  6  1  0  0  0  0
  2  3  1  0  0  0  0
  3 23  1  0  0  0  0
  3  4  2  0  0  0  0
  5  4  1  0  0  0  0
  5 10  1  0  0  0  0
  6  5  2  0  0  0  0
  7  1  1  0  0  0  0
  8  2  1  0  0  0  0
  9 17  1  0  0  0  0
 10  9  2  0  0  0  0
 10 11  1  0  0  0  0
 11 12  2  0  0  0  0
 12 16  1  0  0  0  0
 12 13  1  0  0  0  0
 13 20  1  0  0  0  0
 13 14  1  0  0  0  0
 14 21  1  0  0  0  0
 15 14  2  0  0  0  0
 16 15  1  0  0  0  0
 17 22  1  0  0  0  0
 17 16  2  0  0  0  0
 18  9  1  0  0  0  0
 19 11  1  0  0  0  0
 23 28  1  0  0  0  0
 24 25  1  0  0  0  0
 24 23  2  0  0  0  0
 25 26  2  0  0  0  0
 26 27  1  0  0  0  0
 27 31  1  0  0  0  0
 28 27  2  0  0  0  0
 29 24  1  0  0  0  0
 30 25  1  0  0  0  0
 31 32  2  0  0  0  0
 31 38  1  0  0  0  0
 32 34  1  0  0  0  0
 33 32  1  0  0  0  0
 34 36  1  0  0  0  0
 34 35  1  0  0  0  0
 36 37  1  0  0  0  0
 38 36  2  0  0  0  0
M  END
>  <minimizedAffinity>
-6.66988707

$$$$

 OpenBabel03272507083D

 38 42  0  0  0  0  0  0  0  0999 V2000
   35.9660   24.6240   31.3910 C   0  0  0  0  0  0  0  0  0  0  0  0
   35.6460   25.9900   31.3350 C   0  0  0  0  0  0  0  0  0  0  0  0
   36.3340   26.8370   32.2030 C   0  0  0  0  0  0  0  0  0  0  0  0
   37.2600   26.3150   33.0400 N   0  0  0  0  0  0  0  0  0  0  0  0
   37.5420   24.9950   33.0660 C   0  0  0  0  0  0  0  0  0  0  0  0
   36.8930   24.1540   32.2400 N   0  0  0  0  0  0  0  0  0  0  0  0
   35.4260   23.9680   30.7110 H   0  0  0  0  0  0  0  0  0  0  0  0
   34.9120   26.4300   30.6760 H   0  0  0  0  0  0  0  0  0  0  0  0
   39.7970   25.1370   34.0260 C   0  0  0  0  0  0  0  0  0  0  0  0
   38.5550   24.5110   33.9990 C   0  0  0  0  0  0  0  0  0  0  0  0
   38.2920   23.4550   34.8380 C   0  0  0  0  0  0  0  0  0  0  0  0
   39.2440   23.0000   35.7160 C   0  0  0  0  0  0  0  0  0  0  0  0
   39.2570   22.0100   36.6290 N   0  0  0  0  0  0  0  0  0  0  0  0
   40.4930   22.0570   37.1830 C   0  0  0  0  0  0  0  0  0  0  0  0
   41.2280   23.0500   36.6280 N   0  0  0  0  0  0  0  0  0  0  0  0
   40.4580   23.6480   35.7090 C   0  0  0  0  0  0  0  0  0  0  0  0
   40.7780   24.7060   34.8950 C   0  0  0  0  0  0  0  0  0  0  0  0
   40.0440   25.9740   33.3790 H   0  0  0  0  0  0  0  0  0  0  0  0
   37.3410   22.9610   34.8320 H   0  0  0  0  0  0  0  0  0  0  0  0
   38.4900   21.3400   36.8730 H   0  0  0  0  0  0  0  0  0  0  0  0
   40.7880   21.3570   37.9670 H   0  0  0  0  0  0  0  0  0  0  0  0
   41.7580   25.1710   34.9410 H   0  0  0  0  0  0  0  0  0  0  0  0
   36.1280   28.2740   32.2780 C   0  0  0  0  0  0  0  0  0  0  0  0
   36.2690   29.1270   31.2010 C   0  0  0  0  0  0  0  0  0  0  0  0
   36.0820   30.4910   31.2390 C   0  0  0  0  0  0  0  0  0  0  0  0
   35.7370   31.0150   32.4250 N   0  0  0  0  0  0  0  0  0  0  0  0
   35.5880   30.2250   33.4950 C   0  0  0  0  0  0  0  0  0  0  0  0
   35.7770   28.9100   33.4180 N   0  0  0  0  0  0  0  0  0  0  0  0
   36.5510   28.7080   30.2350 H   0  0  0  0  0  0  0  0  0  0  0  0
   36.2140   31.0870   30.3480 H   0  0  0  0  0  0  0  0  0  0  0  0
   35.2090   30.8300   34.7750 C   0  0  0  0  0  0  0  0  0  0  0  0
   36.0580   31.3560   35.7290 C   0  0  0  0  0  0  0  0  0  0  0  0
   37.1340   31.4130   35.7010 H   0  0  0  0  0  0  0  0  0  0  0  0
   35.3120   31.8210   36.7720 N   0  0  0  0  0  0  0  0  0  0  0  0
   35.6160   32.2820   37.6680 H   0  0  0  0  0  0  0  0  0  0  0  0
   34.0110   31.5870   36.4700 C   0  0  0  0  0  0  0  0  0  0  0  0
   33.1680   31.8510   37.1170 H   0  0  0  0  0  0  0  0  0  0  0  0
   33.9620   30.9880   35.2620 N   0  0  0  0  0  0  0  0  0  0  0  0
  1  6  1  0  0  0  0
  2  1  2  0  0  0  0
  2  3  1  0  0  0  0
  3 23  1  0  0  0  0
  3  4  2  0  0  0  0
  4  5  1  0  0  0  0
  5 10  1  0  0  0  0
  6  5  2  0  0  0  0
  7  1  1  0  0  0  0
  8  2  1  0  0  0  0
  9 17  1  0  0  0  0
 10  9  2  0  0  0  0
 10 11  1  0  0  0  0
 11 12  2  0  0  0  0
 12 13  1  0  0  0  0
 13 20  1  0  0  0  0
 13 14  1  0  0  0  0
 14 21  1  0  0  0  0
 15 14  2  0  0  0  0
 16 12  1  0  0  0  0
 16 15  1  0  0  0  0
 17 22  1  0  0  0  0
 17 16  2  0  0  0  0
 18  9  1  0  0  0  0
 19 11  1  0  0  0  0
 23 28  1  0  0  0  0
 24 25  1  0  0  0  0
 24 23  2  0  0  0  0
 25 26  2  0  0  0  0
 26 27  1  0  0  0  0
 27 31  1  0  0  0  0
 28 27  2  0  0  0  0
 29 24  1  0  0  0  0
 30 25  1  0  0  0  0
 31 38  1  0  0  0  0
 31 32  2  0  0  0  0
 32 34  1  0  0  0  0
 33 32  1  0  0  0  0
 34 35  1  0  0  0  0
 36 34  1  0  0  0  0
 36 37  1  0  0  0  0
 38 36  2  0  0  0  0
M  END
>  <minimizedAffinity>
-6.41245317

$$$$

 OpenBabel03272507083D

 38 42  0  0  0  0  0  0  0  0999 V2000
   37.4950   27.6620   31.6090 C   0  0  0  0  0  0  0  0  0  0  0  0
   36.6200   28.6680   32.0460 C   0  0  0  0  0  0  0  0  0  0  0  0
   36.2540   28.6480   33.3920 C   0  0  0  0  0  0  0  0  0  0  0  0
   36.7490   27.6800   34.1970 N   0  0  0  0  0  0  0  0  0  0  0  0
   37.5900   26.7260   33.7410 C   0  0  0  0  0  0  0  0  0  0  0  0
   37.9600   26.7220   32.4470 N   0  0  0  0  0  0  0  0  0  0  0  0
   37.7780   27.6830   30.5580 H   0  0  0  0  0  0  0  0  0  0  0  0
   36.2120   29.4510   31.4230 H   0  0  0  0  0  0  0  0  0  0  0  0
   38.9830   24.7630   34.2160 C   0  0  0  0  0  0  0  0  0  0  0  0
   38.0800   25.7160   34.6740 C   0  0  0  0  0  0  0  0  0  0  0  0
   37.6610   25.7030   35.9820 C   0  0  0  0  0  0  0  0  0  0  0  0
   38.1220   24.7540   36.8590 C   0  0  0  0  0  0  0  0  0  0  0  0
   37.8850   24.5110   38.1620 N   0  0  0  0  0  0  0  0  0  0  0  0
   38.6410   23.4280   38.4630 C   0  0  0  0  0  0  0  0  0  0  0  0
   39.3290   23.0090   37.3740 N   0  0  0  0  0  0  0  0  0  0  0  0
   39.0130   23.8300   36.3640 C   0  0  0  0  0  0  0  0  0  0  0  0
   39.4680   23.7940   35.0690 C   0  0  0  0  0  0  0  0  0  0  0  0
   39.3390   24.7390   33.1900 H   0  0  0  0  0  0  0  0  0  0  0  0
   36.9660   26.4300   36.3520 H   0  0  0  0  0  0  0  0  0  0  0  0
   37.2580   25.0340   38.8180 H   0  0  0  0  0  0  0  0  0  0  0  0
   38.6460   23.0030   39.4680 H   0  0  0  0  0  0  0  0  0  0  0  0
   40.1730   23.0340   34.7450 H   0  0  0  0  0  0  0  0  0  0  0  0
   35.3590   29.6120   34.0100 C   0  0  0  0  0  0  0  0  0  0  0  0
   35.5620   30.9780   33.9810 C   0  0  0  0  0  0  0  0  0  0  0  0
   34.7350   31.9160   34.5560 C   0  0  0  0  0  0  0  0  0  0  0  0
   33.6510   31.4470   35.1940 N   0  0  0  0  0  0  0  0  0  0  0  0
   33.4150   30.1310   35.2470 C   0  0  0  0  0  0  0  0  0  0  0  0
   34.2380   29.2550   34.6770 N   0  0  0  0  0  0  0  0  0  0  0  0
   36.4410   31.3650   33.4650 H   0  0  0  0  0  0  0  0  0  0  0  0
   34.9680   32.9680   34.4870 H   0  0  0  0  0  0  0  0  0  0  0  0
   32.2210   29.6540   35.9510 C   0  0  0  0  0  0  0  0  0  0  0  0
   31.3160   30.4160   36.6630 C   0  0  0  0  0  0  0  0  0  0  0  0
   31.3270   31.4820   36.8240 H   0  0  0  0  0  0  0  0  0  0  0  0
   30.3490   29.5940   37.1640 N   0  0  0  0  0  0  0  0  0  0  0  0
   29.5050   29.8230   37.7510 H   0  0  0  0  0  0  0  0  0  0  0  0
   30.6490   28.3330   36.7680 C   0  0  0  0  0  0  0  0  0  0  0  0
   30.0540   27.4480   37.0150 H   0  0  0  0  0  0  0  0  0  0  0  0
   31.7820   28.3810   36.0360 N   0  0  0  0  0  0  0  0  0  0  0  0
  1  2  2  0  0  0  0
  1  6  1  0  0  0  0
  2  3  1  0  0  0  0
  3 23  1  0  0  0  0
  3  4  2  0  0  0  0
  5  4  1  0  0  0  0
  5 10  1  0  0  0  0
  6  5  2  0  0  0  0
  7  1  1  0  0  0  0
  8  2  1  0  0  0  0
  9 10  2  0  0  0  0
  9 17  1  0  0  0  0
 10 11  1  0  0  0  0
 11 19  1  0  0  0  0
 11 12  2  0  0  0  0
 12 13  1  0  0  0  0
 13 14  1  0  0  0  0
 13 20  1  0  0  0  0
 14 21  1  0  0  0  0
 15 14  2  0  0  0  0
 16 12  1  0  0  0  0
 16 15  1  0  0  0  0
 17 16  2  0  0  0  0
 18  9  1  0  0  0  0
 22 17  1  0  0  0  0
 23 28  1  0  0  0  0
 24 23  2  0  0  0  0
 24 25  1  0  0  0  0
 25 26  2  0  0  0  0
 26 27  1  0  0  0  0
 27 31  1  0  0  0  0
 28 27  2  0  0  0  0
 29 24  1  0  0  0  0
 30 25  1  0  0  0  0
 31 38  1  0  0  0  0
 31 32  2  0  0  0  0
 32 33  1  0  0  0  0
 32 34  1  0  0  0  0
 34 35  1  0  0  0  0
 36 37  1  0  0  0  0
 36 34  1  0  0  0  0
 38 36  2  0  0  0  0
M  END
>  <minimizedAffinity>
-6.1160078

$$$$

 OpenBabel03272507083D

 38 42  0  0  0  0  0  0  0  0999 V2000
   38.5230   27.6020   31.5080 C   0  0  0  0  0  0  0  0  0  0  0  0
   37.3680   28.3800   31.6880 C   0  0  0  0  0  0  0  0  0  0  0  0
   36.6400   28.1710   32.8590 C   0  0  0  0  0  0  0  0  0  0  0  0
   37.0700   27.2460   33.7490 N   0  0  0  0  0  0  0  0  0  0  0  0
   38.1860   26.5150   33.5420 C   0  0  0  0  0  0  0  0  0  0  0  0
   38.9090   26.6970   32.4220 N   0  0  0  0  0  0  0  0  0  0  0  0
   39.0870   27.7700   30.5930 H   0  0  0  0  0  0  0  0  0  0  0  0
   37.0050   29.1230   30.9940 H   0  0  0  0  0  0  0  0  0  0  0  0
   39.6000   24.6370   34.2490 C   0  0  0  0  0  0  0  0  0  0  0  0
   38.5840   25.5380   34.5510 C   0  0  0  0  0  0  0  0  0  0  0  0
   37.9700   25.5030   35.7790 C   0  0  0  0  0  0  0  0  0  0  0  0
   38.3440   24.5850   36.7280 C   0  0  0  0  0  0  0  0  0  0  0  0
   37.9230   24.3330   37.9820 N   0  0  0  0  0  0  0  0  0  0  0  0
   38.6840   23.2960   38.4070 C   0  0  0  0  0  0  0  0  0  0  0  0
   39.5550   22.9150   37.4430 N   0  0  0  0  0  0  0  0  0  0  0  0
   39.3520   23.7140   36.3860 C   0  0  0  0  0  0  0  0  0  0  0  0
   40.0020   23.7000   35.1780 C   0  0  0  0  0  0  0  0  0  0  0  0
   40.1110   24.6310   33.2900 H   0  0  0  0  0  0  0  0  0  0  0  0
   37.1850   26.1900   36.0290 H   0  0  0  0  0  0  0  0  0  0  0  0
   37.1730   24.8200   38.5270 H   0  0  0  0  0  0  0  0  0  0  0  0
   38.5580   22.8750   39.4070 H   0  0  0  0  0  0  0  0  0  0  0  0
   40.7910   22.9820   34.9740 H   0  0  0  0  0  0  0  0  0  0  0  0
   35.4230   28.8870   33.2050 C   0  0  0  0  0  0  0  0  0  0  0  0
   34.2380   28.7710   32.5040 C   0  0  0  0  0  0  0  0  0  0  0  0
   33.0700   29.4340   32.8050 C   0  0  0  0  0  0  0  0  0  0  0  0
   33.1050   30.2560   33.8650 N   0  0  0  0  0  0  0  0  0  0  0  0
   34.2310   30.3990   34.5730 C   0  0  0  0  0  0  0  0  0  0  0  0
   35.3420   29.7390   34.2510 N   0  0  0  0  0  0  0  0  0  0  0  0
   34.2040   28.1050   31.6410 H   0  0  0  0  0  0  0  0  0  0  0  0
   32.1860   29.2860   32.2030 H   0  0  0  0  0  0  0  0  0  0  0  0
   34.2340   31.3040   35.7250 C   0  0  0  0  0  0  0  0  0  0  0  0
   33.2250   31.4700   36.6540 C   0  0  0  0  0  0  0  0  0  0  0  0
   32.2710   30.9700   36.6940 H   0  0  0  0  0  0  0  0  0  0  0  0
   33.6190   32.4050   37.5670 N   0  0  0  0  0  0  0  0  0  0  0  0
   33.1120   32.7820   38.4090 H   0  0  0  0  0  0  0  0  0  0  0  0
   34.8600   32.8170   37.2100 C   0  0  0  0  0  0  0  0  0  0  0  0
   35.4440   33.5670   37.7530 H   0  0  0  0  0  0  0  0  0  0  0  0
   35.2210   32.1460   36.0960 N   0  0  0  0  0  0  0  0  0  0  0  0
  1  2  2  0  0  0  0
  1  6  1  0  0  0  0
  2  3  1  0  0  0  0
  3 23  1  0  0  0  0
  3  4  2  0  0  0  0
  5  4  1  0  0  0  0
  5 10  1  0  0  0  0
  6  5  2  0  0  0  0
  7  1  1  0  0  0  0
  8  2  1  0  0  0  0
  9 10  2  0  0  0  0
  9 17  1  0  0  0  0
 10 11  1  0  0  0  0
 11 19  1  0  0  0  0
 11 12  2  0  0  0  0
 12 13  1  0  0  0  0
 13 14  1  0  0  0  0
 13 20  1  0  0  0  0
 14 21  1  0  0  0  0
 15 14  2  0  0  0  0
 16 12  1  0  0  0  0
 16 15  1  0  0  0  0
 17 16  2  0  0  0  0
 18  9  1  0  0  0  0
 22 17  1  0  0  0  0
 23 28  1  0  0  0  0
 24 25  1  0  0  0  0
 24 23  2  0  0  0  0
 25 26  2  0  0  0  0
 26 27  1  0  0  0  0
 27 31  1  0  0  0  0
 28 27  2  0  0  0  0
 29 24  1  0  0  0  0
 30 25  1  0  0  0  0
 31 38  1  0  0  0  0
 31 32  2  0  0  0  0
 32 33  1  0  0  0  0
 32 34  1  0  0  0  0
 34 35  1  0  0  0  0
 36 34  1  0  0  0  0
 36 37  1  0  0  0  0
 38 36  2  0  0  0  0
M  END
>  <minimizedAffinity>
-6.1062808

$$$$

 OpenBabel03272507083D

 38 42  0  0  0  0  0  0  0  0999 V2000
   35.3140   24.9450   31.0840 C   0  0  0  0  0  0  0  0  0  0  0  0
   36.3090   24.3250   31.8560 C   0  0  0  0  0  0  0  0  0  0  0  0
   37.3920   25.1130   32.2450 C   0  0  0  0  0  0  0  0  0  0  0  0
   37.4320   26.4120   31.8690 N   0  0  0  0  0  0  0  0  0  0  0  0
   36.4560   26.9760   31.1250 C   0  0  0  0  0  0  0  0  0  0  0  0
   35.3990   26.2390   30.7360 N   0  0  0  0  0  0  0  0  0  0  0  0
   34.4710   24.3250   30.7840 H   0  0  0  0  0  0  0  0  0  0  0  0
   36.2990   23.2910   32.1680 H   0  0  0  0  0  0  0  0  0  0  0  0
   36.1360   29.3500   31.6620 C   0  0  0  0  0  0  0  0  0  0  0  0
   36.5740   28.3850   30.7610 C   0  0  0  0  0  0  0  0  0  0  0  0
   37.1060   28.7570   29.5510 C   0  0  0  0  0  0  0  0  0  0  0  0
   37.2180   30.0810   29.2090 C   0  0  0  0  0  0  0  0  0  0  0  0
   37.6890   30.7140   28.1170 N   0  0  0  0  0  0  0  0  0  0  0  0
   37.5280   32.0340   28.3770 C   0  0  0  0  0  0  0  0  0  0  0  0
   36.9710   32.2150   29.5990 N   0  0  0  0  0  0  0  0  0  0  0  0
   36.7730   31.0010   30.1290 C   0  0  0  0  0  0  0  0  0  0  0  0
   36.2320   30.6900   31.3520 C   0  0  0  0  0  0  0  0  0  0  0  0
   35.7090   29.0970   32.6290 H   0  0  0  0  0  0  0  0  0  0  0  0
   37.4490   28.0270   28.8440 H   0  0  0  0  0  0  0  0  0  0  0  0
   38.0950   30.2960   27.2470 H   0  0  0  0  0  0  0  0  0  0  0  0
   37.8290   32.7940   27.6540 H   0  0  0  0  0  0  0  0  0  0  0  0
   35.9000   31.4690   32.0320 H   0  0  0  0  0  0  0  0  0  0  0  0
   38.5080   24.6330   33.0430 C   0  0  0  0  0  0  0  0  0  0  0  0
   39.7800   24.4350   32.5430 C   0  0  0  0  0  0  0  0  0  0  0  0
   40.8580   23.9830   33.2710 C   0  0  0  0  0  0  0  0  0  0  0  0
   40.6340   23.7160   34.5670 N   0  0  0  0  0  0  0  0  0  0  0  0
   39.4170   23.8950   35.0930 C   0  0  0  0  0  0  0  0  0  0  0  0
   38.4000   24.3350   34.3570 N   0  0  0  0  0  0  0  0  0  0  0  0
   39.9680   24.6490   31.4900 H   0  0  0  0  0  0  0  0  0  0  0  0
   41.8210   23.8550   32.8010 H   0  0  0  0  0  0  0  0  0  0  0  0
   39.2080   23.5950   36.5130 C   0  0  0  0  0  0  0  0  0  0  0  0
   39.9270   22.7060   37.2890 C   0  0  0  0  0  0  0  0  0  0  0  0
   40.7560   22.0850   36.9910 H   0  0  0  0  0  0  0  0  0  0  0  0
   39.4190   22.7200   38.5550 N   0  0  0  0  0  0  0  0  0  0  0  0
   39.7130   22.1750   39.4070 H   0  0  0  0  0  0  0  0  0  0  0  0
   38.3950   23.6080   38.5680 C   0  0  0  0  0  0  0  0  0  0  0  0
   37.7870   23.8410   39.4480 H   0  0  0  0  0  0  0  0  0  0  0  0
   38.2770   24.1300   37.3280 N   0  0  0  0  0  0  0  0  0  0  0  0
  1  2  1  0  0  0  0
  2  8  1  0  0  0  0
  2  3  2  0  0  0  0
  3 23  1  0  0  0  0
  4  3  1  0  0  0  0
  5  4  2  0  0  0  0
  6  1  2  0  0  0  0
  6  5  1  0  0  0  0
  7  1  1  0  0  0  0
  9 18  1  0  0  0  0
 10  5  1  0  0  0  0
 10  9  2  0  0  0  0
 11 10  1  0  0  0  0
 12 11  2  0  0  0  0
 12 16  1  0  0  0  0
 13 14  1  0  0  0  0
 13 12  1  0  0  0  0
 14 15  2  0  0  0  0
 15 16  1  0  0  0  0
 16 17  2  0  0  0  0
 17  9  1  0  0  0  0
 17 22  1  0  0  0  0
 19 11  1  0  0  0  0
 20 13  1  0  0  0  0
 21 14  1  0  0  0  0
 23 28  1  0  0  0  0
 24 23  2  0  0  0  0
 24 25  1  0  0  0  0
 25 26  2  0  0  0  0
 26 27  1  0  0  0  0
 27 31  1  0  0  0  0
 28 27  2  0  0  0  0
 29 24  1  0  0  0  0
 30 25  1  0  0  0  0
 31 32  2  0  0  0  0
 31 38  1  0  0  0  0
 32 34  1  0  0  0  0
 33 32  1  0  0  0  0
 34 36  1  0  0  0  0
 34 35  1  0  0  0  0
 36 37  1  0  0  0  0
 38 36  2  0  0  0  0
M  END
>  <minimizedAffinity>
-6.08586359

$$$$

 OpenBabel03272507083D

 38 42  0  0  0  0  0  0  0  0999 V2000
   35.8130   28.9580   33.7820 C   0  0  0  0  0  0  0  0  0  0  0  0
   36.4990   27.8260   34.2490 C   0  0  0  0  0  0  0  0  0  0  0  0
   37.4370   27.2550   33.3900 C   0  0  0  0  0  0  0  0  0  0  0  0
   37.6400   27.8080   32.1720 N   0  0  0  0  0  0  0  0  0  0  0  0
   36.9610   28.8980   31.7550 C   0  0  0  0  0  0  0  0  0  0  0  0
   36.0500   29.4690   32.5640 N   0  0  0  0  0  0  0  0  0  0  0  0
   35.0830   29.4000   34.4570 H   0  0  0  0  0  0  0  0  0  0  0  0
   36.3550   27.3680   35.2160 H   0  0  0  0  0  0  0  0  0  0  0  0
   38.0550   28.7060   29.5660 C   0  0  0  0  0  0  0  0  0  0  0  0
   37.2380   29.4330   30.4260 C   0  0  0  0  0  0  0  0  0  0  0  0
   36.7030   30.6330   30.0240 C   0  0  0  0  0  0  0  0  0  0  0  0
   36.9620   31.1360   28.7740 C   0  0  0  0  0  0  0  0  0  0  0  0
   36.5800   32.2590   28.1360 N   0  0  0  0  0  0  0  0  0  0  0  0
   37.1680   32.1880   26.9160 C   0  0  0  0  0  0  0  0  0  0  0  0
   37.8960   31.0520   26.8020 N   0  0  0  0  0  0  0  0  0  0  0  0
   37.7750   30.3850   27.9580 C   0  0  0  0  0  0  0  0  0  0  0  0
   38.3370   29.1810   28.3020 C   0  0  0  0  0  0  0  0  0  0  0  0
   38.4970   27.7540   29.8450 H   0  0  0  0  0  0  0  0  0  0  0  0
   36.0710   31.2070   30.6730 H   0  0  0  0  0  0  0  0  0  0  0  0
   35.9640   33.0290   28.4860 H   0  0  0  0  0  0  0  0  0  0  0  0
   37.0300   32.9780   26.1760 H   0  0  0  0  0  0  0  0  0  0  0  0
   38.9720   28.6400   27.6070 H   0  0  0  0  0  0  0  0  0  0  0  0
   38.2350   26.0830   33.7120 C   0  0  0  0  0  0  0  0  0  0  0  0
   39.0760   25.4560   32.8130 C   0  0  0  0  0  0  0  0  0  0  0  0
   39.8430   24.3460   33.0850 C   0  0  0  0  0  0  0  0  0  0  0  0
   39.7520   23.8460   34.3270 N   0  0  0  0  0  0  0  0  0  0  0  0
   38.9500   24.4210   35.2300 C   0  0  0  0  0  0  0  0  0  0  0  0
   38.2230   25.4950   34.9290 N   0  0  0  0  0  0  0  0  0  0  0  0
   39.1530   25.8580   31.8020 H   0  0  0  0  0  0  0  0  0  0  0  0
   40.4750   23.9170   32.3230 H   0  0  0  0  0  0  0  0  0  0  0  0
   38.8750   23.8490   36.5780 C   0  0  0  0  0  0  0  0  0  0  0  0
   39.7360   22.9260   37.1370 C   0  0  0  0  0  0  0  0  0  0  0  0
   40.6030   22.4690   36.6880 H   0  0  0  0  0  0  0  0  0  0  0  0
   39.3200   22.6530   38.4080 N   0  0  0  0  0  0  0  0  0  0  0  0
   39.7300   22.0020   39.1270 H   0  0  0  0  0  0  0  0  0  0  0  0
   38.2120   23.3980   38.6370 C   0  0  0  0  0  0  0  0  0  0  0  0
   37.6460   23.3960   39.5750 H   0  0  0  0  0  0  0  0  0  0  0  0
   37.9520   24.1170   37.5240 N   0  0  0  0  0  0  0  0  0  0  0  0
  1  2  1  0  0  0  0
  1  7  1  0  0  0  0
  2  8  1  0  0  0  0
  3 23  1  0  0  0  0
  3  2  2  0  0  0  0
  4  3  1  0  0  0  0
  5  4  2  0  0  0  0
  5  6  1  0  0  0  0
  6  1  2  0  0  0  0
  9 18  1  0  0  0  0
  9 10  1  0  0  0  0
 10  5  1  0  0  0  0
 11 10  2  0  0  0  0
 11 19  1  0  0  0  0
 12 11  1  0  0  0  0
 13 20  1  0  0  0  0
 13 12  1  0  0  0  0
 14 13  1  0  0  0  0
 15 14  2  0  0  0  0
 15 16  1  0  0  0  0
 16 17  1  0  0  0  0
 16 12  2  0  0  0  0
 17  9  2  0  0  0  0
 21 14  1  0  0  0  0
 22 17  1  0  0  0  0
 23 28  1  0  0  0  0
 24 25  1  0  0  0  0
 24 23  2  0  0  0  0
 25 26  2  0  0  0  0
 26 27  1  0  0  0  0
 27 31  1  0  0  0  0
 28 27  2  0  0  0  0
 29 24  1  0  0  0  0
 30 25  1  0  0  0  0
 31 32  2  0  0  0  0
 31 38  1  0  0  0  0
 32 34  1  0  0  0  0
 33 32  1  0  0  0  0
 34 36  1  0  0  0  0
 34 35  1  0  0  0  0
 36 37  1  0  0  0  0
 38 36  2  0  0  0  0
M  END
>  <minimizedAffinity>
-6.06656504

$$$$

 OpenBabel03272507083D

 38 42  0  0  0  0  0  0  0  0999 V2000
   35.5730   25.2300   30.8100 C   0  0  0  0  0  0  0  0  0  0  0  0
   36.5650   24.5080   31.4910 C   0  0  0  0  0  0  0  0  0  0  0  0
   37.3980   25.2280   32.3470 C   0  0  0  0  0  0  0  0  0  0  0  0
   37.2150   26.5630   32.4790 N   0  0  0  0  0  0  0  0  0  0  0  0
   36.2490   27.2260   31.8070 C   0  0  0  0  0  0  0  0  0  0  0  0
   35.4310   26.5550   30.9750 N   0  0  0  0  0  0  0  0  0  0  0  0
   34.9250   24.6630   30.1450 H   0  0  0  0  0  0  0  0  0  0  0  0
   36.7300   23.4450   31.4030 H   0  0  0  0  0  0  0  0  0  0  0  0
   36.4400   29.5190   30.9550 C   0  0  0  0  0  0  0  0  0  0  0  0
   36.1160   28.6660   32.0050 C   0  0  0  0  0  0  0  0  0  0  0  0
   35.6800   29.1750   33.2030 C   0  0  0  0  0  0  0  0  0  0  0  0
   35.5550   30.5290   33.3890 C   0  0  0  0  0  0  0  0  0  0  0  0
   35.1610   31.2830   34.4330 N   0  0  0  0  0  0  0  0  0  0  0  0
   35.2530   32.5630   33.9980 C   0  0  0  0  0  0  0  0  0  0  0  0
   35.6930   32.6020   32.7180 N   0  0  0  0  0  0  0  0  0  0  0  0
   35.8850   31.3360   32.3250 C   0  0  0  0  0  0  0  0  0  0  0  0
   36.3260   30.8850   31.1060 C   0  0  0  0  0  0  0  0  0  0  0  0
   36.7880   29.1560   29.9920 H   0  0  0  0  0  0  0  0  0  0  0  0
   35.4260   28.5320   34.0230 H   0  0  0  0  0  0  0  0  0  0  0  0
   34.8470   30.9690   35.3810 H   0  0  0  0  0  0  0  0  0  0  0  0
   34.9920   33.4010   34.6470 H   0  0  0  0  0  0  0  0  0  0  0  0
   36.5710   31.5800   30.3070 H   0  0  0  0  0  0  0  0  0  0  0  0
   38.4750   24.6410   33.1270 C   0  0  0  0  0  0  0  0  0  0  0  0
   39.7150   24.3240   32.6070 C   0  0  0  0  0  0  0  0  0  0  0  0
   40.7550   23.7670   33.3170 C   0  0  0  0  0  0  0  0  0  0  0  0
   40.5260   23.5190   34.6160 N   0  0  0  0  0  0  0  0  0  0  0  0
   39.3400   23.8110   35.1610 C   0  0  0  0  0  0  0  0  0  0  0  0
   38.3580   24.3490   34.4410 N   0  0  0  0  0  0  0  0  0  0  0  0
   39.9060   24.5220   31.5520 H   0  0  0  0  0  0  0  0  0  0  0  0
   41.6940   23.5490   32.8330 H   0  0  0  0  0  0  0  0  0  0  0  0
   39.1250   23.5270   36.5840 C   0  0  0  0  0  0  0  0  0  0  0  0
   39.9150   22.7460   37.4040 C   0  0  0  0  0  0  0  0  0  0  0  0
   40.8170   22.2140   37.1460 H   0  0  0  0  0  0  0  0  0  0  0  0
   39.3720   22.7360   38.6550 N   0  0  0  0  0  0  0  0  0  0  0  0
   39.7000   22.2500   39.5300 H   0  0  0  0  0  0  0  0  0  0  0  0
   38.2550   23.5030   38.6150 C   0  0  0  0  0  0  0  0  0  0  0  0
   37.5990   23.6880   39.4720 H   0  0  0  0  0  0  0  0  0  0  0  0
   38.1150   23.9750   37.3580 N   0  0  0  0  0  0  0  0  0  0  0  0
  1  6  2  0  0  0  0
  1  2  1  0  0  0  0
  2  3  2  0  0  0  0
  3  4  1  0  0  0  0
  3 23  1  0  0  0  0
  5 10  1  0  0  0  0
  5  4  2  0  0  0  0
  6  5  1  0  0  0  0
  7  1  1  0  0  0  0
  8  2  1  0  0  0  0
  9 17  2  0  0  0  0
  9 10  1  0  0  0  0
 10 11  2  0  0  0  0
 11 12  1  0  0  0  0
 11 19  1  0  0  0  0
 12 13  1  0  0  0  0
 13 20  1  0  0  0  0
 14 13  1  0  0  0  0
 14 21  1  0  0  0  0
 15 14  2  0  0  0  0
 16 15  1  0  0  0  0
 16 12  2  0  0  0  0
 17 16  1  0  0  0  0
 18  9  1  0  0  0  0
 22 17  1  0  0  0  0
 23 28  1  0  0  0  0
 24 23  2  0  0  0  0
 24 25  1  0  0  0  0
 25 26  2  0  0  0  0
 26 27  1  0  0  0  0
 27 31  1  0  0  0  0
 28 27  2  0  0  0  0
 29 24  1  0  0  0  0
 30 25  1  0  0  0  0
 31 38  1  0  0  0  0
 31 32  2  0  0  0  0
 32 34  1  0  0  0  0
 33 32  1  0  0  0  0
 34 35  1  0  0  0  0
 36 34  1  0  0  0  0
 36 37  1  0  0  0  0
 38 36  2  0  0  0  0
M  END
>  <minimizedAffinity>
-6.03128099

$$$$

 OpenBabel03272507083D

 38 42  0  0  0  0  0  0  0  0999 V2000
   37.5730   28.0210   30.5190 C   0  0  0  0  0  0  0  0  0  0  0  0
   36.6760   29.0780   30.7360 C   0  0  0  0  0  0  0  0  0  0  0  0
   36.1560   29.2140   32.0230 C   0  0  0  0  0  0  0  0  0  0  0  0
   36.5330   28.3380   32.9830 N   0  0  0  0  0  0  0  0  0  0  0  0
   37.3990   27.3320   32.7390 C   0  0  0  0  0  0  0  0  0  0  0  0
   37.9170   27.1780   31.5060 N   0  0  0  0  0  0  0  0  0  0  0  0
   37.9760   27.9210   29.5130 H   0  0  0  0  0  0  0  0  0  0  0  0
   36.3610   29.7890   29.9860 H   0  0  0  0  0  0  0  0  0  0  0  0
   37.9840   26.9630   35.0940 C   0  0  0  0  0  0  0  0  0  0  0  0
   37.7550   26.4300   33.8290 C   0  0  0  0  0  0  0  0  0  0  0  0
   37.8640   25.0770   33.6180 C   0  0  0  0  0  0  0  0  0  0  0  0
   38.1980   24.2290   34.6430 C   0  0  0  0  0  0  0  0  0  0  0  0
   38.3700   22.8950   34.7160 N   0  0  0  0  0  0  0  0  0  0  0  0
   38.6970   22.6520   36.0090 C   0  0  0  0  0  0  0  0  0  0  0  0
   38.7260   23.8040   36.7190 N   0  0  0  0  0  0  0  0  0  0  0  0
   38.4160   24.7990   35.8760 C   0  0  0  0  0  0  0  0  0  0  0  0
   38.3230   26.1410   36.1480 C   0  0  0  0  0  0  0  0  0  0  0  0
   37.9090   28.0270   35.3020 H   0  0  0  0  0  0  0  0  0  0  0  0
   37.6910   24.6490   32.6500 H   0  0  0  0  0  0  0  0  0  0  0  0
   38.2770   22.1840   33.9530 H   0  0  0  0  0  0  0  0  0  0  0  0
   38.8960   21.6380   36.3600 H   0  0  0  0  0  0  0  0  0  0  0  0
   38.5090   26.5240   37.1470 H   0  0  0  0  0  0  0  0  0  0  0  0
   35.2170   30.2500   32.4210 C   0  0  0  0  0  0  0  0  0  0  0  0
   34.3400   30.8660   31.5500 C   0  0  0  0  0  0  0  0  0  0  0  0
   33.4390   31.8490   31.8950 C   0  0  0  0  0  0  0  0  0  0  0  0
   33.4280   32.2260   33.1830 N   0  0  0  0  0  0  0  0  0  0  0  0
   34.2610   31.6550   34.0600 C   0  0  0  0  0  0  0  0  0  0  0  0
   35.1180   30.7060   33.6890 N   0  0  0  0  0  0  0  0  0  0  0  0
   34.3440   30.5650   30.5020 H   0  0  0  0  0  0  0  0  0  0  0  0
   32.7870   32.2800   31.1500 H   0  0  0  0  0  0  0  0  0  0  0  0
   34.2220   32.0900   35.4600 C   0  0  0  0  0  0  0  0  0  0  0  0
   35.1600   31.8250   36.4390 C   0  0  0  0  0  0  0  0  0  0  0  0
   36.0720   31.2580   36.3480 H   0  0  0  0  0  0  0  0  0  0  0  0
   34.7540   32.4080   37.6030 N   0  0  0  0  0  0  0  0  0  0  0  0
   35.2130   32.4160   38.5510 H   0  0  0  0  0  0  0  0  0  0  0  0
   33.5770   33.0310   37.3520 C   0  0  0  0  0  0  0  0  0  0  0  0
   33.0010   33.5920   38.0960 H   0  0  0  0  0  0  0  0  0  0  0  0
   33.2650   32.8310   36.0540 N   0  0  0  0  0  0  0  0  0  0  0  0
  1  2  2  0  0  0  0
  1  6  1  0  0  0  0
  2  3  1  0  0  0  0
  3 23  1  0  0  0  0
  3  4  2  0  0  0  0
  5  4  1  0  0  0  0
  5 10  1  0  0  0  0
  6  5  2  0  0  0  0
  7  1  1  0  0  0  0
  8  2  1  0  0  0  0
  9 18  1  0  0  0  0
  9 17  1  0  0  0  0
 10  9  2  0  0  0  0
 11 10  1  0  0  0  0
 11 12  2  0  0  0  0
 12 13  1  0  0  0  0
 12 16  1  0  0  0  0
 13 14  1  0  0  0  0
 14 21  1  0  0  0  0
 14 15  2  0  0  0  0
 16 17  2  0  0  0  0
 16 15  1  0  0  0  0
 17 22  1  0  0  0  0
 19 11  1  0  0  0  0
 20 13  1  0  0  0  0
 23 28  1  0  0  0  0
 24 25  1  0  0  0  0
 24 23  2  0  0  0  0
 25 26  2  0  0  0  0
 26 27  1  0  0  0  0
 27 31  1  0  0  0  0
 28 27  2  0  0  0  0
 29 24  1  0  0  0  0
 30 25  1  0  0  0  0
 31 38  1  0  0  0  0
 31 32  2  0  0  0  0
 32 34  1  0  0  0  0
 33 32  1  0  0  0  0
 34 35  1  0  0  0  0
 36 34  1  0  0  0  0
 36 37  1  0  0  0  0
 38 36  2  0  0  0  0
M  END
>  <minimizedAffinity>
-6.00788069

$$$$

 OpenBabel03272507083D

 38 42  0  0  0  0  0  0  0  0999 V2000
   37.4260   25.9060   32.1080 C   0  0  0  0  0  0  0  0  0  0  0  0
   37.9090   25.0730   33.1290 C   0  0  0  0  0  0  0  0  0  0  0  0
   37.7240   25.5070   34.4420 C   0  0  0  0  0  0  0  0  0  0  0  0
   37.1000   26.6870   34.6660 N   0  0  0  0  0  0  0  0  0  0  0  0
   36.6480   27.4630   33.6580 C   0  0  0  0  0  0  0  0  0  0  0  0
   36.8130   27.0690   32.3820 N   0  0  0  0  0  0  0  0  0  0  0  0
   37.5720   25.5620   31.0860 H   0  0  0  0  0  0  0  0  0  0  0  0
   38.4090   24.1280   32.9750 H   0  0  0  0  0  0  0  0  0  0  0  0
   34.9080   29.1340   33.2050 C   0  0  0  0  0  0  0  0  0  0  0  0
   35.9850   28.7220   33.9830 C   0  0  0  0  0  0  0  0  0  0  0  0
   36.4120   29.4910   35.0380 C   0  0  0  0  0  0  0  0  0  0  0  0
   35.7880   30.6740   35.3440 C   0  0  0  0  0  0  0  0  0  0  0  0
   35.9920   31.6030   36.2980 N   0  0  0  0  0  0  0  0  0  0  0  0
   35.0450   32.5480   36.0790 C   0  0  0  0  0  0  0  0  0  0  0  0
   34.2740   32.2130   35.0170 N   0  0  0  0  0  0  0  0  0  0  0  0
   34.7280   31.0430   34.5480 C   0  0  0  0  0  0  0  0  0  0  0  0
   34.2570   30.3180   33.4830 C   0  0  0  0  0  0  0  0  0  0  0  0
   34.5400   28.5550   32.3620 H   0  0  0  0  0  0  0  0  0  0  0  0
   37.2390   29.1890   35.6490 H   0  0  0  0  0  0  0  0  0  0  0  0
   36.7180   31.6130   37.0530 H   0  0  0  0  0  0  0  0  0  0  0  0
   34.9730   33.4330   36.7130 H   0  0  0  0  0  0  0  0  0  0  0  0
   33.4140   30.6690   32.8950 H   0  0  0  0  0  0  0  0  0  0  0  0
   38.1620   24.7710   35.6160 C   0  0  0  0  0  0  0  0  0  0  0  0
   37.5630   24.8790   36.8560 C   0  0  0  0  0  0  0  0  0  0  0  0
   37.9530   24.1970   37.9880 C   0  0  0  0  0  0  0  0  0  0  0  0
   38.9990   23.3670   37.8550 N   0  0  0  0  0  0  0  0  0  0  0  0
   39.6090   23.2320   36.6720 C   0  0  0  0  0  0  0  0  0  0  0  0
   39.2020   23.9080   35.6000 N   0  0  0  0  0  0  0  0  0  0  0  0
   36.7130   25.5520   36.9700 H   0  0  0  0  0  0  0  0  0  0  0  0
   37.4290   24.3400   38.9200 H   0  0  0  0  0  0  0  0  0  0  0  0
   40.7480   22.3160   36.5630 C   0  0  0  0  0  0  0  0  0  0  0  0
   41.5160   22.0750   35.4400 C   0  0  0  0  0  0  0  0  0  0  0  0
   41.4140   22.5120   34.4600 H   0  0  0  0  0  0  0  0  0  0  0  0
   42.4770   21.1590   35.7550 N   0  0  0  0  0  0  0  0  0  0  0  0
   43.2330   20.7400   35.1540 H   0  0  0  0  0  0  0  0  0  0  0  0
   42.3090   20.8330   37.0600 C   0  0  0  0  0  0  0  0  0  0  0  0
   42.9320   20.1160   37.6050 H   0  0  0  0  0  0  0  0  0  0  0  0
   41.2610   21.5370   37.5370 N   0  0  0  0  0  0  0  0  0  0  0  0
  1  6  2  0  0  0  0
  1  2  1  0  0  0  0
  2  3  2  0  0  0  0
  3  4  1  0  0  0  0
  3 23  1  0  0  0  0
  5 10  1  0  0  0  0
  5  4  2  0  0  0  0
  6  5  1  0  0  0  0
  7  1  1  0  0  0  0
  8  2  1  0  0  0  0
  9 17  2  0  0  0  0
  9 10  1  0  0  0  0
 10 11  2  0  0  0  0
 11 12  1  0  0  0  0
 11 19  1  0  0  0  0
 12 13  1  0  0  0  0
 13 20  1  0  0  0  0
 14 13  1  0  0  0  0
 14 21  1  0  0  0  0
 15 14  2  0  0  0  0
 16 15  1  0  0  0  0
 16 12  2  0  0  0  0
 17 16  1  0  0  0  0
 18  9  1  0  0  0  0
 22 17  1  0  0  0  0
 23 24  1  0  0  0  0
 24 29  1  0  0  0  0
 24 25  2  0  0  0  0
 25 30  1  0  0  0  0
 26 25  1  0  0  0  0
 27 26  2  0  0  0  0
 28 23  2  0  0  0  0
 28 27  1  0  0  0  0
 31 27  1  0  0  0  0
 31 38  1  0  0  0  0
 32 34  1  0  0  0  0
 32 31  2  0  0  0  0
 33 32  1  0  0  0  0
 34 36  1  0  0  0  0
 35 34  1  0  0  0  0
 36 38  2  0  0  0  0
 36 37  1  0  0  0  0
M  END
>  <minimizedAffinity>
-5.92404556

$$$$
