
 OpenBabel03272508153D

 27 29  0  0  0  0  0  0  0  0999 V2000
   38.0760   23.3510   33.9300 Cl  0  0  0  0  0  0  0  0  0  0  0  0
   37.1950   24.4400   32.8930 C   0  0  0  0  0  0  0  0  0  0  0  0
   36.4700   23.8140   31.9160 C   0  0  0  0  0  0  0  0  0  0  0  0
   35.7200   24.5980   31.0230 C   0  0  0  0  0  0  0  0  0  0  0  0
   35.7040   25.9570   31.1130 C   0  0  0  0  0  0  0  0  0  0  0  0
   36.4400   26.5690   32.1020 C   0  0  0  0  0  0  0  0  0  0  0  0
   36.4420   28.3100   32.2470 Cl  0  0  0  0  0  0  0  0  0  0  0  0
   37.1680   25.8130   32.9700 C   0  0  0  0  0  0  0  0  0  0  0  0
   35.1190   24.1910   30.2210 H   0  0  0  0  0  0  0  0  0  0  0  0
   35.1320   26.5890   30.4350 H   0  0  0  0  0  0  0  0  0  0  0  0
   35.2240   21.6930   32.1590 C   0  0  0  0  0  0  0  0  0  0  0  0
   36.3400   22.3720   31.6320 C   0  0  0  0  0  0  0  0  0  0  0  0
   37.2620   21.6410   30.8720 C   0  0  0  0  0  0  0  0  0  0  0  0
   37.0300   20.3170   30.6830 N   0  0  0  0  0  0  0  0  0  0  0  0
   35.9470   19.6940   31.2030 C   0  0  0  0  0  0  0  0  0  0  0  0
   35.0390   20.3850   31.9450 N   0  0  0  0  0  0  0  0  0  0  0  0
   34.4970   22.2350   32.7500 H   0  0  0  0  0  0  0  0  0  0  0  0
   38.0910   22.1960   30.4940 H   0  0  0  0  0  0  0  0  0  0  0  0
   35.8790   18.6360   30.9790 H   0  0  0  0  0  0  0  0  0  0  0  0
   37.9780   26.3830   34.0510 C   0  0  0  0  0  0  0  0  0  0  0  0
   39.3000   26.7870   34.0350 C   0  0  0  0  0  0  0  0  0  0  0  0
   39.9070   26.7130   33.1440 H   0  0  0  0  0  0  0  0  0  0  0  0
   39.5690   27.2350   35.2740 N   0  0  0  0  0  0  0  0  0  0  0  0
   40.5260   27.5990   35.5040 H   0  0  0  0  0  0  0  0  0  0  0  0
   38.4750   27.1310   36.0680 C   0  0  0  0  0  0  0  0  0  0  0  0
   38.4190   27.4180   37.1060 H   0  0  0  0  0  0  0  0  0  0  0  0
   37.5070   26.6020   35.2930 N   0  0  0  0  0  0  0  0  0  0  0  0
  2  8  1  0  0  0  0
  2  1  1  0  0  0  0
  3  2  2  0  0  0  0
  4  5  2  0  0  0  0
  4  3  1  0  0  0  0
  5  6  1  0  0  0  0
  6  7  1  0  0  0  0
  6  8  2  0  0  0  0
  8 20  1  0  0  0  0
  9  4  1  0  0  0  0
 10  5  1  0  0  0  0
 11 17  1  0  0  0  0
 12  3  1  0  0  0  0
 12 11  2  0  0  0  0
 13 12  1  0  0  0  0
 14 13  2  0  0  0  0
 14 15  1  0  0  0  0
 15 16  2  0  0  0  0
 16 11  1  0  0  0  0
 18 13  1  0  0  0  0
 19 15  1  0  0  0  0
 20 27  1  0  0  0  0
 21 20  2  0  0  0  0
 21 23  1  0  0  0  0
 22 21  1  0  0  0  0
 23 24  1  0  0  0  0
 23 25  1  0  0  0  0
 25 26  1  0  0  0  0
 27 25  2  0  0  0  0
M  END
>  <minimizedAffinity>
-5.02611256

$$$$

 OpenBabel03272508153D

 27 29  0  0  0  0  0  0  0  0999 V2000
   39.7720   25.7140   31.9980 Cl  0  0  0  0  0  0  0  0  0  0  0  0
   38.9480   26.4930   33.3220 C   0  0  0  0  0  0  0  0  0  0  0  0
   39.5130   26.2570   34.5450 C   0  0  0  0  0  0  0  0  0  0  0  0
   38.9290   26.8380   35.6830 C   0  0  0  0  0  0  0  0  0  0  0  0
   37.8200   27.6240   35.5900 C   0  0  0  0  0  0  0  0  0  0  0  0
   37.2650   27.8490   34.3510 C   0  0  0  0  0  0  0  0  0  0  0  0
   35.8440   28.8520   34.1930 Cl  0  0  0  0  0  0  0  0  0  0  0  0
   37.8280   27.2880   33.2450 C   0  0  0  0  0  0  0  0  0  0  0  0
   39.3070   26.7080   36.6890 H   0  0  0  0  0  0  0  0  0  0  0  0
   37.3480   28.0860   36.4550 H   0  0  0  0  0  0  0  0  0  0  0  0
   41.9670   26.0550   34.7650 C   0  0  0  0  0  0  0  0  0  0  0  0
   40.7010   25.4490   34.8820 C   0  0  0  0  0  0  0  0  0  0  0  0
   40.6400   24.1170   35.3100 C   0  0  0  0  0  0  0  0  0  0  0  0
   41.8070   23.4800   35.5890 N   0  0  0  0  0  0  0  0  0  0  0  0
   43.0090   24.0900   35.4650 C   0  0  0  0  0  0  0  0  0  0  0  0
   43.0900   25.3840   35.0510 N   0  0  0  0  0  0  0  0  0  0  0  0
   42.0410   27.0830   34.4350 H   0  0  0  0  0  0  0  0  0  0  0  0
   39.6620   23.7000   35.3840 H   0  0  0  0  0  0  0  0  0  0  0  0
   43.8610   23.4720   35.7190 H   0  0  0  0  0  0  0  0  0  0  0  0
   37.3030   27.4770   31.8890 C   0  0  0  0  0  0  0  0  0  0  0  0
   36.3680   26.7260   31.2000 C   0  0  0  0  0  0  0  0  0  0  0  0
   35.9010   25.8560   31.6400 H   0  0  0  0  0  0  0  0  0  0  0  0
   36.2320   27.3110   29.9970 N   0  0  0  0  0  0  0  0  0  0  0  0
   35.5650   26.9110   29.2920 H   0  0  0  0  0  0  0  0  0  0  0  0
   37.0380   28.3960   29.9000 C   0  0  0  0  0  0  0  0  0  0  0  0
   37.1230   29.0450   29.0420 H   0  0  0  0  0  0  0  0  0  0  0  0
   37.6890   28.4790   31.0770 N   0  0  0  0  0  0  0  0  0  0  0  0
  1  2  1  0  0  0  0
  2  3  1  0  0  0  0
  3 12  1  0  0  0  0
  3  4  2  0  0  0  0
  4  9  1  0  0  0  0
  5  4  1  0  0  0  0
  5 10  1  0  0  0  0
  6  5  2  0  0  0  0
  7  6  1  0  0  0  0
  8  2  2  0  0  0  0
  8  6  1  0  0  0  0
 11 12  2  0  0  0  0
 11 16  1  0  0  0  0
 12 13  1  0  0  0  0
 13 18  1  0  0  0  0
 13 14  2  0  0  0  0
 15 14  1  0  0  0  0
 15 19  1  0  0  0  0
 16 15  2  0  0  0  0
 17 11  1  0  0  0  0
 20  8  1  0  0  0  0
 21 22  1  0  0  0  0
 21 20  2  0  0  0  0
 23 21  1  0  0  0  0
 24 23  1  0  0  0  0
 25 23  1  0  0  0  0
 25 27  2  0  0  0  0
 26 25  1  0  0  0  0
 27 20  1  0  0  0  0
M  END
>  <minimizedAffinity>
-4.95473623

$$$$

 OpenBabel03272508153D

 27 29  0  0  0  0  0  0  0  0999 V2000
   36.5570   27.9050   34.7590 Cl  0  0  0  0  0  0  0  0  0  0  0  0
   36.3420   28.7890   33.2730 C   0  0  0  0  0  0  0  0  0  0  0  0
   35.6740   29.9740   33.4210 C   0  0  0  0  0  0  0  0  0  0  0  0
   35.4460   30.7680   32.2850 C   0  0  0  0  0  0  0  0  0  0  0  0
   35.8730   30.3810   31.0500 C   0  0  0  0  0  0  0  0  0  0  0  0
   36.5430   29.1860   30.9210 C   0  0  0  0  0  0  0  0  0  0  0  0
   37.1060   28.6590   29.3540 Cl  0  0  0  0  0  0  0  0  0  0  0  0
   36.7660   28.4130   32.0200 C   0  0  0  0  0  0  0  0  0  0  0  0
   34.9280   31.7180   32.3070 H   0  0  0  0  0  0  0  0  0  0  0  0
   35.7100   30.9770   30.1540 H   0  0  0  0  0  0  0  0  0  0  0  0
   33.7650   30.3740   34.9400 C   0  0  0  0  0  0  0  0  0  0  0  0
   35.1260   30.5870   34.6460 C   0  0  0  0  0  0  0  0  0  0  0  0
   35.8810   31.3680   35.5300 C   0  0  0  0  0  0  0  0  0  0  0  0
   35.2590   31.8790   36.6250 N   0  0  0  0  0  0  0  0  0  0  0  0
   33.9490   31.6550   36.8790 C   0  0  0  0  0  0  0  0  0  0  0  0
   33.1980   30.9000   36.0330 N   0  0  0  0  0  0  0  0  0  0  0  0
   33.1610   29.7740   34.2720 H   0  0  0  0  0  0  0  0  0  0  0  0
   36.9060   31.5030   35.2680 H   0  0  0  0  0  0  0  0  0  0  0  0
   33.5760   32.1190   37.7840 H   0  0  0  0  0  0  0  0  0  0  0  0
   37.4710   27.1280   31.9710 C   0  0  0  0  0  0  0  0  0  0  0  0
   38.8250   26.8670   32.0700 C   0  0  0  0  0  0  0  0  0  0  0  0
   39.5480   27.6590   32.2040 H   0  0  0  0  0  0  0  0  0  0  0  0
   38.9580   25.5330   31.9650 N   0  0  0  0  0  0  0  0  0  0  0  0
   39.9100   25.0950   32.0120 H   0  0  0  0  0  0  0  0  0  0  0  0
   37.7470   24.9440   31.8050 C   0  0  0  0  0  0  0  0  0  0  0  0
   37.5700   23.8850   31.6960 H   0  0  0  0  0  0  0  0  0  0  0  0
   36.8460   25.9460   31.8110 N   0  0  0  0  0  0  0  0  0  0  0  0
  2  3  1  0  0  0  0
  2  1  1  0  0  0  0
  3 12  1  0  0  0  0
  4  9  1  0  0  0  0
  4  3  2  0  0  0  0
  5  4  1  0  0  0  0
  6  5  2  0  0  0  0
  6  8  1  0  0  0  0
  7  6  1  0  0  0  0
  8  2  2  0  0  0  0
 10  5  1  0  0  0  0
 11 16  1  0  0  0  0
 12 11  2  0  0  0  0
 12 13  1  0  0  0  0
 13 14  2  0  0  0  0
 14 15  1  0  0  0  0
 15 19  1  0  0  0  0
 16 15  2  0  0  0  0
 17 11  1  0  0  0  0
 18 13  1  0  0  0  0
 20  8  1  0  0  0  0
 20 21  2  0  0  0  0
 21 22  1  0  0  0  0
 23 24  1  0  0  0  0
 23 21  1  0  0  0  0
 25 27  2  0  0  0  0
 25 23  1  0  0  0  0
 26 25  1  0  0  0  0
 27 20  1  0  0  0  0
M  END
>  <minimizedAffinity>
-4.67551994

$$$$

 OpenBabel03272508153D

 27 29  0  0  0  0  0  0  0  0999 V2000
   36.1420   28.4880   34.7550 Cl  0  0  0  0  0  0  0  0  0  0  0  0
   35.8460   29.6520   33.4920 C   0  0  0  0  0  0  0  0  0  0  0  0
   36.1630   29.2050   32.2380 C   0  0  0  0  0  0  0  0  0  0  0  0
   35.9640   30.0640   31.1440 C   0  0  0  0  0  0  0  0  0  0  0  0
   35.4660   31.3210   31.3100 C   0  0  0  0  0  0  0  0  0  0  0  0
   35.1530   31.7530   32.5780 C   0  0  0  0  0  0  0  0  0  0  0  0
   34.5120   33.3580   32.8280 Cl  0  0  0  0  0  0  0  0  0  0  0  0
   35.3450   30.9240   33.6420 C   0  0  0  0  0  0  0  0  0  0  0  0
   36.1850   29.7970   30.1190 H   0  0  0  0  0  0  0  0  0  0  0  0
   35.3010   32.0070   30.4800 H   0  0  0  0  0  0  0  0  0  0  0  0
   35.7990   26.8910   31.4500 C   0  0  0  0  0  0  0  0  0  0  0  0
   36.7090   27.8980   31.8260 C   0  0  0  0  0  0  0  0  0  0  0  0
   38.0780   27.6030   31.7870 C   0  0  0  0  0  0  0  0  0  0  0  0
   38.4540   26.3600   31.3900 N   0  0  0  0  0  0  0  0  0  0  0  0
   37.5540   25.4130   31.0360 C   0  0  0  0  0  0  0  0  0  0  0  0
   36.2200   25.6790   31.0660 N   0  0  0  0  0  0  0  0  0  0  0  0
   34.7360   27.0940   31.4720 H   0  0  0  0  0  0  0  0  0  0  0  0
   38.7290   28.3940   32.0800 H   0  0  0  0  0  0  0  0  0  0  0  0
   37.9840   24.4650   30.7390 H   0  0  0  0  0  0  0  0  0  0  0  0
   35.0390   31.3030   35.0250 C   0  0  0  0  0  0  0  0  0  0  0  0
   35.8760   31.8180   35.9970 C   0  0  0  0  0  0  0  0  0  0  0  0
   36.9230   32.0030   35.8060 H   0  0  0  0  0  0  0  0  0  0  0  0
   35.1140   31.9940   37.0920 N   0  0  0  0  0  0  0  0  0  0  0  0
   35.5380   32.3820   37.9700 H   0  0  0  0  0  0  0  0  0  0  0  0
   33.8350   31.6140   36.8490 C   0  0  0  0  0  0  0  0  0  0  0  0
   33.0210   31.6520   37.5560 H   0  0  0  0  0  0  0  0  0  0  0  0
   33.8120   31.1910   35.5700 N   0  0  0  0  0  0  0  0  0  0  0  0
  2  8  1  0  0  0  0
  2  1  1  0  0  0  0
  3  2  2  0  0  0  0
  4  5  2  0  0  0  0
  4  3  1  0  0  0  0
  5  6  1  0  0  0  0
  6  7  1  0  0  0  0
  6  8  2  0  0  0  0
  8 20  1  0  0  0  0
  9  4  1  0  0  0  0
 10  5  1  0  0  0  0
 11 17  1  0  0  0  0
 11 12  1  0  0  0  0
 12  3  1  0  0  0  0
 13 12  2  0  0  0  0
 13 18  1  0  0  0  0
 14 13  1  0  0  0  0
 15 16  1  0  0  0  0
 15 14  2  0  0  0  0
 16 11  2  0  0  0  0
 19 15  1  0  0  0  0
 20 27  1  0  0  0  0
 20 21  2  0  0  0  0
 21 23  1  0  0  0  0
 22 21  1  0  0  0  0
 23 24  1  0  0  0  0
 25 23  1  0  0  0  0
 25 26  1  0  0  0  0
 27 25  2  0  0  0  0
M  END
>  <minimizedAffinity>
-4.63732052

$$$$

 OpenBabel03272508153D

 27 29  0  0  0  0  0  0  0  0999 V2000
   38.2310   27.1620   33.3310 Cl  0  0  0  0  0  0  0  0  0  0  0  0
   37.1940   26.0180   32.5220 C   0  0  0  0  0  0  0  0  0  0  0  0
   36.2390   26.5970   31.7300 C   0  0  0  0  0  0  0  0  0  0  0  0
   35.3480   25.7660   31.0300 C   0  0  0  0  0  0  0  0  0  0  0  0
   35.4170   24.4090   31.1270 C   0  0  0  0  0  0  0  0  0  0  0  0
   36.3820   23.8460   31.9290 C   0  0  0  0  0  0  0  0  0  0  0  0
   36.5010   22.1100   32.0760 Cl  0  0  0  0  0  0  0  0  0  0  0  0
   37.2490   24.6470   32.6090 C   0  0  0  0  0  0  0  0  0  0  0  0
   34.5630   26.1340   30.3810 H   0  0  0  0  0  0  0  0  0  0  0  0
   34.7390   23.7430   30.5950 H   0  0  0  0  0  0  0  0  0  0  0  0
   35.0630   28.6910   32.3130 C   0  0  0  0  0  0  0  0  0  0  0  0
   35.9810   28.0270   31.4770 C   0  0  0  0  0  0  0  0  0  0  0  0
   36.5950   28.7600   30.4520 C   0  0  0  0  0  0  0  0  0  0  0  0
   36.2710   30.0720   30.3210 N   0  0  0  0  0  0  0  0  0  0  0  0
   35.3840   30.6810   31.1420 C   0  0  0  0  0  0  0  0  0  0  0  0
   34.7760   29.9880   32.1430 N   0  0  0  0  0  0  0  0  0  0  0  0
   34.5750   28.1470   33.1110 H   0  0  0  0  0  0  0  0  0  0  0  0
   37.2810   28.2170   29.8440 H   0  0  0  0  0  0  0  0  0  0  0  0
   35.2140   31.7300   30.9310 H   0  0  0  0  0  0  0  0  0  0  0  0
   38.3070   24.1310   33.4830 C   0  0  0  0  0  0  0  0  0  0  0  0
   39.6050   23.7720   33.1700 C   0  0  0  0  0  0  0  0  0  0  0  0
   39.9880   23.8470   32.1620 H   0  0  0  0  0  0  0  0  0  0  0  0
   40.1670   23.3600   34.3200 N   0  0  0  0  0  0  0  0  0  0  0  0
   41.1650   23.0350   34.3290 H   0  0  0  0  0  0  0  0  0  0  0  0
   39.2810   23.4460   35.3430 C   0  0  0  0  0  0  0  0  0  0  0  0
   39.4740   23.1790   36.3690 H   0  0  0  0  0  0  0  0  0  0  0  0
   38.1410   23.9220   34.8030 N   0  0  0  0  0  0  0  0  0  0  0  0
  2  8  1  0  0  0  0
  2  1  1  0  0  0  0
  3  2  2  0  0  0  0
  4  5  2  0  0  0  0
  4  3  1  0  0  0  0
  5  6  1  0  0  0  0
  6  7  1  0  0  0  0
  6  8  2  0  0  0  0
  8 20  1  0  0  0  0
  9  4  1  0  0  0  0
 10  5  1  0  0  0  0
 11 17  1  0  0  0  0
 12  3  1  0  0  0  0
 12 11  2  0  0  0  0
 13 12  1  0  0  0  0
 14 13  2  0  0  0  0
 14 15  1  0  0  0  0
 15 16  2  0  0  0  0
 16 11  1  0  0  0  0
 18 13  1  0  0  0  0
 19 15  1  0  0  0  0
 20 27  1  0  0  0  0
 21 20  2  0  0  0  0
 21 23  1  0  0  0  0
 22 21  1  0  0  0  0
 23 24  1  0  0  0  0
 23 25  1  0  0  0  0
 25 26  1  0  0  0  0
 27 25  2  0  0  0  0
M  END
>  <minimizedAffinity>
-4.55978107

$$$$

 OpenBabel03272508153D

 27 29  0  0  0  0  0  0  0  0999 V2000
   38.9900   25.3510   34.1210 Cl  0  0  0  0  0  0  0  0  0  0  0  0
   38.0650   23.9580   33.6310 C   0  0  0  0  0  0  0  0  0  0  0  0
   38.2350   22.8650   34.4360 C   0  0  0  0  0  0  0  0  0  0  0  0
   37.5350   21.6850   34.1330 C   0  0  0  0  0  0  0  0  0  0  0  0
   36.6980   21.6120   33.0600 C   0  0  0  0  0  0  0  0  0  0  0  0
   36.5400   22.7210   32.2600 C   0  0  0  0  0  0  0  0  0  0  0  0
   35.4760   22.6630   30.8770 Cl  0  0  0  0  0  0  0  0  0  0  0  0
   37.2170   23.8670   32.5510 C   0  0  0  0  0  0  0  0  0  0  0  0
   37.6070   20.7740   34.7120 H   0  0  0  0  0  0  0  0  0  0  0  0
   36.1440   20.7110   32.8020 H   0  0  0  0  0  0  0  0  0  0  0  0
   40.3640   22.1640   35.4780 C   0  0  0  0  0  0  0  0  0  0  0  0
   39.0780   22.7160   35.6370 C   0  0  0  0  0  0  0  0  0  0  0  0
   38.6730   23.0900   36.9250 C   0  0  0  0  0  0  0  0  0  0  0  0
   39.5430   22.9010   37.9510 N   0  0  0  0  0  0  0  0  0  0  0  0
   40.7720   22.3670   37.7640 C   0  0  0  0  0  0  0  0  0  0  0  0
   41.1850   21.9960   36.5220 N   0  0  0  0  0  0  0  0  0  0  0  0
   40.7010   21.8660   34.4930 H   0  0  0  0  0  0  0  0  0  0  0  0
   37.6930   23.5030   36.9990 H   0  0  0  0  0  0  0  0  0  0  0  0
   41.3670   22.2690   38.6640 H   0  0  0  0  0  0  0  0  0  0  0  0
   37.1060   25.0920   31.7540 C   0  0  0  0  0  0  0  0  0  0  0  0
   37.8980   25.5320   30.7090 C   0  0  0  0  0  0  0  0  0  0  0  0
   38.7440   24.9590   30.3570 H   0  0  0  0  0  0  0  0  0  0  0  0
   37.3820   26.7100   30.3190 N   0  0  0  0  0  0  0  0  0  0  0  0
   37.8230   27.2400   29.5270 H   0  0  0  0  0  0  0  0  0  0  0  0
   36.3000   27.0300   31.0700 C   0  0  0  0  0  0  0  0  0  0  0  0
   35.7000   27.9210   30.9660 H   0  0  0  0  0  0  0  0  0  0  0  0
   36.1490   26.0190   31.9490 N   0  0  0  0  0  0  0  0  0  0  0  0
  2  1  1  0  0  0  0
  2  3  1  0  0  0  0
  3 12  1  0  0  0  0
  4  3  2  0  0  0  0
  4  9  1  0  0  0  0
  5  4  1  0  0  0  0
  6  8  1  0  0  0  0
  6  5  2  0  0  0  0
  7  6  1  0  0  0  0
  8  2  2  0  0  0  0
 10  5  1  0  0  0  0
 11 12  2  0  0  0  0
 11 16  1  0  0  0  0
 12 13  1  0  0  0  0
 13 18  1  0  0  0  0
 13 14  2  0  0  0  0
 15 14  1  0  0  0  0
 15 19  1  0  0  0  0
 16 15  2  0  0  0  0
 17 11  1  0  0  0  0
 20 27  1  0  0  0  0
 20  8  1  0  0  0  0
 21 20  2  0  0  0  0
 22 21  1  0  0  0  0
 23 21  1  0  0  0  0
 23 25  1  0  0  0  0
 24 23  1  0  0  0  0
 25 27  2  0  0  0  0
 26 25  1  0  0  0  0
M  END
>  <minimizedAffinity>
-4.50082827

$$$$

 OpenBabel03272508153D

 27 29  0  0  0  0  0  0  0  0999 V2000
   38.9620   26.4000   34.8700 Cl  0  0  0  0  0  0  0  0  0  0  0  0
   38.1520   25.1860   33.9190 C   0  0  0  0  0  0  0  0  0  0  0  0
   38.4030   23.9030   34.3240 C   0  0  0  0  0  0  0  0  0  0  0  0
   37.7980   22.8440   33.6260 C   0  0  0  0  0  0  0  0  0  0  0  0
   36.9760   23.0710   32.5640 C   0  0  0  0  0  0  0  0  0  0  0  0
   36.7350   24.3670   32.1720 C   0  0  0  0  0  0  0  0  0  0  0  0
   35.6860   24.6950   30.8150 Cl  0  0  0  0  0  0  0  0  0  0  0  0
   37.3190   25.3970   32.8450 C   0  0  0  0  0  0  0  0  0  0  0  0
   37.9390   21.8000   33.8740 H   0  0  0  0  0  0  0  0  0  0  0  0
   36.4950   22.2690   32.0060 H   0  0  0  0  0  0  0  0  0  0  0  0
   38.6720   23.3360   36.7150 C   0  0  0  0  0  0  0  0  0  0  0  0
   39.2490   23.4260   35.4330 C   0  0  0  0  0  0  0  0  0  0  0  0
   40.5930   23.0590   35.2850 C   0  0  0  0  0  0  0  0  0  0  0  0
   41.2670   22.6350   36.3860 N   0  0  0  0  0  0  0  0  0  0  0  0
   40.6820   22.5610   37.6040 C   0  0  0  0  0  0  0  0  0  0  0  0
   39.3780   22.9130   37.7700 N   0  0  0  0  0  0  0  0  0  0  0  0
   37.6350   23.6140   36.8550 H   0  0  0  0  0  0  0  0  0  0  0  0
   40.9890   23.1430   34.2990 H   0  0  0  0  0  0  0  0  0  0  0  0
   41.3290   22.2080   38.3980 H   0  0  0  0  0  0  0  0  0  0  0  0
   37.1170   26.8070   32.4950 C   0  0  0  0  0  0  0  0  0  0  0  0
   37.7750   27.5780   31.5540 C   0  0  0  0  0  0  0  0  0  0  0  0
   38.5670   27.1740   30.9410 H   0  0  0  0  0  0  0  0  0  0  0  0
   37.2200   28.8020   31.6200 N   0  0  0  0  0  0  0  0  0  0  0  0
   37.5620   29.5670   30.9890 H   0  0  0  0  0  0  0  0  0  0  0  0
   36.2420   28.8330   32.5590 C   0  0  0  0  0  0  0  0  0  0  0  0
   35.6390   29.6900   32.8140 H   0  0  0  0  0  0  0  0  0  0  0  0
   36.1970   27.5930   33.0850 N   0  0  0  0  0  0  0  0  0  0  0  0
  2  3  1  0  0  0  0
  2  1  1  0  0  0  0
  3 12  1  0  0  0  0
  4  9  1  0  0  0  0
  4  3  2  0  0  0  0
  5  4  1  0  0  0  0
  6  5  2  0  0  0  0
  6  8  1  0  0  0  0
  7  6  1  0  0  0  0
  8  2  2  0  0  0  0
 10  5  1  0  0  0  0
 11 17  1  0  0  0  0
 11 16  1  0  0  0  0
 12 11  2  0  0  0  0
 13 12  1  0  0  0  0
 13 14  2  0  0  0  0
 14 15  1  0  0  0  0
 15 16  2  0  0  0  0
 15 19  1  0  0  0  0
 18 13  1  0  0  0  0
 20  8  1  0  0  0  0
 20 27  1  0  0  0  0
 21 23  1  0  0  0  0
 21 20  2  0  0  0  0
 22 21  1  0  0  0  0
 23 25  1  0  0  0  0
 24 23  1  0  0  0  0
 25 26  1  0  0  0  0
 25 27  2  0  0  0  0
M  END
>  <minimizedAffinity>
-4.49199724

$$$$

 OpenBabel03272508153D

 27 29  0  0  0  0  0  0  0  0999 V2000
   35.8630   30.4620   31.7570 Cl  0  0  0  0  0  0  0  0  0  0  0  0
   36.5090   29.0630   32.5700 C   0  0  0  0  0  0  0  0  0  0  0  0
   36.1430   28.9640   33.8850 C   0  0  0  0  0  0  0  0  0  0  0  0
   36.6090   27.8720   34.6370 C   0  0  0  0  0  0  0  0  0  0  0  0
   37.4110   26.9200   34.0840 C   0  0  0  0  0  0  0  0  0  0  0  0
   37.7700   27.0360   32.7600 C   0  0  0  0  0  0  0  0  0  0  0  0
   38.7970   25.8340   32.0190 Cl  0  0  0  0  0  0  0  0  0  0  0  0
   37.3200   28.0930   32.0280 C   0  0  0  0  0  0  0  0  0  0  0  0
   36.3710   27.7120   35.6800 H   0  0  0  0  0  0  0  0  0  0  0  0
   37.7860   26.0640   34.6430 H   0  0  0  0  0  0  0  0  0  0  0  0
   35.9250   30.8500   35.4680 C   0  0  0  0  0  0  0  0  0  0  0  0
   35.2920   29.8660   34.6840 C   0  0  0  0  0  0  0  0  0  0  0  0
   33.8930   29.7970   34.7090 C   0  0  0  0  0  0  0  0  0  0  0  0
   33.2220   30.6850   35.4880 N   0  0  0  0  0  0  0  0  0  0  0  0
   33.8600   31.6190   36.2300 C   0  0  0  0  0  0  0  0  0  0  0  0
   35.2180   31.7020   36.2210 N   0  0  0  0  0  0  0  0  0  0  0  0
   37.0050   30.9230   35.4670 H   0  0  0  0  0  0  0  0  0  0  0  0
   33.4570   29.0380   34.1010 H   0  0  0  0  0  0  0  0  0  0  0  0
   33.2090   32.2650   36.8070 H   0  0  0  0  0  0  0  0  0  0  0  0
   37.6530   28.2930   30.6140 C   0  0  0  0  0  0  0  0  0  0  0  0
   36.8820   28.0550   29.4910 C   0  0  0  0  0  0  0  0  0  0  0  0
   35.8770   27.6650   29.5630 H   0  0  0  0  0  0  0  0  0  0  0  0
   37.6420   28.3990   28.4360 N   0  0  0  0  0  0  0  0  0  0  0  0
   37.2630   28.3030   27.4620 H   0  0  0  0  0  0  0  0  0  0  0  0
   38.8560   28.8440   28.8460 C   0  0  0  0  0  0  0  0  0  0  0  0
   39.6540   29.1830   28.2050 H   0  0  0  0  0  0  0  0  0  0  0  0
   38.8400   28.7700   30.1920 N   0  0  0  0  0  0  0  0  0  0  0  0
  1  2  1  0  0  0  0
  2  3  1  0  0  0  0
  3  4  2  0  0  0  0
  3 12  1  0  0  0  0
  4  9  1  0  0  0  0
  5  4  1  0  0  0  0
  5 10  1  0  0  0  0
  6  5  2  0  0  0  0
  7  6  1  0  0  0  0
  8  2  2  0  0  0  0
  8  6  1  0  0  0  0
 11 16  1  0  0  0  0
 12 13  1  0  0  0  0
 12 11  2  0  0  0  0
 13 14  2  0  0  0  0
 14 15  1  0  0  0  0
 15 19  1  0  0  0  0
 16 15  2  0  0  0  0
 17 11  1  0  0  0  0
 18 13  1  0  0  0  0
 20  8  1  0  0  0  0
 21 22  1  0  0  0  0
 21 20  2  0  0  0  0
 23 25  1  0  0  0  0
 23 21  1  0  0  0  0
 24 23  1  0  0  0  0
 25 27  2  0  0  0  0
 26 25  1  0  0  0  0
 27 20  1  0  0  0  0
M  END
>  <minimizedAffinity>
-4.4257431

$$$$

 OpenBabel03272508153D

 27 29  0  0  0  0  0  0  0  0999 V2000
   38.5000   25.7940   34.1210 Cl  0  0  0  0  0  0  0  0  0  0  0  0
   37.7540   24.6030   33.0910 C   0  0  0  0  0  0  0  0  0  0  0  0
   37.1740   25.1240   31.9670 C   0  0  0  0  0  0  0  0  0  0  0  0
   36.5430   24.2500   31.0650 C   0  0  0  0  0  0  0  0  0  0  0  0
   36.4980   22.9070   31.2900 C   0  0  0  0  0  0  0  0  0  0  0  0
   37.0860   22.4020   32.4270 C   0  0  0  0  0  0  0  0  0  0  0  0
   37.0490   20.6860   32.7470 Cl  0  0  0  0  0  0  0  0  0  0  0  0
   37.7000   23.2450   33.3030 C   0  0  0  0  0  0  0  0  0  0  0  0
   36.0590   24.5720   30.1520 H   0  0  0  0  0  0  0  0  0  0  0  0
   36.0160   22.2090   30.6080 H   0  0  0  0  0  0  0  0  0  0  0  0
   35.9410   27.2620   31.8380 C   0  0  0  0  0  0  0  0  0  0  0  0
   37.1010   26.5280   31.5220 C   0  0  0  0  0  0  0  0  0  0  0  0
   38.1170   27.1720   30.8040 C   0  0  0  0  0  0  0  0  0  0  0  0
   37.9280   28.4700   30.4510 N   0  0  0  0  0  0  0  0  0  0  0  0
   36.8010   29.1470   30.7700 C   0  0  0  0  0  0  0  0  0  0  0  0
   35.8020   28.5410   31.4670 N   0  0  0  0  0  0  0  0  0  0  0  0
   35.1410   26.7870   32.3920 H   0  0  0  0  0  0  0  0  0  0  0  0
   38.9760   26.5790   30.5870 H   0  0  0  0  0  0  0  0  0  0  0  0
   36.7760   30.1750   30.4300 H   0  0  0  0  0  0  0  0  0  0  0  0
   38.3500   22.7910   34.5370 C   0  0  0  0  0  0  0  0  0  0  0  0
   37.7980   22.5530   35.7820 C   0  0  0  0  0  0  0  0  0  0  0  0
   36.7440   22.6940   35.9720 H   0  0  0  0  0  0  0  0  0  0  0  0
   38.8120   22.1550   36.5710 N   0  0  0  0  0  0  0  0  0  0  0  0
   38.6310   21.9140   37.5760 H   0  0  0  0  0  0  0  0  0  0  0  0
   39.9760   22.1300   35.8760 C   0  0  0  0  0  0  0  0  0  0  0  0
   40.9400   21.8480   36.2700 H   0  0  0  0  0  0  0  0  0  0  0  0
   39.6680   22.5260   34.6250 N   0  0  0  0  0  0  0  0  0  0  0  0
  2  8  1  0  0  0  0
  2  1  1  0  0  0  0
  3  2  2  0  0  0  0
  4  5  2  0  0  0  0
  4  3  1  0  0  0  0
  5  6  1  0  0  0  0
  6  7  1  0  0  0  0
  6  8  2  0  0  0  0
  8 20  1  0  0  0  0
  9  4  1  0  0  0  0
 10  5  1  0  0  0  0
 11 17  1  0  0  0  0
 12 11  1  0  0  0  0
 12  3  1  0  0  0  0
 13 12  2  0  0  0  0
 14 15  2  0  0  0  0
 14 13  1  0  0  0  0
 15 16  1  0  0  0  0
 16 11  2  0  0  0  0
 18 13  1  0  0  0  0
 19 15  1  0  0  0  0
 20 27  1  0  0  0  0
 20 21  2  0  0  0  0
 21 22  1  0  0  0  0
 21 23  1  0  0  0  0
 23 24  1  0  0  0  0
 25 26  1  0  0  0  0
 25 23  1  0  0  0  0
 27 25  2  0  0  0  0
M  END
>  <minimizedAffinity>
-4.42343807

$$$$
