
 OpenBabel03262521373D

 27 29  0  0  0  0  0  0  0  0999 V2000
   37.7910   30.5440   47.2670 F   0  0  0  0  0  0  0  0  0  0  0  0
   38.2920   31.6630   47.8630 C   0  0  0  0  0  0  0  0  0  0  0  0
   39.0940   32.5690   47.1800 C   0  0  0  0  0  0  0  0  0  0  0  0
   39.5770   33.6880   47.8280 C   0  0  0  0  0  0  0  0  0  0  0  0
   39.2700   33.9250   49.1670 C   0  0  0  0  0  0  0  0  0  0  0  0
   38.4650   32.9880   49.8010 C   0  0  0  0  0  0  0  0  0  0  0  0
   37.9730   31.8760   49.1910 C   0  0  0  0  0  0  0  0  0  0  0  0
   40.2020   34.3810   47.2740 H   0  0  0  0  0  0  0  0  0  0  0  0
   39.6430   34.7960   49.6800 H   0  0  0  0  0  0  0  0  0  0  0  0
   38.2440   33.2000   50.8390 H   0  0  0  0  0  0  0  0  0  0  0  0
   40.4780   31.4440   45.5950 C   0  0  0  0  0  0  0  0  0  0  0  0
   39.3670   32.2560   45.8050 C   0  0  0  0  0  0  0  0  0  0  0  0
   38.6530   32.6690   44.6770 C   0  0  0  0  0  0  0  0  0  0  0  0
   39.0610   32.2720   43.4440 N   0  0  0  0  0  0  0  0  0  0  0  0
   40.1440   31.4850   43.2840 C   0  0  0  0  0  0  0  0  0  0  0  0
   40.8370   31.0800   44.3450 N   0  0  0  0  0  0  0  0  0  0  0  0
   41.1390   31.0370   46.3510 H   0  0  0  0  0  0  0  0  0  0  0  0
   37.8000   33.2960   44.8910 H   0  0  0  0  0  0  0  0  0  0  0  0
   40.3160   31.2720   42.2370 H   0  0  0  0  0  0  0  0  0  0  0  0
   37.1280   30.9100   49.8860 C   0  0  0  0  0  0  0  0  0  0  0  0
   37.4440   30.2230   51.0390 C   0  0  0  0  0  0  0  0  0  0  0  0
   38.3470   30.2650   51.6310 H   0  0  0  0  0  0  0  0  0  0  0  0
   36.3840   29.4220   51.3530 N   0  0  0  0  0  0  0  0  0  0  0  0
   36.2810   28.7610   52.1720 H   0  0  0  0  0  0  0  0  0  0  0  0
   35.4290   29.6050   50.4220 C   0  0  0  0  0  0  0  0  0  0  0  0
   34.4550   29.1260   50.3690 H   0  0  0  0  0  0  0  0  0  0  0  0
   35.8830   30.5080   49.5340 N   0  0  0  0  0  0  0  0  0  0  0  0
  1  2  1  0  0  0  0
  2  7  1  0  0  0  0
  3  4  1  0  0  0  0
  3  2  2  0  0  0  0
  4  5  2  0  0  0  0
  5  9  1  0  0  0  0
  5  6  1  0  0  0  0
  6 10  1  0  0  0  0
  7  6  2  0  0  0  0
  7 20  1  0  0  0  0
  8  4  1  0  0  0  0
 11 12  1  0  0  0  0
 11 17  1  0  0  0  0
 12  3  1  0  0  0  0
 13 18  1  0  0  0  0
 13 12  2  0  0  0  0
 14 13  1  0  0  0  0
 15 14  2  0  0  0  0
 15 16  1  0  0  0  0
 16 11  2  0  0  0  0
 19 15  1  0  0  0  0
 20 21  2  0  0  0  0
 21 23  1  0  0  0  0
 21 22  1  0  0  0  0
 23 24  1  0  0  0  0
 25 23  1  0  0  0  0
 26 25  1  0  0  0  0
 27 20  1  0  0  0  0
 27 25  2  0  0  0  0
M  END
>  <minimizedAffinity>
-6.26788759

>  <minimizedRMSD>
5.25248671

$$$$
