
 OpenBabel03272500483D

 38 42  0  0  1  0  0  0  0  0999 V2000
   34.0300   29.1060   49.0750 C   0  0  1  0  0  0  0  0  0  0  0  0
   35.2300   28.5110   49.8860 C   0  0  0  0  0  0  0  0  0  0  0  0
   35.3200   28.8010   48.4320 C   0  0  2  0  0  0  0  0  0  0  0  0
   33.7730   30.1490   49.3000 H   0  0  0  0  0  0  0  0  0  0  0  0
   35.0770   27.4640   50.2400 H   0  0  0  0  0  0  0  0  0  0  0  0
   35.7070   29.2080   50.5980 H   0  0  0  0  0  0  0  0  0  0  0  0
   35.3280   27.9460   47.7590 H   0  0  0  0  0  0  0  0  0  0  0  0
   30.8530   27.4080   49.0270 C   0  0  0  0  0  0  0  0  0  0  0  0
   31.5890   26.5860   48.1740 C   0  0  0  0  0  0  0  0  0  0  0  0
   32.8870   27.1180   48.0780 C   0  0  0  0  0  0  0  0  0  0  0  0
   32.8990   28.2180   48.8560 N   0  0  0  0  0  0  0  0  0  0  0  0
   31.7070   28.3530   49.3880 N   0  0  0  0  0  0  0  0  0  0  0  0
   31.2970   25.6770   47.6340 H   0  0  0  0  0  0  0  0  0  0  0  0
   33.6960   26.7050   47.4890 H   0  0  0  0  0  0  0  0  0  0  0  0
   29.0160   27.0750   50.6940 C   0  0  0  0  0  0  0  0  0  0  0  0
   29.4770   27.1660   49.3590 C   0  0  0  0  0  0  0  0  0  0  0  0
   28.5380   27.0130   48.3460 C   0  0  0  0  0  0  0  0  0  0  0  0
   27.2370   26.7840   48.6900 N   0  0  0  0  0  0  0  0  0  0  0  0
   26.8460   26.7040   49.9840 C   0  0  0  0  0  0  0  0  0  0  0  0
   27.7470   26.8520   51.0050 N   0  0  0  0  0  0  0  0  0  0  0  0
   29.7440   27.1940   51.4800 H   0  0  0  0  0  0  0  0  0  0  0  0
   28.7750   27.0630   47.2920 H   0  0  0  0  0  0  0  0  0  0  0  0
   25.7860   26.5190   50.1360 H   0  0  0  0  0  0  0  0  0  0  0  0
   36.1840   29.9380   47.9750 C   0  0  0  0  0  0  0  0  0  0  0  0
   36.3280   30.3220   46.6300 C   0  0  0  0  0  0  0  0  0  0  0  0
   37.1820   31.3800   46.5910 N   0  0  0  0  0  0  0  0  0  0  0  0
   37.5580   31.6480   47.8570 C   0  0  0  0  0  0  0  0  0  0  0  0
   36.9600   30.7830   48.6900 N   0  0  0  0  0  0  0  0  0  0  0  0
   35.8620   29.8840   45.7480 H   0  0  0  0  0  0  0  0  0  0  0  0
   37.4580   31.8530   45.7220 H   0  0  0  0  0  0  0  0  0  0  0  0
   38.4770   32.7270   48.1990 C   0  0  0  0  0  0  0  0  0  0  0  0
   39.4150   33.3580   47.4090 C   0  0  0  0  0  0  0  0  0  0  0  0
   39.6010   33.1170   46.3610 H   0  0  0  0  0  0  0  0  0  0  0  0
   40.0490   34.2990   48.1230 N   0  0  0  0  0  0  0  0  0  0  0  0
   40.8090   34.9390   47.7920 H   0  0  0  0  0  0  0  0  0  0  0  0
   39.5110   34.2650   49.3750 C   0  0  0  0  0  0  0  0  0  0  0  0
   39.8750   34.9550   50.1480 H   0  0  0  0  0  0  0  0  0  0  0  0
   38.5600   33.3090   49.4090 N   0  0  0  0  0  0  0  0  0  0  0  0
  1  4  1  1  0  0  0
  1  2  1  0  0  0  0
  2  5  1  0  0  0  0
  2  6  1  0  0  0  0
  3  7  1  6  0  0  0
  3  1  1  0  0  0  0
  3  2  1  0  0  0  0
  8 16  1  0  0  0  0
  8 12  2  0  0  0  0
  9  8  1  0  0  0  0
 10  9  2  0  0  0  0
 10 11  1  0  0  0  0
 11  1  1  0  0  0  0
 11 12  1  0  0  0  0
 13  9  1  0  0  0  0
 14 10  1  0  0  0  0
 15 20  1  0  0  0  0
 15 21  1  0  0  0  0
 16 15  2  0  0  0  0
 17 18  2  0  0  0  0
 17 16  1  0  0  0  0
 18 19  1  0  0  0  0
 19 23  1  0  0  0  0
 19 20  2  0  0  0  0
 22 17  1  0  0  0  0
 24  3  1  0  0  0  0
 24 28  1  0  0  0  0
 25 24  2  0  0  0  0
 26 25  1  0  0  0  0
 26 27  1  0  0  0  0
 27 31  1  0  0  0  0
 27 28  2  0  0  0  0
 29 25  1  0  0  0  0
 30 26  1  0  0  0  0
 31 38  1  0  0  0  0
 32 34  1  0  0  0  0
 32 31  2  0  0  0  0
 33 32  1  0  0  0  0
 34 36  1  0  0  0  0
 35 34  1  0  0  0  0
 36 38  2  0  0  0  0
 36 37  1  0  0  0  0
M  END
>  <minimizedAffinity>
-5.64169407

>  <minimizedRMSD>
3.52313209

$$$$
