REMARK  Name = 
REMARK  2 active torsions:
REMARK  status: ('A' for Active; 'I' for Inactive)
REMARK    1  A    between atoms: C_5  and  C_7
REMARK    2  A    between atoms: C_12  and  C_20
REMARK                            x       y       z     vdW  Elec       q    Type
REMARK                         _______ _______ _______ _____ _____    ______ ____
ROOT
ATOM      1  C   UNL     1      36.095  30.138  48.604  0.00  0.00    +0.000 A 
ATOM      2  C   UNL     1      35.288  29.949  47.516  0.00  0.00    +0.000 A 
ATOM      3  C   UNL     1      34.304  28.978  47.499  0.00  0.00    +0.000 A 
ATOM      4  C   UNL     1      34.157  28.193  48.632  0.00  0.00    +0.000 A 
ATOM      5  C   UNL     1      34.953  28.358  49.745  0.00  0.00    +0.000 A 
ATOM      6  C   UNL     1      35.926  29.338  49.722  0.00  0.00    +0.000 A 
ATOM      7  H   UNL     1      35.377  30.548  46.610  0.00  0.00    +0.000 HD
ATOM      8  H   UNL     1      33.647  28.803  46.650  0.00  0.00    +0.000 HD
ATOM      9  H   UNL     1      33.403  27.403  48.700  0.00  0.00    +0.000 HD
ATOM     10  H   UNL     1      34.822  27.737  50.612  0.00  0.00    +0.000 HD
ENDROOT
BRANCH   1  15
ATOM     11  C   UNL     1      38.020  33.097  49.472  0.00  0.00    +0.000 A 
ATOM     12  C   UNL     1      38.973  33.203  48.463  0.00  0.00    +0.000 A 
ATOM     13  C   UNL     1      38.950  32.225  47.455  0.00  0.00    +0.000 A 
ATOM     14  N   UNL     1      38.010  31.259  47.537  0.00  0.00    +0.000 NA
ATOM     15  C   UNL     1      37.101  31.184  48.527  0.00  0.00    +0.000 A 
ATOM     16  N   UNL     1      37.109  32.114  49.502  0.00  0.00    +0.000 NA
ATOM     17  H   UNL     1      38.099  33.887  50.217  0.00  0.00    +0.000 HD
ATOM     18  H   UNL     1      39.732  33.948  48.360  0.00  0.00    +0.000 HD
ATOM     19  H   UNL     1      39.643  32.203  46.617  0.00  0.00    +0.000 HD
ENDBRANCH   1  15
BRANCH   6  20
ATOM     20  C   UNL     1      36.792  29.553  50.877  0.00  0.00    +0.000 A 
ATOM     21  C   UNL     1      36.259  30.130  52.015  0.00  0.00    +0.000 A 
ATOM     22  H   UNL     1      35.239  30.478  52.223  0.00  0.00    +0.000 HD
ATOM     23  N   UNL     1      37.241  30.225  52.934  0.00  0.00    +0.000 N 
ATOM     24  H   UNL     1      37.186  30.610  53.900  0.00  0.00    +0.000 HD
ATOM     25  C   UNL     1      38.386  29.718  52.398  0.00  0.00    +0.000 A 
ATOM     26  H   UNL     1      39.376  29.632  52.851  0.00  0.00    +0.000 HD
ATOM     27  N   UNL     1      38.109  29.310  51.145  0.00  0.00    +0.000 NA
ENDBRANCH   6  20
TORSDOF 2
