REMARK  Name = 
REMARK  7 active torsions:
REMARK  status: ('A' for Active; 'I' for Inactive)
REMARK    1  A    between atoms: C_1  and  C_7
REMARK    2  A    between atoms: C_5  and  S_15
REMARK    3  A    between atoms: C_7  and  C_10
REMARK    4  A    between atoms: S_15  and  C_16
REMARK    5  A    between atoms: C_16  and  C_19
REMARK    6  A    between atoms: C_17  and  O_22
REMARK    7  A    between atoms: O_22  and  C_38
REMARK                            x       y       z     vdW  Elec       q    Type
REMARK                         _______ _______ _______ _____ _____    ______ ____
ROOT
ATOM      1  C   UNL     1      39.560  32.928  43.793  0.00  0.00    +0.000 C 
ATOM      2  H   UNL     1      38.498  32.953  44.048  0.00  0.00    +0.000 HD
ATOM      3  H   UNL     1      39.820  33.825  43.171  0.00  0.00    +0.000 HD
ENDROOT
BRANCH   1   6
ATOM      4  C   UNL     1      38.777  29.795  42.343  0.00  0.00    +0.000 C 
ATOM      5  C   UNL     1      38.791  31.293  42.081  0.00  0.00    +0.000 C 
ATOM      6  C   UNL     1      39.938  31.722  42.970  0.00  0.00    +0.000 C 
ATOM      7  O   UNL     1      40.308  30.661  43.746  0.00  0.00    +0.000 OA
ATOM      8  C   UNL     1      39.252  29.762  43.787  0.00  0.00    +0.000 C 
ATOM      9  H   UNL     1      39.566  29.296  41.743  0.00  0.00    +0.000 HD
ATOM     10  H   UNL     1      39.057  31.427  41.011  0.00  0.00    +0.000 HD
ATOM     11  H   UNL     1      37.840  31.733  42.380  0.00  0.00    +0.000 HD
ATOM     12  H   UNL     1      40.806  31.978  42.323  0.00  0.00    +0.000 HD
ATOM     13  H   UNL     1      39.568  28.772  44.117  0.00  0.00    +0.000 HD
ATOM     14  H   UNL     1      38.416  30.160  44.391  0.00  0.00    +0.000 HD
BRANCH   4  15
ATOM     15  O   UNL     1      37.509  29.264  42.215  0.00  0.00    +0.000 OA
BRANCH  15  17
ATOM     16  C   UNL     1      37.314  28.314  40.080  0.00  0.00    +0.000 A 
ATOM     17  C   UNL     1      37.115  28.211  41.447  0.00  0.00    +0.000 A 
ATOM     18  C   UNL     1      36.534  27.055  41.932  0.00  0.00    +0.000 A 
ATOM     19  H   UNL     1      36.371  26.954  42.982  0.00  0.00    +0.000 HD
ATOM     20  C   UNL     1      36.131  25.980  41.155  0.00  0.00    +0.000 A 
ATOM     21  N   UNL     1      35.560  24.798  41.441  0.00  0.00    +0.000 N 
ATOM     22  H   UNL     1      35.288  24.431  42.383  0.00  0.00    +0.000 HD
ATOM     23  C   UNL     1      35.391  24.137  40.261  0.00  0.00    +0.000 A 
ATOM     24  H   UNL     1      34.954  23.149  40.138  0.00  0.00    +0.000 HD
ATOM     25  C   UNL     1      35.871  24.939  39.230  0.00  0.00    +0.000 A 
ATOM     26  C   UNL     1      36.343  26.111  39.782  0.00  0.00    +0.000 A 
ATOM     27  C   UNL     1      36.918  27.247  39.271  0.00  0.00    +0.000 A 
ENDBRANCH  15  17
ENDBRANCH   4  15
ENDBRANCH   1   6
BRANCH   1  28
ATOM     28  S   UNL     1      40.669  32.978  45.233  0.00  0.00    +0.000 S 
BRANCH  28  33
ATOM     29  C   UNL     1      37.774  31.748  47.656  0.00  0.00    +0.000 A 
ATOM     30  C   UNL     1      37.928  32.535  48.811  0.00  0.00    +0.000 A 
ATOM     31  C   UNL     1      38.940  33.480  48.883  0.00  0.00    +0.000 A 
ATOM     32  C   UNL     1      39.751  33.592  47.789  0.00  0.00    +0.000 A 
ATOM     33  C   UNL     1      39.578  32.817  46.685  0.00  0.00    +0.000 A 
ATOM     34  N   UNL     1      38.598  31.888  46.592  0.00  0.00    +0.000 NA
ATOM     35  H   UNL     1      37.262  32.413  49.656  0.00  0.00    +0.000 HD
ATOM     36  H   UNL     1      39.116  34.116  49.733  0.00  0.00    +0.000 HD
ATOM     37  H   UNL     1      40.577  34.307  47.745  0.00  0.00    +0.000 HD
BRANCH  29  38
ATOM     38  C   UNL     1      36.702  30.789  47.655  0.00  0.00    +0.000 C 
ATOM     39  O   UNL     1      36.210  30.384  46.604  0.00  0.00    +0.000 OA
BRANCH  38  41
ATOM     40  C   UNL     1      37.020  29.629  49.812  0.00  0.00    +0.000 A 
ATOM     41  C   UNL     1      36.130  30.234  48.893  0.00  0.00    +0.000 A 
ATOM     42  C   UNL     1      34.769  30.279  49.192  0.00  0.00    +0.000 A 
ATOM     43  N   UNL     1      34.337  29.734  50.370  0.00  0.00    +0.000 NA
ATOM     44  C   UNL     1      35.208  29.162  51.231  0.00  0.00    +0.000 A 
ATOM     45  N   UNL     1      36.522  29.111  50.957  0.00  0.00    +0.000 NA
ATOM     46  H   UNL     1      38.080  29.559  49.646  0.00  0.00    +0.000 HD
ATOM     47  H   UNL     1      34.116  30.747  48.472  0.00  0.00    +0.000 HD
ATOM     48  H   UNL     1      34.745  28.764  52.133  0.00  0.00    +0.000 HD
ENDBRANCH  38  41
ENDBRANCH  29  38
ENDBRANCH  28  33
ENDBRANCH   1  28
TORSDOF 7
