
 OpenBabel03262522153D

 48 52  0  0  1  0  0  0  0  0999 V2000
   39.3950   33.0300   43.9200 C   0  0  0  0  0  0  0  0  0  0  0  0
   38.3500   32.8560   44.1870 H   0  0  0  0  0  0  0  0  0  0  0  0
   39.4630   33.8830   43.1960 H   0  0  0  0  0  0  0  0  0  0  0  0
   39.2470   29.7150   42.6860 C   0  0  1  0  0  0  0  0  0  0  0  0
   39.0510   31.1730   42.2990 C   0  0  0  0  0  0  0  0  0  0  0  0
   40.0310   31.8450   43.2360 C   0  0  2  0  0  0  0  0  0  0  0  0
   40.4890   30.9170   44.1260 O   0  0  0  0  0  0  0  0  0  0  0  0
   39.5870   29.8640   44.1610 C   0  0  0  0  0  0  0  0  0  0  0  0
   40.1560   29.3100   42.1950 H   0  0  0  0  0  0  0  0  0  0  0  0
   39.3900   31.2710   41.2460 H   0  0  0  0  0  0  0  0  0  0  0  0
   38.0200   31.4720   42.4830 H   0  0  0  0  0  0  0  0  0  0  0  0
   40.9040   32.1920   42.6400 H   0  0  0  0  0  0  0  0  0  0  0  0
   40.0220   28.9650   44.5980 H   0  0  0  0  0  0  0  0  0  0  0  0
   38.6470   30.1620   44.6600 H   0  0  0  0  0  0  0  0  0  0  0  0
   38.0950   28.9770   42.5040 O   0  0  0  0  0  0  0  0  0  0  0  0
   36.5890   27.2050   42.8030 C   0  0  0  0  0  3  0  0  0  0  0  0
   37.8990   27.6530   42.7560 C   0  0  0  0  0  0  0  0  0  0  0  0
   38.9060   26.7330   42.9690 C   0  0  0  0  0  0  0  0  0  0  0  0
   39.9230   27.0560   42.9370 H   0  0  0  0  0  0  0  0  0  0  0  0
   38.7120   25.3840   43.2270 C   0  0  0  0  0  0  0  0  0  0  0  0
   39.5500   24.3590   43.4540 N   0  0  0  0  0  0  0  0  0  0  0  0
   40.5960   24.3830   43.4830 H   0  0  0  0  0  0  0  0  0  0  0  0
   38.7830   23.2480   43.6470 C   0  0  0  0  0  0  0  0  0  0  0  0
   39.1490   22.2470   43.8550 H   0  0  0  0  0  0  0  0  0  0  0  0
   37.4440   23.6090   43.5350 C   0  0  0  0  0  3  0  0  0  0  0  0
   37.3830   24.9610   43.2680 C   0  0  0  0  0  0  0  0  0  0  0  0
   36.3600   25.8520   43.0610 C   0  0  0  0  0  3  0  0  0  0  0  0
   40.4530   33.4810   45.3280 S   0  0  0  0  0  0  0  0  0  0  0  0
   37.7750   31.8520   47.7650 C   0  0  0  0  0  0  0  0  0  0  0  0
   37.9550   32.5290   48.9840 C   0  0  0  0  0  0  0  0  0  0  0  0
   38.9180   33.5200   49.0970 C   0  0  0  0  0  0  0  0  0  0  0  0
   39.6560   33.7860   47.9790 C   0  0  0  0  0  0  0  0  0  0  0  0
   39.4600   33.1150   46.8130 C   0  0  0  0  0  0  0  0  0  0  0  0
   38.5260   32.1440   46.6780 N   0  0  0  0  0  0  0  0  0  0  0  0
   37.3470   32.2860   49.8470 H   0  0  0  0  0  0  0  0  0  0  0  0
   39.1100   34.0790   49.9970 H   0  0  0  0  0  0  0  0  0  0  0  0
   40.4390   34.5490   47.9630 H   0  0  0  0  0  0  0  0  0  0  0  0
   36.7570   30.8370   47.7240 C   0  0  0  0  0  0  0  0  0  0  0  0
   36.3360   30.3990   46.6550 O   0  0  0  0  0  0  0  0  0  0  0  0
   37.0270   29.6250   49.8590 C   0  0  0  0  0  0  0  0  0  0  0  0
   36.1590   30.2600   48.9400 C   0  0  0  0  0  0  0  0  0  0  0  0
   34.7940   30.3140   49.2180 C   0  0  0  0  0  0  0  0  0  0  0  0
   34.3370   29.7470   50.3760 N   0  0  0  0  0  0  0  0  0  0  0  0
   35.1880   29.1460   51.2370 C   0  0  0  0  0  0  0  0  0  0  0  0
   36.5050   29.0860   50.9830 N   0  0  0  0  0  0  0  0  0  0  0  0
   38.0890   29.5460   49.7080 H   0  0  0  0  0  0  0  0  0  0  0  0
   34.1580   30.8050   48.4980 H   0  0  0  0  0  0  0  0  0  0  0  0
   34.7060   28.7330   52.1220 H   0  0  0  0  0  0  0  0  0  0  0  0
  1  2  1  0  0  0  0
  1 28  1  0  0  0  0
  3  1  1  0  0  0  0
  4  9  1  6  0  0  0
  4  8  1  0  0  0  0
  5 11  1  0  0  0  0
  5  4  1  0  0  0  0
  5  6  1  0  0  0  0
  6 12  1  6  0  0  0
  6  1  1  0  0  0  0
  6  7  1  0  0  0  0
  7  8  1  0  0  0  0
  8 13  1  0  0  0  0
  8 14  1  0  0  0  0
 10  5  1  0  0  0  0
 15  4  1  0  0  0  0
 15 17  1  0  0  0  0
 16 27  1  0  0  0  0
 17 16  2  0  0  0  0
 17 18  1  0  0  0  0
 18 20  2  0  0  0  0
 19 18  1  0  0  0  0
 20 26  1  0  0  0  0
 20 21  1  0  0  0  0
 21 22  1  0  0  0  0
 21 23  1  0  0  0  0
 23 24  1  0  0  0  0
 25 23  2  0  0  0  0
 26 25  1  0  0  0  0
 27 26  2  0  0  0  0
 28 33  1  0  0  0  0
 29 30  1  0  0  0  0
 30 31  2  0  0  0  0
 30 35  1  0  0  0  0
 31 36  1  0  0  0  0
 32 31  1  0  0  0  0
 33 32  2  0  0  0  0
 34 33  1  0  0  0  0
 34 29  2  0  0  0  0
 37 32  1  0  0  0  0
 38 29  1  0  0  0  0
 38 41  1  0  0  0  0
 39 38  2  0  0  0  0
 40 45  1  0  0  0  0
 41 42  1  0  0  0  0
 41 40  2  0  0  0  0
 42 43  2  0  0  0  0
 43 44  1  0  0  0  0
 44 48  1  0  0  0  0
 45 44  2  0  0  0  0
 46 40  1  0  0  0  0
 47 42  1  0  0  0  0
M  END
>  <minimizedAffinity>
-5.95552158

>  <minimizedRMSD>
1.86289096

$$$$
