
 OpenBabel03262522143D

 48 52  0  0  1  0  0  0  0  0999 V2000
   39.6240   32.9510   43.7960 C   0  0  0  0  0  0  0  0  0  0  0  0
   38.5600   33.0110   44.0360 H   0  0  0  0  0  0  0  0  0  0  0  0
   39.9250   33.8460   43.1880 H   0  0  0  0  0  0  0  0  0  0  0  0
   38.7050   29.9580   42.1440 C   0  0  1  0  0  0  0  0  0  0  0  0
   38.8850   31.4560   41.9480 C   0  0  0  0  0  0  0  0  0  0  0  0
   39.9700   31.7420   42.9630 C   0  0  2  0  0  0  0  0  0  0  0  0
   40.1600   30.6250   43.7250 O   0  0  0  0  0  0  0  0  0  0  0  0
   39.0260   29.8320   43.6250 C   0  0  0  0  0  0  0  0  0  0  0  0
   39.5020   29.4050   41.6030 H   0  0  0  0  0  0  0  0  0  0  0  0
   39.2690   31.5990   40.9160 H   0  0  0  0  0  0  0  0  0  0  0  0
   37.9530   31.9750   42.1710 H   0  0  0  0  0  0  0  0  0  0  0  0
   40.9190   31.9350   42.4160 H   0  0  0  0  0  0  0  0  0  0  0  0
   39.2140   28.8050   43.9410 H   0  0  0  0  0  0  0  0  0  0  0  0
   38.1740   30.2880   44.1600 H   0  0  0  0  0  0  0  0  0  0  0  0
   37.4130   29.5560   41.8700 O   0  0  0  0  0  0  0  0  0  0  0  0
   37.0290   27.2680   42.2060 C   0  0  0  0  0  3  0  0  0  0  0  0
   36.6900   28.5810   42.4870 C   0  0  0  0  0  0  0  0  0  0  0  0
   35.6490   28.8090   43.3650 C   0  0  0  0  0  0  0  0  0  0  0  0
   35.3700   29.8130   43.5960 H   0  0  0  0  0  0  0  0  0  0  0  0
   34.9080   27.8200   43.9950 C   0  0  0  0  0  0  0  0  0  0  0  0
   33.8830   27.8480   44.8620 N   0  0  0  0  0  0  0  0  0  0  0  0
   33.4060   28.6890   45.2620 H   0  0  0  0  0  0  0  0  0  0  0  0
   33.5590   26.5530   45.1430 C   0  0  0  0  0  0  0  0  0  0  0  0
   32.7690   26.2230   45.8130 H   0  0  0  0  0  0  0  0  0  0  0  0
   34.4110   25.7170   44.4280 C   0  0  0  0  0  3  0  0  0  0  0  0
   35.2730   26.5060   43.6950 C   0  0  0  0  0  0  0  0  0  0  0  0
   36.3020   26.2490   42.8260 C   0  0  0  0  0  3  0  0  0  0  0  0
   40.7140   32.9440   45.2510 S   0  0  0  0  0  0  0  0  0  0  0  0
   37.7750   31.7430   47.6350 C   0  0  0  0  0  0  0  0  0  0  0  0
   37.9110   32.5400   48.7860 C   0  0  0  0  0  0  0  0  0  0  0  0
   38.9240   33.4840   48.8660 C   0  0  0  0  0  0  0  0  0  0  0  0
   39.7530   33.5840   47.7850 C   0  0  0  0  0  0  0  0  0  0  0  0
   39.5980   32.7990   46.6860 C   0  0  0  0  0  0  0  0  0  0  0  0
   38.6170   31.8710   46.5840 N   0  0  0  0  0  0  0  0  0  0  0  0
   37.2300   32.4280   49.6200 H   0  0  0  0  0  0  0  0  0  0  0  0
   39.0860   34.1270   49.7130 H   0  0  0  0  0  0  0  0  0  0  0  0
   40.5820   34.2970   47.7490 H   0  0  0  0  0  0  0  0  0  0  0  0
   36.7010   30.7860   47.6250 C   0  0  0  0  0  0  0  0  0  0  0  0
   36.2120   30.3880   46.5700 O   0  0  0  0  0  0  0  0  0  0  0  0
   37.0060   29.6070   49.7730 C   0  0  0  0  0  0  0  0  0  0  0  0
   36.1220   30.2260   48.8580 C   0  0  0  0  0  0  0  0  0  0  0  0
   34.7610   30.2790   49.1550 C   0  0  0  0  0  0  0  0  0  0  0  0
   34.3230   29.7290   50.3280 N   0  0  0  0  0  0  0  0  0  0  0  0
   35.1880   29.1430   51.1860 C   0  0  0  0  0  0  0  0  0  0  0  0
   36.5020   29.0840   50.9130 N   0  0  0  0  0  0  0  0  0  0  0  0
   38.0650   29.5300   49.6090 H   0  0  0  0  0  0  0  0  0  0  0  0
   34.1130   30.7580   48.4370 H   0  0  0  0  0  0  0  0  0  0  0  0
   34.7200   28.7420   52.0840 H   0  0  0  0  0  0  0  0  0  0  0  0
  1  2  1  0  0  0  0
  1 28  1  0  0  0  0
  3  1  1  0  0  0  0
  4  9  1  6  0  0  0
  4  8  1  0  0  0  0
  5  4  1  0  0  0  0
  5 11  1  0  0  0  0
  5  6  1  0  0  0  0
  6 12  1  6  0  0  0
  6  7  1  0  0  0  0
  6  1  1  0  0  0  0
  8  7  1  0  0  0  0
  8 13  1  0  0  0  0
  8 14  1  0  0  0  0
 10  5  1  0  0  0  0
 15  4  1  0  0  0  0
 15 17  1  0  0  0  0
 16 17  2  0  0  0  0
 16 27  1  0  0  0  0
 17 18  1  0  0  0  0
 18 19  1  0  0  0  0
 18 20  2  0  0  0  0
 20 21  1  0  0  0  0
 21 23  1  0  0  0  0
 21 22  1  0  0  0  0
 23 24  1  0  0  0  0
 25 23  2  0  0  0  0
 26 20  1  0  0  0  0
 26 25  1  0  0  0  0
 27 26  2  0  0  0  0
 28 33  1  0  0  0  0
 29 30  1  0  0  0  0
 30 31  2  0  0  0  0
 30 35  1  0  0  0  0
 31 36  1  0  0  0  0
 32 31  1  0  0  0  0
 33 32  2  0  0  0  0
 34 33  1  0  0  0  0
 34 29  2  0  0  0  0
 37 32  1  0  0  0  0
 38 29  1  0  0  0  0
 38 41  1  0  0  0  0
 39 38  2  0  0  0  0
 40 45  1  0  0  0  0
 41 42  1  0  0  0  0
 41 40  2  0  0  0  0
 42 43  2  0  0  0  0
 43 44  1  0  0  0  0
 44 48  1  0  0  0  0
 45 44  2  0  0  0  0
 46 40  1  0  0  0  0
 47 42  1  0  0  0  0
M  END
>  <minimizedAffinity>
-5.49944639

>  <minimizedRMSD>
2.20951295

$$$$
