
 OpenBabel03262522173D

 48 52  0  0  1  0  0  0  0  0999 V2000
   37.7240   25.7690   30.8650 C   0  0  0  0  0  0  0  0  0  0  0  0
   38.5230   25.0240   30.8770 H   0  0  0  0  0  0  0  0  0  0  0  0
   37.6490   26.2260   29.8430 H   0  0  0  0  0  0  0  0  0  0  0  0
   36.5790   28.5510   32.7310 C   0  0  1  0  0  0  0  0  0  0  0  0
   36.8250   27.0520   32.7990 C   0  0  0  0  0  0  0  0  0  0  0  0
   37.9690   26.9100   31.8200 C   0  0  2  0  0  0  0  0  0  0  0  0
   38.1380   28.1000   31.1710 O   0  0  0  0  0  0  0  0  0  0  0  0
   36.9620   28.8280   31.2850 C   0  0  0  0  0  0  0  0  0  0  0  0
   37.3210   29.0870   33.3590 H   0  0  0  0  0  0  0  0  0  0  0  0
   37.1670   26.8320   33.8320 H   0  0  0  0  0  0  0  0  0  0  0  0
   35.9320   26.5130   32.4830 H   0  0  0  0  0  0  0  0  0  0  0  0
   38.9010   26.7120   32.3950 H   0  0  0  0  0  0  0  0  0  0  0  0
   37.1120   29.8870   31.0720 H   0  0  0  0  0  0  0  0  0  0  0  0
   36.1600   28.3840   30.6680 H   0  0  0  0  0  0  0  0  0  0  0  0
   35.2570   28.8660   32.9740 O   0  0  0  0  0  0  0  0  0  0  0  0
   33.3940   29.5110   34.2410 C   0  0  0  0  0  3  0  0  0  0  0  0
   34.7490   29.6320   33.9780 C   0  0  0  0  0  0  0  0  0  0  0  0
   35.4830   30.5140   34.7480 C   0  0  0  0  0  0  0  0  0  0  0  0
   36.5280   30.6220   34.5630 H   0  0  0  0  0  0  0  0  0  0  0  0
   34.9690   31.2950   35.7710 C   0  0  0  0  0  0  0  0  0  0  0  0
   35.5140   32.1900   36.6110 N   0  0  0  0  0  0  0  0  0  0  0  0
   36.5150   32.4950   36.6580 H   0  0  0  0  0  0  0  0  0  0  0  0
   34.5140   32.6480   37.4160 C   0  0  0  0  0  0  0  0  0  0  0  0
   34.6190   33.3850   38.2090 H   0  0  0  0  0  0  0  0  0  0  0  0
   33.3300   32.0140   37.0560 C   0  0  0  0  0  3  0  0  0  0  0  0
   33.6010   31.1520   36.0140 C   0  0  0  0  0  0  0  0  0  0  0  0
   32.8470   30.2850   35.2670 C   0  0  0  0  0  3  0  0  0  0  0  0
   36.0760   25.0920   31.2320 S   0  0  0  0  0  0  0  0  0  0  0  0
   37.7200   22.2650   33.4830 C   0  0  0  0  0  0  0  0  0  0  0  0
   36.8930   21.1440   33.2940 C   0  0  0  0  0  0  0  0  0  0  0  0
   35.7890   21.2230   32.4600 C   0  0  0  0  0  0  0  0  0  0  0  0
   35.5670   22.4260   31.8510 C   0  0  0  0  0  0  0  0  0  0  0  0
   36.3850   23.4930   32.0520 C   0  0  0  0  0  0  0  0  0  0  0  0
   37.4680   23.4400   32.8620 N   0  0  0  0  0  0  0  0  0  0  0  0
   37.1060   20.2090   33.7970 H   0  0  0  0  0  0  0  0  0  0  0  0
   35.1140   20.4070   32.2690 H   0  0  0  0  0  0  0  0  0  0  0  0
   34.7250   22.5910   31.1740 H   0  0  0  0  0  0  0  0  0  0  0  0
   38.8470   22.1070   34.3630 C   0  0  0  0  0  0  0  0  0  0  0  0
   39.9010   21.6130   33.9680 O   0  0  0  0  0  0  0  0  0  0  0  0
   40.0010   22.3570   36.5320 C   0  0  0  0  0  0  0  0  0  0  0  0
   38.8160   22.5200   35.7760 C   0  0  0  0  0  0  0  0  0  0  0  0
   37.6860   23.0570   36.3900 C   0  0  0  0  0  0  0  0  0  0  0  0
   37.7600   23.4100   37.7100 N   0  0  0  0  0  0  0  0  0  0  0  0
   38.9040   23.2440   38.4090 C   0  0  0  0  0  0  0  0  0  0  0  0
   40.0020   22.7280   37.8320 N   0  0  0  0  0  0  0  0  0  0  0  0
   40.9090   21.9490   36.1240 H   0  0  0  0  0  0  0  0  0  0  0  0
   36.7980   23.1700   35.7870 H   0  0  0  0  0  0  0  0  0  0  0  0
   38.8390   23.5610   39.4490 H   0  0  0  0  0  0  0  0  0  0  0  0
  1  2  1  0  0  0  0
  1 28  1  0  0  0  0
  1  6  1  0  0  0  0
  3  1  1  0  0  0  0
  4  5  1  0  0  0  0
  4 15  1  0  0  0  0
  4  9  1  1  0  0  0
  5 10  1  0  0  0  0
  6 12  1  1  0  0  0
  6  5  1  0  0  0  0
  7  8  1  0  0  0  0
  7  6  1  0  0  0  0
  8  4  1  0  0  0  0
 11  5  1  0  0  0  0
 13  8  1  0  0  0  0
 14  8  1  0  0  0  0
 15 17  1  0  0  0  0
 16 27  1  0  0  0  0
 17 16  2  0  0  0  0
 17 18  1  0  0  0  0
 18 20  2  0  0  0  0
 19 18  1  0  0  0  0
 20 26  1  0  0  0  0
 20 21  1  0  0  0  0
 21 22  1  0  0  0  0
 21 23  1  0  0  0  0
 23 24  1  0  0  0  0
 25 23  2  0  0  0  0
 26 25  1  0  0  0  0
 27 26  2  0  0  0  0
 28 33  1  0  0  0  0
 29 38  1  0  0  0  0
 30 29  1  0  0  0  0
 30 35  1  0  0  0  0
 31 30  2  0  0  0  0
 32 33  2  0  0  0  0
 32 31  1  0  0  0  0
 33 34  1  0  0  0  0
 34 29  2  0  0  0  0
 36 31  1  0  0  0  0
 37 32  1  0  0  0  0
 38 41  1  0  0  0  0
 39 38  2  0  0  0  0
 40 45  1  0  0  0  0
 41 42  1  0  0  0  0
 41 40  2  0  0  0  0
 42 43  2  0  0  0  0
 43 44  1  0  0  0  0
 44 48  1  0  0  0  0
 45 44  2  0  0  0  0
 46 40  1  0  0  0  0
 47 42  1  0  0  0  0
M  END
>  <minimizedAffinity>
-6.56862974

$$$$

 OpenBabel03262522173D

 48 52  0  0  1  0  0  0  0  0999 V2000
   37.4170   26.4190   34.9640 C   0  0  0  0  0  0  0  0  0  0  0  0
   37.0980   27.3800   35.3740 H   0  0  0  0  0  0  0  0  0  0  0  0
   36.5530   25.7030   34.9630 H   0  0  0  0  0  0  0  0  0  0  0  0
   38.9270   23.5480   36.3810 C   0  0  1  0  0  0  0  0  0  0  0  0
   38.9290   24.4510   35.1580 C   0  0  0  0  0  0  0  0  0  0  0  0
   38.5040   25.7640   35.7790 C   0  0  2  0  0  0  0  0  0  0  0  0
   38.1160   25.5310   37.0670 O   0  0  0  0  0  0  0  0  0  0  0  0
   37.8100   24.1840   37.1930 C   0  0  0  0  0  0  0  0  0  0  0  0
   39.8600   23.6940   36.9650 H   0  0  0  0  0  0  0  0  0  0  0  0
   39.9820   24.5090   34.8070 H   0  0  0  0  0  0  0  0  0  0  0  0
   38.2160   24.0840   34.4210 H   0  0  0  0  0  0  0  0  0  0  0  0
   39.3890   26.4370   35.8160 H   0  0  0  0  0  0  0  0  0  0  0  0
   37.7930   23.8620   38.2350 H   0  0  0  0  0  0  0  0  0  0  0  0
   36.8710   23.9400   36.6630 H   0  0  0  0  0  0  0  0  0  0  0  0
   38.6310   22.2400   36.0520 O   0  0  0  0  0  0  0  0  0  0  0  0
   36.5510   21.2180   35.7030 C   0  0  0  0  0  3  0  0  0  0  0  0
   37.6970   21.7880   35.1710 C   0  0  0  0  0  0  0  0  0  0  0  0
   37.8090   21.8570   33.7960 C   0  0  0  0  0  0  0  0  0  0  0  0
   38.6820   22.2920   33.3650 H   0  0  0  0  0  0  0  0  0  0  0  0
   36.8590   21.3980   32.8960 C   0  0  0  0  0  0  0  0  0  0  0  0
   36.7930   21.3790   31.5550 N   0  0  0  0  0  0  0  0  0  0  0  0
   37.5050   21.7360   30.8750 H   0  0  0  0  0  0  0  0  0  0  0  0
   35.6070   20.7970   31.2180 C   0  0  0  0  0  0  0  0  0  0  0  0
   35.2430   20.6270   30.2080 H   0  0  0  0  0  0  0  0  0  0  0  0
   34.9340   20.4540   32.3860 C   0  0  0  0  0  3  0  0  0  0  0  0
   35.7150   20.8290   33.4600 C   0  0  0  0  0  0  0  0  0  0  0  0
   35.5760   20.7460   34.8210 C   0  0  0  0  0  3  0  0  0  0  0  0
   37.9990   26.5040   33.2430 S   0  0  0  0  0  0  0  0  0  0  0  0
   35.3180   29.3790   32.6810 C   0  0  0  0  0  0  0  0  0  0  0  0
   35.6200   29.8930   31.4080 C   0  0  0  0  0  0  0  0  0  0  0  0
   36.6710   29.3660   30.6730 C   0  0  0  0  0  0  0  0  0  0  0  0
   37.3700   28.3450   31.2510 C   0  0  0  0  0  0  0  0  0  0  0  0
   37.0550   27.8680   32.4850 C   0  0  0  0  0  0  0  0  0  0  0  0
   36.0350   28.3660   33.2210 N   0  0  0  0  0  0  0  0  0  0  0  0
   35.0390   30.7040   30.9870 H   0  0  0  0  0  0  0  0  0  0  0  0
   36.9580   29.7090   29.6940 H   0  0  0  0  0  0  0  0  0  0  0  0
   38.2150   27.8610   30.7540 H   0  0  0  0  0  0  0  0  0  0  0  0
   34.2140   29.9760   33.3840 C   0  0  0  0  0  0  0  0  0  0  0  0
   33.0670   29.9010   32.9500 O   0  0  0  0  0  0  0  0  0  0  0  0
   35.6220   31.3430   34.8850 C   0  0  0  0  0  0  0  0  0  0  0  0
   34.3800   30.7050   34.6530 C   0  0  0  0  0  0  0  0  0  0  0  0
   33.3790   30.7910   35.6190 C   0  0  0  0  0  0  0  0  0  0  0  0
   33.6320   31.4920   36.7660 N   0  0  0  0  0  0  0  0  0  0  0  0
   34.8270   32.0930   36.9630 C   0  0  0  0  0  0  0  0  0  0  0  0
   35.8010   32.0190   36.0410 N   0  0  0  0  0  0  0  0  0  0  0  0
   36.4370   31.3170   34.1840 H   0  0  0  0  0  0  0  0  0  0  0  0
   32.4430   30.2950   35.4130 H   0  0  0  0  0  0  0  0  0  0  0  0
   34.9080   32.6200   37.9130 H   0  0  0  0  0  0  0  0  0  0  0  0
  1  2  1  0  0  0  0
  1  6  1  0  0  0  0
  3  1  1  0  0  0  0
  4  9  1  1  0  0  0
  4  8  1  0  0  0  0
  5  6  1  0  0  0  0
  5  4  1  0  0  0  0
  6 12  1  1  0  0  0
  6  7  1  0  0  0  0
  7  8  1  0  0  0  0
  8 13  1  0  0  0  0
 10  5  1  0  0  0  0
 11  5  1  0  0  0  0
 14  8  1  0  0  0  0
 15  4  1  0  0  0  0
 17 16  1  0  0  0  0
 17 15  1  0  0  0  0
 18 17  2  0  0  0  0
 19 18  1  0  0  0  0
 20 26  2  0  0  0  0
 20 18  1  0  0  0  0
 21 20  1  0  0  0  0
 22 21  1  0  0  0  0
 23 21  1  0  0  0  0
 23 25  2  0  0  0  0
 24 23  1  0  0  0  0
 25 26  1  0  0  0  0
 26 27  1  0  0  0  0
 27 16  2  0  0  0  0
 28  1  1  0  0  0  0
 29 34  1  0  0  0  0
 29 38  1  0  0  0  0
 30 29  2  0  0  0  0
 31 32  2  0  0  0  0
 31 30  1  0  0  0  0
 32 33  1  0  0  0  0
 33 34  2  0  0  0  0
 33 28  1  0  0  0  0
 35 30  1  0  0  0  0
 36 31  1  0  0  0  0
 37 32  1  0  0  0  0
 38 41  1  0  0  0  0
 39 38  2  0  0  0  0
 40 45  1  0  0  0  0
 41 40  2  0  0  0  0
 41 42  1  0  0  0  0
 42 43  2  0  0  0  0
 43 44  1  0  0  0  0
 44 48  1  0  0  0  0
 45 44  2  0  0  0  0
 46 40  1  0  0  0  0
 47 42  1  0  0  0  0
M  END
>  <minimizedAffinity>
-6.49417305

$$$$

 OpenBabel03262522173D

 48 52  0  0  1  0  0  0  0  0999 V2000
   37.3770   26.4620   35.1250 C   0  0  0  0  0  0  0  0  0  0  0  0
   37.3380   27.5410   35.2960 H   0  0  0  0  0  0  0  0  0  0  0  0
   36.4060   25.9960   35.4410 H   0  0  0  0  0  0  0  0  0  0  0  0
   38.8990   23.5370   36.4130 C   0  0  1  0  0  0  0  0  0  0  0  0
   38.9170   24.5110   35.2450 C   0  0  0  0  0  0  0  0  0  0  0  0
   38.4530   25.7780   35.9300 C   0  0  2  0  0  0  0  0  0  0  0  0
   38.0360   25.4640   37.1910 O   0  0  0  0  0  0  0  0  0  0  0  0
   37.7500   24.1070   37.2300 C   0  0  0  0  0  0  0  0  0  0  0  0
   39.8130   23.6640   37.0280 H   0  0  0  0  0  0  0  0  0  0  0  0
   39.9770   24.6070   34.9260 H   0  0  0  0  0  0  0  0  0  0  0  0
   38.2290   24.1770   34.4690 H   0  0  0  0  0  0  0  0  0  0  0  0
   39.3250   26.4620   36.0290 H   0  0  0  0  0  0  0  0  0  0  0  0
   37.7120   23.7240   38.2500 H   0  0  0  0  0  0  0  0  0  0  0  0
   36.8300   23.8800   36.6610 H   0  0  0  0  0  0  0  0  0  0  0  0
   38.6350   22.2470   36.0000 O   0  0  0  0  0  0  0  0  0  0  0  0
   36.5750   21.1960   35.6140 C   0  0  0  0  0  3  0  0  0  0  0  0
   37.6980   21.8280   35.1040 C   0  0  0  0  0  0  0  0  0  0  0  0
   37.7880   21.9870   33.7350 C   0  0  0  0  0  0  0  0  0  0  0  0
   38.6430   22.4710   33.3210 H   0  0  0  0  0  0  0  0  0  0  0  0
   36.8360   21.5620   32.8210 C   0  0  0  0  0  0  0  0  0  0  0  0
   36.7500   21.6270   31.4820 N   0  0  0  0  0  0  0  0  0  0  0  0
   37.4430   22.0450   30.8170 H   0  0  0  0  0  0  0  0  0  0  0  0
   35.5730   21.0380   31.1250 C   0  0  0  0  0  0  0  0  0  0  0  0
   35.1980   20.9230   30.1110 H   0  0  0  0  0  0  0  0  0  0  0  0
   34.9270   20.6040   32.2780 C   0  0  0  0  0  3  0  0  0  0  0  0
   35.7150   20.9300   33.3620 C   0  0  0  0  0  0  0  0  0  0  0  0
   35.5980   20.7570   34.7170 C   0  0  0  0  0  3  0  0  0  0  0  0
   37.6140   25.9960   33.3840 S   0  0  0  0  0  0  0  0  0  0  0  0
   35.5950   29.2570   32.3550 C   0  0  0  0  0  0  0  0  0  0  0  0
   35.9970   29.5130   31.0330 C   0  0  0  0  0  0  0  0  0  0  0  0
   36.9140   28.6820   30.4070 C   0  0  0  0  0  0  0  0  0  0  0  0
   37.3840   27.6290   31.1400 C   0  0  0  0  0  0  0  0  0  0  0  0
   36.9770   27.4060   32.4180 C   0  0  0  0  0  0  0  0  0  0  0  0
   36.0840   28.2030   33.0490 N   0  0  0  0  0  0  0  0  0  0  0  0
   35.5990   30.3600   30.4880 H   0  0  0  0  0  0  0  0  0  0  0  0
   37.2660   28.8170   29.3990 H   0  0  0  0  0  0  0  0  0  0  0  0
   38.1090   26.9160   30.7390 H   0  0  0  0  0  0  0  0  0  0  0  0
   34.6410   30.1620   32.9370 C   0  0  0  0  0  0  0  0  0  0  0  0
   34.7800   31.3800   32.8460 O   0  0  0  0  0  0  0  0  0  0  0  0
   32.3980   29.1290   32.9160 C   0  0  0  0  0  0  0  0  0  0  0  0
   33.4500   29.7010   33.6700 C   0  0  0  0  0  0  0  0  0  0  0  0
   33.3180   29.8030   35.0540 C   0  0  0  0  0  0  0  0  0  0  0  0
   32.1710   29.3450   35.6400 N   0  0  0  0  0  0  0  0  0  0  0  0
   31.1800   28.8020   34.8970 C   0  0  0  0  0  0  0  0  0  0  0  0
   31.2930   28.6960   33.5620 N   0  0  0  0  0  0  0  0  0  0  0  0
   32.4320   29.0190   31.8460 H   0  0  0  0  0  0  0  0  0  0  0  0
   34.1370   30.2430   35.6010 H   0  0  0  0  0  0  0  0  0  0  0  0
   30.3180   28.4740   35.4760 H   0  0  0  0  0  0  0  0  0  0  0  0
  1  2  1  0  0  0  0
  1  3  1  0  0  0  0
  1  6  1  0  0  0  0
  4  9  1  1  0  0  0
  4  8  1  0  0  0  0
  5  6  1  0  0  0  0
  5  4  1  0  0  0  0
  6 12  1  1  0  0  0
  6  7  1  0  0  0  0
  7  8  1  0  0  0  0
  8 13  1  0  0  0  0
 10  5  1  0  0  0  0
 11  5  1  0  0  0  0
 14  8  1  0  0  0  0
 15  4  1  0  0  0  0
 17 16  1  0  0  0  0
 17 15  1  0  0  0  0
 18 17  2  0  0  0  0
 19 18  1  0  0  0  0
 20 26  2  0  0  0  0
 20 18  1  0  0  0  0
 21 20  1  0  0  0  0
 22 21  1  0  0  0  0
 23 21  1  0  0  0  0
 23 25  2  0  0  0  0
 24 23  1  0  0  0  0
 25 26  1  0  0  0  0
 26 27  1  0  0  0  0
 27 16  2  0  0  0  0
 28  1  1  0  0  0  0
 29 38  1  0  0  0  0
 29 34  1  0  0  0  0
 30 29  2  0  0  0  0
 31 30  1  0  0  0  0
 31 32  2  0  0  0  0
 32 33  1  0  0  0  0
 33 34  2  0  0  0  0
 33 28  1  0  0  0  0
 35 30  1  0  0  0  0
 36 31  1  0  0  0  0
 37 32  1  0  0  0  0
 38 41  1  0  0  0  0
 39 38  2  0  0  0  0
 40 45  2  0  0  0  0
 40 41  1  0  0  0  0
 41 42  2  0  0  0  0
 42 47  1  0  0  0  0
 42 43  1  0  0  0  0
 44 48  1  0  0  0  0
 44 43  2  0  0  0  0
 45 44  1  0  0  0  0
 46 40  1  0  0  0  0
M  END
>  <minimizedAffinity>
-6.30527782

$$$$

 OpenBabel03262522173D

 48 52  0  0  1  0  0  0  0  0999 V2000
   38.1000   22.3220   31.2280 C   0  0  0  0  0  0  0  0  0  0  0  0
   38.7680   22.6310   32.0350 H   0  0  0  0  0  0  0  0  0  0  0  0
   38.6850   21.7710   30.4440 H   0  0  0  0  0  0  0  0  0  0  0  0
   36.9000   25.6520   31.2080 C   0  0  1  0  0  0  0  0  0  0  0  0
   38.1170   24.7910   30.9090 C   0  0  0  0  0  0  0  0  0  0  0  0
   37.4500   23.4870   30.5250 C   0  0  2  0  0  0  0  0  0  0  0  0
   36.1170   23.5820   30.8050 O   0  0  0  0  0  0  0  0  0  0  0  0
   35.9370   24.5990   31.7310 C   0  0  0  0  0  0  0  0  0  0  0  0
   36.4620   26.0340   30.2620 H   0  0  0  0  0  0  0  0  0  0  0  0
   38.6200   25.2440   30.0280 H   0  0  0  0  0  0  0  0  0  0  0  0
   38.7370   24.6990   31.8000 H   0  0  0  0  0  0  0  0  0  0  0  0
   37.5490   23.3530   29.4250 H   0  0  0  0  0  0  0  0  0  0  0  0
   34.9020   24.9400   31.7710 H   0  0  0  0  0  0  0  0  0  0  0  0
   36.3210   24.3030   32.7250 H   0  0  0  0  0  0  0  0  0  0  0  0
   37.1720   26.6100   32.1640 O   0  0  0  0  0  0  0  0  0  0  0  0
   36.3370   28.2680   33.5950 C   0  0  0  0  0  3  0  0  0  0  0  0
   36.6050   27.8390   32.3050 C   0  0  0  0  0  0  0  0  0  0  0  0
   36.2800   28.6830   31.2610 C   0  0  0  0  0  0  0  0  0  0  0  0
   36.4780   28.3740   30.2590 H   0  0  0  0  0  0  0  0  0  0  0  0
   35.7020   29.9360   31.4000 C   0  0  0  0  0  0  0  0  0  0  0  0
   35.3230   30.8790   30.5220 N   0  0  0  0  0  0  0  0  0  0  0  0
   35.3970   30.8470   29.4780 H   0  0  0  0  0  0  0  0  0  0  0  0
   34.8100   31.9170   31.2420 C   0  0  0  0  0  0  0  0  0  0  0  0
   34.4110   32.8420   30.8350 H   0  0  0  0  0  0  0  0  0  0  0  0
   34.8800   31.5950   32.5940 C   0  0  0  0  0  3  0  0  0  0  0  0
   35.4440   30.3420   32.7100 C   0  0  0  0  0  0  0  0  0  0  0  0
   35.7550   29.5260   33.7670 C   0  0  0  0  0  3  0  0  0  0  0  0
   36.7770   21.1910   31.7530 S   0  0  0  0  0  0  0  0  0  0  0  0
   37.6670   22.2050   35.4870 C   0  0  0  0  0  0  0  0  0  0  0  0
   36.6790   21.5750   36.2640 C   0  0  0  0  0  0  0  0  0  0  0  0
   35.6940   20.8110   35.6570 C   0  0  0  0  0  0  0  0  0  0  0  0
   35.7490   20.7120   34.2960 C   0  0  0  0  0  0  0  0  0  0  0  0
   36.7170   21.3320   33.5700 C   0  0  0  0  0  0  0  0  0  0  0  0
   37.6880   22.0840   34.1400 N   0  0  0  0  0  0  0  0  0  0  0  0
   36.6730   21.6800   37.3420 H   0  0  0  0  0  0  0  0  0  0  0  0
   34.9090   20.3010   36.1890 H   0  0  0  0  0  0  0  0  0  0  0  0
   35.0200   20.1320   33.7220 H   0  0  0  0  0  0  0  0  0  0  0  0
   38.6550   22.9810   36.1870 C   0  0  0  0  0  0  0  0  0  0  0  0
   39.3250   22.4920   37.0940 O   0  0  0  0  0  0  0  0  0  0  0  0
   38.0830   25.3700   36.4490 C   0  0  0  0  0  0  0  0  0  0  0  0
   38.9280   24.3930   35.8700 C   0  0  0  0  0  0  0  0  0  0  0  0
   39.9680   24.8000   35.0350 C   0  0  0  0  0  0  0  0  0  0  0  0
   40.1380   26.1380   34.8030 N   0  0  0  0  0  0  0  0  0  0  0  0
   39.3170   27.0510   35.3690 C   0  0  0  0  0  0  0  0  0  0  0  0
   38.3110   26.6740   36.1750 N   0  0  0  0  0  0  0  0  0  0  0  0
   37.2630   25.1270   37.1010 H   0  0  0  0  0  0  0  0  0  0  0  0
   40.5940   24.0330   34.6090 H   0  0  0  0  0  0  0  0  0  0  0  0
   39.5530   28.0820   35.1090 H   0  0  0  0  0  0  0  0  0  0  0  0
  1 28  1  0  0  0  0
  1  2  1  0  0  0  0
  3  1  1  0  0  0  0
  4  9  1  6  0  0  0
  4  8  1  0  0  0  0
  4 15  1  0  0  0  0
  5  4  1  0  0  0  0
  5 11  1  0  0  0  0
  6 12  1  6  0  0  0
  6  7  1  0  0  0  0
  6  5  1  0  0  0  0
  6  1  1  0  0  0  0
  7  8  1  0  0  0  0
  8 13  1  0  0  0  0
  8 14  1  0  0  0  0
 10  5  1  0  0  0  0
 15 17  1  0  0  0  0
 16 27  1  0  0  0  0
 17 16  2  0  0  0  0
 18 20  2  0  0  0  0
 18 17  1  0  0  0  0
 19 18  1  0  0  0  0
 20 26  1  0  0  0  0
 21 23  1  0  0  0  0
 21 20  1  0  0  0  0
 22 21  1  0  0  0  0
 23 25  2  0  0  0  0
 24 23  1  0  0  0  0
 25 26  1  0  0  0  0
 26 27  2  0  0  0  0
 28 33  1  0  0  0  0
 29 38  1  0  0  0  0
 29 30  1  0  0  0  0
 30 35  1  0  0  0  0
 31 36  1  0  0  0  0
 31 30  2  0  0  0  0
 32 31  1  0  0  0  0
 33 34  1  0  0  0  0
 33 32  2  0  0  0  0
 34 29  2  0  0  0  0
 37 32  1  0  0  0  0
 38 39  2  0  0  0  0
 40 46  1  0  0  0  0
 41 38  1  0  0  0  0
 41 40  2  0  0  0  0
 42 41  1  0  0  0  0
 43 42  2  0  0  0  0
 43 44  1  0  0  0  0
 44 45  2  0  0  0  0
 45 40  1  0  0  0  0
 47 42  1  0  0  0  0
 48 44  1  0  0  0  0
M  END
>  <minimizedAffinity>
-6.29434538

$$$$

 OpenBabel03262522173D

 48 52  0  0  1  0  0  0  0  0999 V2000
   43.2300   26.7600   33.9270 C   0  0  0  0  0  0  0  0  0  0  0  0
   43.7940   27.6340   33.5960 H   0  0  0  0  0  0  0  0  0  0  0  0
   42.6860   27.0000   34.8790 H   0  0  0  0  0  0  0  0  0  0  0  0
   43.6750   23.4510   35.1040 C   0  0  1  0  0  0  0  0  0  0  0  0
   43.4250   24.2790   33.8530 C   0  0  0  0  0  0  0  0  0  0  0  0
   44.1100   25.5740   34.2340 C   0  0  2  0  0  0  0  0  0  0  0  0
   44.4540   25.5130   35.5540 O   0  0  0  0  0  0  0  0  0  0  0  0
   43.6740   24.5410   36.1630 C   0  0  0  0  0  0  0  0  0  0  0  0
   44.7030   23.0340   35.0860 H   0  0  0  0  0  0  0  0  0  0  0  0
   43.9710   23.7790   33.0250 H   0  0  0  0  0  0  0  0  0  0  0  0
   42.3540   24.4010   33.6940 H   0  0  0  0  0  0  0  0  0  0  0  0
   45.0530   25.6570   33.6490 H   0  0  0  0  0  0  0  0  0  0  0  0
   44.0900   24.2190   37.1180 H   0  0  0  0  0  0  0  0  0  0  0  0
   42.6240   24.8760   36.2540 H   0  0  0  0  0  0  0  0  0  0  0  0
   42.6660   22.5330   35.3210 O   0  0  0  0  0  0  0  0  0  0  0  0
   40.4660   23.1170   34.7580 C   0  0  0  0  0  3  0  0  0  0  0  0
   41.3900   22.7720   35.7320 C   0  0  0  0  0  0  0  0  0  0  0  0
   40.9550   22.6960   37.0410 C   0  0  0  0  0  0  0  0  0  0  0  0
   41.6490   22.4320   37.8070 H   0  0  0  0  0  0  0  0  0  0  0  0
   39.6570   22.9380   37.4640 C   0  0  0  0  0  0  0  0  0  0  0  0
   39.0590   22.9140   38.6660 N   0  0  0  0  0  0  0  0  0  0  0  0
   39.4940   22.6880   39.5920 H   0  0  0  0  0  0  0  0  0  0  0  0
   37.7500   23.2420   38.4710 C   0  0  0  0  0  0  0  0  0  0  0  0
   36.9880   23.3140   39.2430 H   0  0  0  0  0  0  0  0  0  0  0  0
   37.5470   23.4720   37.1150 C   0  0  0  0  0  3  0  0  0  0  0  0
   38.7480   23.2830   36.4610 C   0  0  0  0  0  0  0  0  0  0  0  0
   39.1500   23.3670   35.1540 C   0  0  0  0  0  3  0  0  0  0  0  0
   41.9590   26.2080   32.7490 S   0  0  0  0  0  0  0  0  0  0  0  0
   38.0850   26.8720   33.3150 C   0  0  0  0  0  0  0  0  0  0  0  0
   37.9730   27.1290   34.6930 C   0  0  0  0  0  0  0  0  0  0  0  0
   39.0980   27.1050   35.5020 C   0  0  0  0  0  0  0  0  0  0  0  0
   40.2870   26.8250   34.8890 C   0  0  0  0  0  0  0  0  0  0  0  0
   40.3650   26.5810   33.5530 C   0  0  0  0  0  0  0  0  0  0  0  0
   39.2810   26.5980   32.7430 N   0  0  0  0  0  0  0  0  0  0  0  0
   37.0100   27.3470   35.1380 H   0  0  0  0  0  0  0  0  0  0  0  0
   39.0870   27.2920   36.5620 H   0  0  0  0  0  0  0  0  0  0  0  0
   41.2320   26.7830   35.4370 H   0  0  0  0  0  0  0  0  0  0  0  0
   36.8740   26.9140   32.5400 C   0  0  0  0  0  0  0  0  0  0  0  0
   36.2810   25.8840   32.2280 O   0  0  0  0  0  0  0  0  0  0  0  0
   36.8230   28.7760   30.9180 C   0  0  0  0  0  0  0  0  0  0  0  0
   36.2710   28.1740   32.0740 C   0  0  0  0  0  0  0  0  0  0  0  0
   35.1970   28.7890   32.7160 C   0  0  0  0  0  0  0  0  0  0  0  0
   34.7090   29.9600   32.2030 N   0  0  0  0  0  0  0  0  0  0  0  0
   35.2530   30.5140   31.0980 C   0  0  0  0  0  0  0  0  0  0  0  0
   36.2890   29.9340   30.4690 N   0  0  0  0  0  0  0  0  0  0  0  0
   37.6510   28.3580   30.3740 H   0  0  0  0  0  0  0  0  0  0  0  0
   34.7980   28.3050   33.5940 H   0  0  0  0  0  0  0  0  0  0  0  0
   34.7790   31.4440   30.7870 H   0  0  0  0  0  0  0  0  0  0  0  0
  1  6  1  0  0  0  0
  1  3  1  0  0  0  0
  2  1  1  0  0  0  0
  4  9  1  6  0  0  0
  4 15  1  0  0  0  0
  4  8  1  0  0  0  0
  5  6  1  0  0  0  0
  5  4  1  0  0  0  0
  6 12  1  6  0  0  0
  6  7  1  0  0  0  0
  7  8  1  0  0  0  0
  8 14  1  0  0  0  0
  8 13  1  0  0  0  0
 10  5  1  0  0  0  0
 11  5  1  0  0  0  0
 15 17  1  0  0  0  0
 16 27  2  0  0  0  0
 16 17  1  0  0  0  0
 17 18  2  0  0  0  0
 18 20  1  0  0  0  0
 18 19  1  0  0  0  0
 20 21  1  0  0  0  0
 21 22  1  0  0  0  0
 23 21  1  0  0  0  0
 23 24  1  0  0  0  0
 25 23  2  0  0  0  0
 26 25  1  0  0  0  0
 26 20  2  0  0  0  0
 27 26  1  0  0  0  0
 28 33  1  0  0  0  0
 28  1  1  0  0  0  0
 29 30  1  0  0  0  0
 30 35  1  0  0  0  0
 30 31  2  0  0  0  0
 31 36  1  0  0  0  0
 32 37  1  0  0  0  0
 32 31  1  0  0  0  0
 33 32  2  0  0  0  0
 34 29  2  0  0  0  0
 34 33  1  0  0  0  0
 38 29  1  0  0  0  0
 39 38  2  0  0  0  0
 40 41  1  0  0  0  0
 41 38  1  0  0  0  0
 41 42  2  0  0  0  0
 42 47  1  0  0  0  0
 43 42  1  0  0  0  0
 44 43  2  0  0  0  0
 45 40  2  0  0  0  0
 45 44  1  0  0  0  0
 46 40  1  0  0  0  0
 48 44  1  0  0  0  0
M  END
>  <minimizedAffinity>
-6.17556858

$$$$

 OpenBabel03262522173D

 48 52  0  0  1  0  0  0  0  0999 V2000
   38.2980   26.3040   33.8010 C   0  0  0  0  0  0  0  0  0  0  0  0
   39.3810   26.4500   33.8210 H   0  0  0  0  0  0  0  0  0  0  0  0
   37.7890   27.1950   34.2560 H   0  0  0  0  0  0  0  0  0  0  0  0
   38.9530   23.7030   36.1110 C   0  0  1  0  0  0  0  0  0  0  0  0
   38.4560   25.1350   35.9930 C   0  0  0  0  0  0  0  0  0  0  0  0
   37.8530   25.1090   34.6060 C   0  0  2  0  0  0  0  0  0  0  0  0
   38.1880   23.9280   34.0070 O   0  0  0  0  0  0  0  0  0  0  0  0
   39.2970   23.4090   34.6600 C   0  0  0  0  0  0  0  0  0  0  0  0
   38.1120   23.0290   36.3760 H   0  0  0  0  0  0  0  0  0  0  0  0
   37.6620   25.2620   36.7600 H   0  0  0  0  0  0  0  0  0  0  0  0
   39.2930   25.8290   36.0750 H   0  0  0  0  0  0  0  0  0  0  0  0
   36.7450   25.1270   34.7050 H   0  0  0  0  0  0  0  0  0  0  0  0
   39.4350   22.3470   34.4530 H   0  0  0  0  0  0  0  0  0  0  0  0
   40.2030   24.0020   34.4360 H   0  0  0  0  0  0  0  0  0  0  0  0
   40.0660   23.6120   36.9240 O   0  0  0  0  0  0  0  0  0  0  0  0
   42.2290   23.3380   36.0620 C   0  0  0  0  0  3  0  0  0  0  0  0
   41.1560   22.8120   36.7650 C   0  0  0  0  0  0  0  0  0  0  0  0
   41.2680   21.5230   37.2500 C   0  0  0  0  0  0  0  0  0  0  0  0
   40.4550   21.0980   37.7940 H   0  0  0  0  0  0  0  0  0  0  0  0
   42.3760   20.7060   37.0900 C   0  0  0  0  0  0  0  0  0  0  0  0
   42.6630   19.4540   37.4820 N   0  0  0  0  0  0  0  0  0  0  0  0
   42.0530   18.8000   38.0280 H   0  0  0  0  0  0  0  0  0  0  0  0
   43.9190   19.1690   37.0340 C   0  0  0  0  0  0  0  0  0  0  0  0
   44.4530   18.2340   37.1820 H   0  0  0  0  0  0  0  0  0  0  0  0
   44.4080   20.2780   36.3520 C   0  0  0  0  0  3  0  0  0  0  0  0
   43.4420   21.2620   36.3790 C   0  0  0  0  0  0  0  0  0  0  0  0
   43.3600   22.5380   35.8850 C   0  0  0  0  0  3  0  0  0  0  0  0
   37.6040   26.1300   32.1300 S   0  0  0  0  0  0  0  0  0  0  0  0
   35.1440   29.2260   32.4830 C   0  0  0  0  0  0  0  0  0  0  0  0
   35.4290   30.0280   31.3640 C   0  0  0  0  0  0  0  0  0  0  0  0
   36.4000   29.6380   30.4540 C   0  0  0  0  0  0  0  0  0  0  0  0
   37.0390   28.4580   30.7100 C   0  0  0  0  0  0  0  0  0  0  0  0
   36.7420   27.7020   31.8010 C   0  0  0  0  0  0  0  0  0  0  0  0
   35.7990   28.0630   32.7030 N   0  0  0  0  0  0  0  0  0  0  0  0
   34.8980   30.9570   31.1990 H   0  0  0  0  0  0  0  0  0  0  0  0
   36.6700   30.2000   29.5770 H   0  0  0  0  0  0  0  0  0  0  0  0
   37.8190   28.0620   30.0540 H   0  0  0  0  0  0  0  0  0  0  0  0
   34.1240   29.6950   33.3820 C   0  0  0  0  0  0  0  0  0  0  0  0
   32.9350   29.4600   33.1770 O   0  0  0  0  0  0  0  0  0  0  0  0
   33.3560   30.7820   35.4630 C   0  0  0  0  0  0  0  0  0  0  0  0
   34.4290   30.4770   34.5920 C   0  0  0  0  0  0  0  0  0  0  0  0
   35.7120   30.9220   34.9100 C   0  0  0  0  0  0  0  0  0  0  0  0
   35.8910   31.6430   36.0590 N   0  0  0  0  0  0  0  0  0  0  0  0
   34.8490   31.9210   36.8740 C   0  0  0  0  0  0  0  0  0  0  0  0
   33.6080   31.4990   36.5820 N   0  0  0  0  0  0  0  0  0  0  0  0
   32.3430   30.4710   35.2810 H   0  0  0  0  0  0  0  0  0  0  0  0
   36.5090   30.6740   34.2270 H   0  0  0  0  0  0  0  0  0  0  0  0
   35.1170   32.5000   37.7560 H   0  0  0  0  0  0  0  0  0  0  0  0
  1  2  1  0  0  0  0
  1  3  1  0  0  0  0
  1  6  1  0  0  0  0
  4  9  1  1  0  0  0
  4 15  1  0  0  0  0
  5 11  1  0  0  0  0
  5  4  1  0  0  0  0
  5 10  1  0  0  0  0
  6 12  1  1  0  0  0
  6  5  1  0  0  0  0
  7  6  1  0  0  0  0
  7  8  1  0  0  0  0
  8  4  1  0  0  0  0
 13  8  1  0  0  0  0
 14  8  1  0  0  0  0
 16 17  1  0  0  0  0
 17 15  1  0  0  0  0
 17 18  2  0  0  0  0
 18 19  1  0  0  0  0
 20 18  1  0  0  0  0
 20 21  1  0  0  0  0
 21 22  1  0  0  0  0
 23 24  1  0  0  0  0
 23 21  1  0  0  0  0
 25 26  1  0  0  0  0
 25 23  2  0  0  0  0
 26 20  2  0  0  0  0
 27 16  2  0  0  0  0
 27 26  1  0  0  0  0
 28  1  1  0  0  0  0
 29 34  1  0  0  0  0
 29 38  1  0  0  0  0
 30 29  2  0  0  0  0
 31 32  2  0  0  0  0
 31 30  1  0  0  0  0
 32 33  1  0  0  0  0
 33 28  1  0  0  0  0
 33 34  2  0  0  0  0
 35 30  1  0  0  0  0
 36 31  1  0  0  0  0
 37 32  1  0  0  0  0
 38 41  1  0  0  0  0
 39 38  2  0  0  0  0
 40 45  1  0  0  0  0
 41 42  1  0  0  0  0
 41 40  2  0  0  0  0
 42 43  2  0  0  0  0
 43 44  1  0  0  0  0
 44 48  1  0  0  0  0
 45 44  2  0  0  0  0
 46 40  1  0  0  0  0
 47 42  1  0  0  0  0
M  END
>  <minimizedAffinity>
-6.0489893

$$$$

 OpenBabel03262522173D

 48 52  0  0  1  0  0  0  0  0999 V2000
   35.3620   28.6070   32.0310 C   0  0  0  0  0  0  0  0  0  0  0  0
   34.4050   28.1270   31.8100 H   0  0  0  0  0  0  0  0  0  0  0  0
   35.7540   28.2320   33.0130 H   0  0  0  0  0  0  0  0  0  0  0  0
   33.5910   31.5070   33.0230 C   0  0  1  0  0  0  0  0  0  0  0  0
   34.6160   30.4830   33.4870 C   0  0  0  0  0  0  0  0  0  0  0  0
   35.2510   30.1050   32.1660 C   0  0  2  0  0  0  0  0  0  0  0  0
   34.5200   30.6630   31.1560 O   0  0  0  0  0  0  0  0  0  0  0  0
   33.2560   30.9600   31.6450 C   0  0  0  0  0  0  0  0  0  0  0  0
   34.0820   32.4890   32.8590 H   0  0  0  0  0  0  0  0  0  0  0  0
   35.3430   31.0260   34.1270 H   0  0  0  0  0  0  0  0  0  0  0  0
   34.1130   29.6430   33.9670 H   0  0  0  0  0  0  0  0  0  0  0  0
   36.2680   30.5520   32.1260 H   0  0  0  0  0  0  0  0  0  0  0  0
   32.7280   31.6730   31.0120 H   0  0  0  0  0  0  0  0  0  0  0  0
   32.6720   30.0370   31.8180 H   0  0  0  0  0  0  0  0  0  0  0  0
   32.4810   31.5280   33.8430 O   0  0  0  0  0  0  0  0  0  0  0  0
   32.3420   31.1530   36.1530 C   0  0  0  0  0  3  0  0  0  0  0  0
   32.1750   30.6780   34.8620 C   0  0  0  0  0  0  0  0  0  0  0  0
   31.7130   29.3860   34.7020 C   0  0  0  0  0  0  0  0  0  0  0  0
   31.5750   29.0000   33.7170 H   0  0  0  0  0  0  0  0  0  0  0  0
   31.4000   28.5180   35.7370 C   0  0  0  0  0  0  0  0  0  0  0  0
   30.9480   27.2540   35.7750 N   0  0  0  0  0  0  0  0  0  0  0  0
   30.7260   26.6300   34.9640 H   0  0  0  0  0  0  0  0  0  0  0  0
   30.8230   26.9110   37.0890 C   0  0  0  0  0  0  0  0  0  0  0  0
   30.4790   25.9520   37.4690 H   0  0  0  0  0  0  0  0  0  0  0  0
   31.2090   27.9960   37.8690 C   0  0  0  0  0  3  0  0  0  0  0  0
   31.5780   29.0240   37.0260 C   0  0  0  0  0  0  0  0  0  0  0  0
   32.0360   30.3020   37.2170 C   0  0  0  0  0  3  0  0  0  0  0  0
   36.6620   28.2620   30.8070 S   0  0  0  0  0  0  0  0  0  0  0  0
   38.8660   26.8540   33.7940 C   0  0  0  0  0  0  0  0  0  0  0  0
   40.1650   26.7720   33.2610 C   0  0  0  0  0  0  0  0  0  0  0  0
   40.4070   27.1510   31.9500 C   0  0  0  0  0  0  0  0  0  0  0  0
   39.3320   27.5970   31.2340 C   0  0  0  0  0  0  0  0  0  0  0  0
   38.0870   27.6660   31.7760 C   0  0  0  0  0  0  0  0  0  0  0  0
   37.8260   27.3000   33.0530 N   0  0  0  0  0  0  0  0  0  0  0  0
   40.9890   26.4120   33.8650 H   0  0  0  0  0  0  0  0  0  0  0  0
   41.3730   27.1160   31.4770 H   0  0  0  0  0  0  0  0  0  0  0  0
   39.4170   27.9210   30.1930 H   0  0  0  0  0  0  0  0  0  0  0  0
   38.6930   26.4420   35.1620 C   0  0  0  0  0  0  0  0  0  0  0  0
   38.8200   27.2400   36.0880 O   0  0  0  0  0  0  0  0  0  0  0  0
   38.1160   24.7950   36.9090 C   0  0  0  0  0  0  0  0  0  0  0  0
   38.3540   25.0600   35.5400 C   0  0  0  0  0  0  0  0  0  0  0  0
   38.2610   24.0180   34.6180 C   0  0  0  0  0  0  0  0  0  0  0  0
   37.9400   22.7680   35.0710 N   0  0  0  0  0  0  0  0  0  0  0  0
   37.7170   22.5410   36.3850 C   0  0  0  0  0  0  0  0  0  0  0  0
   37.8030   23.5350   37.2850 N   0  0  0  0  0  0  0  0  0  0  0  0
   38.1710   25.5500   37.6730 H   0  0  0  0  0  0  0  0  0  0  0  0
   38.4470   24.2510   33.5820 H   0  0  0  0  0  0  0  0  0  0  0  0
   37.4700   21.5070   36.6230 H   0  0  0  0  0  0  0  0  0  0  0  0
  1  6  1  0  0  0  0
  1  3  1  0  0  0  0
  2  1  1  0  0  0  0
  4  9  1  6  0  0  0
  4  5  1  0  0  0  0
  4 15  1  0  0  0  0
  5 11  1  0  0  0  0
  5 10  1  0  0  0  0
  6 12  1  6  0  0  0
  6  5  1  0  0  0  0
  7  8  1  0  0  0  0
  7  6  1  0  0  0  0
  8 14  1  0  0  0  0
  8  4  1  0  0  0  0
 13  8  1  0  0  0  0
 15 17  1  0  0  0  0
 16 27  1  0  0  0  0
 17 16  2  0  0  0  0
 18 17  1  0  0  0  0
 18 20  2  0  0  0  0
 19 18  1  0  0  0  0
 20 21  1  0  0  0  0
 20 26  1  0  0  0  0
 21 23  1  0  0  0  0
 22 21  1  0  0  0  0
 23 24  1  0  0  0  0
 23 25  2  0  0  0  0
 26 27  2  0  0  0  0
 26 25  1  0  0  0  0
 28 33  1  0  0  0  0
 28  1  1  0  0  0  0
 29 38  1  0  0  0  0
 30 29  1  0  0  0  0
 30 35  1  0  0  0  0
 31 30  2  0  0  0  0
 32 33  2  0  0  0  0
 32 31  1  0  0  0  0
 33 34  1  0  0  0  0
 34 29  2  0  0  0  0
 36 31  1  0  0  0  0
 37 32  1  0  0  0  0
 38 41  1  0  0  0  0
 38 39  2  0  0  0  0
 40 45  1  0  0  0  0
 40 46  1  0  0  0  0
 41 40  2  0  0  0  0
 42 43  2  0  0  0  0
 42 41  1  0  0  0  0
 43 44  1  0  0  0  0
 44 48  1  0  0  0  0
 44 45  2  0  0  0  0
 47 42  1  0  0  0  0
M  END
>  <minimizedAffinity>
-6.01951361

$$$$

 OpenBabel03262522173D

 48 52  0  0  1  0  0  0  0  0999 V2000
   36.7110   33.4430   33.5200 C   0  0  0  0  0  0  0  0  0  0  0  0
   37.6790   33.1740   33.0890 H   0  0  0  0  0  0  0  0  0  0  0  0
   36.5540   34.5500   33.4310 H   0  0  0  0  0  0  0  0  0  0  0  0
   34.8060   32.8280   36.4400 C   0  0  1  0  0  0  0  0  0  0  0  0
   35.4830   32.1520   35.2580 C   0  0  0  0  0  0  0  0  0  0  0  0
   36.6140   33.1210   34.9900 C   0  0  2  0  0  0  0  0  0  0  0  0
   36.4210   34.2370   35.7530 O   0  0  0  0  0  0  0  0  0  0  0  0
   35.0840   34.2880   36.1190 C   0  0  0  0  0  0  0  0  0  0  0  0
   35.3600   32.6030   37.3750 H   0  0  0  0  0  0  0  0  0  0  0  0
   35.8800   31.1830   35.6290 H   0  0  0  0  0  0  0  0  0  0  0  0
   34.7880   32.0760   34.4220 H   0  0  0  0  0  0  0  0  0  0  0  0
   37.5650   32.6510   35.3250 H   0  0  0  0  0  0  0  0  0  0  0  0
   34.9140   34.9580   36.9630 H   0  0  0  0  0  0  0  0  0  0  0  0
   34.4450   34.5350   35.2510 H   0  0  0  0  0  0  0  0  0  0  0  0
   33.4510   32.5660   36.4740 O   0  0  0  0  0  0  0  0  0  0  0  0
   32.5480   30.9110   35.0790 C   0  0  0  0  0  3  0  0  0  0  0  0
   32.8280   31.3600   36.3610 C   0  0  0  0  0  0  0  0  0  0  0  0
   32.4580   30.5600   37.4240 C   0  0  0  0  0  0  0  0  0  0  0  0
   32.6640   30.8850   38.4180 H   0  0  0  0  0  0  0  0  0  0  0  0
   31.8230   29.3320   37.3120 C   0  0  0  0  0  0  0  0  0  0  0  0
   31.3950   28.4310   38.2110 N   0  0  0  0  0  0  0  0  0  0  0  0
   31.4640   28.4860   39.2550 H   0  0  0  0  0  0  0  0  0  0  0  0
   30.8380   27.4000   37.5140 C   0  0  0  0  0  0  0  0  0  0  0  0
   30.3950   26.5040   37.9420 H   0  0  0  0  0  0  0  0  0  0  0  0
   30.9310   27.6820   36.1550 C   0  0  0  0  0  3  0  0  0  0  0  0
   31.5540   28.9050   36.0110 C   0  0  0  0  0  0  0  0  0  0  0  0
   31.9090   29.6780   34.9350 C   0  0  0  0  0  3  0  0  0  0  0  0
   35.2900   32.6660   32.6940 S   0  0  0  0  0  0  0  0  0  0  0  0
   36.5650   29.0350   31.7160 C   0  0  0  0  0  0  0  0  0  0  0  0
   37.0160   29.1690   30.3910 C   0  0  0  0  0  0  0  0  0  0  0  0
   36.9400   30.3940   29.7470 C   0  0  0  0  0  0  0  0  0  0  0  0
   36.4160   31.4310   30.4660 C   0  0  0  0  0  0  0  0  0  0  0  0
   35.9880   31.2720   31.7470 C   0  0  0  0  0  0  0  0  0  0  0  0
   36.0510   30.0860   32.3960 N   0  0  0  0  0  0  0  0  0  0  0  0
   37.4250   28.3200   29.8570 H   0  0  0  0  0  0  0  0  0  0  0  0
   37.2650   30.5690   28.7360 H   0  0  0  0  0  0  0  0  0  0  0  0
   36.3130   32.4370   30.0510 H   0  0  0  0  0  0  0  0  0  0  0  0
   36.6760   27.7330   32.3170 C   0  0  0  0  0  0  0  0  0  0  0  0
   35.9960   26.7880   31.9210 O   0  0  0  0  0  0  0  0  0  0  0  0
   38.9460   27.1670   33.1070 C   0  0  0  0  0  0  0  0  0  0  0  0
   37.5970   27.4460   33.4290 C   0  0  0  0  0  0  0  0  0  0  0  0
   37.2000   27.4370   34.7660 C   0  0  0  0  0  0  0  0  0  0  0  0
   38.1330   27.1570   35.7260 N   0  0  0  0  0  0  0  0  0  0  0  0
   39.4170   26.8950   35.3910 C   0  0  0  0  0  0  0  0  0  0  0  0
   39.8140   26.9000   34.1080 N   0  0  0  0  0  0  0  0  0  0  0  0
   39.3210   27.1570   32.0990 H   0  0  0  0  0  0  0  0  0  0  0  0
   36.1650   27.6530   34.9800 H   0  0  0  0  0  0  0  0  0  0  0  0
   40.0640   26.6880   36.2420 H   0  0  0  0  0  0  0  0  0  0  0  0
  1  6  1  0  0  0  0
  2  1  1  0  0  0  0
  3  1  1  0  0  0  0
  4 15  1  0  0  0  0
  4  9  1  1  0  0  0
  5 10  1  0  0  0  0
  5  4  1  0  0  0  0
  6  5  1  0  0  0  0
  6 12  1  1  0  0  0
  6  7  1  0  0  0  0
  7  8  1  0  0  0  0
  8  4  1  0  0  0  0
  8 13  1  0  0  0  0
 11  5  1  0  0  0  0
 14  8  1  0  0  0  0
 16 17  1  0  0  0  0
 17 15  1  0  0  0  0
 17 18  2  0  0  0  0
 18 19  1  0  0  0  0
 20 18  1  0  0  0  0
 20 21  1  0  0  0  0
 21 22  1  0  0  0  0
 23 24  1  0  0  0  0
 23 21  1  0  0  0  0
 25 23  2  0  0  0  0
 26 25  1  0  0  0  0
 26 20  2  0  0  0  0
 27 16  2  0  0  0  0
 27 26  1  0  0  0  0
 28  1  1  0  0  0  0
 29 38  1  0  0  0  0
 29 34  1  0  0  0  0
 30 29  2  0  0  0  0
 31 30  1  0  0  0  0
 31 32  2  0  0  0  0
 32 33  1  0  0  0  0
 33 34  2  0  0  0  0
 33 28  1  0  0  0  0
 35 30  1  0  0  0  0
 36 31  1  0  0  0  0
 37 32  1  0  0  0  0
 38 41  1  0  0  0  0
 39 38  2  0  0  0  0
 40 41  2  0  0  0  0
 40 45  1  0  0  0  0
 41 42  1  0  0  0  0
 42 47  1  0  0  0  0
 42 43  2  0  0  0  0
 44 43  1  0  0  0  0
 44 48  1  0  0  0  0
 45 44  2  0  0  0  0
 46 40  1  0  0  0  0
M  END
>  <minimizedAffinity>
-5.9467206

$$$$

 OpenBabel03262522173D

 48 52  0  0  1  0  0  0  0  0999 V2000
   31.4510   29.3950   33.8290 C   0  0  0  0  0  0  0  0  0  0  0  0
   30.7800   28.6200   33.4500 H   0  0  0  0  0  0  0  0  0  0  0  0
   32.4260   28.9330   34.1380 H   0  0  0  0  0  0  0  0  0  0  0  0
   31.9250   30.9590   36.9690 C   0  0  1  0  0  0  0  0  0  0  0  0
   31.8210   31.2250   35.4760 C   0  0  0  0  0  0  0  0  0  0  0  0
   30.9110   30.0930   35.0520 C   0  0  2  0  0  0  0  0  0  0  0  0
   30.7550   29.2410   36.1080 O   0  0  0  0  0  0  0  0  0  0  0  0
   31.8070   29.4430   36.9900 C   0  0  0  0  0  0  0  0  0  0  0  0
   31.0250   31.3490   37.4890 H   0  0  0  0  0  0  0  0  0  0  0  0
   31.3060   32.2020   35.3610 H   0  0  0  0  0  0  0  0  0  0  0  0
   32.8080   31.1650   35.0170 H   0  0  0  0  0  0  0  0  0  0  0  0
   29.9090   30.5170   34.8190 H   0  0  0  0  0  0  0  0  0  0  0  0
   31.5970   29.0380   37.9800 H   0  0  0  0  0  0  0  0  0  0  0  0
   32.7550   29.0590   36.5700 H   0  0  0  0  0  0  0  0  0  0  0  0
   33.1360   31.3790   37.4820 O   0  0  0  0  0  0  0  0  0  0  0  0
   34.9850   31.1080   36.0680 C   0  0  0  0  0  3  0  0  0  0  0  0
   34.1760   31.9500   36.8140 C   0  0  0  0  0  0  0  0  0  0  0  0
   34.4800   33.2970   36.8280 C   0  0  0  0  0  0  0  0  0  0  0  0
   33.8710   33.9640   37.3950 H   0  0  0  0  0  0  0  0  0  0  0  0
   35.5390   33.8810   36.1490 C   0  0  0  0  0  0  0  0  0  0  0  0
   35.9820   35.1440   36.0440 N   0  0  0  0  0  0  0  0  0  0  0  0
   35.5810   36.0020   36.4930 H   0  0  0  0  0  0  0  0  0  0  0  0
   37.0770   35.1210   35.2320 C   0  0  0  0  0  0  0  0  0  0  0  0
   37.6760   35.9810   34.9420 H   0  0  0  0  0  0  0  0  0  0  0  0
   37.3040   33.8080   34.8320 C   0  0  0  0  0  3  0  0  0  0  0  0
   36.3360   33.0090   35.4050 C   0  0  0  0  0  0  0  0  0  0  0  0
   36.0600   31.6670   35.3730 C   0  0  0  0  0  3  0  0  0  0  0  0
   31.8680   30.6760   32.6080 S   0  0  0  0  0  0  0  0  0  0  0  0
   35.5020   29.1060   32.2950 C   0  0  0  0  0  0  0  0  0  0  0  0
   36.3170   30.1860   31.9150 C   0  0  0  0  0  0  0  0  0  0  0  0
   35.7690   31.4480   31.7390 C   0  0  0  0  0  0  0  0  0  0  0  0
   34.4250   31.5660   31.9560 C   0  0  0  0  0  0  0  0  0  0  0  0
   33.6610   30.5020   32.3230 C   0  0  0  0  0  0  0  0  0  0  0  0
   34.1730   29.2620   32.5000 N   0  0  0  0  0  0  0  0  0  0  0  0
   37.3790   30.0480   31.7540 H   0  0  0  0  0  0  0  0  0  0  0  0
   36.3310   32.3180   31.4500 H   0  0  0  0  0  0  0  0  0  0  0  0
   33.8960   32.5170   31.8450 H   0  0  0  0  0  0  0  0  0  0  0  0
   36.1420   27.8280   32.4580 C   0  0  0  0  0  0  0  0  0  0  0  0
   35.8330   26.8670   31.7570 O   0  0  0  0  0  0  0  0  0  0  0  0
   38.4510   27.1350   32.9920 C   0  0  0  0  0  0  0  0  0  0  0  0
   37.1940   27.5870   33.4590 C   0  0  0  0  0  0  0  0  0  0  0  0
   37.0060   27.7830   34.8270 C   0  0  0  0  0  0  0  0  0  0  0  0
   38.0490   27.5300   35.6760 N   0  0  0  0  0  0  0  0  0  0  0  0
   39.2400   27.0990   35.2040 C   0  0  0  0  0  0  0  0  0  0  0  0
   39.4360   26.9060   33.8890 N   0  0  0  0  0  0  0  0  0  0  0  0
   38.6660   26.9630   31.9520 H   0  0  0  0  0  0  0  0  0  0  0  0
   36.0370   28.1280   35.1520 H   0  0  0  0  0  0  0  0  0  0  0  0
   39.9900   26.9330   35.9750 H   0  0  0  0  0  0  0  0  0  0  0  0
  1  3  1  0  0  0  0
  1  6  1  0  0  0  0
  2  1  1  0  0  0  0
  4  8  1  0  0  0  0
  4 15  1  0  0  0  0
  4  9  1  1  0  0  0
  5  4  1  0  0  0  0
  6 12  1  6  0  0  0
  6  5  1  0  0  0  0
  6  7  1  0  0  0  0
  7  8  1  0  0  0  0
  8 13  1  0  0  0  0
 10  5  1  0  0  0  0
 11  5  1  0  0  0  0
 14  8  1  0  0  0  0
 16 17  1  0  0  0  0
 17 18  2  0  0  0  0
 17 15  1  0  0  0  0
 18 19  1  0  0  0  0
 20 18  1  0  0  0  0
 21 20  1  0  0  0  0
 21 22  1  0  0  0  0
 23 21  1  0  0  0  0
 24 23  1  0  0  0  0
 25 23  2  0  0  0  0
 25 26  1  0  0  0  0
 26 20  2  0  0  0  0
 27 26  1  0  0  0  0
 27 16  2  0  0  0  0
 28  1  1  0  0  0  0
 29 38  1  0  0  0  0
 29 34  1  0  0  0  0
 30 29  2  0  0  0  0
 31 30  1  0  0  0  0
 31 32  2  0  0  0  0
 32 33  1  0  0  0  0
 33 34  2  0  0  0  0
 33 28  1  0  0  0  0
 35 30  1  0  0  0  0
 36 31  1  0  0  0  0
 37 32  1  0  0  0  0
 38 41  1  0  0  0  0
 39 38  2  0  0  0  0
 40 41  2  0  0  0  0
 40 45  1  0  0  0  0
 41 42  1  0  0  0  0
 42 47  1  0  0  0  0
 42 43  2  0  0  0  0
 44 43  1  0  0  0  0
 44 48  1  0  0  0  0
 45 44  2  0  0  0  0
 46 40  1  0  0  0  0
M  END
>  <minimizedAffinity>
-5.9169693

$$$$
