
     RDKit          3D

 36 39  0  0  0  0  0  0  0  0999 V2000
   38.8810   31.8864   47.7676 C   0  0  0  0  0  0  0  0  0  0  0  0
   38.3545   32.1211   49.0133 C   0  0  0  0  0  0  0  0  0  0  0  0
   38.6760   33.3715   49.5601 C   0  0  0  0  0  0  0  0  0  0  0  0
   39.4730   34.2891   48.8684 C   0  0  0  0  0  0  0  0  0  0  0  0
   39.9567   33.9433   47.6019 C   0  0  0  0  0  0  0  0  0  0  0  0
   39.6568   32.7226   47.0410 C   0  0  0  0  0  0  0  0  0  0  0  0
   36.2012   30.9940   49.3767 C   0  0  0  0  0  0  0  0  0  0  0  0
   37.5354   31.1862   49.7318 C   0  0  0  0  0  0  0  0  0  0  0  0
   38.0272   30.4374   50.8023 C   0  0  0  0  0  0  0  0  0  0  0  0
   37.1814   29.5696   51.4324 N   0  0  0  0  0  0  0  0  0  0  0  0
   35.8899   29.4187   51.0482 C   0  0  0  0  0  0  0  0  0  0  0  0
   35.4019   30.1314   50.0207 N   0  0  0  0  0  0  0  0  0  0  0  0
   38.6062   30.6528   47.1456 O   0  0  0  0  0  0  0  0  0  0  0  0
   40.1576   32.4309   45.7919 O   0  0  0  0  0  0  0  0  0  0  0  0
   38.2984   33.6337   50.5415 H   0  0  0  0  0  0  0  0  0  0  0  0
   39.6844   35.2386   49.3473 H   0  0  0  0  0  0  0  0  0  0  0  0
   40.5664   34.7061   47.1299 H   0  0  0  0  0  0  0  0  0  0  0  0
   35.8432   31.5903   48.5386 H   0  0  0  0  0  0  0  0  0  0  0  0
   39.0559   30.5423   51.1257 H   0  0  0  0  0  0  0  0  0  0  0  0
   35.2226   28.7303   51.5496 H   0  0  0  0  0  0  0  0  0  0  0  0
   39.0122   29.7918   47.4756 H   0  0  0  0  0  0  0  0  0  0  0  0
   40.1449   34.3825   44.6212 C   0  0  0  0  0  0  0  0  0  0  0  0
   40.9439   33.3504   45.1229 C   0  0  0  0  0  0  0  0  0  0  0  0
   42.3028   33.3839   44.9013 C   0  0  0  0  0  0  0  0  0  0  0  0
   42.8029   32.5441   45.3319 H   0  0  0  0  0  0  0  0  0  0  0  0
   42.8367   34.4363   44.1899 C   0  0  0  0  0  0  0  0  0  0  0  0
   44.1270   34.6455   43.8730 N   0  0  0  0  0  0  0  0  0  0  0  0
   44.9550   34.0520   44.1068 H   0  0  0  0  0  0  0  0  0  0  0  0
   44.1604   35.7934   43.1783 C   0  0  0  0  0  0  0  0  0  0  0  0
   45.0063   36.3217   42.7355 H   0  0  0  0  0  0  0  0  0  0  0  0
   42.9065   36.3475   43.0312 C   0  0  0  0  0  0  0  0  0  0  0  0
   42.0573   35.4601   43.6903 C   0  0  0  0  0  0  0  0  0  0  0  0
   40.6953   35.4466   43.9002 C   0  0  0  0  0  0  0  0  0  0  0  0
   39.0618   34.4892   44.7176 H   0  0  0  0  0  0  0  0  0  0  0  0
   42.5957   37.2515   42.5341 H   0  0  0  0  0  0  0  0  0  0  0  0
   40.1384   36.2562   43.4963 H   0  0  0  0  0  0  0  0  0  0  0  0
  1  2  2  0
  2  3  1  0
  2  8  1  0
  4  3  2  0
  5  4  1  0
  6  5  2  0
  6  1  1  0
  7  8  2  0
  7 12  1  0
  8  9  1  0
  9 10  2  0
 11 10  1  0
 12 11  2  0
 13  1  1  0
 14  6  1  0
  3 15  1  0
  4 16  1  0
  5 17  1  0
  7 18  1  0
  9 19  1  0
 11 20  1  0
 13 21  1  0
 22 23  2  0
 23 24  1  0
 24 25  1  0
 24 26  2  0
 26 27  1  0
 27 28  1  0
 27 29  1  0
 29 30  1  0
 29 31  2  0
 31 32  1  0
 32 33  2  0
 33 22  1  0
 32 26  1  0
 22 34  1  0
 31 35  1  0
 33 36  1  0
 14 23  1  0
M  ISO  8  15  14  16  14  17  14  18  14  19  14  20  14  21   3  25  15
M  ISO  2  28   5  30  14
M  END
>  <DihAtoms>  (1) 
5,13,22,21

>  <DihDeg>  (1) 
-90.00139267933521

$$$$
