
 OpenBabel03262521083D

 48 51  0  0  1  0  0  0  0  0999 V2000
   37.2530   31.4560   45.7470 C   0  0  2  0  0  0  0  0  0  0  0  0
   38.2770   30.9630   44.8370 C   0  0  0  0  0  0  0  0  0  0  0  0
   39.5790   30.5900   45.5460 C   0  0  0  0  0  0  0  0  0  0  0  0
   40.1500   31.7190   46.3410 C   0  0  0  0  0  0  0  0  0  0  0  0
   39.1080   32.5950   47.0000 C   0  0  0  0  0  0  0  0  0  0  0  0
   37.7680   31.8700   47.1000 C   0  0  2  0  0  0  0  0  0  0  0  0
   36.7980   32.3850   45.2870 H   0  0  0  0  0  0  0  0  0  0  0  0
   38.6070   31.7660   44.1020 H   0  0  0  0  0  0  0  0  0  0  0  0
   38.0670   30.0980   44.1930 H   0  0  0  0  0  0  0  0  0  0  0  0
   40.3030   30.4010   44.7180 H   0  0  0  0  0  0  0  0  0  0  0  0
   39.5210   29.6340   46.0840 H   0  0  0  0  0  0  0  0  0  0  0  0
   40.7620   31.2690   47.1770 H   0  0  0  0  0  0  0  0  0  0  0  0
   40.8560   32.3670   45.7780 H   0  0  0  0  0  0  0  0  0  0  0  0
   39.3790   32.9220   48.0180 H   0  0  0  0  0  0  0  0  0  0  0  0
   38.9300   33.4850   46.3600 H   0  0  0  0  0  0  0  0  0  0  0  0
   37.0590   32.6410   47.4910 H   0  0  0  0  0  0  0  0  0  0  0  0
   36.1160   30.5580   45.9710 C   0  0  0  0  0  0  0  0  0  0  0  0
   35.7410   29.8100   44.8500 C   0  0  0  0  0  0  0  0  0  0  0  0
   34.6790   28.9350   45.0130 C   0  0  0  0  0  0  0  0  0  0  0  0
   34.0600   28.8420   46.2270 N   0  0  0  0  0  0  0  0  0  0  0  0
   34.4530   29.5810   47.2790 C   0  0  0  0  0  0  0  0  0  0  0  0
   35.4520   30.3980   47.1100 N   0  0  0  0  0  0  0  0  0  0  0  0
   36.0650   29.7310   43.8350 H   0  0  0  0  0  0  0  0  0  0  0  0
   34.2270   28.2760   44.3150 H   0  0  0  0  0  0  0  0  0  0  0  0
   33.9530   29.5000   48.2420 H   0  0  0  0  0  0  0  0  0  0  0  0
   37.9130   30.9080   48.0950 N   0  0  0  0  0  0  0  0  0  0  0  0
   38.7750   30.3530   48.1240 H   0  0  0  0  0  0  0  0  0  0  0  0
   37.4840   31.3310   49.6810 S   0  0  1  0  0  0  0  0  0  0  0  0
   38.6960   30.9340   50.5310 O   0  0  0  0  0  0  0  0  0  0  0  0
   38.6720   30.2960   51.2890 H   0  0  0  0  0  0  0  0  0  0  0  0
   37.2200   32.7580   49.8520 O   0  0  0  0  0  0  0  0  0  0  0  0
   35.5870   34.2720   49.5010 C   0  0  0  0  0  3  0  0  0  0  0  0
   36.5090   33.7570   50.4260 C   0  0  0  0  0  0  0  0  0  0  0  0
   36.4800   34.3600   51.6620 C   0  0  0  0  0  0  0  0  0  0  0  0
   37.2290   33.8930   52.3080 H   0  0  0  0  0  0  0  0  0  0  0  0
   35.6330   35.3810   51.9900 C   0  0  0  0  0  0  0  0  0  0  0  0
   35.5160   36.0400   53.1490 N   0  0  0  0  0  0  0  0  0  0  0  0
   36.0550   35.8950   54.0280 H   0  0  0  0  0  0  0  0  0  0  0  0
   34.5410   36.9630   52.9880 C   0  0  0  0  0  0  0  0  0  0  0  0
   34.1550   37.6910   53.7030 H   0  0  0  0  0  0  0  0  0  0  0  0
   34.0450   36.8800   51.7150 C   0  0  0  0  0  3  0  0  0  0  0  0
   34.7260   35.8770   51.0600 C   0  0  0  0  0  0  0  0  0  0  0  0
   34.7110   35.3080   49.8010 C   0  0  0  0  0  3  0  0  0  0  0  0
   36.2110   30.4070   50.2660 O   0  0  0  0  0  0  0  0  0  0  0  0
   36.5980   29.5540   51.2870 C   0  0  0  0  0  0  0  0  0  0  0  0
   37.5180   28.6550   50.8090 F   0  0  0  0  0  0  0  0  0  0  0  0
   37.2460   30.3080   52.2250 F   0  0  0  0  0  0  0  0  0  0  0  0
   35.5320   28.9410   51.9350 F   0  0  0  0  0  0  0  0  0  0  0  0
  1  7  1  6  0  0  0
  1 17  1  0  0  0  0
  1  6  1  0  0  0  0
  2  3  1  0  0  0  0
  2  1  1  0  0  0  0
  3 11  1  0  0  0  0
  3  4  1  0  0  0  0
  4  5  1  0  0  0  0
  4 12  1  0  0  0  0
  5  6  1  0  0  0  0
  5 14  1  0  0  0  0
  6 16  1  1  0  0  0
  6 26  1  0  0  0  0
  8  2  1  0  0  0  0
  9  2  1  0  0  0  0
 10  3  1  0  0  0  0
 13  4  1  0  0  0  0
 15  5  1  0  0  0  0
 17 22  1  0  0  0  0
 18 19  1  0  0  0  0
 18 17  2  0  0  0  0
 19 20  2  0  0  0  0
 20 21  1  0  0  0  0
 21 25  1  0  0  0  0
 22 21  2  0  0  0  0
 23 18  1  0  0  0  0
 24 19  1  0  0  0  0
 26 27  1  0  0  0  0
 26 28  1  0  0  0  0
 28 31  1  1  0  0  0
 28 44  1  0  0  0  0
 28 29  1  0  0  0  0
 29 30  1  0  0  0  0
 31 33  1  0  0  0  0
 32 43  2  0  0  0  0
 32 33  1  0  0  0  0
 33 34  2  0  0  0  0
 34 36  1  0  0  0  0
 34 35  1  0  0  0  0
 36 37  1  0  0  0  0
 37 38  1  0  0  0  0
 39 37  1  0  0  0  0
 39 40  1  0  0  0  0
 41 39  2  0  0  0  0
 42 41  1  0  0  0  0
 42 36  2  0  0  0  0
 43 42  1  0  0  0  0
 44 45  1  0  0  0  0
 45 48  1  0  0  0  0
 45 47  1  0  0  0  0
 46 45  1  0  0  0  0
M  END
>  <minimizedAffinity>
5.23048353

>  <minimizedRMSD>
0.772060215

$$$$
