REMARK  Name = 
REMARK  4 active torsions:
REMARK  status: ('A' for Active; 'I' for Inactive)
REMARK    1  A    between atoms: C_1  and  C_8
REMARK    2  A    between atoms: C_4  and  O_13
REMARK    3  A    between atoms: O_13  and  C_14
REMARK    4  A    between atoms: N_17  and  C_28
REMARK                            x       y       z     vdW  Elec       q    Type
REMARK                         _______ _______ _______ _____ _____    ______ ____
ROOT
ATOM      1  O   UNL     1      37.755  30.050  49.185  0.00  0.00    +0.000 OA
ENDROOT
BRANCH   1   5
ATOM      2  C   UNL     1      33.846  28.788  48.272  0.00  0.00    +0.000 A 
ATOM      3  C   UNL     1      34.438  28.429  49.433  0.00  0.00    +0.000 A 
ATOM      4  C   UNL     1      35.705  28.794  49.812  0.00  0.00    +0.000 A 
ATOM      5  C   UNL     1      36.464  29.578  48.986  0.00  0.00    +0.000 A 
ATOM      6  C   UNL     1      35.855  29.954  47.778  0.00  0.00    +0.000 A 
ATOM      7  N   UNL     1      34.599  29.566  47.453  0.00  0.00    +0.000 NA
ATOM      8  H   UNL     1      33.922  27.809  50.155  0.00  0.00    +0.000 HD
ATOM      9  H   UNL     1      36.190  28.513  50.737  0.00  0.00    +0.000 HD
ATOM     10  H   UNL     1      36.301  30.577  46.992  0.00  0.00    +0.000 HD
BRANCH   2  12
ATOM     11  C   UNL     1      31.635  27.655  48.706  0.00  0.00    +0.000 A 
ATOM     12  C   UNL     1      32.510  28.392  47.894  0.00  0.00    +0.000 A 
ATOM     13  C   UNL     1      32.029  28.751  46.644  0.00  0.00    +0.000 A 
ATOM     14  N   UNL     1      30.767  28.383  46.275  0.00  0.00    +0.000 NA
ATOM     15  C   UNL     1      29.977  27.675  47.102  0.00  0.00    +0.000 A 
ATOM     16  N   UNL     1      30.410  27.313  48.314  0.00  0.00    +0.000 NA
ATOM     17  H   UNL     1      31.989  27.368  49.677  0.00  0.00    +0.000 HD
ATOM     18  H   UNL     1      32.625  29.319  45.943  0.00  0.00    +0.000 HD
ATOM     19  H   UNL     1      29.009  27.468  46.651  0.00  0.00    +0.000 HD
ENDBRANCH   2  12
ENDBRANCH   1   5
BRANCH   1  20
ATOM     20  C   UNL     1      38.155  31.308  48.790  0.00  0.00    +0.000 A 
ATOM     21  C   UNL     1      37.861  32.339  49.684  0.00  0.00    +0.000 A 
ATOM     22  C   UNL     1      38.336  33.519  49.118  0.00  0.00    +0.000 A 
ATOM     23  N   UNL     1      38.888  33.174  47.930  0.00  0.00    +0.000 N 
ATOM     24  N   UNL     1      38.778  31.881  47.746  0.00  0.00    +0.000 NA
ATOM     25  H   UNL     1      37.374  32.393  50.655  0.00  0.00    +0.000 HD
ATOM     26  H   UNL     1      38.290  34.541  49.523  0.00  0.00    +0.000 HD
BRANCH  23  28
ATOM     27  C   UNL     1      39.348  35.497  47.160  0.00  0.00    +0.000 A 
ATOM     28  C   UNL     1      39.486  34.121  47.052  0.00  0.00    +0.000 A 
ATOM     29  C   UNL     1      40.246  33.539  46.041  0.00  0.00    +0.000 A 
ATOM     30  H   UNL     1      40.385  32.482  45.912  0.00  0.00    +0.000 HD
ATOM     31  C   UNL     1      40.881  34.366  45.118  0.00  0.00    +0.000 A 
ATOM     32  N   UNL     1      41.681  34.178  44.030  0.00  0.00    +0.000 N 
ATOM     33  H   UNL     1      41.932  33.199  43.742  0.00  0.00    +0.000 HD
ATOM     34  C   UNL     1      42.012  35.371  43.504  0.00  0.00    +0.000 A 
ATOM     35  H   UNL     1      42.646  35.486  42.626  0.00  0.00    +0.000 HD
ATOM     36  C   UNL     1      41.443  36.400  44.225  0.00  0.00    +0.000 A 
ATOM     37  C   UNL     1      40.736  35.738  45.236  0.00  0.00    +0.000 A 
ATOM     38  C   UNL     1      39.975  36.324  46.248  0.00  0.00    +0.000 A 
ENDBRANCH  23  28
ENDBRANCH   1  20
TORSDOF 4
