
 OpenBabel03262522153D

 48 52  0  0  1  0  0  0  0  0999 V2000
   39.3980   32.9020   43.8670 C   0  0  0  0  0  0  0  0  0  0  0  0
   38.3600   32.6800   44.1250 H   0  0  0  0  0  0  0  0  0  0  0  0
   39.4270   33.6770   43.0560 H   0  0  0  0  0  0  0  0  0  0  0  0
   39.4590   29.5500   42.7290 C   0  0  1  0  0  0  0  0  0  0  0  0
   39.3230   30.9930   42.2700 C   0  0  0  0  0  0  0  0  0  0  0  0
   40.1380   31.7020   43.3290 C   0  0  2  0  0  0  0  0  0  0  0  0
   40.4520   30.8060   44.3100 O   0  0  0  0  0  0  0  0  0  0  0  0
   39.5600   29.7460   44.2340 C   0  0  0  0  0  0  0  0  0  0  0  0
   40.4360   29.1370   42.4020 H   0  0  0  0  0  0  0  0  0  0  0  0
   39.8240   31.0630   41.2820 H   0  0  0  0  0  0  0  0  0  0  0  0
   38.2740   31.2900   42.2790 H   0  0  0  0  0  0  0  0  0  0  0  0
   41.0940   32.0380   42.8690 H   0  0  0  0  0  0  0  0  0  0  0  0
   39.9230   28.8640   44.7620 H   0  0  0  0  0  0  0  0  0  0  0  0
   38.5510   30.0520   44.5680 H   0  0  0  0  0  0  0  0  0  0  0  0
   38.3530   28.7970   42.3890 O   0  0  0  0  0  0  0  0  0  0  0  0
   39.1590   26.6900   43.0290 C   0  0  0  0  0  3  0  0  0  0  0  0
   38.0820   27.5070   42.7290 C   0  0  0  0  0  0  0  0  0  0  0  0
   36.8150   26.9590   42.7930 C   0  0  0  0  0  0  0  0  0  0  0  0
   35.9700   27.5680   42.5660 H   0  0  0  0  0  0  0  0  0  0  0  0
   36.5320   25.6450   43.1380 C   0  0  0  0  0  0  0  0  0  0  0  0
   35.3900   24.9480   43.2530 N   0  0  0  0  0  0  0  0  0  0  0  0
   34.4130   25.2890   43.0920 H   0  0  0  0  0  0  0  0  0  0  0  0
   35.7290   23.6820   43.6270 C   0  0  0  0  0  0  0  0  0  0  0  0
   35.0370   22.8610   43.8080 H   0  0  0  0  0  0  0  0  0  0  0  0
   37.1130   23.6070   43.7430 C   0  0  0  0  0  3  0  0  0  0  0  0
   37.6370   24.8460   43.4360 C   0  0  0  0  0  0  0  0  0  0  0  0
   38.9060   25.3620   43.3800 C   0  0  0  0  0  3  0  0  0  0  0  0
   40.3750   33.5780   45.2420 S   0  0  0  0  0  0  0  0  0  0  0  0
   37.7860   31.8720   47.7230 C   0  0  0  0  0  0  0  0  0  0  0  0
   38.0020   32.5210   48.9520 C   0  0  0  0  0  0  0  0  0  0  0  0
   38.9620   33.5150   49.0590 C   0  0  0  0  0  0  0  0  0  0  0  0
   39.6630   33.8130   47.9240 C   0  0  0  0  0  0  0  0  0  0  0  0
   39.4320   33.1690   46.7480 C   0  0  0  0  0  0  0  0  0  0  0  0
   38.5000   32.1960   46.6200 N   0  0  0  0  0  0  0  0  0  0  0  0
   37.4230   32.2530   49.8270 H   0  0  0  0  0  0  0  0  0  0  0  0
   39.1800   34.0520   49.9650 H   0  0  0  0  0  0  0  0  0  0  0  0
   40.4400   34.5810   47.9020 H   0  0  0  0  0  0  0  0  0  0  0  0
   36.7730   30.8520   47.6890 C   0  0  0  0  0  0  0  0  0  0  0  0
   36.3480   30.4110   46.6240 O   0  0  0  0  0  0  0  0  0  0  0  0
   37.0590   29.6160   49.8080 C   0  0  0  0  0  0  0  0  0  0  0  0
   36.1860   30.2740   48.9090 C   0  0  0  0  0  0  0  0  0  0  0  0
   34.8260   30.3460   49.2100 C   0  0  0  0  0  0  0  0  0  0  0  0
   34.3790   29.7760   50.3700 N   0  0  0  0  0  0  0  0  0  0  0  0
   35.2340   29.1540   51.2130 C   0  0  0  0  0  0  0  0  0  0  0  0
   36.5470   29.0760   50.9370 N   0  0  0  0  0  0  0  0  0  0  0  0
   38.1170   29.5230   49.6400 H   0  0  0  0  0  0  0  0  0  0  0  0
   34.1860   30.8540   48.5060 H   0  0  0  0  0  0  0  0  0  0  0  0
   34.7600   28.7400   52.1020 H   0  0  0  0  0  0  0  0  0  0  0  0
  1  2  1  0  0  0  0
  1 28  1  0  0  0  0
  3  1  1  0  0  0  0
  4  9  1  6  0  0  0
  4  8  1  0  0  0  0
  5 11  1  0  0  0  0
  5  4  1  0  0  0  0
  5  6  1  0  0  0  0
  6 12  1  6  0  0  0
  6  1  1  0  0  0  0
  6  7  1  0  0  0  0
  8  7  1  0  0  0  0
  8 14  1  0  0  0  0
  8 13  1  0  0  0  0
 10  5  1  0  0  0  0
 15  4  1  0  0  0  0
 15 17  1  0  0  0  0
 16 27  1  0  0  0  0
 17 18  1  0  0  0  0
 17 16  2  0  0  0  0
 18 20  2  0  0  0  0
 19 18  1  0  0  0  0
 20 21  1  0  0  0  0
 20 26  1  0  0  0  0
 21 23  1  0  0  0  0
 22 21  1  0  0  0  0
 23 25  2  0  0  0  0
 23 24  1  0  0  0  0
 26 25  1  0  0  0  0
 27 26  2  0  0  0  0
 28 33  1  0  0  0  0
 29 30  1  0  0  0  0
 30 31  2  0  0  0  0
 30 35  1  0  0  0  0
 31 36  1  0  0  0  0
 32 31  1  0  0  0  0
 33 32  2  0  0  0  0
 34 33  1  0  0  0  0
 34 29  2  0  0  0  0
 37 32  1  0  0  0  0
 38 29  1  0  0  0  0
 38 41  1  0  0  0  0
 39 38  2  0  0  0  0
 40 45  1  0  0  0  0
 41 42  1  0  0  0  0
 41 40  2  0  0  0  0
 42 43  2  0  0  0  0
 43 44  1  0  0  0  0
 44 48  1  0  0  0  0
 45 44  2  0  0  0  0
 46 40  1  0  0  0  0
 47 42  1  0  0  0  0
M  END
>  <minimizedAffinity>
-5.77817202

>  <minimizedRMSD>
1.84061956

$$$$
