
 OpenBabel03262521083D

 48 51  0  0  1  0  0  0  0  0999 V2000
   37.3400   31.4490   45.5460 C   0  0  2  0  0  0  0  0  0  0  0  0
   38.3780   30.9630   44.6480 C   0  0  0  0  0  0  0  0  0  0  0  0
   39.6640   30.5700   45.3760 C   0  0  0  0  0  0  0  0  0  0  0  0
   40.2270   31.6820   46.2000 C   0  0  0  0  0  0  0  0  0  0  0  0
   39.1780   32.5540   46.8530 C   0  0  0  0  0  0  0  0  0  0  0  0
   37.8310   31.8370   46.9150 C   0  0  2  0  0  0  0  0  0  0  0  0
   36.8990   32.3890   45.0940 H   0  0  0  0  0  0  0  0  0  0  0  0
   38.7270   31.7770   43.9330 H   0  0  0  0  0  0  0  0  0  0  0  0
   38.1750   30.1110   43.9860 H   0  0  0  0  0  0  0  0  0  0  0  0
   40.4020   30.3910   44.5590 H   0  0  0  0  0  0  0  0  0  0  0  0
   39.5890   29.6060   45.8960 H   0  0  0  0  0  0  0  0  0  0  0  0
   40.8200   31.2140   47.0400 H   0  0  0  0  0  0  0  0  0  0  0  0
   40.9470   32.3340   45.6620 H   0  0  0  0  0  0  0  0  0  0  0  0
   39.4310   32.8630   47.8820 H   0  0  0  0  0  0  0  0  0  0  0  0
   39.0180   33.4560   46.2260 H   0  0  0  0  0  0  0  0  0  0  0  0
   37.1200   32.6060   47.3060 H   0  0  0  0  0  0  0  0  0  0  0  0
   36.1930   30.5550   45.7330 C   0  0  0  0  0  0  0  0  0  0  0  0
   35.8780   29.7780   44.6150 C   0  0  0  0  0  0  0  0  0  0  0  0
   34.8090   28.9050   44.7430 C   0  0  0  0  0  0  0  0  0  0  0  0
   34.1270   28.8430   45.9250 N   0  0  0  0  0  0  0  0  0  0  0  0
   34.4640   29.6100   46.9770 C   0  0  0  0  0  0  0  0  0  0  0  0
   35.4700   30.4230   46.8400 N   0  0  0  0  0  0  0  0  0  0  0  0
   36.2540   29.6730   43.6200 H   0  0  0  0  0  0  0  0  0  0  0  0
   34.3940   28.2270   44.0400 H   0  0  0  0  0  0  0  0  0  0  0  0
   33.9130   29.5530   47.9140 H   0  0  0  0  0  0  0  0  0  0  0  0
   37.9510   30.8570   47.8970 N   0  0  0  0  0  0  0  0  0  0  0  0
   38.7980   30.2800   47.9190 H   0  0  0  0  0  0  0  0  0  0  0  0
   37.5310   31.2680   49.4890 S   0  0  1  0  0  0  0  0  0  0  0  0
   38.7300   30.8270   50.3350 O   0  0  0  0  0  0  0  0  0  0  0  0
   38.6880   30.1780   51.0830 H   0  0  0  0  0  0  0  0  0  0  0  0
   37.3040   32.7000   49.6800 O   0  0  0  0  0  0  0  0  0  0  0  0
   36.8340   33.9170   51.5180 C   0  0  0  0  0  3  0  0  0  0  0  0
   36.5430   33.7110   50.1600 C   0  0  0  0  0  0  0  0  0  0  0  0
   35.5870   34.5540   49.6430 C   0  0  0  0  0  0  0  0  0  0  0  0
   35.4310   34.3160   48.5860 H   0  0  0  0  0  0  0  0  0  0  0  0
   34.9540   35.5220   50.3710 C   0  0  0  0  0  0  0  0  0  0  0  0
   34.0150   36.3930   49.9780 N   0  0  0  0  0  0  0  0  0  0  0  0
   33.5890   36.4960   49.0360 H   0  0  0  0  0  0  0  0  0  0  0  0
   33.7000   37.1500   51.0530 C   0  0  0  0  0  0  0  0  0  0  0  0
   32.9800   37.9660   51.1350 H   0  0  0  0  0  0  0  0  0  0  0  0
   34.4470   36.7490   52.1260 C   0  0  0  0  0  3  0  0  0  0  0  0
   35.2560   35.7110   51.7140 C   0  0  0  0  0  0  0  0  0  0  0  0
   36.2100   34.8910   52.2860 C   0  0  0  0  0  3  0  0  0  0  0  0
   36.2320   30.3700   50.0580 O   0  0  0  0  0  0  0  0  0  0  0  0
   36.5620   29.5960   51.1590 C   0  0  0  0  0  0  0  0  0  0  0  0
   37.4800   28.6440   50.7900 F   0  0  0  0  0  0  0  0  0  0  0  0
   37.1920   30.4120   52.0570 F   0  0  0  0  0  0  0  0  0  0  0  0
   35.4610   29.0580   51.8130 F   0  0  0  0  0  0  0  0  0  0  0  0
  1  7  1  6  0  0  0
  1 17  1  0  0  0  0
  1  6  1  0  0  0  0
  2  3  1  0  0  0  0
  2  1  1  0  0  0  0
  3 11  1  0  0  0  0
  3  4  1  0  0  0  0
  4  5  1  0  0  0  0
  4 12  1  0  0  0  0
  5  6  1  0  0  0  0
  5 14  1  0  0  0  0
  6 16  1  1  0  0  0
  6 26  1  0  0  0  0
  8  2  1  0  0  0  0
  9  2  1  0  0  0  0
 10  3  1  0  0  0  0
 13  4  1  0  0  0  0
 15  5  1  0  0  0  0
 17 22  1  0  0  0  0
 18 19  1  0  0  0  0
 18 17  2  0  0  0  0
 19 20  2  0  0  0  0
 20 21  1  0  0  0  0
 21 25  1  0  0  0  0
 22 21  2  0  0  0  0
 23 18  1  0  0  0  0
 24 19  1  0  0  0  0
 26 27  1  0  0  0  0
 26 28  1  0  0  0  0
 28 31  1  1  0  0  0
 28 44  1  0  0  0  0
 28 29  1  0  0  0  0
 29 30  1  0  0  0  0
 31 33  1  0  0  0  0
 32 43  1  0  0  0  0
 33 32  2  0  0  0  0
 34 33  1  0  0  0  0
 34 36  2  0  0  0  0
 35 34  1  0  0  0  0
 36 42  1  0  0  0  0
 37 36  1  0  0  0  0
 37 39  1  0  0  0  0
 38 37  1  0  0  0  0
 39 40  1  0  0  0  0
 39 41  2  0  0  0  0
 42 41  1  0  0  0  0
 42 43  2  0  0  0  0
 44 45  1  0  0  0  0
 45 48  1  0  0  0  0
 45 47  1  0  0  0  0
 46 45  1  0  0  0  0
M  END
>  <minimizedAffinity>
3.51656079

>  <minimizedRMSD>
0.726994455

$$$$
