
 OpenBabel03262522153D

 48 52  0  0  1  0  0  0  0  0999 V2000
   39.4280   32.9230   43.9210 C   0  0  0  0  0  0  0  0  0  0  0  0
   38.3830   32.7230   44.1690 H   0  0  0  0  0  0  0  0  0  0  0  0
   39.4820   33.7050   43.1190 H   0  0  0  0  0  0  0  0  0  0  0  0
   39.4270   29.5690   42.7870 C   0  0  1  0  0  0  0  0  0  0  0  0
   39.3060   31.0140   42.3280 C   0  0  0  0  0  0  0  0  0  0  0  0
   40.1440   31.7120   43.3760 C   0  0  2  0  0  0  0  0  0  0  0  0
   40.4560   30.8120   44.3550 O   0  0  0  0  0  0  0  0  0  0  0  0
   39.5470   29.7650   44.2900 C   0  0  0  0  0  0  0  0  0  0  0  0
   40.3930   29.1420   42.4480 H   0  0  0  0  0  0  0  0  0  0  0  0
   39.7970   31.0750   41.3330 H   0  0  0  0  0  0  0  0  0  0  0  0
   38.2620   31.3260   42.3480 H   0  0  0  0  0  0  0  0  0  0  0  0
   41.0990   32.0330   42.9050 H   0  0  0  0  0  0  0  0  0  0  0  0
   39.9030   28.8790   44.8150 H   0  0  0  0  0  0  0  0  0  0  0  0
   38.5480   30.0870   44.6350 H   0  0  0  0  0  0  0  0  0  0  0  0
   38.3050   28.8320   42.4610 O   0  0  0  0  0  0  0  0  0  0  0  0
   36.7180   27.1340   42.7590 C   0  0  0  0  0  3  0  0  0  0  0  0
   38.0460   27.5280   42.7520 C   0  0  0  0  0  0  0  0  0  0  0  0
   39.0060   26.5760   43.0370 C   0  0  0  0  0  0  0  0  0  0  0  0
   40.0360   26.8580   43.0360 H   0  0  0  0  0  0  0  0  0  0  0  0
   38.7460   25.2460   43.3330 C   0  0  0  0  0  0  0  0  0  0  0  0
   39.5320   24.1980   43.6300 N   0  0  0  0  0  0  0  0  0  0  0  0
   40.5760   24.1820   43.7010 H   0  0  0  0  0  0  0  0  0  0  0  0
   38.7130   23.1270   43.8300 C   0  0  0  0  0  0  0  0  0  0  0  0
   39.0290   22.1200   44.0870 H   0  0  0  0  0  0  0  0  0  0  0  0
   37.3950   23.5360   43.6490 C   0  0  0  0  0  3  0  0  0  0  0  0
   37.4000   24.8780   43.3340 C   0  0  0  0  0  0  0  0  0  0  0  0
   36.4250   25.8000   43.0540 C   0  0  0  0  0  3  0  0  0  0  0  0
   40.4100   33.5610   45.3120 S   0  0  0  0  0  0  0  0  0  0  0  0
   37.7810   31.8730   47.7620 C   0  0  0  0  0  0  0  0  0  0  0  0
   37.9760   32.5310   48.9900 C   0  0  0  0  0  0  0  0  0  0  0  0
   38.9340   33.5260   49.1050 C   0  0  0  0  0  0  0  0  0  0  0  0
   39.6530   33.8160   47.9790 C   0  0  0  0  0  0  0  0  0  0  0  0
   39.4420   33.1630   46.8050 C   0  0  0  0  0  0  0  0  0  0  0  0
   38.5130   32.1880   46.6690 N   0  0  0  0  0  0  0  0  0  0  0  0
   37.3830   32.2700   49.8580 H   0  0  0  0  0  0  0  0  0  0  0  0
   39.1370   34.0710   50.0100 H   0  0  0  0  0  0  0  0  0  0  0  0
   40.4310   34.5840   47.9640 H   0  0  0  0  0  0  0  0  0  0  0  0
   36.7690   30.8520   47.7200 C   0  0  0  0  0  0  0  0  0  0  0  0
   36.3500   30.4130   46.6510 O   0  0  0  0  0  0  0  0  0  0  0  0
   37.0440   29.6290   49.8480 C   0  0  0  0  0  0  0  0  0  0  0  0
   36.1740   30.2710   48.9350 C   0  0  0  0  0  0  0  0  0  0  0  0
   34.8100   30.3260   49.2190 C   0  0  0  0  0  0  0  0  0  0  0  0
   34.3560   29.7550   50.3760 N   0  0  0  0  0  0  0  0  0  0  0  0
   35.2080   29.1480   51.2310 C   0  0  0  0  0  0  0  0  0  0  0  0
   36.5250   29.0870   50.9720 N   0  0  0  0  0  0  0  0  0  0  0  0
   38.1050   29.5500   49.6930 H   0  0  0  0  0  0  0  0  0  0  0  0
   34.1720   30.8230   48.5040 H   0  0  0  0  0  0  0  0  0  0  0  0
   34.7290   28.7310   52.1160 H   0  0  0  0  0  0  0  0  0  0  0  0
  1  2  1  0  0  0  0
  1 28  1  0  0  0  0
  3  1  1  0  0  0  0
  4  9  1  6  0  0  0
  4  8  1  0  0  0  0
  5 11  1  0  0  0  0
  5  4  1  0  0  0  0
  5  6  1  0  0  0  0
  6 12  1  6  0  0  0
  6  1  1  0  0  0  0
  6  7  1  0  0  0  0
  8  7  1  0  0  0  0
  8 14  1  0  0  0  0
  8 13  1  0  0  0  0
 10  5  1  0  0  0  0
 15 17  1  0  0  0  0
 15  4  1  0  0  0  0
 16 27  1  0  0  0  0
 17 16  2  0  0  0  0
 17 18  1  0  0  0  0
 18 20  2  0  0  0  0
 19 18  1  0  0  0  0
 20 26  1  0  0  0  0
 20 21  1  0  0  0  0
 21 22  1  0  0  0  0
 21 23  1  0  0  0  0
 23 24  1  0  0  0  0
 25 23  2  0  0  0  0
 26 25  1  0  0  0  0
 27 26  2  0  0  0  0
 28 33  1  0  0  0  0
 29 30  1  0  0  0  0
 30 31  2  0  0  0  0
 30 35  1  0  0  0  0
 31 36  1  0  0  0  0
 32 31  1  0  0  0  0
 33 32  2  0  0  0  0
 34 33  1  0  0  0  0
 34 29  2  0  0  0  0
 37 32  1  0  0  0  0
 38 29  1  0  0  0  0
 38 41  1  0  0  0  0
 39 38  2  0  0  0  0
 40 45  1  0  0  0  0
 41 42  1  0  0  0  0
 41 40  2  0  0  0  0
 42 43  2  0  0  0  0
 43 44  1  0  0  0  0
 44 48  1  0  0  0  0
 45 44  2  0  0  0  0
 46 40  1  0  0  0  0
 47 42  1  0  0  0  0
M  END
>  <minimizedAffinity>
-5.97428131

>  <minimizedRMSD>
2.53620362

$$$$
