
 OpenBabel03272502583D

 37 40  0  0  1  0  0  0  0  0999 V2000
   35.9390   29.7420   48.8600 N   0  0  0  0  0  0  0  0  0  0  0  0
   36.6570   28.8890   49.7830 C   0  0  0  0  0  0  0  0  0  0  0  0
   37.1110   29.4790   51.0350 C   0  0  0  0  0  0  0  0  0  0  0  0
   37.3300   30.9320   51.1060 C   0  0  0  0  0  0  0  0  0  0  0  0
   36.5960   31.7190   50.0610 C   0  0  0  0  0  0  0  0  0  0  0  0
   36.6690   30.9970   48.7110 C   0  0  1  0  0  0  0  0  0  0  0  0
   35.9530   28.0310   49.9890 H   0  0  0  0  0  0  0  0  0  0  0  0
   37.5000   28.4020   49.2420 H   0  0  0  0  0  0  0  0  0  0  0  0
   36.4010   29.2000   51.8660 H   0  0  0  0  0  0  0  0  0  0  0  0
   38.0730   28.9860   51.3590 H   0  0  0  0  0  0  0  0  0  0  0  0
   38.4260   31.1880   51.0300 H   0  0  0  0  0  0  0  0  0  0  0  0
   37.0220   31.3610   52.0900 H   0  0  0  0  0  0  0  0  0  0  0  0
   37.0060   32.7430   49.9860 H   0  0  0  0  0  0  0  0  0  0  0  0
   35.5390   31.7890   50.3430 H   0  0  0  0  0  0  0  0  0  0  0  0
   36.2040   31.6670   47.9920 H   0  0  0  0  0  0  0  0  0  0  0  0
   34.7210   29.4010   48.2080 C   0  0  0  0  0  0  0  0  0  0  0  0
   34.2250   30.0470   47.0780 C   0  0  0  0  0  0  0  0  0  0  0  0
   33.0230   29.6130   46.5340 C   0  0  0  0  0  0  0  0  0  0  0  0
   32.3860   28.5770   47.1320 N   0  0  0  0  0  0  0  0  0  0  0  0
   32.8980   27.9780   48.2250 C   0  0  0  0  0  0  0  0  0  0  0  0
   34.0620   28.3940   48.7560 N   0  0  0  0  0  0  0  0  0  0  0  0
   34.7830   30.8480   46.6700 H   0  0  0  0  0  0  0  0  0  0  0  0
   32.7020   30.1570   45.6620 H   0  0  0  0  0  0  0  0  0  0  0  0
   32.3490   27.1440   48.6770 H   0  0  0  0  0  0  0  0  0  0  0  0
   38.0240   30.7660   48.5080 O   0  0  0  0  0  0  0  0  0  0  0  0
   39.0460   32.3090   47.2210 C   0  0  0  0  0  3  0  0  0  0  0  0
   38.6000   30.9930   47.2790 C   0  0  0  0  0  0  0  0  0  0  0  0
   38.7970   30.2040   46.1820 C   0  0  0  0  0  0  0  0  0  0  0  0
   38.4350   29.2140   46.2920 H   0  0  0  0  0  0  0  0  0  0  0  0
   39.4180   30.7010   45.0580 C   0  0  0  0  0  0  0  0  0  0  0  0
   39.6750   30.0310   43.9070 N   0  0  0  0  0  0  0  0  0  0  0  0
   39.4580   29.0430   43.6640 H   0  0  0  0  0  0  0  0  0  0  0  0
   40.3010   30.8860   43.0490 C   0  0  0  0  0  0  0  0  0  0  0  0
   40.6510   30.6820   42.0380 H   0  0  0  0  0  0  0  0  0  0  0  0
   40.4260   32.1110   43.7040 C   0  0  0  0  0  3  0  0  0  0  0  0
   39.8770   32.0170   44.9680 C   0  0  0  0  0  0  0  0  0  0  0  0
   39.6770   32.8140   46.0770 C   0  0  0  0  0  3  0  0  0  0  0  0
  1  2  1  0  0  0  0
  2  7  1  0  0  0  0
  2  3  1  0  0  0  0
  3  4  1  0  0  0  0
  3 10  1  0  0  0  0
  3  9  1  0  0  0  0
  4 12  1  0  0  0  0
  5 14  1  0  0  0  0
  5  4  1  0  0  0  0
  6 15  1  6  0  0  0
  6  1  1  0  0  0  0
  6  5  1  0  0  0  0
  8  2  1  0  0  0  0
 11  4  1  0  0  0  0
 13  5  1  0  0  0  0
 16 21  1  0  0  0  0
 16  1  1  0  0  0  0
 17 16  2  0  0  0  0
 18 17  1  0  0  0  0
 18 19  2  0  0  0  0
 19 20  1  0  0  0  0
 20 24  1  0  0  0  0
 20 21  2  0  0  0  0
 22 17  1  0  0  0  0
 23 18  1  0  0  0  0
 25  6  1  0  0  0  0
 26 27  1  0  0  0  0
 27 25  1  0  0  0  0
 28 29  1  0  0  0  0
 28 27  2  0  0  0  0
 30 28  1  0  0  0  0
 31 30  1  0  0  0  0
 32 31  1  0  0  0  0
 33 35  2  0  0  0  0
 33 31  1  0  0  0  0
 34 33  1  0  0  0  0
 35 36  1  0  0  0  0
 36 30  2  0  0  0  0
 36 37  1  0  0  0  0
 37 26  2  0  0  0  0
M  END
>  <minimizedAffinity>
-6.3492732

>  <minimizedRMSD>
0.674875259

$$$$
