
 OpenBabel03272510123D

 38 42  0  0  0  0  0  0  0  0999 V2000
   36.7730   29.6550   49.9690 O   0  0  0  0  0  0  0  0  0  0  0  0
   32.9030   28.2490   49.1000 C   0  0  0  0  0  0  0  0  0  0  0  0
   33.1210   29.0860   50.1390 C   0  0  0  0  0  0  0  0  0  0  0  0
   34.3450   29.5920   50.4940 C   0  0  0  0  0  0  0  0  0  0  0  0
   35.4580   29.2530   49.7730 C   0  0  0  0  0  0  0  0  0  0  0  0
   35.2390   28.3840   48.6920 C   0  0  0  0  0  0  0  0  0  0  0  0
   34.0070   27.9130   48.3840 N   0  0  0  0  0  0  0  0  0  0  0  0
   32.3060   29.4140   50.7720 H   0  0  0  0  0  0  0  0  0  0  0  0
   34.5330   30.2610   51.3230 H   0  0  0  0  0  0  0  0  0  0  0  0
   36.0010   28.0010   48.0010 H   0  0  0  0  0  0  0  0  0  0  0  0
   30.4620   27.8080   49.5550 C   0  0  0  0  0  0  0  0  0  0  0  0
   31.6040   27.7290   48.7440 C   0  0  0  0  0  0  0  0  0  0  0  0
   31.4420   27.0990   47.5190 C   0  0  0  0  0  0  0  0  0  0  0  0
   30.2190   26.6030   47.1710 N   0  0  0  0  0  0  0  0  0  0  0  0
   29.1620   26.7120   47.9960 C   0  0  0  0  0  0  0  0  0  0  0  0
   29.2830   27.3140   49.1840 N   0  0  0  0  0  0  0  0  0  0  0  0
   30.5670   28.2920   50.5070 H   0  0  0  0  0  0  0  0  0  0  0  0
   32.2610   26.9860   46.8220 H   0  0  0  0  0  0  0  0  0  0  0  0
   28.2690   26.2650   47.5640 H   0  0  0  0  0  0  0  0  0  0  0  0
   37.4240   30.5110   49.1080 C   0  0  0  0  0  0  0  0  0  0  0  0
   38.1660   31.5240   49.7180 C   0  0  0  0  0  0  0  0  0  0  0  0
   38.7430   32.2780   48.6990 C   0  0  0  0  0  0  0  0  0  0  0  0
   38.3430   31.7120   47.5360 N   0  0  0  0  0  0  0  0  0  0  0  0
   37.5720   30.6810   47.7830 N   0  0  0  0  0  0  0  0  0  0  0  0
   38.3630   31.8130   50.7480 H   0  0  0  0  0  0  0  0  0  0  0  0
   39.3960   33.1600   48.7840 H   0  0  0  0  0  0  0  0  0  0  0  0
   39.9500   32.8160   45.9870 C   0  0  0  0  0  3  0  0  0  0  0  0
   38.7330   32.2090   46.2610 C   0  0  0  0  0  0  0  0  0  0  0  0
   37.7660   32.0330   45.2750 C   0  0  0  0  0  0  0  0  0  0  0  0
   36.8100   31.5710   45.4330 H   0  0  0  0  0  0  0  0  0  0  0  0
   38.0340   32.4800   43.9840 C   0  0  0  0  0  0  0  0  0  0  0  0
   37.3650   32.4860   42.7960 N   0  0  0  0  0  0  0  0  0  0  0  0
   36.4000   32.0720   42.7500 H   0  0  0  0  0  0  0  0  0  0  0  0
   38.1290   33.0630   41.8520 C   0  0  0  0  0  0  0  0  0  0  0  0
   37.8150   33.1870   40.8170 H   0  0  0  0  0  0  0  0  0  0  0  0
   39.3390   33.4640   42.3780 C   0  0  0  0  0  3  0  0  0  0  0  0
   39.2520   33.0840   43.7230 C   0  0  0  0  0  0  0  0  0  0  0  0
   40.2240   33.2620   44.7090 C   0  0  0  0  0  3  0  0  0  0  0  0
  2  3  1  0  0  0  0
  3  4  2  0  0  0  0
  3  8  1  0  0  0  0
  4  9  1  0  0  0  0
  5  1  1  0  0  0  0
  5  4  1  0  0  0  0
  6  5  2  0  0  0  0
  7  6  1  0  0  0  0
  7  2  2  0  0  0  0
 10  6  1  0  0  0  0
 11 17  1  0  0  0  0
 12  2  1  0  0  0  0
 12 11  2  0  0  0  0
 13 12  1  0  0  0  0
 14 13  2  0  0  0  0
 14 15  1  0  0  0  0
 15 16  2  0  0  0  0
 16 11  1  0  0  0  0
 18 13  1  0  0  0  0
 19 15  1  0  0  0  0
 20 21  1  0  0  0  0
 20  1  1  0  0  0  0
 21 25  1  0  0  0  0
 22 26  1  0  0  0  0
 22 21  2  0  0  0  0
 23 24  1  0  0  0  0
 23 22  1  0  0  0  0
 24 20  2  0  0  0  0
 27 28  1  0  0  0  0
 28 23  1  0  0  0  0
 29 30  1  0  0  0  0
 29 28  2  0  0  0  0
 31 29  1  0  0  0  0
 32 31  1  0  0  0  0
 33 32  1  0  0  0  0
 34 36  2  0  0  0  0
 34 32  1  0  0  0  0
 35 34  1  0  0  0  0
 36 37  1  0  0  0  0
 37 31  2  0  0  0  0
 37 38  1  0  0  0  0
 38 27  2  0  0  0  0
M  END
>  <minimizedAffinity>
-6.32900143

>  <minimizedRMSD>
2.48169088

$$$$
