
 OpenBabel03272504413D

 48 51  0  0  0  0  0  0  0  0999 V2000
   34.6720   29.4090   48.7430 C   0  0  0  0  0  0  0  0  0  0  0  0
   35.5450   29.5050   49.4250 H   0  0  0  0  0  0  0  0  0  0  0  0
   33.9670   30.2090   49.1210 H   0  0  0  0  0  0  0  0  0  0  0  0
   37.4390   30.4730   48.4960 Cl  0  0  0  0  0  0  0  0  0  0  0  0
   36.3240   30.2990   47.1360 C   0  0  0  0  0  0  0  0  0  0  0  0
   36.7300   30.6630   45.9010 C   0  0  0  0  0  0  0  0  0  0  0  0
   35.8730   30.5340   44.8310 C   0  0  0  0  0  0  0  0  0  0  0  0
   34.5970   30.0250   45.0520 C   0  0  0  0  0  0  0  0  0  0  0  0
   34.2480   29.6670   46.3680 C   0  0  0  0  0  0  0  0  0  0  0  0
   35.0790   29.7900   47.4220 C   0  0  0  0  0  0  0  0  0  0  0  0
   36.2220   30.8360   43.8360 H   0  0  0  0  0  0  0  0  0  0  0  0
   34.0030   29.9620   44.1560 H   0  0  0  0  0  0  0  0  0  0  0  0
   33.2790   29.3220   46.3230 H   0  0  0  0  0  0  0  0  0  0  0  0
   39.7240   32.8130   46.0300 C   0  0  0  0  0  0  0  0  0  0  0  0
   40.6060   32.0850   45.1480 C   0  0  0  0  0  0  0  0  0  0  0  0
   40.1320   30.9000   44.5570 C   0  0  0  0  0  0  0  0  0  0  0  0
   38.8700   30.4900   44.8400 N   0  0  0  0  0  0  0  0  0  0  0  0
   38.0630   31.1970   45.6730 C   0  0  0  0  0  0  0  0  0  0  0  0
   38.4940   32.3320   46.2490 N   0  0  0  0  0  0  0  0  0  0  0  0
   40.0640   33.7130   46.4870 H   0  0  0  0  0  0  0  0  0  0  0  0
   41.5820   32.4600   44.9690 H   0  0  0  0  0  0  0  0  0  0  0  0
   41.0220   30.2300   43.7110 N   0  0  0  0  0  0  0  0  0  0  0  0
   41.7350   30.7410   43.1610 H   0  0  0  0  0  0  0  0  0  0  0  0
   41.0040   29.1860   43.6010 H   0  0  0  0  0  0  0  0  0  0  0  0
   34.0640   28.0940   48.9790 C   0  0  0  0  0  0  0  0  0  0  0  0
   34.1740   27.4260   48.0770 H   0  0  0  0  0  0  0  0  0  0  0  0
   34.5480   27.5180   49.7960 H   0  0  0  0  0  0  0  0  0  0  0  0
   32.7390   28.2060   49.3090 O   0  0  0  0  0  0  0  0  0  0  0  0
   32.6000   26.4500   47.3630 O   0  0  0  0  0  0  0  0  0  0  0  0
   31.7850   27.3850   48.2160 P   0  0  2  0  0  0  0  0  0  0  0  0
   31.0460   28.6000   47.2350 O   0  0  0  0  0  0  0  0  0  0  0  0
   29.8050   27.2450   45.5830 C   0  0  0  0  0  0  0  0  0  0  0  0
   30.0490   28.3730   46.3150 C   0  0  0  0  0  0  0  0  0  0  0  0
   29.2120   29.4880   46.1570 C   0  0  0  0  0  0  0  0  0  0  0  0
   29.3310   30.4370   46.7020 H   0  0  0  0  0  0  0  0  0  0  0  0
   28.1450   29.4750   45.2820 C   0  0  0  0  0  0  0  0  0  0  0  0
   27.1960   30.3830   44.9370 N   0  0  0  0  0  0  0  0  0  0  0  0
   27.1300   31.3490   45.3400 H   0  0  0  0  0  0  0  0  0  0  0  0
   26.3710   29.8610   44.0170 C   0  0  0  0  0  0  0  0  0  0  0  0
   25.5310   30.4130   43.5930 H   0  0  0  0  0  0  0  0  0  0  0  0
   26.8180   28.5690   43.7720 C   0  0  0  0  0  0  0  0  0  0  0  0
   27.9310   28.3090   44.5560 C   0  0  0  0  0  0  0  0  0  0  0  0
   28.7450   27.2010   44.6970 C   0  0  0  0  0  0  0  0  0  0  0  0
   30.5490   26.5480   48.9290 O   0  0  0  0  0  0  0  0  0  0  0  0
   29.8240   27.3600   49.7700 C   0  0  0  0  0  0  0  0  0  0  0  0
   29.3590   26.6730   50.8910 F   0  0  0  0  0  0  0  0  0  0  0  0
   30.6010   28.3840   50.2630 F   0  0  0  0  0  0  0  0  0  0  0  0
   28.7270   27.8810   49.0970 F   0  0  0  0  0  0  0  0  0  0  0  0
  1 25  1  0  0  0  0
  1  3  1  0  0  0  0
  1  2  1  0  0  0  0
  5 10  1  0  0  0  0
  5  4  1  0  0  0  0
  6  5  2  0  0  0  0
  7  8  2  0  0  0  0
  7  6  1  0  0  0  0
  8  9  1  0  0  0  0
  9 10  2  0  0  0  0
 10  1  1  0  0  0  0
 11  7  1  0  0  0  0
 12  8  1  0  0  0  0
 13  9  1  0  0  0  0
 14 19  1  0  0  0  0
 14 20  1  0  0  0  0
 15 14  2  0  0  0  0
 16 17  2  0  0  0  0
 16 15  1  0  0  0  0
 17 18  1  0  0  0  0
 18  6  1  0  0  0  0
 18 19  2  0  0  0  0
 21 15  1  0  0  0  0
 22 16  1  0  0  0  0
 23 22  1  0  0  0  0
 24 22  1  0  0  0  0
 25 28  1  0  0  0  0
 25 27  1  0  0  0  0
 26 25  1  0  0  0  0
 30 29  2  6  0  0  0
 30 44  1  0  0  0  0
 30 28  1  0  0  0  0
 31 30  1  0  0  0  0
 32 33  1  0  0  0  0
 33 31  1  0  0  0  0
 34 33  2  0  0  0  0
 34 35  1  0  0  0  0
 36 34  1  0  0  0  0
 37 36  1  0  0  0  0
 37 38  1  0  0  0  0
 39 37  1  0  0  0  0
 40 39  1  0  0  0  0
 41 39  2  0  0  0  0
 41 42  1  0  0  0  0
 42 43  1  0  0  0  0
 42 36  2  0  0  0  0
 43 32  2  0  0  0  0
 44 45  1  0  0  0  0
 45 47  1  0  0  0  0
 45 46  1  0  0  0  0
 48 45  1  0  0  0  0
M  END
>  <minimizedAffinity>
-6.21316051

>  <minimizedRMSD>
0.841445446

$$$$
