
     RDKit          3D

 46 50  0  0  0  0  0  0  0  0999 V2000
   34.5396   29.1325   48.6193 C   0  0  2  0  0  0  0  0  0  0  0  0
   35.1752   28.3961   49.7489 C   0  0  0  0  0  0  0  0  0  0  0  0
   36.3129   29.1674   50.2484 N   0  0  0  0  0  0  0  0  0  0  0  0
   37.2617   29.8924   51.0442 C   0  0  0  0  0  0  0  0  0  0  0  0
   37.4717   30.0702   52.2570 O   0  0  0  0  0  0  0  0  0  0  0  0
   37.9881   30.4200   49.9188 C   0  0  1  0  0  0  0  0  0  0  0  0
   37.1585   29.4203   49.1226 C   0  0  2  0  0  0  0  0  0  0  0  0
   35.9492   30.1370   47.9853 S   0  0  0  0  0  0  0  0  0  0  0  0
   33.3352   29.9488   48.9427 C   0  0  0  0  0  0  0  0  0  0  0  0
   34.2527   28.1266   47.4919 C   0  0  0  0  0  0  0  0  0  0  0  0
   34.3261   28.7976   46.2691 O   0  0  0  0  0  0  0  0  0  0  0  0
   37.7668   31.8483   49.5894 C   0  0  0  0  0  0  0  0  0  0  0  0
   36.7538   32.3439   50.1721 O   0  0  0  0  0  0  0  0  0  0  0  0
   38.6082   32.5992   48.7081 C   0  0  0  0  0  0  0  0  0  0  0  0
   39.1335   33.7875   49.1623 C   0  0  0  0  0  0  0  0  0  0  0  0
   39.9620   34.5243   48.2879 C   0  0  0  0  0  0  0  0  0  0  0  0
   40.1956   34.0147   47.0389 N   0  0  0  0  0  0  0  0  0  0  0  0
   39.6707   32.8665   46.6400 C   0  0  0  0  0  0  0  0  0  0  0  0
   38.8766   32.1465   47.4579 N   0  0  0  0  0  0  0  0  0  0  0  0
   34.4904   28.2696   50.6223 H   0  0  0  0  0  0  0  0  0  0  0  0
   35.5223   27.3864   49.4250 H   0  0  0  0  0  0  0  0  0  0  0  0
   39.0440   30.1721   49.7314 H   0  0  0  0  0  0  0  0  0  0  0  0
   37.7108   28.5514   48.7245 H   0  0  0  0  0  0  0  0  0  0  0  0
   33.0418   29.7532   49.9966 H   0  0  0  0  0  0  0  0  0  0  0  0
   33.4967   31.0532   48.8800 H   0  0  0  0  0  0  0  0  0  0  0  0
   32.4662   29.7011   48.2706 H   0  0  0  0  0  0  0  0  0  0  0  0
   34.8879   27.2420   47.5522 H   0  0  0  0  0  0  0  0  0  0  0  0
   33.1578   27.8861   47.6160 H   0  0  0  0  0  0  0  0  0  0  0  0
   34.9227   28.2269   45.6927 H   0  0  0  0  0  0  0  0  0  0  0  0
   38.9298   34.1655   50.1591 H   0  0  0  0  0  0  0  0  0  0  0  0
   40.4050   35.4662   48.5862 H   0  0  0  0  0  0  0  0  0  0  0  0
   41.2825   32.1376   44.8956 C   0  0  0  0  0  0  0  0  0  0  0  0
   39.9685   32.3903   45.2902 C   0  0  0  0  0  0  0  0  0  0  0  0
   38.8844   32.2044   44.4290 C   0  0  0  0  0  0  0  0  0  0  0  0
   37.8678   32.4021   44.7405 H   0  0  0  0  0  0  0  0  0  0  0  0
   39.1388   31.7506   43.1341 C   0  0  0  0  0  0  0  0  0  0  0  0
   38.2522   31.5078   42.1563 N   0  0  0  0  0  0  0  0  0  0  0  0
   37.2105   31.6027   42.1521 H   0  0  0  0  0  0  0  0  0  0  0  0
   38.9278   31.0780   41.0515 C   0  0  0  0  0  0  0  0  0  0  0  0
   38.6190   30.7773   40.0610 H   0  0  0  0  0  0  0  0  0  0  0  0
   40.2627   31.0741   41.4117 C   0  0  0  0  0  0  0  0  0  0  0  0
   40.4324   31.4919   42.7160 C   0  0  0  0  0  0  0  0  0  0  0  0
   41.4861   31.6834   43.5857 C   0  0  0  0  0  0  0  0  0  0  0  0
   42.1105   32.2870   45.5761 H   0  0  0  0  0  0  0  0  0  0  0  0
   41.1111   30.7858   40.7808 H   0  0  0  0  0  0  0  0  0  0  0  0
   42.4889   31.4709   43.2257 H   0  0  0  0  0  0  0  0  0  0  0  0
  1 10  1  6
  1  9  1  0
  1  2  1  0
  2  3  1  0
  3  4  1  0
  4  5  2  0
  6  4  1  0
  7  6  1  0
  7  3  1  0
  8  1  1  0
  8  7  1  0
 11 10  1  0
 12  6  1  0
 12 13  2  0
 14 15  2  0
 14 12  1  0
 16 15  1  0
 17 16  2  0
 18 17  1  0
 18 19  2  0
 19 14  1  0
  2 20  1  0
  2 21  1  0
  6 22  1  1
  7 23  1  6
  9 24  1  0
  9 25  1  0
  9 26  1  0
 10 27  1  0
 10 28  1  0
 11 29  1  0
 15 30  1  0
 16 31  1  0
 32 33  2  0
 33 34  1  0
 34 35  1  0
 34 36  2  0
 36 37  1  0
 37 38  1  0
 37 39  1  0
 39 40  1  0
 39 41  2  0
 41 42  1  0
 42 43  2  0
 43 32  1  0
 42 36  1  0
 32 44  1  0
 41 45  1  0
 43 46  1  0
 18 33  1  0
M  ISO  8  20  13  21  13  22  13  23  13  24   8  25   8  26   8  27   8
M  ISO  7  28   8  29   3  30  14  31  14  35  15  38   5  40  14
M  END
>  <DihAtoms>  (1) 
16,17,32,31

>  <DihDeg>  (1) 
-179.99898981765034

$$$$
