
     RDKit          3D

 40 43  0  0  0  0  0  0  0  0999 V2000
   35.9701   29.6301   48.8721 N   0  0  0  0  0  0  0  0  0  0  0  0
   36.5579   28.8536   49.9443 C   0  0  0  0  0  0  0  0  0  0  0  0
   37.0437   29.5748   51.1116 C   0  0  0  0  0  0  0  0  0  0  0  0
   37.4296   30.9880   50.9742 C   0  0  0  0  0  0  0  0  0  0  0  0
   36.8219   31.6819   49.7916 C   0  0  0  0  0  0  0  0  0  0  0  0
   36.8457   30.7572   48.5702 C   0  0  1  0  0  0  0  0  0  0  0  0
   34.7378   29.3309   48.2249 C   0  0  0  0  0  0  0  0  0  0  0  0
   34.2503   30.0067   47.1099 C   0  0  0  0  0  0  0  0  0  0  0  0
   33.0333   29.6128   46.5698 C   0  0  0  0  0  0  0  0  0  0  0  0
   32.3743   28.5850   47.1556 N   0  0  0  0  0  0  0  0  0  0  0  0
   32.8790   27.9549   48.2354 C   0  0  0  0  0  0  0  0  0  0  0  0
   34.0577   28.3325   48.7627 N   0  0  0  0  0  0  0  0  0  0  0  0
   38.1687   30.3477   48.4638 O   0  0  0  0  0  0  0  0  0  0  0  0
   35.7531   28.1216   50.2444 H   0  0  0  0  0  0  0  0  0  0  0  0
   37.3518   28.1982   49.5199 H   0  0  0  0  0  0  0  0  0  0  0  0
   36.2840   29.5083   51.9432 H   0  0  0  0  0  0  0  0  0  0  0  0
   37.9329   29.0327   51.5488 H   0  0  0  0  0  0  0  0  0  0  0  0
   38.5495   31.1052   50.9101 H   0  0  0  0  0  0  0  0  0  0  0  0
   37.1476   31.5954   51.8682 H   0  0  0  0  0  0  0  0  0  0  0  0
   37.3511   32.6298   49.5833 H   0  0  0  0  0  0  0  0  0  0  0  0
   35.7733   31.9123   50.0128 H   0  0  0  0  0  0  0  0  0  0  0  0
   36.4818   31.3563   47.7395 H   0  0  0  0  0  0  0  0  0  0  0  0
   34.8253   30.7996   46.7104 H   0  0  0  0  0  0  0  0  0  0  0  0
   32.7188   30.1798   45.7092 H   0  0  0  0  0  0  0  0  0  0  0  0
   32.3131   27.1284   48.6780 H   0  0  0  0  0  0  0  0  0  0  0  0
   38.1604   31.4761   46.5117 C   0  0  0  0  0  0  0  0  0  0  0  0
   38.9313   30.7039   47.3740 C   0  0  0  0  0  0  0  0  0  0  0  0
   40.2237   30.4479   47.0185 C   0  0  0  0  0  0  0  0  0  0  0  0
   40.7550   29.8554   47.7176 H   0  0  0  0  0  0  0  0  0  0  0  0
   40.7428   30.9415   45.8411 C   0  0  0  0  0  0  0  0  0  0  0  0
   42.0013   30.7644   45.3694 N   0  0  0  0  0  0  0  0  0  0  0  0
   42.7905   30.2368   45.7963 H   0  0  0  0  0  0  0  0  0  0  0  0
   42.1032   31.4159   44.1764 C   0  0  0  0  0  0  0  0  0  0  0  0
   42.9718   31.4830   43.5225 H   0  0  0  0  0  0  0  0  0  0  0  0
   40.8646   32.0053   43.9203 C   0  0  0  0  0  0  0  0  0  0  0  0
   39.9947   31.7194   44.9546 C   0  0  0  0  0  0  0  0  0  0  0  0
   38.6875   31.9772   45.3161 C   0  0  0  0  0  0  0  0  0  0  0  0
   37.1272   31.7850   46.6149 H   0  0  0  0  0  0  0  0  0  0  0  0
   40.5646   32.6054   43.0651 H   0  0  0  0  0  0  0  0  0  0  0  0
   38.1524   32.5808   44.6003 H   0  0  0  0  0  0  0  0  0  0  0  0
  1  2  1  0
  2  3  1  0
  4  3  1  0
  5  4  1  0
  6  1  1  0
  6  5  1  0
  7 12  1  0
  7  1  1  0
  8  7  2  0
  9  8  1  0
  9 10  2  0
 10 11  1  0
 11 12  2  0
 13  6  1  0
  2 14  1  0
  2 15  1  0
  3 16  1  0
  3 17  1  0
  4 18  1  0
  4 19  1  0
  5 20  1  0
  5 21  1  0
  6 22  1  6
  8 23  1  0
  9 24  1  0
 11 25  1  0
 26 27  2  0
 27 28  1  0
 28 29  1  0
 28 30  2  0
 30 31  1  0
 31 32  1  0
 31 33  1  0
 33 34  1  0
 33 35  2  0
 35 36  1  0
 36 37  2  0
 37 26  1  0
 36 30  1  0
 26 38  1  0
 35 39  1  0
 37 40  1  0
 13 27  1  0
M  ISO  8  14  13  15  13  16  13  17  13  18  13  19  13  20  13  21  13
M  ISO  7  22  13  23  14  24  14  25  14  29  15  32   5  34  14
M  END
>  <DihAtoms>  (1) 
5,12,26,25

>  <DihDeg>  (1) 
-179.95453487008527

$$$$
