
 OpenBabel03262523573D

 31 34  0  0  0  0  0  0  0  0999 V2000
   34.0910   28.3260   49.0750 C   0  0  0  0  0  0  0  0  0  0  0  0
   34.5940   29.4160   48.3350 C   0  0  0  0  0  0  0  0  0  0  0  0
   33.9930   29.6730   47.1060 C   0  0  0  0  0  0  0  0  0  0  0  0
   32.9630   28.8750   46.6730 N   0  0  0  0  0  0  0  0  0  0  0  0
   32.5180   27.8350   47.4290 C   0  0  0  0  0  0  0  0  0  0  0  0
   33.0900   27.5800   48.6130 N   0  0  0  0  0  0  0  0  0  0  0  0
   34.6060   28.1930   50.0090 H   0  0  0  0  0  0  0  0  0  0  0  0
   34.2040   30.4400   46.3790 H   0  0  0  0  0  0  0  0  0  0  0  0
   35.9590   30.7080   49.9610 C   0  0  0  0  0  0  0  0  0  0  0  0
   35.6580   30.3200   48.6720 C   0  0  0  0  0  0  0  0  0  0  0  0
   36.4440   30.8500   47.6560 C   0  0  0  0  0  0  0  0  0  0  0  0
   36.2490   30.5760   46.6180 H   0  0  0  0  0  0  0  0  0  0  0  0
   37.4900   31.7240   47.8630 C   0  0  0  0  0  0  0  0  0  0  0  0
   38.3550   32.3420   47.0470 N   0  0  0  0  0  0  0  0  0  0  0  0
   38.3840   32.2510   46.0020 H   0  0  0  0  0  0  0  0  0  0  0  0
   39.1760   33.0950   47.8090 C   0  0  0  0  0  0  0  0  0  0  0  0
   40.0060   33.7340   47.4780 H   0  0  0  0  0  0  0  0  0  0  0  0
   38.8540   32.9800   49.1530 C   0  0  0  0  0  0  0  0  0  0  0  0
   37.7790   32.1030   49.1580 C   0  0  0  0  0  0  0  0  0  0  0  0
   37.0070   31.5840   50.1620 C   0  0  0  0  0  0  0  0  0  0  0  0
   33.4790   25.2640   45.9130 Br  0  0  0  0  0  0  0  0  0  0  0  0
   31.6860   25.8020   46.2990 C   0  0  0  0  0  0  0  0  0  0  0  0
   31.4290   26.9830   46.9860 C   0  0  0  0  0  0  0  0  0  0  0  0
   30.1120   27.2970   47.2210 C   0  0  0  0  0  0  0  0  0  0  0  0
   29.0510   26.5010   46.8100 C   0  0  0  0  0  0  0  0  0  0  0  0
   29.3420   25.3440   46.1340 C   0  0  0  0  0  0  0  0  0  0  0  0
   30.6730   25.0010   45.8810 C   0  0  0  0  0  0  0  0  0  0  0  0
   29.8560   28.2040   47.7530 H   0  0  0  0  0  0  0  0  0  0  0  0
   28.0230   26.7330   46.9860 H   0  0  0  0  0  0  0  0  0  0  0  0
   28.5800   24.6600   45.7740 H   0  0  0  0  0  0  0  0  0  0  0  0
   30.8760   24.0820   45.3460 H   0  0  0  0  0  0  0  0  0  0  0  0
  1  7  1  0  0  0  0
  2 10  1  0  0  0  0
  2  1  2  0  0  0  0
  3  2  1  0  0  0  0
  4  3  2  0  0  0  0
  4  5  1  0  0  0  0
  5  6  2  0  0  0  0
  6  1  1  0  0  0  0
  8  3  1  0  0  0  0
  9 20  1  0  0  0  0
 10  9  2  0  0  0  0
 11 13  2  0  0  0  0
 11 10  1  0  0  0  0
 12 11  1  0  0  0  0
 13 19  1  0  0  0  0
 14 16  1  0  0  0  0
 14 13  1  0  0  0  0
 15 14  1  0  0  0  0
 16 18  2  0  0  0  0
 17 16  1  0  0  0  0
 18 19  1  0  0  0  0
 19 20  2  0  0  0  0
 21 22  1  0  0  0  0
 22 23  1  0  0  0  0
 23 24  2  0  0  0  0
 23  5  1  0  0  0  0
 24 28  1  0  0  0  0
 25 29  1  0  0  0  0
 25 24  1  0  0  0  0
 26 25  2  0  0  0  0
 27 26  1  0  0  0  0
 27 22  2  0  0  0  0
 30 26  1  0  0  0  0
 31 27  1  0  0  0  0
M  END
>  <minimizedAffinity>
-6.09894753

>  <minimizedRMSD>
6.04997253

$$$$
