
 OpenBabel03272510163D

 31 34  0  0  0  0  0  0  0  0999 V2000
   37.3290   29.3440   51.0490 Br  0  0  0  0  0  0  0  0  0  0  0  0
   35.9700   29.3400   49.6920 C   0  0  0  0  0  0  0  0  0  0  0  0
   35.9990   30.2560   48.6640 C   0  0  0  0  0  0  0  0  0  0  0  0
   34.9860   30.1890   47.7250 C   0  0  0  0  0  0  0  0  0  0  0  0
   33.9640   29.2570   47.7750 C   0  0  0  0  0  0  0  0  0  0  0  0
   33.9710   28.3640   48.8110 C   0  0  0  0  0  0  0  0  0  0  0  0
   34.9730   28.4110   49.7630 C   0  0  0  0  0  0  0  0  0  0  0  0
   34.9680   30.8870   46.9010 H   0  0  0  0  0  0  0  0  0  0  0  0
   33.2040   27.6230   48.8950 H   0  0  0  0  0  0  0  0  0  0  0  0
   34.9320   27.6840   50.5600 H   0  0  0  0  0  0  0  0  0  0  0  0
   32.9310   29.9210   45.5950 C   0  0  0  0  0  3  0  0  0  0  0  0
   32.9240   29.2160   46.7810 C   0  0  0  0  0  0  0  0  0  0  0  0
   31.8060   28.4300   46.9680 C   0  0  0  0  0  0  0  0  0  0  0  0
   31.7640   27.8550   47.8990 H   0  0  0  0  0  0  0  0  0  0  0  0
   30.7400   28.2940   46.1070 C   0  0  0  0  0  0  0  0  0  0  0  0
   29.6050   27.5790   46.1560 N   0  0  0  0  0  0  0  0  0  0  0  0
   29.3540   26.9540   46.9550 H   0  0  0  0  0  0  0  0  0  0  0  0
   28.9420   27.8620   44.9980 C   0  0  0  0  0  0  0  0  0  0  0  0
   27.9840   27.3680   44.8550 H   0  0  0  0  0  0  0  0  0  0  0  0
   29.6740   28.7520   44.2420 C   0  0  0  0  0  3  0  0  0  0  0  0
   30.8330   29.0460   44.9290 C   0  0  0  0  0  0  0  0  0  0  0  0
   31.9160   29.8560   44.6670 C   0  0  0  0  0  3  0  0  0  0  0  0
   38.0020   33.1990   49.4530 C   0  0  0  0  0  0  0  0  0  0  0  0
   39.0220   33.1830   48.4770 C   0  0  0  0  0  0  0  0  0  0  0  0
   39.0040   32.1490   47.5540 C   0  0  0  0  0  0  0  0  0  0  0  0
   38.0210   31.2020   47.6190 N   0  0  0  0  0  0  0  0  0  0  0  0
   37.0550   31.2530   48.5750 C   0  0  0  0  0  0  0  0  0  0  0  0
   37.0560   32.2600   49.4910 N   0  0  0  0  0  0  0  0  0  0  0  0
   37.9670   33.9920   50.2090 H   0  0  0  0  0  0  0  0  0  0  0  0
   39.7800   33.9540   48.4650 H   0  0  0  0  0  0  0  0  0  0  0  0
   39.7590   32.0830   46.7820 H   0  0  0  0  0  0  0  0  0  0  0  0
  2  7  1  0  0  0  0
  2  1  1  0  0  0  0
  3  2  2  0  0  0  0
  4  5  2  0  0  0  0
  4  3  1  0  0  0  0
  5  6  1  0  0  0  0
  6  9  1  0  0  0  0
  6  7  2  0  0  0  0
  7 10  1  0  0  0  0
  8  4  1  0  0  0  0
 11 12  1  0  0  0  0
 12 13  2  0  0  0  0
 12  5  1  0  0  0  0
 13 14  1  0  0  0  0
 15 16  1  0  0  0  0
 15 13  1  0  0  0  0
 16 17  1  0  0  0  0
 18 16  1  0  0  0  0
 19 18  1  0  0  0  0
 20 21  1  0  0  0  0
 20 18  2  0  0  0  0
 21 15  2  0  0  0  0
 22 21  1  0  0  0  0
 22 11  2  0  0  0  0
 23 28  1  0  0  0  0
 23 29  1  0  0  0  0
 24 23  2  0  0  0  0
 25 26  2  0  0  0  0
 25 24  1  0  0  0  0
 26 27  1  0  0  0  0
 27  3  1  0  0  0  0
 27 28  2  0  0  0  0
 30 24  1  0  0  0  0
 31 25  1  0  0  0  0
M  END
>  <minimizedAffinity>
-6.14394283

>  <minimizedRMSD>
0.275187403

$$$$
