
 OpenBabel03272510163D

 31 34  0  0  0  0  0  0  0  0999 V2000
   37.2520   29.5300   51.2500 Br  0  0  0  0  0  0  0  0  0  0  0  0
   35.9930   29.3660   49.8100 C   0  0  0  0  0  0  0  0  0  0  0  0
   36.0690   30.1930   48.7110 C   0  0  0  0  0  0  0  0  0  0  0  0
   35.1270   30.0140   47.7140 C   0  0  0  0  0  0  0  0  0  0  0  0
   34.1300   29.0550   47.7760 C   0  0  0  0  0  0  0  0  0  0  0  0
   34.0890   28.2530   48.8830 C   0  0  0  0  0  0  0  0  0  0  0  0
   35.0200   28.4140   49.8930 C   0  0  0  0  0  0  0  0  0  0  0  0
   35.1480   30.6390   46.8340 H   0  0  0  0  0  0  0  0  0  0  0  0
   33.3380   27.4970   48.9780 H   0  0  0  0  0  0  0  0  0  0  0  0
   34.9420   27.7560   50.7450 H   0  0  0  0  0  0  0  0  0  0  0  0
   31.8530   28.5050   46.8930 C   0  0  0  0  0  3  0  0  0  0  0  0
   33.1650   28.8960   46.7200 C   0  0  0  0  0  0  0  0  0  0  0  0
   33.5170   29.1380   45.4080 C   0  0  0  0  0  0  0  0  0  0  0  0
   34.5500   29.4520   45.2300 H   0  0  0  0  0  0  0  0  0  0  0  0
   32.7020   29.0280   44.3030 C   0  0  0  0  0  0  0  0  0  0  0  0
   32.9040   29.2290   42.9900 N   0  0  0  0  0  0  0  0  0  0  0  0
   33.8200   29.5320   42.5890 H   0  0  0  0  0  0  0  0  0  0  0  0
   31.7100   28.9550   42.3900 C   0  0  0  0  0  0  0  0  0  0  0  0
   31.6770   29.0640   41.3090 H   0  0  0  0  0  0  0  0  0  0  0  0
   30.7800   28.5870   43.3370 C   0  0  0  0  0  3  0  0  0  0  0  0
   31.3900   28.6260   44.5740 C   0  0  0  0  0  0  0  0  0  0  0  0
   30.9600   28.3640   45.8550 C   0  0  0  0  0  3  0  0  0  0  0  0
   37.9790   33.2130   49.4360 C   0  0  0  0  0  0  0  0  0  0  0  0
   39.0200   33.1900   48.4820 C   0  0  0  0  0  0  0  0  0  0  0  0
   39.0480   32.1240   47.5950 C   0  0  0  0  0  0  0  0  0  0  0  0
   38.0880   31.1550   47.6740 N   0  0  0  0  0  0  0  0  0  0  0  0
   37.1020   31.2140   48.6070 C   0  0  0  0  0  0  0  0  0  0  0  0
   37.0570   32.2520   49.4870 N   0  0  0  0  0  0  0  0  0  0  0  0
   37.9080   34.0310   50.1620 H   0  0  0  0  0  0  0  0  0  0  0  0
   39.7580   33.9800   48.4570 H   0  0  0  0  0  0  0  0  0  0  0  0
   39.8200   32.0510   46.8410 H   0  0  0  0  0  0  0  0  0  0  0  0
  2  7  1  0  0  0  0
  2  1  1  0  0  0  0
  3  2  2  0  0  0  0
  4  5  2  0  0  0  0
  4  3  1  0  0  0  0
  5  6  1  0  0  0  0
  6  9  1  0  0  0  0
  6  7  2  0  0  0  0
  7 10  1  0  0  0  0
  8  4  1  0  0  0  0
 12 11  1  0  0  0  0
 12  5  1  0  0  0  0
 13 12  2  0  0  0  0
 14 13  1  0  0  0  0
 15 21  2  0  0  0  0
 15 13  1  0  0  0  0
 16 15  1  0  0  0  0
 17 16  1  0  0  0  0
 18 16  1  0  0  0  0
 18 20  2  0  0  0  0
 19 18  1  0  0  0  0
 20 21  1  0  0  0  0
 21 22  1  0  0  0  0
 22 11  2  0  0  0  0
 23 28  1  0  0  0  0
 23 29  1  0  0  0  0
 24 23  2  0  0  0  0
 25 26  2  0  0  0  0
 25 24  1  0  0  0  0
 26 27  1  0  0  0  0
 27  3  1  0  0  0  0
 27 28  2  0  0  0  0
 30 24  1  0  0  0  0
 31 25  1  0  0  0  0
M  END
>  <minimizedAffinity>
-5.97220564

>  <minimizedRMSD>
0.37474972

$$$$
