REMARK  Name = 
REMARK  8 active torsions:
REMARK  status: ('A' for Active; 'I' for Inactive)
REMARK    1  A    between atoms: C_1  and  C_7
REMARK    2  A    between atoms: C_6  and  N_13
REMARK    3  A    between atoms: N_13  and  S_14
REMARK    4  A    between atoms: S_14  and  O_15
REMARK    5  A    between atoms: S_14  and  O_16
REMARK    6  A    between atoms: S_14  and  O_17
REMARK    7  A    between atoms: O_16  and  C_38
REMARK    8  A    between atoms: O_17  and  C_18
REMARK                            x       y       z     vdW  Elec       q    Type
REMARK                         _______ _______ _______ _____ _____    ______ ____
ROOT
ATOM      1  C   UNL     1      37.429  31.317  45.387  0.00  0.00    +0.000 C 
ATOM      2  C   UNL     1      38.344  30.832  44.363  0.00  0.00    +0.000 C 
ATOM      3  C   UNL     1      39.664  30.316  44.935  0.00  0.00    +0.000 C 
ATOM      4  C   UNL     1      40.374  31.335  45.766  0.00  0.00    +0.000 C 
ATOM      5  C   UNL     1      39.451  32.222  46.571  0.00  0.00    +0.000 C 
ATOM      6  C   UNL     1      38.072  31.583  46.722  0.00  0.00    +0.000 C 
ATOM      7  H   UNL     1      37.010  32.309  45.038  0.00  0.00    +0.000 HD
ATOM      8  H   UNL     1      38.676  31.669  43.668  0.00  0.00    +0.000 HD
ATOM      9  H   UNL     1      38.024  30.039  43.674  0.00  0.00    +0.000 HD
ATOM     10  H   UNL     1      40.309  30.148  44.040  0.00  0.00    +0.000 HD
ATOM     11  H   UNL     1      39.576  29.325  45.401  0.00  0.00    +0.000 HD
ATOM     12  H   UNL     1      41.012  30.778  46.513  0.00  0.00    +0.000 HD
ATOM     13  H   UNL     1      41.081  31.978  45.200  0.00  0.00    +0.000 HD
ATOM     14  H   UNL     1      39.820  32.446  47.586  0.00  0.00    +0.000 HD
ATOM     15  H   UNL     1      39.291  33.172  46.018  0.00  0.00    +0.000 HD
ATOM     16  H   UNL     1      37.453  32.365  47.227  0.00  0.00    +0.000 HD
ENDROOT
BRANCH   1  17
ATOM     17  C   UNL     1      36.249  30.482  45.632  0.00  0.00    +0.000 A 
ATOM     18  C   UNL     1      35.870  29.685  44.547  0.00  0.00    +0.000 A 
ATOM     19  C   UNL     1      34.768  28.866  44.731  0.00  0.00    +0.000 A 
ATOM     20  N   UNL     1      34.116  28.871  45.931  0.00  0.00    +0.000 NA
ATOM     21  C   UNL     1      34.514  29.654  46.949  0.00  0.00    +0.000 A 
ATOM     22  N   UNL     1      35.551  30.417  46.760  0.00  0.00    +0.000 NA
ATOM     23  H   UNL     1      36.215  29.533  43.547  0.00  0.00    +0.000 HD
ATOM     24  H   UNL     1      34.305  28.186  44.061  0.00  0.00    +0.000 HD
ATOM     25  H   UNL     1      33.987  29.651  47.901  0.00  0.00    +0.000 HD
ENDBRANCH   1  17
BRANCH   6  26
ATOM     26  N   UNL     1      38.220  30.535  47.626  0.00  0.00    +0.000 NA
ATOM     27  H   UNL     1      39.118  30.042  47.668  0.00  0.00    +0.000 HD
BRANCH  26  28
ATOM     28  S   UNL     1      37.647  30.759  49.207  0.00  0.00    +0.000 S 
BRANCH  28  29
ATOM     29  O   UNL     1      38.908  30.966  50.053  0.00  0.00    +0.000 OA
ATOM     30  H   UNL     1      39.172  30.402  50.824  0.00  0.00    +0.000 HD
ENDBRANCH  28  29
BRANCH  28  31
ATOM     31  O   UNL     1      36.772  31.921  49.350  0.00  0.00    +0.000 OA
BRANCH  31  33
ATOM     32  C   UNL     1      36.657  32.870  51.391  0.00  0.00    +0.000 A 
ATOM     33  C   UNL     1      36.414  33.042  50.019  0.00  0.00    +0.000 A 
ATOM     34  C   UNL     1      35.888  34.266  49.678  0.00  0.00    +0.000 A 
ATOM     35  H   UNL     1      35.735  34.302  48.595  0.00  0.00    +0.000 HD
ATOM     36  C   UNL     1      35.614  35.254  50.581  0.00  0.00    +0.000 A 
ATOM     37  N   UNL     1      35.105  36.475  50.368  0.00  0.00    +0.000 N 
ATOM     38  H   UNL     1      34.821  36.902  49.463  0.00  0.00    +0.000 HD
ATOM     39  C   UNL     1      35.018  37.086  51.570  0.00  0.00    +0.000 A 
ATOM     40  H   UNL     1      34.654  38.086  51.810  0.00  0.00    +0.000 HD
ATOM     41  C   UNL     1      35.476  36.241  52.543  0.00  0.00    +0.000 A 
ATOM     42  C   UNL     1      35.861  35.065  51.936  0.00  0.00    +0.000 A 
ATOM     43  C   UNL     1      36.390  33.853  52.336  0.00  0.00    +0.000 A 
ENDBRANCH  31  33
ENDBRANCH  28  31
BRANCH  28  44
ATOM     44  O   UNL     1      36.921  29.377  49.824  0.00  0.00    +0.000 OA
BRANCH  44  45
ATOM     45  C   UNL     1      36.783  29.419  51.202  0.00  0.00    +0.000 C 
ATOM     46  F   UNL     1      37.751  28.638  51.783  0.00  0.00    +0.000 F 
ATOM     47  F   UNL     1      37.033  30.703  51.599  0.00  0.00    +0.000 F 
ATOM     48  F   UNL     1      35.503  29.108  51.644  0.00  0.00    +0.000 F 
ENDBRANCH  44  45
ENDBRANCH  28  44
ENDBRANCH  26  28
ENDBRANCH   6  26
TORSDOF 8
