
 OpenBabel03272508563D

 43 47  0  0  1  0  0  0  0  0999 V2000
   38.6630   31.6350   43.8790 C   0  0  0  0  0  0  0  0  0  0  0  0
   39.7570   30.8070   43.7630 C   0  0  0  0  0  0  0  0  0  0  0  0
   40.4260   30.7960   42.5620 C   0  0  0  0  0  0  0  0  0  0  0  0
   39.9680   31.6070   41.5460 C   0  0  0  0  0  0  0  0  0  0  0  0
   38.8720   32.4390   41.6560 C   0  0  0  0  0  0  0  0  0  0  0  0
   38.2480   32.4150   42.8550 N   0  0  0  0  0  0  0  0  0  0  0  0
   40.1180   30.1700   44.5580 H   0  0  0  0  0  0  0  0  0  0  0  0
   41.3020   30.1490   42.4350 H   0  0  0  0  0  0  0  0  0  0  0  0
   40.5220   31.5710   40.6080 H   0  0  0  0  0  0  0  0  0  0  0  0
   37.9300   31.6570   45.1630 C   0  0  0  0  0  0  0  0  0  0  0  0
   36.9140   30.9480   45.3340 O   0  0  0  0  0  0  0  0  0  0  0  0
   38.4110   32.5090   46.2080 N   0  0  0  0  0  0  0  0  0  0  0  0
   39.1130   33.2520   46.0660 H   0  0  0  0  0  0  0  0  0  0  0  0
   38.5180   31.4120   48.4420 C   0  0  2  0  0  0  0  0  0  0  0  0
   38.8090   32.8540   48.6560 C   0  0  0  0  0  0  0  0  0  0  0  0
   37.8870   32.3240   47.5420 C   0  0  1  0  0  0  0  0  0  0  0  0
   39.3900   30.8030   48.1190 H   0  0  0  0  0  0  0  0  0  0  0  0
   38.3420   33.3220   49.5450 H   0  0  0  0  0  0  0  0  0  0  0  0
   39.7990   33.2160   48.4030 H   0  0  0  0  0  0  0  0  0  0  0  0
   36.8250   32.6320   47.7120 H   0  0  0  0  0  0  0  0  0  0  0  0
   35.8960   29.1980   49.8640 C   0  0  0  0  0  0  0  0  0  0  0  0
   36.1940   29.2600   51.2620 C   0  0  0  0  0  0  0  0  0  0  0  0
   37.3080   30.0850   51.6940 C   0  0  0  0  0  0  0  0  0  0  0  0
   38.0250   30.7700   50.7490 N   0  0  0  0  0  0  0  0  0  0  0  0
   37.6780   30.6580   49.4380 C   0  0  0  0  0  0  0  0  0  0  0  0
   36.6240   29.8860   48.9590 N   0  0  0  0  0  0  0  0  0  0  0  0
   35.0610   28.5670   49.6050 H   0  0  0  0  0  0  0  0  0  0  0  0
   35.6200   28.7190   51.9950 H   0  0  0  0  0  0  0  0  0  0  0  0
   37.5270   30.1260   52.7380 H   0  0  0  0  0  0  0  0  0  0  0  0
   38.3880   33.2750   40.5690 C   0  0  0  0  0  0  0  0  0  0  0  0
   37.8290   34.3660   40.8290 O   0  0  0  0  0  0  0  0  0  0  0  0
   37.8300   31.8370   38.5650 C   0  0  0  0  0  3  0  0  0  0  0  0
   38.5250   32.8960   39.1680 C   0  0  0  0  0  0  0  0  0  0  0  0
   39.3720   33.5870   38.3300 C   0  0  0  0  0  0  0  0  0  0  0  0
   39.9140   34.4200   38.8040 H   0  0  0  0  0  0  0  0  0  0  0  0
   39.6090   33.3600   36.9970 C   0  0  0  0  0  0  0  0  0  0  0  0
   40.4070   33.9740   36.1070 N   0  0  0  0  0  0  0  0  0  0  0  0
   41.0200   34.7890   36.3250 H   0  0  0  0  0  0  0  0  0  0  0  0
   40.2080   33.2880   34.9410 C   0  0  0  0  0  0  0  0  0  0  0  0
   40.7230   33.5450   34.0060 H   0  0  0  0  0  0  0  0  0  0  0  0
   39.2980   32.2720   35.1250 C   0  0  0  0  0  3  0  0  0  0  0  0
   38.8970   32.3080   36.4660 C   0  0  0  0  0  0  0  0  0  0  0  0
   38.0220   31.5480   37.2080 C   0  0  0  0  0  3  0  0  0  0  0  0
  1 10  1  0  0  0  0
  2  1  1  0  0  0  0
  2  7  1  0  0  0  0
  3  2  2  0  0  0  0
  4  5  2  0  0  0  0
  4  3  1  0  0  0  0
  5  6  1  0  0  0  0
  6  1  2  0  0  0  0
  8  3  1  0  0  0  0
  9  4  1  0  0  0  0
 10 11  2  0  0  0  0
 10 12  1  0  0  0  0
 12 16  1  0  0  0  0
 13 12  1  0  0  0  0
 14 17  1  6  0  0  0
 14 15  1  0  0  0  0
 14 25  1  0  0  0  0
 15 18  1  0  0  0  0
 16 20  1  1  0  0  0
 16 14  1  0  0  0  0
 16 15  1  0  0  0  0
 19 15  1  0  0  0  0
 21 22  1  0  0  0  0
 22 23  2  0  0  0  0
 22 28  1  0  0  0  0
 23 29  1  0  0  0  0
 24 23  1  0  0  0  0
 25 24  2  0  0  0  0
 26 25  1  0  0  0  0
 26 21  2  0  0  0  0
 27 21  1  0  0  0  0
 30 31  2  0  0  0  0
 30  5  1  0  0  0  0
 32 33  1  0  0  0  0
 33 30  1  0  0  0  0
 34 35  1  0  0  0  0
 34 33  2  0  0  0  0
 36 34  1  0  0  0  0
 37 38  1  0  0  0  0
 37 36  1  0  0  0  0
 39 41  2  0  0  0  0
 39 37  1  0  0  0  0
 40 39  1  0  0  0  0
 41 42  1  0  0  0  0
 42 36  2  0  0  0  0
 42 43  1  0  0  0  0
 43 32  2  0  0  0  0
M  END
>  <minimizedAffinity>
-5.48365116

>  <minimizedRMSD>
2.09666038

$$$$
