
 OpenBabel03272506103D

 47 51  0  0  0  0  0  0  0  0999 V2000
   36.6830   26.2600   32.4030 C   0  0  0  0  0  0  0  0  0  0  0  0
   35.7660   25.7920   31.9570 H   0  0  0  0  0  0  0  0  0  0  0  0
   36.3100   26.9080   33.2150 H   0  0  0  0  0  0  0  0  0  0  0  0
   37.5550   25.1610   32.9570 C   0  0  0  0  0  0  0  0  0  0  0  0
   38.1930   24.2590   32.0370 C   0  0  0  0  0  0  0  0  0  0  0  0
   39.0650   23.2010   33.1630 S   0  0  0  0  0  0  0  0  0  0  0  0
   38.4730   24.0880   34.7010 C   0  0  0  0  0  0  0  0  0  0  0  0
   37.7970   24.9340   34.2110 N   0  0  0  0  0  0  0  0  0  0  0  0
   38.7300   23.8540   36.1130 N   0  0  0  0  0  0  0  0  0  0  0  0
   40.0090   23.2910   36.4330 C   0  0  0  0  0  0  0  0  0  0  0  0
   40.0940   22.6910   37.7940 C   0  0  0  0  0  0  0  0  0  0  0  0
   38.8230   22.6500   38.4900 N   0  0  0  0  0  0  0  0  0  0  0  0
   38.2980   24.0040   38.4560 C   0  0  0  0  0  0  0  0  0  0  0  0
   37.7220   24.1910   37.0780 C   0  0  0  0  0  0  0  0  0  0  0  0
   38.1320   24.2620   30.9860 H   0  0  0  0  0  0  0  0  0  0  0  0
   40.8130   24.0610   36.3020 H   0  0  0  0  0  0  0  0  0  0  0  0
   40.2380   22.4830   35.7010 H   0  0  0  0  0  0  0  0  0  0  0  0
   40.7790   23.2880   38.4580 H   0  0  0  0  0  0  0  0  0  0  0  0
   40.5570   21.6710   37.7920 H   0  0  0  0  0  0  0  0  0  0  0  0
   38.1790   21.9400   38.1250 H   0  0  0  0  0  0  0  0  0  0  0  0
   39.1100   24.7150   38.6300 H   0  0  0  0  0  0  0  0  0  0  0  0
   37.4700   24.0780   39.2030 H   0  0  0  0  0  0  0  0  0  0  0  0
   36.7940   23.5890   36.9600 H   0  0  0  0  0  0  0  0  0  0  0  0
   37.4360   25.2570   36.9680 H   0  0  0  0  0  0  0  0  0  0  0  0
   37.3770   27.0460   31.3720 C   0  0  0  0  0  0  0  0  0  0  0  0
   37.1210   26.6980   30.3400 H   0  0  0  0  0  0  0  0  0  0  0  0
   38.4770   27.0300   31.4180 H   0  0  0  0  0  0  0  0  0  0  0  0
   36.7880   30.6210   30.5270 C   0  0  0  0  0  0  0  0  0  0  0  0
   36.1450   31.0910   31.6700 C   0  0  0  0  0  0  0  0  0  0  0  0
   35.9240   30.1890   32.7070 C   0  0  0  0  0  0  0  0  0  0  0  0
   36.3440   28.9010   32.5500 N   0  0  0  0  0  0  0  0  0  0  0  0
   36.9610   28.5030   31.4200 C   0  0  0  0  0  0  0  0  0  0  0  0
   37.1850   29.3430   30.4140 N   0  0  0  0  0  0  0  0  0  0  0  0
   36.9830   31.2850   29.6900 H   0  0  0  0  0  0  0  0  0  0  0  0
   35.8400   32.1030   31.7360 H   0  0  0  0  0  0  0  0  0  0  0  0
   35.8420   31.3320   34.9410 C   0  0  0  0  0  3  0  0  0  0  0  0
   35.2610   30.5830   33.9420 C   0  0  0  0  0  0  0  0  0  0  0  0
   33.9570   30.2000   34.1680 C   0  0  0  0  0  0  0  0  0  0  0  0
   33.3870   29.6130   33.4680 H   0  0  0  0  0  0  0  0  0  0  0  0
   33.2530   30.5360   35.3230 C   0  0  0  0  0  0  0  0  0  0  0  0
   32.0210   30.3160   35.8080 N   0  0  0  0  0  0  0  0  0  0  0  0
   31.2960   29.7670   35.2940 H   0  0  0  0  0  0  0  0  0  0  0  0
   31.8630   30.8860   37.0080 C   0  0  0  0  0  0  0  0  0  0  0  0
   30.9880   30.8830   37.6450 H   0  0  0  0  0  0  0  0  0  0  0  0
   33.0390   31.5230   37.3600 C   0  0  0  0  0  3  0  0  0  0  0  0
   33.8850   31.2870   36.2920 C   0  0  0  0  0  0  0  0  0  0  0  0
   35.1870   31.6890   36.1010 C   0  0  0  0  0  3  0  0  0  0  0  0
  1  4  1  0  0  0  0
  1  3  1  0  0  0  0
  2  1  1  0  0  0  0
  4  8  1  0  0  0  0
  5  4  2  0  0  0  0
  5  6  1  0  0  0  0
  6  7  1  0  0  0  0
  7  9  1  0  0  0  0
  8  7  2  0  0  0  0
  9 10  1  0  0  0  0
  9 14  1  0  0  0  0
 10 11  1  0  0  0  0
 11 18  1  0  0  0  0
 11 12  1  0  0  0  0
 13 12  1  0  0  0  0
 13 21  1  0  0  0  0
 13 22  1  0  0  0  0
 14 13  1  0  0  0  0
 15  5  1  0  0  0  0
 16 10  1  0  0  0  0
 17 10  1  0  0  0  0
 19 11  1  0  0  0  0
 20 12  1  0  0  0  0
 23 14  1  0  0  0  0
 24 14  1  0  0  0  0
 25 27  1  0  0  0  0
 25 32  1  0  0  0  0
 25  1  1  0  0  0  0
 26 25  1  0  0  0  0
 28 29  1  0  0  0  0
 29 35  1  0  0  0  0
 29 30  2  0  0  0  0
 30 37  1  0  0  0  0
 31 30  1  0  0  0  0
 32 31  2  0  0  0  0
 33 28  2  0  0  0  0
 33 32  1  0  0  0  0
 34 28  1  0  0  0  0
 36 47  1  0  0  0  0
 37 38  1  0  0  0  0
 37 36  2  0  0  0  0
 38 40  2  0  0  0  0
 39 38  1  0  0  0  0
 40 41  1  0  0  0  0
 40 46  1  0  0  0  0
 41 43  1  0  0  0  0
 42 41  1  0  0  0  0
 43 45  2  0  0  0  0
 43 44  1  0  0  0  0
 46 45  1  0  0  0  0
 47 46  2  0  0  0  0
M  END
>  <minimizedAffinity>
-6.81840277

$$$$

 OpenBabel03272506103D

 47 51  0  0  0  0  0  0  0  0999 V2000
   36.4470   28.1880   34.1030 C   0  0  0  0  0  0  0  0  0  0  0  0
   35.4570   28.0960   34.6240 H   0  0  0  0  0  0  0  0  0  0  0  0
   37.0210   28.9170   34.7030 H   0  0  0  0  0  0  0  0  0  0  0  0
   37.1200   26.8390   34.1190 C   0  0  0  0  0  0  0  0  0  0  0  0
   37.3250   26.1570   32.8700 C   0  0  0  0  0  0  0  0  0  0  0  0
   38.1220   24.6740   33.4300 S   0  0  0  0  0  0  0  0  0  0  0  0
   38.0810   25.1490   35.2400 C   0  0  0  0  0  0  0  0  0  0  0  0
   37.5460   26.2080   35.1690 N   0  0  0  0  0  0  0  0  0  0  0  0
   38.5500   24.4610   36.4330 N   0  0  0  0  0  0  0  0  0  0  0  0
   39.6920   23.6120   36.2580 C   0  0  0  0  0  0  0  0  0  0  0  0
   39.9000   22.6270   37.3560 C   0  0  0  0  0  0  0  0  0  0  0  0
   38.8200   22.6020   38.3250 N   0  0  0  0  0  0  0  0  0  0  0  0
   38.6420   23.9750   38.7680 C   0  0  0  0  0  0  0  0  0  0  0  0
   37.8660   24.6640   37.6790 C   0  0  0  0  0  0  0  0  0  0  0  0
   37.0590   26.4860   31.9060 H   0  0  0  0  0  0  0  0  0  0  0  0
   40.6160   24.2330   36.1200 H   0  0  0  0  0  0  0  0  0  0  0  0
   39.5690   23.0340   35.3140 H   0  0  0  0  0  0  0  0  0  0  0  0
   40.8260   22.8670   37.9480 H   0  0  0  0  0  0  0  0  0  0  0  0
   40.0930   21.5900   36.9800 H   0  0  0  0  0  0  0  0  0  0  0  0
   37.9650   22.1590   37.9740 H   0  0  0  0  0  0  0  0  0  0  0  0
   39.6200   24.4470   38.8970 H   0  0  0  0  0  0  0  0  0  0  0  0
   38.0220   23.9650   39.6980 H   0  0  0  0  0  0  0  0  0  0  0  0
   36.8160   24.2980   37.6580 H   0  0  0  0  0  0  0  0  0  0  0  0
   37.8290   25.7470   37.9160 H   0  0  0  0  0  0  0  0  0  0  0  0
   36.2310   28.6800   32.7340 C   0  0  0  0  0  0  0  0  0  0  0  0
   36.1330   27.8390   32.0010 H   0  0  0  0  0  0  0  0  0  0  0  0
   37.0240   29.3270   32.3280 H   0  0  0  0  0  0  0  0  0  0  0  0
   33.5470   31.0150   31.6460 C   0  0  0  0  0  0  0  0  0  0  0  0
   32.5460   30.7690   32.5830 C   0  0  0  0  0  0  0  0  0  0  0  0
   32.7990   29.8170   33.5670 C   0  0  0  0  0  0  0  0  0  0  0  0
   34.0050   29.1790   33.5610 N   0  0  0  0  0  0  0  0  0  0  0  0
   34.9350   29.4590   32.6280 C   0  0  0  0  0  0  0  0  0  0  0  0
   34.7210   30.3630   31.6780 N   0  0  0  0  0  0  0  0  0  0  0  0
   33.3990   31.7470   30.8580 H   0  0  0  0  0  0  0  0  0  0  0  0
   31.6290   31.2950   32.5380 H   0  0  0  0  0  0  0  0  0  0  0  0
   30.4920   29.8640   34.5590 C   0  0  0  0  0  3  0  0  0  0  0  0
   31.8170   29.4900   34.5910 C   0  0  0  0  0  0  0  0  0  0  0  0
   32.2000   28.7530   35.6910 C   0  0  0  0  0  0  0  0  0  0  0  0
   33.2050   28.3970   35.8390 H   0  0  0  0  0  0  0  0  0  0  0  0
   31.3220   28.3980   36.7140 C   0  0  0  0  0  0  0  0  0  0  0  0
   31.3990   27.7140   37.8660 N   0  0  0  0  0  0  0  0  0  0  0  0
   32.2830   27.2770   38.2110 H   0  0  0  0  0  0  0  0  0  0  0  0
   30.2140   27.6740   38.4860 C   0  0  0  0  0  0  0  0  0  0  0  0
   29.9620   27.2000   39.4260 H   0  0  0  0  0  0  0  0  0  0  0  0
   29.2870   28.3620   37.7260 C   0  0  0  0  0  3  0  0  0  0  0  0
   30.0050   28.8010   36.6300 C   0  0  0  0  0  0  0  0  0  0  0  0
   29.5870   29.5380   35.5460 C   0  0  0  0  0  3  0  0  0  0  0  0
  1  4  1  0  0  0  0
  1  2  1  0  0  0  0
  1  3  1  0  0  0  0
  4  8  1  0  0  0  0
  5  6  1  0  0  0  0
  5  4  2  0  0  0  0
  6  7  1  0  0  0  0
  7  9  1  0  0  0  0
  8  7  2  0  0  0  0
  9 14  1  0  0  0  0
 10  9  1  0  0  0  0
 10 11  1  0  0  0  0
 11 18  1  0  0  0  0
 11 12  1  0  0  0  0
 12 13  1  0  0  0  0
 13 21  1  0  0  0  0
 13 22  1  0  0  0  0
 14 24  1  0  0  0  0
 14 13  1  0  0  0  0
 15  5  1  0  0  0  0
 16 10  1  0  0  0  0
 17 10  1  0  0  0  0
 19 11  1  0  0  0  0
 20 12  1  0  0  0  0
 23 14  1  0  0  0  0
 25  1  1  0  0  0  0
 26 25  1  0  0  0  0
 27 25  1  0  0  0  0
 28 33  2  0  0  0  0
 28 29  1  0  0  0  0
 29 30  2  0  0  0  0
 30 37  1  0  0  0  0
 31 30  1  0  0  0  0
 32 25  1  0  0  0  0
 32 31  2  0  0  0  0
 33 32  1  0  0  0  0
 34 28  1  0  0  0  0
 35 29  1  0  0  0  0
 36 37  2  0  0  0  0
 36 47  1  0  0  0  0
 37 38  1  0  0  0  0
 38 39  1  0  0  0  0
 38 40  2  0  0  0  0
 40 41  1  0  0  0  0
 41 42  1  0  0  0  0
 41 43  1  0  0  0  0
 43 44  1  0  0  0  0
 45 43  2  0  0  0  0
 46 40  1  0  0  0  0
 46 45  1  0  0  0  0
 47 46  2  0  0  0  0
M  END
>  <minimizedAffinity>
-6.59743404

$$$$

 OpenBabel03272506103D

 47 51  0  0  0  0  0  0  0  0999 V2000
   37.1450   27.0210   32.7960 C   0  0  0  0  0  0  0  0  0  0  0  0
   37.8230   27.6820   32.1920 H   0  0  0  0  0  0  0  0  0  0  0  0
   36.3240   26.7500   32.1100 H   0  0  0  0  0  0  0  0  0  0  0  0
   37.9210   25.7960   33.2080 C   0  0  0  0  0  0  0  0  0  0  0  0
   38.4800   24.9570   32.1820 C   0  0  0  0  0  0  0  0  0  0  0  0
   39.2600   23.7050   33.1670 S   0  0  0  0  0  0  0  0  0  0  0  0
   38.7460   24.4520   34.8050 C   0  0  0  0  0  0  0  0  0  0  0  0
   38.1440   25.4040   34.4240 N   0  0  0  0  0  0  0  0  0  0  0  0
   38.9830   24.0330   36.1770 N   0  0  0  0  0  0  0  0  0  0  0  0
   40.2090   23.3310   36.4150 C   0  0  0  0  0  0  0  0  0  0  0  0
   40.2450   22.5710   37.6960 C   0  0  0  0  0  0  0  0  0  0  0  0
   38.9740   22.5540   38.3950 N   0  0  0  0  0  0  0  0  0  0  0  0
   38.5660   23.9430   38.5260 C   0  0  0  0  0  0  0  0  0  0  0  0
   38.0070   24.3380   37.1850 C   0  0  0  0  0  0  0  0  0  0  0  0
   38.4190   25.0890   31.1390 H   0  0  0  0  0  0  0  0  0  0  0  0
   41.0760   24.0410   36.3670 H   0  0  0  0  0  0  0  0  0  0  0  0
   40.3700   22.5990   35.5920 H   0  0  0  0  0  0  0  0  0  0  0  0
   40.9770   23.0250   38.4190 H   0  0  0  0  0  0  0  0  0  0  0  0
   40.6200   21.5230   37.5700 H   0  0  0  0  0  0  0  0  0  0  0  0
   38.2730   21.9490   37.9570 H   0  0  0  0  0  0  0  0  0  0  0  0
   39.4350   24.5580   38.7730 H   0  0  0  0  0  0  0  0  0  0  0  0
   37.7470   23.9980   39.2850 H   0  0  0  0  0  0  0  0  0  0  0  0
   37.0320   23.8330   37.0070 H   0  0  0  0  0  0  0  0  0  0  0  0
   37.8120   25.4290   37.2030 H   0  0  0  0  0  0  0  0  0  0  0  0
   36.6430   27.7710   33.9570 C   0  0  0  0  0  0  0  0  0  0  0  0
   37.4690   28.0650   34.6520 H   0  0  0  0  0  0  0  0  0  0  0  0
   35.9090   27.2430   34.5860 H   0  0  0  0  0  0  0  0  0  0  0  0
   35.2210   30.5630   31.9510 C   0  0  0  0  0  0  0  0  0  0  0  0
   34.8150   31.4580   32.9390 C   0  0  0  0  0  0  0  0  0  0  0  0
   35.0310   31.0990   34.2660 C   0  0  0  0  0  0  0  0  0  0  0  0
   35.6240   29.8990   34.5290 N   0  0  0  0  0  0  0  0  0  0  0  0
   35.9950   29.0740   33.5300 C   0  0  0  0  0  0  0  0  0  0  0  0
   35.8010   29.3900   32.2540 N   0  0  0  0  0  0  0  0  0  0  0  0
   35.0740   30.7960   30.9000 H   0  0  0  0  0  0  0  0  0  0  0  0
   34.3590   32.3760   32.6760 H   0  0  0  0  0  0  0  0  0  0  0  0
   33.7570   31.6210   36.3670 C   0  0  0  0  0  3  0  0  0  0  0  0
   34.6430   31.9650   35.3700 C   0  0  0  0  0  0  0  0  0  0  0  0
   35.1780   33.2320   35.4620 C   0  0  0  0  0  0  0  0  0  0  0  0
   35.8820   33.6260   34.7500 H   0  0  0  0  0  0  0  0  0  0  0  0
   34.8590   34.1220   36.4870 C   0  0  0  0  0  0  0  0  0  0  0  0
   35.2040   35.3730   36.8300 N   0  0  0  0  0  0  0  0  0  0  0  0
   35.8780   35.9490   36.2780 H   0  0  0  0  0  0  0  0  0  0  0  0
   34.5780   35.7590   37.9470 C   0  0  0  0  0  0  0  0  0  0  0  0
   34.6520   36.7060   38.4670 H   0  0  0  0  0  0  0  0  0  0  0  0
   33.7690   34.7290   38.3870 C   0  0  0  0  0  3  0  0  0  0  0  0
   33.9640   33.7240   37.4590 C   0  0  0  0  0  0  0  0  0  0  0  0
   33.4100   32.4660   37.3990 C   0  0  0  0  0  3  0  0  0  0  0  0
  1  4  1  0  0  0  0
  1 25  1  0  0  0  0
  2  1  1  0  0  0  0
  3  1  1  0  0  0  0
  4  8  1  0  0  0  0
  5  6  1  0  0  0  0
  5  4  2  0  0  0  0
  6  7  1  0  0  0  0
  7  9  1  0  0  0  0
  8  7  2  0  0  0  0
  9 10  1  0  0  0  0
  9 14  1  0  0  0  0
 10 11  1  0  0  0  0
 11 12  1  0  0  0  0
 11 18  1  0  0  0  0
 12 13  1  0  0  0  0
 13 21  1  0  0  0  0
 13 22  1  0  0  0  0
 14 24  1  0  0  0  0
 14 13  1  0  0  0  0
 15  5  1  0  0  0  0
 16 10  1  0  0  0  0
 17 10  1  0  0  0  0
 19 11  1  0  0  0  0
 20 12  1  0  0  0  0
 23 14  1  0  0  0  0
 25 27  1  0  0  0  0
 25 26  1  0  0  0  0
 28 33  2  0  0  0  0
 28 29  1  0  0  0  0
 29 30  2  0  0  0  0
 30 31  1  0  0  0  0
 30 37  1  0  0  0  0
 32 25  1  0  0  0  0
 32 31  2  0  0  0  0
 33 32  1  0  0  0  0
 34 28  1  0  0  0  0
 35 29  1  0  0  0  0
 36 47  1  0  0  0  0
 37 38  1  0  0  0  0
 37 36  2  0  0  0  0
 38 40  2  0  0  0  0
 39 38  1  0  0  0  0
 40 41  1  0  0  0  0
 40 46  1  0  0  0  0
 41 43  1  0  0  0  0
 42 41  1  0  0  0  0
 43 45  2  0  0  0  0
 43 44  1  0  0  0  0
 46 45  1  0  0  0  0
 47 46  2  0  0  0  0
M  END
>  <minimizedAffinity>
-6.43965244

$$$$

 OpenBabel03272506103D

 47 51  0  0  0  0  0  0  0  0999 V2000
   39.5250   25.7410   34.4920 C   0  0  0  0  0  0  0  0  0  0  0  0
   40.5890   25.7890   34.8470 H   0  0  0  0  0  0  0  0  0  0  0  0
   39.5730   25.9600   33.4110 H   0  0  0  0  0  0  0  0  0  0  0  0
   39.0080   24.3450   34.7300 C   0  0  0  0  0  0  0  0  0  0  0  0
   39.4040   23.6590   35.9310 C   0  0  0  0  0  0  0  0  0  0  0  0
   38.5530   22.1160   35.7270 S   0  0  0  0  0  0  0  0  0  0  0  0
   37.7860   22.5780   34.0830 C   0  0  0  0  0  0  0  0  0  0  0  0
   38.2230   23.6740   33.9450 N   0  0  0  0  0  0  0  0  0  0  0  0
   36.9040   21.8460   33.1860 N   0  0  0  0  0  0  0  0  0  0  0  0
   36.0100   20.9160   33.8080 C   0  0  0  0  0  0  0  0  0  0  0  0
   35.4250   19.9080   32.8790 C   0  0  0  0  0  0  0  0  0  0  0  0
   35.9880   19.9570   31.5430 N   0  0  0  0  0  0  0  0  0  0  0  0
   35.8620   21.3350   31.1010 C   0  0  0  0  0  0  0  0  0  0  0  0
   36.9770   22.0900   31.7730 C   0  0  0  0  0  0  0  0  0  0  0  0
   40.0310   24.0150   36.6980 H   0  0  0  0  0  0  0  0  0  0  0  0
   35.1900   21.4660   34.3410 H   0  0  0  0  0  0  0  0  0  0  0  0
   36.5630   20.3570   34.5960 H   0  0  0  0  0  0  0  0  0  0  0  0
   34.3210   20.0730   32.7440 H   0  0  0  0  0  0  0  0  0  0  0  0
   35.4860   18.8630   33.2760 H   0  0  0  0  0  0  0  0  0  0  0  0
   36.9410   19.5820   31.4860 H   0  0  0  0  0  0  0  0  0  0  0  0
   34.8910   21.7310   31.4110 H   0  0  0  0  0  0  0  0  0  0  0  0
   36.0260   21.3650   29.9960 H   0  0  0  0  0  0  0  0  0  0  0  0
   37.9590   21.8040   31.3360 H   0  0  0  0  0  0  0  0  0  0  0  0
   36.8310   23.1710   31.5700 H   0  0  0  0  0  0  0  0  0  0  0  0
   38.7290   26.7520   35.2050 C   0  0  0  0  0  0  0  0  0  0  0  0
   39.3710   27.5690   35.6220 H   0  0  0  0  0  0  0  0  0  0  0  0
   38.1400   26.3820   36.0580 H   0  0  0  0  0  0  0  0  0  0  0  0
   36.8450   27.8610   32.1950 C   0  0  0  0  0  0  0  0  0  0  0  0
   35.9400   28.7730   32.7340 C   0  0  0  0  0  0  0  0  0  0  0  0
   35.9850   28.9950   34.1070 C   0  0  0  0  0  0  0  0  0  0  0  0
   36.9060   28.3140   34.8480 N   0  0  0  0  0  0  0  0  0  0  0  0
   37.7560   27.4430   34.2700 C   0  0  0  0  0  0  0  0  0  0  0  0
   37.7360   27.2110   32.9620 N   0  0  0  0  0  0  0  0  0  0  0  0
   36.8500   27.6510   31.1290 H   0  0  0  0  0  0  0  0  0  0  0  0
   35.2470   29.2720   32.1090 H   0  0  0  0  0  0  0  0  0  0  0  0
   33.7280   30.0130   34.5280 C   0  0  0  0  0  3  0  0  0  0  0  0
   35.0820   29.9290   34.7650 C   0  0  0  0  0  0  0  0  0  0  0  0
   35.5770   30.8110   35.7000 C   0  0  0  0  0  0  0  0  0  0  0  0
   36.6160   30.8500   35.9790 H   0  0  0  0  0  0  0  0  0  0  0  0
   34.7800   31.7350   36.3740 C   0  0  0  0  0  0  0  0  0  0  0  0
   34.9690   32.6870   37.3020 N   0  0  0  0  0  0  0  0  0  0  0  0
   35.9030   32.9000   37.7180 H   0  0  0  0  0  0  0  0  0  0  0  0
   33.8200   33.3010   37.6060 C   0  0  0  0  0  0  0  0  0  0  0  0
   33.6530   34.1040   38.3130 H   0  0  0  0  0  0  0  0  0  0  0  0
   32.8020   32.7470   36.8530 C   0  0  0  0  0  3  0  0  0  0  0  0
   33.4290   31.7760   36.0960 C   0  0  0  0  0  0  0  0  0  0  0  0
   32.8990   30.9100   35.1680 C   0  0  0  0  0  3  0  0  0  0  0  0
  1  4  1  0  0  0  0
  1  2  1  0  0  0  0
  1 25  1  0  0  0  0
  3  1  1  0  0  0  0
  4  5  2  0  0  0  0
  5 15  1  0  0  0  0
  6  5  1  0  0  0  0
  7  6  1  0  0  0  0
  8  7  2  0  0  0  0
  8  4  1  0  0  0  0
  9 10  1  0  0  0  0
  9  7  1  0  0  0  0
 10 16  1  0  0  0  0
 10 17  1  0  0  0  0
 11 19  1  0  0  0  0
 11 10  1  0  0  0  0
 12 11  1  0  0  0  0
 13 21  1  0  0  0  0
 13 12  1  0  0  0  0
 13 14  1  0  0  0  0
 14  9  1  0  0  0  0
 18 11  1  0  0  0  0
 20 12  1  0  0  0  0
 22 13  1  0  0  0  0
 23 14  1  0  0  0  0
 24 14  1  0  0  0  0
 25 26  1  0  0  0  0
 25 27  1  0  0  0  0
 28 29  2  0  0  0  0
 28 33  1  0  0  0  0
 29 30  1  0  0  0  0
 30 37  1  0  0  0  0
 30 31  2  0  0  0  0
 32 31  1  0  0  0  0
 32 25  1  0  0  0  0
 33 32  2  0  0  0  0
 34 28  1  0  0  0  0
 35 29  1  0  0  0  0
 36 37  2  0  0  0  0
 36 47  1  0  0  0  0
 37 38  1  0  0  0  0
 38 39  1  0  0  0  0
 38 40  2  0  0  0  0
 40 41  1  0  0  0  0
 41 43  1  0  0  0  0
 41 42  1  0  0  0  0
 43 44  1  0  0  0  0
 45 43  2  0  0  0  0
 46 40  1  0  0  0  0
 46 45  1  0  0  0  0
 47 46  2  0  0  0  0
M  END
>  <minimizedAffinity>
-6.30673933

$$$$

 OpenBabel03272506103D

 47 51  0  0  0  0  0  0  0  0999 V2000
   39.3350   27.0060   32.2900 C   0  0  0  0  0  0  0  0  0  0  0  0
   38.4900   27.1830   33.0080 H   0  0  0  0  0  0  0  0  0  0  0  0
   39.9300   27.9360   32.3120 H   0  0  0  0  0  0  0  0  0  0  0  0
   40.1490   25.8410   32.7940 C   0  0  0  0  0  0  0  0  0  0  0  0
   41.1790   25.3030   31.9460 C   0  0  0  0  0  0  0  0  0  0  0  0
   41.8070   24.0010   32.9740 S   0  0  0  0  0  0  0  0  0  0  0  0
   40.6280   24.3370   34.3890 C   0  0  0  0  0  0  0  0  0  0  0  0
   40.0170   25.2540   33.9420 N   0  0  0  0  0  0  0  0  0  0  0  0
   40.4600   23.6950   35.6830 N   0  0  0  0  0  0  0  0  0  0  0  0
   41.6450   23.1330   36.2620 C   0  0  0  0  0  0  0  0  0  0  0  0
   41.3910   22.1500   37.3520 C   0  0  0  0  0  0  0  0  0  0  0  0
   39.9880   21.8250   37.5230 N   0  0  0  0  0  0  0  0  0  0  0  0
   39.2940   23.0920   37.6760 C   0  0  0  0  0  0  0  0  0  0  0  0
   39.1590   23.6610   36.2900 C   0  0  0  0  0  0  0  0  0  0  0  0
   41.4520   25.6260   30.9820 H   0  0  0  0  0  0  0  0  0  0  0  0
   42.3170   23.9510   36.6330 H   0  0  0  0  0  0  0  0  0  0  0  0
   42.2180   22.6050   35.4670 H   0  0  0  0  0  0  0  0  0  0  0  0
   41.7280   22.5510   38.3480 H   0  0  0  0  0  0  0  0  0  0  0  0
   41.9850   21.2080   37.2360 H   0  0  0  0  0  0  0  0  0  0  0  0
   39.6120   21.2260   36.7800 H   0  0  0  0  0  0  0  0  0  0  0  0
   39.8870   23.7600   38.3070 H   0  0  0  0  0  0  0  0  0  0  0  0
   38.2720   22.8860   38.0790 H   0  0  0  0  0  0  0  0  0  0  0  0
   38.4230   23.0730   35.6980 H   0  0  0  0  0  0  0  0  0  0  0  0
   38.7580   24.6910   36.3790 H   0  0  0  0  0  0  0  0  0  0  0  0
   38.7870   26.7560   30.9480 C   0  0  0  0  0  0  0  0  0  0  0  0
   39.4620   26.1030   30.3380 H   0  0  0  0  0  0  0  0  0  0  0  0
   38.6120   27.6500   30.3290 H   0  0  0  0  0  0  0  0  0  0  0  0
   35.1670   25.9020   30.9880 C   0  0  0  0  0  0  0  0  0  0  0  0
   35.1920   24.5220   31.1800 C   0  0  0  0  0  0  0  0  0  0  0  0
   36.4360   23.9070   31.2930 C   0  0  0  0  0  0  0  0  0  0  0  0
   37.5560   24.6810   31.2100 N   0  0  0  0  0  0  0  0  0  0  0  0
   37.4690   26.0120   31.0230 C   0  0  0  0  0  0  0  0  0  0  0  0
   36.2950   26.6260   30.9120 N   0  0  0  0  0  0  0  0  0  0  0  0
   34.2220   26.4300   30.8930 H   0  0  0  0  0  0  0  0  0  0  0  0
   34.2900   23.9720   31.2360 H   0  0  0  0  0  0  0  0  0  0  0  0
   37.7640   21.7970   31.5890 C   0  0  0  0  0  3  0  0  0  0  0  0
   36.5680   22.4710   31.4950 C   0  0  0  0  0  0  0  0  0  0  0  0
   35.4370   21.6910   31.6050 C   0  0  0  0  0  0  0  0  0  0  0  0
   34.4390   22.0930   31.5500 H   0  0  0  0  0  0  0  0  0  0  0  0
   35.4770   20.3120   31.8000 C   0  0  0  0  0  0  0  0  0  0  0  0
   34.5790   19.3240   31.9400 N   0  0  0  0  0  0  0  0  0  0  0  0
   33.5470   19.4840   31.9180 H   0  0  0  0  0  0  0  0  0  0  0  0
   35.1820   18.1410   32.1060 C   0  0  0  0  0  0  0  0  0  0  0  0
   34.7290   17.1680   32.2440 H   0  0  0  0  0  0  0  0  0  0  0  0
   36.5520   18.3280   32.0780 C   0  0  0  0  0  3  0  0  0  0  0  0
   36.7050   19.6880   31.8860 C   0  0  0  0  0  0  0  0  0  0  0  0
   37.8560   20.4340   31.7810 C   0  0  0  0  0  3  0  0  0  0  0  0
  1  3  1  0  0  0  0
  1  4  1  0  0  0  0
  1  2  1  0  0  0  0
  4  8  1  0  0  0  0
  5  4  2  0  0  0  0
  5  6  1  0  0  0  0
  6  7  1  0  0  0  0
  7  9  1  0  0  0  0
  8  7  2  0  0  0  0
  9 10  1  0  0  0  0
  9 14  1  0  0  0  0
 10 16  1  0  0  0  0
 10 11  1  0  0  0  0
 11 12  1  0  0  0  0
 11 18  1  0  0  0  0
 12 13  1  0  0  0  0
 13 22  1  0  0  0  0
 13 21  1  0  0  0  0
 14 24  1  0  0  0  0
 14 13  1  0  0  0  0
 15  5  1  0  0  0  0
 17 10  1  0  0  0  0
 19 11  1  0  0  0  0
 20 12  1  0  0  0  0
 23 14  1  0  0  0  0
 25 32  1  0  0  0  0
 25  1  1  0  0  0  0
 26 25  1  0  0  0  0
 27 25  1  0  0  0  0
 28 29  1  0  0  0  0
 29 35  1  0  0  0  0
 29 30  2  0  0  0  0
 30 37  1  0  0  0  0
 31 30  1  0  0  0  0
 32 31  2  0  0  0  0
 33 28  2  0  0  0  0
 33 32  1  0  0  0  0
 34 28  1  0  0  0  0
 36 47  1  0  0  0  0
 37 36  2  0  0  0  0
 37 38  1  0  0  0  0
 38 40  2  0  0  0  0
 39 38  1  0  0  0  0
 40 46  1  0  0  0  0
 40 41  1  0  0  0  0
 41 43  1  0  0  0  0
 42 41  1  0  0  0  0
 43 44  1  0  0  0  0
 45 43  2  0  0  0  0
 46 45  1  0  0  0  0
 47 46  2  0  0  0  0
M  END
>  <minimizedAffinity>
-6.28215504

$$$$

 OpenBabel03272506103D

 47 51  0  0  0  0  0  0  0  0999 V2000
   35.9700   23.2260   31.8380 C   0  0  0  0  0  0  0  0  0  0  0  0
   35.3850   22.3720   31.4030 H   0  0  0  0  0  0  0  0  0  0  0  0
   35.2850   23.7060   32.5590 H   0  0  0  0  0  0  0  0  0  0  0  0
   37.1770   22.6630   32.5440 C   0  0  0  0  0  0  0  0  0  0  0  0
   38.0370   21.7620   31.8260 C   0  0  0  0  0  0  0  0  0  0  0  0
   39.2560   21.4090   33.0660 S   0  0  0  0  0  0  0  0  0  0  0  0
   38.4700   22.4980   34.3700 C   0  0  0  0  0  0  0  0  0  0  0  0
   37.5340   22.9100   33.7660 N   0  0  0  0  0  0  0  0  0  0  0  0
   38.8500   22.7900   35.7440 N   0  0  0  0  0  0  0  0  0  0  0  0
   40.2550   22.7640   36.0250 C   0  0  0  0  0  0  0  0  0  0  0  0
   40.5910   22.6590   37.4730 C   0  0  0  0  0  0  0  0  0  0  0  0
   39.4340   22.4470   38.3220 N   0  0  0  0  0  0  0  0  0  0  0  0
   38.4920   23.5030   37.9930 C   0  0  0  0  0  0  0  0  0  0  0  0
   37.8280   23.0820   36.7100 C   0  0  0  0  0  0  0  0  0  0  0  0
   37.9340   21.4290   30.8320 H   0  0  0  0  0  0  0  0  0  0  0  0
   40.7540   23.6640   35.5800 H   0  0  0  0  0  0  0  0  0  0  0  0
   40.7060   21.8820   35.5160 H   0  0  0  0  0  0  0  0  0  0  0  0
   41.0680   23.6060   37.8490 H   0  0  0  0  0  0  0  0  0  0  0  0
   41.3630   21.8760   37.6850 H   0  0  0  0  0  0  0  0  0  0  0  0
   39.0450   21.5010   38.2570 H   0  0  0  0  0  0  0  0  0  0  0  0
   39.0310   24.4440   37.8540 H   0  0  0  0  0  0  0  0  0  0  0  0
   37.7180   23.5460   38.7980 H   0  0  0  0  0  0  0  0  0  0  0  0
   37.1460   22.2210   36.8890 H   0  0  0  0  0  0  0  0  0  0  0  0
   37.2030   23.9260   36.3540 H   0  0  0  0  0  0  0  0  0  0  0  0
   36.3450   24.1550   30.7610 C   0  0  0  0  0  0  0  0  0  0  0  0
   35.4900   24.3550   30.0670 H   0  0  0  0  0  0  0  0  0  0  0  0
   37.1730   23.8280   30.1140 H   0  0  0  0  0  0  0  0  0  0  0  0
   36.2570   27.5780   32.2180 C   0  0  0  0  0  0  0  0  0  0  0  0
   37.6110   27.9010   32.2900 C   0  0  0  0  0  0  0  0  0  0  0  0
   38.5280   26.9540   31.8440 C   0  0  0  0  0  0  0  0  0  0  0  0
   38.0570   25.7670   31.3630 N   0  0  0  0  0  0  0  0  0  0  0  0
   36.7360   25.5100   31.3170 C   0  0  0  0  0  0  0  0  0  0  0  0
   35.8370   26.3960   31.7360 N   0  0  0  0  0  0  0  0  0  0  0  0
   35.5020   28.2820   32.5540 H   0  0  0  0  0  0  0  0  0  0  0  0
   37.9180   28.8390   32.6740 H   0  0  0  0  0  0  0  0  0  0  0  0
   40.7270   27.5460   30.7870 C   0  0  0  0  0  3  0  0  0  0  0  0
   39.9630   27.1970   31.8780 C   0  0  0  0  0  0  0  0  0  0  0  0
   40.6460   27.0800   33.0690 C   0  0  0  0  0  0  0  0  0  0  0  0
   40.1680   26.8150   33.9960 H   0  0  0  0  0  0  0  0  0  0  0  0
   42.0180   27.2970   33.1860 C   0  0  0  0  0  0  0  0  0  0  0  0
   42.9270   27.2590   34.1720 N   0  0  0  0  0  0  0  0  0  0  0  0
   42.6850   27.0220   35.1610 H   0  0  0  0  0  0  0  0  0  0  0  0
   44.1480   27.5610   33.7180 C   0  0  0  0  0  0  0  0  0  0  0  0
   45.0780   27.6140   34.2710 H   0  0  0  0  0  0  0  0  0  0  0  0
   44.0720   27.8160   32.3620 C   0  0  0  0  0  3  0  0  0  0  0  0
   42.7350   27.6430   32.0590 C   0  0  0  0  0  0  0  0  0  0  0  0
   42.0870   27.7690   30.8520 C   0  0  0  0  0  3  0  0  0  0  0  0
  1  4  1  0  0  0  0
  1  3  1  0  0  0  0
  2  1  1  0  0  0  0
  4  8  1  0  0  0  0
  5  4  2  0  0  0  0
  5  6  1  0  0  0  0
  6  7  1  0  0  0  0
  7  9  1  0  0  0  0
  8  7  2  0  0  0  0
  9 10  1  0  0  0  0
  9 14  1  0  0  0  0
 10 11  1  0  0  0  0
 11 19  1  0  0  0  0
 11 18  1  0  0  0  0
 11 12  1  0  0  0  0
 13 12  1  0  0  0  0
 13 22  1  0  0  0  0
 14 23  1  0  0  0  0
 14 13  1  0  0  0  0
 15  5  1  0  0  0  0
 16 10  1  0  0  0  0
 17 10  1  0  0  0  0
 20 12  1  0  0  0  0
 21 13  1  0  0  0  0
 24 14  1  0  0  0  0
 25 32  1  0  0  0  0
 25  1  1  0  0  0  0
 26 25  1  0  0  0  0
 27 25  1  0  0  0  0
 28 29  1  0  0  0  0
 28 34  1  0  0  0  0
 29 35  1  0  0  0  0
 30 37  1  0  0  0  0
 30 29  2  0  0  0  0
 31 30  1  0  0  0  0
 32 31  2  0  0  0  0
 32 33  1  0  0  0  0
 33 28  2  0  0  0  0
 36 47  2  0  0  0  0
 36 37  1  0  0  0  0
 37 38  2  0  0  0  0
 38 40  1  0  0  0  0
 38 39  1  0  0  0  0
 40 41  1  0  0  0  0
 41 42  1  0  0  0  0
 43 41  1  0  0  0  0
 43 44  1  0  0  0  0
 45 43  2  0  0  0  0
 46 45  1  0  0  0  0
 46 40  2  0  0  0  0
 47 46  1  0  0  0  0
M  END
>  <minimizedAffinity>
-6.24087906

$$$$

 OpenBabel03272506103D

 47 51  0  0  0  0  0  0  0  0999 V2000
   36.6720   22.2820   31.4080 C   0  0  0  0  0  0  0  0  0  0  0  0
   37.0930   22.3580   30.3700 H   0  0  0  0  0  0  0  0  0  0  0  0
   36.0160   21.3940   31.3880 H   0  0  0  0  0  0  0  0  0  0  0  0
   37.8150   22.0770   32.3700 C   0  0  0  0  0  0  0  0  0  0  0  0
   39.0050   21.4230   31.8960 C   0  0  0  0  0  0  0  0  0  0  0  0
   39.9970   21.4350   33.3670 S   0  0  0  0  0  0  0  0  0  0  0  0
   38.7110   22.3030   34.4150 C   0  0  0  0  0  0  0  0  0  0  0  0
   37.8420   22.4370   33.6160 N   0  0  0  0  0  0  0  0  0  0  0  0
   38.7170   22.7160   35.8100 N   0  0  0  0  0  0  0  0  0  0  0  0
   39.9950   23.0720   36.3530 C   0  0  0  0  0  0  0  0  0  0  0  0
   40.0470   23.0920   37.8410 C   0  0  0  0  0  0  0  0  0  0  0  0
   38.8370   22.5990   38.4700 N   0  0  0  0  0  0  0  0  0  0  0  0
   37.7410   23.3580   37.8910 C   0  0  0  0  0  0  0  0  0  0  0  0
   37.4820   22.7460   36.5410 C   0  0  0  0  0  0  0  0  0  0  0  0
   39.1940   21.0520   30.9290 H   0  0  0  0  0  0  0  0  0  0  0  0
   40.3250   24.0630   35.9440 H   0  0  0  0  0  0  0  0  0  0  0  0
   40.7510   22.3310   36.0060 H   0  0  0  0  0  0  0  0  0  0  0  0
   40.1780   24.1400   38.2290 H   0  0  0  0  0  0  0  0  0  0  0  0
   40.9350   22.5490   38.2530 H   0  0  0  0  0  0  0  0  0  0  0  0
   38.7260   21.5810   38.4040 H   0  0  0  0  0  0  0  0  0  0  0  0
   38.0370   24.4040   37.7860 H   0  0  0  0  0  0  0  0  0  0  0  0
   36.8360   23.2100   38.5300 H   0  0  0  0  0  0  0  0  0  0  0  0
   37.0220   21.7390   36.6520 H   0  0  0  0  0  0  0  0  0  0  0  0
   36.7450   23.3840   36.0110 H   0  0  0  0  0  0  0  0  0  0  0  0
   35.9080   23.5010   31.7130 C   0  0  0  0  0  0  0  0  0  0  0  0
   35.6310   23.5590   32.7960 H   0  0  0  0  0  0  0  0  0  0  0  0
   34.9600   23.6200   31.1650 H   0  0  0  0  0  0  0  0  0  0  0  0
   38.4740   25.8810   30.4510 C   0  0  0  0  0  0  0  0  0  0  0  0
   38.0910   27.0750   31.0580 C   0  0  0  0  0  0  0  0  0  0  0  0
   36.9700   27.0520   31.8840 C   0  0  0  0  0  0  0  0  0  0  0  0
   36.3110   25.8700   32.0540 N   0  0  0  0  0  0  0  0  0  0  0  0
   36.7280   24.7460   31.4400 C   0  0  0  0  0  0  0  0  0  0  0  0
   37.7940   24.7390   30.6470 N   0  0  0  0  0  0  0  0  0  0  0  0
   39.3400   25.8460   29.7970 H   0  0  0  0  0  0  0  0  0  0  0  0
   38.6410   27.9630   30.8880 H   0  0  0  0  0  0  0  0  0  0  0  0
   36.2960   28.3540   33.9220 C   0  0  0  0  0  3  0  0  0  0  0  0
   36.4910   28.2470   32.5630 C   0  0  0  0  0  0  0  0  0  0  0  0
   36.1980   29.3770   31.8300 C   0  0  0  0  0  0  0  0  0  0  0  0
   36.3080   29.4270   30.7600 H   0  0  0  0  0  0  0  0  0  0  0  0
   35.7350   30.5600   32.4040 C   0  0  0  0  0  0  0  0  0  0  0  0
   35.3780   31.7770   31.9660 N   0  0  0  0  0  0  0  0  0  0  0  0
   35.4060   32.0500   30.9580 H   0  0  0  0  0  0  0  0  0  0  0  0
   34.9960   32.5630   32.9780 C   0  0  0  0  0  0  0  0  0  0  0  0
   34.6570   33.5910   32.9410 H   0  0  0  0  0  0  0  0  0  0  0  0
   35.0950   31.8530   34.1600 C   0  0  0  0  0  3  0  0  0  0  0  0
   35.5570   30.6100   33.7710 C   0  0  0  0  0  0  0  0  0  0  0  0
   35.8390   29.5010   34.5360 C   0  0  0  0  0  3  0  0  0  0  0  0
  1 25  1  0  0  0  0
  1  4  1  0  0  0  0
  2  1  1  0  0  0  0
  3  1  1  0  0  0  0
  4  8  1  0  0  0  0
  5  4  2  0  0  0  0
  5  6  1  0  0  0  0
  6  7  1  0  0  0  0
  7  9  1  0  0  0  0
  8  7  2  0  0  0  0
  9 10  1  0  0  0  0
  9 14  1  0  0  0  0
 10 11  1  0  0  0  0
 11 18  1  0  0  0  0
 11 19  1  0  0  0  0
 11 12  1  0  0  0  0
 13 12  1  0  0  0  0
 13 22  1  0  0  0  0
 14 23  1  0  0  0  0
 14 13  1  0  0  0  0
 15  5  1  0  0  0  0
 16 10  1  0  0  0  0
 17 10  1  0  0  0  0
 20 12  1  0  0  0  0
 21 13  1  0  0  0  0
 24 14  1  0  0  0  0
 25 26  1  0  0  0  0
 27 25  1  0  0  0  0
 28 33  2  0  0  0  0
 28 29  1  0  0  0  0
 29 30  2  0  0  0  0
 30 31  1  0  0  0  0
 30 37  1  0  0  0  0
 32 25  1  0  0  0  0
 32 31  2  0  0  0  0
 33 32  1  0  0  0  0
 34 28  1  0  0  0  0
 35 29  1  0  0  0  0
 36 47  1  0  0  0  0
 37 36  2  0  0  0  0
 38 40  2  0  0  0  0
 38 37  1  0  0  0  0
 39 38  1  0  0  0  0
 40 46  1  0  0  0  0
 41 40  1  0  0  0  0
 41 43  1  0  0  0  0
 42 41  1  0  0  0  0
 43 45  2  0  0  0  0
 44 43  1  0  0  0  0
 46 45  1  0  0  0  0
 46 47  2  0  0  0  0
M  END
>  <minimizedAffinity>
-6.16226292

$$$$

 OpenBabel03272506103D

 47 51  0  0  0  0  0  0  0  0999 V2000
   36.6420   27.4360   32.2370 C   0  0  0  0  0  0  0  0  0  0  0  0
   37.7040   27.4130   31.8740 H   0  0  0  0  0  0  0  0  0  0  0  0
   36.6860   27.0680   33.2770 H   0  0  0  0  0  0  0  0  0  0  0  0
   36.1570   28.8630   32.1970 C   0  0  0  0  0  0  0  0  0  0  0  0
   36.0320   29.5120   30.9200 C   0  0  0  0  0  0  0  0  0  0  0  0
   35.4480   31.1120   31.4180 S   0  0  0  0  0  0  0  0  0  0  0  0
   35.4460   30.7140   33.2480 C   0  0  0  0  0  0  0  0  0  0  0  0
   35.8330   29.5910   33.2210 N   0  0  0  0  0  0  0  0  0  0  0  0
   35.0880   31.5100   34.4110 N   0  0  0  0  0  0  0  0  0  0  0  0
   34.0690   32.4970   34.2060 C   0  0  0  0  0  0  0  0  0  0  0  0
   34.0080   33.5470   35.2600 C   0  0  0  0  0  0  0  0  0  0  0  0
   35.0920   33.4680   36.2210 N   0  0  0  0  0  0  0  0  0  0  0  0
   35.0890   32.1040   36.7230 C   0  0  0  0  0  0  0  0  0  0  0  0
   35.7530   31.2700   35.6610 C   0  0  0  0  0  0  0  0  0  0  0  0
   36.2410   29.1090   29.9700 H   0  0  0  0  0  0  0  0  0  0  0  0
   33.0680   32.0010   34.1010 H   0  0  0  0  0  0  0  0  0  0  0  0
   34.2570   33.0110   33.2360 H   0  0  0  0  0  0  0  0  0  0  0  0
   33.0650   33.4600   35.8670 H   0  0  0  0  0  0  0  0  0  0  0  0
   33.9520   34.5840   34.8390 H   0  0  0  0  0  0  0  0  0  0  0  0
   35.9960   33.7760   35.8460 H   0  0  0  0  0  0  0  0  0  0  0  0
   34.0580   31.7750   36.8780 H   0  0  0  0  0  0  0  0  0  0  0  0
   35.7150   32.0700   37.6480 H   0  0  0  0  0  0  0  0  0  0  0  0
   36.8430   31.4900   35.6180 H   0  0  0  0  0  0  0  0  0  0  0  0
   35.6460   30.2030   35.9460 H   0  0  0  0  0  0  0  0  0  0  0  0
   35.8220   26.5520   31.3950 C   0  0  0  0  0  0  0  0  0  0  0  0
   36.0430   26.6920   30.3060 H   0  0  0  0  0  0  0  0  0  0  0  0
   34.7320   26.6790   31.4880 H   0  0  0  0  0  0  0  0  0  0  0  0
   35.7170   22.8340   31.4560 C   0  0  0  0  0  0  0  0  0  0  0  0
   36.7850   22.5230   32.2960 C   0  0  0  0  0  0  0  0  0  0  0  0
   37.5210   23.5790   32.8260 C   0  0  0  0  0  0  0  0  0  0  0  0
   37.1610   24.8540   32.4970 N   0  0  0  0  0  0  0  0  0  0  0  0
   36.1170   25.0930   31.6800 C   0  0  0  0  0  0  0  0  0  0  0  0
   35.3970   24.1040   31.1600 N   0  0  0  0  0  0  0  0  0  0  0  0
   35.1120   22.0460   31.0170 H   0  0  0  0  0  0  0  0  0  0  0  0
   37.0180   21.5140   32.5150 H   0  0  0  0  0  0  0  0  0  0  0  0
   39.9570   23.6930   33.4220 C   0  0  0  0  0  3  0  0  0  0  0  0
   38.6540   23.3590   33.7130 C   0  0  0  0  0  0  0  0  0  0  0  0
   38.4510   22.7740   34.9440 C   0  0  0  0  0  0  0  0  0  0  0  0
   37.4820   22.4650   35.2960 H   0  0  0  0  0  0  0  0  0  0  0  0
   39.4820   22.5280   35.8510 C   0  0  0  0  0  0  0  0  0  0  0  0
   39.5900   21.9940   37.0770 N   0  0  0  0  0  0  0  0  0  0  0  0
   38.7710   21.6260   37.6120 H   0  0  0  0  0  0  0  0  0  0  0  0
   40.8590   22.0030   37.4990 C   0  0  0  0  0  0  0  0  0  0  0  0
   41.2580   21.6430   38.4390 H   0  0  0  0  0  0  0  0  0  0  0  0
   41.6540   22.5670   36.5190 C   0  0  0  0  0  3  0  0  0  0  0  0
   40.7690   22.8840   35.5050 C   0  0  0  0  0  0  0  0  0  0  0  0
   41.0100   23.4700   34.2840 C   0  0  0  0  0  3  0  0  0  0  0  0
  1  3  1  0  0  0  0
  2  1  1  0  0  0  0
  4  1  1  0  0  0  0
  4  8  1  0  0  0  0
  5  6  1  0  0  0  0
  5  4  2  0  0  0  0
  6  7  1  0  0  0  0
  7  9  1  0  0  0  0
  8  7  2  0  0  0  0
  9 14  1  0  0  0  0
 10  9  1  0  0  0  0
 10 11  1  0  0  0  0
 11 18  1  0  0  0  0
 11 12  1  0  0  0  0
 12 13  1  0  0  0  0
 13 21  1  0  0  0  0
 13 22  1  0  0  0  0
 14 24  1  0  0  0  0
 14 13  1  0  0  0  0
 15  5  1  0  0  0  0
 16 10  1  0  0  0  0
 17 10  1  0  0  0  0
 19 11  1  0  0  0  0
 20 12  1  0  0  0  0
 23 14  1  0  0  0  0
 25 27  1  0  0  0  0
 25 32  1  0  0  0  0
 25  1  1  0  0  0  0
 26 25  1  0  0  0  0
 28 29  1  0  0  0  0
 29 35  1  0  0  0  0
 29 30  2  0  0  0  0
 30 37  1  0  0  0  0
 31 30  1  0  0  0  0
 32 31  2  0  0  0  0
 33 28  2  0  0  0  0
 33 32  1  0  0  0  0
 34 28  1  0  0  0  0
 36 37  2  0  0  0  0
 36 47  1  0  0  0  0
 37 38  1  0  0  0  0
 38 39  1  0  0  0  0
 38 40  2  0  0  0  0
 40 41  1  0  0  0  0
 41 43  1  0  0  0  0
 41 42  1  0  0  0  0
 43 44  1  0  0  0  0
 45 43  2  0  0  0  0
 46 40  1  0  0  0  0
 46 45  1  0  0  0  0
 47 46  2  0  0  0  0
M  END
>  <minimizedAffinity>
-6.14146709

$$$$

 OpenBabel03272506103D

 47 51  0  0  0  0  0  0  0  0999 V2000
   35.7710   29.6570   31.4200 C   0  0  0  0  0  0  0  0  0  0  0  0
   34.8250   29.6610   30.8150 H   0  0  0  0  0  0  0  0  0  0  0  0
   36.5850   29.5580   30.6810 H   0  0  0  0  0  0  0  0  0  0  0  0
   35.8730   30.9720   32.1510 C   0  0  0  0  0  0  0  0  0  0  0  0
   36.6710   32.0200   31.5730 C   0  0  0  0  0  0  0  0  0  0  0  0
   36.4620   33.3000   32.7840 S   0  0  0  0  0  0  0  0  0  0  0  0
   35.3490   32.2840   33.8940 C   0  0  0  0  0  0  0  0  0  0  0  0
   35.3040   31.2690   33.2780 N   0  0  0  0  0  0  0  0  0  0  0  0
   34.6990   32.5930   35.1590 N   0  0  0  0  0  0  0  0  0  0  0  0
   34.3330   33.9640   35.3560 C   0  0  0  0  0  0  0  0  0  0  0  0
   34.0560   34.3290   36.7740 C   0  0  0  0  0  0  0  0  0  0  0  0
   34.3580   33.2680   37.7150 N   0  0  0  0  0  0  0  0  0  0  0  0
   33.6470   32.0920   37.2420 C   0  0  0  0  0  0  0  0  0  0  0  0
   34.4680   31.5400   36.1070 C   0  0  0  0  0  0  0  0  0  0  0  0
   37.2160   31.9920   30.6730 H   0  0  0  0  0  0  0  0  0  0  0  0
   33.4500   34.2230   34.7140 H   0  0  0  0  0  0  0  0  0  0  0  0
   35.1660   34.6130   35.0040 H   0  0  0  0  0  0  0  0  0  0  0  0
   32.9660   34.5630   36.9280 H   0  0  0  0  0  0  0  0  0  0  0  0
   34.5710   35.2710   37.0890 H   0  0  0  0  0  0  0  0  0  0  0  0
   35.3630   33.1220   37.8600 H   0  0  0  0  0  0  0  0  0  0  0  0
   32.6550   32.3830   36.8880 H   0  0  0  0  0  0  0  0  0  0  0  0
   33.6260   31.3390   38.0670 H   0  0  0  0  0  0  0  0  0  0  0  0
   35.4110   31.0920   36.4920 H   0  0  0  0  0  0  0  0  0  0  0  0
   33.8890   30.7230   35.6310 H   0  0  0  0  0  0  0  0  0  0  0  0
   35.7510   28.5140   32.3450 C   0  0  0  0  0  0  0  0  0  0  0  0
   35.0270   27.7260   32.0170 H   0  0  0  0  0  0  0  0  0  0  0  0
   35.4740   28.7450   33.3860 H   0  0  0  0  0  0  0  0  0  0  0  0
   39.2010   27.3570   31.5710 C   0  0  0  0  0  0  0  0  0  0  0  0
   39.4730   26.5060   32.6410 C   0  0  0  0  0  0  0  0  0  0  0  0
   38.4820   26.3400   33.6050 C   0  0  0  0  0  0  0  0  0  0  0  0
   37.3050   27.0140   33.4520 N   0  0  0  0  0  0  0  0  0  0  0  0
   37.0990   27.8240   32.3960 C   0  0  0  0  0  0  0  0  0  0  0  0
   38.0270   28.0010   31.4610 N   0  0  0  0  0  0  0  0  0  0  0  0
   39.9410   27.5210   30.7940 H   0  0  0  0  0  0  0  0  0  0  0  0
   40.4050   26.0090   32.7070 H   0  0  0  0  0  0  0  0  0  0  0  0
   37.8470   25.4450   35.8630 C   0  0  0  0  0  3  0  0  0  0  0  0
   38.6690   25.4730   34.7590 C   0  0  0  0  0  0  0  0  0  0  0  0
   39.7360   24.6010   34.7900 C   0  0  0  0  0  0  0  0  0  0  0  0
   40.4540   24.5220   33.9910 H   0  0  0  0  0  0  0  0  0  0  0  0
   39.9850   23.7380   35.8570 C   0  0  0  0  0  0  0  0  0  0  0  0
   40.9070   22.8120   36.1620 N   0  0  0  0  0  0  0  0  0  0  0  0
   41.7020   22.5700   35.5290 H   0  0  0  0  0  0  0  0  0  0  0  0
   40.6650   22.2630   37.3570 C   0  0  0  0  0  0  0  0  0  0  0  0
   41.2280   21.4940   37.8710 H   0  0  0  0  0  0  0  0  0  0  0  0
   39.5290   22.8390   37.8940 C   0  0  0  0  0  3  0  0  0  0  0  0
   39.1280   23.7530   36.9380 C   0  0  0  0  0  0  0  0  0  0  0  0
   38.0520   24.6110   36.9420 C   0  0  0  0  0  3  0  0  0  0  0  0
  1  4  1  0  0  0  0
  1 25  1  0  0  0  0
  2  1  1  0  0  0  0
  3  1  1  0  0  0  0
  4  8  1  0  0  0  0
  5  4  2  0  0  0  0
  5  6  1  0  0  0  0
  6  7  1  0  0  0  0
  7  9  1  0  0  0  0
  8  7  2  0  0  0  0
  9 10  1  0  0  0  0
  9 14  1  0  0  0  0
 10 11  1  0  0  0  0
 11 18  1  0  0  0  0
 11 19  1  0  0  0  0
 11 12  1  0  0  0  0
 12 20  1  0  0  0  0
 13 12  1  0  0  0  0
 13 22  1  0  0  0  0
 14 23  1  0  0  0  0
 14 13  1  0  0  0  0
 15  5  1  0  0  0  0
 16 10  1  0  0  0  0
 17 10  1  0  0  0  0
 21 13  1  0  0  0  0
 24 14  1  0  0  0  0
 25 32  1  0  0  0  0
 25 27  1  0  0  0  0
 26 25  1  0  0  0  0
 28 29  1  0  0  0  0
 29 35  1  0  0  0  0
 29 30  2  0  0  0  0
 30 37  1  0  0  0  0
 31 30  1  0  0  0  0
 32 31  2  0  0  0  0
 33 28  2  0  0  0  0
 33 32  1  0  0  0  0
 34 28  1  0  0  0  0
 36 47  1  0  0  0  0
 37 38  1  0  0  0  0
 37 36  2  0  0  0  0
 38 40  2  0  0  0  0
 39 38  1  0  0  0  0
 40 41  1  0  0  0  0
 40 46  1  0  0  0  0
 41 43  1  0  0  0  0
 42 41  1  0  0  0  0
 43 44  1  0  0  0  0
 43 45  2  0  0  0  0
 46 47  2  0  0  0  0
 46 45  1  0  0  0  0
M  END
>  <minimizedAffinity>
-6.12082148

$$$$
