
 OpenBabel03272508563D

 43 47  0  0  1  0  0  0  0  0999 V2000
   39.1600   31.4660   43.4090 C   0  0  0  0  0  0  0  0  0  0  0  0
   40.1480   30.5220   43.5680 C   0  0  0  0  0  0  0  0  0  0  0  0
   40.8650   30.1530   42.4540 C   0  0  0  0  0  0  0  0  0  0  0  0
   40.5580   30.7440   41.2480 C   0  0  0  0  0  0  0  0  0  0  0  0
   39.5680   31.6920   41.0820 C   0  0  0  0  0  0  0  0  0  0  0  0
   38.8910   32.0210   42.2050 N   0  0  0  0  0  0  0  0  0  0  0  0
   40.3910   30.0550   44.5120 H   0  0  0  0  0  0  0  0  0  0  0  0
   41.6610   29.4040   42.5440 H   0  0  0  0  0  0  0  0  0  0  0  0
   41.1470   30.4270   40.3870 H   0  0  0  0  0  0  0  0  0  0  0  0
   38.3760   31.8710   44.5950 C   0  0  0  0  0  0  0  0  0  0  0  0
   37.2520   32.4060   44.4700 O   0  0  0  0  0  0  0  0  0  0  0  0
   38.9340   31.6350   45.8930 N   0  0  0  0  0  0  0  0  0  0  0  0
   39.9210   31.3840   46.0560 H   0  0  0  0  0  0  0  0  0  0  0  0
   38.4210   31.1240   48.2770 C   0  0  2  0  0  0  0  0  0  0  0  0
   38.6690   32.5880   48.1930 C   0  0  0  0  0  0  0  0  0  0  0  0
   38.0690   31.7550   47.0450 C   0  0  1  0  0  0  0  0  0  0  0  0
   39.3370   30.5000   48.3570 H   0  0  0  0  0  0  0  0  0  0  0  0
   37.9900   33.2350   48.7820 H   0  0  0  0  0  0  0  0  0  0  0  0
   39.6970   32.9260   48.1280 H   0  0  0  0  0  0  0  0  0  0  0  0
   37.0060   32.0410   46.8470 H   0  0  0  0  0  0  0  0  0  0  0  0
   35.0520   30.2120   49.5490 C   0  0  0  0  0  0  0  0  0  0  0  0
   35.3750   29.5850   50.7940 C   0  0  0  0  0  0  0  0  0  0  0  0
   36.7720   29.4960   51.1800 C   0  0  0  0  0  0  0  0  0  0  0  0
   37.7220   30.0140   50.3400 N   0  0  0  0  0  0  0  0  0  0  0  0
   37.3330   30.5950   49.1720 C   0  0  0  0  0  0  0  0  0  0  0  0
   36.0130   30.7130   48.7450 N   0  0  0  0  0  0  0  0  0  0  0  0
   34.0000   30.2460   49.3170 H   0  0  0  0  0  0  0  0  0  0  0  0
   34.6190   29.1840   51.4470 H   0  0  0  0  0  0  0  0  0  0  0  0
   37.0060   29.0250   52.1090 H   0  0  0  0  0  0  0  0  0  0  0  0
   39.2410   32.2930   39.7990 C   0  0  0  0  0  0  0  0  0  0  0  0
   38.6250   33.3840   39.7650 O   0  0  0  0  0  0  0  0  0  0  0  0
   38.9080   30.6030   37.9470 C   0  0  0  0  0  3  0  0  0  0  0  0
   39.6020   31.6750   38.5290 C   0  0  0  0  0  0  0  0  0  0  0  0
   40.6810   32.1320   37.8040 C   0  0  0  0  0  0  0  0  0  0  0  0
   41.2230   32.9750   38.2620 H   0  0  0  0  0  0  0  0  0  0  0  0
   41.1460   31.6650   36.6000 C   0  0  0  0  0  0  0  0  0  0  0  0
   42.1780   32.0410   35.8270 N   0  0  0  0  0  0  0  0  0  0  0  0
   42.8370   32.8160   36.0530 H   0  0  0  0  0  0  0  0  0  0  0  0
   42.1270   31.1940   34.7530 C   0  0  0  0  0  0  0  0  0  0  0  0
   42.8450   31.2400   33.9260 H   0  0  0  0  0  0  0  0  0  0  0  0
   41.0740   30.3160   34.8790 C   0  0  0  0  0  3  0  0  0  0  0  0
   40.4230   30.6140   36.0830 C   0  0  0  0  0  0  0  0  0  0  0  0
   39.3270   30.0770   36.7180 C   0  0  0  0  0  3  0  0  0  0  0  0
  1  2  1  0  0  0  0
  1 10  1  0  0  0  0
  2  7  1  0  0  0  0
  3  8  1  0  0  0  0
  3  2  2  0  0  0  0
  4  3  1  0  0  0  0
  5  4  2  0  0  0  0
  5  6  1  0  0  0  0
  6  1  2  0  0  0  0
  9  4  1  0  0  0  0
 10 12  1  0  0  0  0
 11 10  2  0  0  0  0
 12 13  1  0  0  0  0
 12 16  1  0  0  0  0
 14 17  1  6  0  0  0
 14 25  1  0  0  0  0
 15 14  1  0  0  0  0
 15 18  1  0  0  0  0
 16 20  1  6  0  0  0
 16 15  1  0  0  0  0
 16 14  1  0  0  0  0
 19 15  1  0  0  0  0
 21 22  1  0  0  0  0
 22 23  2  0  0  0  0
 22 28  1  0  0  0  0
 23 29  1  0  0  0  0
 24 23  1  0  0  0  0
 25 24  2  0  0  0  0
 26 25  1  0  0  0  0
 26 21  2  0  0  0  0
 27 21  1  0  0  0  0
 30  5  1  0  0  0  0
 31 30  2  0  0  0  0
 32 33  1  0  0  0  0
 33 30  1  0  0  0  0
 34 35  1  0  0  0  0
 34 33  2  0  0  0  0
 36 34  1  0  0  0  0
 37 38  1  0  0  0  0
 37 36  1  0  0  0  0
 39 41  2  0  0  0  0
 39 37  1  0  0  0  0
 40 39  1  0  0  0  0
 41 42  1  0  0  0  0
 42 36  2  0  0  0  0
 42 43  1  0  0  0  0
 43 32  2  0  0  0  0
M  END
>  <minimizedAffinity>
-4.99427509

>  <minimizedRMSD>
1.00825524

$$$$
