
 OpenBabel03272508563D

 43 47  0  0  1  0  0  0  0  0999 V2000
   39.1550   31.4750   43.3840 C   0  0  0  0  0  0  0  0  0  0  0  0
   40.1380   30.5240   43.5350 C   0  0  0  0  0  0  0  0  0  0  0  0
   40.8510   30.1580   42.4190 C   0  0  0  0  0  0  0  0  0  0  0  0
   40.5460   30.7580   41.2170 C   0  0  0  0  0  0  0  0  0  0  0  0
   39.5600   31.7120   41.0580 C   0  0  0  0  0  0  0  0  0  0  0  0
   38.8870   32.0390   42.1840 N   0  0  0  0  0  0  0  0  0  0  0  0
   40.3790   30.0510   44.4770 H   0  0  0  0  0  0  0  0  0  0  0  0
   41.6430   29.4040   42.5030 H   0  0  0  0  0  0  0  0  0  0  0  0
   41.1310   30.4420   40.3530 H   0  0  0  0  0  0  0  0  0  0  0  0
   38.3750   31.8770   44.5740 C   0  0  0  0  0  0  0  0  0  0  0  0
   37.2560   32.4220   44.4540 O   0  0  0  0  0  0  0  0  0  0  0  0
   38.9320   31.6270   45.8700 N   0  0  0  0  0  0  0  0  0  0  0  0
   39.9170   31.3660   46.0300 H   0  0  0  0  0  0  0  0  0  0  0  0
   38.4250   31.1160   48.2540 C   0  0  2  0  0  0  0  0  0  0  0  0
   38.6670   32.5810   48.1690 C   0  0  0  0  0  0  0  0  0  0  0  0
   38.0680   31.7450   47.0230 C   0  0  1  0  0  0  0  0  0  0  0  0
   39.3430   30.4950   48.3340 H   0  0  0  0  0  0  0  0  0  0  0  0
   37.9870   33.2260   48.7590 H   0  0  0  0  0  0  0  0  0  0  0  0
   39.6940   32.9230   48.1020 H   0  0  0  0  0  0  0  0  0  0  0  0
   37.0040   32.0270   46.8270 H   0  0  0  0  0  0  0  0  0  0  0  0
   35.0600   30.2040   49.5390 C   0  0  0  0  0  0  0  0  0  0  0  0
   35.3880   29.5700   50.7790 C   0  0  0  0  0  0  0  0  0  0  0  0
   36.7860   29.4750   51.1570 C   0  0  0  0  0  0  0  0  0  0  0  0
   37.7330   29.9960   50.3150 N   0  0  0  0  0  0  0  0  0  0  0  0
   37.3400   30.5850   49.1520 C   0  0  0  0  0  0  0  0  0  0  0  0
   36.0180   30.7070   48.7320 N   0  0  0  0  0  0  0  0  0  0  0  0
   34.0070   30.2420   49.3120 H   0  0  0  0  0  0  0  0  0  0  0  0
   34.6340   29.1670   51.4330 H   0  0  0  0  0  0  0  0  0  0  0  0
   37.0240   28.9990   52.0830 H   0  0  0  0  0  0  0  0  0  0  0  0
   39.2350   32.3230   39.7790 C   0  0  0  0  0  0  0  0  0  0  0  0
   38.6250   33.4170   39.7520 O   0  0  0  0  0  0  0  0  0  0  0  0
   40.7270   32.0510   37.7550 C   0  0  0  0  0  3  0  0  0  0  0  0
   39.5910   31.7100   38.5050 C   0  0  0  0  0  0  0  0  0  0  0  0
   38.8020   30.7250   37.9510 C   0  0  0  0  0  0  0  0  0  0  0  0
   37.9130   30.4570   38.5430 H   0  0  0  0  0  0  0  0  0  0  0  0
   38.9990   30.0520   36.7700 C   0  0  0  0  0  0  0  0  0  0  0  0
   38.2950   29.0890   36.1560 N   0  0  0  0  0  0  0  0  0  0  0  0
   37.4120   28.6740   36.5250 H   0  0  0  0  0  0  0  0  0  0  0  0
   38.9980   28.8280   35.0120 C   0  0  0  0  0  0  0  0  0  0  0  0
   38.6810   28.0770   34.2790 H   0  0  0  0  0  0  0  0  0  0  0  0
   40.1160   29.6270   34.9380 C   0  0  0  0  0  3  0  0  0  0  0  0
   40.1310   30.4340   36.0840 C   0  0  0  0  0  0  0  0  0  0  0  0
   40.9900   31.4040   36.5400 C   0  0  0  0  0  3  0  0  0  0  0  0
  1  2  1  0  0  0  0
  1 10  1  0  0  0  0
  2  7  1  0  0  0  0
  3  8  1  0  0  0  0
  3  2  2  0  0  0  0
  4  3  1  0  0  0  0
  5  4  2  0  0  0  0
  5  6  1  0  0  0  0
  6  1  2  0  0  0  0
  9  4  1  0  0  0  0
 10 12  1  0  0  0  0
 11 10  2  0  0  0  0
 12 13  1  0  0  0  0
 12 16  1  0  0  0  0
 14 17  1  6  0  0  0
 14 25  1  0  0  0  0
 15 14  1  0  0  0  0
 15 18  1  0  0  0  0
 16 20  1  6  0  0  0
 16 15  1  0  0  0  0
 16 14  1  0  0  0  0
 19 15  1  0  0  0  0
 21 22  1  0  0  0  0
 22 23  2  0  0  0  0
 22 28  1  0  0  0  0
 23 29  1  0  0  0  0
 24 23  1  0  0  0  0
 25 24  2  0  0  0  0
 26 25  1  0  0  0  0
 26 21  2  0  0  0  0
 27 21  1  0  0  0  0
 30  5  1  0  0  0  0
 31 30  2  0  0  0  0
 32 33  1  0  0  0  0
 33 30  1  0  0  0  0
 34 33  2  0  0  0  0
 34 35  1  0  0  0  0
 36 34  1  0  0  0  0
 37 38  1  0  0  0  0
 37 36  1  0  0  0  0
 39 37  1  0  0  0  0
 40 39  1  0  0  0  0
 41 39  2  0  0  0  0
 41 42  1  0  0  0  0
 42 43  1  0  0  0  0
 42 36  2  0  0  0  0
 43 32  2  0  0  0  0
M  END
>  <minimizedAffinity>
-4.96868896

>  <minimizedRMSD>
0.725494325

$$$$
