
 OpenBabel03272508563D

 43 47  0  0  1  0  0  0  0  0999 V2000
   39.1720   31.4380   43.3900 C   0  0  0  0  0  0  0  0  0  0  0  0
   40.1390   30.4710   43.5480 C   0  0  0  0  0  0  0  0  0  0  0  0
   40.8510   30.0920   42.4350 C   0  0  0  0  0  0  0  0  0  0  0  0
   40.5610   30.6940   41.2300 C   0  0  0  0  0  0  0  0  0  0  0  0
   39.5920   31.6640   41.0650 C   0  0  0  0  0  0  0  0  0  0  0  0
   38.9180   32.0030   42.1880 N   0  0  0  0  0  0  0  0  0  0  0  0
   40.3690   29.9960   44.4910 H   0  0  0  0  0  0  0  0  0  0  0  0
   41.6310   29.3250   42.5240 H   0  0  0  0  0  0  0  0  0  0  0  0
   41.1450   30.3680   40.3700 H   0  0  0  0  0  0  0  0  0  0  0  0
   38.3930   31.8540   44.5760 C   0  0  0  0  0  0  0  0  0  0  0  0
   37.3120   32.4690   44.4500 O   0  0  0  0  0  0  0  0  0  0  0  0
   38.9070   31.5350   45.8750 N   0  0  0  0  0  0  0  0  0  0  0  0
   39.8700   31.2110   46.0460 H   0  0  0  0  0  0  0  0  0  0  0  0
   38.2860   30.9440   48.2130 C   0  0  2  0  0  0  0  0  0  0  0  0
   38.6760   32.3780   48.2200 C   0  0  0  0  0  0  0  0  0  0  0  0
   38.0280   31.6740   47.0140 C   0  0  1  0  0  0  0  0  0  0  0  0
   39.1360   30.2290   48.2750 H   0  0  0  0  0  0  0  0  0  0  0  0
   38.0480   33.0550   48.8330 H   0  0  0  0  0  0  0  0  0  0  0  0
   39.7340   32.6180   48.1950 H   0  0  0  0  0  0  0  0  0  0  0  0
   37.0030   32.0730   46.8120 H   0  0  0  0  0  0  0  0  0  0  0  0
   34.8220   30.1400   49.2890 C   0  0  0  0  0  0  0  0  0  0  0  0
   35.0470   29.5730   50.5830 C   0  0  0  0  0  0  0  0  0  0  0  0
   36.4120   29.4850   51.0700 C   0  0  0  0  0  0  0  0  0  0  0  0
   37.4260   29.9490   50.2750 N   0  0  0  0  0  0  0  0  0  0  0  0
   37.1300   30.4750   49.0550 C   0  0  0  0  0  0  0  0  0  0  0  0
   35.8450   30.5870   48.5300 N   0  0  0  0  0  0  0  0  0  0  0  0
   33.7900   30.1750   48.9810 H   0  0  0  0  0  0  0  0  0  0  0  0
   34.2410   29.2150   51.1990 H   0  0  0  0  0  0  0  0  0  0  0  0
   36.5730   29.0590   52.0360 H   0  0  0  0  0  0  0  0  0  0  0  0
   39.2820   32.2780   39.7850 C   0  0  0  0  0  0  0  0  0  0  0  0
   38.6750   33.3740   39.7530 O   0  0  0  0  0  0  0  0  0  0  0  0
   40.8120   31.9810   37.7930 C   0  0  0  0  0  3  0  0  0  0  0  0
   39.6500   31.6670   38.5130 C   0  0  0  0  0  0  0  0  0  0  0  0
   38.8480   30.7090   37.9330 C   0  0  0  0  0  0  0  0  0  0  0  0
   37.9380   30.4620   38.5010 H   0  0  0  0  0  0  0  0  0  0  0  0
   39.0530   30.0400   36.7510 C   0  0  0  0  0  0  0  0  0  0  0  0
   38.3360   29.1010   36.1120 N   0  0  0  0  0  0  0  0  0  0  0  0
   37.4340   28.7080   36.4570 H   0  0  0  0  0  0  0  0  0  0  0  0
   39.0580   28.8300   34.9830 C   0  0  0  0  0  0  0  0  0  0  0  0
   38.7370   28.0940   34.2350 H   0  0  0  0  0  0  0  0  0  0  0  0
   40.2000   29.5980   34.9410 C   0  0  0  0  0  3  0  0  0  0  0  0
   40.2100   30.3940   36.0940 C   0  0  0  0  0  0  0  0  0  0  0  0
   41.0860   31.3370   36.5790 C   0  0  0  0  0  3  0  0  0  0  0  0
  1  2  1  0  0  0  0
  1 10  1  0  0  0  0
  2  7  1  0  0  0  0
  3  8  1  0  0  0  0
  3  2  2  0  0  0  0
  4  3  1  0  0  0  0
  5  4  2  0  0  0  0
  5  6  1  0  0  0  0
  6  1  2  0  0  0  0
  9  4  1  0  0  0  0
 10 12  1  0  0  0  0
 11 10  2  0  0  0  0
 12 13  1  0  0  0  0
 12 16  1  0  0  0  0
 14 15  1  0  0  0  0
 14 17  1  6  0  0  0
 14 25  1  0  0  0  0
 15 18  1  0  0  0  0
 16 20  1  6  0  0  0
 16 14  1  0  0  0  0
 16 15  1  0  0  0  0
 19 15  1  0  0  0  0
 21 22  1  0  0  0  0
 22 23  2  0  0  0  0
 22 28  1  0  0  0  0
 23 29  1  0  0  0  0
 24 23  1  0  0  0  0
 25 24  2  0  0  0  0
 26 25  1  0  0  0  0
 26 21  2  0  0  0  0
 27 21  1  0  0  0  0
 30  5  1  0  0  0  0
 31 30  2  0  0  0  0
 32 33  1  0  0  0  0
 33 30  1  0  0  0  0
 34 35  1  0  0  0  0
 34 33  2  0  0  0  0
 36 34  1  0  0  0  0
 37 38  1  0  0  0  0
 37 36  1  0  0  0  0
 39 37  1  0  0  0  0
 40 39  1  0  0  0  0
 41 39  2  0  0  0  0
 41 42  1  0  0  0  0
 42 43  1  0  0  0  0
 42 36  2  0  0  0  0
 43 32  2  0  0  0  0
M  END
>  <minimizedAffinity>
-4.95166683

>  <minimizedRMSD>
0.956505179

$$$$
