
 OpenBabel03272510263D

 48 53  0  0  1  0  0  0  0  0999 V2000
   39.6500   31.9230   41.8050 N   0  0  0  0  0  0  0  0  0  0  0  0
   39.2610   33.3350   41.9360 C   0  0  1  0  0  0  0  0  0  0  0  0
   37.8560   33.4720   41.5670 C   0  0  0  0  0  0  0  0  0  0  0  0
   37.7210   33.1550   40.2030 O   0  0  0  0  0  0  0  0  0  0  0  0
   38.1900   31.9310   39.8400 C   0  0  0  0  0  0  0  0  0  0  0  0
   39.5540   31.6140   40.3960 C   0  0  2  0  0  0  0  0  0  0  0  0
   40.6530   31.8820   42.0700 H   0  0  0  0  0  0  0  0  0  0  0  0
   39.8720   33.9800   41.3000 H   0  0  0  0  0  0  0  0  0  0  0  0
   37.0450   32.9820   42.0310 H   0  0  0  0  0  0  0  0  0  0  0  0
   37.6170   34.5800   41.5910 H   0  0  0  0  0  0  0  0  0  0  0  0
   38.2770   31.9110   38.7430 H   0  0  0  0  0  0  0  0  0  0  0  0
   37.4540   31.1480   40.1110 H   0  0  0  0  0  0  0  0  0  0  0  0
   40.3890   32.0130   39.7980 H   0  0  0  0  0  0  0  0  0  0  0  0
   40.7370   29.5440   40.9880 C   0  0  0  0  0  3  0  0  0  0  0  0
   39.6190   30.1040   40.3700 C   0  0  0  0  0  0  0  0  0  0  0  0
   38.6760   29.2760   39.7940 C   0  0  0  0  0  0  0  0  0  0  0  0
   37.8310   29.7620   39.3290 H   0  0  0  0  0  0  0  0  0  0  0  0
   38.8780   27.9040   39.8520 C   0  0  0  0  0  0  0  0  0  0  0  0
   38.1400   26.8990   39.3860 N   0  0  0  0  0  0  0  0  0  0  0  0
   37.2350   27.0090   38.8710 H   0  0  0  0  0  0  0  0  0  0  0  0
   38.7300   25.7240   39.6750 C   0  0  0  0  0  0  0  0  0  0  0  0
   38.3450   24.7490   39.4140 H   0  0  0  0  0  0  0  0  0  0  0  0
   39.8940   25.9940   40.3550 C   0  0  0  0  0  3  0  0  0  0  0  0
   40.0030   27.3690   40.4750 C   0  0  0  0  0  0  0  0  0  0  0  0
   40.9570   28.1790   41.0570 C   0  0  0  0  0  3  0  0  0  0  0  0
   39.4810   33.6220   43.3120 O   0  0  0  0  0  0  0  0  0  0  0  0
   36.2560   30.1940   46.8810 C   0  0  0  0  0  0  0  0  0  0  0  0
   37.0770   30.7810   47.8430 C   0  0  0  0  0  0  0  0  0  0  0  0
   38.0490   31.7050   47.4860 C   0  0  0  0  0  0  0  0  0  0  0  0
   38.1520   32.0050   46.1350 C   0  0  0  0  0  0  0  0  0  0  0  0
   39.0270   32.8760   45.5440 N   0  0  0  0  0  0  0  0  0  0  0  0
   38.7600   32.8380   44.2290 C   0  0  0  0  0  0  0  0  0  0  0  0
   37.7810   31.9980   43.9780 N   0  0  0  0  0  0  0  0  0  0  0  0
   37.3640   31.4500   45.1510 C   0  0  0  0  0  0  0  0  0  0  0  0
   36.3900   30.5200   45.5390 C   0  0  0  0  0  0  0  0  0  0  0  0
   35.4980   29.4790   47.1250 H   0  0  0  0  0  0  0  0  0  0  0  0
   38.6750   32.1520   48.2340 H   0  0  0  0  0  0  0  0  0  0  0  0
   39.7460   33.4450   46.0420 H   0  0  0  0  0  0  0  0  0  0  0  0
   35.7740   30.0890   44.7590 H   0  0  0  0  0  0  0  0  0  0  0  0
   37.4720   30.1340   51.5160 C   0  0  0  0  0  0  0  0  0  0  0  0
   37.7760   30.5830   50.2430 C   0  0  0  0  0  0  0  0  0  0  0  0
   36.8650   30.3630   49.2150 C   0  0  0  0  0  0  0  0  0  0  0  0
   35.7120   29.7080   49.5280 N   0  0  0  0  0  0  0  0  0  0  0  0
   35.4220   29.2750   50.7670 C   0  0  0  0  0  0  0  0  0  0  0  0
   36.3000   29.4900   51.7460 N   0  0  0  0  0  0  0  0  0  0  0  0
   38.2380   30.3480   52.2580 H   0  0  0  0  0  0  0  0  0  0  0  0
   38.6980   31.1050   50.0040 H   0  0  0  0  0  0  0  0  0  0  0  0
   34.4930   28.7570   50.9770 H   0  0  0  0  0  0  0  0  0  0  0  0
  1  2  1  0  0  0  0
  1  7  1  0  0  0  0
  2  8  1  6  0  0  0
  2 26  1  0  0  0  0
  3 10  1  0  0  0  0
  3  2  1  0  0  0  0
  3  9  1  0  0  0  0
  4  3  1  0  0  0  0
  5 12  1  0  0  0  0
  5  4  1  0  0  0  0
  5  6  1  0  0  0  0
  6 13  1  6  0  0  0
  6  1  1  0  0  0  0
 11  5  1  0  0  0  0
 14 25  1  0  0  0  0
 15  6  1  0  0  0  0
 15 14  2  0  0  0  0
 16 18  2  0  0  0  0
 16 15  1  0  0  0  0
 17 16  1  0  0  0  0
 18 24  1  0  0  0  0
 19 21  1  0  0  0  0
 19 18  1  0  0  0  0
 20 19  1  0  0  0  0
 21 23  2  0  0  0  0
 22 21  1  0  0  0  0
 23 24  1  0  0  0  0
 24 25  2  0  0  0  0
 26 32  1  0  0  0  0
 27 36  1  0  0  0  0
 27 28  1  0  0  0  0
 28 42  1  0  0  0  0
 29 28  2  0  0  0  0
 29 37  1  0  0  0  0
 30 29  1  0  0  0  0
 31 38  1  0  0  0  0
 31 30  1  0  0  0  0
 32 31  1  0  0  0  0
 33 32  2  0  0  0  0
 33 34  1  0  0  0  0
 34 35  1  0  0  0  0
 34 30  2  0  0  0  0
 35 27  2  0  0  0  0
 39 35  1  0  0  0  0
 40 45  1  0  0  0  0
 40 46  1  0  0  0  0
 41 40  2  0  0  0  0
 42 43  2  0  0  0  0
 42 41  1  0  0  0  0
 43 44  1  0  0  0  0
 44 48  1  0  0  0  0
 44 45  2  0  0  0  0
 47 41  1  0  0  0  0
M  END
>  <minimizedAffinity>
-6.24841166

>  <minimizedRMSD>
0.152327508

$$$$
