
 OpenBabel03272510253D

 48 53  0  0  1  0  0  0  0  0999 V2000
   39.6740   31.8440   41.8720 N   0  0  0  0  0  0  0  0  0  0  0  0
   39.3260   33.2700   41.9720 C   0  0  1  0  0  0  0  0  0  0  0  0
   37.9350   33.4450   41.5700 C   0  0  0  0  0  0  0  0  0  0  0  0
   37.8200   33.1100   40.2080 O   0  0  0  0  0  0  0  0  0  0  0  0
   38.2580   31.8670   39.8750 C   0  0  0  0  0  0  0  0  0  0  0  0
   39.5980   31.5150   40.4660 C   0  0  2  0  0  0  0  0  0  0  0  0
   40.6680   31.7750   42.1610 H   0  0  0  0  0  0  0  0  0  0  0  0
   39.9720   33.8850   41.3400 H   0  0  0  0  0  0  0  0  0  0  0  0
   37.0990   32.9890   42.0230 H   0  0  0  0  0  0  0  0  0  0  0  0
   37.7320   34.5600   41.5710 H   0  0  0  0  0  0  0  0  0  0  0  0
   38.3690   31.8250   38.7810 H   0  0  0  0  0  0  0  0  0  0  0  0
   37.4920   31.1120   40.1420 H   0  0  0  0  0  0  0  0  0  0  0  0
   40.4580   31.8770   39.8810 H   0  0  0  0  0  0  0  0  0  0  0  0
   38.7590   29.3980   41.3860 C   0  0  0  0  0  3  0  0  0  0  0  0
   39.6150   30.0030   40.4650 C   0  0  0  0  0  0  0  0  0  0  0  0
   40.3950   29.2160   39.6430 C   0  0  0  0  0  0  0  0  0  0  0  0
   41.0390   29.7360   38.9490 H   0  0  0  0  0  0  0  0  0  0  0  0
   40.2970   27.8370   39.7630 C   0  0  0  0  0  0  0  0  0  0  0  0
   40.9230   26.8630   39.1050 N   0  0  0  0  0  0  0  0  0  0  0  0
   41.6310   27.0100   38.3470 H   0  0  0  0  0  0  0  0  0  0  0  0
   40.5100   25.6640   39.5590 C   0  0  0  0  0  0  0  0  0  0  0  0
   40.8580   24.7070   39.1990 H   0  0  0  0  0  0  0  0  0  0  0  0
   39.5820   25.8850   40.5470 C   0  0  0  0  0  3  0  0  0  0  0  0
   39.4350   27.2540   40.6890 C   0  0  0  0  0  0  0  0  0  0  0  0
   38.6480   28.0230   41.5200 C   0  0  0  0  0  3  0  0  0  0  0  0
   39.5260   33.5720   43.3490 O   0  0  0  0  0  0  0  0  0  0  0  0
   36.2210   30.2080   46.9050 C   0  0  0  0  0  0  0  0  0  0  0  0
   37.0550   30.7710   47.8690 C   0  0  0  0  0  0  0  0  0  0  0  0
   38.0480   31.6730   47.5150 C   0  0  0  0  0  0  0  0  0  0  0  0
   38.1580   31.9760   46.1650 C   0  0  0  0  0  0  0  0  0  0  0  0
   39.0540   32.8290   45.5780 N   0  0  0  0  0  0  0  0  0  0  0  0
   38.7870   32.8020   44.2630 C   0  0  0  0  0  0  0  0  0  0  0  0
   37.7870   31.9860   44.0090 N   0  0  0  0  0  0  0  0  0  0  0  0
   37.3580   31.4430   45.1800 C   0  0  0  0  0  0  0  0  0  0  0  0
   36.3620   30.5350   45.5640 C   0  0  0  0  0  0  0  0  0  0  0  0
   35.4470   29.5090   47.1470 H   0  0  0  0  0  0  0  0  0  0  0  0
   38.6850   32.1030   48.2650 H   0  0  0  0  0  0  0  0  0  0  0  0
   39.7860   33.3790   46.0780 H   0  0  0  0  0  0  0  0  0  0  0  0
   35.7370   30.1220   44.7830 H   0  0  0  0  0  0  0  0  0  0  0  0
   37.4220   30.1290   51.5450 C   0  0  0  0  0  0  0  0  0  0  0  0
   37.7350   30.5780   50.2750 C   0  0  0  0  0  0  0  0  0  0  0  0
   36.8340   30.3540   49.2400 C   0  0  0  0  0  0  0  0  0  0  0  0
   35.6810   29.6940   49.5430 N   0  0  0  0  0  0  0  0  0  0  0  0
   35.3820   29.2600   50.7800 C   0  0  0  0  0  0  0  0  0  0  0  0
   36.2510   29.4800   51.7660 N   0  0  0  0  0  0  0  0  0  0  0  0
   38.1810   30.3460   52.2940 H   0  0  0  0  0  0  0  0  0  0  0  0
   38.6570   31.1030   50.0430 H   0  0  0  0  0  0  0  0  0  0  0  0
   34.4540   28.7400   50.9830 H   0  0  0  0  0  0  0  0  0  0  0  0
  1  2  1  0  0  0  0
  1  7  1  0  0  0  0
  2  8  1  6  0  0  0
  2 26  1  0  0  0  0
  3 10  1  0  0  0  0
  3  2  1  0  0  0  0
  3  9  1  0  0  0  0
  4  3  1  0  0  0  0
  5 12  1  0  0  0  0
  5  4  1  0  0  0  0
  5  6  1  0  0  0  0
  6 13  1  6  0  0  0
  6  1  1  0  0  0  0
 11  5  1  0  0  0  0
 14 25  1  0  0  0  0
 15  6  1  0  0  0  0
 15 14  2  0  0  0  0
 16 18  2  0  0  0  0
 16 15  1  0  0  0  0
 17 16  1  0  0  0  0
 18 24  1  0  0  0  0
 19 21  1  0  0  0  0
 19 18  1  0  0  0  0
 20 19  1  0  0  0  0
 21 23  2  0  0  0  0
 22 21  1  0  0  0  0
 23 24  1  0  0  0  0
 24 25  2  0  0  0  0
 26 32  1  0  0  0  0
 27 36  1  0  0  0  0
 27 28  1  0  0  0  0
 28 42  1  0  0  0  0
 29 28  2  0  0  0  0
 29 37  1  0  0  0  0
 30 29  1  0  0  0  0
 31 38  1  0  0  0  0
 31 30  1  0  0  0  0
 32 31  1  0  0  0  0
 33 32  2  0  0  0  0
 33 34  1  0  0  0  0
 34 35  1  0  0  0  0
 34 30  2  0  0  0  0
 35 27  2  0  0  0  0
 39 35  1  0  0  0  0
 40 45  1  0  0  0  0
 40 46  1  0  0  0  0
 41 40  2  0  0  0  0
 42 43  2  0  0  0  0
 42 41  1  0  0  0  0
 43 44  1  0  0  0  0
 44 48  1  0  0  0  0
 44 45  2  0  0  0  0
 47 41  1  0  0  0  0
M  END
>  <minimizedAffinity>
-6.31015921

>  <minimizedRMSD>
0.425143152

$$$$
