
 OpenBabel03272510253D

 48 53  0  0  1  0  0  0  0  0999 V2000
   39.6760   31.8400   41.8810 N   0  0  0  0  0  0  0  0  0  0  0  0
   39.3320   33.2660   41.9790 C   0  0  1  0  0  0  0  0  0  0  0  0
   37.9420   33.4440   41.5730 C   0  0  0  0  0  0  0  0  0  0  0  0
   37.8290   33.1070   40.2120 O   0  0  0  0  0  0  0  0  0  0  0  0
   38.2650   31.8630   39.8800 C   0  0  0  0  0  0  0  0  0  0  0  0
   39.6030   31.5090   40.4750 C   0  0  2  0  0  0  0  0  0  0  0  0
   40.6700   31.7690   42.1720 H   0  0  0  0  0  0  0  0  0  0  0  0
   39.9800   33.8790   41.3480 H   0  0  0  0  0  0  0  0  0  0  0  0
   37.1040   32.9900   42.0250 H   0  0  0  0  0  0  0  0  0  0  0  0
   37.7410   34.5600   41.5720 H   0  0  0  0  0  0  0  0  0  0  0  0
   38.3790   31.8200   38.7870 H   0  0  0  0  0  0  0  0  0  0  0  0
   37.4970   31.1100   40.1460 H   0  0  0  0  0  0  0  0  0  0  0  0
   40.4660   31.8690   39.8920 H   0  0  0  0  0  0  0  0  0  0  0  0
   38.7660   29.3930   41.4020 C   0  0  0  0  0  3  0  0  0  0  0  0
   39.6170   29.9970   40.4760 C   0  0  0  0  0  0  0  0  0  0  0  0
   40.3900   29.2080   39.6490 C   0  0  0  0  0  0  0  0  0  0  0  0
   41.0310   29.7270   38.9520 H   0  0  0  0  0  0  0  0  0  0  0  0
   40.2900   27.8280   39.7710 C   0  0  0  0  0  0  0  0  0  0  0  0
   40.9100   26.8530   39.1100 N   0  0  0  0  0  0  0  0  0  0  0  0
   41.6140   26.9990   38.3480 H   0  0  0  0  0  0  0  0  0  0  0  0
   40.4970   25.6550   39.5670 C   0  0  0  0  0  0  0  0  0  0  0  0
   40.8410   24.6960   39.2050 H   0  0  0  0  0  0  0  0  0  0  0  0
   39.5760   25.8790   40.5610 C   0  0  0  0  0  3  0  0  0  0  0  0
   39.4330   27.2490   40.7030 C   0  0  0  0  0  0  0  0  0  0  0  0
   38.6520   28.0210   41.5380 C   0  0  0  0  0  3  0  0  0  0  0  0
   39.5280   33.5690   43.3550 O   0  0  0  0  0  0  0  0  0  0  0  0
   36.2180   30.2060   46.9080 C   0  0  0  0  0  0  0  0  0  0  0  0
   37.0520   30.7690   47.8730 C   0  0  0  0  0  0  0  0  0  0  0  0
   38.0460   31.6700   47.5200 C   0  0  0  0  0  0  0  0  0  0  0  0
   38.1580   31.9730   46.1710 C   0  0  0  0  0  0  0  0  0  0  0  0
   39.0540   32.8260   45.5840 N   0  0  0  0  0  0  0  0  0  0  0  0
   38.7880   32.7990   44.2690 C   0  0  0  0  0  0  0  0  0  0  0  0
   37.7880   31.9840   44.0140 N   0  0  0  0  0  0  0  0  0  0  0  0
   37.3570   31.4420   45.1840 C   0  0  0  0  0  0  0  0  0  0  0  0
   36.3610   30.5340   45.5680 C   0  0  0  0  0  0  0  0  0  0  0  0
   35.4430   29.5090   47.1490 H   0  0  0  0  0  0  0  0  0  0  0  0
   38.6830   32.0990   48.2710 H   0  0  0  0  0  0  0  0  0  0  0  0
   39.7860   33.3750   46.0850 H   0  0  0  0  0  0  0  0  0  0  0  0
   35.7360   30.1210   44.7860 H   0  0  0  0  0  0  0  0  0  0  0  0
   37.4170   30.1230   51.5490 C   0  0  0  0  0  0  0  0  0  0  0  0
   37.7300   30.5720   50.2790 C   0  0  0  0  0  0  0  0  0  0  0  0
   36.8290   30.3510   49.2430 C   0  0  0  0  0  0  0  0  0  0  0  0
   35.6740   29.6950   49.5460 N   0  0  0  0  0  0  0  0  0  0  0  0
   35.3740   29.2610   50.7830 C   0  0  0  0  0  0  0  0  0  0  0  0
   36.2430   29.4770   51.7690 N   0  0  0  0  0  0  0  0  0  0  0  0
   38.1750   30.3380   52.2980 H   0  0  0  0  0  0  0  0  0  0  0  0
   38.6540   31.0950   50.0480 H   0  0  0  0  0  0  0  0  0  0  0  0
   34.4440   28.7430   50.9850 H   0  0  0  0  0  0  0  0  0  0  0  0
  1  2  1  0  0  0  0
  1  7  1  0  0  0  0
  2  8  1  6  0  0  0
  2 26  1  0  0  0  0
  3  2  1  0  0  0  0
  3  9  1  0  0  0  0
  4  3  1  0  0  0  0
  5 12  1  0  0  0  0
  5  4  1  0  0  0  0
  5  6  1  0  0  0  0
  6 13  1  6  0  0  0
  6 15  1  0  0  0  0
  6  1  1  0  0  0  0
 10  3  1  0  0  0  0
 11  5  1  0  0  0  0
 14 25  1  0  0  0  0
 15 14  2  0  0  0  0
 16 18  2  0  0  0  0
 16 15  1  0  0  0  0
 17 16  1  0  0  0  0
 18 24  1  0  0  0  0
 19 21  1  0  0  0  0
 19 18  1  0  0  0  0
 20 19  1  0  0  0  0
 21 23  2  0  0  0  0
 22 21  1  0  0  0  0
 23 24  1  0  0  0  0
 24 25  2  0  0  0  0
 26 32  1  0  0  0  0
 27 36  1  0  0  0  0
 27 28  1  0  0  0  0
 28 42  1  0  0  0  0
 29 28  2  0  0  0  0
 29 37  1  0  0  0  0
 30 29  1  0  0  0  0
 31 38  1  0  0  0  0
 31 30  1  0  0  0  0
 32 31  1  0  0  0  0
 33 32  2  0  0  0  0
 33 34  1  0  0  0  0
 34 35  1  0  0  0  0
 34 30  2  0  0  0  0
 35 27  2  0  0  0  0
 39 35  1  0  0  0  0
 40 45  1  0  0  0  0
 40 46  1  0  0  0  0
 41 40  2  0  0  0  0
 42 43  2  0  0  0  0
 42 41  1  0  0  0  0
 43 44  1  0  0  0  0
 44 48  1  0  0  0  0
 44 45  2  0  0  0  0
 47 41  1  0  0  0  0
M  END
>  <minimizedAffinity>
-6.31269264

>  <minimizedRMSD>
0.278910846

$$$$
