
 OpenBabel03272510253D

 48 53  0  0  1  0  0  0  0  0999 V2000
   39.6720   31.8410   41.8700 N   0  0  0  0  0  0  0  0  0  0  0  0
   39.3250   33.2670   41.9690 C   0  0  1  0  0  0  0  0  0  0  0  0
   37.9350   33.4430   41.5650 C   0  0  0  0  0  0  0  0  0  0  0  0
   37.8200   33.1060   40.2040 O   0  0  0  0  0  0  0  0  0  0  0  0
   38.2570   31.8620   39.8720 C   0  0  0  0  0  0  0  0  0  0  0  0
   39.5970   31.5110   40.4650 C   0  0  2  0  0  0  0  0  0  0  0  0
   40.6660   31.7720   42.1590 H   0  0  0  0  0  0  0  0  0  0  0  0
   39.9710   33.8810   41.3360 H   0  0  0  0  0  0  0  0  0  0  0  0
   37.0980   32.9880   42.0180 H   0  0  0  0  0  0  0  0  0  0  0  0
   37.7320   34.5580   41.5650 H   0  0  0  0  0  0  0  0  0  0  0  0
   38.3690   31.8200   38.7780 H   0  0  0  0  0  0  0  0  0  0  0  0
   37.4910   31.1080   40.1390 H   0  0  0  0  0  0  0  0  0  0  0  0
   40.4580   31.8720   39.8800 H   0  0  0  0  0  0  0  0  0  0  0  0
   38.7590   29.3950   41.3870 C   0  0  0  0  0  3  0  0  0  0  0  0
   39.6140   29.9990   40.4650 C   0  0  0  0  0  0  0  0  0  0  0  0
   40.3920   29.2100   39.6420 C   0  0  0  0  0  0  0  0  0  0  0  0
   41.0350   29.7300   38.9480 H   0  0  0  0  0  0  0  0  0  0  0  0
   40.2940   27.8310   39.7640 C   0  0  0  0  0  0  0  0  0  0  0  0
   40.9190   26.8560   39.1070 N   0  0  0  0  0  0  0  0  0  0  0  0
   41.6260   27.0030   38.3480 H   0  0  0  0  0  0  0  0  0  0  0  0
   40.5060   25.6580   39.5620 C   0  0  0  0  0  0  0  0  0  0  0  0
   40.8520   24.7000   39.2030 H   0  0  0  0  0  0  0  0  0  0  0  0
   39.5790   25.8810   40.5510 C   0  0  0  0  0  3  0  0  0  0  0  0
   39.4320   27.2510   40.6930 C   0  0  0  0  0  0  0  0  0  0  0  0
   38.6460   28.0200   41.5230 C   0  0  0  0  0  3  0  0  0  0  0  0
   39.5240   33.5710   43.3450 O   0  0  0  0  0  0  0  0  0  0  0  0
   36.2190   30.2080   46.9030 C   0  0  0  0  0  0  0  0  0  0  0  0
   37.0540   30.7710   47.8670 C   0  0  0  0  0  0  0  0  0  0  0  0
   38.0480   31.6730   47.5120 C   0  0  0  0  0  0  0  0  0  0  0  0
   38.1580   31.9760   46.1620 C   0  0  0  0  0  0  0  0  0  0  0  0
   39.0530   32.8280   45.5740 N   0  0  0  0  0  0  0  0  0  0  0  0
   38.7850   32.8010   44.2590 C   0  0  0  0  0  0  0  0  0  0  0  0
   37.7860   31.9850   44.0060 N   0  0  0  0  0  0  0  0  0  0  0  0
   37.3560   31.4430   45.1770 C   0  0  0  0  0  0  0  0  0  0  0  0
   36.3600   30.5350   45.5620 C   0  0  0  0  0  0  0  0  0  0  0  0
   35.4450   29.5100   47.1450 H   0  0  0  0  0  0  0  0  0  0  0  0
   38.6850   32.1020   48.2620 H   0  0  0  0  0  0  0  0  0  0  0  0
   39.7860   33.3770   46.0740 H   0  0  0  0  0  0  0  0  0  0  0  0
   35.7350   30.1220   44.7810 H   0  0  0  0  0  0  0  0  0  0  0  0
   37.4230   30.1290   51.5430 C   0  0  0  0  0  0  0  0  0  0  0  0
   37.7350   30.5780   50.2720 C   0  0  0  0  0  0  0  0  0  0  0  0
   36.8340   30.3540   49.2370 C   0  0  0  0  0  0  0  0  0  0  0  0
   35.6810   29.6950   49.5420 N   0  0  0  0  0  0  0  0  0  0  0  0
   35.3820   29.2620   50.7790 C   0  0  0  0  0  0  0  0  0  0  0  0
   36.2520   29.4810   51.7640 N   0  0  0  0  0  0  0  0  0  0  0  0
   38.1820   30.3460   52.2910 H   0  0  0  0  0  0  0  0  0  0  0  0
   38.6580   31.1020   50.0400 H   0  0  0  0  0  0  0  0  0  0  0  0
   34.4530   28.7410   50.9820 H   0  0  0  0  0  0  0  0  0  0  0  0
  1  2  1  0  0  0  0
  1  7  1  0  0  0  0
  2  8  1  6  0  0  0
  2 26  1  0  0  0  0
  3  2  1  0  0  0  0
  3  9  1  0  0  0  0
  4  3  1  0  0  0  0
  5 12  1  0  0  0  0
  5  4  1  0  0  0  0
  5  6  1  0  0  0  0
  6 13  1  6  0  0  0
  6 15  1  0  0  0  0
  6  1  1  0  0  0  0
 10  3  1  0  0  0  0
 11  5  1  0  0  0  0
 14 25  1  0  0  0  0
 15 14  2  0  0  0  0
 16 18  2  0  0  0  0
 16 15  1  0  0  0  0
 17 16  1  0  0  0  0
 18 24  1  0  0  0  0
 19 21  1  0  0  0  0
 19 18  1  0  0  0  0
 20 19  1  0  0  0  0
 21 23  2  0  0  0  0
 22 21  1  0  0  0  0
 23 24  1  0  0  0  0
 24 25  2  0  0  0  0
 26 32  1  0  0  0  0
 27 36  1  0  0  0  0
 27 28  1  0  0  0  0
 28 42  1  0  0  0  0
 29 28  2  0  0  0  0
 29 37  1  0  0  0  0
 30 29  1  0  0  0  0
 31 38  1  0  0  0  0
 31 30  1  0  0  0  0
 32 31  1  0  0  0  0
 33 32  2  0  0  0  0
 33 34  1  0  0  0  0
 34 35  1  0  0  0  0
 34 30  2  0  0  0  0
 35 27  2  0  0  0  0
 39 35  1  0  0  0  0
 40 45  1  0  0  0  0
 40 46  1  0  0  0  0
 41 40  2  0  0  0  0
 42 43  2  0  0  0  0
 42 41  1  0  0  0  0
 43 44  1  0  0  0  0
 44 48  1  0  0  0  0
 44 45  2  0  0  0  0
 47 41  1  0  0  0  0
M  END
>  <minimizedAffinity>
-6.30891609

>  <minimizedRMSD>
0.558275938

$$$$
