
 OpenBabel03272510253D

 48 53  0  0  1  0  0  0  0  0999 V2000
   39.6740   31.8450   41.8710 N   0  0  0  0  0  0  0  0  0  0  0  0
   39.3260   33.2700   41.9720 C   0  0  1  0  0  0  0  0  0  0  0  0
   37.9340   33.4450   41.5710 C   0  0  0  0  0  0  0  0  0  0  0  0
   37.8180   33.1110   40.2100 O   0  0  0  0  0  0  0  0  0  0  0  0
   38.2560   31.8680   39.8750 C   0  0  0  0  0  0  0  0  0  0  0  0
   39.5970   31.5170   40.4650 C   0  0  2  0  0  0  0  0  0  0  0  0
   40.6690   31.7770   42.1590 H   0  0  0  0  0  0  0  0  0  0  0  0
   39.9700   33.8860   41.3400 H   0  0  0  0  0  0  0  0  0  0  0  0
   37.0990   32.9880   42.0250 H   0  0  0  0  0  0  0  0  0  0  0  0
   37.7300   34.5600   41.5730 H   0  0  0  0  0  0  0  0  0  0  0  0
   38.3660   31.8270   38.7810 H   0  0  0  0  0  0  0  0  0  0  0  0
   37.4910   31.1120   40.1420 H   0  0  0  0  0  0  0  0  0  0  0  0
   40.4570   31.8800   39.8800 H   0  0  0  0  0  0  0  0  0  0  0  0
   38.7570   29.3980   41.3800 C   0  0  0  0  0  3  0  0  0  0  0  0
   39.6160   30.0050   40.4630 C   0  0  0  0  0  0  0  0  0  0  0  0
   40.3980   29.2190   39.6420 C   0  0  0  0  0  0  0  0  0  0  0  0
   41.0430   29.7410   38.9510 H   0  0  0  0  0  0  0  0  0  0  0  0
   40.3010   27.8390   39.7600 C   0  0  0  0  0  0  0  0  0  0  0  0
   40.9290   26.8670   39.1030 N   0  0  0  0  0  0  0  0  0  0  0  0
   41.6410   27.0160   38.3480 H   0  0  0  0  0  0  0  0  0  0  0  0
   40.5170   25.6670   39.5550 C   0  0  0  0  0  0  0  0  0  0  0  0
   40.8660   24.7100   39.1950 H   0  0  0  0  0  0  0  0  0  0  0  0
   39.5850   25.8870   40.5400 C   0  0  0  0  0  3  0  0  0  0  0  0
   39.4360   27.2560   40.6830 C   0  0  0  0  0  0  0  0  0  0  0  0
   38.6460   28.0240   41.5130 C   0  0  0  0  0  3  0  0  0  0  0  0
   39.5260   33.5720   43.3490 O   0  0  0  0  0  0  0  0  0  0  0  0
   36.2210   30.2080   46.9050 C   0  0  0  0  0  0  0  0  0  0  0  0
   37.0560   30.7710   47.8700 C   0  0  0  0  0  0  0  0  0  0  0  0
   38.0490   31.6730   47.5160 C   0  0  0  0  0  0  0  0  0  0  0  0
   38.1590   31.9760   46.1660 C   0  0  0  0  0  0  0  0  0  0  0  0
   39.0550   32.8290   45.5780 N   0  0  0  0  0  0  0  0  0  0  0  0
   38.7870   32.8020   44.2630 C   0  0  0  0  0  0  0  0  0  0  0  0
   37.7880   31.9860   44.0090 N   0  0  0  0  0  0  0  0  0  0  0  0
   37.3580   31.4440   45.1800 C   0  0  0  0  0  0  0  0  0  0  0  0
   36.3620   30.5360   45.5650 C   0  0  0  0  0  0  0  0  0  0  0  0
   35.4470   29.5100   47.1480 H   0  0  0  0  0  0  0  0  0  0  0  0
   38.6860   32.1030   48.2650 H   0  0  0  0  0  0  0  0  0  0  0  0
   39.7870   33.3780   46.0780 H   0  0  0  0  0  0  0  0  0  0  0  0
   35.7370   30.1220   44.7840 H   0  0  0  0  0  0  0  0  0  0  0  0
   37.4230   30.1310   51.5460 C   0  0  0  0  0  0  0  0  0  0  0  0
   37.7350   30.5800   50.2750 C   0  0  0  0  0  0  0  0  0  0  0  0
   36.8350   30.3540   49.2400 C   0  0  0  0  0  0  0  0  0  0  0  0
   35.6830   29.6930   49.5440 N   0  0  0  0  0  0  0  0  0  0  0  0
   35.3840   29.2590   50.7810 C   0  0  0  0  0  0  0  0  0  0  0  0
   36.2520   29.4800   51.7660 N   0  0  0  0  0  0  0  0  0  0  0  0
   38.1810   30.3490   52.2950 H   0  0  0  0  0  0  0  0  0  0  0  0
   38.6560   31.1060   50.0440 H   0  0  0  0  0  0  0  0  0  0  0  0
   34.4560   28.7370   50.9830 H   0  0  0  0  0  0  0  0  0  0  0  0
  1  2  1  0  0  0  0
  1  7  1  0  0  0  0
  2  8  1  6  0  0  0
  2 26  1  0  0  0  0
  3 10  1  0  0  0  0
  3  2  1  0  0  0  0
  3  9  1  0  0  0  0
  4  3  1  0  0  0  0
  5 12  1  0  0  0  0
  5  4  1  0  0  0  0
  5  6  1  0  0  0  0
  6 13  1  6  0  0  0
  6  1  1  0  0  0  0
 11  5  1  0  0  0  0
 14 25  1  0  0  0  0
 15  6  1  0  0  0  0
 15 14  2  0  0  0  0
 16 18  2  0  0  0  0
 16 15  1  0  0  0  0
 17 16  1  0  0  0  0
 18 24  1  0  0  0  0
 19 21  1  0  0  0  0
 19 18  1  0  0  0  0
 20 19  1  0  0  0  0
 21 23  2  0  0  0  0
 22 21  1  0  0  0  0
 23 24  1  0  0  0  0
 24 25  2  0  0  0  0
 26 32  1  0  0  0  0
 27 36  1  0  0  0  0
 27 28  1  0  0  0  0
 28 42  1  0  0  0  0
 29 28  2  0  0  0  0
 29 37  1  0  0  0  0
 30 29  1  0  0  0  0
 31 38  1  0  0  0  0
 31 30  1  0  0  0  0
 32 31  1  0  0  0  0
 33 32  2  0  0  0  0
 33 34  1  0  0  0  0
 34 35  1  0  0  0  0
 34 30  2  0  0  0  0
 35 27  2  0  0  0  0
 39 35  1  0  0  0  0
 40 45  1  0  0  0  0
 40 46  1  0  0  0  0
 41 40  2  0  0  0  0
 42 43  2  0  0  0  0
 42 41  1  0  0  0  0
 43 44  1  0  0  0  0
 44 48  1  0  0  0  0
 44 45  2  0  0  0  0
 47 41  1  0  0  0  0
M  END
>  <minimizedAffinity>
-6.31019926

>  <minimizedRMSD>
0.180776462

$$$$
