
 OpenBabel03272503553D

 37 41  0  0  0  0  0  0  0  0999 V2000
   37.1420   29.6300   50.1460 C   0  0  0  0  0  0  0  0  0  0  0  0
   37.9540   30.4260   49.3400 C   0  0  0  0  0  0  0  0  0  0  0  0
   37.4500   30.6990   48.0940 C   0  0  0  0  0  0  0  0  0  0  0  0
   36.2640   30.2030   47.7480 N   0  0  0  0  0  0  0  0  0  0  0  0
   35.4780   29.4500   48.4900 C   0  0  0  0  0  0  0  0  0  0  0  0
   35.9850   29.1970   49.6950 N   0  0  0  0  0  0  0  0  0  0  0  0
   38.8870   30.7780   49.6990 H   0  0  0  0  0  0  0  0  0  0  0  0
   34.1710   28.8440   48.2700 C   0  0  0  0  0  0  0  0  0  0  0  0
   33.3750   28.4330   49.2920 N   0  0  0  0  0  0  0  0  0  0  0  0
   32.1730   27.8900   49.0730 C   0  0  0  0  0  0  0  0  0  0  0  0
   31.6430   27.6980   47.8570 N   0  0  0  0  0  0  0  0  0  0  0  0
   32.3880   28.0850   46.7950 C   0  0  0  0  0  0  0  0  0  0  0  0
   31.8460   27.8900   45.5500 C   0  0  0  0  0  0  0  0  0  0  0  0
   32.5600   28.2670   44.4280 C   0  0  0  0  0  0  0  0  0  0  0  0
   33.8090   28.8330   44.6400 C   0  0  0  0  0  0  0  0  0  0  0  0
   34.2930   29.0000   45.9110 C   0  0  0  0  0  0  0  0  0  0  0  0
   33.6180   28.6420   47.0400 C   0  0  0  0  0  0  0  0  0  0  0  0
   31.5340   27.5590   49.9100 H   0  0  0  0  0  0  0  0  0  0  0  0
   30.8540   27.4390   45.4260 H   0  0  0  0  0  0  0  0  0  0  0  0
   32.1260   28.1090   43.4570 H   0  0  0  0  0  0  0  0  0  0  0  0
   34.3220   29.1080   43.7240 H   0  0  0  0  0  0  0  0  0  0  0  0
   35.2740   29.4460   45.9110 H   0  0  0  0  0  0  0  0  0  0  0  0
   39.2020   32.3900   47.4850 C   0  0  0  0  0  0  0  0  0  0  0  0
   38.1920   31.5190   47.1460 C   0  0  0  0  0  0  0  0  0  0  0  0
   37.9050   31.4600   45.7950 C   0  0  0  0  0  0  0  0  0  0  0  0
   37.1030   30.7720   45.4990 H   0  0  0  0  0  0  0  0  0  0  0  0
   38.5520   32.1960   44.8280 C   0  0  0  0  0  0  0  0  0  0  0  0
   38.4460   32.3010   43.4870 N   0  0  0  0  0  0  0  0  0  0  0  0
   37.7690   31.7740   42.8820 H   0  0  0  0  0  0  0  0  0  0  0  0
   39.3680   33.2060   43.0580 C   0  0  0  0  0  0  0  0  0  0  0  0
   39.5200   33.5020   42.0110 H   0  0  0  0  0  0  0  0  0  0  0  0
   40.0900   33.7070   44.1110 C   0  0  0  0  0  0  0  0  0  0  0  0
   39.5570   33.0570   45.2000 C   0  0  0  0  0  0  0  0  0  0  0  0
   39.8710   33.1400   46.5540 C   0  0  0  0  0  0  0  0  0  0  0  0
   37.5350   29.2540   51.5020 N   0  0  0  0  0  0  0  0  0  0  0  0
   37.1090   29.4510   52.4230 H   0  0  0  0  0  0  0  0  0  0  0  0
   38.4080   28.6990   51.3800 H   0  0  0  0  0  0  0  0  0  0  0  0
  1 35  1  0  0  0  0
  2  7  1  0  0  0  0
  2  1  2  0  0  0  0
  3  2  1  0  0  0  0
  4  3  2  0  0  0  0
  4  5  1  0  0  0  0
  5  6  2  0  0  0  0
  6  1  1  0  0  0  0
  8  5  1  0  0  0  0
  8  9  1  0  0  0  0
 10  9  2  0  0  0  0
 10 18  1  0  0  0  0
 11 10  1  0  0  0  0
 12 17  1  0  0  0  0
 12 11  2  0  0  0  0
 13 12  1  0  0  0  0
 14 15  1  0  0  0  0
 14 13  2  0  0  0  0
 15 16  2  0  0  0  0
 16 17  1  0  0  0  0
 17  8  2  0  0  0  0
 19 13  1  0  0  0  0
 20 14  1  0  0  0  0
 21 15  1  0  0  0  0
 22 16  1  0  0  0  0
 24 23  1  0  0  0  0
 24  3  1  0  0  0  0
 25 24  2  0  0  0  0
 26 25  1  0  0  0  0
 27 33  2  0  0  0  0
 27 25  1  0  0  0  0
 28 27  1  0  0  0  0
 29 28  1  0  0  0  0
 30 28  1  0  0  0  0
 30 32  2  0  0  0  0
 31 30  1  0  0  0  0
 32 33  1  0  0  0  0
 33 34  1  0  0  0  0
 34 23  2  0  0  0  0
 35 36  1  0  0  0  0
 37 35  1  0  0  0  0
M  END
>  <minimizedAffinity>
-6.97060966

>  <minimizedRMSD>
1.82757616

$$$$
