
 OpenBabel03272508533D

 41 45  0  0  1  0  0  0  0  0999 V2000
   39.1060   31.4990   43.3500 C   0  0  0  0  0  0  0  0  0  0  0  0
   40.0880   30.5570   43.4880 C   0  0  0  0  0  0  0  0  0  0  0  0
   40.8130   30.2140   42.3580 C   0  0  0  0  0  0  0  0  0  0  0  0
   40.5090   30.8330   41.1720 C   0  0  0  0  0  0  0  0  0  0  0  0
   39.5160   31.7870   41.0260 C   0  0  0  0  0  0  0  0  0  0  0  0
   38.8470   32.0780   42.1580 N   0  0  0  0  0  0  0  0  0  0  0  0
   40.3130   30.0800   44.4300 H   0  0  0  0  0  0  0  0  0  0  0  0
   41.5990   29.4690   42.4340 H   0  0  0  0  0  0  0  0  0  0  0  0
   41.0770   30.5630   40.2920 H   0  0  0  0  0  0  0  0  0  0  0  0
   39.8060   32.0310   38.6550 C   0  0  0  0  0  3  0  0  0  0  0  0
   39.1720   32.4540   39.7980 C   0  0  0  0  0  0  0  0  0  0  0  0
   38.2570   33.4720   39.7380 C   0  0  0  0  0  0  0  0  0  0  0  0
   37.7490   33.8220   40.6030 H   0  0  0  0  0  0  0  0  0  0  0  0
   37.9290   34.1150   38.5420 C   0  0  0  0  0  0  0  0  0  0  0  0
   37.0940   35.1010   38.2420 N   0  0  0  0  0  0  0  0  0  0  0  0
   36.4680   35.6290   38.9090 H   0  0  0  0  0  0  0  0  0  0  0  0
   37.1260   35.3800   36.9150 C   0  0  0  0  0  0  0  0  0  0  0  0
   36.5920   36.1090   36.3160 H   0  0  0  0  0  0  0  0  0  0  0  0
   38.0590   34.4850   36.3790 C   0  0  0  0  0  3  0  0  0  0  0  0
   38.5700   33.6850   37.3940 C   0  0  0  0  0  0  0  0  0  0  0  0
   39.4760   32.6750   37.4660 C   0  0  0  0  0  3  0  0  0  0  0  0
   38.3230   31.8820   44.5380 C   0  0  0  0  0  0  0  0  0  0  0  0
   37.1530   32.3330   44.4360 O   0  0  0  0  0  0  0  0  0  0  0  0
   38.9340   31.7270   45.8390 N   0  0  0  0  0  0  0  0  0  0  0  0
   39.9380   31.5400   45.9770 H   0  0  0  0  0  0  0  0  0  0  0  0
   38.4560   31.1740   48.2140 C   0  0  2  0  0  0  0  0  0  0  0  0
   38.7300   32.6210   48.1660 C   0  0  0  0  0  0  0  0  0  0  0  0
   38.0690   31.8450   46.9970 C   0  0  1  0  0  0  0  0  0  0  0  0
   39.3610   30.5360   48.2530 H   0  0  0  0  0  0  0  0  0  0  0  0
   39.7600   32.9650   48.0340 H   0  0  0  0  0  0  0  0  0  0  0  0
   38.1080   33.3090   48.7490 H   0  0  0  0  0  0  0  0  0  0  0  0
   37.0200   32.1730   46.8210 H   0  0  0  0  0  0  0  0  0  0  0  0
   35.1110   30.2450   49.5320 C   0  0  0  0  0  0  0  0  0  0  0  0
   35.4480   29.5640   50.7450 C   0  0  0  0  0  0  0  0  0  0  0  0
   36.8490   29.4510   51.0810 C   0  0  0  0  0  0  0  0  0  0  0  0
   37.7710   29.9860   50.2450 N   0  0  0  0  0  0  0  0  0  0  0  0
   37.3860   30.6200   49.1090 C   0  0  0  0  0  0  0  0  0  0  0  0
   36.0660   30.7630   48.7310 N   0  0  0  0  0  0  0  0  0  0  0  0
   34.0570   30.3130   49.3080 H   0  0  0  0  0  0  0  0  0  0  0  0
   34.7220   29.1470   51.3950 H   0  0  0  0  0  0  0  0  0  0  0  0
   37.1100   28.9390   51.9960 H   0  0  0  0  0  0  0  0  0  0  0  0
  1  2  1  0  0  0  0
  1 22  1  0  0  0  0
  2  7  1  0  0  0  0
  3  8  1  0  0  0  0
  3  2  2  0  0  0  0
  4  3  1  0  0  0  0
  5  4  2  0  0  0  0
  5  6  1  0  0  0  0
  6  1  2  0  0  0  0
  9  4  1  0  0  0  0
 10 11  1  0  0  0  0
 11  5  1  0  0  0  0
 12 11  2  0  0  0  0
 12 13  1  0  0  0  0
 14 12  1  0  0  0  0
 15 14  1  0  0  0  0
 15 16  1  0  0  0  0
 17 15  1  0  0  0  0
 18 17  1  0  0  0  0
 19 17  2  0  0  0  0
 19 20  1  0  0  0  0
 20 21  1  0  0  0  0
 20 14  2  0  0  0  0
 21 10  2  0  0  0  0
 22 24  1  0  0  0  0
 23 22  2  0  0  0  0
 24 25  1  0  0  0  0
 24 28  1  0  0  0  0
 26 29  1  6  0  0  0
 26 37  1  0  0  0  0
 27 26  1  0  0  0  0
 27 31  1  0  0  0  0
 28 32  1  6  0  0  0
 28 27  1  0  0  0  0
 28 26  1  0  0  0  0
 30 27  1  0  0  0  0
 33 34  1  0  0  0  0
 34 35  2  0  0  0  0
 34 40  1  0  0  0  0
 35 41  1  0  0  0  0
 36 35  1  0  0  0  0
 37 36  2  0  0  0  0
 38 37  1  0  0  0  0
 38 33  2  0  0  0  0
 39 33  1  0  0  0  0
M  END
>  <minimizedAffinity>
-5.42689753

>  <minimizedRMSD>
0.967544377

$$$$
