
     RDKit          3D

 44 47  0  0  0  0  0  0  0  0999 V2000
   36.0761   30.6882   49.0658 C   0  0  2  0  0  0  0  0  0  0  0  0
   37.0116   31.6438   49.7428 C   0  0  0  0  0  0  0  0  0  0  0  0
   38.0387   30.9562   50.6093 C   0  0  0  0  0  0  0  0  0  0  0  0
   37.3727   30.0516   51.6406 C   0  0  0  0  0  0  0  0  0  0  0  0
   36.1198   29.3785   51.1490 C   0  0  0  0  0  0  0  0  0  0  0  0
   36.1940   29.3031   49.6121 C   0  0  1  0  0  0  0  0  0  0  0  0
   36.3178   30.6475   47.6004 C   0  0  0  0  0  0  0  0  0  0  0  0
   37.5718   31.1162   47.1798 C   0  0  0  0  0  0  0  0  0  0  0  0
   37.8279   31.0842   45.8042 C   0  0  0  0  0  0  0  0  0  0  0  0
   36.8539   30.6029   44.9596 N   0  0  0  0  0  0  0  0  0  0  0  0
   35.6439   30.1555   45.4239 C   0  0  0  0  0  0  0  0  0  0  0  0
   35.3972   30.1871   46.7474 N   0  0  0  0  0  0  0  0  0  0  0  0
   33.9396   28.1836   49.2377 C   0  0  0  0  0  0  0  0  0  0  0  0
   33.1158   28.8863   49.9368 O   0  0  0  0  0  0  0  0  0  0  0  0
   35.3271   28.3523   49.0186 N   0  0  0  0  0  0  0  0  0  0  0  0
   34.9887   30.9684   49.1634 H   0  0  0  0  0  0  0  0  0  0  0  0
   36.3485   32.1905   50.4961 H   0  0  0  0  0  0  0  0  0  0  0  0
   37.4486   32.4202   49.1472 H   0  0  0  0  0  0  0  0  0  0  0  0
   38.5365   31.7587   51.1996 H   0  0  0  0  0  0  0  0  0  0  0  0
   38.8196   30.4228   50.0515 H   0  0  0  0  0  0  0  0  0  0  0  0
   38.1103   29.2521   51.8702 H   0  0  0  0  0  0  0  0  0  0  0  0
   37.1537   30.6015   52.5733 H   0  0  0  0  0  0  0  0  0  0  0  0
   35.2287   29.9930   51.3584 H   0  0  0  0  0  0  0  0  0  0  0  0
   36.0290   28.3757   51.5966 H   0  0  0  0  0  0  0  0  0  0  0  0
   37.1804   28.9274   49.4877 H   0  0  0  0  0  0  0  0  0  0  0  0
   38.4146   31.5036   47.7184 H   0  0  0  0  0  0  0  0  0  0  0  0
   38.7406   31.4099   45.3334 H   0  0  0  0  0  0  0  0  0  0  0  0
   34.9470   29.7964   44.6765 H   0  0  0  0  0  0  0  0  0  0  0  0
   35.7265   27.6623   48.3099 H   0  0  0  0  0  0  0  0  0  0  0  0
   33.6589   25.7775   48.6479 C   0  0  0  0  0  0  0  0  0  0  0  0
   33.1928   27.0729   48.6328 C   0  0  0  0  0  0  0  0  0  0  0  0
   31.9861   27.2000   48.0031 C   0  0  0  0  0  0  0  0  0  0  0  0
   31.4926   28.1394   47.9067 H   0  0  0  0  0  0  0  0  0  0  0  0
   31.2770   26.1676   47.4304 C   0  0  0  0  0  0  0  0  0  0  0  0
   30.1062   26.0537   46.7760 N   0  0  0  0  0  0  0  0  0  0  0  0
   29.4626   26.8532   46.5741 H   0  0  0  0  0  0  0  0  0  0  0  0
   29.8740   24.7926   46.4195 C   0  0  0  0  0  0  0  0  0  0  0  0
   28.9911   24.4485   45.8787 H   0  0  0  0  0  0  0  0  0  0  0  0
   30.9245   24.0238   46.8472 C   0  0  0  0  0  0  0  0  0  0  0  0
   31.7811   24.8947   47.4701 C   0  0  0  0  0  0  0  0  0  0  0  0
   32.9846   24.6911   48.0841 C   0  0  0  0  0  0  0  0  0  0  0  0
   34.5972   25.4989   49.1047 H   0  0  0  0  0  0  0  0  0  0  0  0
   31.0048   22.9609   46.6960 H   0  0  0  0  0  0  0  0  0  0  0  0
   33.3825   23.6868   48.1155 H   0  0  0  0  0  0  0  0  0  0  0  0
  1  6  1  0
  1  2  1  0
  2  3  1  0
  3  4  1  0
  5  4  1  0
  6  5  1  0
  7  1  1  0
  8  7  2  0
  9  8  1  0
 10 11  1  0
 10  9  2  0
 11 12  2  0
 12  7  1  0
 13 14  2  0
 15 13  1  0
 15  6  1  0
  1 16  1  6
  2 17  1  0
  2 18  1  0
  3 19  1  0
  3 20  1  0
  4 21  1  0
  4 22  1  0
  5 23  1  0
  5 24  1  0
  6 25  1  1
  8 26  1  0
  9 27  1  0
 11 28  1  0
 15 29  1  0
 30 31  2  0
 31 32  1  0
 32 33  1  0
 32 34  2  0
 34 35  1  0
 35 36  1  0
 35 37  1  0
 37 38  1  0
 37 39  2  0
 39 40  1  0
 40 41  2  0
 41 30  1  0
 40 34  1  0
 30 42  1  0
 39 43  1  0
 41 44  1  0
 13 31  1  0
M  ISO  8  16  13  17  13  18  13  19  13  20  13  21  13  22  13  23  13
M  ISO  8  24  13  25  13  26  14  27  14  28  14  33  15  36   5  38  14
M  END
>  <DihAtoms>  (1) 
13,12,30,29

>  <DihDeg>  (1) 
1.065852981405989

$$$$
