
     RDKit          3D

 44 48  0  0  0  0  0  0  0  0999 V2000
   38.4350   31.1101   48.2147 C   0  0  2  0  0  0  0  0  0  0  0  0
   38.6726   32.5586   48.0994 C   0  0  0  0  0  0  0  0  0  0  0  0
   38.0536   31.7077   46.9586 C   0  0  1  0  0  0  0  0  0  0  0  0
   35.0854   30.2234   49.5496 C   0  0  0  0  0  0  0  0  0  0  0  0
   35.4190   29.5505   50.7687 C   0  0  0  0  0  0  0  0  0  0  0  0
   36.8197   29.4283   51.1015 C   0  0  0  0  0  0  0  0  0  0  0  0
   37.7444   29.9474   50.2589 N   0  0  0  0  0  0  0  0  0  0  0  0
   37.3619   30.5739   49.1183 C   0  0  0  0  0  0  0  0  0  0  0  0
   36.0428   30.7250   48.7415 N   0  0  0  0  0  0  0  0  0  0  0  0
   38.4020   31.8413   44.5152 C   0  0  0  0  0  0  0  0  0  0  0  0
   37.2923   32.4223   44.3997 O   0  0  0  0  0  0  0  0  0  0  0  0
   38.9443   31.5545   45.8235 N   0  0  0  0  0  0  0  0  0  0  0  0
   39.1831   31.4353   43.3330 C   0  0  0  0  0  0  0  0  0  0  0  0
   40.1454   30.4736   43.4821 C   0  0  0  0  0  0  0  0  0  0  0  0
   40.8692   30.1086   42.3576 C   0  0  0  0  0  0  0  0  0  0  0  0
   40.5826   30.7274   41.1658 C   0  0  0  0  0  0  0  0  0  0  0  0
   39.6105   31.7002   41.0103 C   0  0  0  0  0  0  0  0  0  0  0  0
   38.9422   32.0118   42.1365 N   0  0  0  0  0  0  0  0  0  0  0  0
   39.3554   30.4989   48.3033 H   0  0  0  0  0  0  0  0  0  0  0  0
   39.6958   32.9228   47.9677 H   0  0  0  0  0  0  0  0  0  0  0  0
   38.0215   33.2587   48.6342 H   0  0  0  0  0  0  0  0  0  0  0  0
   37.0007   31.9993   46.7484 H   0  0  0  0  0  0  0  0  0  0  0  0
   34.0308   30.2987   49.3283 H   0  0  0  0  0  0  0  0  0  0  0  0
   34.6909   29.1460   51.4243 H   0  0  0  0  0  0  0  0  0  0  0  0
   37.0794   28.9216   52.0207 H   0  0  0  0  0  0  0  0  0  0  0  0
   39.9155   31.2523   45.9836 H   0  0  0  0  0  0  0  0  0  0  0  0
   40.3565   29.9979   44.4283 H   0  0  0  0  0  0  0  0  0  0  0  0
   41.6391   29.3492   42.4419 H   0  0  0  0  0  0  0  0  0  0  0  0
   41.1497   30.4397   40.2909 H   0  0  0  0  0  0  0  0  0  0  0  0
   38.3198   31.7917   38.9871 C   0  0  0  0  0  0  0  0  0  0  0  0
   39.2869   32.3666   39.7761 C   0  0  0  0  0  0  0  0  0  0  0  0
   39.8992   33.5265   39.3763 C   0  0  0  0  0  0  0  0  0  0  0  0
   40.6502   33.9959   39.9630 H   0  0  0  0  0  0  0  0  0  0  0  0
   39.5789   34.1660   38.1774 C   0  0  0  0  0  0  0  0  0  0  0  0
   40.0251   35.2711   37.5924 N   0  0  0  0  0  0  0  0  0  0  0  0
   40.7677   35.9266   37.9563 H   0  0  0  0  0  0  0  0  0  0  0  0
   39.3934   35.4852   36.4110 C   0  0  0  0  0  0  0  0  0  0  0  0
   39.4916   36.2702   35.6701 H   0  0  0  0  0  0  0  0  0  0  0  0
   38.4962   34.4195   36.2805 C   0  0  0  0  0  0  0  0  0  0  0  0
   38.6053   33.5844   37.3863 C   0  0  0  0  0  0  0  0  0  0  0  0
   38.0055   32.4347   37.7932 C   0  0  0  0  0  0  0  0  0  0  0  0
   37.8066   30.8768   39.2575 H   0  0  0  0  0  0  0  0  0  0  0  0
   37.8334   34.2864   35.4450 H   0  0  0  0  0  0  0  0  0  0  0  0
   37.2510   32.0277   37.1308 H   0  0  0  0  0  0  0  0  0  0  0  0
  1  8  1  0
  2  1  1  0
  3  2  1  0
  3  1  1  0
  4  5  2  0
  5  6  1  0
  7  6  2  0
  8  7  1  0
  9  8  2  0
  9  4  1  0
 10 12  1  0
 11 10  2  0
 12  3  1  0
 13 14  2  0
 13 10  1  0
 15 14  1  0
 16 15  2  0
 17 16  1  0
 17 18  2  0
 18 13  1  0
  1 19  1  6
  2 20  1  0
  2 21  1  0
  3 22  1  6
  4 23  1  0
  5 24  1  0
  6 25  1  0
 12 26  1  0
 14 27  1  0
 15 28  1  0
 16 29  1  0
 30 31  2  0
 31 32  1  0
 32 33  1  0
 32 34  2  0
 34 35  1  0
 35 36  1  0
 35 37  1  0
 37 38  1  0
 37 39  2  0
 39 40  1  0
 40 41  2  0
 41 30  1  0
 40 34  1  0
 30 42  1  0
 39 43  1  0
 41 44  1  0
 17 31  1  0
M  ISO  8  19  13  20  13  21  13  22  13  23  14  24  14  25  14  27  14
M  ISO  5  28  14  29  14  33  15  36   5  38  14
M  END
>  <DihAtoms>  (1) 
15,16,30,29

>  <DihDeg>  (1) 
179.99998579749078

$$$$
