
 OpenBabel03272509303D

 41 44  0  0  1  0  0  0  0  0999 V2000
   36.4720   30.7580   49.0310 C   0  0  2  0  0  0  0  0  0  0  0  0
   37.4530   31.5900   49.8020 C   0  0  0  0  0  0  0  0  0  0  0  0
   38.2870   30.7810   50.7660 C   0  0  0  0  0  0  0  0  0  0  0  0
   37.4070   29.9840   51.7220 C   0  0  0  0  0  0  0  0  0  0  0  0
   36.1320   29.4760   51.1040 C   0  0  0  0  0  0  0  0  0  0  0  0
   36.3500   29.3760   49.5820 C   0  0  1  0  0  0  0  0  0  0  0  0
   35.4280   31.1800   49.0180 H   0  0  0  0  0  0  0  0  0  0  0  0
   36.7960   32.2270   50.4850 H   0  0  0  0  0  0  0  0  0  0  0  0
   38.0470   32.2950   49.2560 H   0  0  0  0  0  0  0  0  0  0  0  0
   38.8240   31.5180   51.4060 H   0  0  0  0  0  0  0  0  0  0  0  0
   39.0430   30.1440   50.2880 H   0  0  0  0  0  0  0  0  0  0  0  0
   38.0040   29.0960   52.0230 H   0  0  0  0  0  0  0  0  0  0  0  0
   37.1700   30.5680   52.6290 H   0  0  0  0  0  0  0  0  0  0  0  0
   35.3130   30.2060   51.2230 H   0  0  0  0  0  0  0  0  0  0  0  0
   35.8640   28.5000   51.5370 H   0  0  0  0  0  0  0  0  0  0  0  0
   37.2850   28.8720   49.5580 H   0  0  0  0  0  0  0  0  0  0  0  0
   36.8530   30.6710   47.5970 C   0  0  0  0  0  0  0  0  0  0  0  0
   38.2170   30.8490   47.3210 C   0  0  0  0  0  0  0  0  0  0  0  0
   38.6040   30.7660   45.9780 C   0  0  0  0  0  0  0  0  0  0  0  0
   37.6430   30.5180   45.0250 N   0  0  0  0  0  0  0  0  0  0  0  0
   36.3220   30.3500   45.3500 C   0  0  0  0  0  0  0  0  0  0  0  0
   35.9490   30.4310   46.6410 N   0  0  0  0  0  0  0  0  0  0  0  0
   39.0630   31.0370   47.9530 H   0  0  0  0  0  0  0  0  0  0  0  0
   39.6120   30.8820   45.6120 H   0  0  0  0  0  0  0  0  0  0  0  0
   35.6460   30.1590   44.5250 H   0  0  0  0  0  0  0  0  0  0  0  0
   34.0350   28.4290   49.1140 C   0  0  0  0  0  0  0  0  0  0  0  0
   33.2540   29.1000   49.8880 O   0  0  0  0  0  0  0  0  0  0  0  0
   35.4290   28.5410   48.9010 N   0  0  0  0  0  0  0  0  0  0  0  0
   35.7880   27.9070   48.1220 H   0  0  0  0  0  0  0  0  0  0  0  0
   31.8530   27.3890   48.5050 C   0  0  0  0  0  3  0  0  0  0  0  0
   33.2250   27.4310   48.4040 C   0  0  0  0  0  0  0  0  0  0  0  0
   33.7310   26.4570   47.5880 C   0  0  0  0  0  0  0  0  0  0  0  0
   34.7770   26.3550   47.4070 H   0  0  0  0  0  0  0  0  0  0  0  0
   32.9840   25.5140   46.9180 C   0  0  0  0  0  0  0  0  0  0  0  0
   33.2510   24.4900   46.0870 N   0  0  0  0  0  0  0  0  0  0  0  0
   34.2120   24.2170   45.7780 H   0  0  0  0  0  0  0  0  0  0  0  0
   32.1340   23.8720   45.7090 C   0  0  0  0  0  0  0  0  0  0  0  0
   32.0920   23.0130   45.0380 H   0  0  0  0  0  0  0  0  0  0  0  0
   31.0720   24.4990   46.3050 C   0  0  0  0  0  3  0  0  0  0  0  0
   31.6200   25.5120   47.0490 C   0  0  0  0  0  0  0  0  0  0  0  0
   31.0420   26.4570   47.8490 C   0  0  0  0  0  3  0  0  0  0  0  0
  1  7  1  1  0  0  0
  1  6  1  0  0  0  0
  1  2  1  0  0  0  0
  2  8  1  0  0  0  0
  2  3  1  0  0  0  0
  3 10  1  0  0  0  0
  3  4  1  0  0  0  0
  4 12  1  0  0  0  0
  4 13  1  0  0  0  0
  5 14  1  0  0  0  0
  5 15  1  0  0  0  0
  5  4  1  0  0  0  0
  6 16  1  6  0  0  0
  6  5  1  0  0  0  0
  9  2  1  0  0  0  0
 11  3  1  0  0  0  0
 17  1  1  0  0  0  0
 18 17  1  0  0  0  0
 18 23  1  0  0  0  0
 19 18  2  0  0  0  0
 20 21  2  0  0  0  0
 20 19  1  0  0  0  0
 21 22  1  0  0  0  0
 22 17  2  0  0  0  0
 24 19  1  0  0  0  0
 25 21  1  0  0  0  0
 26 27  2  0  0  0  0
 28 26  1  0  0  0  0
 28  6  1  0  0  0  0
 29 28  1  0  0  0  0
 31 30  1  0  0  0  0
 31 26  1  0  0  0  0
 32 31  2  0  0  0  0
 33 32  1  0  0  0  0
 34 40  2  0  0  0  0
 34 32  1  0  0  0  0
 35 34  1  0  0  0  0
 36 35  1  0  0  0  0
 37 35  1  0  0  0  0
 37 39  2  0  0  0  0
 38 37  1  0  0  0  0
 39 40  1  0  0  0  0
 40 41  1  0  0  0  0
 41 30  2  0  0  0  0
M  END
>  <minimizedAffinity>
-6.45691204

>  <minimizedRMSD>
0.803880334

$$$$
