
 OpenBabel03262523103D

 23 25  0  0  0  0  0  0  0  0999 V2000
   38.1880   26.7500   35.8080 C   0  0  0  0  0  3  0  0  0  0  0  0
   38.3310   25.5000   35.2360 C   0  0  0  0  0  0  0  0  0  0  0  0
   37.7930   25.2730   33.9820 C   0  0  0  0  0  0  0  0  0  0  0  0
   37.9260   24.2650   33.5590 H   0  0  0  0  0  0  0  0  0  0  0  0
   37.1240   26.2650   33.3030 C   0  0  0  0  0  0  0  0  0  0  0  0
   36.5300   26.2850   32.1030 N   0  0  0  0  0  0  0  0  0  0  0  0
   36.4620   25.5030   31.4230 H   0  0  0  0  0  0  0  0  0  0  0  0
   36.0110   27.5100   31.8910 C   0  0  0  0  0  0  0  0  0  0  0  0
   35.4650   27.9070   31.0510 H   0  0  0  0  0  0  0  0  0  0  0  0
   36.2730   28.3120   32.9800 C   0  0  0  0  0  3  0  0  0  0  0  0
   36.9760   27.5210   33.8660 C   0  0  0  0  0  0  0  0  0  0  0  0
   37.5150   27.7390   35.1150 C   0  0  0  0  0  3  0  0  0  0  0  0
   39.1470   23.0610   37.8340 C   0  0  0  0  0  0  0  0  0  0  0  0
   40.3680   22.5100   37.3980 C   0  0  0  0  0  0  0  0  0  0  0  0
   40.8880   23.0100   36.1890 C   0  0  0  0  0  0  0  0  0  0  0  0
   40.1940   23.9650   35.5380 N   0  0  0  0  0  0  0  0  0  0  0  0
   39.0360   24.4750   35.9680 C   0  0  0  0  0  0  0  0  0  0  0  0
   38.5290   24.0040   37.1270 N   0  0  0  0  0  0  0  0  0  0  0  0
   40.8500   21.7550   37.9780 H   0  0  0  0  0  0  0  0  0  0  0  0
   41.8350   22.6050   35.8190 H   0  0  0  0  0  0  0  0  0  0  0  0
   38.5230   22.6340   39.0450 N   0  0  0  0  0  0  0  0  0  0  0  0
   38.1910   23.1150   39.8940 H   0  0  0  0  0  0  0  0  0  0  0  0
   38.4210   21.5880   38.9570 H   0  0  0  0  0  0  0  0  0  0  0  0
  2  1  1  0  0  0  0
  2 17  1  0  0  0  0
  3  2  2  0  0  0  0
  4  3  1  0  0  0  0
  5 11  2  0  0  0  0
  5  3  1  0  0  0  0
  6  5  1  0  0  0  0
  7  6  1  0  0  0  0
  8  6  1  0  0  0  0
  8 10  2  0  0  0  0
  9  8  1  0  0  0  0
 10 11  1  0  0  0  0
 11 12  1  0  0  0  0
 12  1  2  0  0  0  0
 13 21  1  0  0  0  0
 14 13  1  0  0  0  0
 14 19  1  0  0  0  0
 15 14  2  0  0  0  0
 16 17  2  0  0  0  0
 16 15  1  0  0  0  0
 17 18  1  0  0  0  0
 18 13  2  0  0  0  0
 20 15  1  0  0  0  0
 21 22  1  0  0  0  0
 23 21  1  0  0  0  0
M  END
>  <minimizedAffinity>
-5.5029974

$$$$

 OpenBabel03262523103D

 23 25  0  0  0  0  0  0  0  0999 V2000
   39.9020   26.3050   34.8620 C   0  0  0  0  0  3  0  0  0  0  0  0
   38.9140   25.3530   35.0250 C   0  0  0  0  0  0  0  0  0  0  0  0
   38.0210   25.1330   33.9920 C   0  0  0  0  0  0  0  0  0  0  0  0
   37.2470   24.3670   34.1570 H   0  0  0  0  0  0  0  0  0  0  0  0
   38.1010   25.8430   32.8160 C   0  0  0  0  0  0  0  0  0  0  0  0
   37.3670   25.8090   31.6960 N   0  0  0  0  0  0  0  0  0  0  0  0
   36.5500   25.2000   31.5010 H   0  0  0  0  0  0  0  0  0  0  0  0
   37.8560   26.7120   30.8240 C   0  0  0  0  0  0  0  0  0  0  0  0
   37.5350   26.9720   29.8280 H   0  0  0  0  0  0  0  0  0  0  0  0
   38.9380   27.3520   31.3860 C   0  0  0  0  0  3  0  0  0  0  0  0
   39.0870   26.7990   32.6420 C   0  0  0  0  0  0  0  0  0  0  0  0
   39.9740   27.0120   33.6760 C   0  0  0  0  0  3  0  0  0  0  0  0
   39.6450   22.8660   37.6030 C   0  0  0  0  0  0  0  0  0  0  0  0
   38.7490   23.1940   38.6400 C   0  0  0  0  0  0  0  0  0  0  0  0
   37.8970   24.2910   38.4140 C   0  0  0  0  0  0  0  0  0  0  0  0
   37.9930   24.9460   37.2400 N   0  0  0  0  0  0  0  0  0  0  0  0
   38.8500   24.6210   36.2670 C   0  0  0  0  0  0  0  0  0  0  0  0
   39.6710   23.5700   36.4730 N   0  0  0  0  0  0  0  0  0  0  0  0
   38.7420   22.6190   39.5390 H   0  0  0  0  0  0  0  0  0  0  0  0
   37.1880   24.5740   39.1980 H   0  0  0  0  0  0  0  0  0  0  0  0
   40.5570   21.7750   37.7170 N   0  0  0  0  0  0  0  0  0  0  0  0
   40.7560   20.9380   37.1490 H   0  0  0  0  0  0  0  0  0  0  0  0
   41.1010   21.9530   38.6040 H   0  0  0  0  0  0  0  0  0  0  0  0
  1  2  1  0  0  0  0
  2 17  1  0  0  0  0
  3  4  1  0  0  0  0
  3  2  2  0  0  0  0
  5  3  1  0  0  0  0
  6  5  1  0  0  0  0
  7  6  1  0  0  0  0
  8 10  2  0  0  0  0
  8  6  1  0  0  0  0
  9  8  1  0  0  0  0
 10 11  1  0  0  0  0
 11  5  2  0  0  0  0
 11 12  1  0  0  0  0
 12  1  2  0  0  0  0
 13 21  1  0  0  0  0
 13 14  1  0  0  0  0
 14 19  1  0  0  0  0
 15 14  2  0  0  0  0
 15 20  1  0  0  0  0
 16 15  1  0  0  0  0
 17 18  1  0  0  0  0
 17 16  2  0  0  0  0
 18 13  2  0  0  0  0
 21 23  1  0  0  0  0
 22 21  1  0  0  0  0
M  END
>  <minimizedAffinity>
-5.22828627

$$$$

 OpenBabel03262523103D

 23 25  0  0  0  0  0  0  0  0999 V2000
   38.5510   24.9020   33.8690 C   0  0  0  0  0  3  0  0  0  0  0  0
   38.0720   25.3850   35.0730 C   0  0  0  0  0  0  0  0  0  0  0  0
   37.3380   26.5580   35.0780 C   0  0  0  0  0  0  0  0  0  0  0  0
   36.9730   26.9120   36.0540 H   0  0  0  0  0  0  0  0  0  0  0  0
   37.0830   27.2450   33.9130 C   0  0  0  0  0  0  0  0  0  0  0  0
   36.4120   28.3770   33.6690 N   0  0  0  0  0  0  0  0  0  0  0  0
   35.9310   28.9830   34.3620 H   0  0  0  0  0  0  0  0  0  0  0  0
   36.4490   28.6330   32.3480 C   0  0  0  0  0  0  0  0  0  0  0  0
   36.0280   29.4450   31.7760 H   0  0  0  0  0  0  0  0  0  0  0  0
   37.1620   27.6430   31.7090 C   0  0  0  0  0  3  0  0  0  0  0  0
   37.5590   26.7700   32.7030 C   0  0  0  0  0  0  0  0  0  0  0  0
   38.2880   25.6000   32.7050 C   0  0  0  0  0  3  0  0  0  0  0  0
   39.4430   22.8560   37.3280 C   0  0  0  0  0  0  0  0  0  0  0  0
   38.9080   23.2090   38.5830 C   0  0  0  0  0  0  0  0  0  0  0  0
   38.0680   24.3370   38.6150 C   0  0  0  0  0  0  0  0  0  0  0  0
   37.8340   24.9970   37.4630 N   0  0  0  0  0  0  0  0  0  0  0  0
   38.3520   24.6470   36.2810 C   0  0  0  0  0  0  0  0  0  0  0  0
   39.1590   23.5660   36.2390 N   0  0  0  0  0  0  0  0  0  0  0  0
   39.1470   22.6280   39.4460 H   0  0  0  0  0  0  0  0  0  0  0  0
   37.6340   24.6410   39.5730 H   0  0  0  0  0  0  0  0  0  0  0  0
   40.3080   21.7320   37.1720 N   0  0  0  0  0  0  0  0  0  0  0  0
   40.2990   20.8920   36.5740 H   0  0  0  0  0  0  0  0  0  0  0  0
   41.0960   21.8840   37.8560 H   0  0  0  0  0  0  0  0  0  0  0  0
  1  2  1  0  0  0  0
  2  3  2  0  0  0  0
  2 17  1  0  0  0  0
  3  4  1  0  0  0  0
  5  3  1  0  0  0  0
  6  5  1  0  0  0  0
  6  7  1  0  0  0  0
  8  6  1  0  0  0  0
  9  8  1  0  0  0  0
 10  8  2  0  0  0  0
 10 11  1  0  0  0  0
 11 12  1  0  0  0  0
 11  5  2  0  0  0  0
 12  1  2  0  0  0  0
 13 14  1  0  0  0  0
 14 15  2  0  0  0  0
 14 19  1  0  0  0  0
 15 20  1  0  0  0  0
 16 15  1  0  0  0  0
 17 16  2  0  0  0  0
 18 17  1  0  0  0  0
 18 13  2  0  0  0  0
 21 13  1  0  0  0  0
 21 23  1  0  0  0  0
 22 21  1  0  0  0  0
M  END
>  <minimizedAffinity>
-5.01607609

$$$$

 OpenBabel03262523103D

 23 25  0  0  0  0  0  0  0  0999 V2000
   37.7200   27.5020   35.1350 C   0  0  0  0  0  3  0  0  0  0  0  0
   37.3560   27.0110   33.8950 C   0  0  0  0  0  0  0  0  0  0  0  0
   37.4920   25.6570   33.6480 C   0  0  0  0  0  0  0  0  0  0  0  0
   37.1930   25.3010   32.6490 H   0  0  0  0  0  0  0  0  0  0  0  0
   37.9810   24.8010   34.6080 C   0  0  0  0  0  0  0  0  0  0  0  0
   38.1990   23.4800   34.6040 N   0  0  0  0  0  0  0  0  0  0  0  0
   38.0280   22.8180   33.8230 H   0  0  0  0  0  0  0  0  0  0  0  0
   38.6910   23.1140   35.8030 C   0  0  0  0  0  0  0  0  0  0  0  0
   38.9860   22.1460   36.1760 H   0  0  0  0  0  0  0  0  0  0  0  0
   38.7980   24.2230   36.6130 C   0  0  0  0  0  3  0  0  0  0  0  0
   38.3480   25.2830   35.8530 C   0  0  0  0  0  0  0  0  0  0  0  0
   38.2080   26.6330   36.0930 C   0  0  0  0  0  3  0  0  0  0  0  0
   36.6010   28.5030   30.6450 C   0  0  0  0  0  0  0  0  0  0  0  0
   35.8830   29.6690   30.9760 C   0  0  0  0  0  0  0  0  0  0  0  0
   35.6750   29.9130   32.3470 C   0  0  0  0  0  0  0  0  0  0  0  0
   36.1680   29.0290   33.2380 N   0  0  0  0  0  0  0  0  0  0  0  0
   36.8470   27.9270   32.9040 C   0  0  0  0  0  0  0  0  0  0  0  0
   37.0520   27.6850   31.5920 N   0  0  0  0  0  0  0  0  0  0  0  0
   35.5280   30.3140   30.2040 H   0  0  0  0  0  0  0  0  0  0  0  0
   35.1210   30.8090   32.6420 H   0  0  0  0  0  0  0  0  0  0  0  0
   36.8740   28.1520   29.2890 N   0  0  0  0  0  0  0  0  0  0  0  0
   37.7310   27.9380   28.7570 H   0  0  0  0  0  0  0  0  0  0  0  0
   35.9350   28.1300   28.8080 H   0  0  0  0  0  0  0  0  0  0  0  0
  1 12  1  0  0  0  0
  2  1  2  0  0  0  0
  3  2  1  0  0  0  0
  3  5  2  0  0  0  0
  4  3  1  0  0  0  0
  5 11  1  0  0  0  0
  6  5  1  0  0  0  0
  6  8  1  0  0  0  0
  7  6  1  0  0  0  0
  8  9  1  0  0  0  0
  8 10  2  0  0  0  0
 11 12  2  0  0  0  0
 11 10  1  0  0  0  0
 13 14  2  0  0  0  0
 13 18  1  0  0  0  0
 14 15  1  0  0  0  0
 15 20  1  0  0  0  0
 15 16  2  0  0  0  0
 17 16  1  0  0  0  0
 17  2  1  0  0  0  0
 18 17  2  0  0  0  0
 19 14  1  0  0  0  0
 21 13  1  0  0  0  0
 22 21  1  0  0  0  0
 23 21  1  0  0  0  0
M  END
>  <minimizedAffinity>
-4.97390413

$$$$

 OpenBabel03262523103D

 23 25  0  0  0  0  0  0  0  0999 V2000
   38.9330   24.4080   34.2210 C   0  0  0  0  0  3  0  0  0  0  0  0
   37.9310   25.2710   34.6240 C   0  0  0  0  0  0  0  0  0  0  0  0
   37.5690   25.2980   35.9580 C   0  0  0  0  0  0  0  0  0  0  0  0
   36.7670   25.9970   36.2430 H   0  0  0  0  0  0  0  0  0  0  0  0
   38.1850   24.4850   36.8820 C   0  0  0  0  0  0  0  0  0  0  0  0
   38.0120   24.3350   38.2010 N   0  0  0  0  0  0  0  0  0  0  0  0
   37.3350   24.8380   38.8060 H   0  0  0  0  0  0  0  0  0  0  0  0
   38.8720   23.4020   38.6530 C   0  0  0  0  0  0  0  0  0  0  0  0
   39.0290   23.0130   39.6460 H   0  0  0  0  0  0  0  0  0  0  0  0
   39.6280   22.9290   37.6030 C   0  0  0  0  0  3  0  0  0  0  0  0
   39.1900   23.6170   36.4890 C   0  0  0  0  0  0  0  0  0  0  0  0
   39.5460   23.5970   35.1580 C   0  0  0  0  0  3  0  0  0  0  0  0
   36.1320   26.3020   31.6130 C   0  0  0  0  0  0  0  0  0  0  0  0
   36.0800   27.7060   31.7250 C   0  0  0  0  0  0  0  0  0  0  0  0
   36.6820   28.2700   32.8650 C   0  0  0  0  0  0  0  0  0  0  0  0
   37.2600   27.4450   33.7610 N   0  0  0  0  0  0  0  0  0  0  0  0
   37.2990   26.1140   33.6380 C   0  0  0  0  0  0  0  0  0  0  0  0
   36.7250   25.5630   32.5480 N   0  0  0  0  0  0  0  0  0  0  0  0
   35.6010   28.2830   30.9660 H   0  0  0  0  0  0  0  0  0  0  0  0
   36.6610   29.3570   32.9850 H   0  0  0  0  0  0  0  0  0  0  0  0
   35.5560   25.6170   30.5020 N   0  0  0  0  0  0  0  0  0  0  0  0
   35.9110   24.9440   29.8060 H   0  0  0  0  0  0  0  0  0  0  0  0
   34.5500   25.9320   30.4670 H   0  0  0  0  0  0  0  0  0  0  0  0
  1  2  2  0  0  0  0
  1 12  1  0  0  0  0
  2  3  1  0  0  0  0
  3  4  1  0  0  0  0
  3  5  2  0  0  0  0
  5  6  1  0  0  0  0
  6  8  1  0  0  0  0
  6  7  1  0  0  0  0
  8  9  1  0  0  0  0
 10  8  2  0  0  0  0
 11  5  1  0  0  0  0
 11 10  1  0  0  0  0
 12 11  2  0  0  0  0
 13 14  2  0  0  0  0
 13 18  1  0  0  0  0
 14 15  1  0  0  0  0
 15 20  1  0  0  0  0
 15 16  2  0  0  0  0
 17 16  1  0  0  0  0
 17  2  1  0  0  0  0
 18 17  2  0  0  0  0
 19 14  1  0  0  0  0
 21 13  1  0  0  0  0
 22 21  1  0  0  0  0
 23 21  1  0  0  0  0
M  END
>  <minimizedAffinity>
-4.96877909

$$$$

 OpenBabel03262523103D

 23 25  0  0  0  0  0  0  0  0999 V2000
   36.0770   28.5850   34.1610 C   0  0  0  0  0  3  0  0  0  0  0  0
   35.1990   29.5940   33.8160 C   0  0  0  0  0  0  0  0  0  0  0  0
   35.1430   30.0100   32.4980 C   0  0  0  0  0  0  0  0  0  0  0  0
   34.4320   30.8160   32.2600 H   0  0  0  0  0  0  0  0  0  0  0  0
   35.9430   29.4390   31.5350 C   0  0  0  0  0  0  0  0  0  0  0  0
   36.0670   29.6670   30.2220 N   0  0  0  0  0  0  0  0  0  0  0  0
   35.5460   30.3640   29.6540 H   0  0  0  0  0  0  0  0  0  0  0  0
   36.9980   28.8350   29.7180 C   0  0  0  0  0  0  0  0  0  0  0  0
   37.3690   28.7220   28.7120 H   0  0  0  0  0  0  0  0  0  0  0  0
   37.4970   28.0410   30.7270 C   0  0  0  0  0  3  0  0  0  0  0  0
   36.8270   28.4270   31.8700 C   0  0  0  0  0  0  0  0  0  0  0  0
   36.8760   28.0180   33.1850 C   0  0  0  0  0  3  0  0  0  0  0  0
   34.1690   31.6300   36.6730 C   0  0  0  0  0  0  0  0  0  0  0  0
   32.8040   31.3140   36.8270 C   0  0  0  0  0  0  0  0  0  0  0  0
   32.2660   30.3840   35.9190 C   0  0  0  0  0  0  0  0  0  0  0  0
   33.0760   29.8660   34.9740 N   0  0  0  0  0  0  0  0  0  0  0  0
   34.3700   30.1780   34.8430 C   0  0  0  0  0  0  0  0  0  0  0  0
   34.8960   31.0680   35.7100 N   0  0  0  0  0  0  0  0  0  0  0  0
   32.2360   31.7740   37.6050 H   0  0  0  0  0  0  0  0  0  0  0  0
   31.2090   30.1160   36.0080 H   0  0  0  0  0  0  0  0  0  0  0  0
   34.8250   32.5580   37.5350 N   0  0  0  0  0  0  0  0  0  0  0  0
   35.6650   32.5200   38.1320 H   0  0  0  0  0  0  0  0  0  0  0  0
   34.2550   33.4450   37.4820 H   0  0  0  0  0  0  0  0  0  0  0  0
  2  1  1  0  0  0  0
  2 17  1  0  0  0  0
  3  2  2  0  0  0  0
  4  3  1  0  0  0  0
  5 11  2  0  0  0  0
  5  3  1  0  0  0  0
  6  5  1  0  0  0  0
  7  6  1  0  0  0  0
  8  6  1  0  0  0  0
  8 10  2  0  0  0  0
  9  8  1  0  0  0  0
 10 11  1  0  0  0  0
 11 12  1  0  0  0  0
 12  1  2  0  0  0  0
 13 14  1  0  0  0  0
 13 21  1  0  0  0  0
 14 19  1  0  0  0  0
 15 20  1  0  0  0  0
 15 14  2  0  0  0  0
 16 15  1  0  0  0  0
 17 16  2  0  0  0  0
 17 18  1  0  0  0  0
 18 13  2  0  0  0  0
 21 22  1  0  0  0  0
 23 21  1  0  0  0  0
M  END
>  <minimizedAffinity>
-4.93954277

$$$$

 OpenBabel03262523103D

 23 25  0  0  0  0  0  0  0  0999 V2000
   38.5210   27.1820   34.9590 C   0  0  0  0  0  3  0  0  0  0  0  0
   38.5280   26.3320   33.8690 C   0  0  0  0  0  0  0  0  0  0  0  0
   38.3670   24.9750   34.0800 C   0  0  0  0  0  0  0  0  0  0  0  0
   38.3790   24.3280   33.1890 H   0  0  0  0  0  0  0  0  0  0  0  0
   38.2030   24.4630   35.3470 C   0  0  0  0  0  0  0  0  0  0  0  0
   38.0330   23.2130   35.7940 N   0  0  0  0  0  0  0  0  0  0  0  0
   37.9910   22.3440   35.2260 H   0  0  0  0  0  0  0  0  0  0  0  0
   37.9180   23.2380   37.1350 C   0  0  0  0  0  0  0  0  0  0  0  0
   37.7720   22.4390   37.8440 H   0  0  0  0  0  0  0  0  0  0  0  0
   38.0150   24.5390   37.5790 C   0  0  0  0  0  3  0  0  0  0  0  0
   38.1950   25.3060   36.4450 C   0  0  0  0  0  0  0  0  0  0  0  0
   38.3550   26.6580   36.2270 C   0  0  0  0  0  3  0  0  0  0  0  0
   37.7390   27.6580   30.5560 C   0  0  0  0  0  0  0  0  0  0  0  0
   39.0030   27.9630   30.0130 C   0  0  0  0  0  0  0  0  0  0  0  0
   40.1190   27.6950   30.8270 C   0  0  0  0  0  0  0  0  0  0  0  0
   39.9100   27.1740   32.0520 N   0  0  0  0  0  0  0  0  0  0  0  0
   38.7020   26.8910   32.5500 C   0  0  0  0  0  0  0  0  0  0  0  0
   37.6250   27.1440   31.7780 N   0  0  0  0  0  0  0  0  0  0  0  0
   39.0760   28.3750   29.0310 H   0  0  0  0  0  0  0  0  0  0  0  0
   41.1170   27.9200   30.4380 H   0  0  0  0  0  0  0  0  0  0  0  0
   36.5350   27.8860   29.8240 N   0  0  0  0  0  0  0  0  0  0  0  0
   35.7350   27.2960   29.5490 H   0  0  0  0  0  0  0  0  0  0  0  0
   36.5590   28.9050   29.5500 H   0  0  0  0  0  0  0  0  0  0  0  0
  1 12  1  0  0  0  0
  2  3  1  0  0  0  0
  2  1  2  0  0  0  0
  3  5  2  0  0  0  0
  4  3  1  0  0  0  0
  5  6  1  0  0  0  0
  5 11  1  0  0  0  0
  6  8  1  0  0  0  0
  7  6  1  0  0  0  0
  8 10  2  0  0  0  0
  8  9  1  0  0  0  0
 11 10  1  0  0  0  0
 12 11  2  0  0  0  0
 13 18  1  0  0  0  0
 14 13  2  0  0  0  0
 14 15  1  0  0  0  0
 15 16  2  0  0  0  0
 16 17  1  0  0  0  0
 17  2  1  0  0  0  0
 18 17  2  0  0  0  0
 19 14  1  0  0  0  0
 20 15  1  0  0  0  0
 21 13  1  0  0  0  0
 22 21  1  0  0  0  0
 23 21  1  0  0  0  0
M  END
>  <minimizedAffinity>
-4.8890152

$$$$

 OpenBabel03262523103D

 23 25  0  0  0  0  0  0  0  0999 V2000
   37.7020   22.5800   33.3150 C   0  0  0  0  0  3  0  0  0  0  0  0
   38.2480   23.5890   34.0850 C   0  0  0  0  0  0  0  0  0  0  0  0
   37.9320   24.9020   33.7880 C   0  0  0  0  0  0  0  0  0  0  0  0
   38.3850   25.6800   34.4230 H   0  0  0  0  0  0  0  0  0  0  0  0
   37.0900   25.2150   32.7450 C   0  0  0  0  0  0  0  0  0  0  0  0
   36.6450   26.3870   32.2730 N   0  0  0  0  0  0  0  0  0  0  0  0
   36.8700   27.3340   32.6330 H   0  0  0  0  0  0  0  0  0  0  0  0
   35.8330   26.1560   31.2240 C   0  0  0  0  0  0  0  0  0  0  0  0
   35.2910   26.8400   30.5910 H   0  0  0  0  0  0  0  0  0  0  0  0
   35.7430   24.7990   31.0040 C   0  0  0  0  0  3  0  0  0  0  0  0
   36.5380   24.2120   31.9670 C   0  0  0  0  0  0  0  0  0  0  0  0
   36.8570   22.9060   32.2700 C   0  0  0  0  0  3  0  0  0  0  0  0
   39.4330   22.8860   37.4710 C   0  0  0  0  0  0  0  0  0  0  0  0
   40.7920   22.5650   37.2850 C   0  0  0  0  0  0  0  0  0  0  0  0
   41.2730   22.6020   35.9630 C   0  0  0  0  0  0  0  0  0  0  0  0
   40.4150   22.9350   34.9770 N   0  0  0  0  0  0  0  0  0  0  0  0
   39.1280   23.2370   35.1740 C   0  0  0  0  0  0  0  0  0  0  0  0
   38.6570   23.2050   36.4380 N   0  0  0  0  0  0  0  0  0  0  0  0
   41.4000   22.3120   38.1250 H   0  0  0  0  0  0  0  0  0  0  0  0
   42.3240   22.3580   35.7800 H   0  0  0  0  0  0  0  0  0  0  0  0
   38.8330   22.8830   38.7660 N   0  0  0  0  0  0  0  0  0  0  0  0
   38.3060   23.5750   39.3200 H   0  0  0  0  0  0  0  0  0  0  0  0
   39.0220   21.9230   39.1630 H   0  0  0  0  0  0  0  0  0  0  0  0
  1  2  1  0  0  0  0
  2 17  1  0  0  0  0
  3  2  2  0  0  0  0
  3  4  1  0  0  0  0
  5  3  1  0  0  0  0
  6  7  1  0  0  0  0
  6  5  1  0  0  0  0
  8  6  1  0  0  0  0
  9  8  1  0  0  0  0
 10  8  2  0  0  0  0
 10 11  1  0  0  0  0
 11 12  1  0  0  0  0
 11  5  2  0  0  0  0
 12  1  2  0  0  0  0
 13 21  1  0  0  0  0
 14 13  1  0  0  0  0
 14 19  1  0  0  0  0
 15 14  2  0  0  0  0
 16 17  2  0  0  0  0
 16 15  1  0  0  0  0
 17 18  1  0  0  0  0
 18 13  2  0  0  0  0
 20 15  1  0  0  0  0
 21 23  1  0  0  0  0
 21 22  1  0  0  0  0
M  END
>  <minimizedAffinity>
-4.85954332

$$$$

 OpenBabel03262523103D

 23 25  0  0  0  0  0  0  0  0999 V2000
   33.9120   29.5430   34.1080 C   0  0  0  0  0  3  0  0  0  0  0  0
   35.2850   29.5710   34.2630 C   0  0  0  0  0  0  0  0  0  0  0  0
   35.8360   30.4550   35.1720 C   0  0  0  0  0  0  0  0  0  0  0  0
   36.9330   30.4500   35.2680 H   0  0  0  0  0  0  0  0  0  0  0  0
   35.0450   31.3000   35.9160 C   0  0  0  0  0  0  0  0  0  0  0  0
   35.3410   32.2240   36.8390 N   0  0  0  0  0  0  0  0  0  0  0  0
   36.2840   32.4870   37.1830 H   0  0  0  0  0  0  0  0  0  0  0  0
   34.1980   32.7860   37.2780 C   0  0  0  0  0  0  0  0  0  0  0  0
   34.0320   33.5590   38.0110 H   0  0  0  0  0  0  0  0  0  0  0  0
   33.1270   32.2170   36.6260 C   0  0  0  0  0  3  0  0  0  0  0  0
   33.6690   31.2800   35.7690 C   0  0  0  0  0  0  0  0  0  0  0  0
   33.1260   30.3950   34.8620 C   0  0  0  0  0  3  0  0  0  0  0  0
   36.6570   27.8170   31.3640 C   0  0  0  0  0  0  0  0  0  0  0  0
   37.6310   26.9660   31.9240 C   0  0  0  0  0  0  0  0  0  0  0  0
   37.7890   27.0240   33.3220 C   0  0  0  0  0  0  0  0  0  0  0  0
   37.0130   27.8760   34.0210 N   0  0  0  0  0  0  0  0  0  0  0  0
   36.0940   28.6760   33.4710 C   0  0  0  0  0  0  0  0  0  0  0  0
   35.9340   28.6280   32.1320 N   0  0  0  0  0  0  0  0  0  0  0  0
   38.2020   26.3220   31.2940 H   0  0  0  0  0  0  0  0  0  0  0  0
   38.5370   26.3770   33.7920 H   0  0  0  0  0  0  0  0  0  0  0  0
   36.4070   27.8460   29.9600 N   0  0  0  0  0  0  0  0  0  0  0  0
   35.5680   27.7240   29.3730 H   0  0  0  0  0  0  0  0  0  0  0  0
   37.3410   28.0430   29.5100 H   0  0  0  0  0  0  0  0  0  0  0  0
  1  2  2  0  0  0  0
  1 12  1  0  0  0  0
  2  3  1  0  0  0  0
  3  4  1  0  0  0  0
  3  5  2  0  0  0  0
  5  6  1  0  0  0  0
  6  7  1  0  0  0  0
  6  8  1  0  0  0  0
  8  9  1  0  0  0  0
 10  8  2  0  0  0  0
 11  5  1  0  0  0  0
 11 10  1  0  0  0  0
 12 11  2  0  0  0  0
 13 14  2  0  0  0  0
 13 18  1  0  0  0  0
 14 15  1  0  0  0  0
 15 20  1  0  0  0  0
 15 16  2  0  0  0  0
 17 16  1  0  0  0  0
 17  2  1  0  0  0  0
 18 17  2  0  0  0  0
 19 14  1  0  0  0  0
 21 13  1  0  0  0  0
 22 21  1  0  0  0  0
 23 21  1  0  0  0  0
M  END
>  <minimizedAffinity>
-4.85535812

$$$$
