
 OpenBabel03272509303D

 41 44  0  0  1  0  0  0  0  0999 V2000
   36.3380   30.7410   49.0060 C   0  0  2  0  0  0  0  0  0  0  0  0
   37.2910   31.6050   49.7770 C   0  0  0  0  0  0  0  0  0  0  0  0
   38.1630   30.8230   50.7290 C   0  0  0  0  0  0  0  0  0  0  0  0
   37.3220   29.9840   51.6850 C   0  0  0  0  0  0  0  0  0  0  0  0
   36.0640   29.4310   51.0710 C   0  0  0  0  0  0  0  0  0  0  0  0
   36.2750   29.3510   49.5470 C   0  0  1  0  0  0  0  0  0  0  0  0
   35.2780   31.1210   49.0030 H   0  0  0  0  0  0  0  0  0  0  0  0
   36.6140   32.2110   50.4700 H   0  0  0  0  0  0  0  0  0  0  0  0
   37.8520   32.3380   49.2320 H   0  0  0  0  0  0  0  0  0  0  0  0
   38.6750   31.5760   51.3720 H   0  0  0  0  0  0  0  0  0  0  0  0
   38.9410   30.2210   50.2410 H   0  0  0  0  0  0  0  0  0  0  0  0
   37.9570   29.1190   51.9740 H   0  0  0  0  0  0  0  0  0  0  0  0
   37.0680   30.5520   52.5980 H   0  0  0  0  0  0  0  0  0  0  0  0
   35.2180   30.1260   51.2010 H   0  0  0  0  0  0  0  0  0  0  0  0
   35.8390   28.4410   51.4990 H   0  0  0  0  0  0  0  0  0  0  0  0
   37.2300   28.8850   49.5120 H   0  0  0  0  0  0  0  0  0  0  0  0
   36.7130   30.6800   47.5690 C   0  0  0  0  0  0  0  0  0  0  0  0
   38.0580   30.9540   47.2810 C   0  0  0  0  0  0  0  0  0  0  0  0
   38.4390   30.8980   45.9350 C   0  0  0  0  0  0  0  0  0  0  0  0
   37.4900   30.5820   44.9910 N   0  0  0  0  0  0  0  0  0  0  0  0
   36.1870   30.3200   45.3270 C   0  0  0  0  0  0  0  0  0  0  0  0
   35.8200   30.3760   46.6210 N   0  0  0  0  0  0  0  0  0  0  0  0
   38.8940   31.2020   47.9060 H   0  0  0  0  0  0  0  0  0  0  0  0
   39.4320   31.0850   45.5610 H   0  0  0  0  0  0  0  0  0  0  0  0
   35.5190   30.0810   44.5080 H   0  0  0  0  0  0  0  0  0  0  0  0
   33.9900   28.3450   49.0590 C   0  0  0  0  0  0  0  0  0  0  0  0
   33.1820   29.0100   49.8120 O   0  0  0  0  0  0  0  0  0  0  0  0
   35.3840   28.4850   48.8660 N   0  0  0  0  0  0  0  0  0  0  0  0
   35.7680   27.8480   48.1020 H   0  0  0  0  0  0  0  0  0  0  0  0
   31.8390   27.2600   48.4160 C   0  0  0  0  0  3  0  0  0  0  0  0
   33.2130   27.3170   48.3530 C   0  0  0  0  0  0  0  0  0  0  0  0
   33.7540   26.3300   47.5780 C   0  0  0  0  0  0  0  0  0  0  0  0
   34.8060   26.2370   47.4290 H   0  0  0  0  0  0  0  0  0  0  0  0
   33.0380   25.3600   46.9120 C   0  0  0  0  0  0  0  0  0  0  0  0
   33.3420   24.3190   46.1160 N   0  0  0  0  0  0  0  0  0  0  0  0
   34.3150   24.0500   45.8410 H   0  0  0  0  0  0  0  0  0  0  0  0
   32.2450   23.6760   45.7220 C   0  0  0  0  0  0  0  0  0  0  0  0
   32.2330   22.8000   45.0720 H   0  0  0  0  0  0  0  0  0  0  0  0
   31.1580   24.3040   46.2730 C   0  0  0  0  0  3  0  0  0  0  0  0
   31.6720   25.3430   47.0050 C   0  0  0  0  0  0  0  0  0  0  0  0
   31.0600   26.3010   47.7640 C   0  0  0  0  0  3  0  0  0  0  0  0
  1  7  1  1  0  0  0
  1  6  1  0  0  0  0
  1  2  1  0  0  0  0
  2  8  1  0  0  0  0
  2  3  1  0  0  0  0
  3 10  1  0  0  0  0
  3  4  1  0  0  0  0
  4 12  1  0  0  0  0
  4 13  1  0  0  0  0
  5 14  1  0  0  0  0
  5 15  1  0  0  0  0
  5  4  1  0  0  0  0
  6 16  1  6  0  0  0
  6  5  1  0  0  0  0
  9  2  1  0  0  0  0
 11  3  1  0  0  0  0
 17  1  1  0  0  0  0
 18 17  1  0  0  0  0
 18 23  1  0  0  0  0
 19 18  2  0  0  0  0
 20 21  2  0  0  0  0
 20 19  1  0  0  0  0
 21 22  1  0  0  0  0
 22 17  2  0  0  0  0
 24 19  1  0  0  0  0
 25 21  1  0  0  0  0
 26 27  2  0  0  0  0
 28 26  1  0  0  0  0
 28  6  1  0  0  0  0
 29 28  1  0  0  0  0
 31 30  1  0  0  0  0
 31 26  1  0  0  0  0
 32 31  2  0  0  0  0
 33 32  1  0  0  0  0
 34 40  2  0  0  0  0
 34 32  1  0  0  0  0
 35 34  1  0  0  0  0
 36 35  1  0  0  0  0
 37 35  1  0  0  0  0
 37 39  2  0  0  0  0
 38 37  1  0  0  0  0
 39 40  1  0  0  0  0
 40 41  1  0  0  0  0
 41 30  2  0  0  0  0
M  END
>  <minimizedAffinity>
-6.42934513

>  <minimizedRMSD>
0.455708146

$$$$
