
 OpenBabel03272503053D

 35 38  0  0  0  0  0  0  0  0999 V2000
   38.1290   30.1450   47.4920 F   0  0  0  0  0  0  0  0  0  0  0  0
   38.3740   31.3920   47.9860 C   0  0  0  0  0  0  0  0  0  0  0  0
   37.7130   31.8370   49.0970 C   0  0  0  0  0  0  0  0  0  0  0  0
   38.0160   33.0970   49.5270 C   0  0  0  0  0  0  0  0  0  0  0  0
   38.9350   33.9040   48.9000 C   0  0  0  0  0  0  0  0  0  0  0  0
   39.5920   33.4320   47.7790 C   0  0  0  0  0  0  0  0  0  0  0  0
   39.3080   32.1580   47.3150 C   0  0  0  0  0  0  0  0  0  0  0  0
   37.5010   33.4720   50.4090 H   0  0  0  0  0  0  0  0  0  0  0  0
   39.1820   34.8990   49.2290 H   0  0  0  0  0  0  0  0  0  0  0  0
   40.3210   33.9740   47.2180 H   0  0  0  0  0  0  0  0  0  0  0  0
   36.0830   29.3650   51.4430 C   0  0  0  0  0  0  0  0  0  0  0  0
   37.0290   30.2130   50.8640 C   0  0  0  0  0  0  0  0  0  0  0  0
   36.7470   30.9440   49.7250 C   0  0  0  0  0  0  0  0  0  0  0  0
   35.4900   30.7890   49.1900 N   0  0  0  0  0  0  0  0  0  0  0  0
   34.5880   29.9670   49.7580 C   0  0  0  0  0  0  0  0  0  0  0  0
   34.8700   29.2750   50.8480 N   0  0  0  0  0  0  0  0  0  0  0  0
   36.4020   28.8360   52.3360 H   0  0  0  0  0  0  0  0  0  0  0  0
   38.0220   30.3450   51.2720 H   0  0  0  0  0  0  0  0  0  0  0  0
   33.6000   29.8560   49.3260 H   0  0  0  0  0  0  0  0  0  0  0  0
   39.2820   31.9000   44.9280 C   0  0  0  0  0  0  0  0  0  0  0  0
   38.2050   32.5590   45.0510 O   0  0  0  0  0  0  0  0  0  0  0  0
   39.9670   31.6270   46.1530 N   0  0  0  0  0  0  0  0  0  0  0  0
   40.8480   31.0870   46.0970 H   0  0  0  0  0  0  0  0  0  0  0  0
   39.2050   32.1970   42.5530 C   0  0  0  0  0  0  0  0  0  0  0  0
   39.7370   31.4810   43.6060 C   0  0  0  0  0  0  0  0  0  0  0  0
   40.6170   30.4600   43.4570 C   0  0  0  0  0  0  0  0  0  0  0  0
   41.0270   29.9060   44.2810 H   0  0  0  0  0  0  0  0  0  0  0  0
   40.9790   30.1490   42.1420 C   0  0  0  0  0  0  0  0  0  0  0  0
   41.8320   29.1820   41.7310 N   0  0  0  0  0  0  0  0  0  0  0  0
   42.3710   28.5000   42.2900 H   0  0  0  0  0  0  0  0  0  0  0  0
   41.8940   29.2270   40.3700 C   0  0  0  0  0  0  0  0  0  0  0  0
   42.4750   28.6030   39.6960 H   0  0  0  0  0  0  0  0  0  0  0  0
   41.0710   30.2300   39.9520 C   0  0  0  0  0  0  0  0  0  0  0  0
   40.4710   30.8390   41.0550 C   0  0  0  0  0  0  0  0  0  0  0  0
   39.5720   31.8790   41.2460 C   0  0  0  0  0  0  0  0  0  0  0  0
  1  2  1  0  0  0  0
  2  3  1  0  0  0  0
  3  4  2  0  0  0  0
  3 13  1  0  0  0  0
  4  8  1  0  0  0  0
  5  9  1  0  0  0  0
  5  4  1  0  0  0  0
  6  5  2  0  0  0  0
  7  6  1  0  0  0  0
  7  2  2  0  0  0  0
 10  6  1  0  0  0  0
 11 17  1  0  0  0  0
 12 18  1  0  0  0  0
 12 11  1  0  0  0  0
 13 12  2  0  0  0  0
 14 13  1  0  0  0  0
 14 15  2  0  0  0  0
 15 16  1  0  0  0  0
 16 11  2  0  0  0  0
 19 15  1  0  0  0  0
 20 21  2  0  0  0  0
 20 22  1  0  0  0  0
 22  7  1  0  0  0  0
 23 22  1  0  0  0  0
 24 25  1  0  0  0  0
 25 20  1  0  0  0  0
 26 25  2  0  0  0  0
 26 27  1  0  0  0  0
 28 26  1  0  0  0  0
 29 28  1  0  0  0  0
 29 30  1  0  0  0  0
 31 29  1  0  0  0  0
 32 31  1  0  0  0  0
 33 31  2  0  0  0  0
 33 34  1  0  0  0  0
 34 35  1  0  0  0  0
 34 28  2  0  0  0  0
 35 24  2  0  0  0  0
M  END
>  <minimizedAffinity>
-7.37349319

>  <minimizedRMSD>
0.974403203

$$$$
