
 OpenBabel03272510133D

 44 48  0  0  0  0  0  0  0  0999 V2000
   38.3620   31.6320   48.9620 C   0  0  0  0  0  0  0  0  0  0  0  0
   38.5390   32.8900   49.4960 C   0  0  0  0  0  0  0  0  0  0  0  0
   39.1930   33.6600   48.5390 C   0  0  0  0  0  0  0  0  0  0  0  0
   39.3940   32.8810   47.4810 N   0  0  0  0  0  0  0  0  0  0  0  0
   38.9060   31.7200   47.7480 N   0  0  0  0  0  0  0  0  0  0  0  0
   38.2980   33.3800   50.4310 H   0  0  0  0  0  0  0  0  0  0  0  0
   39.5170   34.6960   48.5600 H   0  0  0  0  0  0  0  0  0  0  0  0
   40.0520   33.2260   46.2510 C   0  0  0  0  0  0  0  0  0  0  0  0
   41.0260   33.7190   46.5500 H   0  0  0  0  0  0  0  0  0  0  0  0
   39.5200   34.0050   45.6810 H   0  0  0  0  0  0  0  0  0  0  0  0
   40.3590   32.0010   45.4670 C   0  0  0  0  0  0  0  0  0  0  0  0
   40.3910   31.0830   46.1420 H   0  0  0  0  0  0  0  0  0  0  0  0
   41.3860   32.0490   45.0230 H   0  0  0  0  0  0  0  0  0  0  0  0
   39.3620   30.6940   43.4420 C   0  0  0  0  0  3  0  0  0  0  0  0
   39.4190   31.6690   44.4050 C   0  0  0  0  0  0  0  0  0  0  0  0
   38.3140   32.5340   44.4130 C   0  0  0  0  0  0  0  0  0  0  0  0
   38.1680   33.3800   45.1050 H   0  0  0  0  0  0  0  0  0  0  0  0
   37.2490   32.4270   43.5310 C   0  0  0  0  0  0  0  0  0  0  0  0
   36.1070   33.0780   43.3100 N   0  0  0  0  0  0  0  0  0  0  0  0
   35.7830   33.9190   43.8670 H   0  0  0  0  0  0  0  0  0  0  0  0
   35.4220   32.5410   42.3010 C   0  0  0  0  0  0  0  0  0  0  0  0
   34.4590   32.9050   41.9400 H   0  0  0  0  0  0  0  0  0  0  0  0
   36.1300   31.4650   41.8030 C   0  0  0  0  0  3  0  0  0  0  0  0
   37.2620   31.4190   42.5890 C   0  0  0  0  0  0  0  0  0  0  0  0
   38.3240   30.5550   42.5500 C   0  0  0  0  0  3  0  0  0  0  0  0
   37.7240   30.7360   49.7920 O   0  0  0  0  0  0  0  0  0  0  0  0
   34.1610   28.9360   48.4610 C   0  0  0  0  0  0  0  0  0  0  0  0
   34.9080   28.3750   49.4550 C   0  0  0  0  0  0  0  0  0  0  0  0
   36.0800   28.9010   49.9440 C   0  0  0  0  0  0  0  0  0  0  0  0
   36.5730   30.0660   49.4290 C   0  0  0  0  0  0  0  0  0  0  0  0
   35.8190   30.6550   48.4090 C   0  0  0  0  0  0  0  0  0  0  0  0
   34.6690   30.1040   47.9570 N   0  0  0  0  0  0  0  0  0  0  0  0
   34.5740   27.4510   49.9070 H   0  0  0  0  0  0  0  0  0  0  0  0
   36.6650   28.4500   50.7310 H   0  0  0  0  0  0  0  0  0  0  0  0
   36.0910   31.5730   47.9160 H   0  0  0  0  0  0  0  0  0  0  0  0
   32.0680   27.6100   48.7020 C   0  0  0  0  0  0  0  0  0  0  0  0
   32.9440   28.3980   47.9400 C   0  0  0  0  0  0  0  0  0  0  0  0
   32.5860   28.6410   46.6350 C   0  0  0  0  0  0  0  0  0  0  0  0
   31.4230   28.1220   46.1380 N   0  0  0  0  0  0  0  0  0  0  0  0
   30.6100   27.3630   46.9230 C   0  0  0  0  0  0  0  0  0  0  0  0
   30.9210   27.0950   48.2230 N   0  0  0  0  0  0  0  0  0  0  0  0
   32.3060   27.3930   49.7350 H   0  0  0  0  0  0  0  0  0  0  0  0
   33.1710   29.2310   45.9420 H   0  0  0  0  0  0  0  0  0  0  0  0
   29.6820   26.9460   46.5330 H   0  0  0  0  0  0  0  0  0  0  0  0
  1  2  1  0  0  0  0
  1 26  1  0  0  0  0
  2  6  1  0  0  0  0
  3  7  1  0  0  0  0
  3  2  2  0  0  0  0
  4  5  1  0  0  0  0
  4  3  1  0  0  0  0
  5  1  2  0  0  0  0
  8  9  1  0  0  0  0
  8  4  1  0  0  0  0
 10  8  1  0  0  0  0
 11 12  1  0  0  0  0
 11  8  1  0  0  0  0
 13 11  1  0  0  0  0
 14 15  1  0  0  0  0
 15 16  2  0  0  0  0
 15 11  1  0  0  0  0
 16 17  1  0  0  0  0
 18 16  1  0  0  0  0
 19 18  1  0  0  0  0
 19 20  1  0  0  0  0
 21 19  1  0  0  0  0
 22 21  1  0  0  0  0
 23 21  2  0  0  0  0
 23 24  1  0  0  0  0
 24 18  2  0  0  0  0
 25 24  1  0  0  0  0
 25 14  2  0  0  0  0
 27 28  1  0  0  0  0
 28 33  1  0  0  0  0
 28 29  2  0  0  0  0
 29 34  1  0  0  0  0
 30 26  1  0  0  0  0
 30 29  1  0  0  0  0
 31 30  2  0  0  0  0
 32 31  1  0  0  0  0
 32 27  2  0  0  0  0
 35 31  1  0  0  0  0
 36 42  1  0  0  0  0
 37 27  1  0  0  0  0
 37 36  2  0  0  0  0
 38 37  1  0  0  0  0
 39 38  2  0  0  0  0
 39 40  1  0  0  0  0
 40 41  2  0  0  0  0
 41 36  1  0  0  0  0
 43 38  1  0  0  0  0
 44 40  1  0  0  0  0
M  END
>  <minimizedAffinity>
-6.73903179

>  <minimizedRMSD>
1.71731222

$$$$
