
 OpenBabel03272504093D

 36 39  0  0  0  0  0  0  0  0999 V2000
   37.9940   30.6040   50.1660 C   0  0  0  0  0  0  0  0  0  0  0  0
   37.4640   30.7500   48.9050 C   0  0  0  0  0  0  0  0  0  0  0  0
   36.1430   30.3240   48.6400 C   0  0  0  0  0  0  0  0  0  0  0  0
   35.4430   29.7790   49.6620 N   0  0  0  0  0  0  0  0  0  0  0  0
   36.0060   29.6490   50.9140 C   0  0  0  0  0  0  0  0  0  0  0  0
   37.2810   30.0640   51.1550 N   0  0  0  0  0  0  0  0  0  0  0  0
   35.1980   29.0610   51.9400 N   0  0  0  0  0  0  0  0  0  0  0  0
   38.9910   30.9090   50.4300 H   0  0  0  0  0  0  0  0  0  0  0  0
   34.7740   28.0970   51.8140 H   0  0  0  0  0  0  0  0  0  0  0  0
   35.0250   29.5770   52.8130 H   0  0  0  0  0  0  0  0  0  0  0  0
   38.4660   33.6120   49.1570 Cl  0  0  0  0  0  0  0  0  0  0  0  0
   38.8450   32.6140   47.7740 C   0  0  0  0  0  0  0  0  0  0  0  0
   38.3130   31.3630   47.8480 C   0  0  0  0  0  0  0  0  0  0  0  0
   38.5700   30.4790   46.7860 C   0  0  0  0  0  0  0  0  0  0  0  0
   39.3120   30.8250   45.7150 C   0  0  0  0  0  0  0  0  0  0  0  0
   39.8400   32.1160   45.6720 C   0  0  0  0  0  0  0  0  0  0  0  0
   40.8080   32.6100   44.3190 Cl  0  0  0  0  0  0  0  0  0  0  0  0
   39.5990   32.9890   46.7010 C   0  0  0  0  0  0  0  0  0  0  0  0
   38.2060   29.4600   46.7540 H   0  0  0  0  0  0  0  0  0  0  0  0
   39.5340   30.1810   44.8770 H   0  0  0  0  0  0  0  0  0  0  0  0
   39.9920   33.9960   46.7030 H   0  0  0  0  0  0  0  0  0  0  0  0
   35.5920   30.4720   47.2990 C   0  0  0  0  0  0  0  0  0  0  0  0
   35.3870   31.5480   47.0920 H   0  0  0  0  0  0  0  0  0  0  0  0
   36.2840   30.0680   46.5360 H   0  0  0  0  0  0  0  0  0  0  0  0
   33.3070   30.3910   46.4240 C   0  0  0  0  0  0  0  0  0  0  0  0
   34.3170   29.7310   47.0940 C   0  0  0  0  0  0  0  0  0  0  0  0
   34.0690   28.4230   47.5370 C   0  0  0  0  0  0  0  0  0  0  0  0
   34.8780   27.9270   48.0630 H   0  0  0  0  0  0  0  0  0  0  0  0
   32.8460   27.8380   47.2990 C   0  0  0  0  0  0  0  0  0  0  0  0
   32.3490   26.6270   47.6090 N   0  0  0  0  0  0  0  0  0  0  0  0
   32.8530   25.8460   48.1330 H   0  0  0  0  0  0  0  0  0  0  0  0
   31.0660   26.4940   47.1630 C   0  0  0  0  0  0  0  0  0  0  0  0
   30.4660   25.6030   47.2990 H   0  0  0  0  0  0  0  0  0  0  0  0
   30.7820   27.7210   46.5410 C   0  0  0  0  0  0  0  0  0  0  0  0
   31.8690   28.5660   46.6130 C   0  0  0  0  0  0  0  0  0  0  0  0
   32.0650   29.8520   46.1600 C   0  0  0  0  0  0  0  0  0  0  0  0
  1  8  1  0  0  0  0
  1  6  1  0  0  0  0
  2  1  2  0  0  0  0
  3  2  1  0  0  0  0
  3  4  2  0  0  0  0
  4  5  1  0  0  0  0
  5  6  2  0  0  0  0
  5  7  1  0  0  0  0
  7 10  1  0  0  0  0
  9  7  1  0  0  0  0
 12 13  1  0  0  0  0
 12 11  1  0  0  0  0
 13  2  1  0  0  0  0
 14 13  2  0  0  0  0
 15 14  1  0  0  0  0
 16 15  2  0  0  0  0
 16 18  1  0  0  0  0
 17 16  1  0  0  0  0
 18 21  1  0  0  0  0
 18 12  2  0  0  0  0
 19 14  1  0  0  0  0
 20 15  1  0  0  0  0
 22  3  1  0  0  0  0
 23 22  1  0  0  0  0
 24 22  1  0  0  0  0
 25 26  1  0  0  0  0
 26 22  1  0  0  0  0
 26 27  2  0  0  0  0
 27 28  1  0  0  0  0
 29 27  1  0  0  0  0
 29 30  1  0  0  0  0
 30 31  1  0  0  0  0
 32 33  1  0  0  0  0
 32 30  1  0  0  0  0
 34 35  1  0  0  0  0
 34 32  2  0  0  0  0
 35 29  2  0  0  0  0
 36 25  2  0  0  0  0
 36 35  1  0  0  0  0
M  END
>  <minimizedAffinity>
-6.5670476

>  <minimizedRMSD>
1.18898666

$$$$
