REMARK  Name = 
REMARK  4 active torsions:
REMARK  status: ('A' for Active; 'I' for Inactive)
REMARK    1  A    between atoms: C_3  and  C_7
REMARK    2  A    between atoms: C_5  and  C_17
REMARK    3  A    between atoms: C_19  and  C_35
REMARK    4  A    between atoms: C_22  and  C_23
REMARK                            x       y       z     vdW  Elec       q    Type
REMARK                         _______ _______ _______ _____ _____    ______ ____
ROOT
ATOM      1 CL   UNL     1      34.544  27.653  49.394  0.00  0.00    +0.000 Cl
ATOM      2  C   UNL     1      33.778  28.584  48.136  0.00  0.00    +0.000 A 
ATOM      3  C   UNL     1      34.269  29.828  47.824  0.00  0.00    +0.000 A 
ATOM      4  C   UNL     1      33.687  30.586  46.837  0.00  0.00    +0.000 A 
ATOM      5  C   UNL     1      32.587  30.118  46.128  0.00  0.00    +0.000 A 
ATOM      6  C   UNL     1      32.087  28.876  46.430  0.00  0.00    +0.000 A 
ATOM      7 CL   UNL     1      30.708  28.192  45.600  0.00  0.00    +0.000 Cl
ATOM      8  C   UNL     1      32.696  28.140  47.428  0.00  0.00    +0.000 A 
ATOM      9  H   UNL     1      34.109  31.556  46.629  0.00  0.00    +0.000 HD
ENDROOT
BRANCH   5  11
ATOM     10  C   UNL     1      30.943  31.826  45.273  0.00  0.00    +0.000 A 
ATOM     11  C   UNL     1      31.969  30.924  45.079  0.00  0.00    +0.000 A 
ATOM     12  C   UNL     1      32.427  30.796  43.778  0.00  0.00    +0.000 A 
ATOM     13  H   UNL     1      33.231  30.095  43.596  0.00  0.00    +0.000 HD
ATOM     14  C   UNL     1      31.914  31.508  42.710  0.00  0.00    +0.000 A 
ATOM     15  N   UNL     1      32.168  31.570  41.397  0.00  0.00    +0.000 N 
ATOM     16  H   UNL     1      32.879  31.032  40.880  0.00  0.00    +0.000 HD
ATOM     17  C   UNL     1      31.347  32.459  40.812  0.00  0.00    +0.000 A 
ATOM     18  H   UNL     1      31.292  32.748  39.756  0.00  0.00    +0.000 HD
ATOM     19  C   UNL     1      30.520  33.006  41.771  0.00  0.00    +0.000 A 
ATOM     20  C   UNL     1      30.887  32.401  42.950  0.00  0.00    +0.000 A 
ATOM     21  C   UNL     1      30.400  32.560  44.238  0.00  0.00    +0.000 A 
ENDBRANCH   5  11
BRANCH   3  26
ATOM     22  C   UNL     1      36.627  30.645  50.512  0.00  0.00    +0.000 A 
ATOM     23  C   UNL     1      37.632  31.344  49.855  0.00  0.00    +0.000 A 
ATOM     24  C   UNL     1      37.482  31.527  48.476  0.00  0.00    +0.000 A 
ATOM     25  N   UNL     1      36.377  31.017  47.868  0.00  0.00    +0.000 NA
ATOM     26  C   UNL     1      35.427  30.343  48.557  0.00  0.00    +0.000 A 
ATOM     27  N   UNL     1      35.571  30.172  49.858  0.00  0.00    +0.000 NA
ATOM     28  H   UNL     1      36.768  30.518  51.577  0.00  0.00    +0.000 HD
ATOM     29  H   UNL     1      38.512  31.748  50.346  0.00  0.00    +0.000 HD
BRANCH  24  30
ATOM     30  C   UNL     1      38.468  32.244  47.668  0.00  0.00    +0.000 A 
ATOM     31  C   UNL     1      39.178  33.332  48.118  0.00  0.00    +0.000 A 
ATOM     32  N   UNL     1      40.018  33.789  47.151  0.00  0.00    +0.000 N 
ATOM     33  C   UNL     1      39.831  32.987  46.099  0.00  0.00    +0.000 A 
ATOM     34  N   UNL     1      38.902  32.071  46.427  0.00  0.00    +0.000 NA
ATOM     35  C   UNL     1      40.535  31.717  44.143  0.00  0.00    +0.000 C 
ATOM     36  O   UNL     1      40.123  30.685  44.699  0.00  0.00    +0.000 OA
ATOM     37  N   UNL     1      40.421  32.969  44.806  0.00  0.00    +0.000 N 
ATOM     38  H   UNL     1      39.157  33.837  49.077  0.00  0.00    +0.000 HD
ATOM     39  H   UNL     1      40.688  34.568  47.130  0.00  0.00    +0.000 HD
ATOM     40  H   UNL     1      40.991  31.653  43.127  0.00  0.00    +0.000 HD
ATOM     41  H   UNL     1      40.755  33.859  44.374  0.00  0.00    +0.000 HD
ENDBRANCH  24  30
ENDBRANCH   3  26
BRANCH   8  42
ATOM     42  C   UNL     1      32.156  26.796  47.757  0.00  0.00    +0.000 C 
ATOM     43  F   UNL     1      33.194  25.864  47.857  0.00  0.00    +0.000 F 
ATOM     44  F   UNL     1      31.373  26.315  46.696  0.00  0.00    +0.000 F 
ATOM     45  F   UNL     1      31.352  26.805  48.871  0.00  0.00    +0.000 F 
ENDBRANCH   8  42
TORSDOF 4
