
     RDKit          3D

 26 28  0  0  0  0  0  0  0  0999 V2000
   36.6398   29.7661   51.2676 C   0  0  0  0  0  0  0  0  0  0  0  0
   37.3728   30.1123   50.1195 C   0  0  0  0  0  0  0  0  0  0  0  0
   36.8007   29.7925   48.8798 C   0  0  0  0  0  0  0  0  0  0  0  0
   35.5978   29.1797   48.8485 N   0  0  0  0  0  0  0  0  0  0  0  0
   34.9207   28.8613   49.9732 C   0  0  0  0  0  0  0  0  0  0  0  0
   35.4288   29.1481   51.1919 N   0  0  0  0  0  0  0  0  0  0  0  0
   38.6274   30.7541   50.2645 N   0  0  0  0  0  0  0  0  0  0  0  0
   37.0949   30.0198   52.2220 H   0  0  0  0  0  0  0  0  0  0  0  0
   37.3489   30.0507   47.9884 H   0  0  0  0  0  0  0  0  0  0  0  0
   38.7203   31.4332   51.0731 H   0  0  0  0  0  0  0  0  0  0  0  0
   39.4445   30.5968   49.6324 H   0  0  0  0  0  0  0  0  0  0  0  0
   33.1170   27.6097   51.0771 C   0  0  0  0  0  0  0  0  0  0  0  0
   33.6074   28.1915   49.9062 C   0  0  0  0  0  0  0  0  0  0  0  0
   32.8962   28.1474   48.7210 C   0  0  0  0  0  0  0  0  0  0  0  0
   33.3002   28.6078   47.8249 H   0  0  0  0  0  0  0  0  0  0  0  0
   31.6682   27.5200   48.6626 C   0  0  0  0  0  0  0  0  0  0  0  0
   30.7955   27.3454   47.6428 N   0  0  0  0  0  0  0  0  0  0  0  0
   30.9279   27.6875   46.6595 H   0  0  0  0  0  0  0  0  0  0  0  0
   29.7307   26.6593   48.1047 C   0  0  0  0  0  0  0  0  0  0  0  0
   28.8599   26.3683   47.5079 H   0  0  0  0  0  0  0  0  0  0  0  0
   29.9296   26.3874   49.4609 C   0  0  0  0  0  0  0  0  0  0  0  0
   31.1449   26.9345   49.7849 C   0  0  0  0  0  0  0  0  0  0  0  0
   31.8765   26.9948   50.9503 C   0  0  0  0  0  0  0  0  0  0  0  0
   33.6342   27.6174   52.0276 H   0  0  0  0  0  0  0  0  0  0  0  0
   29.2564   25.8515   50.1206 H   0  0  0  0  0  0  0  0  0  0  0  0
   31.4116   26.5111   51.8154 H   0  0  0  0  0  0  0  0  0  0  0  0
  2  7  1  0
  2  1  2  0
  3  2  1  0
  4  3  2  0
  4  5  1  0
  5  6  2  0
  6  1  1  0
  1  8  1  0
  3  9  1  0
  7 10  1  0
  7 11  1  0
 12 13  2  0
 13 14  1  0
 14 15  1  0
 14 16  2  0
 16 17  1  0
 17 18  1  0
 17 19  1  0
 19 20  1  0
 19 21  2  0
 21 22  1  0
 22 23  2  0
 23 12  1  0
 22 16  1  0
 12 24  1  0
 21 25  1  0
 23 26  1  0
  5 13  1  0
M  ISO  5   8  14   9  14  15  15  18   5  20  14
M  END
>  <DihAtoms>  (1) 
3,4,12,11

>  <DihDeg>  (1) 
-0.00176301618458192

$$$$
