REMARK  Name = 
REMARK  6 active torsions:
REMARK  status: ('A' for Active; 'I' for Inactive)
REMARK    1  A    between atoms: C_1  and  C_8
REMARK    2  A    between atoms: C_4  and  O_13
REMARK    3  A    between atoms: O_13  and  C_14
REMARK    4  A    between atoms: N_17  and  C_19
REMARK    5  A    between atoms: C_19  and  C_20
REMARK    6  A    between atoms: C_20  and  C_34
REMARK                            x       y       z     vdW  Elec       q    Type
REMARK                         _______ _______ _______ _____ _____    ______ ____
ROOT
ATOM      1  C   UNL     1      38.355  31.270  48.642  0.00  0.00    +0.000 A 
ATOM      2  C   UNL     1      38.448  32.514  49.227  0.00  0.00    +0.000 A 
ATOM      3  C   UNL     1      39.060  33.361  48.307  0.00  0.00    +0.000 A 
ATOM      4  N   UNL     1      39.317  32.639  47.221  0.00  0.00    +0.000 N 
ATOM      5  N   UNL     1      38.902  31.440  47.438  0.00  0.00    +0.000 NA
ATOM      6  H   UNL     1      38.170  32.951  50.178  0.00  0.00    +0.000 HD
ATOM      7  H   UNL     1      39.317  34.414  48.372  0.00  0.00    +0.000 HD
ENDROOT
BRANCH   4   8
ATOM      8  C   UNL     1      39.962  33.073  46.013  0.00  0.00    +0.000 C 
ATOM      9  H   UNL     1      40.726  33.844  46.330  0.00  0.00    +0.000 HD
ATOM     10  H   UNL     1      39.287  33.624  45.338  0.00  0.00    +0.000 HD
BRANCH   8  11
ATOM     11  C   UNL     1      40.671  31.937  45.368  0.00  0.00    +0.000 C 
ATOM     12  H   UNL     1      41.468  31.508  46.061  0.00  0.00    +0.000 HD
ATOM     13  H   UNL     1      41.246  32.274  44.468  0.00  0.00    +0.000 HD
BRANCH  11  15
ATOM     14  C   UNL     1      38.653  30.285  45.421  0.00  0.00    +0.000 A 
ATOM     15  C   UNL     1      39.843  30.802  44.980  0.00  0.00    +0.000 A 
ATOM     16  C   UNL     1      40.393  30.122  43.882  0.00  0.00    +0.000 A 
ATOM     17  H   UNL     1      41.341  30.378  43.380  0.00  0.00    +0.000 HD
ATOM     18  C   UNL     1      39.796  29.023  43.283  0.00  0.00    +0.000 A 
ATOM     19  N   UNL     1      40.074  28.207  42.267  0.00  0.00    +0.000 N 
ATOM     20  H   UNL     1      40.938  28.284  41.658  0.00  0.00    +0.000 HD
ATOM     21  C   UNL     1      39.131  27.279  42.110  0.00  0.00    +0.000 A 
ATOM     22  H   UNL     1      39.143  26.503  41.343  0.00  0.00    +0.000 HD
ATOM     23  C   UNL     1      38.154  27.467  43.068  0.00  0.00    +0.000 A 
ATOM     24  C   UNL     1      38.597  28.560  43.783  0.00  0.00    +0.000 A 
ATOM     25  C   UNL     1      38.030  29.198  44.854  0.00  0.00    +0.000 A 
ENDBRANCH  11  15
ENDBRANCH   8  11
ENDBRANCH   4   8
BRANCH   1  26
ATOM     26  O   UNL     1      37.769  30.303  49.430  0.00  0.00    +0.000 OA
BRANCH  26  30
ATOM     27  C   UNL     1      34.002  28.813  48.294  0.00  0.00    +0.000 A 
ATOM     28  C   UNL     1      34.642  28.344  49.403  0.00  0.00    +0.000 A 
ATOM     29  C   UNL     1      35.871  28.779  49.839  0.00  0.00    +0.000 A 
ATOM     30  C   UNL     1      36.538  29.748  49.145  0.00  0.00    +0.000 A 
ATOM     31  C   UNL     1      35.895  30.240  48.005  0.00  0.00    +0.000 A 
ATOM     32  N   UNL     1      34.684  29.784  47.611  0.00  0.00    +0.000 NA
ATOM     33  H   UNL     1      34.169  27.575  49.999  0.00  0.00    +0.000 HD
ATOM     34  H   UNL     1      36.371  28.402  50.719  0.00  0.00    +0.000 HD
ATOM     35  H   UNL     1      36.307  31.004  47.367  0.00  0.00    +0.000 HD
BRANCH  27  37
ATOM     36  C   UNL     1      31.902  27.503  48.564  0.00  0.00    +0.000 A 
ATOM     37  C   UNL     1      32.727  28.366  47.827  0.00  0.00    +0.000 A 
ATOM     38  C   UNL     1      32.259  28.779  46.602  0.00  0.00    +0.000 A 
ATOM     39  N   UNL     1      31.041  28.347  46.156  0.00  0.00    +0.000 NA
ATOM     40  C   UNL     1      30.281  27.509  46.913  0.00  0.00    +0.000 A 
ATOM     41  N   UNL     1      30.702  27.073  48.134  0.00  0.00    +0.000 NA
ATOM     42  H   UNL     1      32.227  27.152  49.534  0.00  0.00    +0.000 HD
ATOM     43  H   UNL     1      32.795  29.442  45.936  0.00  0.00    +0.000 HD
ATOM     44  H   UNL     1      29.310  27.161  46.563  0.00  0.00    +0.000 HD
ENDBRANCH  27  37
ENDBRANCH  26  30
ENDBRANCH   1  26
TORSDOF 6
