
     RDKit          3D

 48 52  0  0  0  0  0  0  0  0999 V2000
   36.6272   30.6450   50.5123 C   0  0  0  0  0  0  0  0  0  0  0  0
   37.6323   31.3440   49.8546 C   0  0  0  0  0  0  0  0  0  0  0  0
   37.4822   31.5267   48.4757 C   0  0  0  0  0  0  0  0  0  0  0  0
   36.3767   31.0166   47.8681 N   0  0  0  0  0  0  0  0  0  0  0  0
   35.4270   30.3431   48.5573 C   0  0  0  0  0  0  0  0  0  0  0  0
   35.5709   30.1719   49.8585 N   0  0  0  0  0  0  0  0  0  0  0  0
   38.4679   32.2438   47.6677 C   0  0  0  0  0  0  0  0  0  0  0  0
   39.1785   33.3318   48.1183 C   0  0  0  0  0  0  0  0  0  0  0  0
   40.0183   33.7886   47.1508 N   0  0  0  0  0  0  0  0  0  0  0  0
   39.8313   32.9868   46.0995 C   0  0  0  0  0  0  0  0  0  0  0  0
   38.9022   32.0709   46.4270 N   0  0  0  0  0  0  0  0  0  0  0  0
   40.5348   31.7170   44.1433 C   0  0  0  0  0  0  0  0  0  0  0  0
   40.1233   30.6849   44.6986 O   0  0  0  0  0  0  0  0  0  0  0  0
   40.4212   32.9687   44.8065 N   0  0  0  0  0  0  0  0  0  0  0  0
   34.5438   27.6533   49.3937 Cl  0  0  0  0  0  0  0  0  0  0  0  0
   33.7776   28.5839   48.1358 C   0  0  0  0  0  0  0  0  0  0  0  0
   34.2693   29.8277   47.8243 C   0  0  0  0  0  0  0  0  0  0  0  0
   33.6866   30.5861   46.8368 C   0  0  0  0  0  0  0  0  0  0  0  0
   32.5871   30.1181   46.1277 C   0  0  0  0  0  0  0  0  0  0  0  0
   32.0867   28.8762   46.4301 C   0  0  0  0  0  0  0  0  0  0  0  0
   30.7078   28.1916   45.6001 Cl  0  0  0  0  0  0  0  0  0  0  0  0
   32.6958   28.1404   47.4277 C   0  0  0  0  0  0  0  0  0  0  0  0
   32.1559   26.7957   47.7568 C   0  0  0  0  0  0  0  0  0  0  0  0
   33.1940   25.8641   47.8572 F   0  0  0  0  0  0  0  0  0  0  0  0
   31.3734   26.3153   46.6963 F   0  0  0  0  0  0  0  0  0  0  0  0
   31.3521   26.8046   48.8706 F   0  0  0  0  0  0  0  0  0  0  0  0
   36.7677   30.5179   51.5769 H   0  0  0  0  0  0  0  0  0  0  0  0
   38.5123   31.7484   50.3462 H   0  0  0  0  0  0  0  0  0  0  0  0
   39.1575   33.8370   49.0773 H   0  0  0  0  0  0  0  0  0  0  0  0
   40.6878   34.5678   47.1305 H   0  0  0  0  0  0  0  0  0  0  0  0
   40.9908   31.6530   43.1273 H   0  0  0  0  0  0  0  0  0  0  0  0
   40.7550   33.8587   44.3737 H   0  0  0  0  0  0  0  0  0  0  0  0
   34.1089   31.5564   46.6289 H   0  0  0  0  0  0  0  0  0  0  0  0
   30.9430   31.8263   45.2727 C   0  0  0  0  0  0  0  0  0  0  0  0
   31.9690   30.9242   45.0793 C   0  0  0  0  0  0  0  0  0  0  0  0
   32.4266   30.7957   43.7778 C   0  0  0  0  0  0  0  0  0  0  0  0
   33.2311   30.0951   43.5963 H   0  0  0  0  0  0  0  0  0  0  0  0
   31.9144   31.5084   42.7104 C   0  0  0  0  0  0  0  0  0  0  0  0
   32.1684   31.5702   41.3968 N   0  0  0  0  0  0  0  0  0  0  0  0
   32.8787   31.0321   40.8802 H   0  0  0  0  0  0  0  0  0  0  0  0
   31.3473   32.4589   40.8123 C   0  0  0  0  0  0  0  0  0  0  0  0
   31.2919   32.7480   39.7562 H   0  0  0  0  0  0  0  0  0  0  0  0
   30.5195   33.0058   41.7712 C   0  0  0  0  0  0  0  0  0  0  0  0
   30.8872   32.4012   42.9500 C   0  0  0  0  0  0  0  0  0  0  0  0
   30.4000   32.5599   44.2382 C   0  0  0  0  0  0  0  0  0  0  0  0
   30.5671   31.9475   46.2721 H   0  0  0  0  0  0  0  0  0  0  0  0
   29.7368   33.7633   41.6109 H   0  0  0  0  0  0  0  0  0  0  0  0
   29.5914   33.2566   44.4540 H   0  0  0  0  0  0  0  0  0  0  0  0
  2  1  2  0
  3  2  1  0
  4  3  2  0
  4  5  1  0
  5  6  2  0
  6  1  1  0
  7  8  2  0
  7  3  1  0
  9  8  1  0
 10 11  2  0
 10  9  1  0
 11  7  1  0
 12 13  2  0
 12 14  1  0
 14 10  1  0
 16 15  1  0
 17 16  2  0
 17  5  1  0
 18 17  1  0
 19 20  1  0
 19 18  2  0
 20 22  2  0
 21 20  1  0
 22 23  1  0
 22 16  1  0
 23 24  1  0
 23 26  1  0
 25 23  1  0
  1 27  1  0
  2 28  1  0
  8 29  1  0
  9 30  1  0
 12 31  1  0
 14 32  1  0
 18 33  1  0
 34 35  2  0
 35 36  1  0
 36 37  1  0
 36 38  2  0
 38 39  1  0
 39 40  1  0
 39 41  1  0
 41 42  1  0
 41 43  2  0
 43 44  1  0
 44 45  2  0
 45 34  1  0
 44 38  1  0
 34 46  1  0
 43 47  1  0
 45 48  1  0
 19 35  1  0
M  ISO  8  27  14  28  14  29  14  30   9  31   6  33  14  37  15  40   5
M  ISO  1  42  14
M  END
>  <DihAtoms>  (1) 
19,18,34,33

>  <DihDeg>  (1) 
-45.003415297111914

$$$$
