
 OpenBabel03272506563D

 23 25  0  0  0  0  0  0  0  0999 V2000
   38.0750   26.9320   35.8640 C   0  0  0  0  0  3  0  0  0  0  0  0
   38.1720   25.6980   35.2150 C   0  0  0  0  0  0  0  0  0  0  0  0
   37.6470   25.4990   33.9510 C   0  0  0  0  0  0  0  0  0  0  0  0
   37.7370   24.5310   33.4700 H   0  0  0  0  0  0  0  0  0  0  0  0
   37.0030   26.5250   33.2900 C   0  0  0  0  0  0  0  0  0  0  0  0
   36.4160   26.5810   32.0720 N   0  0  0  0  0  0  0  0  0  0  0  0
   36.3520   25.7880   31.3870 H   0  0  0  0  0  0  0  0  0  0  0  0
   35.9250   27.8230   31.8900 C   0  0  0  0  0  0  0  0  0  0  0  0
   35.3940   28.1690   30.9970 H   0  0  0  0  0  0  0  0  0  0  0  0
   36.2090   28.5850   33.0270 C   0  0  0  0  0  3  0  0  0  0  0  0
   36.8810   27.7540   33.8840 C   0  0  0  0  0  0  0  0  0  0  0  0
   37.4160   27.9220   35.1440 C   0  0  0  0  0  3  0  0  0  0  0  0
   40.6050   23.0530   35.9980 C   0  0  0  0  0  0  0  0  0  0  0  0
   40.1640   22.5600   37.2380 C   0  0  0  0  0  0  0  0  0  0  0  0
   39.0200   23.1550   37.7890 C   0  0  0  0  0  0  0  0  0  0  0  0
   38.4100   24.1540   37.1160 N   0  0  0  0  0  0  0  0  0  0  0  0
   38.8620   24.6050   35.9260 C   0  0  0  0  0  0  0  0  0  0  0  0
   39.9600   24.0630   35.3530 N   0  0  0  0  0  0  0  0  0  0  0  0
   41.4920   22.5820   35.5830 H   0  0  0  0  0  0  0  0  0  0  0  0
   38.6670   22.7890   38.7400 H   0  0  0  0  0  0  0  0  0  0  0  0
   40.8780   21.5060   37.8600 N   0  0  0  0  0  0  0  0  0  0  0  0
   41.3020   20.7780   37.2160 H   0  0  0  0  0  0  0  0  0  0  0  0
   41.0060   21.4120   38.8930 H   0  0  0  0  0  0  0  0  0  0  0  0
  2  1  1  0  0  0  0
  2 17  1  0  0  0  0
  3  2  2  0  0  0  0
  4  3  1  0  0  0  0
  5 11  2  0  0  0  0
  5  3  1  0  0  0  0
  6  5  1  0  0  0  0
  7  6  1  0  0  0  0
  8  6  1  0  0  0  0
  8 10  2  0  0  0  0
  9  8  1  0  0  0  0
 10 11  1  0  0  0  0
 11 12  1  0  0  0  0
 12  1  2  0  0  0  0
 13 14  1  0  0  0  0
 14 15  2  0  0  0  0
 14 21  1  0  0  0  0
 15 20  1  0  0  0  0
 16 15  1  0  0  0  0
 17 16  2  0  0  0  0
 18 17  1  0  0  0  0
 18 13  2  0  0  0  0
 19 13  1  0  0  0  0
 21 23  1  0  0  0  0
 22 21  1  0  0  0  0
M  END
>  <minimizedAffinity>
-5.42125797

$$$$

 OpenBabel03272506563D

 23 25  0  0  0  0  0  0  0  0999 V2000
   38.0570   26.9310   35.8480 C   0  0  0  0  0  3  0  0  0  0  0  0
   38.1790   25.7130   35.1740 C   0  0  0  0  0  0  0  0  0  0  0  0
   37.6600   25.5290   33.9060 C   0  0  0  0  0  0  0  0  0  0  0  0
   37.7690   24.5730   33.4050 H   0  0  0  0  0  0  0  0  0  0  0  0
   37.0000   26.5560   33.2630 C   0  0  0  0  0  0  0  0  0  0  0  0
   36.4140   26.6250   32.0450 N   0  0  0  0  0  0  0  0  0  0  0  0
   36.3670   25.8460   31.3440 H   0  0  0  0  0  0  0  0  0  0  0  0
   35.9010   27.8620   31.8870 C   0  0  0  0  0  0  0  0  0  0  0  0
   35.3670   28.2150   30.9980 H   0  0  0  0  0  0  0  0  0  0  0  0
   36.1680   28.6060   33.0390 C   0  0  0  0  0  3  0  0  0  0  0  0
   36.8540   27.7700   33.8820 C   0  0  0  0  0  0  0  0  0  0  0  0
   37.3820   27.9230   35.1450 C   0  0  0  0  0  3  0  0  0  0  0  0
   39.0400   23.1790   37.6980 C   0  0  0  0  0  0  0  0  0  0  0  0
   40.1960   22.5750   37.1750 C   0  0  0  0  0  0  0  0  0  0  0  0
   40.6650   23.0590   35.9450 C   0  0  0  0  0  0  0  0  0  0  0  0
   39.9960   24.0610   35.3340 N   0  0  0  0  0  0  0  0  0  0  0  0
   38.8870   24.6180   35.8660 C   0  0  0  0  0  0  0  0  0  0  0  0
   38.3950   24.1880   37.0490 N   0  0  0  0  0  0  0  0  0  0  0  0
   38.6880   22.7940   38.6520 H   0  0  0  0  0  0  0  0  0  0  0  0
   41.5510   22.6080   35.5280 H   0  0  0  0  0  0  0  0  0  0  0  0
   40.8210   21.5300   37.8970 N   0  0  0  0  0  0  0  0  0  0  0  0
   40.7990   21.6080   38.9550 H   0  0  0  0  0  0  0  0  0  0  0  0
   41.2900   20.7080   37.4550 H   0  0  0  0  0  0  0  0  0  0  0  0
  2  1  1  0  0  0  0
  2 17  1  0  0  0  0
  3  2  2  0  0  0  0
  4  3  1  0  0  0  0
  5 11  2  0  0  0  0
  5  3  1  0  0  0  0
  6  5  1  0  0  0  0
  7  6  1  0  0  0  0
  8  6  1  0  0  0  0
  8 10  2  0  0  0  0
  9  8  1  0  0  0  0
 10 11  1  0  0  0  0
 11 12  1  0  0  0  0
 12  1  2  0  0  0  0
 13 19  1  0  0  0  0
 14 13  1  0  0  0  0
 14 21  1  0  0  0  0
 15 14  2  0  0  0  0
 16 17  2  0  0  0  0
 16 15  1  0  0  0  0
 17 18  1  0  0  0  0
 18 13  2  0  0  0  0
 20 15  1  0  0  0  0
 21 22  1  0  0  0  0
 23 21  1  0  0  0  0
M  END
>  <minimizedAffinity>
-5.39766455

$$$$

 OpenBabel03272506563D

 23 25  0  0  0  0  0  0  0  0999 V2000
   38.4780   25.8940   33.2260 C   0  0  0  0  0  3  0  0  0  0  0  0
   38.0780   25.9220   34.5640 C   0  0  0  0  0  0  0  0  0  0  0  0
   37.1970   26.8760   35.0390 C   0  0  0  0  0  0  0  0  0  0  0  0
   36.9030   26.8750   36.0830 H   0  0  0  0  0  0  0  0  0  0  0  0
   36.6840   27.8390   34.1940 C   0  0  0  0  0  0  0  0  0  0  0  0
   35.8240   28.8610   34.4130 N   0  0  0  0  0  0  0  0  0  0  0  0
   35.3780   29.0990   35.3330 H   0  0  0  0  0  0  0  0  0  0  0  0
   35.6390   29.5200   33.2520 C   0  0  0  0  0  0  0  0  0  0  0  0
   34.9930   30.3940   33.1170 H   0  0  0  0  0  0  0  0  0  0  0  0
   36.4040   28.8990   32.2600 C   0  0  0  0  0  3  0  0  0  0  0  0
   37.0460   27.8550   32.8730 C   0  0  0  0  0  0  0  0  0  0  0  0
   37.9250   26.8900   32.4290 C   0  0  0  0  0  3  0  0  0  0  0  0
   40.3250   23.3590   35.9480 C   0  0  0  0  0  0  0  0  0  0  0  0
   39.6760   22.9580   37.1280 C   0  0  0  0  0  0  0  0  0  0  0  0
   38.4580   23.5850   37.4300 C   0  0  0  0  0  0  0  0  0  0  0  0
   37.9780   24.5270   36.5890 N   0  0  0  0  0  0  0  0  0  0  0  0
   38.6290   24.8900   35.4630 C   0  0  0  0  0  0  0  0  0  0  0  0
   39.8050   24.3140   35.1280 N   0  0  0  0  0  0  0  0  0  0  0  0
   41.2670   22.8640   35.7270 H   0  0  0  0  0  0  0  0  0  0  0  0
   37.9460   23.2900   38.3310 H   0  0  0  0  0  0  0  0  0  0  0  0
   40.2660   21.9590   37.9400 N   0  0  0  0  0  0  0  0  0  0  0  0
   40.7890   21.1870   37.4350 H   0  0  0  0  0  0  0  0  0  0  0  0
   40.2150   21.9430   38.9830 H   0  0  0  0  0  0  0  0  0  0  0  0
  1  2  1  0  0  0  0
  2  3  2  0  0  0  0
  2 17  1  0  0  0  0
  3  4  1  0  0  0  0
  5  6  1  0  0  0  0
  5  3  1  0  0  0  0
  6  7  1  0  0  0  0
  8  6  1  0  0  0  0
  9  8  1  0  0  0  0
 10 11  1  0  0  0  0
 10  8  2  0  0  0  0
 11  5  2  0  0  0  0
 12 11  1  0  0  0  0
 12  1  2  0  0  0  0
 13 14  1  0  0  0  0
 14 15  2  0  0  0  0
 14 21  1  0  0  0  0
 15 20  1  0  0  0  0
 16 15  1  0  0  0  0
 17 16  2  0  0  0  0
 18 17  1  0  0  0  0
 18 13  2  0  0  0  0
 19 13  1  0  0  0  0
 21 23  1  0  0  0  0
 22 21  1  0  0  0  0
M  END
>  <minimizedAffinity>
-5.0707674

$$$$

 OpenBabel03272506563D

 23 25  0  0  0  0  0  0  0  0999 V2000
   38.0550   27.2890   35.0210 C   0  0  0  0  0  3  0  0  0  0  0  0
   37.8780   26.3790   33.9760 C   0  0  0  0  0  0  0  0  0  0  0  0
   37.8500   25.0140   34.1990 C   0  0  0  0  0  0  0  0  0  0  0  0
   37.7110   24.3300   33.3690 H   0  0  0  0  0  0  0  0  0  0  0  0
   37.9990   24.5090   35.4740 C   0  0  0  0  0  0  0  0  0  0  0  0
   38.0090   23.2390   35.9420 N   0  0  0  0  0  0  0  0  0  0  0  0
   37.8960   22.3730   35.3620 H   0  0  0  0  0  0  0  0  0  0  0  0
   38.1890   23.2780   37.2780 C   0  0  0  0  0  0  0  0  0  0  0  0
   38.2400   22.4020   37.9340 H   0  0  0  0  0  0  0  0  0  0  0  0
   38.2970   24.6130   37.6750 C   0  0  0  0  0  3  0  0  0  0  0  0
   38.1750   25.3610   36.5330 C   0  0  0  0  0  0  0  0  0  0  0  0
   38.1980   26.7150   36.2790 C   0  0  0  0  0  3  0  0  0  0  0  0
   36.3240   27.4140   30.8070 C   0  0  0  0  0  0  0  0  0  0  0  0
   37.4000   27.9390   30.0710 C   0  0  0  0  0  0  0  0  0  0  0  0
   38.6590   27.9260   30.6880 C   0  0  0  0  0  0  0  0  0  0  0  0
   38.7750   27.4210   31.9350 N   0  0  0  0  0  0  0  0  0  0  0  0
   37.7190   26.9250   32.6140 C   0  0  0  0  0  0  0  0  0  0  0  0
   36.4850   26.9140   32.0630 N   0  0  0  0  0  0  0  0  0  0  0  0
   35.3550   27.4290   30.3160 H   0  0  0  0  0  0  0  0  0  0  0  0
   39.4970   28.3250   30.1380 H   0  0  0  0  0  0  0  0  0  0  0  0
   37.1700   28.4440   28.7680 N   0  0  0  0  0  0  0  0  0  0  0  0
   36.4380   27.9410   28.1890 H   0  0  0  0  0  0  0  0  0  0  0  0
   37.6700   29.2650   28.3590 H   0  0  0  0  0  0  0  0  0  0  0  0
  1 12  1  0  0  0  0
  2  3  1  0  0  0  0
  2  1  2  0  0  0  0
  3  5  2  0  0  0  0
  4  3  1  0  0  0  0
  5  6  1  0  0  0  0
  5 11  1  0  0  0  0
  6  8  1  0  0  0  0
  7  6  1  0  0  0  0
  8 10  2  0  0  0  0
  8  9  1  0  0  0  0
 11 10  1  0  0  0  0
 12 11  2  0  0  0  0
 13 18  1  0  0  0  0
 14 15  1  0  0  0  0
 14 13  2  0  0  0  0
 15 16  2  0  0  0  0
 16 17  1  0  0  0  0
 17  2  1  0  0  0  0
 18 17  2  0  0  0  0
 19 13  1  0  0  0  0
 20 15  1  0  0  0  0
 21 14  1  0  0  0  0
 22 21  1  0  0  0  0
 23 21  1  0  0  0  0
M  END
>  <minimizedAffinity>
-4.83621645

$$$$

 OpenBabel03272506563D

 23 25  0  0  0  0  0  0  0  0999 V2000
   37.2300   26.4270   34.9970 C   0  0  0  0  0  3  0  0  0  0  0  0
   38.3470   25.7200   34.5450 C   0  0  0  0  0  0  0  0  0  0  0  0
   38.9110   25.9690   33.3070 C   0  0  0  0  0  0  0  0  0  0  0  0
   39.7780   25.4050   32.9800 H   0  0  0  0  0  0  0  0  0  0  0  0
   38.3780   26.9320   32.4750 C   0  0  0  0  0  0  0  0  0  0  0  0
   38.7400   27.3530   31.2410 N   0  0  0  0  0  0  0  0  0  0  0  0
   39.5460   26.9830   30.6800 H   0  0  0  0  0  0  0  0  0  0  0  0
   37.8900   28.3260   30.8550 C   0  0  0  0  0  0  0  0  0  0  0  0
   37.9330   28.8610   29.9000 H   0  0  0  0  0  0  0  0  0  0  0  0
   36.9570   28.5330   31.8740 C   0  0  0  0  0  3  0  0  0  0  0  0
   37.2830   27.6520   32.8730 C   0  0  0  0  0  0  0  0  0  0  0  0
   36.7440   27.3830   34.1120 C   0  0  0  0  0  3  0  0  0  0  0  0
   40.6070   23.1520   35.8950 C   0  0  0  0  0  0  0  0  0  0  0  0
   39.9850   22.7660   37.0950 C   0  0  0  0  0  0  0  0  0  0  0  0
   38.7810   23.4070   37.4220 C   0  0  0  0  0  0  0  0  0  0  0  0
   38.2880   24.3450   36.5850 N   0  0  0  0  0  0  0  0  0  0  0  0
   38.9130   24.6920   35.4390 C   0  0  0  0  0  0  0  0  0  0  0  0
   40.0750   24.1030   35.0800 N   0  0  0  0  0  0  0  0  0  0  0  0
   41.5390   22.6460   35.6540 H   0  0  0  0  0  0  0  0  0  0  0  0
   38.2900   23.1240   38.3390 H   0  0  0  0  0  0  0  0  0  0  0  0
   40.5880   21.7700   37.9010 N   0  0  0  0  0  0  0  0  0  0  0  0
   41.0910   20.9890   37.3900 H   0  0  0  0  0  0  0  0  0  0  0  0
   40.5640   21.7650   38.9460 H   0  0  0  0  0  0  0  0  0  0  0  0
  2  1  1  0  0  0  0
  2 17  1  0  0  0  0
  3  2  2  0  0  0  0
  4  3  1  0  0  0  0
  5 11  2  0  0  0  0
  5  3  1  0  0  0  0
  6  5  1  0  0  0  0
  7  6  1  0  0  0  0
  8  6  1  0  0  0  0
  8 10  2  0  0  0  0
  9  8  1  0  0  0  0
 10 11  1  0  0  0  0
 11 12  1  0  0  0  0
 12  1  2  0  0  0  0
 13 14  1  0  0  0  0
 14 15  2  0  0  0  0
 14 21  1  0  0  0  0
 15 20  1  0  0  0  0
 16 15  1  0  0  0  0
 17 16  2  0  0  0  0
 18 17  1  0  0  0  0
 18 13  2  0  0  0  0
 19 13  1  0  0  0  0
 21 23  1  0  0  0  0
 22 21  1  0  0  0  0
M  END
>  <minimizedAffinity>
-4.83364868

$$$$

 OpenBabel03272506563D

 23 25  0  0  0  0  0  0  0  0999 V2000
   39.4070   24.1190   34.0080 C   0  0  0  0  0  3  0  0  0  0  0  0
   38.3360   24.9900   34.2230 C   0  0  0  0  0  0  0  0  0  0  0  0
   37.7530   25.1300   35.4690 C   0  0  0  0  0  0  0  0  0  0  0  0
   36.9230   25.8140   35.6090 H   0  0  0  0  0  0  0  0  0  0  0  0
   38.2170   24.4030   36.5460 C   0  0  0  0  0  0  0  0  0  0  0  0
   37.8230   24.3620   37.8400 N   0  0  0  0  0  0  0  0  0  0  0  0
   37.0400   24.9210   38.2590 H   0  0  0  0  0  0  0  0  0  0  0  0
   38.6050   23.4820   38.4970 C   0  0  0  0  0  0  0  0  0  0  0  0
   38.5230   23.2360   39.5610 H   0  0  0  0  0  0  0  0  0  0  0  0
   39.5270   22.9440   37.5950 C   0  0  0  0  0  3  0  0  0  0  0  0
   39.2650   23.5350   36.3860 C   0  0  0  0  0  0  0  0  0  0  0  0
   39.8260   23.4180   35.1330 C   0  0  0  0  0  3  0  0  0  0  0  0
   37.8230   27.7680   31.8670 C   0  0  0  0  0  0  0  0  0  0  0  0
   36.9350   27.2330   30.9180 C   0  0  0  0  0  0  0  0  0  0  0  0
   36.5220   25.9060   31.1110 C   0  0  0  0  0  0  0  0  0  0  0  0
   36.9900   25.2200   32.1760 N   0  0  0  0  0  0  0  0  0  0  0  0
   37.8440   25.7660   33.0680 C   0  0  0  0  0  0  0  0  0  0  0  0
   38.2700   27.0410   32.9270 N   0  0  0  0  0  0  0  0  0  0  0  0
   38.1330   28.7970   31.7050 H   0  0  0  0  0  0  0  0  0  0  0  0
   35.8410   25.4790   30.3930 H   0  0  0  0  0  0  0  0  0  0  0  0
   36.5050   28.0390   29.8360 N   0  0  0  0  0  0  0  0  0  0  0  0
   36.3690   29.0710   30.0410 H   0  0  0  0  0  0  0  0  0  0  0  0
   36.3200   27.6810   28.8730 H   0  0  0  0  0  0  0  0  0  0  0  0
  1  2  2  0  0  0  0
  1 12  1  0  0  0  0
  2  3  1  0  0  0  0
  3  4  1  0  0  0  0
  3  5  2  0  0  0  0
  5  6  1  0  0  0  0
  6  7  1  0  0  0  0
  6  8  1  0  0  0  0
  8  9  1  0  0  0  0
 10  8  2  0  0  0  0
 11  5  1  0  0  0  0
 11 10  1  0  0  0  0
 12 11  2  0  0  0  0
 13 18  1  0  0  0  0
 14 15  1  0  0  0  0
 14 13  2  0  0  0  0
 15 16  2  0  0  0  0
 16 17  1  0  0  0  0
 17  2  1  0  0  0  0
 18 17  2  0  0  0  0
 19 13  1  0  0  0  0
 20 15  1  0  0  0  0
 21 22  1  0  0  0  0
 21 14  1  0  0  0  0
 23 21  1  0  0  0  0
M  END
>  <minimizedAffinity>
-4.76067257

$$$$

 OpenBabel03272506563D

 23 25  0  0  0  0  0  0  0  0999 V2000
   37.4480   24.0480   32.8730 C   0  0  0  0  0  3  0  0  0  0  0  0
   36.5800   23.6670   31.8470 C   0  0  0  0  0  0  0  0  0  0  0  0
   36.0500   24.5900   30.9640 C   0  0  0  0  0  0  0  0  0  0  0  0
   35.3780   24.2660   30.1760 H   0  0  0  0  0  0  0  0  0  0  0  0
   36.3660   25.9280   31.0750 C   0  0  0  0  0  0  0  0  0  0  0  0
   35.9850   27.0050   30.3490 N   0  0  0  0  0  0  0  0  0  0  0  0
   35.3360   26.9880   29.5240 H   0  0  0  0  0  0  0  0  0  0  0  0
   36.5760   28.1000   30.8670 C   0  0  0  0  0  0  0  0  0  0  0  0
   36.4560   29.1210   30.4890 H   0  0  0  0  0  0  0  0  0  0  0  0
   37.3600   27.7110   31.9560 C   0  0  0  0  0  3  0  0  0  0  0  0
   37.2130   26.3530   32.0650 C   0  0  0  0  0  0  0  0  0  0  0  0
   37.7260   25.4090   32.9290 C   0  0  0  0  0  3  0  0  0  0  0  0
   34.8570   20.4520   32.3230 C   0  0  0  0  0  0  0  0  0  0  0  0
   35.6050   19.5600   31.5340 C   0  0  0  0  0  0  0  0  0  0  0  0
   36.7040   20.0900   30.8440 C   0  0  0  0  0  0  0  0  0  0  0  0
   36.9860   21.4050   30.9660 N   0  0  0  0  0  0  0  0  0  0  0  0
   36.2460   22.2340   31.7330 C   0  0  0  0  0  0  0  0  0  0  0  0
   35.1760   21.7720   32.4190 N   0  0  0  0  0  0  0  0  0  0  0  0
   34.0080   20.0270   32.8530 H   0  0  0  0  0  0  0  0  0  0  0  0
   37.2900   19.4200   30.2340 H   0  0  0  0  0  0  0  0  0  0  0  0
   35.2230   18.1980   31.4760 N   0  0  0  0  0  0  0  0  0  0  0  0
   34.8250   17.7800   32.3650 H   0  0  0  0  0  0  0  0  0  0  0  0
   35.3100   17.5990   30.6240 H   0  0  0  0  0  0  0  0  0  0  0  0
  1 12  1  0  0  0  0
  2  1  2  0  0  0  0
  3  5  2  0  0  0  0
  3  2  1  0  0  0  0
  4  3  1  0  0  0  0
  5 11  1  0  0  0  0
  6  8  1  0  0  0  0
  6  5  1  0  0  0  0
  7  6  1  0  0  0  0
  8 10  2  0  0  0  0
  9  8  1  0  0  0  0
 10 11  1  0  0  0  0
 11 12  2  0  0  0  0
 13 18  1  0  0  0  0
 13 19  1  0  0  0  0
 14 13  2  0  0  0  0
 15 16  2  0  0  0  0
 15 14  1  0  0  0  0
 16 17  1  0  0  0  0
 17  2  1  0  0  0  0
 17 18  2  0  0  0  0
 20 15  1  0  0  0  0
 21 14  1  0  0  0  0
 21 22  1  0  0  0  0
 23 21  1  0  0  0  0
M  END
>  <minimizedAffinity>
-4.71137094

$$$$

 OpenBabel03272506563D

 23 25  0  0  0  0  0  0  0  0999 V2000
   37.7490   27.5450   35.2800 C   0  0  0  0  0  3  0  0  0  0  0  0
   37.3210   27.1010   34.0270 C   0  0  0  0  0  0  0  0  0  0  0  0
   37.4530   25.7800   33.6400 C   0  0  0  0  0  0  0  0  0  0  0  0
   37.1120   25.4620   32.6610 H   0  0  0  0  0  0  0  0  0  0  0  0
   38.0190   24.8530   34.4920 C   0  0  0  0  0  0  0  0  0  0  0  0
   38.2550   23.5280   34.3500 N   0  0  0  0  0  0  0  0  0  0  0  0
   38.0270   22.9540   33.5020 H   0  0  0  0  0  0  0  0  0  0  0  0
   38.8330   23.0740   35.4800 C   0  0  0  0  0  0  0  0  0  0  0  0
   39.1400   22.0380   35.6610 H   0  0  0  0  0  0  0  0  0  0  0  0
   38.9700   24.1420   36.3720 C   0  0  0  0  0  3  0  0  0  0  0  0
   38.4550   25.2390   35.7320 C   0  0  0  0  0  0  0  0  0  0  0  0
   38.3090   26.5630   36.0890 C   0  0  0  0  0  3  0  0  0  0  0  0
   35.3010   29.9290   32.8200 C   0  0  0  0  0  0  0  0  0  0  0  0
   35.5740   29.9620   31.4420 C   0  0  0  0  0  0  0  0  0  0  0  0
   36.4610   28.9960   30.9460 C   0  0  0  0  0  0  0  0  0  0  0  0
   37.0010   28.0980   31.7990 N   0  0  0  0  0  0  0  0  0  0  0  0
   36.7160   28.0960   33.1200 C   0  0  0  0  0  0  0  0  0  0  0  0
   35.8670   29.0060   33.6460 N   0  0  0  0  0  0  0  0  0  0  0  0
   34.6110   30.6830   33.1910 H   0  0  0  0  0  0  0  0  0  0  0  0
   36.6830   29.0050   29.8910 H   0  0  0  0  0  0  0  0  0  0  0  0
   34.9540   30.9460   30.6350 N   0  0  0  0  0  0  0  0  0  0  0  0
   33.9640   31.2190   30.8990 H   0  0  0  0  0  0  0  0  0  0  0  0
   35.4090   31.4060   29.8140 H   0  0  0  0  0  0  0  0  0  0  0  0
  1 12  1  0  0  0  0
  2  1  2  0  0  0  0
  3  2  1  0  0  0  0
  3  5  2  0  0  0  0
  4  3  1  0  0  0  0
  5 11  1  0  0  0  0
  6  5  1  0  0  0  0
  6  8  1  0  0  0  0
  7  6  1  0  0  0  0
  8  9  1  0  0  0  0
  8 10  2  0  0  0  0
 11 12  2  0  0  0  0
 11 10  1  0  0  0  0
 13 19  1  0  0  0  0
 13 18  1  0  0  0  0
 14 13  2  0  0  0  0
 15 14  1  0  0  0  0
 15 16  2  0  0  0  0
 16 17  1  0  0  0  0
 17 18  2  0  0  0  0
 17  2  1  0  0  0  0
 20 15  1  0  0  0  0
 21 22  1  0  0  0  0
 21 14  1  0  0  0  0
 23 21  1  0  0  0  0
M  END
>  <minimizedAffinity>
-4.66978741

$$$$

 OpenBabel03272506563D

 23 25  0  0  0  0  0  0  0  0999 V2000
   33.6330   29.4950   34.3400 C   0  0  0  0  0  3  0  0  0  0  0  0
   34.9980   29.7400   34.1750 C   0  0  0  0  0  0  0  0  0  0  0  0
   35.6630   30.6840   34.9350 C   0  0  0  0  0  0  0  0  0  0  0  0
   36.7240   30.8550   34.7870 H   0  0  0  0  0  0  0  0  0  0  0  0
   34.9870   31.4200   35.8880 C   0  0  0  0  0  0  0  0  0  0  0  0
   35.4050   32.3830   36.7410 N   0  0  0  0  0  0  0  0  0  0  0  0
   36.3840   32.7510   36.8170 H   0  0  0  0  0  0  0  0  0  0  0  0
   34.3490   32.7910   37.4750 C   0  0  0  0  0  0  0  0  0  0  0  0
   34.3790   33.5630   38.2510 H   0  0  0  0  0  0  0  0  0  0  0  0
   33.2230   32.0640   37.0770 C   0  0  0  0  0  3  0  0  0  0  0  0
   33.6470   31.2170   36.0870 C   0  0  0  0  0  0  0  0  0  0  0  0
   33.0130   30.2680   35.3150 C   0  0  0  0  0  3  0  0  0  0  0  0
   37.1540   27.1840   32.6410 C   0  0  0  0  0  0  0  0  0  0  0  0
   37.0660   27.4640   31.2670 C   0  0  0  0  0  0  0  0  0  0  0  0
   36.2540   28.5430   30.8880 C   0  0  0  0  0  0  0  0  0  0  0  0
   35.6080   29.2470   31.8420 N   0  0  0  0  0  0  0  0  0  0  0  0
   35.7150   28.9500   33.1550 C   0  0  0  0  0  0  0  0  0  0  0  0
   36.4860   27.9210   33.5720 N   0  0  0  0  0  0  0  0  0  0  0  0
   37.7870   26.3460   32.9200 H   0  0  0  0  0  0  0  0  0  0  0  0
   36.1740   28.7720   29.8370 H   0  0  0  0  0  0  0  0  0  0  0  0
   37.7850   26.6620   30.3480 N   0  0  0  0  0  0  0  0  0  0  0  0
   38.7310   26.3060   30.6700 H   0  0  0  0  0  0  0  0  0  0  0  0
   37.4410   26.4080   29.3940 H   0  0  0  0  0  0  0  0  0  0  0  0
  1 12  1  0  0  0  0
  2  1  2  0  0  0  0
  2  3  1  0  0  0  0
  3  5  2  0  0  0  0
  4  3  1  0  0  0  0
  5 11  1  0  0  0  0
  5  6  1  0  0  0  0
  6  7  1  0  0  0  0
  6  8  1  0  0  0  0
  8  9  1  0  0  0  0
 10  8  2  0  0  0  0
 11 10  1  0  0  0  0
 12 11  2  0  0  0  0
 13 19  1  0  0  0  0
 13 18  1  0  0  0  0
 14 13  2  0  0  0  0
 15 14  1  0  0  0  0
 15 16  2  0  0  0  0
 16 17  1  0  0  0  0
 17 18  2  0  0  0  0
 17  2  1  0  0  0  0
 20 15  1  0  0  0  0
 21 22  1  0  0  0  0
 21 14  1  0  0  0  0
 23 21  1  0  0  0  0
M  END
>  <minimizedAffinity>
-4.65607548

$$$$
