
 OpenBabel03272506553D

 23 25  0  0  0  0  0  0  0  0999 V2000
   32.8340   28.5040   49.3640 C   0  0  0  0  0  3  0  0  0  0  0  0
   34.0410   28.1770   48.7410 C   0  0  0  0  0  0  0  0  0  0  0  0
   34.1090   27.2130   47.7510 C   0  0  0  0  0  0  0  0  0  0  0  0
   35.0590   26.9780   47.2840 H   0  0  0  0  0  0  0  0  0  0  0  0
   32.9730   26.5410   47.3480 C   0  0  0  0  0  0  0  0  0  0  0  0
   32.7820   25.5760   46.4190 N   0  0  0  0  0  0  0  0  0  0  0  0
   33.5280   25.1540   45.8130 H   0  0  0  0  0  0  0  0  0  0  0  0
   31.4740   25.2490   46.4050 C   0  0  0  0  0  0  0  0  0  0  0  0
   31.0180   24.4960   45.7530 H   0  0  0  0  0  0  0  0  0  0  0  0
   30.8090   26.0300   47.3550 C   0  0  0  0  0  3  0  0  0  0  0  0
   31.7650   26.8280   47.9280 C   0  0  0  0  0  0  0  0  0  0  0  0
   31.7300   27.7910   48.9120 C   0  0  0  0  0  3  0  0  0  0  0  0
   36.6210   29.6410   50.9170 C   0  0  0  0  0  0  0  0  0  0  0  0
   37.5120   30.2390   50.0100 C   0  0  0  0  0  0  0  0  0  0  0  0
   37.2040   30.1270   48.6470 C   0  0  0  0  0  0  0  0  0  0  0  0
   36.0890   29.4610   48.2770 N   0  0  0  0  0  0  0  0  0  0  0  0
   35.2540   28.8970   49.1760 C   0  0  0  0  0  0  0  0  0  0  0  0
   35.5060   28.9790   50.5010 N   0  0  0  0  0  0  0  0  0  0  0  0
   36.8710   29.7370   51.9700 H   0  0  0  0  0  0  0  0  0  0  0  0
   37.8770   30.5800   47.9360 H   0  0  0  0  0  0  0  0  0  0  0  0
   38.6550   30.9150   50.5030 N   0  0  0  0  0  0  0  0  0  0  0  0
   38.5380   31.4340   51.4210 H   0  0  0  0  0  0  0  0  0  0  0  0
   39.5830   30.9280   50.0240 H   0  0  0  0  0  0  0  0  0  0  0  0
  2 17  1  0  0  0  0
  2  1  2  0  0  0  0
  3  2  1  0  0  0  0
  4  3  1  0  0  0  0
  5  3  2  0  0  0  0
  5 11  1  0  0  0  0
  6  5  1  0  0  0  0
  7  6  1  0  0  0  0
  8  6  1  0  0  0  0
  8 10  2  0  0  0  0
  9  8  1  0  0  0  0
 10 11  1  0  0  0  0
 11 12  2  0  0  0  0
 12  1  1  0  0  0  0
 13 19  1  0  0  0  0
 14 21  1  0  0  0  0
 14 13  2  0  0  0  0
 15 14  1  0  0  0  0
 16 15  2  0  0  0  0
 16 17  1  0  0  0  0
 17 18  2  0  0  0  0
 18 13  1  0  0  0  0
 20 15  1  0  0  0  0
 21 22  1  0  0  0  0
 23 21  1  0  0  0  0
M  END
>  <minimizedAffinity>
-4.57165098

>  <minimizedRMSD>
1.43622243

$$$$
