
 OpenBabel03272508353D

 34 37  0  0  0  0  0  0  0  0999 V2000
   37.5820   26.3930   33.1150 C   0  0  0  0  0  0  0  0  0  0  0  0
   38.6310   26.3280   32.7410 H   0  0  0  0  0  0  0  0  0  0  0  0
   37.1710   27.3990   32.8550 H   0  0  0  0  0  0  0  0  0  0  0  0
   36.1980   23.3370   31.8360 C   0  0  0  0  0  0  0  0  0  0  0  0
   35.4330   24.2830   31.1790 C   0  0  0  0  0  0  0  0  0  0  0  0
   35.8460   25.5450   31.5670 C   0  0  0  0  0  0  0  0  0  0  0  0
   36.8490   25.3260   32.4480 N   0  0  0  0  0  0  0  0  0  0  0  0
   37.0620   24.0080   32.6110 N   0  0  0  0  0  0  0  0  0  0  0  0
   34.6200   24.1540   30.4590 H   0  0  0  0  0  0  0  0  0  0  0  0
   35.4680   26.5050   31.2510 H   0  0  0  0  0  0  0  0  0  0  0  0
   36.5890   19.7750   30.6850 C   0  0  0  0  0  0  0  0  0  0  0  0
   36.8530   21.1360   30.8240 C   0  0  0  0  0  0  0  0  0  0  0  0
   36.0000   21.9230   31.6360 C   0  0  0  0  0  0  0  0  0  0  0  0
   34.9590   21.2840   32.2360 N   0  0  0  0  0  0  0  0  0  0  0  0
   34.7400   19.9600   32.0740 C   0  0  0  0  0  0  0  0  0  0  0  0
   35.5520   19.2110   31.3010 N   0  0  0  0  0  0  0  0  0  0  0  0
   37.3040   19.2710   30.0430 H   0  0  0  0  0  0  0  0  0  0  0  0
   37.6660   21.6870   30.3680 H   0  0  0  0  0  0  0  0  0  0  0  0
   33.8910   19.4640   32.5690 H   0  0  0  0  0  0  0  0  0  0  0  0
   37.5360   26.1570   34.6200 C   0  0  0  0  0  0  0  0  0  0  0  0
   37.5940   27.1550   35.1060 H   0  0  0  0  0  0  0  0  0  0  0  0
   36.5740   25.7000   34.8600 H   0  0  0  0  0  0  0  0  0  0  0  0
   39.9500   25.5240   34.4910 C   0  0  0  0  0  3  0  0  0  0  0  0
   38.6910   25.3330   35.0330 C   0  0  0  0  0  0  0  0  0  0  0  0
   38.4250   24.3710   35.9890 C   0  0  0  0  0  0  0  0  0  0  0  0
   37.4420   24.2180   36.4170 H   0  0  0  0  0  0  0  0  0  0  0  0
   39.4370   23.5480   36.4430 C   0  0  0  0  0  0  0  0  0  0  0  0
   39.4510   22.5460   37.3510 N   0  0  0  0  0  0  0  0  0  0  0  0
   38.6170   22.2230   37.8900 H   0  0  0  0  0  0  0  0  0  0  0  0
   40.7150   22.0520   37.4320 C   0  0  0  0  0  0  0  0  0  0  0  0
   40.9440   21.2380   38.1070 H   0  0  0  0  0  0  0  0  0  0  0  0
   41.4960   22.7680   36.5500 C   0  0  0  0  0  3  0  0  0  0  0  0
   40.7130   23.7160   35.9150 C   0  0  0  0  0  0  0  0  0  0  0  0
   40.9430   24.6880   34.9610 C   0  0  0  0  0  3  0  0  0  0  0  0
  1 20  1  0  0  0  0
  2  1  1  0  0  0  0
  3  1  1  0  0  0  0
  4  8  2  0  0  0  0
  5  6  2  0  0  0  0
  5  4  1  0  0  0  0
  6  7  1  0  0  0  0
  7  8  1  0  0  0  0
  7  1  1  0  0  0  0
  9  5  1  0  0  0  0
 10  6  1  0  0  0  0
 11 12  2  0  0  0  0
 11 16  1  0  0  0  0
 12 13  1  0  0  0  0
 13  4  1  0  0  0  0
 13 14  2  0  0  0  0
 15 14  1  0  0  0  0
 15 19  1  0  0  0  0
 16 15  2  0  0  0  0
 17 11  1  0  0  0  0
 18 12  1  0  0  0  0
 20 22  1  0  0  0  0
 20 24  1  0  0  0  0
 20 21  1  0  0  0  0
 23 34  2  0  0  0  0
 23 24  1  0  0  0  0
 24 25  2  0  0  0  0
 25 26  1  0  0  0  0
 25 27  1  0  0  0  0
 27 28  1  0  0  0  0
 28 30  1  0  0  0  0
 28 29  1  0  0  0  0
 30 31  1  0  0  0  0
 32 30  2  0  0  0  0
 33 27  2  0  0  0  0
 33 32  1  0  0  0  0
 34 33  1  0  0  0  0
M  END
>  <minimizedAffinity>
-5.58400345

$$$$

 OpenBabel03272508353D

 34 37  0  0  0  0  0  0  0  0999 V2000
   38.1090   26.9750   35.5710 C   0  0  0  0  0  0  0  0  0  0  0  0
   39.1830   27.0810   35.2880 H   0  0  0  0  0  0  0  0  0  0  0  0
   37.9120   27.6080   36.4700 H   0  0  0  0  0  0  0  0  0  0  0  0
   35.9050   28.5160   33.1910 C   0  0  0  0  0  0  0  0  0  0  0  0
   36.5990   27.6280   32.3910 C   0  0  0  0  0  0  0  0  0  0  0  0
   37.5110   26.9360   33.1690 C   0  0  0  0  0  0  0  0  0  0  0  0
   37.3420   27.4270   34.4180 N   0  0  0  0  0  0  0  0  0  0  0  0
   36.3840   28.3700   34.4360 N   0  0  0  0  0  0  0  0  0  0  0  0
   36.5140   27.4320   31.3180 H   0  0  0  0  0  0  0  0  0  0  0  0
   38.2110   26.1720   32.8680 H   0  0  0  0  0  0  0  0  0  0  0  0
   34.1050   31.2040   31.2690 C   0  0  0  0  0  0  0  0  0  0  0  0
   35.1550   30.4130   31.7300 C   0  0  0  0  0  0  0  0  0  0  0  0
   34.8820   29.3820   32.6610 C   0  0  0  0  0  0  0  0  0  0  0  0
   33.5870   29.2310   33.0510 N   0  0  0  0  0  0  0  0  0  0  0  0
   32.5980   30.0220   32.5770 C   0  0  0  0  0  0  0  0  0  0  0  0
   32.8580   31.0040   31.6900 N   0  0  0  0  0  0  0  0  0  0  0  0
   34.4280   31.9600   30.5600 H   0  0  0  0  0  0  0  0  0  0  0  0
   36.1980   30.4940   31.4500 H   0  0  0  0  0  0  0  0  0  0  0  0
   31.5570   29.8820   32.9070 H   0  0  0  0  0  0  0  0  0  0  0  0
   37.7710   25.5140   35.8460 C   0  0  0  0  0  0  0  0  0  0  0  0
   37.2580   25.4820   36.8320 H   0  0  0  0  0  0  0  0  0  0  0  0
   37.0770   25.1790   35.0730 H   0  0  0  0  0  0  0  0  0  0  0  0
   40.0950   24.9970   35.0880 C   0  0  0  0  0  3  0  0  0  0  0  0
   39.0120   24.7150   35.9020 C   0  0  0  0  0  0  0  0  0  0  0  0
   39.0120   23.6780   36.8170 C   0  0  0  0  0  0  0  0  0  0  0  0
   38.1670   23.4540   37.4560 H   0  0  0  0  0  0  0  0  0  0  0  0
   40.1240   22.8700   36.9470 C   0  0  0  0  0  0  0  0  0  0  0  0
   40.3840   21.8100   37.7440 N   0  0  0  0  0  0  0  0  0  0  0  0
   39.7160   21.4140   38.4420 H   0  0  0  0  0  0  0  0  0  0  0  0
   41.6420   21.3660   37.4780 C   0  0  0  0  0  0  0  0  0  0  0  0
   42.0490   20.5180   38.0130 H   0  0  0  0  0  0  0  0  0  0  0  0
   42.1660   22.1750   36.4930 C   0  0  0  0  0  3  0  0  0  0  0  0
   41.2280   23.1300   36.1410 C   0  0  0  0  0  0  0  0  0  0  0  0
   41.1940   24.1750   35.2390 C   0  0  0  0  0  3  0  0  0  0  0  0
  1 20  1  0  0  0  0
  1  3  1  0  0  0  0
  2  1  1  0  0  0  0
  4  8  2  0  0  0  0
  5  6  2  0  0  0  0
  5  4  1  0  0  0  0
  6  7  1  0  0  0  0
  7  8  1  0  0  0  0
  7  1  1  0  0  0  0
  9  5  1  0  0  0  0
 10  6  1  0  0  0  0
 11 16  2  0  0  0  0
 11 12  1  0  0  0  0
 12 13  2  0  0  0  0
 13 14  1  0  0  0  0
 13  4  1  0  0  0  0
 15 19  1  0  0  0  0
 15 14  2  0  0  0  0
 16 15  1  0  0  0  0
 17 11  1  0  0  0  0
 18 12  1  0  0  0  0
 20 24  1  0  0  0  0
 20 21  1  0  0  0  0
 22 20  1  0  0  0  0
 23 34  2  0  0  0  0
 23 24  1  0  0  0  0
 24 25  2  0  0  0  0
 25 27  1  0  0  0  0
 25 26  1  0  0  0  0
 27 28  1  0  0  0  0
 28 29  1  0  0  0  0
 30 28  1  0  0  0  0
 30 31  1  0  0  0  0
 32 30  2  0  0  0  0
 33 32  1  0  0  0  0
 33 27  2  0  0  0  0
 34 33  1  0  0  0  0
M  END
>  <minimizedAffinity>
-5.56629229

$$$$

 OpenBabel03272508353D

 34 37  0  0  0  0  0  0  0  0999 V2000
   37.6410   25.9520   31.5590 C   0  0  0  0  0  0  0  0  0  0  0  0
   37.6270   27.0400   31.3090 H   0  0  0  0  0  0  0  0  0  0  0  0
   38.5510   25.4920   31.1010 H   0  0  0  0  0  0  0  0  0  0  0  0
   38.0720   25.1580   35.0340 C   0  0  0  0  0  0  0  0  0  0  0  0
   37.3760   26.3500   35.1070 C   0  0  0  0  0  0  0  0  0  0  0  0
   37.1230   26.8050   33.8250 C   0  0  0  0  0  0  0  0  0  0  0  0
   37.6740   25.8730   33.0130 N   0  0  0  0  0  0  0  0  0  0  0  0
   38.2410   24.8880   33.7310 N   0  0  0  0  0  0  0  0  0  0  0  0
   37.0380   26.9160   35.9810 H   0  0  0  0  0  0  0  0  0  0  0  0
   36.6040   27.6990   33.5170 H   0  0  0  0  0  0  0  0  0  0  0  0
   39.9080   22.8950   37.4160 C   0  0  0  0  0  0  0  0  0  0  0  0
   39.5820   23.5490   36.2290 C   0  0  0  0  0  0  0  0  0  0  0  0
   38.4810   24.4400   36.2150 C   0  0  0  0  0  0  0  0  0  0  0  0
   37.8030   24.5990   37.3840 N   0  0  0  0  0  0  0  0  0  0  0  0
   38.1540   23.9440   38.5130 C   0  0  0  0  0  0  0  0  0  0  0  0
   39.2020   23.0960   38.5270 N   0  0  0  0  0  0  0  0  0  0  0  0
   40.7660   22.2390   37.3120 H   0  0  0  0  0  0  0  0  0  0  0  0
   40.0900   23.4550   35.2770 H   0  0  0  0  0  0  0  0  0  0  0  0
   37.5910   24.0890   39.4470 H   0  0  0  0  0  0  0  0  0  0  0  0
   36.3730   25.2720   31.0570 C   0  0  0  0  0  0  0  0  0  0  0  0
   35.5570   25.5510   31.7580 H   0  0  0  0  0  0  0  0  0  0  0  0
   36.1450   25.6730   30.0670 H   0  0  0  0  0  0  0  0  0  0  0  0
   37.7220   23.2170   30.6040 C   0  0  0  0  0  3  0  0  0  0  0  0
   36.5560   23.8060   31.0630 C   0  0  0  0  0  0  0  0  0  0  0  0
   35.4910   23.0750   31.5560 C   0  0  0  0  0  0  0  0  0  0  0  0
   34.5780   23.5310   31.9170 H   0  0  0  0  0  0  0  0  0  0  0  0
   35.5610   21.6960   31.6050 C   0  0  0  0  0  0  0  0  0  0  0  0
   34.6840   20.7590   32.0290 N   0  0  0  0  0  0  0  0  0  0  0  0
   33.7370   20.9660   32.4180 H   0  0  0  0  0  0  0  0  0  0  0  0
   35.2460   19.5320   31.8620 C   0  0  0  0  0  0  0  0  0  0  0  0
   34.7040   18.6380   32.1410 H   0  0  0  0  0  0  0  0  0  0  0  0
   36.4990   19.7220   31.3200 C   0  0  0  0  0  3  0  0  0  0  0  0
   36.7210   21.0760   31.1490 C   0  0  0  0  0  0  0  0  0  0  0  0
   37.7660   21.8380   30.6640 C   0  0  0  0  0  3  0  0  0  0  0  0
  1  7  1  0  0  0  0
  2  1  1  0  0  0  0
  3  1  1  0  0  0  0
  4  5  1  0  0  0  0
  4 13  1  0  0  0  0
  5  9  1  0  0  0  0
  6  5  2  0  0  0  0
  7  8  1  0  0  0  0
  7  6  1  0  0  0  0
  8  4  2  0  0  0  0
 10  6  1  0  0  0  0
 11 16  1  0  0  0  0
 12 11  2  0  0  0  0
 13 12  1  0  0  0  0
 13 14  2  0  0  0  0
 14 15  1  0  0  0  0
 15 16  2  0  0  0  0
 15 19  1  0  0  0  0
 17 11  1  0  0  0  0
 18 12  1  0  0  0  0
 20 24  1  0  0  0  0
 20  1  1  0  0  0  0
 20 21  1  0  0  0  0
 22 20  1  0  0  0  0
 23 34  2  0  0  0  0
 23 24  1  0  0  0  0
 24 25  2  0  0  0  0
 25 27  1  0  0  0  0
 25 26  1  0  0  0  0
 27 28  1  0  0  0  0
 28 29  1  0  0  0  0
 30 28  1  0  0  0  0
 30 31  1  0  0  0  0
 32 30  2  0  0  0  0
 33 32  1  0  0  0  0
 33 27  2  0  0  0  0
 34 33  1  0  0  0  0
M  END
>  <minimizedAffinity>
-5.54215765

$$$$

 OpenBabel03272508353D

 34 37  0  0  0  0  0  0  0  0999 V2000
   36.6530   21.6090   31.4360 C   0  0  0  0  0  0  0  0  0  0  0  0
   37.6780   21.8480   31.0670 H   0  0  0  0  0  0  0  0  0  0  0  0
   36.3460   20.6180   31.0230 H   0  0  0  0  0  0  0  0  0  0  0  0
   37.4310   21.9590   34.9240 C   0  0  0  0  0  0  0  0  0  0  0  0
   36.3320   21.1220   34.9690 C   0  0  0  0  0  0  0  0  0  0  0  0
   35.8960   20.8800   33.6780 C   0  0  0  0  0  0  0  0  0  0  0  0
   36.7450   21.5790   32.8890 N   0  0  0  0  0  0  0  0  0  0  0  0
   37.6630   22.2240   33.6300 N   0  0  0  0  0  0  0  0  0  0  0  0
   35.8220   20.6750   35.8270 H   0  0  0  0  0  0  0  0  0  0  0  0
   35.0670   20.2740   33.3490 H   0  0  0  0  0  0  0  0  0  0  0  0
   40.0780   22.6720   37.5030 C   0  0  0  0  0  0  0  0  0  0  0  0
   39.5020   22.2250   36.3160 C   0  0  0  0  0  0  0  0  0  0  0  0
   38.1100   22.3920   36.1200 C   0  0  0  0  0  0  0  0  0  0  0  0
   37.4140   22.9900   37.1250 N   0  0  0  0  0  0  0  0  0  0  0  0
   38.0130   23.4100   38.2620 C   0  0  0  0  0  0  0  0  0  0  0  0
   39.3390   23.2510   38.4480 N   0  0  0  0  0  0  0  0  0  0  0  0
   41.1470   22.4940   37.5460 H   0  0  0  0  0  0  0  0  0  0  0  0
   40.0130   21.7440   35.4900 H   0  0  0  0  0  0  0  0  0  0  0  0
   37.4300   23.8920   39.0610 H   0  0  0  0  0  0  0  0  0  0  0  0
   35.6700   22.7000   31.0270 C   0  0  0  0  0  0  0  0  0  0  0  0
   35.3060   22.4420   30.0090 H   0  0  0  0  0  0  0  0  0  0  0  0
   34.8280   22.6720   31.7230 H   0  0  0  0  0  0  0  0  0  0  0  0
   37.6780   24.1250   30.6030 C   0  0  0  0  0  3  0  0  0  0  0  0
   36.3570   24.0070   30.9970 C   0  0  0  0  0  0  0  0  0  0  0  0
   35.5910   25.0910   31.3860 C   0  0  0  0  0  0  0  0  0  0  0  0
   34.5570   25.0050   31.6950 H   0  0  0  0  0  0  0  0  0  0  0  0
   36.1390   26.3590   31.3930 C   0  0  0  0  0  0  0  0  0  0  0  0
   35.6260   27.5660   31.7220 N   0  0  0  0  0  0  0  0  0  0  0  0
   34.6480   27.7250   32.0480 H   0  0  0  0  0  0  0  0  0  0  0  0
   36.5930   28.5080   31.5540 C   0  0  0  0  0  0  0  0  0  0  0  0
   36.3860   29.5480   31.7640 H   0  0  0  0  0  0  0  0  0  0  0  0
   37.7270   27.8620   31.1110 C   0  0  0  0  0  3  0  0  0  0  0  0
   37.4670   26.5070   31.0020 C   0  0  0  0  0  0  0  0  0  0  0  0
   38.2010   25.4020   30.6190 C   0  0  0  0  0  3  0  0  0  0  0  0
  1  7  1  0  0  0  0
  2  1  1  0  0  0  0
  3  1  1  0  0  0  0
  4  5  1  0  0  0  0
  4 13  1  0  0  0  0
  5  9  1  0  0  0  0
  6  5  2  0  0  0  0
  7  8  1  0  0  0  0
  7  6  1  0  0  0  0
  8  4  2  0  0  0  0
 10  6  1  0  0  0  0
 11 17  1  0  0  0  0
 11 16  1  0  0  0  0
 12 11  2  0  0  0  0
 13 12  1  0  0  0  0
 13 14  2  0  0  0  0
 14 15  1  0  0  0  0
 15 16  2  0  0  0  0
 15 19  1  0  0  0  0
 18 12  1  0  0  0  0
 20  1  1  0  0  0  0
 20 22  1  0  0  0  0
 21 20  1  0  0  0  0
 23 34  2  0  0  0  0
 23 24  1  0  0  0  0
 24 20  1  0  0  0  0
 24 25  2  0  0  0  0
 25 27  1  0  0  0  0
 25 26  1  0  0  0  0
 27 28  1  0  0  0  0
 28 29  1  0  0  0  0
 30 28  1  0  0  0  0
 30 31  1  0  0  0  0
 32 30  2  0  0  0  0
 33 32  1  0  0  0  0
 33 27  2  0  0  0  0
 34 33  1  0  0  0  0
M  END
>  <minimizedAffinity>
-5.53081131

$$$$

 OpenBabel03272508353D

 34 37  0  0  0  0  0  0  0  0999 V2000
   37.3450   26.5940   33.0560 C   0  0  0  0  0  0  0  0  0  0  0  0
   36.7940   25.8010   33.6130 H   0  0  0  0  0  0  0  0  0  0  0  0
   37.3960   26.3050   31.9780 H   0  0  0  0  0  0  0  0  0  0  0  0
   35.5770   29.5000   34.2070 C   0  0  0  0  0  0  0  0  0  0  0  0
   35.4420   29.6200   32.8370 C   0  0  0  0  0  0  0  0  0  0  0  0
   36.0820   28.5550   32.2260 C   0  0  0  0  0  0  0  0  0  0  0  0
   36.5850   27.8220   33.2460 N   0  0  0  0  0  0  0  0  0  0  0  0
   36.2850   28.3830   34.4300 N   0  0  0  0  0  0  0  0  0  0  0  0
   34.9370   30.3870   32.2430 H   0  0  0  0  0  0  0  0  0  0  0  0
   36.1730   28.3380   31.1730 H   0  0  0  0  0  0  0  0  0  0  0  0
   35.1700   32.3120   36.6750 C   0  0  0  0  0  0  0  0  0  0  0  0
   35.7980   31.4140   35.8140 C   0  0  0  0  0  0  0  0  0  0  0  0
   35.0120   30.4650   35.1170 C   0  0  0  0  0  0  0  0  0  0  0  0
   33.6700   30.4940   35.3400 N   0  0  0  0  0  0  0  0  0  0  0  0
   33.1020   31.3840   36.1840 C   0  0  0  0  0  0  0  0  0  0  0  0
   33.8500   32.2880   36.8480 N   0  0  0  0  0  0  0  0  0  0  0  0
   35.8660   32.9920   37.1540 H   0  0  0  0  0  0  0  0  0  0  0  0
   36.8590   31.3530   35.6050 H   0  0  0  0  0  0  0  0  0  0  0  0
   32.0140   31.3890   36.3490 H   0  0  0  0  0  0  0  0  0  0  0  0
   38.7420   26.7840   33.6370 C   0  0  0  0  0  0  0  0  0  0  0  0
   39.4540   26.7450   32.7850 H   0  0  0  0  0  0  0  0  0  0  0  0
   38.7850   27.7760   34.0910 H   0  0  0  0  0  0  0  0  0  0  0  0
   40.0300   24.7610   34.3370 C   0  0  0  0  0  3  0  0  0  0  0  0
   39.0400   25.6940   34.5880 C   0  0  0  0  0  0  0  0  0  0  0  0
   38.2670   25.6770   35.7350 C   0  0  0  0  0  0  0  0  0  0  0  0
   37.4920   26.4060   35.9370 H   0  0  0  0  0  0  0  0  0  0  0  0
   38.4660   24.6980   36.6890 C   0  0  0  0  0  0  0  0  0  0  0  0
   37.8640   24.4540   37.8740 N   0  0  0  0  0  0  0  0  0  0  0  0
   37.0880   25.0260   38.2750 H   0  0  0  0  0  0  0  0  0  0  0  0
   38.4390   23.3560   38.4340 C   0  0  0  0  0  0  0  0  0  0  0  0
   38.1000   22.9880   39.3930 H   0  0  0  0  0  0  0  0  0  0  0  0
   39.4180   22.9160   37.5690 C   0  0  0  0  0  3  0  0  0  0  0  0
   39.4540   23.7450   36.4630 C   0  0  0  0  0  0  0  0  0  0  0  0
   40.2080   23.7940   35.3060 C   0  0  0  0  0  3  0  0  0  0  0  0
  1  7  1  0  0  0  0
  1  2  1  0  0  0  0
  1 20  1  0  0  0  0
  3  1  1  0  0  0  0
  4  8  2  0  0  0  0
  4 13  1  0  0  0  0
  5  4  1  0  0  0  0
  6  5  2  0  0  0  0
  6  7  1  0  0  0  0
  7  8  1  0  0  0  0
  9  5  1  0  0  0  0
 10  6  1  0  0  0  0
 11 16  1  0  0  0  0
 11 17  1  0  0  0  0
 12 11  2  0  0  0  0
 13 14  2  0  0  0  0
 13 12  1  0  0  0  0
 14 15  1  0  0  0  0
 15 19  1  0  0  0  0
 15 16  2  0  0  0  0
 18 12  1  0  0  0  0
 20 22  1  0  0  0  0
 20 24  1  0  0  0  0
 21 20  1  0  0  0  0
 23 24  2  0  0  0  0
 23 34  1  0  0  0  0
 24 25  1  0  0  0  0
 25 26  1  0  0  0  0
 25 27  2  0  0  0  0
 27 28  1  0  0  0  0
 28 29  1  0  0  0  0
 28 30  1  0  0  0  0
 30 31  1  0  0  0  0
 32 30  2  0  0  0  0
 33 27  1  0  0  0  0
 33 32  1  0  0  0  0
 34 33  2  0  0  0  0
M  END
>  <minimizedAffinity>
-5.48467684

$$$$

 OpenBabel03272508353D

 34 37  0  0  0  0  0  0  0  0999 V2000
   37.4660   26.6000   33.0940 C   0  0  0  0  0  0  0  0  0  0  0  0
   36.8250   25.8120   33.5560 H   0  0  0  0  0  0  0  0  0  0  0  0
   37.6350   26.3400   32.0210 H   0  0  0  0  0  0  0  0  0  0  0  0
   35.6950   29.5490   34.1260 C   0  0  0  0  0  0  0  0  0  0  0  0
   35.6850   29.6870   32.7510 C   0  0  0  0  0  0  0  0  0  0  0  0
   36.3420   28.6090   32.1840 C   0  0  0  0  0  0  0  0  0  0  0  0
   36.7310   27.8500   33.2340 N   0  0  0  0  0  0  0  0  0  0  0  0
   36.3460   28.4070   34.3950 N   0  0  0  0  0  0  0  0  0  0  0  0
   35.2570   30.4770   32.1260 H   0  0  0  0  0  0  0  0  0  0  0  0
   36.5180   28.4000   31.1400 H   0  0  0  0  0  0  0  0  0  0  0  0
   35.1600   32.2740   36.6660 C   0  0  0  0  0  0  0  0  0  0  0  0
   35.8330   31.3590   35.8580 C   0  0  0  0  0  0  0  0  0  0  0  0
   35.0840   30.5220   34.9960 C   0  0  0  0  0  0  0  0  0  0  0  0
   33.7310   30.6700   35.0150 N   0  0  0  0  0  0  0  0  0  0  0  0
   33.1190   31.5720   35.8160 C   0  0  0  0  0  0  0  0  0  0  0  0
   33.8330   32.3690   36.6370 N   0  0  0  0  0  0  0  0  0  0  0  0
   35.8310   32.8610   37.2840 H   0  0  0  0  0  0  0  0  0  0  0  0
   36.9040   31.2050   35.8080 H   0  0  0  0  0  0  0  0  0  0  0  0
   32.0230   31.6740   35.8150 H   0  0  0  0  0  0  0  0  0  0  0  0
   38.7890   26.7200   33.8430 C   0  0  0  0  0  0  0  0  0  0  0  0
   39.5970   26.5350   33.1020 H   0  0  0  0  0  0  0  0  0  0  0  0
   38.8730   27.7430   34.2130 H   0  0  0  0  0  0  0  0  0  0  0  0
   37.8740   25.6170   35.8900 C   0  0  0  0  0  3  0  0  0  0  0  0
   38.8510   25.7050   34.9140 C   0  0  0  0  0  0  0  0  0  0  0  0
   39.9440   24.8590   34.8690 C   0  0  0  0  0  0  0  0  0  0  0  0
   40.7110   24.9230   34.1070 H   0  0  0  0  0  0  0  0  0  0  0  0
   40.0970   23.8740   35.8260 C   0  0  0  0  0  0  0  0  0  0  0  0
   41.0490   22.9340   36.0140 N   0  0  0  0  0  0  0  0  0  0  0  0
   41.8860   22.8070   35.4020 H   0  0  0  0  0  0  0  0  0  0  0  0
   40.7270   22.2040   37.1150 C   0  0  0  0  0  0  0  0  0  0  0  0
   41.3640   21.3940   37.4420 H   0  0  0  0  0  0  0  0  0  0  0  0
   39.5470   22.7100   37.6150 C   0  0  0  0  0  3  0  0  0  0  0  0
   39.1290   23.7630   36.8210 C   0  0  0  0  0  0  0  0  0  0  0  0
   38.0510   24.6250   36.8340 C   0  0  0  0  0  3  0  0  0  0  0  0
  1  7  1  0  0  0  0
  1  2  1  0  0  0  0
  1 20  1  0  0  0  0
  3  1  1  0  0  0  0
  4  8  2  0  0  0  0
  4 13  1  0  0  0  0
  5  4  1  0  0  0  0
  6  5  2  0  0  0  0
  6  7  1  0  0  0  0
  7  8  1  0  0  0  0
  9  5  1  0  0  0  0
 10  6  1  0  0  0  0
 11 17  1  0  0  0  0
 12 11  2  0  0  0  0
 13 14  2  0  0  0  0
 13 12  1  0  0  0  0
 14 15  1  0  0  0  0
 15 16  2  0  0  0  0
 16 11  1  0  0  0  0
 18 12  1  0  0  0  0
 19 15  1  0  0  0  0
 20 22  1  0  0  0  0
 20 24  1  0  0  0  0
 21 20  1  0  0  0  0
 23 34  1  0  0  0  0
 24 23  2  0  0  0  0
 25 24  1  0  0  0  0
 25 27  2  0  0  0  0
 26 25  1  0  0  0  0
 27 28  1  0  0  0  0
 27 33  1  0  0  0  0
 28 30  1  0  0  0  0
 29 28  1  0  0  0  0
 30 31  1  0  0  0  0
 30 32  2  0  0  0  0
 33 34  2  0  0  0  0
 33 32  1  0  0  0  0
M  END
>  <minimizedAffinity>
-5.45289135

$$$$

 OpenBabel03272508353D

 34 37  0  0  0  0  0  0  0  0999 V2000
   37.6680   27.5550   32.2280 C   0  0  0  0  0  0  0  0  0  0  0  0
   36.5960   27.5510   32.5370 H   0  0  0  0  0  0  0  0  0  0  0  0
   37.9960   28.6140   32.0900 H   0  0  0  0  0  0  0  0  0  0  0  0
   38.8470   25.6780   35.0540 C   0  0  0  0  0  0  0  0  0  0  0  0
   40.0130   26.2740   34.6110 C   0  0  0  0  0  0  0  0  0  0  0  0
   39.7300   27.0510   33.5020 C   0  0  0  0  0  0  0  0  0  0  0  0
   38.4000   26.9020   33.3050 N   0  0  0  0  0  0  0  0  0  0  0  0
   37.8690   26.0840   34.2300 N   0  0  0  0  0  0  0  0  0  0  0  0
   41.0320   26.2040   35.0040 H   0  0  0  0  0  0  0  0  0  0  0  0
   40.4040   27.6500   32.9090 H   0  0  0  0  0  0  0  0  0  0  0  0
   38.0050   24.1160   38.3720 C   0  0  0  0  0  0  0  0  0  0  0  0
   37.9620   25.0100   37.3040 C   0  0  0  0  0  0  0  0  0  0  0  0
   38.8240   24.8040   36.2000 C   0  0  0  0  0  0  0  0  0  0  0  0
   39.6530   23.7270   36.2570 N   0  0  0  0  0  0  0  0  0  0  0  0
   39.6610   22.8830   37.3140 C   0  0  0  0  0  0  0  0  0  0  0  0
   38.8400   23.0790   38.3660 N   0  0  0  0  0  0  0  0  0  0  0  0
   37.3040   24.3680   39.1610 H   0  0  0  0  0  0  0  0  0  0  0  0
   37.3220   25.8790   37.2140 H   0  0  0  0  0  0  0  0  0  0  0  0
   40.3400   22.0180   37.3390 H   0  0  0  0  0  0  0  0  0  0  0  0
   37.8580   26.7520   30.9460 C   0  0  0  0  0  0  0  0  0  0  0  0
   37.4500   27.3680   30.1160 H   0  0  0  0  0  0  0  0  0  0  0  0
   38.9300   26.6130   30.7930 H   0  0  0  0  0  0  0  0  0  0  0  0
   35.7490   25.4520   31.2750 C   0  0  0  0  0  3  0  0  0  0  0  0
   37.1120   25.4800   31.0370 C   0  0  0  0  0  0  0  0  0  0  0  0
   37.8670   24.3340   30.8680 C   0  0  0  0  0  0  0  0  0  0  0  0
   38.9330   24.3500   30.6820 H   0  0  0  0  0  0  0  0  0  0  0  0
   37.2650   23.0920   30.9350 C   0  0  0  0  0  0  0  0  0  0  0  0
   37.7570   21.8400   30.8100 N   0  0  0  0  0  0  0  0  0  0  0  0
   38.7590   21.6120   30.6270 H   0  0  0  0  0  0  0  0  0  0  0  0
   36.7340   20.9560   30.9620 C   0  0  0  0  0  0  0  0  0  0  0  0
   36.9160   19.8910   30.8970 H   0  0  0  0  0  0  0  0  0  0  0  0
   35.5870   21.6850   31.1860 C   0  0  0  0  0  3  0  0  0  0  0  0
   35.8950   23.0340   31.1740 C   0  0  0  0  0  0  0  0  0  0  0  0
   35.1720   24.2000   31.3370 C   0  0  0  0  0  3  0  0  0  0  0  0
  1  2  1  0  0  0  0
  1  7  1  0  0  0  0
  3  1  1  0  0  0  0
  4 13  1  0  0  0  0
  5  9  1  0  0  0  0
  5  4  1  0  0  0  0
  6  5  2  0  0  0  0
  7  6  1  0  0  0  0
  7  8  1  0  0  0  0
  8  4  2  0  0  0  0
 10  6  1  0  0  0  0
 11 17  1  0  0  0  0
 12 11  2  0  0  0  0
 13 14  2  0  0  0  0
 13 12  1  0  0  0  0
 14 15  1  0  0  0  0
 15 19  1  0  0  0  0
 15 16  2  0  0  0  0
 16 11  1  0  0  0  0
 18 12  1  0  0  0  0
 20 24  1  0  0  0  0
 20  1  1  0  0  0  0
 21 20  1  0  0  0  0
 22 20  1  0  0  0  0
 23 34  1  0  0  0  0
 24 23  2  0  0  0  0
 25 27  2  0  0  0  0
 25 24  1  0  0  0  0
 26 25  1  0  0  0  0
 27 33  1  0  0  0  0
 28 27  1  0  0  0  0
 28 30  1  0  0  0  0
 29 28  1  0  0  0  0
 30 32  2  0  0  0  0
 31 30  1  0  0  0  0
 33 32  1  0  0  0  0
 33 34  2  0  0  0  0
M  END
>  <minimizedAffinity>
-5.45154762

$$$$

 OpenBabel03272508353D

 34 37  0  0  0  0  0  0  0  0999 V2000
   38.4320   26.6930   35.8060 C   0  0  0  0  0  0  0  0  0  0  0  0
   39.5380   26.8360   35.7740 H   0  0  0  0  0  0  0  0  0  0  0  0
   38.0210   27.2660   36.6720 H   0  0  0  0  0  0  0  0  0  0  0  0
   37.8030   27.7450   32.4300 C   0  0  0  0  0  0  0  0  0  0  0  0
   36.6180   28.0890   33.0520 C   0  0  0  0  0  0  0  0  0  0  0  0
   36.6930   27.7440   34.3900 C   0  0  0  0  0  0  0  0  0  0  0  0
   37.9240   27.2000   34.5380 N   0  0  0  0  0  0  0  0  0  0  0  0
   38.5890   27.1990   33.3700 N   0  0  0  0  0  0  0  0  0  0  0  0
   35.7180   28.5570   32.6420 H   0  0  0  0  0  0  0  0  0  0  0  0
   35.9500   27.8700   35.1620 H   0  0  0  0  0  0  0  0  0  0  0  0
   39.1980   27.6300   28.9360 C   0  0  0  0  0  0  0  0  0  0  0  0
   39.0540   27.3430   30.2920 C   0  0  0  0  0  0  0  0  0  0  0  0
   38.0250   27.9820   31.0260 C   0  0  0  0  0  0  0  0  0  0  0  0
   37.2310   28.8510   30.3430 N   0  0  0  0  0  0  0  0  0  0  0  0
   37.4060   29.1010   29.0260 C   0  0  0  0  0  0  0  0  0  0  0  0
   38.3860   28.4920   28.3280 N   0  0  0  0  0  0  0  0  0  0  0  0
   40.0150   27.0850   28.4750 H   0  0  0  0  0  0  0  0  0  0  0  0
   39.6590   26.6600   30.8770 H   0  0  0  0  0  0  0  0  0  0  0  0
   36.7520   29.8090   28.4950 H   0  0  0  0  0  0  0  0  0  0  0  0
   38.0870   25.2120   35.9170 C   0  0  0  0  0  0  0  0  0  0  0  0
   37.5270   25.0820   36.8680 H   0  0  0  0  0  0  0  0  0  0  0  0
   37.4340   24.9550   35.0810 H   0  0  0  0  0  0  0  0  0  0  0  0
   40.3850   24.6680   35.0990 C   0  0  0  0  0  3  0  0  0  0  0  0
   39.3280   24.4120   35.9550 C   0  0  0  0  0  0  0  0  0  0  0  0
   39.3560   23.4010   36.8980 C   0  0  0  0  0  0  0  0  0  0  0  0
   38.5320   23.1960   37.5700 H   0  0  0  0  0  0  0  0  0  0  0  0
   40.4700   22.5930   37.0150 C   0  0  0  0  0  0  0  0  0  0  0  0
   40.7540   21.5550   37.8330 N   0  0  0  0  0  0  0  0  0  0  0  0
   40.1080   21.1810   38.5630 H   0  0  0  0  0  0  0  0  0  0  0  0
   42.0020   21.1010   37.5390 C   0  0  0  0  0  0  0  0  0  0  0  0
   42.4250   20.2670   38.0830 H   0  0  0  0  0  0  0  0  0  0  0  0
   42.4950   21.8800   36.5140 C   0  0  0  0  0  3  0  0  0  0  0  0
   41.5480   22.8270   36.1670 C   0  0  0  0  0  0  0  0  0  0  0  0
   41.4860   23.8470   35.2370 C   0  0  0  0  0  3  0  0  0  0  0  0
  1 20  1  0  0  0  0
  1  3  1  0  0  0  0
  2  1  1  0  0  0  0
  4  5  1  0  0  0  0
  4  8  2  0  0  0  0
  5  6  2  0  0  0  0
  6  7  1  0  0  0  0
  6 10  1  0  0  0  0
  7  1  1  0  0  0  0
  8  7  1  0  0  0  0
  9  5  1  0  0  0  0
 11 12  1  0  0  0  0
 12 18  1  0  0  0  0
 12 13  2  0  0  0  0
 13  4  1  0  0  0  0
 14 13  1  0  0  0  0
 15 14  2  0  0  0  0
 16 11  2  0  0  0  0
 16 15  1  0  0  0  0
 17 11  1  0  0  0  0
 19 15  1  0  0  0  0
 20 24  1  0  0  0  0
 20 21  1  0  0  0  0
 22 20  1  0  0  0  0
 23 34  2  0  0  0  0
 23 24  1  0  0  0  0
 24 25  2  0  0  0  0
 25 27  1  0  0  0  0
 25 26  1  0  0  0  0
 27 28  1  0  0  0  0
 28 29  1  0  0  0  0
 30 28  1  0  0  0  0
 30 31  1  0  0  0  0
 32 30  2  0  0  0  0
 33 32  1  0  0  0  0
 33 27  2  0  0  0  0
 34 33  1  0  0  0  0
M  END
>  <minimizedAffinity>
-5.4477253

$$$$

 OpenBabel03272508353D

 34 37  0  0  0  0  0  0  0  0999 V2000
   39.0400   25.8780   32.3380 C   0  0  0  0  0  0  0  0  0  0  0  0
   39.5440   26.0400   31.3560 H   0  0  0  0  0  0  0  0  0  0  0  0
   38.6790   26.8630   32.7220 H   0  0  0  0  0  0  0  0  0  0  0  0
   36.8020   23.1300   31.7610 C   0  0  0  0  0  0  0  0  0  0  0  0
   35.9450   24.2100   31.6590 C   0  0  0  0  0  0  0  0  0  0  0  0
   36.6630   25.3760   31.8600 C   0  0  0  0  0  0  0  0  0  0  0  0
   37.9340   24.9660   32.0780 N   0  0  0  0  0  0  0  0  0  0  0  0
   38.0210   23.6260   32.0190 N   0  0  0  0  0  0  0  0  0  0  0  0
   34.8700   24.2400   31.4580 H   0  0  0  0  0  0  0  0  0  0  0  0
   36.3100   26.3950   31.8510 H   0  0  0  0  0  0  0  0  0  0  0  0
   34.8010   19.9520   32.0160 C   0  0  0  0  0  0  0  0  0  0  0  0
   35.1740   21.2780   32.2280 C   0  0  0  0  0  0  0  0  0  0  0  0
   36.3420   21.7730   31.5980 C   0  0  0  0  0  0  0  0  0  0  0  0
   37.0340   20.9040   30.8140 N   0  0  0  0  0  0  0  0  0  0  0  0
   36.6360   19.6240   30.6350 C   0  0  0  0  0  0  0  0  0  0  0  0
   35.5240   19.1520   31.2350 N   0  0  0  0  0  0  0  0  0  0  0  0
   33.8940   19.6810   32.5460 H   0  0  0  0  0  0  0  0  0  0  0  0
   34.6570   22.0060   32.8420 H   0  0  0  0  0  0  0  0  0  0  0  0
   37.2120   18.9380   29.9960 H   0  0  0  0  0  0  0  0  0  0  0  0
   39.9960   25.2230   33.3280 C   0  0  0  0  0  0  0  0  0  0  0  0
   40.1740   24.1860   32.9680 H   0  0  0  0  0  0  0  0  0  0  0  0
   40.9380   25.7750   33.3010 H   0  0  0  0  0  0  0  0  0  0  0  0
   38.7520   26.2940   35.2110 C   0  0  0  0  0  3  0  0  0  0  0  0
   39.3800   25.1860   34.6700 C   0  0  0  0  0  0  0  0  0  0  0  0
   39.4740   23.9780   35.3360 C   0  0  0  0  0  0  0  0  0  0  0  0
   39.9640   23.1080   34.9160 H   0  0  0  0  0  0  0  0  0  0  0  0
   38.9300   23.8390   36.5970 C   0  0  0  0  0  0  0  0  0  0  0  0
   38.8830   22.7930   37.4530 N   0  0  0  0  0  0  0  0  0  0  0  0
   39.2900   21.8510   37.2610 H   0  0  0  0  0  0  0  0  0  0  0  0
   38.2240   23.1830   38.5770 C   0  0  0  0  0  0  0  0  0  0  0  0
   38.0760   22.4890   39.3940 H   0  0  0  0  0  0  0  0  0  0  0  0
   37.8590   24.5010   38.4070 C   0  0  0  0  0  3  0  0  0  0  0  0
   38.2930   24.9370   37.1680 C   0  0  0  0  0  0  0  0  0  0  0  0
   38.2170   26.1280   36.4730 C   0  0  0  0  0  3  0  0  0  0  0  0
  1  3  1  0  0  0  0
  1 20  1  0  0  0  0
  2  1  1  0  0  0  0
  4  8  2  0  0  0  0
  5  4  1  0  0  0  0
  5  6  2  0  0  0  0
  6  7  1  0  0  0  0
  7  1  1  0  0  0  0
  8  7  1  0  0  0  0
  9  5  1  0  0  0  0
 10  6  1  0  0  0  0
 11 12  1  0  0  0  0
 11 17  1  0  0  0  0
 12 18  1  0  0  0  0
 13  4  1  0  0  0  0
 13 12  2  0  0  0  0
 14 13  1  0  0  0  0
 15 14  2  0  0  0  0
 15 16  1  0  0  0  0
 16 11  2  0  0  0  0
 19 15  1  0  0  0  0
 20 24  1  0  0  0  0
 21 20  1  0  0  0  0
 22 20  1  0  0  0  0
 23 34  1  0  0  0  0
 24 23  2  0  0  0  0
 24 25  1  0  0  0  0
 25 27  2  0  0  0  0
 26 25  1  0  0  0  0
 27 33  1  0  0  0  0
 27 28  1  0  0  0  0
 28 30  1  0  0  0  0
 29 28  1  0  0  0  0
 30 31  1  0  0  0  0
 32 30  2  0  0  0  0
 33 32  1  0  0  0  0
 34 33  2  0  0  0  0
M  END
>  <minimizedAffinity>
-5.44050217

$$$$
