
     RDKit          3D

 39 42  0  0  0  0  0  0  0  0999 V2000
   33.7260   28.6057   48.7012 C   0  0  0  0  0  0  0  0  0  0  0  0
   32.8163   27.4621   48.3433 C   0  0  0  0  0  0  0  0  0  0  0  0
   31.3824   27.8603   48.3503 C   0  0  0  0  0  0  0  0  0  0  0  0
   30.6988   27.7215   49.5315 C   0  0  0  0  0  0  0  0  0  0  0  0
   29.3661   28.0610   49.6479 C   0  0  0  0  0  0  0  0  0  0  0  0
   28.7179   28.5387   48.5843 N   0  0  0  0  0  0  0  0  0  0  0  0
   29.3903   28.6741   47.4262 C   0  0  0  0  0  0  0  0  0  0  0  0
   30.6882   28.3514   47.2847 N   0  0  0  0  0  0  0  0  0  0  0  0
   34.6059   28.2241   49.7593 O   0  0  0  0  0  0  0  0  0  0  0  0
   37.2297   30.1884   51.2918 C   0  0  0  0  0  0  0  0  0  0  0  0
   37.9058   30.6159   50.1382 C   0  0  0  0  0  0  0  0  0  0  0  0
   37.4391   30.2177   48.9049 C   0  0  0  0  0  0  0  0  0  0  0  0
   36.3294   29.4186   48.8781 N   0  0  0  0  0  0  0  0  0  0  0  0
   35.6951   29.0193   49.9974 C   0  0  0  0  0  0  0  0  0  0  0  0
   36.1590   29.4142   51.2039 N   0  0  0  0  0  0  0  0  0  0  0  0
   34.3524   28.9691   47.8778 H   0  0  0  0  0  0  0  0  0  0  0  0
   33.0709   29.4404   49.0738 H   0  0  0  0  0  0  0  0  0  0  0  0
   32.9683   26.5758   48.9791 H   0  0  0  0  0  0  0  0  0  0  0  0
   33.0646   27.1941   47.2879 H   0  0  0  0  0  0  0  0  0  0  0  0
   31.1466   27.3450   50.4331 H   0  0  0  0  0  0  0  0  0  0  0  0
   28.8232   27.9476   50.5974 H   0  0  0  0  0  0  0  0  0  0  0  0
   28.8433   29.0633   46.5786 H   0  0  0  0  0  0  0  0  0  0  0  0
   37.5832   30.4918   52.2614 H   0  0  0  0  0  0  0  0  0  0  0  0
   38.7622   31.2350   50.2049 H   0  0  0  0  0  0  0  0  0  0  0  0
   39.2301   29.9677   47.2976 C   0  0  0  0  0  0  0  0  0  0  0  0
   38.0560   30.5969   47.6380 C   0  0  0  0  0  0  0  0  0  0  0  0
   37.5007   31.5280   46.8276 C   0  0  0  0  0  0  0  0  0  0  0  0
   36.5976   32.0367   47.0515 H   0  0  0  0  0  0  0  0  0  0  0  0
   38.0854   31.8809   45.6369 C   0  0  0  0  0  0  0  0  0  0  0  0
   37.7654   32.7536   44.6548 N   0  0  0  0  0  0  0  0  0  0  0  0
   36.9197   33.3584   44.6671 H   0  0  0  0  0  0  0  0  0  0  0  0
   38.6711   32.7428   43.6647 C   0  0  0  0  0  0  0  0  0  0  0  0
   38.6135   33.3606   42.7817 H   0  0  0  0  0  0  0  0  0  0  0  0
   39.6297   31.8164   44.0195 C   0  0  0  0  0  0  0  0  0  0  0  0
   39.2743   31.2792   45.2379 C   0  0  0  0  0  0  0  0  0  0  0  0
   39.8218   30.3254   46.0919 C   0  0  0  0  0  0  0  0  0  0  0  0
   39.7506   29.2141   47.8746 H   0  0  0  0  0  0  0  0  0  0  0  0
   40.5066   31.5443   43.4622 H   0  0  0  0  0  0  0  0  0  0  0  0
   40.7597   29.8994   45.7026 H   0  0  0  0  0  0  0  0  0  0  0  0
  1  9  1  0
  2  1  1  0
  3  2  1  0
  3  4  2  0
  4  5  1  0
  6  5  2  0
  7  6  1  0
  8  7  2  0
  8  3  1  0
  9 14  1  0
 11 10  2  0
 12 11  1  0
 13 12  2  0
 13 14  1  0
 14 15  2  0
 15 10  1  0
  1 16  1  0
  1 17  1  0
  2 18  1  0
  2 19  1  0
  4 20  1  0
  5 21  1  0
  7 22  1  0
 10 23  1  0
 11 24  1  0
 25 26  2  0
 26 27  1  0
 27 28  1  0
 27 29  2  0
 29 30  1  0
 30 31  1  0
 30 32  1  0
 32 33  1  0
 32 34  2  0
 34 35  1  0
 35 36  2  0
 36 25  1  0
 35 29  1  0
 25 37  1  0
 34 38  1  0
 36 39  1  0
 12 26  1  0
M  ISO  8  16   8  17   8  18   8  19   8  20  14  21  14  22  14  23  14
M  ISO  4  24  14  28  15  31   5  33  14
M  END
>  <DihAtoms>  (1) 
10,11,25,24

>  <DihDeg>  (1) 
-179.99875565445785

$$$$
