
 OpenBabel03272510193D

 39 43  0  0  0  0  0  0  0  0999 V2000
   32.8070   29.2810   46.8180 C   0  0  0  0  0  0  0  0  0  0  0  0
   31.9130   28.2490   46.6800 C   0  0  0  0  0  0  0  0  0  0  0  0
   30.8690   28.2800   45.7690 C   0  0  0  0  0  0  0  0  0  0  0  0
   30.7080   29.3480   44.9820 N   0  0  0  0  0  0  0  0  0  0  0  0
   31.5730   30.3620   45.1050 C   0  0  0  0  0  0  0  0  0  0  0  0
   32.5730   30.3130   45.9910 N   0  0  0  0  0  0  0  0  0  0  0  0
   32.0330   27.3670   47.3200 H   0  0  0  0  0  0  0  0  0  0  0  0
   30.1860   27.4260   45.7040 H   0  0  0  0  0  0  0  0  0  0  0  0
   32.5710   32.2670   43.8370 C   0  0  0  0  0  3  0  0  0  0  0  0
   31.4710   31.5680   44.2850 C   0  0  0  0  0  0  0  0  0  0  0  0
   30.2450   32.1080   43.8890 C   0  0  0  0  0  0  0  0  0  0  0  0
   29.3650   31.5530   44.2440 H   0  0  0  0  0  0  0  0  0  0  0  0
   30.1420   33.2420   43.1180 C   0  0  0  0  0  0  0  0  0  0  0  0
   29.0210   33.8320   42.6890 N   0  0  0  0  0  0  0  0  0  0  0  0
   28.0250   33.5300   42.8720 H   0  0  0  0  0  0  0  0  0  0  0  0
   29.4160   34.8920   41.9810 C   0  0  0  0  0  0  0  0  0  0  0  0
   28.7470   35.5870   41.4930 H   0  0  0  0  0  0  0  0  0  0  0  0
   30.8120   34.9740   41.9600 C   0  0  0  0  0  3  0  0  0  0  0  0
   31.2740   33.8960   42.7010 C   0  0  0  0  0  0  0  0  0  0  0  0
   32.5130   33.4050   43.0640 C   0  0  0  0  0  3  0  0  0  0  0  0
   37.4260   29.2130   50.8560 Br  0  0  0  0  0  0  0  0  0  0  0  0
   36.0110   29.2710   49.5810 C   0  0  0  0  0  0  0  0  0  0  0  0
   35.9850   30.2510   48.5910 C   0  0  0  0  0  0  0  0  0  0  0  0
   34.9360   30.2350   47.7070 C   0  0  0  0  0  0  0  0  0  0  0  0
   33.9160   29.2930   47.7590 C   0  0  0  0  0  0  0  0  0  0  0  0
   33.9720   28.3480   48.7400 C   0  0  0  0  0  0  0  0  0  0  0  0
   35.0160   28.3500   49.6340 C   0  0  0  0  0  0  0  0  0  0  0  0
   34.8490   30.9760   46.9000 H   0  0  0  0  0  0  0  0  0  0  0  0
   33.2130   27.5800   48.8460 H   0  0  0  0  0  0  0  0  0  0  0  0
   35.0530   27.6030   50.4030 H   0  0  0  0  0  0  0  0  0  0  0  0
   38.0120   33.1760   49.4160 C   0  0  0  0  0  0  0  0  0  0  0  0
   39.0100   33.1810   48.3980 C   0  0  0  0  0  0  0  0  0  0  0  0
   38.9640   32.1770   47.4510 C   0  0  0  0  0  0  0  0  0  0  0  0
   37.9730   31.2380   47.5340 N   0  0  0  0  0  0  0  0  0  0  0  0
   37.0360   31.2510   48.5080 C   0  0  0  0  0  0  0  0  0  0  0  0
   37.0710   32.2300   49.4410 N   0  0  0  0  0  0  0  0  0  0  0  0
   38.0910   33.9800   50.1330 H   0  0  0  0  0  0  0  0  0  0  0  0
   39.8000   33.9000   48.3020 H   0  0  0  0  0  0  0  0  0  0  0  0
   39.6550   32.0650   46.6320 H   0  0  0  0  0  0  0  0  0  0  0  0
  1 25  1  0  0  0  0
  2  1  1  0  0  0  0
  2  7  1  0  0  0  0
  3  2  2  0  0  0  0
  4  5  2  0  0  0  0
  4  3  1  0  0  0  0
  5  6  1  0  0  0  0
  6  1  2  0  0  0  0
  8  3  1  0  0  0  0
  9 10  1  0  0  0  0
 10  5  1  0  0  0  0
 11 12  1  0  0  0  0
 11 10  2  0  0  0  0
 13 11  1  0  0  0  0
 14 15  1  0  0  0  0
 14 13  1  0  0  0  0
 16 14  1  0  0  0  0
 17 16  1  0  0  0  0
 18 16  2  0  0  0  0
 18 19  1  0  0  0  0
 19 20  1  0  0  0  0
 19 13  2  0  0  0  0
 20  9  2  0  0  0  0
 22 27  1  0  0  0  0
 22 21  1  0  0  0  0
 23 22  2  0  0  0  0
 24 25  2  0  0  0  0
 24 23  1  0  0  0  0
 25 26  1  0  0  0  0
 26 29  1  0  0  0  0
 26 27  2  0  0  0  0
 27 30  1  0  0  0  0
 28 24  1  0  0  0  0
 31 36  1  0  0  0  0
 31 37  1  0  0  0  0
 32 31  2  0  0  0  0
 33 34  2  0  0  0  0
 33 32  1  0  0  0  0
 34 35  1  0  0  0  0
 35 23  1  0  0  0  0
 35 36  2  0  0  0  0
 38 32  1  0  0  0  0
 39 33  1  0  0  0  0
M  END
>  <minimizedAffinity>
-7.02955198

>  <minimizedRMSD>
0.592573881

$$$$
