
 OpenBabel03262523073D

 44 49  0  0  0  0  0  0  0  0999 V2000
   36.2890   25.8910   31.7080 C   0  0  0  0  0  0  0  0  0  0  0  0
   35.4150   25.0920   31.0060 C   0  0  0  0  0  0  0  0  0  0  0  0
   35.5120   23.7320   31.1380 C   0  0  0  0  0  0  0  0  0  0  0  0
   36.4610   23.1940   31.9500 N   0  0  0  0  0  0  0  0  0  0  0  0
   37.2870   24.0030   32.6120 C   0  0  0  0  0  0  0  0  0  0  0  0
   37.2130   25.3430   32.5010 N   0  0  0  0  0  0  0  0  0  0  0  0
   34.6610   25.5270   30.3600 H   0  0  0  0  0  0  0  0  0  0  0  0
   34.8630   23.0390   30.6200 H   0  0  0  0  0  0  0  0  0  0  0  0
   38.3110   23.4380   33.4890 C   0  0  0  0  0  0  0  0  0  0  0  0
   39.3660   22.7110   32.9950 C   0  0  0  0  0  0  0  0  0  0  0  0
   40.3890   22.1290   33.7040 C   0  0  0  0  0  0  0  0  0  0  0  0
   40.3120   22.3200   35.0690 C   0  0  0  0  0  0  0  0  0  0  0  0
   41.2800   21.7810   35.8480 N   0  0  0  0  0  0  0  0  0  0  0  0
   41.2950   21.9100   37.1950 C   0  0  0  0  0  0  0  0  0  0  0  0
   40.2840   22.6210   37.8120 C   0  0  0  0  0  0  0  0  0  0  0  0
   39.2910   23.1760   37.0230 C   0  0  0  0  0  0  0  0  0  0  0  0
   39.2740   23.0440   35.6400 C   0  0  0  0  0  0  0  0  0  0  0  0
   38.2780   23.6010   34.8650 C   0  0  0  0  0  0  0  0  0  0  0  0
   39.3730   22.5950   31.9090 H   0  0  0  0  0  0  0  0  0  0  0  0
   41.1770   21.5750   33.2130 H   0  0  0  0  0  0  0  0  0  0  0  0
   42.0660   21.4810   37.8200 H   0  0  0  0  0  0  0  0  0  0  0  0
   40.2740   22.7370   38.8790 H   0  0  0  0  0  0  0  0  0  0  0  0
   38.4900   23.7360   37.4820 H   0  0  0  0  0  0  0  0  0  0  0  0
   37.4740   24.1620   35.3210 H   0  0  0  0  0  0  0  0  0  0  0  0
   36.5670   29.3420   30.4620 C   0  0  0  0  0  0  0  0  0  0  0  0
   36.0100   30.0840   31.5170 C   0  0  0  0  0  0  0  0  0  0  0  0
   35.5440   29.3820   32.6490 C   0  0  0  0  0  0  0  0  0  0  0  0
   35.6710   28.0370   32.6290 N   0  0  0  0  0  0  0  0  0  0  0  0
   36.2150   27.3470   31.5920 C   0  0  0  0  0  0  0  0  0  0  0  0
   36.6580   28.0070   30.5180 N   0  0  0  0  0  0  0  0  0  0  0  0
   36.9230   29.8830   29.6000 H   0  0  0  0  0  0  0  0  0  0  0  0
   35.9210   31.1410   31.5110 H   0  0  0  0  0  0  0  0  0  0  0  0
   33.6330   29.6960   34.0780 C   0  0  0  0  0  3  0  0  0  0  0  0
   34.9450   30.0220   33.8130 C   0  0  0  0  0  0  0  0  0  0  0  0
   35.6390   30.9050   34.6100 C   0  0  0  0  0  0  0  0  0  0  0  0
   36.6510   31.1630   34.4140 H   0  0  0  0  0  0  0  0  0  0  0  0
   34.9980   31.4710   35.6950 C   0  0  0  0  0  0  0  0  0  0  0  0
   35.4480   32.3400   36.6030 N   0  0  0  0  0  0  0  0  0  0  0  0
   36.4010   32.7650   36.6590 H   0  0  0  0  0  0  0  0  0  0  0  0
   34.4970   32.6400   37.5040 C   0  0  0  0  0  0  0  0  0  0  0  0
   34.5740   33.3050   38.3390 H   0  0  0  0  0  0  0  0  0  0  0  0
   33.4010   31.9030   37.1130 C   0  0  0  0  0  3  0  0  0  0  0  0
   33.6850   31.1540   35.9740 C   0  0  0  0  0  0  0  0  0  0  0  0
   32.9910   30.2680   35.1710 C   0  0  0  0  0  3  0  0  0  0  0  0
  1  6  1  0  0  0  0
  2  3  1  0  0  0  0
  2  1  2  0  0  0  0
  3  4  2  0  0  0  0
  4  5  1  0  0  0  0
  5  9  1  0  0  0  0
  6  5  2  0  0  0  0
  7  2  1  0  0  0  0
  8  3  1  0  0  0  0
  9 18  1  0  0  0  0
 10  9  2  0  0  0  0
 10 11  1  0  0  0  0
 11 12  2  0  0  0  0
 12 17  1  0  0  0  0
 12 13  1  0  0  0  0
 13 14  2  0  0  0  0
 14 15  1  0  0  0  0
 14 21  1  0  0  0  0
 15 22  1  0  0  0  0
 16 23  1  0  0  0  0
 16 15  2  0  0  0  0
 17 16  1  0  0  0  0
 18 24  1  0  0  0  0
 18 17  2  0  0  0  0
 19 10  1  0  0  0  0
 20 11  1  0  0  0  0
 25 30  2  0  0  0  0
 25 26  1  0  0  0  0
 26 27  2  0  0  0  0
 27 34  1  0  0  0  0
 28 27  1  0  0  0  0
 29  1  1  0  0  0  0
 29 28  2  0  0  0  0
 30 29  1  0  0  0  0
 31 25  1  0  0  0  0
 32 26  1  0  0  0  0
 33 44  1  0  0  0  0
 34 33  2  0  0  0  0
 34 35  1  0  0  0  0
 35 37  2  0  0  0  0
 36 35  1  0  0  0  0
 37 43  1  0  0  0  0
 37 38  1  0  0  0  0
 38 39  1  0  0  0  0
 38 40  1  0  0  0  0
 40 41  1  0  0  0  0
 42 40  2  0  0  0  0
 43 42  1  0  0  0  0
 44 43  2  0  0  0  0
M  END
>  <minimizedAffinity>
-7.55203629

$$$$

 OpenBabel03262523073D

 44 49  0  0  0  0  0  0  0  0999 V2000
   36.4730   27.2730   31.6240 C   0  0  0  0  0  0  0  0  0  0  0  0
   36.8280   27.9500   30.4790 C   0  0  0  0  0  0  0  0  0  0  0  0
   36.5450   29.2870   30.3890 C   0  0  0  0  0  0  0  0  0  0  0  0
   35.9250   29.9230   31.4180 N   0  0  0  0  0  0  0  0  0  0  0  0
   35.6000   29.2300   32.5100 C   0  0  0  0  0  0  0  0  0  0  0  0
   35.8650   27.9160   32.6250 N   0  0  0  0  0  0  0  0  0  0  0  0
   37.3210   27.4370   29.6620 H   0  0  0  0  0  0  0  0  0  0  0  0
   36.7920   29.8870   29.5230 H   0  0  0  0  0  0  0  0  0  0  0  0
   34.9330   29.9010   33.6240 C   0  0  0  0  0  0  0  0  0  0  0  0
   33.6670   29.5530   34.0260 C   0  0  0  0  0  0  0  0  0  0  0  0
   32.9320   30.0990   35.0500 C   0  0  0  0  0  0  0  0  0  0  0  0
   33.5750   31.1130   35.7310 C   0  0  0  0  0  0  0  0  0  0  0  0
   32.9250   31.7100   36.7590 N   0  0  0  0  0  0  0  0  0  0  0  0
   33.4670   32.7130   37.4870 C   0  0  0  0  0  0  0  0  0  0  0  0
   34.7390   33.1540   37.1790 C   0  0  0  0  0  0  0  0  0  0  0  0
   35.4120   32.5490   36.1300 C   0  0  0  0  0  0  0  0  0  0  0  0
   34.8560   31.5190   35.3810 C   0  0  0  0  0  0  0  0  0  0  0  0
   35.5360   30.9250   34.3390 C   0  0  0  0  0  0  0  0  0  0  0  0
   33.2100   28.7450   33.4500 H   0  0  0  0  0  0  0  0  0  0  0  0
   31.9370   29.7470   35.2860 H   0  0  0  0  0  0  0  0  0  0  0  0
   32.9500   33.1910   38.3080 H   0  0  0  0  0  0  0  0  0  0  0  0
   35.1910   33.9480   37.7420 H   0  0  0  0  0  0  0  0  0  0  0  0
   36.4070   32.8760   35.8700 H   0  0  0  0  0  0  0  0  0  0  0  0
   36.5340   31.2500   34.0740 H   0  0  0  0  0  0  0  0  0  0  0  0
   36.7250   23.6590   30.9820 C   0  0  0  0  0  0  0  0  0  0  0  0
   37.3560   23.1930   32.1480 C   0  0  0  0  0  0  0  0  0  0  0  0
   37.6870   24.1360   33.1450 C   0  0  0  0  0  0  0  0  0  0  0  0
   37.3690   25.4260   32.8970 N   0  0  0  0  0  0  0  0  0  0  0  0
   36.7580   25.8440   31.7580 C   0  0  0  0  0  0  0  0  0  0  0  0
   36.4430   24.9570   30.8110 N   0  0  0  0  0  0  0  0  0  0  0  0
   36.4730   22.9350   30.2240 H   0  0  0  0  0  0  0  0  0  0  0  0
   37.5960   22.1750   32.3210 H   0  0  0  0  0  0  0  0  0  0  0  0
   37.8980   24.4640   35.5200 C   0  0  0  0  0  3  0  0  0  0  0  0
   38.3420   23.7940   34.4010 C   0  0  0  0  0  0  0  0  0  0  0  0
   39.3490   22.8580   34.4790 C   0  0  0  0  0  0  0  0  0  0  0  0
   39.6990   22.3370   33.6210 H   0  0  0  0  0  0  0  0  0  0  0  0
   39.9200   22.5920   35.7070 C   0  0  0  0  0  0  0  0  0  0  0  0
   40.8950   21.7420   36.0380 N   0  0  0  0  0  0  0  0  0  0  0  0
   41.4230   21.1010   35.4020 H   0  0  0  0  0  0  0  0  0  0  0  0
   41.1580   21.7870   37.3550 C   0  0  0  0  0  0  0  0  0  0  0  0
   41.8850   21.2200   37.8970 H   0  0  0  0  0  0  0  0  0  0  0  0
   40.2820   22.7270   37.8520 C   0  0  0  0  0  3  0  0  0  0  0  0
   39.4860   23.2540   36.8370 C   0  0  0  0  0  0  0  0  0  0  0  0
   38.4760   24.1930   36.7560 C   0  0  0  0  0  3  0  0  0  0  0  0
  1 29  1  0  0  0  0
  1  6  1  0  0  0  0
  2  1  2  0  0  0  0
  3  2  1  0  0  0  0
  3  4  2  0  0  0  0
  4  5  1  0  0  0  0
  5  6  2  0  0  0  0
  5  9  1  0  0  0  0
  7  2  1  0  0  0  0
  8  3  1  0  0  0  0
  9 10  2  0  0  0  0
  9 18  1  0  0  0  0
 10 11  1  0  0  0  0
 11 20  1  0  0  0  0
 11 12  2  0  0  0  0
 12 13  1  0  0  0  0
 13 14  2  0  0  0  0
 14 21  1  0  0  0  0
 15 14  1  0  0  0  0
 15 22  1  0  0  0  0
 16 15  2  0  0  0  0
 17 12  1  0  0  0  0
 17 16  1  0  0  0  0
 18 17  2  0  0  0  0
 19 10  1  0  0  0  0
 23 16  1  0  0  0  0
 24 18  1  0  0  0  0
 25 26  1  0  0  0  0
 26 32  1  0  0  0  0
 26 27  2  0  0  0  0
 27 34  1  0  0  0  0
 28 27  1  0  0  0  0
 29 28  2  0  0  0  0
 30 25  2  0  0  0  0
 30 29  1  0  0  0  0
 31 25  1  0  0  0  0
 33 44  1  0  0  0  0
 34 35  1  0  0  0  0
 34 33  2  0  0  0  0
 35 37  2  0  0  0  0
 36 35  1  0  0  0  0
 37 38  1  0  0  0  0
 37 43  1  0  0  0  0
 38 40  1  0  0  0  0
 39 38  1  0  0  0  0
 40 42  2  0  0  0  0
 40 41  1  0  0  0  0
 43 42  1  0  0  0  0
 44 43  2  0  0  0  0
M  END
>  <minimizedAffinity>
-7.38911486

$$$$

 OpenBabel03262523073D

 44 49  0  0  0  0  0  0  0  0999 V2000
   36.9120   27.1110   31.3280 C   0  0  0  0  0  0  0  0  0  0  0  0
   37.2060   27.8150   30.1820 C   0  0  0  0  0  0  0  0  0  0  0  0
   36.7690   29.1080   30.0700 C   0  0  0  0  0  0  0  0  0  0  0  0
   36.0580   29.6750   31.0810 N   0  0  0  0  0  0  0  0  0  0  0  0
   35.7960   28.9600   32.1740 C   0  0  0  0  0  0  0  0  0  0  0  0
   36.2120   27.6870   32.3100 N   0  0  0  0  0  0  0  0  0  0  0  0
   37.7730   27.3570   29.3800 H   0  0  0  0  0  0  0  0  0  0  0  0
   36.9600   29.7250   29.2020 H   0  0  0  0  0  0  0  0  0  0  0  0
   35.0320   29.5570   33.2680 C   0  0  0  0  0  0  0  0  0  0  0  0
   33.6870   29.3320   33.4190 C   0  0  0  0  0  0  0  0  0  0  0  0
   32.8580   29.8290   34.3960 C   0  0  0  0  0  0  0  0  0  0  0  0
   33.4880   30.6450   35.3130 C   0  0  0  0  0  0  0  0  0  0  0  0
   32.7470   31.1800   36.3140 N   0  0  0  0  0  0  0  0  0  0  0  0
   33.2690   31.9910   37.2610 C   0  0  0  0  0  0  0  0  0  0  0  0
   34.6170   32.2940   37.2170 C   0  0  0  0  0  0  0  0  0  0  0  0
   35.3820   31.7520   36.1980 C   0  0  0  0  0  0  0  0  0  0  0  0
   34.8460   30.9180   35.2240 C   0  0  0  0  0  0  0  0  0  0  0  0
   35.6200   30.3840   34.2140 C   0  0  0  0  0  0  0  0  0  0  0  0
   33.2440   28.6790   32.6640 H   0  0  0  0  0  0  0  0  0  0  0  0
   31.8040   29.5860   34.4250 H   0  0  0  0  0  0  0  0  0  0  0  0
   32.6810   32.4200   38.0600 H   0  0  0  0  0  0  0  0  0  0  0  0
   35.0550   32.9360   37.9570 H   0  0  0  0  0  0  0  0  0  0  0  0
   36.4370   31.9730   36.1410 H   0  0  0  0  0  0  0  0  0  0  0  0
   36.6770   30.6040   34.1540 H   0  0  0  0  0  0  0  0  0  0  0  0
   37.8290   23.6120   30.6570 C   0  0  0  0  0  0  0  0  0  0  0  0
   38.2270   23.1610   31.9270 C   0  0  0  0  0  0  0  0  0  0  0  0
   38.1730   24.0730   33.0020 C   0  0  0  0  0  0  0  0  0  0  0  0
   37.7400   25.3220   32.7240 N   0  0  0  0  0  0  0  0  0  0  0  0
   37.3610   25.7280   31.4830 C   0  0  0  0  0  0  0  0  0  0  0  0
   37.4100   24.8690   30.4620 N   0  0  0  0  0  0  0  0  0  0  0  0
   37.8710   22.9110   29.8390 H   0  0  0  0  0  0  0  0  0  0  0  0
   38.5640   22.1740   32.1220 H   0  0  0  0  0  0  0  0  0  0  0  0
   39.5260   22.7740   34.5110 C   0  0  0  0  0  3  0  0  0  0  0  0
   38.5550   23.7420   34.3690 C   0  0  0  0  0  0  0  0  0  0  0  0
   37.9870   24.3530   35.4640 C   0  0  0  0  0  0  0  0  0  0  0  0
   37.2380   25.1000   35.3650 H   0  0  0  0  0  0  0  0  0  0  0  0
   38.4030   23.9810   36.7270 C   0  0  0  0  0  0  0  0  0  0  0  0
   38.0120   24.4190   37.9260 N   0  0  0  0  0  0  0  0  0  0  0  0
   37.2920   25.1480   38.1340 H   0  0  0  0  0  0  0  0  0  0  0  0
   38.6730   23.7930   38.9150 C   0  0  0  0  0  0  0  0  0  0  0  0
   38.5660   23.9400   39.9690 H   0  0  0  0  0  0  0  0  0  0  0  0
   39.5200   22.9190   38.2680 C   0  0  0  0  0  3  0  0  0  0  0  0
   39.3740   23.0140   36.8860 C   0  0  0  0  0  0  0  0  0  0  0  0
   39.9430   22.4020   35.7850 C   0  0  0  0  0  3  0  0  0  0  0  0
  1 29  1  0  0  0  0
  1  6  1  0  0  0  0
  2  1  2  0  0  0  0
  3  2  1  0  0  0  0
  3  4  2  0  0  0  0
  4  5  1  0  0  0  0
  5  6  2  0  0  0  0
  5  9  1  0  0  0  0
  7  2  1  0  0  0  0
  8  3  1  0  0  0  0
  9 10  2  0  0  0  0
  9 18  1  0  0  0  0
 10 11  1  0  0  0  0
 11 20  1  0  0  0  0
 11 12  2  0  0  0  0
 12 13  1  0  0  0  0
 13 14  2  0  0  0  0
 14 21  1  0  0  0  0
 15 14  1  0  0  0  0
 15 22  1  0  0  0  0
 16 15  2  0  0  0  0
 17 12  1  0  0  0  0
 17 16  1  0  0  0  0
 18 17  2  0  0  0  0
 19 10  1  0  0  0  0
 23 16  1  0  0  0  0
 24 18  1  0  0  0  0
 25 26  1  0  0  0  0
 26 32  1  0  0  0  0
 26 27  2  0  0  0  0
 27 34  1  0  0  0  0
 28 27  1  0  0  0  0
 29 28  2  0  0  0  0
 30 25  2  0  0  0  0
 30 29  1  0  0  0  0
 31 25  1  0  0  0  0
 33 44  1  0  0  0  0
 34 33  2  0  0  0  0
 34 35  1  0  0  0  0
 35 37  2  0  0  0  0
 36 35  1  0  0  0  0
 37 43  1  0  0  0  0
 37 38  1  0  0  0  0
 38 39  1  0  0  0  0
 38 40  1  0  0  0  0
 40 41  1  0  0  0  0
 42 40  2  0  0  0  0
 43 42  1  0  0  0  0
 44 43  2  0  0  0  0
M  END
>  <minimizedAffinity>
-7.37520218

$$$$

 OpenBabel03262523073D

 44 49  0  0  0  0  0  0  0  0999 V2000
   36.5720   25.7240   31.9800 C   0  0  0  0  0  0  0  0  0  0  0  0
   35.9370   24.8400   31.1390 C   0  0  0  0  0  0  0  0  0  0  0  0
   36.1010   23.4960   31.3470 C   0  0  0  0  0  0  0  0  0  0  0  0
   36.8810   23.0560   32.3700 N   0  0  0  0  0  0  0  0  0  0  0  0
   37.4780   23.9460   33.1620 C   0  0  0  0  0  0  0  0  0  0  0  0
   37.3340   25.2720   32.9800 N   0  0  0  0  0  0  0  0  0  0  0  0
   35.3170   25.1970   30.3250 H   0  0  0  0  0  0  0  0  0  0  0  0
   35.6350   22.7400   30.7290 H   0  0  0  0  0  0  0  0  0  0  0  0
   38.3190   23.4870   34.2660 C   0  0  0  0  0  0  0  0  0  0  0  0
   37.9760   23.7070   35.5770 C   0  0  0  0  0  0  0  0  0  0  0  0
   38.6720   23.3310   36.7010 C   0  0  0  0  0  0  0  0  0  0  0  0
   39.8470   22.6570   36.4400 C   0  0  0  0  0  0  0  0  0  0  0  0
   40.6000   22.2470   37.4900 N   0  0  0  0  0  0  0  0  0  0  0  0
   41.7670   21.5800   37.3400 C   0  0  0  0  0  0  0  0  0  0  0  0
   42.2200   21.2980   36.0660 C   0  0  0  0  0  0  0  0  0  0  0  0
   41.4580   21.7120   34.9870 C   0  0  0  0  0  0  0  0  0  0  0  0
   40.2590   22.3980   35.1400 C   0  0  0  0  0  0  0  0  0  0  0  0
   39.5080   22.8060   34.0560 C   0  0  0  0  0  0  0  0  0  0  0  0
   37.0360   24.2450   35.7200 H   0  0  0  0  0  0  0  0  0  0  0  0
   38.3100   23.5550   37.6950 H   0  0  0  0  0  0  0  0  0  0  0  0
   42.3700   21.2520   38.1760 H   0  0  0  0  0  0  0  0  0  0  0  0
   43.1430   20.7690   35.9210 H   0  0  0  0  0  0  0  0  0  0  0  0
   41.7910   21.5050   33.9820 H   0  0  0  0  0  0  0  0  0  0  0  0
   39.8390   22.6000   33.0470 H   0  0  0  0  0  0  0  0  0  0  0  0
   36.6080   29.1060   30.5310 C   0  0  0  0  0  0  0  0  0  0  0  0
   36.0800   29.8820   31.5760 C   0  0  0  0  0  0  0  0  0  0  0  0
   35.7170   29.2270   32.7720 C   0  0  0  0  0  0  0  0  0  0  0  0
   35.9070   27.8900   32.8190 N   0  0  0  0  0  0  0  0  0  0  0  0
   36.4220   27.1660   31.7890 C   0  0  0  0  0  0  0  0  0  0  0  0
   36.7660   27.7820   30.6550 N   0  0  0  0  0  0  0  0  0  0  0  0
   36.8850   29.6120   29.6200 H   0  0  0  0  0  0  0  0  0  0  0  0
   35.9390   30.9320   31.5170 H   0  0  0  0  0  0  0  0  0  0  0  0
   36.0140   30.7340   34.6250 C   0  0  0  0  0  3  0  0  0  0  0  0
   35.1570   29.9060   33.9330 C   0  0  0  0  0  0  0  0  0  0  0  0
   33.8490   29.7370   34.3290 C   0  0  0  0  0  0  0  0  0  0  0  0
   33.1810   29.1000   33.8030 H   0  0  0  0  0  0  0  0  0  0  0  0
   33.3950   30.4160   35.4430 C   0  0  0  0  0  0  0  0  0  0  0  0
   32.1900   30.4200   36.0170 N   0  0  0  0  0  0  0  0  0  0  0  0
   31.3410   29.8900   35.7170 H   0  0  0  0  0  0  0  0  0  0  0  0
   32.1640   31.2250   37.0930 C   0  0  0  0  0  0  0  0  0  0  0  0
   31.3380   31.4210   37.7440 H   0  0  0  0  0  0  0  0  0  0  0  0
   33.4400   31.7410   37.1730 C   0  0  0  0  0  3  0  0  0  0  0  0
   34.2410   31.2500   36.1450 C   0  0  0  0  0  0  0  0  0  0  0  0
   35.5540   31.4160   35.7460 C   0  0  0  0  0  3  0  0  0  0  0  0
  1  6  1  0  0  0  0
  2  3  1  0  0  0  0
  2  1  2  0  0  0  0
  3  4  2  0  0  0  0
  4  5  1  0  0  0  0
  5  9  1  0  0  0  0
  6  5  2  0  0  0  0
  7  2  1  0  0  0  0
  8  3  1  0  0  0  0
  9 10  1  0  0  0  0
 10 19  1  0  0  0  0
 10 11  2  0  0  0  0
 11 20  1  0  0  0  0
 12 11  1  0  0  0  0
 12 13  1  0  0  0  0
 14 13  2  0  0  0  0
 14 21  1  0  0  0  0
 15 14  1  0  0  0  0
 16 17  1  0  0  0  0
 16 15  2  0  0  0  0
 17 12  2  0  0  0  0
 18  9  2  0  0  0  0
 18 17  1  0  0  0  0
 22 15  1  0  0  0  0
 23 16  1  0  0  0  0
 24 18  1  0  0  0  0
 25 30  2  0  0  0  0
 25 26  1  0  0  0  0
 26 27  2  0  0  0  0
 27 28  1  0  0  0  0
 27 34  1  0  0  0  0
 29  1  1  0  0  0  0
 29 28  2  0  0  0  0
 30 29  1  0  0  0  0
 31 25  1  0  0  0  0
 32 26  1  0  0  0  0
 33 44  1  0  0  0  0
 34 35  1  0  0  0  0
 34 33  2  0  0  0  0
 35 37  2  0  0  0  0
 36 35  1  0  0  0  0
 37 38  1  0  0  0  0
 37 43  1  0  0  0  0
 38 40  1  0  0  0  0
 39 38  1  0  0  0  0
 40 42  2  0  0  0  0
 40 41  1  0  0  0  0
 43 42  1  0  0  0  0
 44 43  2  0  0  0  0
M  END
>  <minimizedAffinity>
-7.29976511

$$$$

 OpenBabel03262523073D

 44 49  0  0  0  0  0  0  0  0999 V2000
   37.7450   26.2010   33.6620 C   0  0  0  0  0  0  0  0  0  0  0  0
   38.5630   26.2550   34.7680 C   0  0  0  0  0  0  0  0  0  0  0  0
   39.0820   25.0880   35.2630 C   0  0  0  0  0  0  0  0  0  0  0  0
   38.7860   23.9040   34.6640 N   0  0  0  0  0  0  0  0  0  0  0  0
   37.9900   23.8960   33.5950 C   0  0  0  0  0  0  0  0  0  0  0  0
   37.4660   25.0270   33.0880 N   0  0  0  0  0  0  0  0  0  0  0  0
   38.7950   27.2020   35.2410 H   0  0  0  0  0  0  0  0  0  0  0  0
   39.7320   25.0490   36.1270 H   0  0  0  0  0  0  0  0  0  0  0  0
   37.6640   22.6290   32.9420 C   0  0  0  0  0  0  0  0  0  0  0  0
   38.2240   22.2690   31.7420 C   0  0  0  0  0  0  0  0  0  0  0  0
   38.0050   21.1170   31.0260 C   0  0  0  0  0  0  0  0  0  0  0  0
   37.1120   20.2450   31.6140 C   0  0  0  0  0  0  0  0  0  0  0  0
   36.8350   19.0810   30.9780 N   0  0  0  0  0  0  0  0  0  0  0  0
   35.9740   18.1620   31.4710 C   0  0  0  0  0  0  0  0  0  0  0  0
   35.3450   18.4100   32.6760 C   0  0  0  0  0  0  0  0  0  0  0  0
   35.6220   19.5970   33.3330 C   0  0  0  0  0  0  0  0  0  0  0  0
   36.5060   20.5420   32.8280 C   0  0  0  0  0  0  0  0  0  0  0  0
   36.7730   21.7210   33.4930 C   0  0  0  0  0  0  0  0  0  0  0  0
   38.9230   22.9990   31.3250 H   0  0  0  0  0  0  0  0  0  0  0  0
   38.5020   20.9300   30.0840 H   0  0  0  0  0  0  0  0  0  0  0  0
   35.7520   17.2320   30.9660 H   0  0  0  0  0  0  0  0  0  0  0  0
   34.6580   17.6950   33.0880 H   0  0  0  0  0  0  0  0  0  0  0  0
   35.1430   19.8140   34.2760 H   0  0  0  0  0  0  0  0  0  0  0  0
   36.2940   21.9420   34.4370 H   0  0  0  0  0  0  0  0  0  0  0  0
   36.7660   28.8990   31.3600 C   0  0  0  0  0  0  0  0  0  0  0  0
   36.0370   29.7570   32.2010 C   0  0  0  0  0  0  0  0  0  0  0  0
   35.8930   29.3920   33.5570 C   0  0  0  0  0  0  0  0  0  0  0  0
   36.4710   28.2340   33.9440 N   0  0  0  0  0  0  0  0  0  0  0  0
   37.1720   27.4250   33.1050 C   0  0  0  0  0  0  0  0  0  0  0  0
   37.3110   27.7660   31.8210 N   0  0  0  0  0  0  0  0  0  0  0  0
   36.8740   29.1820   30.3250 H   0  0  0  0  0  0  0  0  0  0  0  0
   35.5910   30.6620   31.8750 H   0  0  0  0  0  0  0  0  0  0  0  0
   35.9300   30.9460   35.3950 C   0  0  0  0  0  3  0  0  0  0  0  0
   35.1640   30.1850   34.5380 C   0  0  0  0  0  0  0  0  0  0  0  0
   33.7890   30.1830   34.6160 C   0  0  0  0  0  0  0  0  0  0  0  0
   33.1900   29.6010   33.9600 H   0  0  0  0  0  0  0  0  0  0  0  0
   33.1730   30.9620   35.5760 C   0  0  0  0  0  0  0  0  0  0  0  0
   31.8770   31.1290   35.8480 N   0  0  0  0  0  0  0  0  0  0  0  0
   31.0640   30.6830   35.3670 H   0  0  0  0  0  0  0  0  0  0  0  0
   31.6980   31.9820   36.8710 C   0  0  0  0  0  0  0  0  0  0  0  0
   30.7730   32.3010   37.3030 H   0  0  0  0  0  0  0  0  0  0  0  0
   32.9720   32.3560   37.2400 C   0  0  0  0  0  3  0  0  0  0  0  0
   33.9260   31.7290   36.4410 C   0  0  0  0  0  0  0  0  0  0  0  0
   35.3060   31.7280   36.3610 C   0  0  0  0  0  3  0  0  0  0  0  0
  1  2  1  0  0  0  0
  2  7  1  0  0  0  0
  2  3  2  0  0  0  0
  3  8  1  0  0  0  0
  4  3  1  0  0  0  0
  5  4  2  0  0  0  0
  6  5  1  0  0  0  0
  6  1  2  0  0  0  0
  9 18  1  0  0  0  0
  9  5  1  0  0  0  0
 10  9  2  0  0  0  0
 11 12  2  0  0  0  0
 11 10  1  0  0  0  0
 12 17  1  0  0  0  0
 13 14  2  0  0  0  0
 13 12  1  0  0  0  0
 14 15  1  0  0  0  0
 15 22  1  0  0  0  0
 15 16  2  0  0  0  0
 16 23  1  0  0  0  0
 17 16  1  0  0  0  0
 17 18  2  0  0  0  0
 18 24  1  0  0  0  0
 19 10  1  0  0  0  0
 20 11  1  0  0  0  0
 21 14  1  0  0  0  0
 25 30  2  0  0  0  0
 25 26  1  0  0  0  0
 26 27  2  0  0  0  0
 27 28  1  0  0  0  0
 27 34  1  0  0  0  0
 29  1  1  0  0  0  0
 29 28  2  0  0  0  0
 30 29  1  0  0  0  0
 31 25  1  0  0  0  0
 32 26  1  0  0  0  0
 33 44  1  0  0  0  0
 34 35  1  0  0  0  0
 34 33  2  0  0  0  0
 35 37  2  0  0  0  0
 36 35  1  0  0  0  0
 37 38  1  0  0  0  0
 37 43  1  0  0  0  0
 38 40  1  0  0  0  0
 39 38  1  0  0  0  0
 40 42  2  0  0  0  0
 40 41  1  0  0  0  0
 43 42  1  0  0  0  0
 44 43  2  0  0  0  0
M  END
>  <minimizedAffinity>
-7.22807312

$$$$

 OpenBabel03262523073D

 44 49  0  0  0  0  0  0  0  0999 V2000
   37.3890   26.8820   33.2330 C   0  0  0  0  0  0  0  0  0  0  0  0
   37.6740   27.2200   31.9290 C   0  0  0  0  0  0  0  0  0  0  0  0
   37.1270   28.3620   31.4070 C   0  0  0  0  0  0  0  0  0  0  0  0
   36.3180   29.1400   32.1740 N   0  0  0  0  0  0  0  0  0  0  0  0
   36.0670   28.7780   33.4320 C   0  0  0  0  0  0  0  0  0  0  0  0
   36.5910   27.6610   33.9700 N   0  0  0  0  0  0  0  0  0  0  0  0
   38.3190   26.5950   31.3230 H   0  0  0  0  0  0  0  0  0  0  0  0
   37.3040   28.6940   30.3930 H   0  0  0  0  0  0  0  0  0  0  0  0
   35.1990   29.6060   34.2680 C   0  0  0  0  0  0  0  0  0  0  0  0
   33.8500   29.3740   34.3610 C   0  0  0  0  0  0  0  0  0  0  0  0
   32.9280   30.0720   35.1040 C   0  0  0  0  0  0  0  0  0  0  0  0
   33.4600   31.1200   35.8280 C   0  0  0  0  0  0  0  0  0  0  0  0
   32.6240   31.8640   36.5910 N   0  0  0  0  0  0  0  0  0  0  0  0
   33.0460   32.9110   37.3360 C   0  0  0  0  0  0  0  0  0  0  0  0
   34.3860   33.2440   37.3260 C   0  0  0  0  0  0  0  0  0  0  0  0
   35.2490   32.4890   36.5490 C   0  0  0  0  0  0  0  0  0  0  0  0
   34.8160   31.4130   35.7840 C   0  0  0  0  0  0  0  0  0  0  0  0
   35.6860   30.6690   35.0130 C   0  0  0  0  0  0  0  0  0  0  0  0
   33.4870   28.5330   33.7660 H   0  0  0  0  0  0  0  0  0  0  0  0
   31.8810   29.8040   35.1070 H   0  0  0  0  0  0  0  0  0  0  0  0
   32.3810   33.5060   37.9460 H   0  0  0  0  0  0  0  0  0  0  0  0
   34.7460   34.0710   37.9090 H   0  0  0  0  0  0  0  0  0  0  0  0
   36.3010   32.7300   36.5240 H   0  0  0  0  0  0  0  0  0  0  0  0
   36.7400   30.9080   34.9850 H   0  0  0  0  0  0  0  0  0  0  0  0
   39.3050   24.5620   35.3490 C   0  0  0  0  0  0  0  0  0  0  0  0
   38.9290   23.3100   34.8320 C   0  0  0  0  0  0  0  0  0  0  0  0
   38.0160   23.2830   33.7570 C   0  0  0  0  0  0  0  0  0  0  0  0
   37.5700   24.4740   33.3030 N   0  0  0  0  0  0  0  0  0  0  0  0
   37.9530   25.6700   33.8240 C   0  0  0  0  0  0  0  0  0  0  0  0
   38.8170   25.7010   34.8430 N   0  0  0  0  0  0  0  0  0  0  0  0
   40.0030   24.5770   36.1700 H   0  0  0  0  0  0  0  0  0  0  0  0
   39.2930   22.3860   35.2050 H   0  0  0  0  0  0  0  0  0  0  0  0
   38.1010   21.7450   31.9060 C   0  0  0  0  0  3  0  0  0  0  0  0
   37.5400   22.0590   33.1260 C   0  0  0  0  0  0  0  0  0  0  0  0
   36.5860   21.2520   33.7030 C   0  0  0  0  0  0  0  0  0  0  0  0
   36.1480   21.4850   34.6430 H   0  0  0  0  0  0  0  0  0  0  0  0
   36.1870   20.1080   33.0400 C   0  0  0  0  0  0  0  0  0  0  0  0
   35.2930   19.1790   33.3870 N   0  0  0  0  0  0  0  0  0  0  0  0
   34.7110   19.1490   34.2540 H   0  0  0  0  0  0  0  0  0  0  0  0
   35.2010   18.2170   32.4530 C   0  0  0  0  0  0  0  0  0  0  0  0
   34.5700   17.3540   32.4630 H   0  0  0  0  0  0  0  0  0  0  0  0
   36.1000   18.5910   31.4770 C   0  0  0  0  0  3  0  0  0  0  0  0
   36.7390   19.7810   31.8190 C   0  0  0  0  0  0  0  0  0  0  0  0
   37.6960   20.5930   31.2400 C   0  0  0  0  0  3  0  0  0  0  0  0
  1 29  1  0  0  0  0
  1  6  1  0  0  0  0
  2  1  2  0  0  0  0
  3  2  1  0  0  0  0
  3  4  2  0  0  0  0
  4  5  1  0  0  0  0
  5  6  2  0  0  0  0
  5  9  1  0  0  0  0
  7  2  1  0  0  0  0
  8  3  1  0  0  0  0
  9 10  2  0  0  0  0
  9 18  1  0  0  0  0
 10 11  1  0  0  0  0
 11 20  1  0  0  0  0
 11 12  2  0  0  0  0
 12 13  1  0  0  0  0
 13 14  2  0  0  0  0
 14 21  1  0  0  0  0
 15 14  1  0  0  0  0
 15 22  1  0  0  0  0
 16 15  2  0  0  0  0
 17 12  1  0  0  0  0
 17 16  1  0  0  0  0
 18 17  2  0  0  0  0
 19 10  1  0  0  0  0
 23 16  1  0  0  0  0
 24 18  1  0  0  0  0
 25 31  1  0  0  0  0
 26 32  1  0  0  0  0
 26 25  2  0  0  0  0
 27 26  1  0  0  0  0
 28 27  2  0  0  0  0
 28 29  1  0  0  0  0
 29 30  2  0  0  0  0
 30 25  1  0  0  0  0
 33 34  1  0  0  0  0
 34 35  2  0  0  0  0
 34 27  1  0  0  0  0
 35 36  1  0  0  0  0
 37 38  1  0  0  0  0
 37 35  1  0  0  0  0
 38 39  1  0  0  0  0
 40 41  1  0  0  0  0
 40 38  1  0  0  0  0
 42 43  1  0  0  0  0
 42 40  2  0  0  0  0
 43 37  2  0  0  0  0
 44 43  1  0  0  0  0
 44 33  2  0  0  0  0
M  END
>  <minimizedAffinity>
-7.20774889

$$$$

 OpenBabel03262523073D

 44 49  0  0  0  0  0  0  0  0999 V2000
   37.1990   26.8540   33.0170 C   0  0  0  0  0  0  0  0  0  0  0  0
   37.6410   27.2950   31.7910 C   0  0  0  0  0  0  0  0  0  0  0  0
   37.2620   28.5390   31.3600 C   0  0  0  0  0  0  0  0  0  0  0  0
   36.4620   29.3150   32.1400 N   0  0  0  0  0  0  0  0  0  0  0  0
   36.0570   28.8500   33.3210 C   0  0  0  0  0  0  0  0  0  0  0  0
   36.4130   27.6320   33.7690 N   0  0  0  0  0  0  0  0  0  0  0  0
   38.2780   26.6720   31.1750 H   0  0  0  0  0  0  0  0  0  0  0  0
   37.5690   28.9550   30.4100 H   0  0  0  0  0  0  0  0  0  0  0  0
   35.1970   29.6740   34.1690 C   0  0  0  0  0  0  0  0  0  0  0  0
   33.8400   29.4770   34.2310 C   0  0  0  0  0  0  0  0  0  0  0  0
   32.9240   30.1750   34.9820 C   0  0  0  0  0  0  0  0  0  0  0  0
   33.4710   31.1830   35.7490 C   0  0  0  0  0  0  0  0  0  0  0  0
   32.6420   31.9240   36.5230 N   0  0  0  0  0  0  0  0  0  0  0  0
   33.0790   32.9340   37.3100 C   0  0  0  0  0  0  0  0  0  0  0  0
   34.4290   33.2300   37.3330 C   0  0  0  0  0  0  0  0  0  0  0  0
   35.2840   32.4780   36.5460 C   0  0  0  0  0  0  0  0  0  0  0  0
   34.8360   31.4400   35.7380 C   0  0  0  0  0  0  0  0  0  0  0  0
   35.6980   30.6980   34.9580 C   0  0  0  0  0  0  0  0  0  0  0  0
   33.4650   28.6660   33.6030 H   0  0  0  0  0  0  0  0  0  0  0  0
   31.8700   29.9360   34.9580 H   0  0  0  0  0  0  0  0  0  0  0  0
   32.4200   33.5270   37.9280 H   0  0  0  0  0  0  0  0  0  0  0  0
   34.8000   34.0270   37.9500 H   0  0  0  0  0  0  0  0  0  0  0  0
   36.3420   32.6900   36.5470 H   0  0  0  0  0  0  0  0  0  0  0  0
   36.7600   30.9080   34.9560 H   0  0  0  0  0  0  0  0  0  0  0  0
   38.4870   24.1150   35.1090 C   0  0  0  0  0  0  0  0  0  0  0  0
   38.2440   22.9890   34.3050 C   0  0  0  0  0  0  0  0  0  0  0  0
   37.6360   23.1890   33.0470 C   0  0  0  0  0  0  0  0  0  0  0  0
   37.3320   24.4620   32.7110 N   0  0  0  0  0  0  0  0  0  0  0  0
   37.5810   25.5320   33.5110 C   0  0  0  0  0  0  0  0  0  0  0  0
   38.1560   25.3480   34.7030 N   0  0  0  0  0  0  0  0  0  0  0  0
   38.9520   23.9570   36.0690 H   0  0  0  0  0  0  0  0  0  0  0  0
   38.4920   21.9970   34.5900 H   0  0  0  0  0  0  0  0  0  0  0  0
   36.0660   21.5660   32.2140 C   0  0  0  0  0  3  0  0  0  0  0  0
   37.3260   22.1140   32.1140 C   0  0  0  0  0  0  0  0  0  0  0  0
   38.2310   21.6620   31.1800 C   0  0  0  0  0  0  0  0  0  0  0  0
   39.2060   22.0780   31.0950 H   0  0  0  0  0  0  0  0  0  0  0  0
   37.8600   20.6370   30.3320 C   0  0  0  0  0  0  0  0  0  0  0  0
   38.5470   20.0340   29.3580 N   0  0  0  0  0  0  0  0  0  0  0  0
   39.5260   20.2350   29.0520 H   0  0  0  0  0  0  0  0  0  0  0  0
   37.8140   19.0760   28.7660 C   0  0  0  0  0  0  0  0  0  0  0  0
   38.1050   18.4340   27.9610 H   0  0  0  0  0  0  0  0  0  0  0  0
   36.6050   19.1030   29.4260 C   0  0  0  0  0  3  0  0  0  0  0  0
   36.6020   20.0790   30.4200 C   0  0  0  0  0  0  0  0  0  0  0  0
   35.6960   20.5340   31.3590 C   0  0  0  0  0  3  0  0  0  0  0  0
  1 29  1  0  0  0  0
  1  6  1  0  0  0  0
  2  1  2  0  0  0  0
  3  2  1  0  0  0  0
  3  4  2  0  0  0  0
  4  5  1  0  0  0  0
  5  6  2  0  0  0  0
  5  9  1  0  0  0  0
  7  2  1  0  0  0  0
  8  3  1  0  0  0  0
  9 10  2  0  0  0  0
  9 18  1  0  0  0  0
 10 11  1  0  0  0  0
 11 12  2  0  0  0  0
 12 13  1  0  0  0  0
 13 14  2  0  0  0  0
 14 15  1  0  0  0  0
 14 21  1  0  0  0  0
 15 22  1  0  0  0  0
 16 23  1  0  0  0  0
 16 15  2  0  0  0  0
 17 12  1  0  0  0  0
 17 16  1  0  0  0  0
 18 17  2  0  0  0  0
 19 10  1  0  0  0  0
 20 11  1  0  0  0  0
 24 18  1  0  0  0  0
 25 31  1  0  0  0  0
 26 32  1  0  0  0  0
 26 25  2  0  0  0  0
 27 26  1  0  0  0  0
 28 27  2  0  0  0  0
 28 29  1  0  0  0  0
 29 30  2  0  0  0  0
 30 25  1  0  0  0  0
 34 33  1  0  0  0  0
 34 27  1  0  0  0  0
 35 34  2  0  0  0  0
 36 35  1  0  0  0  0
 37 43  2  0  0  0  0
 37 35  1  0  0  0  0
 38 37  1  0  0  0  0
 39 38  1  0  0  0  0
 40 38  1  0  0  0  0
 40 42  2  0  0  0  0
 41 40  1  0  0  0  0
 42 43  1  0  0  0  0
 43 44  1  0  0  0  0
 44 33  2  0  0  0  0
M  END
>  <minimizedAffinity>
-7.14097738

$$$$

 OpenBabel03262523073D

 44 49  0  0  0  0  0  0  0  0999 V2000
   37.3080   26.1120   33.3310 C   0  0  0  0  0  0  0  0  0  0  0  0
   37.9470   25.9960   34.5450 C   0  0  0  0  0  0  0  0  0  0  0  0
   38.3430   24.7540   34.9660 C   0  0  0  0  0  0  0  0  0  0  0  0
   38.1030   23.6640   34.1890 N   0  0  0  0  0  0  0  0  0  0  0  0
   37.4830   23.8210   33.0210 C   0  0  0  0  0  0  0  0  0  0  0  0
   37.0820   25.0290   32.5830 N   0  0  0  0  0  0  0  0  0  0  0  0
   38.1340   26.8690   35.1590 H   0  0  0  0  0  0  0  0  0  0  0  0
   38.8500   24.5820   35.9060 H   0  0  0  0  0  0  0  0  0  0  0  0
   37.2190   22.6570   32.1760 C   0  0  0  0  0  0  0  0  0  0  0  0
   36.0150   21.9990   32.2070 C   0  0  0  0  0  0  0  0  0  0  0  0
   35.6400   20.9010   31.4700 C   0  0  0  0  0  0  0  0  0  0  0  0
   36.6150   20.4350   30.6110 C   0  0  0  0  0  0  0  0  0  0  0  0
   36.3320   19.3550   29.8440 N   0  0  0  0  0  0  0  0  0  0  0  0
   37.2180   18.8220   28.9720 C   0  0  0  0  0  0  0  0  0  0  0  0
   38.4680   19.3970   28.8500 C   0  0  0  0  0  0  0  0  0  0  0  0
   38.7660   20.5020   29.6290 C   0  0  0  0  0  0  0  0  0  0  0  0
   37.8560   21.0500   30.5260 C   0  0  0  0  0  0  0  0  0  0  0  0
   38.1650   22.1520   31.2970 C   0  0  0  0  0  0  0  0  0  0  0  0
   35.2840   22.4130   32.9050 H   0  0  0  0  0  0  0  0  0  0  0  0
   34.6590   20.4570   31.5710 H   0  0  0  0  0  0  0  0  0  0  0  0
   36.9960   17.9590   28.3580 H   0  0  0  0  0  0  0  0  0  0  0  0
   39.1890   18.9930   28.1640 H   0  0  0  0  0  0  0  0  0  0  0  0
   39.7360   20.9700   29.5530 H   0  0  0  0  0  0  0  0  0  0  0  0
   39.1360   22.6220   31.2230 H   0  0  0  0  0  0  0  0  0  0  0  0
   36.6370   29.0330   31.1960 C   0  0  0  0  0  0  0  0  0  0  0  0
   35.9890   29.9080   32.0850 C   0  0  0  0  0  0  0  0  0  0  0  0
   35.7920   29.4770   33.4140 C   0  0  0  0  0  0  0  0  0  0  0  0
   36.2450   28.2440   33.7310 N   0  0  0  0  0  0  0  0  0  0  0  0
   36.8690   27.4210   32.8480 C   0  0  0  0  0  0  0  0  0  0  0  0
   37.0590   27.8240   31.5890 N   0  0  0  0  0  0  0  0  0  0  0  0
   36.7870   29.3670   30.1820 H   0  0  0  0  0  0  0  0  0  0  0  0
   35.6420   30.8720   31.8130 H   0  0  0  0  0  0  0  0  0  0  0  0
   35.9640   30.9090   35.3410 C   0  0  0  0  0  3  0  0  0  0  0  0
   35.1350   30.2780   34.4390 C   0  0  0  0  0  0  0  0  0  0  0  0
   33.7660   30.4060   34.5130 C   0  0  0  0  0  0  0  0  0  0  0  0
   33.1190   29.9240   33.8220 H   0  0  0  0  0  0  0  0  0  0  0  0
   33.2210   31.1840   35.5160 C   0  0  0  0  0  0  0  0  0  0  0  0
   31.9450   31.4600   35.7940 N   0  0  0  0  0  0  0  0  0  0  0  0
   31.0960   31.1240   35.2850 H   0  0  0  0  0  0  0  0  0  0  0  0
   31.8410   32.2650   36.8640 C   0  0  0  0  0  0  0  0  0  0  0  0
   30.9480   32.6470   37.3120 H   0  0  0  0  0  0  0  0  0  0  0  0
   33.1420   32.4900   37.2580 C   0  0  0  0  0  3  0  0  0  0  0  0
   34.0370   31.8220   36.4260 C   0  0  0  0  0  0  0  0  0  0  0  0
   35.4110   31.6910   36.3500 C   0  0  0  0  0  3  0  0  0  0  0  0
  1  2  1  0  0  0  0
  2  3  2  0  0  0  0
  2  7  1  0  0  0  0
  3  8  1  0  0  0  0
  4  3  1  0  0  0  0
  5  4  2  0  0  0  0
  6  5  1  0  0  0  0
  6  1  2  0  0  0  0
  9 10  1  0  0  0  0
  9  5  1  0  0  0  0
 10 19  1  0  0  0  0
 11 20  1  0  0  0  0
 11 10  2  0  0  0  0
 12 11  1  0  0  0  0
 13 12  2  0  0  0  0
 14 13  1  0  0  0  0
 15 14  2  0  0  0  0
 15 16  1  0  0  0  0
 16 17  2  0  0  0  0
 17 12  1  0  0  0  0
 17 18  1  0  0  0  0
 18  9  2  0  0  0  0
 21 14  1  0  0  0  0
 22 15  1  0  0  0  0
 23 16  1  0  0  0  0
 24 18  1  0  0  0  0
 25 30  2  0  0  0  0
 25 26  1  0  0  0  0
 26 27  2  0  0  0  0
 27 28  1  0  0  0  0
 27 34  1  0  0  0  0
 29  1  1  0  0  0  0
 29 28  2  0  0  0  0
 30 29  1  0  0  0  0
 31 25  1  0  0  0  0
 32 26  1  0  0  0  0
 33 44  1  0  0  0  0
 34 35  1  0  0  0  0
 34 33  2  0  0  0  0
 35 37  2  0  0  0  0
 36 35  1  0  0  0  0
 37 38  1  0  0  0  0
 37 43  1  0  0  0  0
 38 40  1  0  0  0  0
 39 38  1  0  0  0  0
 40 42  2  0  0  0  0
 40 41  1  0  0  0  0
 43 42  1  0  0  0  0
 44 43  2  0  0  0  0
M  END
>  <minimizedAffinity>
-7.10215092

$$$$

 OpenBabel03262523073D

 44 49  0  0  0  0  0  0  0  0999 V2000
   37.6340   28.0410   31.0490 C   0  0  0  0  0  0  0  0  0  0  0  0
   37.6470   28.7910   29.8950 C   0  0  0  0  0  0  0  0  0  0  0  0
   36.8590   29.9090   29.8240 C   0  0  0  0  0  0  0  0  0  0  0  0
   36.0810   30.2600   30.8830 N   0  0  0  0  0  0  0  0  0  0  0  0
   36.0980   29.5070   31.9820 C   0  0  0  0  0  0  0  0  0  0  0  0
   36.8630   28.4030   32.0780 N   0  0  0  0  0  0  0  0  0  0  0  0
   38.2690   28.5050   29.0540 H   0  0  0  0  0  0  0  0  0  0  0  0
   36.8150   30.5490   28.9530 H   0  0  0  0  0  0  0  0  0  0  0  0
   35.2670   29.8730   33.1270 C   0  0  0  0  0  0  0  0  0  0  0  0
   33.9970   29.3780   33.2880 C   0  0  0  0  0  0  0  0  0  0  0  0
   33.1170   29.6400   34.3100 C   0  0  0  0  0  0  0  0  0  0  0  0
   33.6030   30.5050   35.2680 C   0  0  0  0  0  0  0  0  0  0  0  0
   32.8030   30.8210   36.3160 N   0  0  0  0  0  0  0  0  0  0  0  0
   33.1860   31.6590   37.3060 C   0  0  0  0  0  0  0  0  0  0  0  0
   34.4460   32.2240   37.2570 C   0  0  0  0  0  0  0  0  0  0  0  0
   35.2710   31.9070   36.1900 C   0  0  0  0  0  0  0  0  0  0  0  0
   34.8790   31.0460   35.1730 C   0  0  0  0  0  0  0  0  0  0  0  0
   35.7100   30.7390   34.1160 C   0  0  0  0  0  0  0  0  0  0  0  0
   33.6670   28.6980   32.4980 H   0  0  0  0  0  0  0  0  0  0  0  0
   32.1330   29.1930   34.3420 H   0  0  0  0  0  0  0  0  0  0  0  0
   32.5500   31.9130   38.1420 H   0  0  0  0  0  0  0  0  0  0  0  0
   34.7730   32.8920   38.0310 H   0  0  0  0  0  0  0  0  0  0  0  0
   36.2600   32.3350   36.1290 H   0  0  0  0  0  0  0  0  0  0  0  0
   36.7010   31.1660   34.0510 H   0  0  0  0  0  0  0  0  0  0  0  0
   39.8600   25.2150   30.2760 C   0  0  0  0  0  0  0  0  0  0  0  0
   39.9810   24.5820   31.5250 C   0  0  0  0  0  0  0  0  0  0  0  0
   39.2900   25.1410   32.6210 C   0  0  0  0  0  0  0  0  0  0  0  0
   38.5600   26.2520   32.3820 N   0  0  0  0  0  0  0  0  0  0  0  0
   38.4620   26.8410   31.1610 C   0  0  0  0  0  0  0  0  0  0  0  0
   39.1140   26.3160   30.1200 N   0  0  0  0  0  0  0  0  0  0  0  0
   40.3890   24.7840   29.4410 H   0  0  0  0  0  0  0  0  0  0  0  0
   40.5610   23.7090   31.6890 H   0  0  0  0  0  0  0  0  0  0  0  0
   38.3410   25.0240   34.8300 C   0  0  0  0  0  3  0  0  0  0  0  0
   39.3260   24.5910   33.9700 C   0  0  0  0  0  0  0  0  0  0  0  0
   40.2850   23.6890   34.3750 C   0  0  0  0  0  0  0  0  0  0  0  0
   41.0490   23.3490   33.7190 H   0  0  0  0  0  0  0  0  0  0  0  0
   40.2520   23.2150   35.6720 C   0  0  0  0  0  0  0  0  0  0  0  0
   41.0560   22.3500   36.2930 N   0  0  0  0  0  0  0  0  0  0  0  0
   41.8880   21.8570   35.8970 H   0  0  0  0  0  0  0  0  0  0  0  0
   40.6730   22.1550   37.5670 C   0  0  0  0  0  0  0  0  0  0  0  0
   41.1290   21.5200   38.2970 H   0  0  0  0  0  0  0  0  0  0  0  0
   39.5640   22.9570   37.7240 C   0  0  0  0  0  3  0  0  0  0  0  0
   39.2710   23.6390   36.5450 C   0  0  0  0  0  0  0  0  0  0  0  0
   38.3100   24.5450   36.1360 C   0  0  0  0  0  3  0  0  0  0  0  0
  1 29  1  0  0  0  0
  1  6  1  0  0  0  0
  2  1  2  0  0  0  0
  3  2  1  0  0  0  0
  3  4  2  0  0  0  0
  4  5  1  0  0  0  0
  5  6  2  0  0  0  0
  5  9  1  0  0  0  0
  7  2  1  0  0  0  0
  8  3  1  0  0  0  0
  9 10  2  0  0  0  0
  9 18  1  0  0  0  0
 10 11  1  0  0  0  0
 11 20  1  0  0  0  0
 11 12  2  0  0  0  0
 12 13  1  0  0  0  0
 13 14  2  0  0  0  0
 14 21  1  0  0  0  0
 15 14  1  0  0  0  0
 15 22  1  0  0  0  0
 16 15  2  0  0  0  0
 17 12  1  0  0  0  0
 17 16  1  0  0  0  0
 18 17  2  0  0  0  0
 19 10  1  0  0  0  0
 23 16  1  0  0  0  0
 24 18  1  0  0  0  0
 25 26  1  0  0  0  0
 26 32  1  0  0  0  0
 26 27  2  0  0  0  0
 27 34  1  0  0  0  0
 28 27  1  0  0  0  0
 29 28  2  0  0  0  0
 30 25  2  0  0  0  0
 30 29  1  0  0  0  0
 31 25  1  0  0  0  0
 33 44  1  0  0  0  0
 34 35  1  0  0  0  0
 34 33  2  0  0  0  0
 35 37  2  0  0  0  0
 36 35  1  0  0  0  0
 37 38  1  0  0  0  0
 37 43  1  0  0  0  0
 38 40  1  0  0  0  0
 39 38  1  0  0  0  0
 40 42  2  0  0  0  0
 40 41  1  0  0  0  0
 43 42  1  0  0  0  0
 44 43  2  0  0  0  0
M  END
>  <minimizedAffinity>
-7.08126116

$$$$
