REMARK  Name = 
REMARK  3 active torsions:
REMARK  status: ('A' for Active; 'I' for Inactive)
REMARK    1  A    between atoms: C_3  and  C_12
REMARK    2  A    between atoms: C_5  and  C_14
REMARK    3  A    between atoms: C_18  and  C_29
REMARK                            x       y       z     vdW  Elec       q    Type
REMARK                         _______ _______ _______ _____ _____    ______ ____
ROOT
ATOM      1  C   UNL     1      32.902  29.197  46.760  0.00  0.00    +0.000 A 
ATOM      2  C   UNL     1      32.259  28.049  46.373  0.00  0.00    +0.000 A 
ATOM      3  C   UNL     1      31.253  28.039  45.420  0.00  0.00    +0.000 A 
ATOM      4  N   UNL     1      30.878  29.184  44.841  0.00  0.00    +0.000 NA
ATOM      5  C   UNL     1      31.497  30.312  45.208  0.00  0.00    +0.000 A 
ATOM      6  N   UNL     1      32.465  30.300  46.130  0.00  0.00    +0.000 NA
ATOM      7  H   UNL     1      32.557  27.103  46.840  0.00  0.00    +0.000 HD
ATOM      8  H   UNL     1      30.775  27.091  45.151  0.00  0.00    +0.000 HD
ENDROOT
BRANCH   5  10
ATOM      9  C   UNL     1      31.270  32.797  45.314  0.00  0.00    +0.000 A 
ATOM     10  C   UNL     1      31.150  31.608  44.627  0.00  0.00    +0.000 A 
ATOM     11  C   UNL     1      30.668  31.742  43.323  0.00  0.00    +0.000 A 
ATOM     12  H   UNL     1      30.570  30.797  42.771  0.00  0.00    +0.000 HD
ATOM     13  C   UNL     1      30.340  32.959  42.770  0.00  0.00    +0.000 A 
ATOM     14  N   UNL     1      29.873  33.188  41.537  0.00  0.00    +0.000 N 
ATOM     15  H   UNL     1      29.677  32.478  40.780  0.00  0.00    +0.000 HD
ATOM     16  C   UNL     1      29.703  34.511  41.454  0.00  0.00    +0.000 A 
ATOM     17  H   UNL     1      29.334  35.027  40.580  0.00  0.00    +0.000 HD
ATOM     18  C   UNL     1      30.069  35.127  42.656  0.00  0.00    +0.000 A 
ATOM     19  C   UNL     1      30.481  34.109  43.503  0.00  0.00    +0.000 A 
ATOM     20  C   UNL     1      30.954  34.034  44.798  0.00  0.00    +0.000 A 
ENDBRANCH   5  10
BRANCH   1  25
ATOM     21 BR   UNL     1      37.310  29.329  51.026  0.00  0.00    +0.000 Br
ATOM     22  C   UNL     1      35.962  29.324  49.680  0.00  0.00    +0.000 A 
ATOM     23  C   UNL     1      35.987  30.256  48.644  0.00  0.00    +0.000 A 
ATOM     24  C   UNL     1      34.985  30.196  47.709  0.00  0.00    +0.000 A 
ATOM     25  C   UNL     1      33.962  29.256  47.754  0.00  0.00    +0.000 A 
ATOM     26  C   UNL     1      33.967  28.359  48.781  0.00  0.00    +0.000 A 
ATOM     27  C   UNL     1      34.964  28.406  49.726  0.00  0.00    +0.000 A 
ATOM     28  H   UNL     1      34.940  30.897  46.864  0.00  0.00    +0.000 HD
ATOM     29  H   UNL     1      33.203  27.596  48.885  0.00  0.00    +0.000 HD
ATOM     30  H   UNL     1      34.961  27.697  50.531  0.00  0.00    +0.000 HD
BRANCH  23  35
ATOM     31  C   UNL     1      37.996  33.197  49.455  0.00  0.00    +0.000 A 
ATOM     32  C   UNL     1      39.023  33.176  48.466  0.00  0.00    +0.000 A 
ATOM     33  C   UNL     1      39.001  32.149  47.543  0.00  0.00    +0.000 A 
ATOM     34  N   UNL     1      38.007  31.214  47.620  0.00  0.00    +0.000 NA
ATOM     35  C   UNL     1      37.042  31.252  48.566  0.00  0.00    +0.000 A 
ATOM     36  N   UNL     1      37.053  32.253  49.476  0.00  0.00    +0.000 NA
ATOM     37  H   UNL     1      38.056  34.018  50.154  0.00  0.00    +0.000 HD
ATOM     38  H   UNL     1      39.817  33.891  48.375  0.00  0.00    +0.000 HD
ATOM     39  H   UNL     1      39.715  32.016  46.747  0.00  0.00    +0.000 HD
ENDBRANCH  23  35
ENDBRANCH   1  25
TORSDOF 3
