
 OpenBabel03272510193D

 39 43  0  0  0  0  0  0  0  0999 V2000
   32.8080   29.4190   46.7530 C   0  0  0  0  0  0  0  0  0  0  0  0
   31.9350   28.3820   46.5400 C   0  0  0  0  0  0  0  0  0  0  0  0
   30.8940   28.4540   45.6280 C   0  0  0  0  0  0  0  0  0  0  0  0
   30.7150   29.5710   44.9150 N   0  0  0  0  0  0  0  0  0  0  0  0
   31.5580   30.5900   45.1120 C   0  0  0  0  0  0  0  0  0  0  0  0
   32.5560   30.5000   45.9970 N   0  0  0  0  0  0  0  0  0  0  0  0
   32.0720   27.4600   47.1170 H   0  0  0  0  0  0  0  0  0  0  0  0
   30.2290   27.5930   45.5000 H   0  0  0  0  0  0  0  0  0  0  0  0
   31.6730   33.0800   44.9480 C   0  0  0  0  0  3  0  0  0  0  0  0
   31.4350   31.8480   44.3770 C   0  0  0  0  0  0  0  0  0  0  0  0
   31.0650   31.8990   43.0300 C   0  0  0  0  0  0  0  0  0  0  0  0
   30.8750   30.9200   42.5710 H   0  0  0  0  0  0  0  0  0  0  0  0
   30.9480   33.0800   42.3330 C   0  0  0  0  0  0  0  0  0  0  0  0
   30.6020   33.2310   41.0490 N   0  0  0  0  0  0  0  0  0  0  0  0
   30.3610   32.4730   40.3540 H   0  0  0  0  0  0  0  0  0  0  0  0
   30.6240   34.5470   40.8210 C   0  0  0  0  0  0  0  0  0  0  0  0
   30.3900   35.0070   39.8720 H   0  0  0  0  0  0  0  0  0  0  0  0
   30.9900   35.2390   41.9800 C   0  0  0  0  0  3  0  0  0  0  0  0
   31.1970   34.2750   42.9570 C   0  0  0  0  0  0  0  0  0  0  0  0
   31.5670   34.2830   44.2870 C   0  0  0  0  0  3  0  0  0  0  0  0
   37.4090   29.1690   50.8030 Br  0  0  0  0  0  0  0  0  0  0  0  0
   36.0010   29.2840   49.5260 C   0  0  0  0  0  0  0  0  0  0  0  0
   35.9910   30.2940   48.5660 C   0  0  0  0  0  0  0  0  0  0  0  0
   34.9460   30.3180   47.6780 C   0  0  0  0  0  0  0  0  0  0  0  0
   33.9130   29.3880   47.6970 C   0  0  0  0  0  0  0  0  0  0  0  0
   33.9530   28.4130   48.6500 C   0  0  0  0  0  0  0  0  0  0  0  0
   34.9930   28.3760   49.5470 C   0  0  0  0  0  0  0  0  0  0  0  0
   34.8720   31.0840   46.8930 H   0  0  0  0  0  0  0  0  0  0  0  0
   33.1840   27.6520   48.7290 H   0  0  0  0  0  0  0  0  0  0  0  0
   35.0170   27.6050   50.2940 H   0  0  0  0  0  0  0  0  0  0  0  0
   38.0280   33.1900   49.4630 C   0  0  0  0  0  0  0  0  0  0  0  0
   39.0530   33.1910   48.4720 C   0  0  0  0  0  0  0  0  0  0  0  0
   39.0200   32.1930   47.5170 C   0  0  0  0  0  0  0  0  0  0  0  0
   38.0170   31.2650   47.5680 N   0  0  0  0  0  0  0  0  0  0  0  0
   37.0550   31.2830   48.5170 C   0  0  0  0  0  0  0  0  0  0  0  0
   37.0770   32.2550   49.4570 N   0  0  0  0  0  0  0  0  0  0  0  0
   38.0970   33.9890   50.1870 H   0  0  0  0  0  0  0  0  0  0  0  0
   39.8530   33.9010   48.4010 H   0  0  0  0  0  0  0  0  0  0  0  0
   39.7310   32.0780   46.7160 H   0  0  0  0  0  0  0  0  0  0  0  0
  1 25  1  0  0  0  0
  2  1  1  0  0  0  0
  2  7  1  0  0  0  0
  3  2  2  0  0  0  0
  4  5  2  0  0  0  0
  4  3  1  0  0  0  0
  5  6  1  0  0  0  0
  6  1  2  0  0  0  0
  8  3  1  0  0  0  0
 10  9  1  0  0  0  0
 10  5  1  0  0  0  0
 11 10  2  0  0  0  0
 12 11  1  0  0  0  0
 13 19  2  0  0  0  0
 13 11  1  0  0  0  0
 14 13  1  0  0  0  0
 15 14  1  0  0  0  0
 16 14  1  0  0  0  0
 16 18  2  0  0  0  0
 17 16  1  0  0  0  0
 18 19  1  0  0  0  0
 19 20  1  0  0  0  0
 20  9  2  0  0  0  0
 22 27  1  0  0  0  0
 22 21  1  0  0  0  0
 23 22  2  0  0  0  0
 24 25  2  0  0  0  0
 24 23  1  0  0  0  0
 25 26  1  0  0  0  0
 26 29  1  0  0  0  0
 26 27  2  0  0  0  0
 27 30  1  0  0  0  0
 28 24  1  0  0  0  0
 31 37  1  0  0  0  0
 32 31  2  0  0  0  0
 33 34  2  0  0  0  0
 33 32  1  0  0  0  0
 34 35  1  0  0  0  0
 35 23  1  0  0  0  0
 35 36  2  0  0  0  0
 36 31  1  0  0  0  0
 38 32  1  0  0  0  0
 39 33  1  0  0  0  0
M  END
>  <minimizedAffinity>
-7.09014177

>  <minimizedRMSD>
0.889196396

$$$$
