
 OpenBabel03272510193D

 39 43  0  0  0  0  0  0  0  0999 V2000
   32.8170   29.2980   46.7990 C   0  0  0  0  0  0  0  0  0  0  0  0
   31.9350   28.2610   46.6360 C   0  0  0  0  0  0  0  0  0  0  0  0
   30.8950   28.2990   45.7210 C   0  0  0  0  0  0  0  0  0  0  0  0
   30.7260   29.3810   44.9550 N   0  0  0  0  0  0  0  0  0  0  0  0
   31.5790   30.4010   45.1020 C   0  0  0  0  0  0  0  0  0  0  0  0
   32.5760   30.3440   45.9910 N   0  0  0  0  0  0  0  0  0  0  0  0
   32.0620   27.3670   47.2580 H   0  0  0  0  0  0  0  0  0  0  0  0
   30.2210   27.4400   45.6360 H   0  0  0  0  0  0  0  0  0  0  0  0
   30.2630   32.2250   44.0180 C   0  0  0  0  0  3  0  0  0  0  0  0
   31.4680   31.6230   44.3070 C   0  0  0  0  0  0  0  0  0  0  0  0
   32.5810   32.2770   43.7750 C   0  0  0  0  0  0  0  0  0  0  0  0
   33.5450   31.8010   44.0020 H   0  0  0  0  0  0  0  0  0  0  0  0
   32.4840   33.4270   43.0250 C   0  0  0  0  0  0  0  0  0  0  0  0
   33.4850   34.1230   42.4760 N   0  0  0  0  0  0  0  0  0  0  0  0
   34.5190   33.9110   42.5230 H   0  0  0  0  0  0  0  0  0  0  0  0
   32.9100   35.1530   41.8480 C   0  0  0  0  0  0  0  0  0  0  0  0
   33.4480   35.9120   41.2990 H   0  0  0  0  0  0  0  0  0  0  0  0
   31.5210   35.1060   42.0040 C   0  0  0  0  0  3  0  0  0  0  0  0
   31.2550   33.9800   42.7700 C   0  0  0  0  0  0  0  0  0  0  0  0
   30.1200   33.3740   43.2720 C   0  0  0  0  0  3  0  0  0  0  0  0
   37.4200   29.1970   50.8550 Br  0  0  0  0  0  0  0  0  0  0  0  0
   36.0110   29.2660   49.5750 C   0  0  0  0  0  0  0  0  0  0  0  0
   35.9890   30.2530   48.5910 C   0  0  0  0  0  0  0  0  0  0  0  0
   34.9450   30.2440   47.7020 C   0  0  0  0  0  0  0  0  0  0  0  0
   33.9230   29.3030   47.7440 C   0  0  0  0  0  0  0  0  0  0  0  0
   33.9730   28.3510   48.7190 C   0  0  0  0  0  0  0  0  0  0  0  0
   35.0140   28.3460   49.6170 C   0  0  0  0  0  0  0  0  0  0  0  0
   34.8620   30.9900   46.9000 H   0  0  0  0  0  0  0  0  0  0  0  0
   33.2130   27.5830   48.8170 H   0  0  0  0  0  0  0  0  0  0  0  0
   35.0460   27.5950   50.3820 H   0  0  0  0  0  0  0  0  0  0  0  0
   38.0090   33.1770   49.4370 C   0  0  0  0  0  0  0  0  0  0  0  0
   39.0190   33.1800   48.4300 C   0  0  0  0  0  0  0  0  0  0  0  0
   38.9820   32.1750   47.4840 C   0  0  0  0  0  0  0  0  0  0  0  0
   37.9910   31.2370   47.5560 N   0  0  0  0  0  0  0  0  0  0  0  0
   37.0420   31.2520   48.5190 C   0  0  0  0  0  0  0  0  0  0  0  0
   37.0680   32.2310   49.4520 N   0  0  0  0  0  0  0  0  0  0  0  0
   38.0810   33.9810   50.1540 H   0  0  0  0  0  0  0  0  0  0  0  0
   39.8110   33.8980   48.3420 H   0  0  0  0  0  0  0  0  0  0  0  0
   39.6830   32.0620   46.6720 H   0  0  0  0  0  0  0  0  0  0  0  0
  1 25  1  0  0  0  0
  2  1  1  0  0  0  0
  2  7  1  0  0  0  0
  3  2  2  0  0  0  0
  4  5  2  0  0  0  0
  4  3  1  0  0  0  0
  5  6  1  0  0  0  0
  6  1  2  0  0  0  0
  8  3  1  0  0  0  0
  9 10  1  0  0  0  0
 10  5  1  0  0  0  0
 11 12  1  0  0  0  0
 11 10  2  0  0  0  0
 13 11  1  0  0  0  0
 14 15  1  0  0  0  0
 14 13  1  0  0  0  0
 16 18  2  0  0  0  0
 16 14  1  0  0  0  0
 17 16  1  0  0  0  0
 18 19  1  0  0  0  0
 19 13  2  0  0  0  0
 19 20  1  0  0  0  0
 20  9  2  0  0  0  0
 22 27  1  0  0  0  0
 22 21  1  0  0  0  0
 23 22  2  0  0  0  0
 24 25  2  0  0  0  0
 24 23  1  0  0  0  0
 25 26  1  0  0  0  0
 26 29  1  0  0  0  0
 26 27  2  0  0  0  0
 27 30  1  0  0  0  0
 28 24  1  0  0  0  0
 31 36  1  0  0  0  0
 31 37  1  0  0  0  0
 32 31  2  0  0  0  0
 33 34  2  0  0  0  0
 33 32  1  0  0  0  0
 34 35  1  0  0  0  0
 35 23  1  0  0  0  0
 35 36  2  0  0  0  0
 38 32  1  0  0  0  0
 39 33  1  0  0  0  0
M  END
>  <minimizedAffinity>
-6.96086359

>  <minimizedRMSD>
0.711701751

$$$$
