
 OpenBabel03272509243D

 27 29  0  0  0  0  0  0  0  0999 V2000
   38.7640   32.2410   48.2690 C   0  0  0  0  0  0  0  0  0  0  0  0
   39.2980   31.5650   48.9650 H   0  0  0  0  0  0  0  0  0  0  0  0
   38.8290   33.3040   48.4950 H   0  0  0  0  0  0  0  0  0  0  0  0
   39.9870   32.9800   46.1590 C   0  0  0  0  0  0  0  0  0  0  0  0
   39.2790   32.0190   46.8660 C   0  0  0  0  0  0  0  0  0  0  0  0
   39.0420   30.8030   46.2450 C   0  0  0  0  0  0  0  0  0  0  0  0
   38.4920   30.0680   46.8090 H   0  0  0  0  0  0  0  0  0  0  0  0
   39.4840   30.5290   44.9640 C   0  0  0  0  0  0  0  0  0  0  0  0
   39.3880   29.4570   44.1560 N   0  0  0  0  0  0  0  0  0  0  0  0
   38.8830   28.5900   44.4870 H   0  0  0  0  0  0  0  0  0  0  0  0
   39.9940   29.7010   42.9940 C   0  0  0  0  0  0  0  0  0  0  0  0
   40.0190   28.9550   42.2160 H   0  0  0  0  0  0  0  0  0  0  0  0
   40.5090   30.9770   43.0340 C   0  0  0  0  0  0  0  0  0  0  0  0
   40.1860   31.4990   44.2780 C   0  0  0  0  0  0  0  0  0  0  0  0
   40.4300   32.7170   44.8840 C   0  0  0  0  0  0  0  0  0  0  0  0
   37.3060   31.8160   48.2100 C   0  0  0  0  0  0  0  0  0  0  0  0
   37.1610   31.1630   47.3050 H   0  0  0  0  0  0  0  0  0  0  0  0
   36.6320   32.6870   48.1830 H   0  0  0  0  0  0  0  0  0  0  0  0
   37.3810   30.0180   51.5460 C   0  0  0  0  0  0  0  0  0  0  0  0
   37.8050   30.8370   50.4790 C   0  0  0  0  0  0  0  0  0  0  0  0
   36.9680   30.9800   49.3880 C   0  0  0  0  0  0  0  0  0  0  0  0
   35.7620   30.3230   49.3820 N   0  0  0  0  0  0  0  0  0  0  0  0
   35.3910   29.5430   50.4280 C   0  0  0  0  0  0  0  0  0  0  0  0
   36.1860   29.3860   51.5050 N   0  0  0  0  0  0  0  0  0  0  0  0
   38.0780   29.9470   52.3660 H   0  0  0  0  0  0  0  0  0  0  0  0
   38.7570   31.3330   50.5240 H   0  0  0  0  0  0  0  0  0  0  0  0
   34.4240   29.0550   50.3540 H   0  0  0  0  0  0  0  0  0  0  0  0
  1  3  1  0  0  0  0
  1  2  1  0  0  0  0
  4  5  1  0  0  0  0
  5  1  1  0  0  0  0
  6  7  1  0  0  0  0
  6  5  2  0  0  0  0
  8  6  1  0  0  0  0
  9 10  1  0  0  0  0
  9  8  1  0  0  0  0
 11 13  2  0  0  0  0
 11  9  1  0  0  0  0
 12 11  1  0  0  0  0
 13 14  1  0  0  0  0
 14 15  1  0  0  0  0
 14  8  2  0  0  0  0
 15  4  2  0  0  0  0
 16  1  1  0  0  0  0
 16 21  1  0  0  0  0
 17 16  1  0  0  0  0
 18 16  1  0  0  0  0
 19 25  1  0  0  0  0
 20 26  1  0  0  0  0
 20 19  2  0  0  0  0
 21 20  1  0  0  0  0
 22 21  2  0  0  0  0
 22 23  1  0  0  0  0
 23 24  2  0  0  0  0
 24 19  1  0  0  0  0
 27 23  1  0  0  0  0
M  END
>  <minimizedAffinity>
-5.99701738

>  <minimizedRMSD>
2.68793678

$$$$
