
 OpenBabel03272506003D

 47 51  0  0  1  0  0  0  0  0999 V2000
   39.9880   22.2760   36.6250 C   0  0  2  0  0  0  0  0  0  0  0  0
   39.3290   22.9080   35.4580 C   0  0  0  0  0  0  0  0  0  0  0  0
   38.8250   24.3310   35.7620 C   0  0  2  0  0  0  0  0  0  0  0  0
   37.9230   24.4140   36.9100 C   0  0  0  0  0  0  0  0  0  0  0  0
   38.3300   23.5100   38.0680 C   0  0  0  0  0  0  0  0  0  0  0  0
   39.7370   23.0090   37.9200 C   0  0  0  0  0  0  0  0  0  0  0  0
   39.6110   21.2270   36.8190 H   0  0  0  0  0  0  0  0  0  0  0  0
   39.8250   23.0280   34.5250 H   0  0  0  0  0  0  0  0  0  0  0  0
   38.3890   22.3040   35.2310 H   0  0  0  0  0  0  0  0  0  0  0  0
   39.7110   24.9600   35.8490 H   0  0  0  0  0  0  0  0  0  0  0  0
   36.8780   24.1260   36.6800 H   0  0  0  0  0  0  0  0  0  0  0  0
   37.8570   25.4790   37.2330 H   0  0  0  0  0  0  0  0  0  0  0  0
   38.3120   24.1420   38.9790 H   0  0  0  0  0  0  0  0  0  0  0  0
   37.6240   22.6910   38.2520 H   0  0  0  0  0  0  0  0  0  0  0  0
   39.9510   22.3210   38.7490 H   0  0  0  0  0  0  0  0  0  0  0  0
   40.4650   23.8350   37.9840 H   0  0  0  0  0  0  0  0  0  0  0  0
   38.0550   27.1700   35.6090 Cl  0  0  0  0  0  0  0  0  0  0  0  0
   37.6660   26.0200   34.3400 C   0  0  0  0  0  0  0  0  0  0  0  0
   38.1010   24.7160   34.5130 C   0  0  0  0  0  0  0  0  0  0  0  0
   37.7550   23.8920   33.4630 C   0  0  0  0  0  0  0  0  0  0  0  0
   37.0460   24.3390   32.3630 C   0  0  0  0  0  0  0  0  0  0  0  0
   36.6460   25.6670   32.2700 C   0  0  0  0  0  0  0  0  0  0  0  0
   36.9750   26.5340   33.3060 C   0  0  0  0  0  0  0  0  0  0  0  0
   38.0680   22.8580   33.5320 H   0  0  0  0  0  0  0  0  0  0  0  0
   36.8260   23.5960   31.5910 H   0  0  0  0  0  0  0  0  0  0  0  0
   36.0970   25.9730   31.3980 H   0  0  0  0  0  0  0  0  0  0  0  0
   36.8720   28.5060   31.9610 C   0  0  0  0  0  3  0  0  0  0  0  0
   36.5510   27.9260   33.1920 C   0  0  0  0  0  0  0  0  0  0  0  0
   35.8970   28.7240   34.1070 C   0  0  0  0  0  0  0  0  0  0  0  0
   35.6820   28.2110   35.0340 H   0  0  0  0  0  0  0  0  0  0  0  0
   35.5890   30.0210   33.7930 C   0  0  0  0  0  0  0  0  0  0  0  0
   34.9590   30.9310   34.5600 N   0  0  0  0  0  0  0  0  0  0  0  0
   34.5960   30.7800   35.5460 H   0  0  0  0  0  0  0  0  0  0  0  0
   34.8790   32.0570   33.8420 C   0  0  0  0  0  0  0  0  0  0  0  0
   34.4200   32.9760   34.1940 H   0  0  0  0  0  0  0  0  0  0  0  0
   35.4630   31.8810   32.5940 C   0  0  0  0  0  3  0  0  0  0  0  0
   35.9080   30.5730   32.5890 C   0  0  0  0  0  0  0  0  0  0  0  0
   36.5610   29.8180   31.6420 C   0  0  0  0  0  3  0  0  0  0  0  0
   41.4450   22.1490   36.4660 C   0  0  0  0  0  0  0  0  0  0  0  0
   42.1370   23.3570   36.3620 C   0  0  0  0  0  0  0  0  0  0  0  0
   43.5310   23.2930   36.2240 C   0  0  0  0  0  0  0  0  0  0  0  0
   44.1490   22.0480   36.1980 N   0  0  0  0  0  0  0  0  0  0  0  0
   43.4370   20.9070   36.3030 C   0  0  0  0  0  0  0  0  0  0  0  0
   42.1110   20.9930   36.4330 N   0  0  0  0  0  0  0  0  0  0  0  0
   41.9540   24.4160   36.3410 H   0  0  0  0  0  0  0  0  0  0  0  0
   44.2870   24.0350   36.1270 H   0  0  0  0  0  0  0  0  0  0  0  0
   43.8720   19.9380   36.2880 H   0  0  0  0  0  0  0  0  0  0  0  0
  1  7  1  1  0  0  0
  1  6  1  0  0  0  0
  2  3  1  0  0  0  0
  2  1  1  0  0  0  0
  3 10  1  1  0  0  0
  3  4  1  0  0  0  0
  4 12  1  0  0  0  0
  4  5  1  0  0  0  0
  5 14  1  0  0  0  0
  5 13  1  0  0  0  0
  6 16  1  0  0  0  0
  6  5  1  0  0  0  0
  6 15  1  0  0  0  0
  8  2  1  0  0  0  0
  9  2  1  0  0  0  0
 11  4  1  0  0  0  0
 18 19  1  0  0  0  0
 18 17  1  0  0  0  0
 19  3  1  0  0  0  0
 20 24  1  0  0  0  0
 20 19  2  0  0  0  0
 21 20  1  0  0  0  0
 22 21  2  0  0  0  0
 22 23  1  0  0  0  0
 23 18  2  0  0  0  0
 25 21  1  0  0  0  0
 26 22  1  0  0  0  0
 27 28  1  0  0  0  0
 28 23  1  0  0  0  0
 28 29  2  0  0  0  0
 29 30  1  0  0  0  0
 31 29  1  0  0  0  0
 31 32  1  0  0  0  0
 32 33  1  0  0  0  0
 34 35  1  0  0  0  0
 34 32  1  0  0  0  0
 36 34  2  0  0  0  0
 37 36  1  0  0  0  0
 37 31  2  0  0  0  0
 38 27  2  0  0  0  0
 38 37  1  0  0  0  0
 39  1  1  0  0  0  0
 40 39  2  0  0  0  0
 41 40  1  0  0  0  0
 42 41  2  0  0  0  0
 42 43  1  0  0  0  0
 43 44  2  0  0  0  0
 44 39  1  0  0  0  0
 45 40  1  0  0  0  0
 46 41  1  0  0  0  0
 47 43  1  0  0  0  0
M  END
>  <minimizedAffinity>
-6.88964081

$$$$

 OpenBabel03272506003D

 47 51  0  0  1  0  0  0  0  0999 V2000
   34.6220   30.1990   32.9740 C   0  0  2  0  0  0  0  0  0  0  0  0
   35.0020   28.7670   32.9270 C   0  0  0  0  0  0  0  0  0  0  0  0
   36.4410   28.5540   32.4240 C   0  0  2  0  0  0  0  0  0  0  0  0
   36.7150   29.1550   31.1190 C   0  0  0  0  0  0  0  0  0  0  0  0
   36.0600   30.5170   30.9290 C   0  0  0  0  0  0  0  0  0  0  0  0
   35.5800   31.0950   32.2290 C   0  0  0  0  0  0  0  0  0  0  0  0
   33.6180   30.3970   32.4910 H   0  0  0  0  0  0  0  0  0  0  0  0
   34.9570   28.1410   33.7840 H   0  0  0  0  0  0  0  0  0  0  0  0
   34.3390   28.2670   32.1460 H   0  0  0  0  0  0  0  0  0  0  0  0
   37.1010   28.9040   33.2190 H   0  0  0  0  0  0  0  0  0  0  0  0
   36.3590   28.5480   30.2630 H   0  0  0  0  0  0  0  0  0  0  0  0
   37.8200   29.2160   30.9810 H   0  0  0  0  0  0  0  0  0  0  0  0
   36.8530   31.1960   30.5530 H   0  0  0  0  0  0  0  0  0  0  0  0
   35.2710   30.5210   30.1670 H   0  0  0  0  0  0  0  0  0  0  0  0
   35.0680   32.0440   32.0210 H   0  0  0  0  0  0  0  0  0  0  0  0
   36.4230   31.3190   32.9030 H   0  0  0  0  0  0  0  0  0  0  0  0
   38.2570   27.3490   34.4050 Cl  0  0  0  0  0  0  0  0  0  0  0  0
   37.4080   26.3920   33.2030 C   0  0  0  0  0  0  0  0  0  0  0  0
   36.5620   27.0670   32.3390 C   0  0  0  0  0  0  0  0  0  0  0  0
   35.9370   26.2310   31.4390 C   0  0  0  0  0  0  0  0  0  0  0  0
   36.1460   24.8640   31.4160 C   0  0  0  0  0  0  0  0  0  0  0  0
   37.0150   24.2660   32.3220 C   0  0  0  0  0  0  0  0  0  0  0  0
   37.6670   25.0720   33.2480 C   0  0  0  0  0  0  0  0  0  0  0  0
   35.2570   26.6940   30.7350 H   0  0  0  0  0  0  0  0  0  0  0  0
   35.5960   24.3010   30.6570 H   0  0  0  0  0  0  0  0  0  0  0  0
   37.1480   23.2010   32.2700 H   0  0  0  0  0  0  0  0  0  0  0  0
   39.9020   24.3990   33.7580 C   0  0  0  0  0  3  0  0  0  0  0  0
   38.5730   24.4290   34.1940 C   0  0  0  0  0  0  0  0  0  0  0  0
   38.3070   23.8610   35.4210 C   0  0  0  0  0  0  0  0  0  0  0  0
   37.2620   23.9200   35.6920 H   0  0  0  0  0  0  0  0  0  0  0  0
   39.3180   23.3030   36.1560 C   0  0  0  0  0  0  0  0  0  0  0  0
   39.2350   22.7120   37.3640 N   0  0  0  0  0  0  0  0  0  0  0  0
   38.3550   22.5850   37.9440 H   0  0  0  0  0  0  0  0  0  0  0  0
   40.4710   22.3180   37.6900 C   0  0  0  0  0  0  0  0  0  0  0  0
   40.7270   21.8060   38.6140 H   0  0  0  0  0  0  0  0  0  0  0  0
   41.3700   22.6530   36.6860 C   0  0  0  0  0  3  0  0  0  0  0  0
   40.6080   23.2820   35.7190 C   0  0  0  0  0  0  0  0  0  0  0  0
   40.9270   23.8340   34.5000 C   0  0  0  0  0  3  0  0  0  0  0  0
   34.5090   30.7200   34.3460 C   0  0  0  0  0  0  0  0  0  0  0  0
   35.6900   31.2330   34.8840 C   0  0  0  0  0  0  0  0  0  0  0  0
   35.6340   31.7570   36.1840 C   0  0  0  0  0  0  0  0  0  0  0  0
   34.4220   31.7400   36.8640 N   0  0  0  0  0  0  0  0  0  0  0  0
   33.3060   31.2330   36.3020 C   0  0  0  0  0  0  0  0  0  0  0  0
   33.3840   30.7400   35.0640 N   0  0  0  0  0  0  0  0  0  0  0  0
   36.7240   31.3730   34.6270 H   0  0  0  0  0  0  0  0  0  0  0  0
   36.3610   32.1990   36.8220 H   0  0  0  0  0  0  0  0  0  0  0  0
   32.3620   31.2020   36.7890 H   0  0  0  0  0  0  0  0  0  0  0  0
  1  7  1  6  0  0  0
  1 39  1  0  0  0  0
  2  1  1  0  0  0  0
  2  8  1  0  0  0  0
  3  2  1  0  0  0  0
  3 10  1  1  0  0  0
  4  3  1  0  0  0  0
  5  4  1  0  0  0  0
  5  6  1  0  0  0  0
  6 16  1  0  0  0  0
  6  1  1  0  0  0  0
  9  2  1  0  0  0  0
 11  4  1  0  0  0  0
 12  4  1  0  0  0  0
 13  5  1  0  0  0  0
 14  5  1  0  0  0  0
 15  6  1  0  0  0  0
 18 23  1  0  0  0  0
 18 17  1  0  0  0  0
 19  3  1  0  0  0  0
 19 18  2  0  0  0  0
 20 19  1  0  0  0  0
 21 20  2  0  0  0  0
 21 22  1  0  0  0  0
 22 23  2  0  0  0  0
 23 28  1  0  0  0  0
 24 20  1  0  0  0  0
 25 21  1  0  0  0  0
 26 22  1  0  0  0  0
 27 28  2  0  0  0  0
 27 38  1  0  0  0  0
 28 29  1  0  0  0  0
 29 30  1  0  0  0  0
 29 31  2  0  0  0  0
 31 32  1  0  0  0  0
 32 34  1  0  0  0  0
 32 33  1  0  0  0  0
 34 35  1  0  0  0  0
 36 34  2  0  0  0  0
 37 31  1  0  0  0  0
 37 36  1  0  0  0  0
 38 37  2  0  0  0  0
 39 40  2  0  0  0  0
 39 44  1  0  0  0  0
 40 41  1  0  0  0  0
 41 46  1  0  0  0  0
 41 42  2  0  0  0  0
 43 47  1  0  0  0  0
 43 42  1  0  0  0  0
 44 43  2  0  0  0  0
 45 40  1  0  0  0  0
M  END
>  <minimizedAffinity>
-6.88954782

$$$$

 OpenBabel03272506003D

 47 51  0  0  1  0  0  0  0  0999 V2000
   39.6760   24.7460   34.3090 C   0  0  2  0  0  0  0  0  0  0  0  0
   39.0010   25.9920   33.8780 C   0  0  0  0  0  0  0  0  0  0  0  0
   37.9230   25.7420   32.8080 C   0  0  2  0  0  0  0  0  0  0  0  0
   38.4090   25.0390   31.6210 C   0  0  0  0  0  0  0  0  0  0  0  0
   39.4080   23.9320   31.9380 C   0  0  0  0  0  0  0  0  0  0  0  0
   39.4040   23.5750   33.3960 C   0  0  0  0  0  0  0  0  0  0  0  0
   40.8030   24.8430   34.3130 H   0  0  0  0  0  0  0  0  0  0  0  0
   38.5050   26.6340   34.5650 H   0  0  0  0  0  0  0  0  0  0  0  0
   39.7840   26.6410   33.3620 H   0  0  0  0  0  0  0  0  0  0  0  0
   37.0980   25.2390   33.3130 H   0  0  0  0  0  0  0  0  0  0  0  0
   38.9330   25.6930   30.8960 H   0  0  0  0  0  0  0  0  0  0  0  0
   37.5310   24.6420   31.0590 H   0  0  0  0  0  0  0  0  0  0  0  0
   39.0620   23.0320   31.3900 H   0  0  0  0  0  0  0  0  0  0  0  0
   40.4210   24.1390   31.5730 H   0  0  0  0  0  0  0  0  0  0  0  0
   40.1810   22.8180   33.5710 H   0  0  0  0  0  0  0  0  0  0  0  0
   38.4410   23.1310   33.6980 H   0  0  0  0  0  0  0  0  0  0  0  0
   36.3700   27.1300   34.8900 Cl  0  0  0  0  0  0  0  0  0  0  0  0
   36.7130   27.8590   33.3300 C   0  0  0  0  0  0  0  0  0  0  0  0
   37.4740   27.1180   32.4390 C   0  0  0  0  0  0  0  0  0  0  0  0
   37.6950   27.7760   31.2480 C   0  0  0  0  0  0  0  0  0  0  0  0
   37.2000   29.0410   30.9880 C   0  0  0  0  0  0  0  0  0  0  0  0
   36.4430   29.7150   31.9400 C   0  0  0  0  0  0  0  0  0  0  0  0
   36.1960   29.0890   33.1560 C   0  0  0  0  0  0  0  0  0  0  0  0
   38.2880   27.2550   30.5070 H   0  0  0  0  0  0  0  0  0  0  0  0
   37.4380   29.4640   30.0080 H   0  0  0  0  0  0  0  0  0  0  0  0
   36.0780   30.6960   31.6970 H   0  0  0  0  0  0  0  0  0  0  0  0
   34.0260   29.5930   34.0210 C   0  0  0  0  0  3  0  0  0  0  0  0
   35.4020   29.8100   34.1460 C   0  0  0  0  0  0  0  0  0  0  0  0
   35.8110   30.6540   35.1570 C   0  0  0  0  0  0  0  0  0  0  0  0
   36.8850   30.7750   35.1930 H   0  0  0  0  0  0  0  0  0  0  0  0
   34.8880   31.2350   35.9840 C   0  0  0  0  0  0  0  0  0  0  0  0
   35.1120   32.0760   37.0130 N   0  0  0  0  0  0  0  0  0  0  0  0
   36.0570   32.4240   37.3480 H   0  0  0  0  0  0  0  0  0  0  0  0
   33.9170   32.3850   37.5290 C   0  0  0  0  0  0  0  0  0  0  0  0
   33.7700   33.0490   38.3760 H   0  0  0  0  0  0  0  0  0  0  0  0
   32.9030   31.7420   36.8310 C   0  0  0  0  0  3  0  0  0  0  0  0
   33.5510   31.0140   35.8510 C   0  0  0  0  0  0  0  0  0  0  0  0
   33.0900   30.1810   34.8570 C   0  0  0  0  0  3  0  0  0  0  0  0
   39.3100   24.3340   35.6730 C   0  0  0  0  0  0  0  0  0  0  0  0
   40.0850   23.3040   36.2100 C   0  0  0  0  0  0  0  0  0  0  0  0
   39.7880   22.8850   37.5150 C   0  0  0  0  0  0  0  0  0  0  0  0
   38.7500   23.5050   38.2010 N   0  0  0  0  0  0  0  0  0  0  0  0
   38.0300   24.4980   37.6400 C   0  0  0  0  0  0  0  0  0  0  0  0
   38.3310   24.8800   36.3970 N   0  0  0  0  0  0  0  0  0  0  0  0
   40.9000   22.6580   35.9430 H   0  0  0  0  0  0  0  0  0  0  0  0
   40.2030   22.1420   38.1530 H   0  0  0  0  0  0  0  0  0  0  0  0
   37.2300   24.9960   38.1320 H   0  0  0  0  0  0  0  0  0  0  0  0
  1  7  1  6  0  0  0
  1 39  1  0  0  0  0
  2  1  1  0  0  0  0
  2  8  1  0  0  0  0
  3 10  1  1  0  0  0
  3  2  1  0  0  0  0
  4  5  1  0  0  0  0
  4  3  1  0  0  0  0
  5  6  1  0  0  0  0
  6 15  1  0  0  0  0
  6 16  1  0  0  0  0
  6  1  1  0  0  0  0
  9  2  1  0  0  0  0
 11  4  1  0  0  0  0
 12  4  1  0  0  0  0
 13  5  1  0  0  0  0
 14  5  1  0  0  0  0
 18 17  1  0  0  0  0
 19  3  1  0  0  0  0
 19 18  2  0  0  0  0
 20 19  1  0  0  0  0
 21 20  2  0  0  0  0
 21 22  1  0  0  0  0
 22 23  2  0  0  0  0
 23 18  1  0  0  0  0
 23 28  1  0  0  0  0
 24 20  1  0  0  0  0
 25 21  1  0  0  0  0
 26 22  1  0  0  0  0
 27 28  2  0  0  0  0
 27 38  1  0  0  0  0
 28 29  1  0  0  0  0
 29 30  1  0  0  0  0
 29 31  2  0  0  0  0
 31 32  1  0  0  0  0
 32 33  1  0  0  0  0
 32 34  1  0  0  0  0
 34 35  1  0  0  0  0
 36 34  2  0  0  0  0
 37 31  1  0  0  0  0
 37 36  1  0  0  0  0
 38 37  2  0  0  0  0
 39 40  2  0  0  0  0
 39 44  1  0  0  0  0
 40 41  1  0  0  0  0
 41 46  1  0  0  0  0
 41 42  2  0  0  0  0
 43 47  1  0  0  0  0
 43 42  1  0  0  0  0
 44 43  2  0  0  0  0
 45 40  1  0  0  0  0
M  END
>  <minimizedAffinity>
-6.80476046

$$$$

 OpenBabel03272506003D

 47 51  0  0  1  0  0  0  0  0999 V2000
   37.6790   24.1770   33.2910 C   0  0  2  0  0  0  0  0  0  0  0  0
   37.0920   25.4480   32.8040 C   0  0  0  0  0  0  0  0  0  0  0  0
   38.1460   26.3960   32.2050 C   0  0  2  0  0  0  0  0  0  0  0  0
   39.2540   26.7080   33.1070 C   0  0  0  0  0  0  0  0  0  0  0  0
   39.7170   25.5140   33.9330 C   0  0  0  0  0  0  0  0  0  0  0  0
   39.1840   24.2180   33.3940 C   0  0  0  0  0  0  0  0  0  0  0  0
   37.3330   23.9110   34.3340 H   0  0  0  0  0  0  0  0  0  0  0  0
   36.3140   25.4710   32.0800 H   0  0  0  0  0  0  0  0  0  0  0  0
   36.6810   26.0010   33.7130 H   0  0  0  0  0  0  0  0  0  0  0  0
   38.4570   25.9520   31.2590 H   0  0  0  0  0  0  0  0  0  0  0  0
   39.0170   27.4930   33.8520 H   0  0  0  0  0  0  0  0  0  0  0  0
   40.0920   27.1330   32.5060 H   0  0  0  0  0  0  0  0  0  0  0  0
   40.8210   25.4710   33.8290 H   0  0  0  0  0  0  0  0  0  0  0  0
   39.5180   25.6200   35.0060 H   0  0  0  0  0  0  0  0  0  0  0  0
   39.5030   23.4060   34.0620 H   0  0  0  0  0  0  0  0  0  0  0  0
   39.5950   24.0000   32.3950 H   0  0  0  0  0  0  0  0  0  0  0  0
   36.8500   27.6360   34.5410 Cl  0  0  0  0  0  0  0  0  0  0  0  0
   36.6910   28.2910   32.9200 C   0  0  0  0  0  0  0  0  0  0  0  0
   37.3670   27.6350   31.9030 C   0  0  0  0  0  0  0  0  0  0  0  0
   37.1870   28.2270   30.6710 C   0  0  0  0  0  0  0  0  0  0  0  0
   36.4100   29.3560   30.4900 C   0  0  0  0  0  0  0  0  0  0  0  0
   35.7640   29.9530   31.5670 C   0  0  0  0  0  0  0  0  0  0  0  0
   35.9190   29.3890   32.8290 C   0  0  0  0  0  0  0  0  0  0  0  0
   37.6920   27.7660   29.8310 H   0  0  0  0  0  0  0  0  0  0  0  0
   36.3380   29.7380   29.4670 H   0  0  0  0  0  0  0  0  0  0  0  0
   35.1710   30.8290   31.3820 H   0  0  0  0  0  0  0  0  0  0  0  0
   33.9020   29.6340   34.0870 C   0  0  0  0  0  3  0  0  0  0  0  0
   35.2370   30.0280   33.9500 C   0  0  0  0  0  0  0  0  0  0  0  0
   35.7150   30.9420   34.8640 C   0  0  0  0  0  0  0  0  0  0  0  0
   36.7520   31.2000   34.6970 H   0  0  0  0  0  0  0  0  0  0  0  0
   34.8960   31.4220   35.8500 C   0  0  0  0  0  0  0  0  0  0  0  0
   35.1970   32.3110   36.8180 N   0  0  0  0  0  0  0  0  0  0  0  0
   36.1350   32.7850   36.9670 H   0  0  0  0  0  0  0  0  0  0  0  0
   34.0910   32.4790   37.5500 C   0  0  0  0  0  0  0  0  0  0  0  0
   34.0200   33.1400   38.4090 H   0  0  0  0  0  0  0  0  0  0  0  0
   33.0560   31.6940   37.0570 C   0  0  0  0  0  3  0  0  0  0  0  0
   33.5970   31.0300   35.9720 C   0  0  0  0  0  0  0  0  0  0  0  0
   33.0710   30.1200   35.0840 C   0  0  0  0  0  3  0  0  0  0  0  0
   37.3270   23.0210   32.4510 C   0  0  0  0  0  0  0  0  0  0  0  0
   38.3760   22.1390   32.1870 C   0  0  0  0  0  0  0  0  0  0  0  0
   38.0900   21.0110   31.4030 C   0  0  0  0  0  0  0  0  0  0  0  0
   36.7950   20.8290   30.9340 N   0  0  0  0  0  0  0  0  0  0  0  0
   35.8130   21.7100   31.2160 C   0  0  0  0  0  0  0  0  0  0  0  0
   36.1090   22.7760   31.9640 N   0  0  0  0  0  0  0  0  0  0  0  0
   39.4240   22.0170   32.3880 H   0  0  0  0  0  0  0  0  0  0  0  0
   38.6810   20.1980   31.0560 H   0  0  0  0  0  0  0  0  0  0  0  0
   34.8120   21.6050   30.8760 H   0  0  0  0  0  0  0  0  0  0  0  0
  1  6  1  0  0  0  0
  1  7  1  1  0  0  0
  2  1  1  0  0  0  0
  2  9  1  0  0  0  0
  3 10  1  6  0  0  0
  3  2  1  0  0  0  0
  3  4  1  0  0  0  0
  4 11  1  0  0  0  0
  4  5  1  0  0  0  0
  5 14  1  0  0  0  0
  6  5  1  0  0  0  0
  6 15  1  0  0  0  0
  8  2  1  0  0  0  0
 12  4  1  0  0  0  0
 13  5  1  0  0  0  0
 16  6  1  0  0  0  0
 18 17  1  0  0  0  0
 19  3  1  0  0  0  0
 19 18  2  0  0  0  0
 20 19  1  0  0  0  0
 21 20  2  0  0  0  0
 21 22  1  0  0  0  0
 22 23  2  0  0  0  0
 23 18  1  0  0  0  0
 23 28  1  0  0  0  0
 24 20  1  0  0  0  0
 25 21  1  0  0  0  0
 26 22  1  0  0  0  0
 27 38  1  0  0  0  0
 28 27  2  0  0  0  0
 28 29  1  0  0  0  0
 29 31  2  0  0  0  0
 30 29  1  0  0  0  0
 31 37  1  0  0  0  0
 31 32  1  0  0  0  0
 32 33  1  0  0  0  0
 32 34  1  0  0  0  0
 34 35  1  0  0  0  0
 36 34  2  0  0  0  0
 37 36  1  0  0  0  0
 38 37  2  0  0  0  0
 39  1  1  0  0  0  0
 40 45  1  0  0  0  0
 40 39  1  0  0  0  0
 41 40  2  0  0  0  0
 42 43  2  0  0  0  0
 42 41  1  0  0  0  0
 43 44  1  0  0  0  0
 44 39  2  0  0  0  0
 46 41  1  0  0  0  0
 47 43  1  0  0  0  0
M  END
>  <minimizedAffinity>
-6.65800285

$$$$

 OpenBabel03272506003D

 47 51  0  0  1  0  0  0  0  0999 V2000
   35.5340   30.5700   32.2020 C   0  0  2  0  0  0  0  0  0  0  0  0
   35.6300   29.0990   32.3550 C   0  0  0  0  0  0  0  0  0  0  0  0
   36.9150   28.5220   31.7330 C   0  0  2  0  0  0  0  0  0  0  0  0
   37.1010   28.8590   30.3230 C   0  0  0  0  0  0  0  0  0  0  0  0
   36.6910   30.2860   29.9800 C   0  0  0  0  0  0  0  0  0  0  0  0
   36.5230   31.1310   31.2100 C   0  0  0  0  0  0  0  0  0  0  0  0
   34.5260   30.9000   31.8110 H   0  0  0  0  0  0  0  0  0  0  0  0
   35.5950   28.6260   33.3060 H   0  0  0  0  0  0  0  0  0  0  0  0
   34.7780   28.6400   31.7520 H   0  0  0  0  0  0  0  0  0  0  0  0
   37.7370   28.8380   32.3760 H   0  0  0  0  0  0  0  0  0  0  0  0
   36.5170   28.2220   29.6290 H   0  0  0  0  0  0  0  0  0  0  0  0
   38.1660   28.6690   30.0500 H   0  0  0  0  0  0  0  0  0  0  0  0
   37.5320   30.7250   29.4060 H   0  0  0  0  0  0  0  0  0  0  0  0
   35.8140   30.3440   29.3250 H   0  0  0  0  0  0  0  0  0  0  0  0
   36.1720   32.1260   30.9040 H   0  0  0  0  0  0  0  0  0  0  0  0
   37.4830   31.2700   31.7350 H   0  0  0  0  0  0  0  0  0  0  0  0
   38.6940   27.2750   33.7220 Cl  0  0  0  0  0  0  0  0  0  0  0  0
   37.5430   26.3460   32.7770 C   0  0  0  0  0  0  0  0  0  0  0  0
   36.7420   27.0460   31.8890 C   0  0  0  0  0  0  0  0  0  0  0  0
   35.8680   26.2320   31.2000 C   0  0  0  0  0  0  0  0  0  0  0  0
   35.8120   24.8640   31.3890 C   0  0  0  0  0  0  0  0  0  0  0  0
   36.6540   24.2400   32.3030 C   0  0  0  0  0  0  0  0  0  0  0  0
   37.5520   25.0230   33.0200 C   0  0  0  0  0  0  0  0  0  0  0  0
   35.2080   26.7170   30.4910 H   0  0  0  0  0  0  0  0  0  0  0  0
   35.0800   24.3190   30.7870 H   0  0  0  0  0  0  0  0  0  0  0  0
   36.5770   23.1740   32.4190 H   0  0  0  0  0  0  0  0  0  0  0  0
   39.6120   23.8770   33.4080 C   0  0  0  0  0  3  0  0  0  0  0  0
   38.4270   24.3540   33.9780 C   0  0  0  0  0  0  0  0  0  0  0  0
   38.2500   24.1320   35.3270 C   0  0  0  0  0  0  0  0  0  0  0  0
   37.3130   24.5270   35.6970 H   0  0  0  0  0  0  0  0  0  0  0  0
   39.2090   23.4740   36.0480 C   0  0  0  0  0  0  0  0  0  0  0  0
   39.1970   23.1760   37.3620 N   0  0  0  0  0  0  0  0  0  0  0  0
   38.4280   23.4110   38.0550 H   0  0  0  0  0  0  0  0  0  0  0  0
   40.3390   22.5300   37.6250 C   0  0  0  0  0  0  0  0  0  0  0  0
   40.6210   22.1590   38.6060 H   0  0  0  0  0  0  0  0  0  0  0  0
   41.1030   22.4040   36.4720 C   0  0  0  0  0  3  0  0  0  0  0  0
   40.3590   23.0150   35.4810 C   0  0  0  0  0  0  0  0  0  0  0  0
   40.5840   23.2100   34.1370 C   0  0  0  0  0  3  0  0  0  0  0  0
   35.7230   31.2950   33.4690 C   0  0  0  0  0  0  0  0  0  0  0  0
   35.5620   30.5240   34.6220 C   0  0  0  0  0  0  0  0  0  0  0  0
   35.7480   31.1630   35.8570 C   0  0  0  0  0  0  0  0  0  0  0  0
   36.0770   32.5130   35.8730 N   0  0  0  0  0  0  0  0  0  0  0  0
   36.2220   33.2160   34.7310 C   0  0  0  0  0  0  0  0  0  0  0  0
   36.0410   32.5870   33.5680 N   0  0  0  0  0  0  0  0  0  0  0  0
   35.3170   29.5210   34.9190 H   0  0  0  0  0  0  0  0  0  0  0  0
   35.6890   30.8290   36.8650 H   0  0  0  0  0  0  0  0  0  0  0  0
   36.4730   34.2490   34.7030 H   0  0  0  0  0  0  0  0  0  0  0  0
  1  7  1  6  0  0  0
  1  2  1  0  0  0  0
  1 39  1  0  0  0  0
  2  8  1  0  0  0  0
  3 19  1  0  0  0  0
  3  2  1  0  0  0  0
  3 10  1  1  0  0  0
  4  3  1  0  0  0  0
  5  4  1  0  0  0  0
  5  6  1  0  0  0  0
  6 16  1  0  0  0  0
  6  1  1  0  0  0  0
  9  2  1  0  0  0  0
 11  4  1  0  0  0  0
 12  4  1  0  0  0  0
 13  5  1  0  0  0  0
 14  5  1  0  0  0  0
 15  6  1  0  0  0  0
 18 23  1  0  0  0  0
 18 17  1  0  0  0  0
 19 18  2  0  0  0  0
 20 21  2  0  0  0  0
 20 19  1  0  0  0  0
 21 22  1  0  0  0  0
 22 26  1  0  0  0  0
 22 23  2  0  0  0  0
 23 28  1  0  0  0  0
 24 20  1  0  0  0  0
 25 21  1  0  0  0  0
 27 28  2  0  0  0  0
 27 38  1  0  0  0  0
 28 29  1  0  0  0  0
 29 30  1  0  0  0  0
 29 31  2  0  0  0  0
 31 32  1  0  0  0  0
 32 34  1  0  0  0  0
 32 33  1  0  0  0  0
 34 35  1  0  0  0  0
 36 34  2  0  0  0  0
 37 31  1  0  0  0  0
 37 36  1  0  0  0  0
 38 37  2  0  0  0  0
 39 44  2  0  0  0  0
 39 40  1  0  0  0  0
 40 45  1  0  0  0  0
 40 41  2  0  0  0  0
 41 42  1  0  0  0  0
 41 46  1  0  0  0  0
 43 42  2  0  0  0  0
 44 43  1  0  0  0  0
 47 43  1  0  0  0  0
M  END
>  <minimizedAffinity>
-6.62045813

$$$$

 OpenBabel03272506003D

 47 51  0  0  1  0  0  0  0  0999 V2000
   39.2720   25.2910   33.5370 C   0  0  2  0  0  0  0  0  0  0  0  0
   38.6020   26.5880   33.2860 C   0  0  0  0  0  0  0  0  0  0  0  0
   37.6410   26.5350   32.0850 C   0  0  2  0  0  0  0  0  0  0  0  0
   38.2610   26.0810   30.8410 C   0  0  0  0  0  0  0  0  0  0  0  0
   39.2590   24.9470   31.0400 C   0  0  0  0  0  0  0  0  0  0  0  0
   39.1260   24.3150   32.3950 C   0  0  0  0  0  0  0  0  0  0  0  0
   40.3900   25.4000   33.6730 H   0  0  0  0  0  0  0  0  0  0  0  0
   38.0220   27.0790   34.0300 H   0  0  0  0  0  0  0  0  0  0  0  0
   39.4100   27.3340   32.9850 H   0  0  0  0  0  0  0  0  0  0  0  0
   36.7870   25.9340   32.4000 H   0  0  0  0  0  0  0  0  0  0  0  0
   38.8300   26.8690   30.3110 H   0  0  0  0  0  0  0  0  0  0  0  0
   37.4540   25.7880   30.1290 H   0  0  0  0  0  0  0  0  0  0  0  0
   38.9960   24.1650   30.2980 H   0  0  0  0  0  0  0  0  0  0  0  0
   40.2960   25.2330   30.8250 H   0  0  0  0  0  0  0  0  0  0  0  0
   39.9060   23.5480   32.5000 H   0  0  0  0  0  0  0  0  0  0  0  0
   38.1530   23.8090   32.5090 H   0  0  0  0  0  0  0  0  0  0  0  0
   36.1390   27.5850   34.3910 Cl  0  0  0  0  0  0  0  0  0  0  0  0
   36.4470   28.5450   32.9540 C   0  0  0  0  0  0  0  0  0  0  0  0
   37.1850   27.9510   31.9430 C   0  0  0  0  0  0  0  0  0  0  0  0
   37.3800   28.7840   30.8610 C   0  0  0  0  0  0  0  0  0  0  0  0
   36.8810   30.0730   30.8100 C   0  0  0  0  0  0  0  0  0  0  0  0
   36.1480   30.5920   31.8710 C   0  0  0  0  0  0  0  0  0  0  0  0
   35.9280   29.7860   32.9830 C   0  0  0  0  0  0  0  0  0  0  0  0
   37.9540   28.3840   30.0350 H   0  0  0  0  0  0  0  0  0  0  0  0
   37.0970   30.6420   29.9010 H   0  0  0  0  0  0  0  0  0  0  0  0
   35.7790   31.5980   31.7910 H   0  0  0  0  0  0  0  0  0  0  0  0
   35.9420   31.0480   35.0120 C   0  0  0  0  0  3  0  0  0  0  0  0
   35.1590   30.3460   34.0900 C   0  0  0  0  0  0  0  0  0  0  0  0
   33.8060   30.2780   34.3450 C   0  0  0  0  0  0  0  0  0  0  0  0
   33.2650   29.7210   33.5920 H   0  0  0  0  0  0  0  0  0  0  0  0
   33.2830   30.8820   35.4570 C   0  0  0  0  0  0  0  0  0  0  0  0
   31.9960   30.9140   35.8530 N   0  0  0  0  0  0  0  0  0  0  0  0
   31.1720   30.4670   35.3550 H   0  0  0  0  0  0  0  0  0  0  0  0
   31.9570   31.6140   36.9920 C   0  0  0  0  0  0  0  0  0  0  0  0
   31.0520   31.8150   37.5570 H   0  0  0  0  0  0  0  0  0  0  0  0
   33.2310   32.0440   37.3430 C   0  0  0  0  0  3  0  0  0  0  0  0
   34.0580   31.5620   36.3460 C   0  0  0  0  0  0  0  0  0  0  0  0
   35.4150   31.6590   36.1390 C   0  0  0  0  0  3  0  0  0  0  0  0
   38.7900   24.6190   34.7550 C   0  0  0  0  0  0  0  0  0  0  0  0
   38.5670   25.4600   35.8460 C   0  0  0  0  0  0  0  0  0  0  0  0
   38.0910   24.8710   37.0280 C   0  0  0  0  0  0  0  0  0  0  0  0
   37.8680   23.5000   37.0540 N   0  0  0  0  0  0  0  0  0  0  0  0
   38.0980   22.7280   35.9720 C   0  0  0  0  0  0  0  0  0  0  0  0
   38.5510   23.3100   34.8590 N   0  0  0  0  0  0  0  0  0  0  0  0
   38.6470   26.4940   36.1230 H   0  0  0  0  0  0  0  0  0  0  0  0
   37.8410   25.2610   37.9850 H   0  0  0  0  0  0  0  0  0  0  0  0
   37.9390   21.6770   35.9530 H   0  0  0  0  0  0  0  0  0  0  0  0
  1  7  1  1  0  0  0
  1 39  1  0  0  0  0
  2  1  1  0  0  0  0
  2  8  1  0  0  0  0
  3 10  1  1  0  0  0
  3  2  1  0  0  0  0
  4  5  1  0  0  0  0
  4  3  1  0  0  0  0
  5  6  1  0  0  0  0
  6 15  1  0  0  0  0
  6 16  1  0  0  0  0
  6  1  1  0  0  0  0
  9  2  1  0  0  0  0
 11  4  1  0  0  0  0
 12  4  1  0  0  0  0
 13  5  1  0  0  0  0
 14  5  1  0  0  0  0
 18 23  1  0  0  0  0
 18 17  1  0  0  0  0
 19  3  1  0  0  0  0
 19 18  2  0  0  0  0
 20 19  1  0  0  0  0
 21 20  2  0  0  0  0
 21 22  1  0  0  0  0
 22 23  2  0  0  0  0
 23 28  1  0  0  0  0
 24 20  1  0  0  0  0
 25 21  1  0  0  0  0
 26 22  1  0  0  0  0
 27 38  1  0  0  0  0
 28 29  1  0  0  0  0
 28 27  2  0  0  0  0
 29 31  2  0  0  0  0
 30 29  1  0  0  0  0
 31 32  1  0  0  0  0
 31 37  1  0  0  0  0
 32 34  1  0  0  0  0
 33 32  1  0  0  0  0
 34 36  2  0  0  0  0
 34 35  1  0  0  0  0
 37 36  1  0  0  0  0
 38 37  2  0  0  0  0
 39 44  2  0  0  0  0
 39 40  1  0  0  0  0
 40 45  1  0  0  0  0
 40 41  2  0  0  0  0
 41 42  1  0  0  0  0
 41 46  1  0  0  0  0
 43 42  2  0  0  0  0
 44 43  1  0  0  0  0
 47 43  1  0  0  0  0
M  END
>  <minimizedAffinity>
-6.48685741

$$$$

 OpenBabel03272506003D

 47 51  0  0  1  0  0  0  0  0999 V2000
   38.6400   25.1760   35.2700 C   0  0  2  0  0  0  0  0  0  0  0  0
   37.7800   26.1330   34.5340 C   0  0  0  0  0  0  0  0  0  0  0  0
   38.4360   26.6420   33.2380 C   0  0  2  0  0  0  0  0  0  0  0  0
   39.7530   27.2490   33.4310 C   0  0  0  0  0  0  0  0  0  0  0  0
   40.6120   26.5200   34.4570 C   0  0  0  0  0  0  0  0  0  0  0  0
   40.0680   25.1590   34.7790 C   0  0  0  0  0  0  0  0  0  0  0  0
   38.7240   25.4260   36.3700 H   0  0  0  0  0  0  0  0  0  0  0  0
   36.7970   25.8830   34.2180 H   0  0  0  0  0  0  0  0  0  0  0  0
   37.6660   27.0580   35.1900 H   0  0  0  0  0  0  0  0  0  0  0  0
   38.4330   25.8030   32.5410 H   0  0  0  0  0  0  0  0  0  0  0  0
   39.7140   28.2970   33.7870 H   0  0  0  0  0  0  0  0  0  0  0  0
   40.2660   27.3050   32.4420 H   0  0  0  0  0  0  0  0  0  0  0  0
   41.6010   26.3620   33.9820 H   0  0  0  0  0  0  0  0  0  0  0  0
   40.8010   27.1070   35.3640 H   0  0  0  0  0  0  0  0  0  0  0  0
   40.6920   24.7100   35.5630 H   0  0  0  0  0  0  0  0  0  0  0  0
   40.1120   24.4920   33.9020 H   0  0  0  0  0  0  0  0  0  0  0  0
   37.1810   28.2800   35.3400 Cl  0  0  0  0  0  0  0  0  0  0  0  0
   36.7960   28.4780   33.6380 C   0  0  0  0  0  0  0  0  0  0  0  0
   37.4690   27.6650   32.7390 C   0  0  0  0  0  0  0  0  0  0  0  0
   37.1050   27.9000   31.4300 C   0  0  0  0  0  0  0  0  0  0  0  0
   36.1650   28.8490   31.0720 C   0  0  0  0  0  0  0  0  0  0  0  0
   35.5350   29.6230   32.0410 C   0  0  0  0  0  0  0  0  0  0  0  0
   35.8730   29.4200   33.3750 C   0  0  0  0  0  0  0  0  0  0  0  0
   37.5960   27.3010   30.6730 H   0  0  0  0  0  0  0  0  0  0  0  0
   35.9550   28.9470   30.0040 H   0  0  0  0  0  0  0  0  0  0  0  0
   34.8110   30.3490   31.7200 H   0  0  0  0  0  0  0  0  0  0  0  0
   33.9140   29.8040   34.6880 C   0  0  0  0  0  3  0  0  0  0  0  0
   35.2060   30.2420   34.3790 C   0  0  0  0  0  0  0  0  0  0  0  0
   35.6610   31.3600   35.0460 C   0  0  0  0  0  0  0  0  0  0  0  0
   36.6650   31.6400   34.7570 H   0  0  0  0  0  0  0  0  0  0  0  0
   34.8610   31.9880   35.9620 C   0  0  0  0  0  0  0  0  0  0  0  0
   35.1450   33.0820   36.6970 N   0  0  0  0  0  0  0  0  0  0  0  0
   36.0510   33.6350   36.6780 H   0  0  0  0  0  0  0  0  0  0  0  0
   34.0700   33.3330   37.4510 C   0  0  0  0  0  0  0  0  0  0  0  0
   33.9940   34.1580   38.1540 H   0  0  0  0  0  0  0  0  0  0  0  0
   33.0730   32.3980   37.2070 C   0  0  0  0  0  3  0  0  0  0  0  0
   33.6050   31.5510   36.2530 C   0  0  0  0  0  0  0  0  0  0  0  0
   33.1030   30.4390   35.6150 C   0  0  0  0  0  3  0  0  0  0  0  0
   38.1400   23.7930   35.2160 C   0  0  0  0  0  0  0  0  0  0  0  0
   38.2320   23.1770   33.9670 C   0  0  0  0  0  0  0  0  0  0  0  0
   37.7840   21.8520   33.8650 C   0  0  0  0  0  0  0  0  0  0  0  0
   37.2750   21.2250   34.9970 N   0  0  0  0  0  0  0  0  0  0  0  0
   37.2060   21.8620   36.1840 C   0  0  0  0  0  0  0  0  0  0  0  0
   37.6400   23.1230   36.2560 N   0  0  0  0  0  0  0  0  0  0  0  0
   38.5510   23.3880   32.9630 H   0  0  0  0  0  0  0  0  0  0  0  0
   37.7370   21.1600   33.0600 H   0  0  0  0  0  0  0  0  0  0  0  0
   36.8250   21.4170   37.0700 H   0  0  0  0  0  0  0  0  0  0  0  0
  1  7  1  1  0  0  0
  2  9  1  0  0  0  0
  2  1  1  0  0  0  0
  3 10  1  6  0  0  0
  3  4  1  0  0  0  0
  3  2  1  0  0  0  0
  4 11  1  0  0  0  0
  4  5  1  0  0  0  0
  5  6  1  0  0  0  0
  5 14  1  0  0  0  0
  6  1  1  0  0  0  0
  6 15  1  0  0  0  0
  8  2  1  0  0  0  0
 12  4  1  0  0  0  0
 13  5  1  0  0  0  0
 16  6  1  0  0  0  0
 18 17  1  0  0  0  0
 19  3  1  0  0  0  0
 19 18  2  0  0  0  0
 20 19  1  0  0  0  0
 21 20  2  0  0  0  0
 21 22  1  0  0  0  0
 22 23  2  0  0  0  0
 23 18  1  0  0  0  0
 23 28  1  0  0  0  0
 24 20  1  0  0  0  0
 25 21  1  0  0  0  0
 26 22  1  0  0  0  0
 27 38  1  0  0  0  0
 28 27  2  0  0  0  0
 28 29  1  0  0  0  0
 29 31  2  0  0  0  0
 30 29  1  0  0  0  0
 31 37  1  0  0  0  0
 31 32  1  0  0  0  0
 32 34  1  0  0  0  0
 33 32  1  0  0  0  0
 34 35  1  0  0  0  0
 36 34  2  0  0  0  0
 37 36  1  0  0  0  0
 38 37  2  0  0  0  0
 39  1  1  0  0  0  0
 39 44  1  0  0  0  0
 40 39  2  0  0  0  0
 41 40  1  0  0  0  0
 41 42  2  0  0  0  0
 42 43  1  0  0  0  0
 43 44  2  0  0  0  0
 43 47  1  0  0  0  0
 45 40  1  0  0  0  0
 46 41  1  0  0  0  0
M  END
>  <minimizedAffinity>
-6.45791912

$$$$

 OpenBabel03272506003D

 47 51  0  0  1  0  0  0  0  0999 V2000
   35.0990   31.3680   35.8260 C   0  0  2  0  0  0  0  0  0  0  0  0
   35.8550   30.6830   34.7500 C   0  0  0  0  0  0  0  0  0  0  0  0
   34.9700   30.3260   33.5420 C   0  0  2  0  0  0  0  0  0  0  0  0
   33.7970   29.5200   33.8760 C   0  0  0  0  0  0  0  0  0  0  0  0
   33.1300   29.9310   35.1830 C   0  0  0  0  0  0  0  0  0  0  0  0
   33.6030   31.2760   35.6540 C   0  0  0  0  0  0  0  0  0  0  0  0
   35.2940   30.9180   36.8460 H   0  0  0  0  0  0  0  0  0  0  0  0
   36.7110   31.1180   34.2950 H   0  0  0  0  0  0  0  0  0  0  0  0
   36.2030   29.6810   35.1670 H   0  0  0  0  0  0  0  0  0  0  0  0
   34.7340   31.2670   33.0440 H   0  0  0  0  0  0  0  0  0  0  0  0
   34.0140   28.4410   33.9960 H   0  0  0  0  0  0  0  0  0  0  0  0
   33.0780   29.5700   33.0240 H   0  0  0  0  0  0  0  0  0  0  0  0
   32.0480   30.0340   34.9650 H   0  0  0  0  0  0  0  0  0  0  0  0
   33.2100   29.1730   35.9720 H   0  0  0  0  0  0  0  0  0  0  0  0
   33.1340   31.4890   36.6250 H   0  0  0  0  0  0  0  0  0  0  0  0
   33.2950   32.0750   34.9600 H   0  0  0  0  0  0  0  0  0  0  0  0
   36.3290   28.0670   34.8550 Cl  0  0  0  0  0  0  0  0  0  0  0  0
   36.6050   28.4800   33.1720 C   0  0  0  0  0  0  0  0  0  0  0  0
   35.8900   29.5490   32.6570 C   0  0  0  0  0  0  0  0  0  0  0  0
   36.1690   29.7900   31.3280 C   0  0  0  0  0  0  0  0  0  0  0  0
   37.0710   29.0340   30.6030 C   0  0  0  0  0  0  0  0  0  0  0  0
   37.7480   27.9750   31.1990 C   0  0  0  0  0  0  0  0  0  0  0  0
   37.4960   27.6960   32.5380 C   0  0  0  0  0  0  0  0  0  0  0  0
   35.6400   30.6120   30.8610 H   0  0  0  0  0  0  0  0  0  0  0  0
   37.2130   29.3170   29.5570 H   0  0  0  0  0  0  0  0  0  0  0  0
   38.4400   27.4130   30.6000 H   0  0  0  0  0  0  0  0  0  0  0  0
   39.4520   26.9420   33.6860 C   0  0  0  0  0  3  0  0  0  0  0  0
   38.2120   26.5800   33.1480 C   0  0  0  0  0  0  0  0  0  0  0  0
   37.8460   25.2560   33.2620 C   0  0  0  0  0  0  0  0  0  0  0  0
   36.8780   25.0500   32.8250 H   0  0  0  0  0  0  0  0  0  0  0  0
   38.6780   24.3620   33.8800 C   0  0  0  0  0  0  0  0  0  0  0  0
   38.4770   23.0440   34.0760 N   0  0  0  0  0  0  0  0  0  0  0  0
   37.6260   22.4850   33.7770 H   0  0  0  0  0  0  0  0  0  0  0  0
   39.5530   22.5790   34.7200 C   0  0  0  0  0  0  0  0  0  0  0  0
   39.6870   21.5430   35.0200 H   0  0  0  0  0  0  0  0  0  0  0  0
   40.4660   23.6010   34.9450 C   0  0  0  0  0  3  0  0  0  0  0  0
   39.8820   24.7280   34.3990 C   0  0  0  0  0  0  0  0  0  0  0  0
   40.2960   26.0380   34.3110 C   0  0  0  0  0  3  0  0  0  0  0  0
   35.4410   32.7940   35.9520 C   0  0  0  0  0  0  0  0  0  0  0  0
   36.6390   33.1720   35.3440 C   0  0  0  0  0  0  0  0  0  0  0  0
   37.0040   34.5240   35.4200 C   0  0  0  0  0  0  0  0  0  0  0  0
   36.1670   35.4100   36.0890 N   0  0  0  0  0  0  0  0  0  0  0  0
   35.0170   34.9970   36.6610 C   0  0  0  0  0  0  0  0  0  0  0  0
   34.6910   33.7050   36.5750 N   0  0  0  0  0  0  0  0  0  0  0  0
   37.4570   32.7460   34.7930 H   0  0  0  0  0  0  0  0  0  0  0  0
   37.8380   35.0740   35.0580 H   0  0  0  0  0  0  0  0  0  0  0  0
   34.3520   35.6430   37.1800 H   0  0  0  0  0  0  0  0  0  0  0  0
  1 39  1  0  0  0  0
  1  7  1  1  0  0  0
  2  9  1  0  0  0  0
  2  1  1  0  0  0  0
  3 10  1  6  0  0  0
  3  4  1  0  0  0  0
  3  2  1  0  0  0  0
  4 11  1  0  0  0  0
  4  5  1  0  0  0  0
  5  6  1  0  0  0  0
  5 14  1  0  0  0  0
  6  1  1  0  0  0  0
  6 15  1  0  0  0  0
  8  2  1  0  0  0  0
 12  4  1  0  0  0  0
 13  5  1  0  0  0  0
 16  6  1  0  0  0  0
 18 17  1  0  0  0  0
 19 18  1  0  0  0  0
 19  3  1  0  0  0  0
 20 19  2  0  0  0  0
 21 22  2  0  0  0  0
 21 20  1  0  0  0  0
 22 23  1  0  0  0  0
 23 28  1  0  0  0  0
 23 18  2  0  0  0  0
 24 20  1  0  0  0  0
 25 21  1  0  0  0  0
 26 22  1  0  0  0  0
 27 38  1  0  0  0  0
 28 29  1  0  0  0  0
 28 27  2  0  0  0  0
 29 31  2  0  0  0  0
 30 29  1  0  0  0  0
 31 32  1  0  0  0  0
 31 37  1  0  0  0  0
 32 34  1  0  0  0  0
 33 32  1  0  0  0  0
 34 36  2  0  0  0  0
 34 35  1  0  0  0  0
 37 36  1  0  0  0  0
 38 37  2  0  0  0  0
 39 44  1  0  0  0  0
 40 41  1  0  0  0  0
 40 39  2  0  0  0  0
 41 42  2  0  0  0  0
 42 43  1  0  0  0  0
 43 47  1  0  0  0  0
 44 43  2  0  0  0  0
 45 40  1  0  0  0  0
 46 41  1  0  0  0  0
M  END
>  <minimizedAffinity>
-6.32937241

$$$$

 OpenBabel03272506003D

 47 51  0  0  1  0  0  0  0  0999 V2000
   35.8840   30.1130   31.3330 C   0  0  2  0  0  0  0  0  0  0  0  0
   35.9790   28.6720   31.6670 C   0  0  0  0  0  0  0  0  0  0  0  0
   37.3440   28.0670   31.2930 C   0  0  2  0  0  0  0  0  0  0  0  0
   37.7160   28.2470   29.8910 C   0  0  0  0  0  0  0  0  0  0  0  0
   37.3350   29.6140   29.3330 C   0  0  0  0  0  0  0  0  0  0  0  0
   36.9910   30.5870   30.4220 C   0  0  0  0  0  0  0  0  0  0  0  0
   34.9330   30.3670   30.7750 H   0  0  0  0  0  0  0  0  0  0  0  0
   35.8220   28.3090   32.6530 H   0  0  0  0  0  0  0  0  0  0  0  0
   35.2230   28.1230   31.0130 H   0  0  0  0  0  0  0  0  0  0  0  0
   38.0670   28.4780   31.9990 H   0  0  0  0  0  0  0  0  0  0  0  0
   37.2400   27.5190   29.2040 H   0  0  0  0  0  0  0  0  0  0  0  0
   38.8100   28.0590   29.7870 H   0  0  0  0  0  0  0  0  0  0  0  0
   38.2410   30.0090   28.8290 H   0  0  0  0  0  0  0  0  0  0  0  0
   36.5540   29.5710   28.5650 H   0  0  0  0  0  0  0  0  0  0  0  0
   36.6710   31.5300   29.9590 H   0  0  0  0  0  0  0  0  0  0  0  0
   37.8680   30.8130   31.0510 H   0  0  0  0  0  0  0  0  0  0  0  0
   38.4540   27.2060   33.8820 Cl  0  0  0  0  0  0  0  0  0  0  0  0
   37.6780   26.0880   32.7730 C   0  0  0  0  0  0  0  0  0  0  0  0
   37.1730   26.6140   31.5950 C   0  0  0  0  0  0  0  0  0  0  0  0
   36.5770   25.6610   30.7950 C   0  0  0  0  0  0  0  0  0  0  0  0
   36.5030   24.3260   31.1490 C   0  0  0  0  0  0  0  0  0  0  0  0
   37.0390   23.8820   32.3530 C   0  0  0  0  0  0  0  0  0  0  0  0
   37.6480   24.8090   33.1910 C   0  0  0  0  0  0  0  0  0  0  0  0
   36.1570   26.0060   29.8590 H   0  0  0  0  0  0  0  0  0  0  0  0
   36.0090   23.6610   30.4360 H   0  0  0  0  0  0  0  0  0  0  0  0
   36.9590   22.8360   32.5890 H   0  0  0  0  0  0  0  0  0  0  0  0
   39.3940   23.6120   34.2990 C   0  0  0  0  0  3  0  0  0  0  0  0
   38.2020   24.3280   34.4520 C   0  0  0  0  0  0  0  0  0  0  0  0
   37.7240   24.4750   35.7370 C   0  0  0  0  0  0  0  0  0  0  0  0
   36.8010   25.0370   35.7790 H   0  0  0  0  0  0  0  0  0  0  0  0
   38.4090   23.9360   36.7930 C   0  0  0  0  0  0  0  0  0  0  0  0
   38.0880   23.9860   38.1010 N   0  0  0  0  0  0  0  0  0  0  0  0
   37.2370   24.4610   38.5220 H   0  0  0  0  0  0  0  0  0  0  0  0
   39.0440   23.3250   38.7610 C   0  0  0  0  0  0  0  0  0  0  0  0
   39.0630   23.1920   39.8400 H   0  0  0  0  0  0  0  0  0  0  0  0
   39.9990   22.8370   37.8790 C   0  0  0  0  0  3  0  0  0  0  0  0
   39.5690   23.2420   36.6290 C   0  0  0  0  0  0  0  0  0  0  0  0
   40.0890   23.0650   35.3670 C   0  0  0  0  0  3  0  0  0  0  0  0
   35.8890   30.9820   32.5210 C   0  0  0  0  0  0  0  0  0  0  0  0
   35.5290   30.3540   33.7150 C   0  0  0  0  0  0  0  0  0  0  0  0
   35.5340   31.1340   34.8810 C   0  0  0  0  0  0  0  0  0  0  0  0
   35.8900   32.4750   34.7920 N   0  0  0  0  0  0  0  0  0  0  0  0
   36.2310   33.0370   33.6140 C   0  0  0  0  0  0  0  0  0  0  0  0
   36.2200   32.2740   32.5180 N   0  0  0  0  0  0  0  0  0  0  0  0
   35.2150   29.3960   34.0830 H   0  0  0  0  0  0  0  0  0  0  0  0
   35.3080   30.9230   35.8980 H   0  0  0  0  0  0  0  0  0  0  0  0
   36.5090   34.0570   33.5060 H   0  0  0  0  0  0  0  0  0  0  0  0
  1  7  1  6  0  0  0
  1  2  1  0  0  0  0
  1 39  1  0  0  0  0
  2  8  1  0  0  0  0
  3 19  1  0  0  0  0
  3  2  1  0  0  0  0
  3 10  1  1  0  0  0
  4  3  1  0  0  0  0
  5  4  1  0  0  0  0
  5  6  1  0  0  0  0
  6 16  1  0  0  0  0
  6  1  1  0  0  0  0
  9  2  1  0  0  0  0
 11  4  1  0  0  0  0
 12  4  1  0  0  0  0
 13  5  1  0  0  0  0
 14  5  1  0  0  0  0
 15  6  1  0  0  0  0
 18 23  1  0  0  0  0
 18 17  1  0  0  0  0
 19 18  2  0  0  0  0
 20 21  2  0  0  0  0
 20 19  1  0  0  0  0
 21 22  1  0  0  0  0
 22 26  1  0  0  0  0
 22 23  2  0  0  0  0
 23 28  1  0  0  0  0
 24 20  1  0  0  0  0
 25 21  1  0  0  0  0
 27 28  2  0  0  0  0
 27 38  1  0  0  0  0
 28 29  1  0  0  0  0
 29 30  1  0  0  0  0
 29 31  2  0  0  0  0
 31 32  1  0  0  0  0
 32 33  1  0  0  0  0
 32 34  1  0  0  0  0
 34 35  1  0  0  0  0
 36 34  2  0  0  0  0
 37 31  1  0  0  0  0
 37 36  1  0  0  0  0
 38 37  2  0  0  0  0
 39 40  1  0  0  0  0
 40 45  1  0  0  0  0
 40 41  2  0  0  0  0
 41 46  1  0  0  0  0
 42 41  1  0  0  0  0
 43 42  2  0  0  0  0
 44 39  2  0  0  0  0
 44 43  1  0  0  0  0
 47 43  1  0  0  0  0
M  END
>  <minimizedAffinity>
-6.31376457

$$$$
