
 OpenBabel03262522313D

 30 33  0  0  0  0  0  0  0  0999 V2000
   38.3030   32.1250   49.0140 C   0  0  0  0  0  0  0  0  0  0  0  0
   38.8140   33.2800   49.5400 C   0  0  0  0  0  0  0  0  0  0  0  0
   39.5990   34.1720   48.8350 C   0  0  0  0  0  0  0  0  0  0  0  0
   39.8970   33.8950   47.5070 C   0  0  0  0  0  0  0  0  0  0  0  0
   39.3740   32.7330   47.0020 C   0  0  0  0  0  0  0  0  0  0  0  0
   38.6130   31.8880   47.7230 N   0  0  0  0  0  0  0  0  0  0  0  0
   38.6080   33.5360   50.5710 H   0  0  0  0  0  0  0  0  0  0  0  0
   39.9960   35.0850   49.2680 H   0  0  0  0  0  0  0  0  0  0  0  0
   40.5090   34.5740   46.9300 H   0  0  0  0  0  0  0  0  0  0  0  0
   39.2610   33.1860   44.5790 C   0  0  0  0  0  0  0  0  0  0  0  0
   39.6210   32.3380   45.6210 C   0  0  0  0  0  0  0  0  0  0  0  0
   40.2000   31.1590   45.2120 C   0  0  0  0  0  0  0  0  0  0  0  0
   40.5020   30.4590   45.9670 H   0  0  0  0  0  0  0  0  0  0  0  0
   40.4070   30.8400   43.8930 C   0  0  0  0  0  0  0  0  0  0  0  0
   40.9490   29.7530   43.2880 N   0  0  0  0  0  0  0  0  0  0  0  0
   41.3120   28.9430   43.8290 H   0  0  0  0  0  0  0  0  0  0  0  0
   40.9220   29.9280   41.9580 C   0  0  0  0  0  0  0  0  0  0  0  0
   41.2990   29.1970   41.2530 H   0  0  0  0  0  0  0  0  0  0  0  0
   40.3490   31.1560   41.6710 C   0  0  0  0  0  0  0  0  0  0  0  0
   40.0330   31.7120   42.8930 C   0  0  0  0  0  0  0  0  0  0  0  0
   39.4490   32.9090   43.2350 C   0  0  0  0  0  0  0  0  0  0  0  0
   37.8990   30.5660   50.9590 C   0  0  0  0  0  0  0  0  0  0  0  0
   37.4780   31.1920   49.7660 C   0  0  0  0  0  0  0  0  0  0  0  0
   36.2120   30.8910   49.2980 C   0  0  0  0  0  0  0  0  0  0  0  0
   35.4470   30.0110   50.0170 N   0  0  0  0  0  0  0  0  0  0  0  0
   35.8840   29.4390   51.1440 C   0  0  0  0  0  0  0  0  0  0  0  0
   37.0990   29.7090   51.6200 N   0  0  0  0  0  0  0  0  0  0  0  0
   38.8930   30.8360   51.2760 H   0  0  0  0  0  0  0  0  0  0  0  0
   35.7880   31.3180   48.3860 H   0  0  0  0  0  0  0  0  0  0  0  0
   35.2910   28.7450   51.7180 H   0  0  0  0  0  0  0  0  0  0  0  0
  1  2  1  0  0  0  0
  1 23  1  0  0  0  0
  2  7  1  0  0  0  0
  3  8  1  0  0  0  0
  3  2  2  0  0  0  0
  4  3  1  0  0  0  0
  5  4  2  0  0  0  0
  5  6  1  0  0  0  0
  6  1  2  0  0  0  0
  9  4  1  0  0  0  0
 10 11  1  0  0  0  0
 11  5  1  0  0  0  0
 12 11  2  0  0  0  0
 12 13  1  0  0  0  0
 14 12  1  0  0  0  0
 15 16  1  0  0  0  0
 15 14  1  0  0  0  0
 17 15  1  0  0  0  0
 18 17  1  0  0  0  0
 19 17  2  0  0  0  0
 19 20  1  0  0  0  0
 20 21  1  0  0  0  0
 20 14  2  0  0  0  0
 21 10  2  0  0  0  0
 22 28  1  0  0  0  0
 22 27  1  0  0  0  0
 23 22  2  0  0  0  0
 24 23  1  0  0  0  0
 24 25  2  0  0  0  0
 25 26  1  0  0  0  0
 26 27  2  0  0  0  0
 26 30  1  0  0  0  0
 29 24  1  0  0  0  0
M  END
>  <minimizedAffinity>
-7.24502277

>  <minimizedRMSD>
0.87436235

$$$$
