
 OpenBabel03272509233D

 49 54  0  0  0  0  0  0  0  0999 V2000
   37.7730   26.7080   33.2580 C   0  0  0  0  0  0  0  0  0  0  0  0
   37.1540   27.4210   32.2550 C   0  0  0  0  0  0  0  0  0  0  0  0
   36.4210   26.7030   31.3010 C   0  0  0  0  0  0  0  0  0  0  0  0
   36.3160   25.3020   31.3620 C   0  0  0  0  0  0  0  0  0  0  0  0
   35.7050   24.3740   30.6190 N   0  0  0  0  0  0  0  0  0  0  0  0
   35.9350   23.1550   31.1360 C   0  0  0  0  0  0  0  0  0  0  0  0
   36.7080   23.3310   32.2280 N   0  0  0  0  0  0  0  0  0  0  0  0
   36.9550   24.6560   32.3860 C   0  0  0  0  0  0  0  0  0  0  0  0
   37.6850   25.3420   33.3380 C   0  0  0  0  0  0  0  0  0  0  0  0
   38.3120   27.3230   33.9460 H   0  0  0  0  0  0  0  0  0  0  0  0
   35.8760   27.1290   30.4460 H   0  0  0  0  0  0  0  0  0  0  0  0
   35.1320   24.5440   29.7640 H   0  0  0  0  0  0  0  0  0  0  0  0
   35.6230   22.1670   30.8350 H   0  0  0  0  0  0  0  0  0  0  0  0
   39.4870   23.8700   34.2040 C   0  0  0  0  0  3  0  0  0  0  0  0
   38.3590   24.6360   34.4220 C   0  0  0  0  0  0  0  0  0  0  0  0
   37.7770   24.8000   35.6560 C   0  0  0  0  0  0  0  0  0  0  0  0
   36.8940   25.3950   35.8440 H   0  0  0  0  0  0  0  0  0  0  0  0
   38.3530   24.1630   36.7450 C   0  0  0  0  0  0  0  0  0  0  0  0
   38.0690   24.0970   38.0580 N   0  0  0  0  0  0  0  0  0  0  0  0
   37.2540   24.5970   38.4690 H   0  0  0  0  0  0  0  0  0  0  0  0
   38.9520   23.3290   38.7180 C   0  0  0  0  0  0  0  0  0  0  0  0
   38.9190   23.1310   39.7960 H   0  0  0  0  0  0  0  0  0  0  0  0
   39.8610   22.8690   37.7810 C   0  0  0  0  0  3  0  0  0  0  0  0
   39.4910   23.3870   36.5460 C   0  0  0  0  0  0  0  0  0  0  0  0
   40.0470   23.2460   35.2920 C   0  0  0  0  0  3  0  0  0  0  0  0
   37.1220   28.7500   32.0060 O   0  0  0  0  0  0  0  0  0  0  0  0
   35.4920   29.8510   33.4240 C   0  0  0  0  0  0  0  0  0  0  0  0
   34.4440   30.7090   33.6980 C   0  0  0  0  0  0  0  0  0  0  0  0
   33.9630   31.3970   32.5680 C   0  0  0  0  0  0  0  0  0  0  0  0
   34.5190   31.2080   31.2950 C   0  0  0  0  0  0  0  0  0  0  0  0
   35.5900   30.3020   31.1380 C   0  0  0  0  0  0  0  0  0  0  0  0
   36.0770   29.6150   32.2380 C   0  0  0  0  0  0  0  0  0  0  0  0
   33.1420   32.0850   32.7170 H   0  0  0  0  0  0  0  0  0  0  0  0
   34.1260   31.7530   30.4470 H   0  0  0  0  0  0  0  0  0  0  0  0
   35.9790   30.1960   30.1360 H   0  0  0  0  0  0  0  0  0  0  0  0
   32.7150   30.2340   35.3640 C   0  0  0  0  0  0  0  0  0  0  0  0
   33.8770   30.9020   34.9960 C   0  0  0  0  0  0  0  0  0  0  0  0
   34.4620   31.7650   35.9410 C   0  0  0  0  0  0  0  0  0  0  0  0
   33.8570   31.8870   37.1460 N   0  0  0  0  0  0  0  0  0  0  0  0
   32.7190   31.2130   37.4640 C   0  0  0  0  0  0  0  0  0  0  0  0
   32.1530   30.3900   36.5710 N   0  0  0  0  0  0  0  0  0  0  0  0
   32.1920   29.5540   34.7100 H   0  0  0  0  0  0  0  0  0  0  0  0
   32.3870   31.4390   38.4690 H   0  0  0  0  0  0  0  0  0  0  0  0
   35.6990   32.5010   35.6050 C   0  0  0  0  0  0  0  0  0  0  0  0
   35.5430   33.3650   34.9390 H   0  0  0  0  0  0  0  0  0  0  0  0
   36.4060   31.7670   35.1460 H   0  0  0  0  0  0  0  0  0  0  0  0
   36.1700   32.8070   36.5490 H   0  0  0  0  0  0  0  0  0  0  0  0
   36.0400   29.1180   34.4880 O   0  0  0  0  0  0  0  0  0  0  0  0
   35.4100   28.5840   35.0740 H   0  0  0  0  0  0  0  0  0  0  0  0
  1  9  1  0  0  0  0
  1 10  1  0  0  0  0
  2  1  2  0  0  0  0
  3  4  2  0  0  0  0
  3  2  1  0  0  0  0
  4  8  1  0  0  0  0
  5  6  1  0  0  0  0
  5  4  1  0  0  0  0
  6  7  2  0  0  0  0
  7  8  1  0  0  0  0
  8  9  2  0  0  0  0
  9 15  1  0  0  0  0
 11  3  1  0  0  0  0
 12  5  1  0  0  0  0
 13  6  1  0  0  0  0
 14 15  2  0  0  0  0
 14 25  1  0  0  0  0
 15 16  1  0  0  0  0
 16 17  1  0  0  0  0
 16 18  2  0  0  0  0
 18 19  1  0  0  0  0
 19 20  1  0  0  0  0
 19 21  1  0  0  0  0
 21 22  1  0  0  0  0
 23 21  2  0  0  0  0
 24 18  1  0  0  0  0
 24 23  1  0  0  0  0
 25 24  2  0  0  0  0
 26 32  1  0  0  0  0
 26  2  1  0  0  0  0
 27 28  1  0  0  0  0
 27 48  1  0  0  0  0
 28 37  1  0  0  0  0
 29 33  1  0  0  0  0
 29 28  2  0  0  0  0
 30 29  1  0  0  0  0
 31 30  2  0  0  0  0
 31 32  1  0  0  0  0
 32 27  2  0  0  0  0
 34 30  1  0  0  0  0
 35 31  1  0  0  0  0
 36 41  1  0  0  0  0
 37 36  2  0  0  0  0
 37 38  1  0  0  0  0
 38 39  2  0  0  0  0
 39 40  1  0  0  0  0
 40 43  1  0  0  0  0
 41 40  2  0  0  0  0
 42 36  1  0  0  0  0
 44 38  1  0  0  0  0
 44 47  1  0  0  0  0
 45 44  1  0  0  0  0
 46 44  1  0  0  0  0
 48 49  1  0  0  0  0
M  END
>  <minimizedAffinity>
-7.43616247

$$$$

 OpenBabel03272509233D

 49 54  0  0  0  0  0  0  0  0999 V2000
   36.4890   28.1310   34.5030 C   0  0  0  0  0  0  0  0  0  0  0  0
   37.1070   27.1970   33.7020 C   0  0  0  0  0  0  0  0  0  0  0  0
   37.1790   27.4610   32.3280 C   0  0  0  0  0  0  0  0  0  0  0  0
   36.6410   28.6390   31.7800 C   0  0  0  0  0  0  0  0  0  0  0  0
   36.5600   29.1490   30.5480 N   0  0  0  0  0  0  0  0  0  0  0  0
   35.9270   30.3330   30.5860 C   0  0  0  0  0  0  0  0  0  0  0  0
   35.6050   30.5640   31.8770 N   0  0  0  0  0  0  0  0  0  0  0  0
   36.0400   29.5250   32.6330 C   0  0  0  0  0  0  0  0  0  0  0  0
   35.9560   29.2870   33.9920 C   0  0  0  0  0  0  0  0  0  0  0  0
   36.4720   27.8610   35.5370 H   0  0  0  0  0  0  0  0  0  0  0  0
   37.6390   26.8140   31.5660 H   0  0  0  0  0  0  0  0  0  0  0  0
   36.9260   28.7140   29.6730 H   0  0  0  0  0  0  0  0  0  0  0  0
   35.6690   31.0450   29.8180 H   0  0  0  0  0  0  0  0  0  0  0  0
   36.0400   31.1290   35.6550 C   0  0  0  0  0  3  0  0  0  0  0  0
   35.3120   30.2430   34.8860 C   0  0  0  0  0  0  0  0  0  0  0  0
   33.9400   30.1810   34.8900 C   0  0  0  0  0  0  0  0  0  0  0  0
   33.3530   29.4940   34.2950 H   0  0  0  0  0  0  0  0  0  0  0  0
   33.2440   31.0560   35.7130 C   0  0  0  0  0  0  0  0  0  0  0  0
   31.9430   31.2750   35.9700 N   0  0  0  0  0  0  0  0  0  0  0  0
   31.1910   30.7250   35.5060 H   0  0  0  0  0  0  0  0  0  0  0  0
   31.7750   32.2600   36.8680 C   0  0  0  0  0  0  0  0  0  0  0  0
   30.8000   32.6110   37.2290 H   0  0  0  0  0  0  0  0  0  0  0  0
   33.0390   32.7060   37.2150 C   0  0  0  0  0  3  0  0  0  0  0  0
   33.9610   31.9560   36.4960 C   0  0  0  0  0  0  0  0  0  0  0  0
   35.3390   31.9890   36.4630 C   0  0  0  0  0  3  0  0  0  0  0  0
   37.6860   26.0140   34.0090 O   0  0  0  0  0  0  0  0  0  0  0  0
   39.5270   24.6410   34.7890 C   0  0  0  0  0  0  0  0  0  0  0  0
   40.8420   24.3780   35.1250 C   0  0  0  0  0  0  0  0  0  0  0  0
   41.7020   25.4790   34.9530 C   0  0  0  0  0  0  0  0  0  0  0  0
   41.2370   26.7150   34.4820 C   0  0  0  0  0  0  0  0  0  0  0  0
   39.8680   26.8640   34.1700 C   0  0  0  0  0  0  0  0  0  0  0  0
   39.0050   25.7920   34.3340 C   0  0  0  0  0  0  0  0  0  0  0  0
   42.7450   25.3380   35.1990 H   0  0  0  0  0  0  0  0  0  0  0  0
   41.9250   27.5410   34.3600 H   0  0  0  0  0  0  0  0  0  0  0  0
   39.5650   27.8360   33.8120 H   0  0  0  0  0  0  0  0  0  0  0  0
   41.2150   22.7950   36.9530 C   0  0  0  0  0  0  0  0  0  0  0  0
   41.3160   23.1190   35.6060 C   0  0  0  0  0  0  0  0  0  0  0  0
   41.8980   22.1670   34.7470 C   0  0  0  0  0  0  0  0  0  0  0  0
   42.3190   21.0010   35.2880 N   0  0  0  0  0  0  0  0  0  0  0  0
   42.2000   20.7260   36.6160 C   0  0  0  0  0  0  0  0  0  0  0  0
   41.6490   21.6240   37.4420 N   0  0  0  0  0  0  0  0  0  0  0  0
   40.7860   23.4580   37.6890 H   0  0  0  0  0  0  0  0  0  0  0  0
   42.5930   19.7470   36.8590 H   0  0  0  0  0  0  0  0  0  0  0  0
   42.0300   22.4570   33.3040 C   0  0  0  0  0  0  0  0  0  0  0  0
   42.8470   23.1540   33.0560 H   0  0  0  0  0  0  0  0  0  0  0  0
   41.0470   22.8570   32.9540 H   0  0  0  0  0  0  0  0  0  0  0  0
   42.1550   21.4980   32.7820 H   0  0  0  0  0  0  0  0  0  0  0  0
   38.5910   23.6040   34.9280 O   0  0  0  0  0  0  0  0  0  0  0  0
   38.5440   23.1200   35.8160 H   0  0  0  0  0  0  0  0  0  0  0  0
  1 10  1  0  0  0  0
  2 26  1  0  0  0  0
  2  1  2  0  0  0  0
  3  2  1  0  0  0  0
  4  3  2  0  0  0  0
  4  8  1  0  0  0  0
  5  6  1  0  0  0  0
  5  4  1  0  0  0  0
  6  7  2  0  0  0  0
  7  8  1  0  0  0  0
  8  9  2  0  0  0  0
  9  1  1  0  0  0  0
  9 15  1  0  0  0  0
 11  3  1  0  0  0  0
 12  5  1  0  0  0  0
 13  6  1  0  0  0  0
 14 25  1  0  0  0  0
 15 16  1  0  0  0  0
 15 14  2  0  0  0  0
 16 18  2  0  0  0  0
 17 16  1  0  0  0  0
 18 19  1  0  0  0  0
 18 24  1  0  0  0  0
 19 21  1  0  0  0  0
 20 19  1  0  0  0  0
 21 23  2  0  0  0  0
 21 22  1  0  0  0  0
 24 23  1  0  0  0  0
 25 24  2  0  0  0  0
 26 32  1  0  0  0  0
 27 48  1  0  0  0  0
 27 28  1  0  0  0  0
 28 37  1  0  0  0  0
 29 28  2  0  0  0  0
 29 33  1  0  0  0  0
 30 29  1  0  0  0  0
 31 32  1  0  0  0  0
 31 30  2  0  0  0  0
 32 27  2  0  0  0  0
 34 30  1  0  0  0  0
 35 31  1  0  0  0  0
 36 41  1  0  0  0  0
 36 42  1  0  0  0  0
 37 36  2  0  0  0  0
 38 39  2  0  0  0  0
 38 37  1  0  0  0  0
 39 40  1  0  0  0  0
 40 43  1  0  0  0  0
 40 41  2  0  0  0  0
 44 38  1  0  0  0  0
 45 44  1  0  0  0  0
 46 44  1  0  0  0  0
 47 44  1  0  0  0  0
 48 49  1  0  0  0  0
M  END
>  <minimizedAffinity>
-7.2611928

$$$$

 OpenBabel03272509233D

 49 54  0  0  0  0  0  0  0  0999 V2000
   37.0130   27.5160   34.2040 C   0  0  0  0  0  0  0  0  0  0  0  0
   36.3180   28.3740   33.3820 C   0  0  0  0  0  0  0  0  0  0  0  0
   35.8770   27.8810   32.1470 C   0  0  0  0  0  0  0  0  0  0  0  0
   36.1320   26.5550   31.7560 C   0  0  0  0  0  0  0  0  0  0  0  0
   35.8460   25.8250   30.6740 N   0  0  0  0  0  0  0  0  0  0  0  0
   36.3370   24.5830   30.8200 C   0  0  0  0  0  0  0  0  0  0  0  0
   36.9450   24.5420   32.0250 N   0  0  0  0  0  0  0  0  0  0  0  0
   36.8280   25.7540   32.6210 C   0  0  0  0  0  0  0  0  0  0  0  0
   37.2730   26.2180   33.8440 C   0  0  0  0  0  0  0  0  0  0  0  0
   37.3160   27.9620   35.1270 H   0  0  0  0  0  0  0  0  0  0  0  0
   35.3140   28.4440   31.3880 H   0  0  0  0  0  0  0  0  0  0  0  0
   35.3220   26.1470   29.8300 H   0  0  0  0  0  0  0  0  0  0  0  0
   36.3170   23.7130   30.1830 H   0  0  0  0  0  0  0  0  0  0  0  0
   39.1560   24.6830   34.3580 C   0  0  0  0  0  3  0  0  0  0  0  0
   38.0140   25.3500   34.7540 C   0  0  0  0  0  0  0  0  0  0  0  0
   37.4770   25.2590   36.0150 C   0  0  0  0  0  0  0  0  0  0  0  0
   36.5840   25.7740   36.3420 H   0  0  0  0  0  0  0  0  0  0  0  0
   38.1180   24.4540   36.9460 C   0  0  0  0  0  0  0  0  0  0  0  0
   37.8890   24.1340   38.2330 N   0  0  0  0  0  0  0  0  0  0  0  0
   37.0760   24.5180   38.7570 H   0  0  0  0  0  0  0  0  0  0  0  0
   38.8220   23.2920   38.7060 C   0  0  0  0  0  0  0  0  0  0  0  0
   38.8390   22.8970   39.7290 H   0  0  0  0  0  0  0  0  0  0  0  0
   39.7070   23.0500   37.6690 C   0  0  0  0  0  3  0  0  0  0  0  0
   39.2710   23.7730   36.5670 C   0  0  0  0  0  0  0  0  0  0  0  0
   39.7790   23.8900   35.2900 C   0  0  0  0  0  3  0  0  0  0  0  0
   35.9650   29.6690   33.5530 O   0  0  0  0  0  0  0  0  0  0  0  0
   34.8550   31.3700   34.8760 C   0  0  0  0  0  0  0  0  0  0  0  0
   33.8290   31.8950   35.6410 C   0  0  0  0  0  0  0  0  0  0  0  0
   32.7480   31.0130   35.8200 C   0  0  0  0  0  0  0  0  0  0  0  0
   32.7400   29.7270   35.2610 C   0  0  0  0  0  0  0  0  0  0  0  0
   33.8480   29.3010   34.4970 C   0  0  0  0  0  0  0  0  0  0  0  0
   34.9240   30.1550   34.3090 C   0  0  0  0  0  0  0  0  0  0  0  0
   31.9120   31.3650   36.4100 H   0  0  0  0  0  0  0  0  0  0  0  0
   31.8920   29.0740   35.4180 H   0  0  0  0  0  0  0  0  0  0  0  0
   33.7890   28.3020   34.0900 H   0  0  0  0  0  0  0  0  0  0  0  0
   34.2470   33.4000   37.5240 C   0  0  0  0  0  0  0  0  0  0  0  0
   33.8360   33.2060   36.2110 C   0  0  0  0  0  0  0  0  0  0  0  0
   33.4330   34.3370   35.4770 C   0  0  0  0  0  0  0  0  0  0  0  0
   33.4720   35.5390   36.0970 N   0  0  0  0  0  0  0  0  0  0  0  0
   33.8810   35.6840   37.3870 C   0  0  0  0  0  0  0  0  0  0  0  0
   34.2670   34.6140   38.0940 N   0  0  0  0  0  0  0  0  0  0  0  0
   34.5720   32.5970   38.1670 H   0  0  0  0  0  0  0  0  0  0  0  0
   33.8430   36.7180   37.7050 H   0  0  0  0  0  0  0  0  0  0  0  0
   32.9880   34.1890   34.0760 C   0  0  0  0  0  0  0  0  0  0  0  0
   31.9720   33.7780   33.9660 H   0  0  0  0  0  0  0  0  0  0  0  0
   33.7370   33.5430   33.5560 H   0  0  0  0  0  0  0  0  0  0  0  0
   33.0710   35.1730   33.5950 H   0  0  0  0  0  0  0  0  0  0  0  0
   35.9810   32.1750   34.6410 O   0  0  0  0  0  0  0  0  0  0  0  0
   36.4380   32.6010   35.4390 H   0  0  0  0  0  0  0  0  0  0  0  0
  1 10  1  0  0  0  0
  2 26  1  0  0  0  0
  2  1  2  0  0  0  0
  3  2  1  0  0  0  0
  4  3  2  0  0  0  0
  4  8  1  0  0  0  0
  5  6  1  0  0  0  0
  5  4  1  0  0  0  0
  6  7  2  0  0  0  0
  7  8  1  0  0  0  0
  8  9  2  0  0  0  0
  9  1  1  0  0  0  0
  9 15  1  0  0  0  0
 11  3  1  0  0  0  0
 12  5  1  0  0  0  0
 13  6  1  0  0  0  0
 14 15  2  0  0  0  0
 14 25  1  0  0  0  0
 15 16  1  0  0  0  0
 16 17  1  0  0  0  0
 16 18  2  0  0  0  0
 18 19  1  0  0  0  0
 19 21  1  0  0  0  0
 19 20  1  0  0  0  0
 21 22  1  0  0  0  0
 23 21  2  0  0  0  0
 24 18  1  0  0  0  0
 24 23  1  0  0  0  0
 25 24  2  0  0  0  0
 26 32  1  0  0  0  0
 27 28  1  0  0  0  0
 28 29  2  0  0  0  0
 28 37  1  0  0  0  0
 29 33  1  0  0  0  0
 30 34  1  0  0  0  0
 30 29  1  0  0  0  0
 31 30  2  0  0  0  0
 32 31  1  0  0  0  0
 32 27  2  0  0  0  0
 35 31  1  0  0  0  0
 36 41  1  0  0  0  0
 36 42  1  0  0  0  0
 37 36  2  0  0  0  0
 38 39  2  0  0  0  0
 38 37  1  0  0  0  0
 39 40  1  0  0  0  0
 40 43  1  0  0  0  0
 40 41  2  0  0  0  0
 44 38  1  0  0  0  0
 45 44  1  0  0  0  0
 46 44  1  0  0  0  0
 47 44  1  0  0  0  0
 48 27  1  0  0  0  0
 48 49  1  0  0  0  0
M  END
>  <minimizedAffinity>
-7.16674948

$$$$

 OpenBabel03272509233D

 49 54  0  0  0  0  0  0  0  0999 V2000
   37.0050   27.8870   34.3740 C   0  0  0  0  0  0  0  0  0  0  0  0
   37.9320   27.1430   33.6790 C   0  0  0  0  0  0  0  0  0  0  0  0
   38.0710   27.3880   32.3070 C   0  0  0  0  0  0  0  0  0  0  0  0
   37.2930   28.3620   31.6560 C   0  0  0  0  0  0  0  0  0  0  0  0
   37.2050   28.8060   30.3990 N   0  0  0  0  0  0  0  0  0  0  0  0
   36.2740   29.7720   30.3220 C   0  0  0  0  0  0  0  0  0  0  0  0
   35.7710   29.9310   31.5640 N   0  0  0  0  0  0  0  0  0  0  0  0
   36.3900   29.0670   32.4060 C   0  0  0  0  0  0  0  0  0  0  0  0
   36.2350   28.8420   33.7610 C   0  0  0  0  0  0  0  0  0  0  0  0
   36.9560   27.6440   35.4140 H   0  0  0  0  0  0  0  0  0  0  0  0
   38.7640   26.8770   31.6230 H   0  0  0  0  0  0  0  0  0  0  0  0
   37.7620   28.4700   29.5830 H   0  0  0  0  0  0  0  0  0  0  0  0
   35.9130   30.3700   29.5000 H   0  0  0  0  0  0  0  0  0  0  0  0
   33.9130   29.3400   34.4860 C   0  0  0  0  0  3  0  0  0  0  0  0
   35.2670   29.6030   34.5440 C   0  0  0  0  0  0  0  0  0  0  0  0
   35.8200   30.5870   35.3270 C   0  0  0  0  0  0  0  0  0  0  0  0
   36.8770   30.8070   35.3850 H   0  0  0  0  0  0  0  0  0  0  0  0
   34.9710   31.3610   36.1070 C   0  0  0  0  0  0  0  0  0  0  0  0
   35.1480   32.3790   36.9670 N   0  0  0  0  0  0  0  0  0  0  0  0
   36.0920   32.7610   37.1790 H   0  0  0  0  0  0  0  0  0  0  0  0
   33.9810   32.8010   37.4810 C   0  0  0  0  0  0  0  0  0  0  0  0
   33.8810   33.6190   38.2040 H   0  0  0  0  0  0  0  0  0  0  0  0
   32.9890   32.0130   36.9230 C   0  0  0  0  0  3  0  0  0  0  0  0
   33.6030   31.1110   36.0630 C   0  0  0  0  0  0  0  0  0  0  0  0
   33.0860   30.1130   35.2630 C   0  0  0  0  0  3  0  0  0  0  0  0
   38.7750   26.1700   34.0950 O   0  0  0  0  0  0  0  0  0  0  0  0
   38.1110   23.8560   33.8090 C   0  0  0  0  0  0  0  0  0  0  0  0
   37.7680   22.5860   34.2370 C   0  0  0  0  0  0  0  0  0  0  0  0
   37.7730   22.4380   35.6360 C   0  0  0  0  0  0  0  0  0  0  0  0
   38.1040   23.4990   36.4910 C   0  0  0  0  0  0  0  0  0  0  0  0
   38.4390   24.7530   35.9370 C   0  0  0  0  0  0  0  0  0  0  0  0
   38.4380   24.9200   34.5610 C   0  0  0  0  0  0  0  0  0  0  0  0
   37.5130   21.4670   36.0340 H   0  0  0  0  0  0  0  0  0  0  0  0
   38.0990   23.3510   37.5630 H   0  0  0  0  0  0  0  0  0  0  0  0
   38.6840   25.5340   36.6410 H   0  0  0  0  0  0  0  0  0  0  0  0
   36.1040   21.1370   33.1790 C   0  0  0  0  0  0  0  0  0  0  0  0
   37.4310   21.5040   33.3650 C   0  0  0  0  0  0  0  0  0  0  0  0
   38.4150   20.7770   32.6710 C   0  0  0  0  0  0  0  0  0  0  0  0
   38.0060   19.7680   31.8670 N   0  0  0  0  0  0  0  0  0  0  0  0
   36.6940   19.4420   31.7140 C   0  0  0  0  0  0  0  0  0  0  0  0
   35.7500   20.1270   32.3700 N   0  0  0  0  0  0  0  0  0  0  0  0
   35.2790   21.6320   33.6670 H   0  0  0  0  0  0  0  0  0  0  0  0
   36.5650   18.6100   31.0330 H   0  0  0  0  0  0  0  0  0  0  0  0
   39.8430   21.1240   32.8300 C   0  0  0  0  0  0  0  0  0  0  0  0
   40.2870   20.7850   33.7800 H   0  0  0  0  0  0  0  0  0  0  0  0
   39.9270   22.2340   32.7260 H   0  0  0  0  0  0  0  0  0  0  0  0
   40.3840   20.7110   31.9690 H   0  0  0  0  0  0  0  0  0  0  0  0
   38.1330   24.1030   32.4280 O   0  0  0  0  0  0  0  0  0  0  0  0
   37.3140   23.8560   31.8860 H   0  0  0  0  0  0  0  0  0  0  0  0
  1 10  1  0  0  0  0
  2 26  1  0  0  0  0
  2  1  2  0  0  0  0
  3  2  1  0  0  0  0
  4  3  2  0  0  0  0
  4  8  1  0  0  0  0
  5  4  1  0  0  0  0
  6  5  1  0  0  0  0
  6  7  2  0  0  0  0
  7  8  1  0  0  0  0
  8  9  2  0  0  0  0
  9  1  1  0  0  0  0
  9 15  1  0  0  0  0
 11  3  1  0  0  0  0
 12  5  1  0  0  0  0
 13  6  1  0  0  0  0
 14 15  2  0  0  0  0
 14 25  1  0  0  0  0
 15 16  1  0  0  0  0
 16 17  1  0  0  0  0
 16 18  2  0  0  0  0
 18 19  1  0  0  0  0
 19 20  1  0  0  0  0
 19 21  1  0  0  0  0
 21 22  1  0  0  0  0
 23 21  2  0  0  0  0
 24 18  1  0  0  0  0
 24 23  1  0  0  0  0
 25 24  2  0  0  0  0
 26 32  1  0  0  0  0
 27 28  2  0  0  0  0
 27 32  1  0  0  0  0
 28 29  1  0  0  0  0
 29 33  1  0  0  0  0
 29 30  2  0  0  0  0
 30 34  1  0  0  0  0
 31 30  1  0  0  0  0
 31 35  1  0  0  0  0
 32 31  2  0  0  0  0
 36 37  1  0  0  0  0
 36 42  1  0  0  0  0
 37 28  1  0  0  0  0
 38 44  1  0  0  0  0
 38 37  2  0  0  0  0
 39 38  1  0  0  0  0
 40 39  2  0  0  0  0
 40 41  1  0  0  0  0
 41 36  2  0  0  0  0
 43 40  1  0  0  0  0
 44 45  1  0  0  0  0
 46 44  1  0  0  0  0
 47 44  1  0  0  0  0
 48 27  1  0  0  0  0
 49 48  1  0  0  0  0
M  END
>  <minimizedAffinity>
-7.14733458

$$$$

 OpenBabel03272509233D

 49 54  0  0  0  0  0  0  0  0999 V2000
   35.4000   28.9470   32.8190 C   0  0  0  0  0  0  0  0  0  0  0  0
   35.8490   28.3060   31.6870 C   0  0  0  0  0  0  0  0  0  0  0  0
   36.5130   29.0740   30.7220 C   0  0  0  0  0  0  0  0  0  0  0  0
   36.7170   30.4540   30.8980 C   0  0  0  0  0  0  0  0  0  0  0  0
   37.2970   31.4170   30.1750 N   0  0  0  0  0  0  0  0  0  0  0  0
   37.2100   32.5890   30.8270 C   0  0  0  0  0  0  0  0  0  0  0  0
   36.5590   32.3470   31.9840 N   0  0  0  0  0  0  0  0  0  0  0  0
   36.2450   31.0290   32.0480 C   0  0  0  0  0  0  0  0  0  0  0  0
   35.5870   30.2920   33.0140 C   0  0  0  0  0  0  0  0  0  0  0  0
   34.9050   28.2980   33.5090 H   0  0  0  0  0  0  0  0  0  0  0  0
   36.9250   28.7060   29.7710 H   0  0  0  0  0  0  0  0  0  0  0  0
   37.7540   31.3020   29.2450 H   0  0  0  0  0  0  0  0  0  0  0  0
   37.5490   33.5830   30.5830 H   0  0  0  0  0  0  0  0  0  0  0  0
   35.9020   31.1240   35.3320 C   0  0  0  0  0  3  0  0  0  0  0  0
   35.0910   30.9220   34.2330 C   0  0  0  0  0  0  0  0  0  0  0  0
   33.7680   31.2870   34.1860 C   0  0  0  0  0  0  0  0  0  0  0  0
   33.1190   31.1370   33.3350 H   0  0  0  0  0  0  0  0  0  0  0  0
   33.2130   31.8940   35.3040 C   0  0  0  0  0  0  0  0  0  0  0  0
   31.9930   32.3700   35.6100 N   0  0  0  0  0  0  0  0  0  0  0  0
   31.2030   32.3310   34.9350 H   0  0  0  0  0  0  0  0  0  0  0  0
   31.9580   32.8770   36.8540 C   0  0  0  0  0  0  0  0  0  0  0  0
   31.0680   33.3200   37.3180 H   0  0  0  0  0  0  0  0  0  0  0  0
   33.2260   32.7200   37.3860 C   0  0  0  0  0  3  0  0  0  0  0  0
   34.0140   32.1070   36.4220 C   0  0  0  0  0  0  0  0  0  0  0  0
   35.3400   31.7260   36.4310 C   0  0  0  0  0  3  0  0  0  0  0  0
   35.7650   27.0080   31.3140 O   0  0  0  0  0  0  0  0  0  0  0  0
   36.1360   24.6360   31.6480 C   0  0  0  0  0  0  0  0  0  0  0  0
   36.7330   23.5270   32.2190 C   0  0  0  0  0  0  0  0  0  0  0  0
   37.7100   23.8410   33.1820 C   0  0  0  0  0  0  0  0  0  0  0  0
   38.0270   25.1670   33.5080 C   0  0  0  0  0  0  0  0  0  0  0  0
   37.3490   26.2190   32.8570 C   0  0  0  0  0  0  0  0  0  0  0  0
   36.3820   25.9310   31.9060 C   0  0  0  0  0  0  0  0  0  0  0  0
   38.2140   23.0160   33.6650 H   0  0  0  0  0  0  0  0  0  0  0  0
   38.7840   25.3740   34.2530 H   0  0  0  0  0  0  0  0  0  0  0  0
   37.6320   27.2200   33.1470 H   0  0  0  0  0  0  0  0  0  0  0  0
   35.3030   21.5550   32.4510 C   0  0  0  0  0  0  0  0  0  0  0  0
   36.4100   22.1750   31.8860 C   0  0  0  0  0  0  0  0  0  0  0  0
   37.1890   21.4260   30.9840 C   0  0  0  0  0  0  0  0  0  0  0  0
   36.8090   20.1530   30.7270 N   0  0  0  0  0  0  0  0  0  0  0  0
   35.7160   19.5850   31.3050 C   0  0  0  0  0  0  0  0  0  0  0  0
   34.9680   20.2890   32.1640 N   0  0  0  0  0  0  0  0  0  0  0  0
   34.6450   22.0450   33.1530 H   0  0  0  0  0  0  0  0  0  0  0  0
   35.5750   18.5630   30.9770 H   0  0  0  0  0  0  0  0  0  0  0  0
   38.3780   22.0340   30.3520 C   0  0  0  0  0  0  0  0  0  0  0  0
   39.2540   22.1120   31.0160 H   0  0  0  0  0  0  0  0  0  0  0  0
   38.0740   23.0420   29.9750 H   0  0  0  0  0  0  0  0  0  0  0  0
   38.6130   21.4480   29.4530 H   0  0  0  0  0  0  0  0  0  0  0  0
   35.1460   24.4240   30.6750 O   0  0  0  0  0  0  0  0  0  0  0  0
   34.3800   23.8000   30.9010 H   0  0  0  0  0  0  0  0  0  0  0  0
  1  9  1  0  0  0  0
  1 10  1  0  0  0  0
  2  1  2  0  0  0  0
  3  4  2  0  0  0  0
  3  2  1  0  0  0  0
  4  8  1  0  0  0  0
  5  6  1  0  0  0  0
  5  4  1  0  0  0  0
  6  7  2  0  0  0  0
  7  8  1  0  0  0  0
  8  9  2  0  0  0  0
  9 15  1  0  0  0  0
 11  3  1  0  0  0  0
 12  5  1  0  0  0  0
 13  6  1  0  0  0  0
 14 25  1  0  0  0  0
 15 14  2  0  0  0  0
 16 15  1  0  0  0  0
 16 18  2  0  0  0  0
 17 16  1  0  0  0  0
 18 19  1  0  0  0  0
 18 24  1  0  0  0  0
 19 21  1  0  0  0  0
 20 19  1  0  0  0  0
 21 22  1  0  0  0  0
 21 23  2  0  0  0  0
 24 25  2  0  0  0  0
 24 23  1  0  0  0  0
 26  2  1  0  0  0  0
 26 32  1  0  0  0  0
 27 32  2  0  0  0  0
 27 28  1  0  0  0  0
 28 29  2  0  0  0  0
 29 30  1  0  0  0  0
 29 33  1  0  0  0  0
 30 34  1  0  0  0  0
 31 35  1  0  0  0  0
 31 30  2  0  0  0  0
 32 31  1  0  0  0  0
 36 42  1  0  0  0  0
 37 28  1  0  0  0  0
 37 36  2  0  0  0  0
 38 37  1  0  0  0  0
 39 38  2  0  0  0  0
 39 40  1  0  0  0  0
 40 41  2  0  0  0  0
 41 36  1  0  0  0  0
 43 40  1  0  0  0  0
 44 38  1  0  0  0  0
 44 45  1  0  0  0  0
 46 44  1  0  0  0  0
 47 44  1  0  0  0  0
 48 49  1  0  0  0  0
 48 27  1  0  0  0  0
M  END
>  <minimizedAffinity>
-7.10011625

$$$$

 OpenBabel03272509233D

 49 54  0  0  0  0  0  0  0  0999 V2000
   36.6830   28.3060   32.9970 C   0  0  0  0  0  0  0  0  0  0  0  0
   37.5670   27.8370   32.0510 C   0  0  0  0  0  0  0  0  0  0  0  0
   37.6800   28.5520   30.8520 C   0  0  0  0  0  0  0  0  0  0  0  0
   36.9190   29.7100   30.6160 C   0  0  0  0  0  0  0  0  0  0  0  0
   36.8140   30.5740   29.6020 N   0  0  0  0  0  0  0  0  0  0  0  0
   35.9140   31.5240   29.9060 C   0  0  0  0  0  0  0  0  0  0  0  0
   35.4470   31.2430   31.1420 N   0  0  0  0  0  0  0  0  0  0  0  0
   36.0590   30.1220   31.5990 C   0  0  0  0  0  0  0  0  0  0  0  0
   35.9300   29.4330   32.7910 C   0  0  0  0  0  0  0  0  0  0  0  0
   36.6530   27.7090   33.8840 H   0  0  0  0  0  0  0  0  0  0  0  0
   38.3380   28.3020   30.0070 H   0  0  0  0  0  0  0  0  0  0  0  0
   37.3390   30.5380   28.7020 H   0  0  0  0  0  0  0  0  0  0  0  0
   35.5530   32.3840   29.3640 H   0  0  0  0  0  0  0  0  0  0  0  0
   33.7080   29.4280   33.8990 C   0  0  0  0  0  3  0  0  0  0  0  0
   35.0080   29.8870   33.8270 C   0  0  0  0  0  0  0  0  0  0  0  0
   35.5450   30.7970   34.7040 C   0  0  0  0  0  0  0  0  0  0  0  0
   36.5600   31.1670   34.6620 H   0  0  0  0  0  0  0  0  0  0  0  0
   34.7370   31.2830   35.7230 C   0  0  0  0  0  0  0  0  0  0  0  0
   34.9140   32.1540   36.7320 N   0  0  0  0  0  0  0  0  0  0  0  0
   35.8220   32.6380   36.8870 H   0  0  0  0  0  0  0  0  0  0  0  0
   33.7980   32.2920   37.4680 C   0  0  0  0  0  0  0  0  0  0  0  0
   33.7080   32.9490   38.3420 H   0  0  0  0  0  0  0  0  0  0  0  0
   32.8420   31.4650   36.9040 C   0  0  0  0  0  3  0  0  0  0  0  0
   33.4240   30.8320   35.8140 C   0  0  0  0  0  0  0  0  0  0  0  0
   32.9210   29.9160   34.9120 C   0  0  0  0  0  3  0  0  0  0  0  0
   38.3880   26.7610   32.0650 O   0  0  0  0  0  0  0  0  0  0  0  0
   38.4100   25.2050   33.9240 C   0  0  0  0  0  0  0  0  0  0  0  0
   38.1840   23.9920   34.5480 C   0  0  0  0  0  0  0  0  0  0  0  0
   37.6090   23.0200   33.7080 C   0  0  0  0  0  0  0  0  0  0  0  0
   37.3040   23.2890   32.3660 C   0  0  0  0  0  0  0  0  0  0  0  0
   37.5810   24.5680   31.8390 C   0  0  0  0  0  0  0  0  0  0  0  0
   38.1480   25.5390   32.6500 C   0  0  0  0  0  0  0  0  0  0  0  0
   37.4070   22.0480   34.1370 H   0  0  0  0  0  0  0  0  0  0  0  0
   36.8610   22.5190   31.7470 H   0  0  0  0  0  0  0  0  0  0  0  0
   37.3260   24.7200   30.8000 H   0  0  0  0  0  0  0  0  0  0  0  0
   37.5870   24.0290   36.9210 C   0  0  0  0  0  0  0  0  0  0  0  0
   38.4940   23.7170   35.9160 C   0  0  0  0  0  0  0  0  0  0  0  0
   39.7140   23.1280   36.2970 C   0  0  0  0  0  0  0  0  0  0  0  0
   39.9240   22.9040   37.6140 N   0  0  0  0  0  0  0  0  0  0  0  0
   39.0060   23.2270   38.5660 C   0  0  0  0  0  0  0  0  0  0  0  0
   37.8420   23.7870   38.2150 N   0  0  0  0  0  0  0  0  0  0  0  0
   36.6260   24.4830   36.7300 H   0  0  0  0  0  0  0  0  0  0  0  0
   39.3540   22.9720   39.5590 H   0  0  0  0  0  0  0  0  0  0  0  0
   40.7170   22.7750   35.2700 C   0  0  0  0  0  0  0  0  0  0  0  0
   41.2770   23.6350   34.8700 H   0  0  0  0  0  0  0  0  0  0  0  0
   40.1780   22.2360   34.4520 H   0  0  0  0  0  0  0  0  0  0  0  0
   41.3940   22.0300   35.7090 H   0  0  0  0  0  0  0  0  0  0  0  0
   38.9820   26.2390   34.6800 O   0  0  0  0  0  0  0  0  0  0  0  0
   39.8360   26.0420   35.1890 H   0  0  0  0  0  0  0  0  0  0  0  0
  1 10  1  0  0  0  0
  2 26  1  0  0  0  0
  2  1  2  0  0  0  0
  3  2  1  0  0  0  0
  4  3  2  0  0  0  0
  4  8  1  0  0  0  0
  5  6  1  0  0  0  0
  5  4  1  0  0  0  0
  6  7  2  0  0  0  0
  7  8  1  0  0  0  0
  8  9  2  0  0  0  0
  9  1  1  0  0  0  0
  9 15  1  0  0  0  0
 11  3  1  0  0  0  0
 12  5  1  0  0  0  0
 13  6  1  0  0  0  0
 14 25  1  0  0  0  0
 15 14  2  0  0  0  0
 15 16  1  0  0  0  0
 16 18  2  0  0  0  0
 17 16  1  0  0  0  0
 18 24  1  0  0  0  0
 18 19  1  0  0  0  0
 19 20  1  0  0  0  0
 19 21  1  0  0  0  0
 21 22  1  0  0  0  0
 23 21  2  0  0  0  0
 24 23  1  0  0  0  0
 25 24  2  0  0  0  0
 26 32  1  0  0  0  0
 27 28  1  0  0  0  0
 27 48  1  0  0  0  0
 28 37  1  0  0  0  0
 29 33  1  0  0  0  0
 29 28  2  0  0  0  0
 30 29  1  0  0  0  0
 31 30  2  0  0  0  0
 31 32  1  0  0  0  0
 32 27  2  0  0  0  0
 34 30  1  0  0  0  0
 35 31  1  0  0  0  0
 36 41  1  0  0  0  0
 37 38  1  0  0  0  0
 37 36  2  0  0  0  0
 38 39  2  0  0  0  0
 39 40  1  0  0  0  0
 40 43  1  0  0  0  0
 41 40  2  0  0  0  0
 42 36  1  0  0  0  0
 44 47  1  0  0  0  0
 44 38  1  0  0  0  0
 45 44  1  0  0  0  0
 46 44  1  0  0  0  0
 48 49  1  0  0  0  0
M  END
>  <minimizedAffinity>
-7.07581139

$$$$

 OpenBabel03272509233D

 49 54  0  0  0  0  0  0  0  0999 V2000
   36.9270   27.6170   32.4540 C   0  0  0  0  0  0  0  0  0  0  0  0
   37.9930   27.1410   31.7240 C   0  0  0  0  0  0  0  0  0  0  0  0
   38.4140   27.8910   30.6180 C   0  0  0  0  0  0  0  0  0  0  0  0
   37.7730   29.0900   30.2610 C   0  0  0  0  0  0  0  0  0  0  0  0
   37.9440   29.9930   29.2900 N   0  0  0  0  0  0  0  0  0  0  0  0
   37.0330   30.9720   29.4140 C   0  0  0  0  0  0  0  0  0  0  0  0
   36.2760   30.6700   30.4900 N   0  0  0  0  0  0  0  0  0  0  0  0
   36.7200   29.5070   31.0300 C   0  0  0  0  0  0  0  0  0  0  0  0
   36.2860   28.7840   32.1250 C   0  0  0  0  0  0  0  0  0  0  0  0
   36.6640   26.9930   33.2810 H   0  0  0  0  0  0  0  0  0  0  0  0
   39.2450   27.6410   29.9430 H   0  0  0  0  0  0  0  0  0  0  0  0
   38.6680   29.9640   28.5390 H   0  0  0  0  0  0  0  0  0  0  0  0
   36.8430   31.8650   28.8400 H   0  0  0  0  0  0  0  0  0  0  0  0
   35.3450   29.9490   34.1060 C   0  0  0  0  0  3  0  0  0  0  0  0
   35.1610   29.2440   32.9330 C   0  0  0  0  0  0  0  0  0  0  0  0
   33.9270   28.9150   32.4270 C   0  0  0  0  0  0  0  0  0  0  0  0
   33.7650   28.3640   31.5110 H   0  0  0  0  0  0  0  0  0  0  0  0
   32.8000   29.3130   33.1320 C   0  0  0  0  0  0  0  0  0  0  0  0
   31.4750   29.1750   32.9480 N   0  0  0  0  0  0  0  0  0  0  0  0
   31.0850   28.6740   32.1240 H   0  0  0  0  0  0  0  0  0  0  0  0
   30.7750   29.7530   33.9380 C   0  0  0  0  0  0  0  0  0  0  0  0
   29.6800   29.7660   33.9990 H   0  0  0  0  0  0  0  0  0  0  0  0
   31.6970   30.2970   34.8160 C   0  0  0  0  0  3  0  0  0  0  0  0
   32.9640   30.0250   34.3170 C   0  0  0  0  0  0  0  0  0  0  0  0
   34.2210   30.3360   34.7930 C   0  0  0  0  0  3  0  0  0  0  0  0
   38.7480   26.0290   31.8840 O   0  0  0  0  0  0  0  0  0  0  0  0
   38.6190   24.7060   33.9110 C   0  0  0  0  0  0  0  0  0  0  0  0
   38.3060   23.5880   34.6630 C   0  0  0  0  0  0  0  0  0  0  0  0
   37.7120   22.5520   33.9180 C   0  0  0  0  0  0  0  0  0  0  0  0
   37.4700   22.6740   32.5420 C   0  0  0  0  0  0  0  0  0  0  0  0
   37.8340   23.8670   31.8810 C   0  0  0  0  0  0  0  0  0  0  0  0
   38.4220   24.8990   32.5970 C   0  0  0  0  0  0  0  0  0  0  0  0
   37.4430   21.6500   34.4490 H   0  0  0  0  0  0  0  0  0  0  0  0
   37.0100   21.8580   32.0000 H   0  0  0  0  0  0  0  0  0  0  0  0
   37.6250   23.9070   30.8230 H   0  0  0  0  0  0  0  0  0  0  0  0
   37.5950   23.8700   36.9870 C   0  0  0  0  0  0  0  0  0  0  0  0
   38.5520   23.4630   36.0650 C   0  0  0  0  0  0  0  0  0  0  0  0
   39.7560   22.9310   36.5640 C   0  0  0  0  0  0  0  0  0  0  0  0
   39.9030   22.8500   37.9060 N   0  0  0  0  0  0  0  0  0  0  0  0
   38.9380   23.2620   38.7740 C   0  0  0  0  0  0  0  0  0  0  0  0
   37.7890   23.7690   38.3100 N   0  0  0  0  0  0  0  0  0  0  0  0
   36.6420   24.2900   36.7040 H   0  0  0  0  0  0  0  0  0  0  0  0
   39.2380   23.1180   39.8040 H   0  0  0  0  0  0  0  0  0  0  0  0
   40.8090   22.4820   35.6300 C   0  0  0  0  0  0  0  0  0  0  0  0
   41.3820   23.3010   35.1670 H   0  0  0  0  0  0  0  0  0  0  0  0
   40.3130   21.8540   34.8480 H   0  0  0  0  0  0  0  0  0  0  0  0
   41.4680   21.7950   36.1770 H   0  0  0  0  0  0  0  0  0  0  0  0
   39.2180   25.7940   34.5650 O   0  0  0  0  0  0  0  0  0  0  0  0
   40.0410   25.6170   35.1300 H   0  0  0  0  0  0  0  0  0  0  0  0
  1 10  1  0  0  0  0
  2 26  1  0  0  0  0
  2  1  2  0  0  0  0
  3  2  1  0  0  0  0
  4  3  2  0  0  0  0
  4  8  1  0  0  0  0
  5  6  1  0  0  0  0
  5  4  1  0  0  0  0
  6  7  2  0  0  0  0
  7  8  1  0  0  0  0
  8  9  2  0  0  0  0
  9  1  1  0  0  0  0
  9 15  1  0  0  0  0
 11  3  1  0  0  0  0
 12  5  1  0  0  0  0
 13  6  1  0  0  0  0
 14 25  1  0  0  0  0
 15 14  2  0  0  0  0
 16 15  1  0  0  0  0
 16 18  2  0  0  0  0
 17 16  1  0  0  0  0
 18 24  1  0  0  0  0
 19 18  1  0  0  0  0
 19 21  1  0  0  0  0
 20 19  1  0  0  0  0
 21 22  1  0  0  0  0
 21 23  2  0  0  0  0
 24 25  2  0  0  0  0
 24 23  1  0  0  0  0
 26 32  1  0  0  0  0
 27 48  1  0  0  0  0
 27 28  1  0  0  0  0
 28 37  1  0  0  0  0
 29 33  1  0  0  0  0
 29 28  2  0  0  0  0
 30 29  1  0  0  0  0
 31 30  2  0  0  0  0
 31 32  1  0  0  0  0
 32 27  2  0  0  0  0
 34 30  1  0  0  0  0
 35 31  1  0  0  0  0
 36 41  1  0  0  0  0
 37 38  1  0  0  0  0
 37 36  2  0  0  0  0
 38 39  2  0  0  0  0
 39 40  1  0  0  0  0
 40 43  1  0  0  0  0
 41 40  2  0  0  0  0
 42 36  1  0  0  0  0
 44 47  1  0  0  0  0
 44 38  1  0  0  0  0
 45 44  1  0  0  0  0
 46 44  1  0  0  0  0
 48 49  1  0  0  0  0
M  END
>  <minimizedAffinity>
-6.91607428

$$$$

 OpenBabel03272509233D

 49 54  0  0  0  0  0  0  0  0999 V2000
   37.2500   27.4090   33.7610 C   0  0  0  0  0  0  0  0  0  0  0  0
   36.5920   28.2250   32.8690 C   0  0  0  0  0  0  0  0  0  0  0  0
   35.9910   27.6240   31.7550 C   0  0  0  0  0  0  0  0  0  0  0  0
   36.0550   26.2350   31.5510 C   0  0  0  0  0  0  0  0  0  0  0  0
   35.5930   25.4020   30.6130 N   0  0  0  0  0  0  0  0  0  0  0  0
   35.9480   24.1410   30.9100 C   0  0  0  0  0  0  0  0  0  0  0  0
   36.6480   24.1920   32.0630 N   0  0  0  0  0  0  0  0  0  0  0  0
   36.7250   25.4810   32.4770 C   0  0  0  0  0  0  0  0  0  0  0  0
   37.3260   26.0510   33.5830 C   0  0  0  0  0  0  0  0  0  0  0  0
   37.6820   27.9380   34.5840 H   0  0  0  0  0  0  0  0  0  0  0  0
   35.4340   28.1420   30.9610 H   0  0  0  0  0  0  0  0  0  0  0  0
   35.0400   25.6670   29.7690 H   0  0  0  0  0  0  0  0  0  0  0  0
   35.7710   23.2000   30.4140 H   0  0  0  0  0  0  0  0  0  0  0  0
   39.1890   24.5450   34.2360 C   0  0  0  0  0  3  0  0  0  0  0  0
   38.0360   25.2320   34.5600 C   0  0  0  0  0  0  0  0  0  0  0  0
   37.4600   25.2080   35.8070 C   0  0  0  0  0  0  0  0  0  0  0  0
   36.5580   25.7390   36.0780 H   0  0  0  0  0  0  0  0  0  0  0  0
   38.0700   24.4530   36.7980 C   0  0  0  0  0  0  0  0  0  0  0  0
   37.8010   24.2010   38.0920 N   0  0  0  0  0  0  0  0  0  0  0  0
   36.9730   24.6110   38.5700 H   0  0  0  0  0  0  0  0  0  0  0  0
   38.7170   23.3850   38.6380 C   0  0  0  0  0  0  0  0  0  0  0  0
   38.7020   23.0440   39.6800 H   0  0  0  0  0  0  0  0  0  0  0  0
   39.6330   23.0890   37.6430 C   0  0  0  0  0  3  0  0  0  0  0  0
   39.2330   23.7530   36.4920 C   0  0  0  0  0  0  0  0  0  0  0  0
   39.7820   23.8030   35.2270 C   0  0  0  0  0  3  0  0  0  0  0  0
   36.4080   29.5660   32.8670 O   0  0  0  0  0  0  0  0  0  0  0  0
   34.3080   30.7660   33.0270 C   0  0  0  0  0  0  0  0  0  0  0  0
   33.3160   31.4810   33.6730 C   0  0  0  0  0  0  0  0  0  0  0  0
   33.5720   31.6950   35.0410 C   0  0  0  0  0  0  0  0  0  0  0  0
   34.7340   31.2150   35.6610 C   0  0  0  0  0  0  0  0  0  0  0  0
   35.6770   30.4950   34.8950 C   0  0  0  0  0  0  0  0  0  0  0  0
   35.4440   30.2740   33.5470 C   0  0  0  0  0  0  0  0  0  0  0  0
   32.8330   32.2490   35.6030 H   0  0  0  0  0  0  0  0  0  0  0  0
   34.8990   31.3970   36.7140 H   0  0  0  0  0  0  0  0  0  0  0  0
   36.5530   30.1490   35.4230 H   0  0  0  0  0  0  0  0  0  0  0  0
   32.0900   33.2610   32.5270 C   0  0  0  0  0  0  0  0  0  0  0  0
   32.1310   31.9710   33.0420 C   0  0  0  0  0  0  0  0  0  0  0  0
   30.9750   31.1790   32.9170 C   0  0  0  0  0  0  0  0  0  0  0  0
   29.8990   31.7250   32.3040 N   0  0  0  0  0  0  0  0  0  0  0  0
   29.9010   32.9950   31.8150 C   0  0  0  0  0  0  0  0  0  0  0  0
   30.9970   33.7560   31.9290 N   0  0  0  0  0  0  0  0  0  0  0  0
   32.9240   33.9440   32.5750 H   0  0  0  0  0  0  0  0  0  0  0  0
   28.9520   33.2510   31.3620 H   0  0  0  0  0  0  0  0  0  0  0  0
   30.9620   29.7990   33.4450 C   0  0  0  0  0  0  0  0  0  0  0  0
   30.8660   29.7360   34.5410 H   0  0  0  0  0  0  0  0  0  0  0  0
   31.9030   29.3040   33.0990 H   0  0  0  0  0  0  0  0  0  0  0  0
   30.1480   29.2580   32.9430 H   0  0  0  0  0  0  0  0  0  0  0  0
   34.1440   30.5020   31.6580 O   0  0  0  0  0  0  0  0  0  0  0  0
   33.9360   31.2800   31.0430 H   0  0  0  0  0  0  0  0  0  0  0  0
  1 10  1  0  0  0  0
  2  1  2  0  0  0  0
  3  2  1  0  0  0  0
  4  3  2  0  0  0  0
  4  8  1  0  0  0  0
  5  6  1  0  0  0  0
  5  4  1  0  0  0  0
  6  7  2  0  0  0  0
  7  8  1  0  0  0  0
  8  9  2  0  0  0  0
  9  1  1  0  0  0  0
  9 15  1  0  0  0  0
 11  3  1  0  0  0  0
 12  5  1  0  0  0  0
 13  6  1  0  0  0  0
 14 15  2  0  0  0  0
 14 25  1  0  0  0  0
 15 16  1  0  0  0  0
 16 17  1  0  0  0  0
 16 18  2  0  0  0  0
 18 19  1  0  0  0  0
 19 20  1  0  0  0  0
 19 21  1  0  0  0  0
 21 22  1  0  0  0  0
 23 21  2  0  0  0  0
 24 18  1  0  0  0  0
 24 23  1  0  0  0  0
 25 24  2  0  0  0  0
 26  2  1  0  0  0  0
 26 32  1  0  0  0  0
 27 32  2  0  0  0  0
 27 28  1  0  0  0  0
 28 29  2  0  0  0  0
 29 33  1  0  0  0  0
 29 30  1  0  0  0  0
 30 34  1  0  0  0  0
 31 35  1  0  0  0  0
 31 30  2  0  0  0  0
 32 31  1  0  0  0  0
 36 42  1  0  0  0  0
 36 37  1  0  0  0  0
 37 28  1  0  0  0  0
 38 37  2  0  0  0  0
 38 44  1  0  0  0  0
 39 38  1  0  0  0  0
 40 41  1  0  0  0  0
 40 39  2  0  0  0  0
 41 36  2  0  0  0  0
 43 40  1  0  0  0  0
 44 45  1  0  0  0  0
 46 44  1  0  0  0  0
 47 44  1  0  0  0  0
 48 27  1  0  0  0  0
 49 48  1  0  0  0  0
M  END
>  <minimizedAffinity>
-6.85442066

$$$$

 OpenBabel03272509233D

 49 54  0  0  0  0  0  0  0  0999 V2000
   36.3440   29.1680   32.4900 C   0  0  0  0  0  0  0  0  0  0  0  0
   36.9030   28.7710   31.2970 C   0  0  0  0  0  0  0  0  0  0  0  0
   36.8130   29.6490   30.2090 C   0  0  0  0  0  0  0  0  0  0  0  0
   36.1750   30.8960   30.3270 C   0  0  0  0  0  0  0  0  0  0  0  0
   35.9400   31.9130   29.4920 N   0  0  0  0  0  0  0  0  0  0  0  0
   35.2730   32.8850   30.1360 C   0  0  0  0  0  0  0  0  0  0  0  0
   35.0880   32.4600   31.4040 N   0  0  0  0  0  0  0  0  0  0  0  0
   35.6400   31.2290   31.5430 C   0  0  0  0  0  0  0  0  0  0  0  0
   35.7170   30.3800   32.6300 C   0  0  0  0  0  0  0  0  0  0  0  0
   36.4530   28.4470   33.2720 H   0  0  0  0  0  0  0  0  0  0  0  0
   37.2070   29.4720   29.1980 H   0  0  0  0  0  0  0  0  0  0  0  0
   36.2210   31.9670   28.4890 H   0  0  0  0  0  0  0  0  0  0  0  0
   34.9050   33.8480   29.8180 H   0  0  0  0  0  0  0  0  0  0  0  0
   35.8660   31.4470   34.8670 C   0  0  0  0  0  3  0  0  0  0  0  0
   35.1420   30.7520   33.9180 C   0  0  0  0  0  0  0  0  0  0  0  0
   33.8390   30.3540   34.0950 C   0  0  0  0  0  0  0  0  0  0  0  0
   33.2580   29.8100   33.3630 H   0  0  0  0  0  0  0  0  0  0  0  0
   33.2130   30.6670   35.2930 C   0  0  0  0  0  0  0  0  0  0  0  0
   31.9870   30.4480   35.8020 N   0  0  0  0  0  0  0  0  0  0  0  0
   31.2540   29.9380   35.2680 H   0  0  0  0  0  0  0  0  0  0  0  0
   31.8650   30.9620   37.0370 C   0  0  0  0  0  0  0  0  0  0  0  0
   30.9550   30.9040   37.6460 H   0  0  0  0  0  0  0  0  0  0  0  0
   33.0800   31.5490   37.3490 C   0  0  0  0  0  3  0  0  0  0  0  0
   33.9260   31.3670   36.2620 C   0  0  0  0  0  0  0  0  0  0  0  0
   35.2330   31.7500   36.0470 C   0  0  0  0  0  3  0  0  0  0  0  0
   37.5550   27.6330   30.9610 O   0  0  0  0  0  0  0  0  0  0  0  0
   38.1010   25.9360   32.6040 C   0  0  0  0  0  0  0  0  0  0  0  0
   38.9470   25.1910   33.4060 C   0  0  0  0  0  0  0  0  0  0  0  0
   40.3050   25.5340   33.2710 C   0  0  0  0  0  0  0  0  0  0  0  0
   40.7300   26.5420   32.3940 C   0  0  0  0  0  0  0  0  0  0  0  0
   39.7720   27.2360   31.6240 C   0  0  0  0  0  0  0  0  0  0  0  0
   38.4290   26.9140   31.7440 C   0  0  0  0  0  0  0  0  0  0  0  0
   41.0180   24.9870   33.8720 H   0  0  0  0  0  0  0  0  0  0  0  0
   41.7830   26.7800   32.3130 H   0  0  0  0  0  0  0  0  0  0  0  0
   40.1540   28.0010   30.9660 H   0  0  0  0  0  0  0  0  0  0  0  0
   38.4210   22.8460   33.8680 C   0  0  0  0  0  0  0  0  0  0  0  0
   38.5140   24.1640   34.3000 C   0  0  0  0  0  0  0  0  0  0  0  0
   38.1680   24.4390   35.6360 C   0  0  0  0  0  0  0  0  0  0  0  0
   37.7690   23.4050   36.4120 N   0  0  0  0  0  0  0  0  0  0  0  0
   37.6920   22.1280   35.9460 C   0  0  0  0  0  0  0  0  0  0  0  0
   38.0190   21.8550   34.6770 N   0  0  0  0  0  0  0  0  0  0  0  0
   38.6630   22.5350   32.8630 H   0  0  0  0  0  0  0  0  0  0  0  0
   37.3540   21.4420   36.7120 H   0  0  0  0  0  0  0  0  0  0  0  0
   38.2480   25.8220   36.1510 C   0  0  0  0  0  0  0  0  0  0  0  0
   37.4240   26.4750   35.8220 H   0  0  0  0  0  0  0  0  0  0  0  0
   39.2360   26.2370   35.8330 H   0  0  0  0  0  0  0  0  0  0  0  0
   38.2960   25.7670   37.2470 H   0  0  0  0  0  0  0  0  0  0  0  0
   36.7250   25.6690   32.6700 O   0  0  0  0  0  0  0  0  0  0  0  0
   36.2830   25.6600   33.5810 H   0  0  0  0  0  0  0  0  0  0  0  0
  1  9  1  0  0  0  0
  1 10  1  0  0  0  0
  2  1  2  0  0  0  0
  3  4  2  0  0  0  0
  3  2  1  0  0  0  0
  4  8  1  0  0  0  0
  5  6  1  0  0  0  0
  5  4  1  0  0  0  0
  6  7  2  0  0  0  0
  7  8  1  0  0  0  0
  8  9  2  0  0  0  0
  9 15  1  0  0  0  0
 11  3  1  0  0  0  0
 12  5  1  0  0  0  0
 13  6  1  0  0  0  0
 14 25  1  0  0  0  0
 15 16  1  0  0  0  0
 15 14  2  0  0  0  0
 16 18  2  0  0  0  0
 17 16  1  0  0  0  0
 18 19  1  0  0  0  0
 18 24  1  0  0  0  0
 19 21  1  0  0  0  0
 20 19  1  0  0  0  0
 21 23  2  0  0  0  0
 21 22  1  0  0  0  0
 24 23  1  0  0  0  0
 25 24  2  0  0  0  0
 26  2  1  0  0  0  0
 26 32  1  0  0  0  0
 27 48  1  0  0  0  0
 27 28  1  0  0  0  0
 28 37  1  0  0  0  0
 29 28  2  0  0  0  0
 29 33  1  0  0  0  0
 30 29  1  0  0  0  0
 31 32  1  0  0  0  0
 31 30  2  0  0  0  0
 32 27  2  0  0  0  0
 34 30  1  0  0  0  0
 35 31  1  0  0  0  0
 36 37  2  0  0  0  0
 36 41  1  0  0  0  0
 37 38  1  0  0  0  0
 38 44  1  0  0  0  0
 38 39  2  0  0  0  0
 40 39  1  0  0  0  0
 40 43  1  0  0  0  0
 41 40  2  0  0  0  0
 42 36  1  0  0  0  0
 44 47  1  0  0  0  0
 45 44  1  0  0  0  0
 46 44  1  0  0  0  0
 48 49  1  0  0  0  0
M  END
>  <minimizedAffinity>
-6.84986019

$$$$
