
 OpenBabel03262522363D

 30 33  0  0  0  0  0  0  0  0999 V2000
   38.5410   31.2950   47.6980 C   0  0  0  0  0  0  0  0  0  0  0  0
   38.9940   32.5850   47.6760 C   0  0  0  0  0  0  0  0  0  0  0  0
   39.6530   33.1370   46.6000 C   0  0  0  0  0  0  0  0  0  0  0  0
   39.8850   32.3860   45.4820 C   0  0  0  0  0  0  0  0  0  0  0  0
   39.4220   31.0970   45.5320 C   0  0  0  0  0  0  0  0  0  0  0  0
   38.7840   30.5690   46.5770 N   0  0  0  0  0  0  0  0  0  0  0  0
   38.8200   33.2070   48.5590 H   0  0  0  0  0  0  0  0  0  0  0  0
   39.9890   34.1700   46.6410 H   0  0  0  0  0  0  0  0  0  0  0  0
   40.4050   32.8490   44.6570 H   0  0  0  0  0  0  0  0  0  0  0  0
   38.8400   29.1470   44.0450 C   0  0  0  0  0  0  0  0  0  0  0  0
   39.6280   30.2260   44.3800 C   0  0  0  0  0  0  0  0  0  0  0  0
   40.6740   30.4170   43.4890 C   0  0  0  0  0  0  0  0  0  0  0  0
   41.3660   31.2410   43.6490 H   0  0  0  0  0  0  0  0  0  0  0  0
   40.9460   29.6500   42.3800 C   0  0  0  0  0  0  0  0  0  0  0  0
   41.8910   29.6870   41.4300 N   0  0  0  0  0  0  0  0  0  0  0  0
   42.6740   30.3840   41.3600 H   0  0  0  0  0  0  0  0  0  0  0  0
   41.6610   28.6680   40.5760 C   0  0  0  0  0  0  0  0  0  0  0  0
   42.2880   28.4770   39.7150 H   0  0  0  0  0  0  0  0  0  0  0  0
   40.5490   27.9550   40.9750 C   0  0  0  0  0  0  0  0  0  0  0  0
   40.1100   28.5910   42.1170 C   0  0  0  0  0  0  0  0  0  0  0  0
   39.0520   28.3350   42.9520 C   0  0  0  0  0  0  0  0  0  0  0  0
   37.4060   30.3660   51.1740 C   0  0  0  0  0  0  0  0  0  0  0  0
   38.1520   31.0040   50.1690 C   0  0  0  0  0  0  0  0  0  0  0  0
   37.8440   30.7030   48.8340 C   0  0  0  0  0  0  0  0  0  0  0  0
   36.8550   29.8220   48.5980 N   0  0  0  0  0  0  0  0  0  0  0  0
   36.1470   29.2180   49.5880 C   0  0  0  0  0  0  0  0  0  0  0  0
   36.4290   29.4960   50.8570 N   0  0  0  0  0  0  0  0  0  0  0  0
   37.7010   30.6480   52.1700 H   0  0  0  0  0  0  0  0  0  0  0  0
   38.9450   31.7090   50.3550 H   0  0  0  0  0  0  0  0  0  0  0  0
   35.3580   28.5170   49.3650 H   0  0  0  0  0  0  0  0  0  0  0  0
  1 24  1  0  0  0  0
  2  1  1  0  0  0  0
  2  7  1  0  0  0  0
  3  8  1  0  0  0  0
  3  2  2  0  0  0  0
  4  5  2  0  0  0  0
  4  3  1  0  0  0  0
  5  6  1  0  0  0  0
  6  1  2  0  0  0  0
  9  4  1  0  0  0  0
 10 11  1  0  0  0  0
 11  5  1  0  0  0  0
 12 13  1  0  0  0  0
 12 11  2  0  0  0  0
 14 12  1  0  0  0  0
 15 14  1  0  0  0  0
 16 15  1  0  0  0  0
 17 19  2  0  0  0  0
 17 15  1  0  0  0  0
 18 17  1  0  0  0  0
 19 20  1  0  0  0  0
 20 14  2  0  0  0  0
 20 21  1  0  0  0  0
 21 10  2  0  0  0  0
 22 28  1  0  0  0  0
 23 29  1  0  0  0  0
 23 22  2  0  0  0  0
 24 23  1  0  0  0  0
 25 24  2  0  0  0  0
 25 26  1  0  0  0  0
 26 27  2  0  0  0  0
 27 22  1  0  0  0  0
 30 26  1  0  0  0  0
M  END
>  <minimizedAffinity>
-6.56729317

>  <minimizedRMSD>
0.599999428

$$$$
