
 OpenBabel03272509513D

 36 39  0  0  0  0  0  0  0  0999 V2000
   36.5480   28.3410   31.9040 C   0  0  0  0  0  0  0  0  0  0  0  0
   35.9160   29.3650   32.6290 C   0  0  0  0  0  0  0  0  0  0  0  0
   35.8140   29.2480   33.9970 C   0  0  0  0  0  0  0  0  0  0  0  0
   36.3420   28.1270   34.5760 N   0  0  0  0  0  0  0  0  0  0  0  0
   36.9450   27.1560   33.8630 C   0  0  0  0  0  0  0  0  0  0  0  0
   37.0410   27.2780   32.5200 N   0  0  0  0  0  0  0  0  0  0  0  0
   36.6360   28.4200   30.8350 H   0  0  0  0  0  0  0  0  0  0  0  0
   35.5210   30.2160   32.1390 H   0  0  0  0  0  0  0  0  0  0  0  0
   36.0070   31.0430   35.6080 C   0  0  0  0  0  3  0  0  0  0  0  0
   35.1800   30.2430   34.8560 C   0  0  0  0  0  0  0  0  0  0  0  0
   33.8350   30.3790   34.9130 C   0  0  0  0  0  0  0  0  0  0  0  0
   33.1610   29.7840   34.3500 H   0  0  0  0  0  0  0  0  0  0  0  0
   33.2430   31.3170   35.7220 C   0  0  0  0  0  0  0  0  0  0  0  0
   31.9620   31.6670   35.9740 N   0  0  0  0  0  0  0  0  0  0  0  0
   31.1380   31.2150   35.5310 H   0  0  0  0  0  0  0  0  0  0  0  0
   31.8850   32.6680   36.8640 C   0  0  0  0  0  0  0  0  0  0  0  0
   30.9620   33.1050   37.2100 H   0  0  0  0  0  0  0  0  0  0  0  0
   33.1830   32.9870   37.2100 C   0  0  0  0  0  3  0  0  0  0  0  0
   34.0280   32.1550   36.5070 C   0  0  0  0  0  0  0  0  0  0  0  0
   35.4080   31.9930   36.4270 C   0  0  0  0  0  3  0  0  0  0  0  0
   37.4070   26.1170   34.6260 O   0  0  0  0  0  0  0  0  0  0  0  0
   38.3940   25.2610   34.0510 C   0  0  0  0  0  0  0  0  0  0  0  0
   39.3730   25.6690   34.3280 H   0  0  0  0  0  0  0  0  0  0  0  0
   38.2750   25.2900   32.9340 H   0  0  0  0  0  0  0  0  0  0  0  0
   38.1620   23.8380   34.4790 C   0  0  0  0  0  0  0  0  0  0  0  0
   38.7450   23.1110   33.8920 H   0  0  0  0  0  0  0  0  0  0  0  0
   37.0750   23.6440   34.3130 H   0  0  0  0  0  0  0  0  0  0  0  0
   38.4080   23.6400   35.9340 C   0  0  0  0  0  0  0  0  0  0  0  0
   39.6040   23.0740   36.2950 C   0  0  0  0  0  0  0  0  0  0  0  0
   39.9340   22.8470   37.6170 C   0  0  0  0  0  0  0  0  0  0  0  0
   39.0680   23.1850   38.5740 N   0  0  0  0  0  0  0  0  0  0  0  0
   37.8950   23.7390   38.2160 C   0  0  0  0  0  0  0  0  0  0  0  0
   37.5490   23.9720   36.9380 N   0  0  0  0  0  0  0  0  0  0  0  0
   40.3550   22.7750   35.5870 H   0  0  0  0  0  0  0  0  0  0  0  0
   40.8940   22.3930   37.9010 H   0  0  0  0  0  0  0  0  0  0  0  0
   37.2110   24.0040   39.0100 H   0  0  0  0  0  0  0  0  0  0  0  0
  1  6  2  0  0  0  0
  1  2  1  0  0  0  0
  2  3  2  0  0  0  0
  3  4  1  0  0  0  0
  3 10  1  0  0  0  0
  5  4  2  0  0  0  0
  5 21  1  0  0  0  0
  6  5  1  0  0  0  0
  7  1  1  0  0  0  0
  8  2  1  0  0  0  0
  9 20  1  0  0  0  0
 10 11  1  0  0  0  0
 10  9  2  0  0  0  0
 11 13  2  0  0  0  0
 12 11  1  0  0  0  0
 13 14  1  0  0  0  0
 13 19  1  0  0  0  0
 14 16  1  0  0  0  0
 15 14  1  0  0  0  0
 16 18  2  0  0  0  0
 16 17  1  0  0  0  0
 19 18  1  0  0  0  0
 20 19  2  0  0  0  0
 22 23  1  0  0  0  0
 22 25  1  0  0  0  0
 22 21  1  0  0  0  0
 24 22  1  0  0  0  0
 25 28  1  0  0  0  0
 26 25  1  0  0  0  0
 27 25  1  0  0  0  0
 28 29  2  0  0  0  0
 28 33  1  0  0  0  0
 29 30  1  0  0  0  0
 30 35  1  0  0  0  0
 30 31  2  0  0  0  0
 32 31  1  0  0  0  0
 32 36  1  0  0  0  0
 33 32  2  0  0  0  0
 34 29  1  0  0  0  0
M  END
>  <minimizedAffinity>
-5.85523987

$$$$

 OpenBabel03272509513D

 36 39  0  0  0  0  0  0  0  0999 V2000
   43.7060   26.2830   34.0510 C   0  0  0  0  0  0  0  0  0  0  0  0
   42.4320   26.8410   33.8530 C   0  0  0  0  0  0  0  0  0  0  0  0
   41.3500   26.2750   34.4910 C   0  0  0  0  0  0  0  0  0  0  0  0
   41.5840   25.1890   35.2890 N   0  0  0  0  0  0  0  0  0  0  0  0
   42.8140   24.6690   35.4650 C   0  0  0  0  0  0  0  0  0  0  0  0
   43.8720   25.2300   34.8360 N   0  0  0  0  0  0  0  0  0  0  0  0
   44.5600   26.7150   33.5600 H   0  0  0  0  0  0  0  0  0  0  0  0
   42.2970   27.6830   33.2270 H   0  0  0  0  0  0  0  0  0  0  0  0
   39.2820   26.9880   35.5260 C   0  0  0  0  0  3  0  0  0  0  0  0
   39.9810   26.7650   34.3630 C   0  0  0  0  0  0  0  0  0  0  0  0
   39.4180   26.9920   33.1540 C   0  0  0  0  0  0  0  0  0  0  0  0
   39.9210   26.8340   32.2340 H   0  0  0  0  0  0  0  0  0  0  0  0
   38.1290   27.4530   33.0390 C   0  0  0  0  0  0  0  0  0  0  0  0
   37.3310   27.7600   31.9930 N   0  0  0  0  0  0  0  0  0  0  0  0
   37.6200   27.6800   30.9980 H   0  0  0  0  0  0  0  0  0  0  0  0
   36.1220   28.1810   32.3950 C   0  0  0  0  0  0  0  0  0  0  0  0
   35.3280   28.4780   31.7280 H   0  0  0  0  0  0  0  0  0  0  0  0
   36.1330   28.1470   33.7750 C   0  0  0  0  0  3  0  0  0  0  0  0
   37.3730   27.6970   34.1800 C   0  0  0  0  0  0  0  0  0  0  0  0
   37.9780   27.4540   35.4100 C   0  0  0  0  0  3  0  0  0  0  0  0
   42.8390   23.5840   36.3000 O   0  0  0  0  0  0  0  0  0  0  0  0
   42.0070   22.4720   35.9660 C   0  0  0  0  0  0  0  0  0  0  0  0
   42.6580   21.7010   35.5400 H   0  0  0  0  0  0  0  0  0  0  0  0
   41.2650   22.8100   35.1920 H   0  0  0  0  0  0  0  0  0  0  0  0
   41.2160   22.0350   37.1690 C   0  0  0  0  0  0  0  0  0  0  0  0
   41.7660   22.1610   38.1150 H   0  0  0  0  0  0  0  0  0  0  0  0
   41.0060   20.9490   37.0170 H   0  0  0  0  0  0  0  0  0  0  0  0
   39.8940   22.7140   37.2500 C   0  0  0  0  0  0  0  0  0  0  0  0
   39.2040   22.8850   36.0760 C   0  0  0  0  0  0  0  0  0  0  0  0
   37.9690   23.5010   36.0390 C   0  0  0  0  0  0  0  0  0  0  0  0
   37.4250   23.9440   37.1740 N   0  0  0  0  0  0  0  0  0  0  0  0
   38.1040   23.7760   38.3240 C   0  0  0  0  0  0  0  0  0  0  0  0
   39.3070   23.1790   38.3890 N   0  0  0  0  0  0  0  0  0  0  0  0
   39.5720   22.5560   35.1220 H   0  0  0  0  0  0  0  0  0  0  0  0
   37.4210   23.6360   35.0960 H   0  0  0  0  0  0  0  0  0  0  0  0
   37.6420   24.1440   39.2290 H   0  0  0  0  0  0  0  0  0  0  0  0
  1  6  1  0  0  0  0
  2  1  2  0  0  0  0
  2  3  1  0  0  0  0
  3  4  2  0  0  0  0
  4  5  1  0  0  0  0
  5 21  1  0  0  0  0
  6  5  2  0  0  0  0
  7  1  1  0  0  0  0
  8  2  1  0  0  0  0
 10  3  1  0  0  0  0
 10  9  2  0  0  0  0
 11 10  1  0  0  0  0
 12 11  1  0  0  0  0
 13 11  2  0  0  0  0
 13 19  1  0  0  0  0
 14 16  1  0  0  0  0
 14 13  1  0  0  0  0
 15 14  1  0  0  0  0
 16 18  2  0  0  0  0
 17 16  1  0  0  0  0
 18 19  1  0  0  0  0
 19 20  2  0  0  0  0
 20  9  1  0  0  0  0
 22 21  1  0  0  0  0
 22 25  1  0  0  0  0
 23 22  1  0  0  0  0
 24 22  1  0  0  0  0
 25 28  1  0  0  0  0
 25 26  1  0  0  0  0
 27 25  1  0  0  0  0
 28 33  1  0  0  0  0
 29 28  2  0  0  0  0
 30 29  1  0  0  0  0
 30 31  2  0  0  0  0
 31 32  1  0  0  0  0
 32 33  2  0  0  0  0
 32 36  1  0  0  0  0
 34 29  1  0  0  0  0
 35 30  1  0  0  0  0
M  END
>  <minimizedAffinity>
-5.77554655

$$$$

 OpenBabel03272509513D

 36 39  0  0  0  0  0  0  0  0999 V2000
   36.8550   27.9330   34.4520 C   0  0  0  0  0  0  0  0  0  0  0  0
   37.5610   27.0520   35.2870 C   0  0  0  0  0  0  0  0  0  0  0  0
   37.8810   25.7980   34.8170 C   0  0  0  0  0  0  0  0  0  0  0  0
   37.4850   25.4810   33.5460 N   0  0  0  0  0  0  0  0  0  0  0  0
   36.8080   26.3400   32.7610 C   0  0  0  0  0  0  0  0  0  0  0  0
   36.4980   27.5700   33.2300 N   0  0  0  0  0  0  0  0  0  0  0  0
   36.6000   28.9160   34.8060 H   0  0  0  0  0  0  0  0  0  0  0  0
   37.8480   27.3400   36.2650 H   0  0  0  0  0  0  0  0  0  0  0  0
   38.0390   24.3740   36.7670 C   0  0  0  0  0  3  0  0  0  0  0  0
   38.6100   24.7980   35.5900 C   0  0  0  0  0  0  0  0  0  0  0  0
   39.7980   24.3040   35.1710 C   0  0  0  0  0  0  0  0  0  0  0  0
   40.2730   24.6030   34.2710 H   0  0  0  0  0  0  0  0  0  0  0  0
   40.4800   23.3630   35.9020 C   0  0  0  0  0  0  0  0  0  0  0  0
   41.6520   22.7110   35.7340 N   0  0  0  0  0  0  0  0  0  0  0  0
   42.2830   22.8490   34.9200 H   0  0  0  0  0  0  0  0  0  0  0  0
   41.9010   21.8640   36.7450 C   0  0  0  0  0  0  0  0  0  0  0  0
   42.7790   21.2420   36.8160 H   0  0  0  0  0  0  0  0  0  0  0  0
   40.8360   21.9700   37.6170 C   0  0  0  0  0  3  0  0  0  0  0  0
   39.9530   22.8960   37.1020 C   0  0  0  0  0  0  0  0  0  0  0  0
   38.7300   23.4220   37.5070 C   0  0  0  0  0  3  0  0  0  0  0  0
   36.5030   25.8350   31.5250 O   0  0  0  0  0  0  0  0  0  0  0  0
   36.8730   24.4820   31.2540 C   0  0  0  0  0  0  0  0  0  0  0  0
   37.6500   24.2110   31.9770 H   0  0  0  0  0  0  0  0  0  0  0  0
   37.2930   24.4360   30.2120 H   0  0  0  0  0  0  0  0  0  0  0  0
   35.6560   23.5970   31.2740 C   0  0  0  0  0  0  0  0  0  0  0  0
   35.0630   23.6600   30.3490 H   0  0  0  0  0  0  0  0  0  0  0  0
   35.0320   23.9580   32.1270 H   0  0  0  0  0  0  0  0  0  0  0  0
   35.9970   22.1790   31.5710 C   0  0  0  0  0  0  0  0  0  0  0  0
   35.0650   21.4410   32.2560 C   0  0  0  0  0  0  0  0  0  0  0  0
   35.2800   20.1170   32.5820 C   0  0  0  0  0  0  0  0  0  0  0  0
   36.4250   19.5320   32.2240 N   0  0  0  0  0  0  0  0  0  0  0  0
   37.3370   20.2580   31.5520 C   0  0  0  0  0  0  0  0  0  0  0  0
   37.1540   21.5490   31.2220 N   0  0  0  0  0  0  0  0  0  0  0  0
   34.1200   21.8360   32.5800 H   0  0  0  0  0  0  0  0  0  0  0  0
   34.5300   19.5290   33.1310 H   0  0  0  0  0  0  0  0  0  0  0  0
   38.2560   19.7630   31.2730 H   0  0  0  0  0  0  0  0  0  0  0  0
  1  7  1  0  0  0  0
  1  2  1  0  0  0  0
  2  8  1  0  0  0  0
  3  2  2  0  0  0  0
  3 10  1  0  0  0  0
  4  3  1  0  0  0  0
  5  6  1  0  0  0  0
  5  4  2  0  0  0  0
  6  1  2  0  0  0  0
  9 20  1  0  0  0  0
 10  9  2  0  0  0  0
 11 10  1  0  0  0  0
 11 13  2  0  0  0  0
 12 11  1  0  0  0  0
 13 19  1  0  0  0  0
 14 13  1  0  0  0  0
 14 16  1  0  0  0  0
 15 14  1  0  0  0  0
 16 17  1  0  0  0  0
 16 18  2  0  0  0  0
 19 20  2  0  0  0  0
 19 18  1  0  0  0  0
 21  5  1  0  0  0  0
 22 25  1  0  0  0  0
 22 21  1  0  0  0  0
 22 23  1  0  0  0  0
 24 22  1  0  0  0  0
 25 28  1  0  0  0  0
 25 27  1  0  0  0  0
 26 25  1  0  0  0  0
 28 29  1  0  0  0  0
 29 34  1  0  0  0  0
 29 30  2  0  0  0  0
 30 35  1  0  0  0  0
 31 30  1  0  0  0  0
 32 31  2  0  0  0  0
 33 32  1  0  0  0  0
 33 28  2  0  0  0  0
 36 32  1  0  0  0  0
M  END
>  <minimizedAffinity>
-5.77308464

$$$$

 OpenBabel03272509513D

 36 39  0  0  0  0  0  0  0  0999 V2000
   35.3580   26.0580   31.0390 C   0  0  0  0  0  0  0  0  0  0  0  0
   35.4040   24.6540   31.0570 C   0  0  0  0  0  0  0  0  0  0  0  0
   36.2750   24.0260   31.9180 C   0  0  0  0  0  0  0  0  0  0  0  0
   37.0550   24.8170   32.7160 N   0  0  0  0  0  0  0  0  0  0  0  0
   36.9960   26.1620   32.6840 C   0  0  0  0  0  0  0  0  0  0  0  0
   36.1380   26.7720   31.8360 N   0  0  0  0  0  0  0  0  0  0  0  0
   34.6820   26.5610   30.3720 H   0  0  0  0  0  0  0  0  0  0  0  0
   34.7810   24.0800   30.4220 H   0  0  0  0  0  0  0  0  0  0  0  0
   37.6710   22.0810   32.2750 C   0  0  0  0  0  3  0  0  0  0  0  0
   36.4120   22.5770   32.0260 C   0  0  0  0  0  0  0  0  0  0  0  0
   35.3500   21.7500   31.8880 C   0  0  0  0  0  0  0  0  0  0  0  0
   34.3640   22.0900   31.6960 H   0  0  0  0  0  0  0  0  0  0  0  0
   35.4840   20.3870   31.9910 C   0  0  0  0  0  0  0  0  0  0  0  0
   34.6240   19.3490   31.9010 N   0  0  0  0  0  0  0  0  0  0  0  0
   33.6060   19.4510   31.7170 H   0  0  0  0  0  0  0  0  0  0  0  0
   35.2430   18.1720   32.0770 C   0  0  0  0  0  0  0  0  0  0  0  0
   34.7490   17.2140   32.0470 H   0  0  0  0  0  0  0  0  0  0  0  0
   36.5760   18.4580   32.2940 C   0  0  0  0  0  3  0  0  0  0  0  0
   36.7320   19.8270   32.2420 C   0  0  0  0  0  0  0  0  0  0  0  0
   37.8070   20.7020   32.3780 C   0  0  0  0  0  3  0  0  0  0  0  0
   37.8560   26.7720   33.5580 O   0  0  0  0  0  0  0  0  0  0  0  0
   37.3840   27.0280   34.8810 C   0  0  0  0  0  0  0  0  0  0  0  0
   36.4140   26.5270   34.9780 H   0  0  0  0  0  0  0  0  0  0  0  0
   37.2490   28.1380   34.9960 H   0  0  0  0  0  0  0  0  0  0  0  0
   38.4150   26.6050   35.8920 C   0  0  0  0  0  0  0  0  0  0  0  0
   38.2000   26.9750   36.9070 H   0  0  0  0  0  0  0  0  0  0  0  0
   39.3800   27.0480   35.5460 H   0  0  0  0  0  0  0  0  0  0  0  0
   38.6110   25.1300   35.9130 C   0  0  0  0  0  0  0  0  0  0  0  0
   37.7070   24.3880   36.6310 C   0  0  0  0  0  0  0  0  0  0  0  0
   37.7960   23.0130   36.7160 C   0  0  0  0  0  0  0  0  0  0  0  0
   38.7880   22.3820   36.0840 N   0  0  0  0  0  0  0  0  0  0  0  0
   39.6730   23.1120   35.3800 C   0  0  0  0  0  0  0  0  0  0  0  0
   39.6090   24.4520   35.2810 N   0  0  0  0  0  0  0  0  0  0  0  0
   36.8820   24.8190   37.1670 H   0  0  0  0  0  0  0  0  0  0  0  0
   37.0700   22.4230   37.2920 H   0  0  0  0  0  0  0  0  0  0  0  0
   40.4660   22.5770   34.8780 H   0  0  0  0  0  0  0  0  0  0  0  0
  1  2  2  0  0  0  0
  1  6  1  0  0  0  0
  2  3  1  0  0  0  0
  3 10  1  0  0  0  0
  3  4  2  0  0  0  0
  5  4  1  0  0  0  0
  5 21  1  0  0  0  0
  6  5  2  0  0  0  0
  7  1  1  0  0  0  0
  8  2  1  0  0  0  0
  9 20  1  0  0  0  0
 10  9  2  0  0  0  0
 11 13  2  0  0  0  0
 11 10  1  0  0  0  0
 12 11  1  0  0  0  0
 13 19  1  0  0  0  0
 14 13  1  0  0  0  0
 14 16  1  0  0  0  0
 15 14  1  0  0  0  0
 16 18  2  0  0  0  0
 17 16  1  0  0  0  0
 19 18  1  0  0  0  0
 19 20  2  0  0  0  0
 21 22  1  0  0  0  0
 22 23  1  0  0  0  0
 22 24  1  0  0  0  0
 22 25  1  0  0  0  0
 25 28  1  0  0  0  0
 25 26  1  0  0  0  0
 27 25  1  0  0  0  0
 28 29  1  0  0  0  0
 29 30  2  0  0  0  0
 29 34  1  0  0  0  0
 30 35  1  0  0  0  0
 31 30  1  0  0  0  0
 32 31  2  0  0  0  0
 33 32  1  0  0  0  0
 33 28  2  0  0  0  0
 36 32  1  0  0  0  0
M  END
>  <minimizedAffinity>
-5.68734884

$$$$

 OpenBabel03272509513D

 36 39  0  0  0  0  0  0  0  0999 V2000
   36.8550   29.0580   30.7530 C   0  0  0  0  0  0  0  0  0  0  0  0
   36.0380   29.7440   31.6650 C   0  0  0  0  0  0  0  0  0  0  0  0
   35.9720   29.3000   32.9670 C   0  0  0  0  0  0  0  0  0  0  0  0
   36.7180   28.2020   33.2980 N   0  0  0  0  0  0  0  0  0  0  0  0
   37.4960   27.5570   32.4070 C   0  0  0  0  0  0  0  0  0  0  0  0
   37.5560   28.0000   31.1310 N   0  0  0  0  0  0  0  0  0  0  0  0
   36.9170   29.3950   29.7340 H   0  0  0  0  0  0  0  0  0  0  0  0
   35.4770   30.5910   31.3670 H   0  0  0  0  0  0  0  0  0  0  0  0
   33.8260   29.5940   34.0460 C   0  0  0  0  0  3  0  0  0  0  0  0
   35.1590   29.9280   34.0040 C   0  0  0  0  0  0  0  0  0  0  0  0
   35.6890   30.8030   34.8890 C   0  0  0  0  0  0  0  0  0  0  0  0
   36.7100   31.0880   34.8920 H   0  0  0  0  0  0  0  0  0  0  0  0
   34.9200   31.3920   35.8630 C   0  0  0  0  0  0  0  0  0  0  0  0
   35.1720   32.2760   36.8530 N   0  0  0  0  0  0  0  0  0  0  0  0
   36.1070   32.6890   37.0400 H   0  0  0  0  0  0  0  0  0  0  0  0
   34.0690   32.5560   37.5640 C   0  0  0  0  0  0  0  0  0  0  0  0
   34.0410   33.2370   38.4000 H   0  0  0  0  0  0  0  0  0  0  0  0
   33.0450   31.8160   37.0080 C   0  0  0  0  0  3  0  0  0  0  0  0
   33.5640   31.0930   35.9550 C   0  0  0  0  0  0  0  0  0  0  0  0
   33.0470   30.1890   35.0310 C   0  0  0  0  0  3  0  0  0  0  0  0
   38.1620   26.4830   32.9330 O   0  0  0  0  0  0  0  0  0  0  0  0
   39.5200   26.6750   33.3300 C   0  0  0  0  0  0  0  0  0  0  0  0
   39.8880   27.5590   32.7970 H   0  0  0  0  0  0  0  0  0  0  0  0
   40.1090   25.7710   33.0140 H   0  0  0  0  0  0  0  0  0  0  0  0
   39.6170   26.7580   34.8290 C   0  0  0  0  0  0  0  0  0  0  0  0
   39.0120   27.5740   35.2550 H   0  0  0  0  0  0  0  0  0  0  0  0
   40.6930   26.9520   35.0540 H   0  0  0  0  0  0  0  0  0  0  0  0
   39.2750   25.4670   35.4870 C   0  0  0  0  0  0  0  0  0  0  0  0
   38.1660   25.4510   36.2960 C   0  0  0  0  0  0  0  0  0  0  0  0
   37.7600   24.3070   36.9530 C   0  0  0  0  0  0  0  0  0  0  0  0
   38.4620   23.1820   36.8010 N   0  0  0  0  0  0  0  0  0  0  0  0
   39.5480   23.2010   36.0080 C   0  0  0  0  0  0  0  0  0  0  0  0
   39.9660   24.3000   35.3560 N   0  0  0  0  0  0  0  0  0  0  0  0
   37.5490   26.3120   36.4700 H   0  0  0  0  0  0  0  0  0  0  0  0
   36.8720   24.2980   37.6000 H   0  0  0  0  0  0  0  0  0  0  0  0
   40.0990   22.2770   35.9020 H   0  0  0  0  0  0  0  0  0  0  0  0
  1  6  2  0  0  0  0
  1  2  1  0  0  0  0
  2  3  2  0  0  0  0
  3  4  1  0  0  0  0
  3 10  1  0  0  0  0
  5 21  1  0  0  0  0
  5  4  2  0  0  0  0
  6  5  1  0  0  0  0
  7  1  1  0  0  0  0
  8  2  1  0  0  0  0
  9 20  1  0  0  0  0
 10  9  2  0  0  0  0
 10 11  1  0  0  0  0
 11 12  1  0  0  0  0
 11 13  2  0  0  0  0
 13 19  1  0  0  0  0
 13 14  1  0  0  0  0
 14 15  1  0  0  0  0
 14 16  1  0  0  0  0
 16 17  1  0  0  0  0
 18 16  2  0  0  0  0
 19 18  1  0  0  0  0
 20 19  2  0  0  0  0
 21 22  1  0  0  0  0
 22 25  1  0  0  0  0
 23 22  1  0  0  0  0
 24 22  1  0  0  0  0
 25 27  1  0  0  0  0
 25 26  1  0  0  0  0
 25 28  1  0  0  0  0
 28 29  1  0  0  0  0
 29 34  1  0  0  0  0
 29 30  2  0  0  0  0
 30 35  1  0  0  0  0
 31 30  1  0  0  0  0
 32 31  2  0  0  0  0
 33 28  2  0  0  0  0
 33 32  1  0  0  0  0
 36 32  1  0  0  0  0
M  END
>  <minimizedAffinity>
-5.56260586

$$$$

 OpenBabel03272509513D

 36 39  0  0  0  0  0  0  0  0999 V2000
   35.1510   25.9470   30.9170 C   0  0  0  0  0  0  0  0  0  0  0  0
   35.1850   24.5430   30.9110 C   0  0  0  0  0  0  0  0  0  0  0  0
   36.0860   23.8940   31.7260 C   0  0  0  0  0  0  0  0  0  0  0  0
   36.9050   24.6670   32.5030 N   0  0  0  0  0  0  0  0  0  0  0  0
   36.8560   26.0130   32.4940 C   0  0  0  0  0  0  0  0  0  0  0  0
   35.9690   26.6430   31.6920 N   0  0  0  0  0  0  0  0  0  0  0  0
   34.4510   26.4670   30.2870 H   0  0  0  0  0  0  0  0  0  0  0  0
   34.5320   23.9840   30.2930 H   0  0  0  0  0  0  0  0  0  0  0  0
   35.1050   21.7330   32.1960 C   0  0  0  0  0  3  0  0  0  0  0  0
   36.2150   22.4430   31.8050 C   0  0  0  0  0  0  0  0  0  0  0  0
   37.3770   21.8160   31.5070 C   0  0  0  0  0  0  0  0  0  0  0  0
   38.2560   22.3240   31.2010 H   0  0  0  0  0  0  0  0  0  0  0  0
   37.4930   20.4490   31.5830 C   0  0  0  0  0  0  0  0  0  0  0  0
   38.5000   19.5780   31.3520 N   0  0  0  0  0  0  0  0  0  0  0  0
   39.4520   19.8580   31.0430 H   0  0  0  0  0  0  0  0  0  0  0  0
   38.1210   18.3090   31.5690 C   0  0  0  0  0  0  0  0  0  0  0  0
   38.7640   17.4520   31.4450 H   0  0  0  0  0  0  0  0  0  0  0  0
   36.7990   18.3570   31.9620 C   0  0  0  0  0  3  0  0  0  0  0  0
   36.4040   19.6780   31.9730 C   0  0  0  0  0  0  0  0  0  0  0  0
   35.2230   20.3500   32.2740 C   0  0  0  0  0  3  0  0  0  0  0  0
   37.7560   26.6020   33.3410 O   0  0  0  0  0  0  0  0  0  0  0  0
   37.2430   27.2560   34.5020 C   0  0  0  0  0  0  0  0  0  0  0  0
   36.3410   26.7120   34.8050 H   0  0  0  0  0  0  0  0  0  0  0  0
   36.9710   28.3100   34.2180 H   0  0  0  0  0  0  0  0  0  0  0  0
   38.3080   27.3500   35.5600 C   0  0  0  0  0  0  0  0  0  0  0  0
   37.9130   27.2280   36.5810 H   0  0  0  0  0  0  0  0  0  0  0  0
   38.7440   28.3730   35.4640 H   0  0  0  0  0  0  0  0  0  0  0  0
   39.4230   26.3930   35.3230 C   0  0  0  0  0  0  0  0  0  0  0  0
   39.1940   25.0750   35.6320 C   0  0  0  0  0  0  0  0  0  0  0  0
   40.1590   24.1050   35.4500 C   0  0  0  0  0  0  0  0  0  0  0  0
   41.3510   24.4530   34.9600 N   0  0  0  0  0  0  0  0  0  0  0  0
   41.5730   25.7450   34.6580 C   0  0  0  0  0  0  0  0  0  0  0  0
   40.6510   26.7100   34.8250 N   0  0  0  0  0  0  0  0  0  0  0  0
   38.2630   24.7140   36.0290 H   0  0  0  0  0  0  0  0  0  0  0  0
   39.9710   23.0510   35.6990 H   0  0  0  0  0  0  0  0  0  0  0  0
   42.5460   26.0010   34.2630 H   0  0  0  0  0  0  0  0  0  0  0  0
  1  6  1  0  0  0  0
  2  1  2  0  0  0  0
  2  3  1  0  0  0  0
  3 10  1  0  0  0  0
  3  4  2  0  0  0  0
  5  4  1  0  0  0  0
  5 21  1  0  0  0  0
  6  5  2  0  0  0  0
  7  1  1  0  0  0  0
  8  2  1  0  0  0  0
  9 20  1  0  0  0  0
 10  9  2  0  0  0  0
 11 13  2  0  0  0  0
 11 10  1  0  0  0  0
 12 11  1  0  0  0  0
 13 19  1  0  0  0  0
 14 16  1  0  0  0  0
 14 13  1  0  0  0  0
 15 14  1  0  0  0  0
 16 18  2  0  0  0  0
 17 16  1  0  0  0  0
 18 19  1  0  0  0  0
 19 20  2  0  0  0  0
 21 22  1  0  0  0  0
 22 23  1  0  0  0  0
 22 25  1  0  0  0  0
 24 22  1  0  0  0  0
 25 26  1  0  0  0  0
 27 25  1  0  0  0  0
 28 25  1  0  0  0  0
 28 29  1  0  0  0  0
 29 34  1  0  0  0  0
 30 29  2  0  0  0  0
 30 35  1  0  0  0  0
 31 30  1  0  0  0  0
 32 33  1  0  0  0  0
 32 31  2  0  0  0  0
 33 28  2  0  0  0  0
 36 32  1  0  0  0  0
M  END
>  <minimizedAffinity>
-5.43920374

$$$$

 OpenBabel03272509513D

 36 39  0  0  0  0  0  0  0  0999 V2000
   36.1950   28.4070   30.9760 C   0  0  0  0  0  0  0  0  0  0  0  0
   36.7820   27.4020   31.7610 C   0  0  0  0  0  0  0  0  0  0  0  0
   36.8230   27.5630   33.1280 C   0  0  0  0  0  0  0  0  0  0  0  0
   36.2830   28.7070   33.6470 N   0  0  0  0  0  0  0  0  0  0  0  0
   35.7240   29.6600   32.8750 C   0  0  0  0  0  0  0  0  0  0  0  0
   35.6870   29.4960   31.5340 N   0  0  0  0  0  0  0  0  0  0  0  0
   36.1550   28.2950   29.9070 H   0  0  0  0  0  0  0  0  0  0  0  0
   37.1890   26.5310   31.3180 H   0  0  0  0  0  0  0  0  0  0  0  0
   37.6920   27.0200   35.3210 C   0  0  0  0  0  3  0  0  0  0  0  0
   37.4070   26.5900   34.0470 C   0  0  0  0  0  0  0  0  0  0  0  0
   37.6580   25.3160   33.6660 C   0  0  0  0  0  0  0  0  0  0  0  0
   37.4530   24.9430   32.6950 H   0  0  0  0  0  0  0  0  0  0  0  0
   38.2070   24.4040   34.5340 C   0  0  0  0  0  0  0  0  0  0  0  0
   38.5570   23.1020   34.4320 N   0  0  0  0  0  0  0  0  0  0  0  0
   38.4440   22.5360   33.5680 H   0  0  0  0  0  0  0  0  0  0  0  0
   39.0670   22.6320   35.5800 C   0  0  0  0  0  0  0  0  0  0  0  0
   39.4110   21.6200   35.7240 H   0  0  0  0  0  0  0  0  0  0  0  0
   39.0480   23.6810   36.4770 C   0  0  0  0  0  3  0  0  0  0  0  0
   38.5170   24.7810   35.8360 C   0  0  0  0  0  0  0  0  0  0  0  0
   38.2480   26.0980   36.1990 C   0  0  0  0  0  3  0  0  0  0  0  0
   35.2400   30.7280   33.5830 O   0  0  0  0  0  0  0  0  0  0  0  0
   35.1220   30.5850   34.9990 C   0  0  0  0  0  0  0  0  0  0  0  0
   35.2750   29.5250   35.2290 H   0  0  0  0  0  0  0  0  0  0  0  0
   34.0820   30.8900   35.2960 H   0  0  0  0  0  0  0  0  0  0  0  0
   36.0690   31.5240   35.6970 C   0  0  0  0  0  0  0  0  0  0  0  0
   36.8830   31.8770   35.0450 H   0  0  0  0  0  0  0  0  0  0  0  0
   36.5120   30.9380   36.5390 H   0  0  0  0  0  0  0  0  0  0  0  0
   35.3640   32.6810   36.3120 C   0  0  0  0  0  0  0  0  0  0  0  0
   35.7630   33.9350   35.9260 C   0  0  0  0  0  0  0  0  0  0  0  0
   35.1750   35.0760   36.4350 C   0  0  0  0  0  0  0  0  0  0  0  0
   34.1900   34.9620   37.3280 N   0  0  0  0  0  0  0  0  0  0  0  0
   33.8010   33.7300   37.7050 C   0  0  0  0  0  0  0  0  0  0  0  0
   34.3560   32.6030   37.2260 N   0  0  0  0  0  0  0  0  0  0  0  0
   36.5470   34.1130   35.2130 H   0  0  0  0  0  0  0  0  0  0  0  0
   35.4980   36.0790   36.1220 H   0  0  0  0  0  0  0  0  0  0  0  0
   33.0020   33.6640   38.4290 H   0  0  0  0  0  0  0  0  0  0  0  0
  1  6  2  0  0  0  0
  1  2  1  0  0  0  0
  2  3  2  0  0  0  0
  3  4  1  0  0  0  0
  3 10  1  0  0  0  0
  5 21  1  0  0  0  0
  5  4  2  0  0  0  0
  6  5  1  0  0  0  0
  7  1  1  0  0  0  0
  8  2  1  0  0  0  0
  9 20  1  0  0  0  0
 10  9  2  0  0  0  0
 11 10  1  0  0  0  0
 11 13  2  0  0  0  0
 12 11  1  0  0  0  0
 13 19  1  0  0  0  0
 14 13  1  0  0  0  0
 14 16  1  0  0  0  0
 15 14  1  0  0  0  0
 16 17  1  0  0  0  0
 16 18  2  0  0  0  0
 19 20  2  0  0  0  0
 19 18  1  0  0  0  0
 21 22  1  0  0  0  0
 22 23  1  0  0  0  0
 22 24  1  0  0  0  0
 22 25  1  0  0  0  0
 25 28  1  0  0  0  0
 25 27  1  0  0  0  0
 26 25  1  0  0  0  0
 28 33  1  0  0  0  0
 29 28  2  0  0  0  0
 29 30  1  0  0  0  0
 30 31  2  0  0  0  0
 31 32  1  0  0  0  0
 32 36  1  0  0  0  0
 33 32  2  0  0  0  0
 34 29  1  0  0  0  0
 35 30  1  0  0  0  0
M  END
>  <minimizedAffinity>
-5.36783171

$$$$

 OpenBabel03272509513D

 36 39  0  0  0  0  0  0  0  0999 V2000
   35.9890   25.2740   31.3720 C   0  0  0  0  0  0  0  0  0  0  0  0
   36.9230   24.6060   32.1800 C   0  0  0  0  0  0  0  0  0  0  0  0
   37.6350   25.3270   33.1130 C   0  0  0  0  0  0  0  0  0  0  0  0
   37.3860   26.6690   33.1970 N   0  0  0  0  0  0  0  0  0  0  0  0
   36.4860   27.2920   32.4120 C   0  0  0  0  0  0  0  0  0  0  0  0
   35.7910   26.5770   31.4990 N   0  0  0  0  0  0  0  0  0  0  0  0
   35.4260   24.7230   30.6400 H   0  0  0  0  0  0  0  0  0  0  0  0
   37.0840   23.5640   32.0820 H   0  0  0  0  0  0  0  0  0  0  0  0
   39.8910   25.2950   33.9890 C   0  0  0  0  0  3  0  0  0  0  0  0
   38.6300   24.7450   34.0070 C   0  0  0  0  0  0  0  0  0  0  0  0
   38.3320   23.7080   34.8240 C   0  0  0  0  0  0  0  0  0  0  0  0
   37.3750   23.2550   34.8700 H   0  0  0  0  0  0  0  0  0  0  0  0
   39.2720   23.1640   35.6640 C   0  0  0  0  0  0  0  0  0  0  0  0
   39.2580   22.1550   36.5630 N   0  0  0  0  0  0  0  0  0  0  0  0
   38.4220   21.5730   36.7700 H   0  0  0  0  0  0  0  0  0  0  0  0
   40.4520   21.9960   37.1530 C   0  0  0  0  0  0  0  0  0  0  0  0
   40.6660   21.2500   37.9020 H   0  0  0  0  0  0  0  0  0  0  0  0
   41.2880   22.9510   36.6110 C   0  0  0  0  0  3  0  0  0  0  0  0
   40.5650   23.6780   35.6890 C   0  0  0  0  0  0  0  0  0  0  0  0
   40.8420   24.7440   34.8380 C   0  0  0  0  0  3  0  0  0  0  0  0
   36.3840   28.6360   32.6500 O   0  0  0  0  0  0  0  0  0  0  0  0
   35.4780   29.0610   33.6690 C   0  0  0  0  0  0  0  0  0  0  0  0
   35.6900   28.4570   34.5590 H   0  0  0  0  0  0  0  0  0  0  0  0
   34.4310   28.8570   33.3140 H   0  0  0  0  0  0  0  0  0  0  0  0
   35.5880   30.5470   33.8760 C   0  0  0  0  0  0  0  0  0  0  0  0
   35.2530   31.1290   33.0030 H   0  0  0  0  0  0  0  0  0  0  0  0
   36.6720   30.7510   34.0490 H   0  0  0  0  0  0  0  0  0  0  0  0
   34.8730   31.0000   35.1000 C   0  0  0  0  0  0  0  0  0  0  0  0
   33.5980   30.5300   35.2900 C   0  0  0  0  0  0  0  0  0  0  0  0
   32.8470   30.8870   36.3920 C   0  0  0  0  0  0  0  0  0  0  0  0
   33.3700   31.7120   37.3010 N   0  0  0  0  0  0  0  0  0  0  0  0
   34.6200   32.1710   37.1120 C   0  0  0  0  0  0  0  0  0  0  0  0
   35.3740   31.8400   36.0480 N   0  0  0  0  0  0  0  0  0  0  0  0
   33.1050   29.8630   34.6070 H   0  0  0  0  0  0  0  0  0  0  0  0
   31.8260   30.5070   36.5410 H   0  0  0  0  0  0  0  0  0  0  0  0
   35.0210   32.8380   37.8620 H   0  0  0  0  0  0  0  0  0  0  0  0
  1  6  2  0  0  0  0
  1  2  1  0  0  0  0
  2  3  2  0  0  0  0
  3  4  1  0  0  0  0
  3 10  1  0  0  0  0
  5 21  1  0  0  0  0
  5  4  2  0  0  0  0
  6  5  1  0  0  0  0
  7  1  1  0  0  0  0
  8  2  1  0  0  0  0
  9 10  2  0  0  0  0
  9 20  1  0  0  0  0
 10 11  1  0  0  0  0
 11 12  1  0  0  0  0
 11 13  2  0  0  0  0
 13 19  1  0  0  0  0
 13 14  1  0  0  0  0
 14 15  1  0  0  0  0
 14 16  1  0  0  0  0
 16 17  1  0  0  0  0
 18 16  2  0  0  0  0
 19 18  1  0  0  0  0
 20 19  2  0  0  0  0
 21 22  1  0  0  0  0
 22 25  1  0  0  0  0
 22 23  1  0  0  0  0
 24 22  1  0  0  0  0
 25 27  1  0  0  0  0
 25 28  1  0  0  0  0
 26 25  1  0  0  0  0
 28 29  2  0  0  0  0
 28 33  1  0  0  0  0
 29 30  1  0  0  0  0
 30 35  1  0  0  0  0
 30 31  2  0  0  0  0
 32 31  1  0  0  0  0
 32 36  1  0  0  0  0
 33 32  2  0  0  0  0
 34 29  1  0  0  0  0
M  END
>  <minimizedAffinity>
-5.3659277

$$$$

 OpenBabel03272509513D

 36 39  0  0  0  0  0  0  0  0999 V2000
   36.5210   29.0120   30.9470 C   0  0  0  0  0  0  0  0  0  0  0  0
   37.1720   28.0800   31.7730 C   0  0  0  0  0  0  0  0  0  0  0  0
   36.7370   27.9200   33.0690 C   0  0  0  0  0  0  0  0  0  0  0  0
   35.6820   28.6880   33.4810 N   0  0  0  0  0  0  0  0  0  0  0  0
   35.0720   29.5760   32.6740 C   0  0  0  0  0  0  0  0  0  0  0  0
   35.5040   29.7280   31.4020 N   0  0  0  0  0  0  0  0  0  0  0  0
   36.8500   29.1470   29.9320 H   0  0  0  0  0  0  0  0  0  0  0  0
   37.9850   27.5060   31.4120 H   0  0  0  0  0  0  0  0  0  0  0  0
   37.7360   27.4940   35.2320 C   0  0  0  0  0  3  0  0  0  0  0  0
   37.3320   26.9860   34.0190 C   0  0  0  0  0  0  0  0  0  0  0  0
   37.4830   25.6730   33.7260 C   0  0  0  0  0  0  0  0  0  0  0  0
   37.1850   25.2410   32.8050 H   0  0  0  0  0  0  0  0  0  0  0  0
   38.0430   24.7980   34.6240 C   0  0  0  0  0  0  0  0  0  0  0  0
   38.3110   23.4740   34.6030 N   0  0  0  0  0  0  0  0  0  0  0  0
   38.1020   22.8510   33.7970 H   0  0  0  0  0  0  0  0  0  0  0  0
   38.8790   23.0620   35.7470 C   0  0  0  0  0  0  0  0  0  0  0  0
   39.1760   22.0440   35.9470 H   0  0  0  0  0  0  0  0  0  0  0  0
   38.9860   24.1750   36.5550 C   0  0  0  0  0  3  0  0  0  0  0  0
   38.4710   25.2540   35.8660 C   0  0  0  0  0  0  0  0  0  0  0  0
   38.3030   26.6080   36.1400 C   0  0  0  0  0  3  0  0  0  0  0  0
   34.0390   30.2460   33.2730 O   0  0  0  0  0  0  0  0  0  0  0  0
   32.7400   30.1110   32.6950 C   0  0  0  0  0  0  0  0  0  0  0  0
   32.6580   29.0830   32.3250 H   0  0  0  0  0  0  0  0  0  0  0  0
   32.6620   30.8300   31.8350 H   0  0  0  0  0  0  0  0  0  0  0  0
   31.6840   30.5080   33.6920 C   0  0  0  0  0  0  0  0  0  0  0  0
   30.7450   30.8340   33.2180 H   0  0  0  0  0  0  0  0  0  0  0  0
   32.1140   31.3640   34.2660 H   0  0  0  0  0  0  0  0  0  0  0  0
   31.4130   29.4310   34.6830 C   0  0  0  0  0  0  0  0  0  0  0  0
   31.8670   29.6270   35.9630 C   0  0  0  0  0  0  0  0  0  0  0  0
   31.6680   28.6920   36.9580 C   0  0  0  0  0  0  0  0  0  0  0  0
   31.0160   27.5630   36.6750 N   0  0  0  0  0  0  0  0  0  0  0  0
   30.5720   27.3720   35.4190 C   0  0  0  0  0  0  0  0  0  0  0  0
   30.7510   28.2660   34.4300 N   0  0  0  0  0  0  0  0  0  0  0  0
   32.3990   30.5070   36.2720 H   0  0  0  0  0  0  0  0  0  0  0  0
   32.0340   28.8540   37.9820 H   0  0  0  0  0  0  0  0  0  0  0  0
   30.0470   26.4500   35.2140 H   0  0  0  0  0  0  0  0  0  0  0  0
  1  6  2  0  0  0  0
  1  2  1  0  0  0  0
  2  3  2  0  0  0  0
  3  4  1  0  0  0  0
  3 10  1  0  0  0  0
  5 21  1  0  0  0  0
  5  4  2  0  0  0  0
  6  5  1  0  0  0  0
  7  1  1  0  0  0  0
  8  2  1  0  0  0  0
  9 20  1  0  0  0  0
 10  9  2  0  0  0  0
 11 10  1  0  0  0  0
 11 13  2  0  0  0  0
 12 11  1  0  0  0  0
 13 19  1  0  0  0  0
 14 13  1  0  0  0  0
 14 16  1  0  0  0  0
 15 14  1  0  0  0  0
 16 17  1  0  0  0  0
 16 18  2  0  0  0  0
 19 20  2  0  0  0  0
 19 18  1  0  0  0  0
 22 21  1  0  0  0  0
 22 25  1  0  0  0  0
 23 22  1  0  0  0  0
 24 22  1  0  0  0  0
 25 27  1  0  0  0  0
 25 28  1  0  0  0  0
 26 25  1  0  0  0  0
 28 29  1  0  0  0  0
 29 34  1  0  0  0  0
 29 30  2  0  0  0  0
 30 35  1  0  0  0  0
 31 30  1  0  0  0  0
 32 31  2  0  0  0  0
 33 28  2  0  0  0  0
 33 32  1  0  0  0  0
 36 32  1  0  0  0  0
M  END
>  <minimizedAffinity>
-5.31837416

$$$$
