
 OpenBabel03272502543D

 30 33  0  0  0  0  0  0  0  0999 V2000
   36.1080   28.7650   33.8750 C   0  0  0  0  0  0  0  0  0  0  0  0
   36.2790   28.8480   32.5050 C   0  0  0  0  0  0  0  0  0  0  0  0
   37.0430   27.9220   31.8240 C   0  0  0  0  0  0  0  0  0  0  0  0
   37.6120   26.9300   32.5830 C   0  0  0  0  0  0  0  0  0  0  0  0
   37.4550   26.8250   33.9540 C   0  0  0  0  0  0  0  0  0  0  0  0
   36.6850   27.7710   34.5910 N   0  0  0  0  0  0  0  0  0  0  0  0
   35.8210   29.6430   31.9030 H   0  0  0  0  0  0  0  0  0  0  0  0
   37.1670   27.9980   30.7600 H   0  0  0  0  0  0  0  0  0  0  0  0
   38.2120   26.2020   32.0550 H   0  0  0  0  0  0  0  0  0  0  0  0
   39.0020   24.8960   34.2640 C   0  0  0  0  0  3  0  0  0  0  0  0
   38.0600   25.7710   34.7590 C   0  0  0  0  0  0  0  0  0  0  0  0
   37.7150   25.6010   36.0600 C   0  0  0  0  0  0  0  0  0  0  0  0
   36.9680   26.2790   36.4890 H   0  0  0  0  0  0  0  0  0  0  0  0
   38.2380   24.6310   36.8880 C   0  0  0  0  0  0  0  0  0  0  0  0
   38.0120   24.3260   38.1850 N   0  0  0  0  0  0  0  0  0  0  0  0
   37.3250   24.8490   38.8060 H   0  0  0  0  0  0  0  0  0  0  0  0
   38.7860   23.2850   38.5080 C   0  0  0  0  0  0  0  0  0  0  0  0
   38.8210   22.8140   39.4900 H   0  0  0  0  0  0  0  0  0  0  0  0
   39.5170   22.9290   37.3890 C   0  0  0  0  0  3  0  0  0  0  0  0
   39.1780   23.7800   36.3440 C   0  0  0  0  0  0  0  0  0  0  0  0
   39.5790   23.8900   35.0330 C   0  0  0  0  0  3  0  0  0  0  0  0
   33.2090   30.6600   35.0500 C   0  0  0  0  0  0  0  0  0  0  0  0
   33.7580   31.6340   35.8820 C   0  0  0  0  0  0  0  0  0  0  0  0
   35.1400   31.6210   36.0270 C   0  0  0  0  0  0  0  0  0  0  0  0
   35.8730   30.6680   35.3550 N   0  0  0  0  0  0  0  0  0  0  0  0
   35.3010   29.7570   34.5700 C   0  0  0  0  0  0  0  0  0  0  0  0
   33.9580   29.7580   34.4200 N   0  0  0  0  0  0  0  0  0  0  0  0
   32.1240   30.7120   34.9680 H   0  0  0  0  0  0  0  0  0  0  0  0
   33.2600   32.4000   36.4310 H   0  0  0  0  0  0  0  0  0  0  0  0
   35.6760   32.3260   36.6450 H   0  0  0  0  0  0  0  0  0  0  0  0
  1 26  1  0  0  0  0
  1  6  1  0  0  0  0
  2  1  2  0  0  0  0
  3  2  1  0  0  0  0
  3  4  2  0  0  0  0
  4  5  1  0  0  0  0
  5  6  2  0  0  0  0
  5 11  1  0  0  0  0
  7  2  1  0  0  0  0
  8  3  1  0  0  0  0
  9  4  1  0  0  0  0
 10 11  2  0  0  0  0
 10 21  1  0  0  0  0
 11 12  1  0  0  0  0
 12 13  1  0  0  0  0
 12 14  2  0  0  0  0
 14 15  1  0  0  0  0
 15 17  1  0  0  0  0
 15 16  1  0  0  0  0
 17 18  1  0  0  0  0
 19 17  2  0  0  0  0
 20 14  1  0  0  0  0
 20 19  1  0  0  0  0
 21 20  2  0  0  0  0
 22 23  1  0  0  0  0
 23 24  2  0  0  0  0
 23 29  1  0  0  0  0
 24 30  1  0  0  0  0
 25 24  1  0  0  0  0
 26 25  2  0  0  0  0
 27 26  1  0  0  0  0
 27 22  2  0  0  0  0
 28 22  1  0  0  0  0
M  END
>  <minimizedAffinity>
-5.83665752

$$$$

 OpenBabel03272502543D

 30 33  0  0  0  0  0  0  0  0999 V2000
   39.9260   22.9820   36.8390 C   0  0  0  0  0  0  0  0  0  0  0  0
   39.4090   22.9410   38.1210 C   0  0  0  0  0  0  0  0  0  0  0  0
   38.3810   23.7780   38.5040 C   0  0  0  0  0  0  0  0  0  0  0  0
   37.9120   24.6390   37.5420 C   0  0  0  0  0  0  0  0  0  0  0  0
   38.4120   24.6980   36.2530 C   0  0  0  0  0  0  0  0  0  0  0  0
   39.4370   23.8440   35.9170 N   0  0  0  0  0  0  0  0  0  0  0  0
   39.7880   22.2500   38.8860 H   0  0  0  0  0  0  0  0  0  0  0  0
   37.9890   23.7360   39.5020 H   0  0  0  0  0  0  0  0  0  0  0  0
   37.1070   25.2980   37.8360 H   0  0  0  0  0  0  0  0  0  0  0  0
   37.6330   26.9380   35.4870 C   0  0  0  0  0  3  0  0  0  0  0  0
   37.9130   25.6130   35.2340 C   0  0  0  0  0  0  0  0  0  0  0  0
   37.6970   25.1920   33.9620 C   0  0  0  0  0  0  0  0  0  0  0  0
   37.9080   24.1430   33.7230 H   0  0  0  0  0  0  0  0  0  0  0  0
   37.2270   25.9910   32.9420 C   0  0  0  0  0  0  0  0  0  0  0  0
   36.9610   25.7390   31.6410 N   0  0  0  0  0  0  0  0  0  0  0  0
   37.0900   24.7890   31.1830 H   0  0  0  0  0  0  0  0  0  0  0  0
   36.5220   26.8710   31.0810 C   0  0  0  0  0  0  0  0  0  0  0  0
   36.2270   26.9780   30.0370 H   0  0  0  0  0  0  0  0  0  0  0  0
   36.5140   27.8570   32.0510 C   0  0  0  0  0  3  0  0  0  0  0  0
   36.9630   27.3100   33.2470 C   0  0  0  0  0  0  0  0  0  0  0  0
   37.1560   27.8110   34.5130 C   0  0  0  0  0  3  0  0  0  0  0  0
   42.6310   20.5320   37.0780 C   0  0  0  0  0  0  0  0  0  0  0  0
   43.0780   20.3960   35.7660 C   0  0  0  0  0  0  0  0  0  0  0  0
   42.4310   21.1620   34.8050 C   0  0  0  0  0  0  0  0  0  0  0  0
   41.4050   21.9940   35.1940 N   0  0  0  0  0  0  0  0  0  0  0  0
   41.0140   22.0900   36.4640 C   0  0  0  0  0  0  0  0  0  0  0  0
   41.6350   21.3510   37.4090 N   0  0  0  0  0  0  0  0  0  0  0  0
   43.1690   19.9120   37.7940 H   0  0  0  0  0  0  0  0  0  0  0  0
   43.8600   19.7770   35.3880 H   0  0  0  0  0  0  0  0  0  0  0  0
   42.6900   21.1390   33.7560 H   0  0  0  0  0  0  0  0  0  0  0  0
  1  2  1  0  0  0  0
  2  3  2  0  0  0  0
  2  7  1  0  0  0  0
  3  8  1  0  0  0  0
  4  9  1  0  0  0  0
  4  3  1  0  0  0  0
  5  4  2  0  0  0  0
  6  5  1  0  0  0  0
  6  1  2  0  0  0  0
 11 10  1  0  0  0  0
 11  5  1  0  0  0  0
 12 11  2  0  0  0  0
 13 12  1  0  0  0  0
 14 20  2  0  0  0  0
 14 12  1  0  0  0  0
 15 14  1  0  0  0  0
 16 15  1  0  0  0  0
 17 15  1  0  0  0  0
 17 19  2  0  0  0  0
 18 17  1  0  0  0  0
 19 20  1  0  0  0  0
 20 21  1  0  0  0  0
 21 10  2  0  0  0  0
 22 27  1  0  0  0  0
 22 28  1  0  0  0  0
 23 22  2  0  0  0  0
 24 25  2  0  0  0  0
 24 23  1  0  0  0  0
 25 26  1  0  0  0  0
 26  1  1  0  0  0  0
 26 27  2  0  0  0  0
 29 23  1  0  0  0  0
 30 24  1  0  0  0  0
M  END
>  <minimizedAffinity>
-5.8329525

$$$$

 OpenBabel03272502543D

 30 33  0  0  0  0  0  0  0  0999 V2000
   37.0330   27.1560   33.7530 C   0  0  0  0  0  0  0  0  0  0  0  0
   37.1620   27.3460   32.3890 C   0  0  0  0  0  0  0  0  0  0  0  0
   36.6720   28.4830   31.7780 C   0  0  0  0  0  0  0  0  0  0  0  0
   36.0600   29.3970   32.6000 C   0  0  0  0  0  0  0  0  0  0  0  0
   35.9210   29.2290   33.9660 C   0  0  0  0  0  0  0  0  0  0  0  0
   36.4240   28.0800   34.5320 N   0  0  0  0  0  0  0  0  0  0  0  0
   37.6530   26.6130   31.7370 H   0  0  0  0  0  0  0  0  0  0  0  0
   36.7790   28.6180   30.7180 H   0  0  0  0  0  0  0  0  0  0  0  0
   35.6740   30.2880   32.1260 H   0  0  0  0  0  0  0  0  0  0  0  0
   35.9680   31.0980   35.6140 C   0  0  0  0  0  3  0  0  0  0  0  0
   35.2690   30.2000   34.8370 C   0  0  0  0  0  0  0  0  0  0  0  0
   33.9170   30.2640   34.9230 C   0  0  0  0  0  0  0  0  0  0  0  0
   33.3270   29.5660   34.3190 H   0  0  0  0  0  0  0  0  0  0  0  0
   33.2240   31.1500   35.7210 C   0  0  0  0  0  0  0  0  0  0  0  0
   31.9030   31.3480   35.9230 N   0  0  0  0  0  0  0  0  0  0  0  0
   31.1400   30.7850   35.4440 H   0  0  0  0  0  0  0  0  0  0  0  0
   31.7620   32.3420   36.8060 C   0  0  0  0  0  0  0  0  0  0  0  0
   30.8090   32.7270   37.1660 H   0  0  0  0  0  0  0  0  0  0  0  0
   33.0240   32.7810   37.1650 C   0  0  0  0  0  3  0  0  0  0  0  0
   33.9700   32.0290   36.4800 C   0  0  0  0  0  0  0  0  0  0  0  0
   35.3450   32.0240   36.4460 C   0  0  0  0  0  3  0  0  0  0  0  0
   38.2320   24.8030   36.2830 C   0  0  0  0  0  0  0  0  0  0  0  0
   38.5420   23.6560   35.5560 C   0  0  0  0  0  0  0  0  0  0  0  0
   38.3310   23.7130   34.1840 C   0  0  0  0  0  0  0  0  0  0  0  0
   37.8360   24.8740   33.6320 N   0  0  0  0  0  0  0  0  0  0  0  0
   37.5550   25.9460   34.3710 C   0  0  0  0  0  0  0  0  0  0  0  0
   37.7560   25.9040   35.7070 N   0  0  0  0  0  0  0  0  0  0  0  0
   38.4150   24.7100   37.3530 H   0  0  0  0  0  0  0  0  0  0  0  0
   38.9260   22.7260   35.9090 H   0  0  0  0  0  0  0  0  0  0  0  0
   38.5340   22.8860   33.5200 H   0  0  0  0  0  0  0  0  0  0  0  0
  1 26  1  0  0  0  0
  1  6  1  0  0  0  0
  2  1  2  0  0  0  0
  3  2  1  0  0  0  0
  3  4  2  0  0  0  0
  4  5  1  0  0  0  0
  5  6  2  0  0  0  0
  5 11  1  0  0  0  0
  7  2  1  0  0  0  0
  8  3  1  0  0  0  0
  9  4  1  0  0  0  0
 10 21  1  0  0  0  0
 11 12  1  0  0  0  0
 11 10  2  0  0  0  0
 12 14  2  0  0  0  0
 13 12  1  0  0  0  0
 14 15  1  0  0  0  0
 14 20  1  0  0  0  0
 15 17  1  0  0  0  0
 16 15  1  0  0  0  0
 17 19  2  0  0  0  0
 17 18  1  0  0  0  0
 20 19  1  0  0  0  0
 21 20  2  0  0  0  0
 22 28  1  0  0  0  0
 23 29  1  0  0  0  0
 23 22  2  0  0  0  0
 24 23  1  0  0  0  0
 25 24  2  0  0  0  0
 25 26  1  0  0  0  0
 26 27  2  0  0  0  0
 27 22  1  0  0  0  0
 30 24  1  0  0  0  0
M  END
>  <minimizedAffinity>
-5.74378729

$$$$

 OpenBabel03272502543D

 30 33  0  0  0  0  0  0  0  0999 V2000
   38.1510   24.6740   34.7010 C   0  0  0  0  0  0  0  0  0  0  0  0
   38.4500   23.8970   33.5970 C   0  0  0  0  0  0  0  0  0  0  0  0
   38.1730   24.3370   32.3180 C   0  0  0  0  0  0  0  0  0  0  0  0
   37.5920   25.5770   32.2170 C   0  0  0  0  0  0  0  0  0  0  0  0
   37.2840   26.3730   33.3060 C   0  0  0  0  0  0  0  0  0  0  0  0
   37.5780   25.8930   34.5620 N   0  0  0  0  0  0  0  0  0  0  0  0
   38.9150   22.9070   33.6840 H   0  0  0  0  0  0  0  0  0  0  0  0
   38.4100   23.7230   31.4700 H   0  0  0  0  0  0  0  0  0  0  0  0
   37.3730   25.9260   31.2180 H   0  0  0  0  0  0  0  0  0  0  0  0
   36.2620   28.4210   34.2910 C   0  0  0  0  0  3  0  0  0  0  0  0
   36.6660   27.6890   33.1970 C   0  0  0  0  0  0  0  0  0  0  0  0
   36.4570   28.2630   31.9850 C   0  0  0  0  0  0  0  0  0  0  0  0
   36.7670   27.7100   31.0910 H   0  0  0  0  0  0  0  0  0  0  0  0
   35.8800   29.5010   31.7940 C   0  0  0  0  0  0  0  0  0  0  0  0
   35.6030   30.2110   30.6790 N   0  0  0  0  0  0  0  0  0  0  0  0
   35.8140   29.8730   29.6940 H   0  0  0  0  0  0  0  0  0  0  0  0
   35.0350   31.3630   31.0510 C   0  0  0  0  0  0  0  0  0  0  0  0
   34.7010   32.1430   30.3670 H   0  0  0  0  0  0  0  0  0  0  0  0
   34.9570   31.3780   32.4310 C   0  0  0  0  0  3  0  0  0  0  0  0
   35.4930   30.1940   32.9230 C   0  0  0  0  0  0  0  0  0  0  0  0
   35.6720   29.6770   34.1850 C   0  0  0  0  0  3  0  0  0  0  0  0
   37.9570   24.1400   38.3140 C   0  0  0  0  0  0  0  0  0  0  0  0
   39.0040   23.2600   38.5810 C   0  0  0  0  0  0  0  0  0  0  0  0
   39.7710   22.8590   37.4950 C   0  0  0  0  0  0  0  0  0  0  0  0
   39.4610   23.3430   36.2430 N   0  0  0  0  0  0  0  0  0  0  0  0
   38.4490   24.1840   36.0390 C   0  0  0  0  0  0  0  0  0  0  0  0
   37.6940   24.5820   37.0870 N   0  0  0  0  0  0  0  0  0  0  0  0
   37.3850   24.4250   39.1970 H   0  0  0  0  0  0  0  0  0  0  0  0
   39.3040   22.8450   39.5160 H   0  0  0  0  0  0  0  0  0  0  0  0
   40.6080   22.1810   37.5800 H   0  0  0  0  0  0  0  0  0  0  0  0
  1 26  1  0  0  0  0
  2  7  1  0  0  0  0
  2  1  2  0  0  0  0
  3  2  1  0  0  0  0
  4  3  2  0  0  0  0
  4  5  1  0  0  0  0
  5  6  2  0  0  0  0
  6  1  1  0  0  0  0
  8  3  1  0  0  0  0
  9  4  1  0  0  0  0
 11  5  1  0  0  0  0
 11 10  2  0  0  0  0
 12 11  1  0  0  0  0
 13 12  1  0  0  0  0
 14 12  2  0  0  0  0
 14 20  1  0  0  0  0
 15 17  1  0  0  0  0
 15 14  1  0  0  0  0
 16 15  1  0  0  0  0
 17 19  2  0  0  0  0
 18 17  1  0  0  0  0
 19 20  1  0  0  0  0
 20 21  2  0  0  0  0
 21 10  1  0  0  0  0
 22 23  1  0  0  0  0
 22 28  1  0  0  0  0
 23 29  1  0  0  0  0
 24 30  1  0  0  0  0
 24 23  2  0  0  0  0
 25 24  1  0  0  0  0
 26 25  2  0  0  0  0
 26 27  1  0  0  0  0
 27 22  2  0  0  0  0
M  END
>  <minimizedAffinity>
-5.72829008

$$$$

 OpenBabel03272502543D

 30 33  0  0  0  0  0  0  0  0999 V2000
   35.4170   30.0060   34.1690 C   0  0  0  0  0  0  0  0  0  0  0  0
   35.5170   30.5360   32.8960 C   0  0  0  0  0  0  0  0  0  0  0  0
   36.1490   29.8440   31.8820 C   0  0  0  0  0  0  0  0  0  0  0  0
   36.6620   28.6150   32.2160 C   0  0  0  0  0  0  0  0  0  0  0  0
   36.5730   28.0630   33.4810 C   0  0  0  0  0  0  0  0  0  0  0  0
   35.9350   28.7890   34.4610 N   0  0  0  0  0  0  0  0  0  0  0  0
   35.1050   31.5190   32.6340 H   0  0  0  0  0  0  0  0  0  0  0  0
   36.2200   30.2680   30.8980 H   0  0  0  0  0  0  0  0  0  0  0  0
   37.1580   28.0690   31.4260 H   0  0  0  0  0  0  0  0  0  0  0  0
   37.3600   25.7700   32.9060 C   0  0  0  0  0  3  0  0  0  0  0  0
   37.1180   26.7580   33.8340 C   0  0  0  0  0  0  0  0  0  0  0  0
   37.4180   26.4510   35.1220 C   0  0  0  0  0  0  0  0  0  0  0  0
   37.2390   27.2130   35.8890 H   0  0  0  0  0  0  0  0  0  0  0  0
   37.9350   25.2440   35.5390 C   0  0  0  0  0  0  0  0  0  0  0  0
   38.2870   24.7790   36.7580 N   0  0  0  0  0  0  0  0  0  0  0  0
   38.2000   25.3430   37.6550 H   0  0  0  0  0  0  0  0  0  0  0  0
   38.7380   23.5290   36.6120 C   0  0  0  0  0  0  0  0  0  0  0  0
   39.0940   22.8950   37.4230 H   0  0  0  0  0  0  0  0  0  0  0  0
   38.6710   23.2020   35.2700 C   0  0  0  0  0  3  0  0  0  0  0  0
   38.1600   24.2880   34.5700 C   0  0  0  0  0  0  0  0  0  0  0  0
   37.8810   24.5240   33.2440 C   0  0  0  0  0  3  0  0  0  0  0  0
   34.8650   32.2840   36.9760 C   0  0  0  0  0  0  0  0  0  0  0  0
   33.4960   32.1940   37.2180 C   0  0  0  0  0  0  0  0  0  0  0  0
   32.7740   31.3370   36.3980 C   0  0  0  0  0  0  0  0  0  0  0  0
   33.4370   30.6390   35.4120 N   0  0  0  0  0  0  0  0  0  0  0  0
   34.7500   30.7590   35.2210 C   0  0  0  0  0  0  0  0  0  0  0  0
   35.4640   31.5890   36.0120 N   0  0  0  0  0  0  0  0  0  0  0  0
   35.3860   32.9680   37.6450 H   0  0  0  0  0  0  0  0  0  0  0  0
   32.9130   32.6980   37.9560 H   0  0  0  0  0  0  0  0  0  0  0  0
   31.7080   31.1860   36.4910 H   0  0  0  0  0  0  0  0  0  0  0  0
  1  6  1  0  0  0  0
  1 26  1  0  0  0  0
  2  1  2  0  0  0  0
  3  4  2  0  0  0  0
  3  2  1  0  0  0  0
  4  5  1  0  0  0  0
  5 11  1  0  0  0  0
  5  6  2  0  0  0  0
  7  2  1  0  0  0  0
  8  3  1  0  0  0  0
  9  4  1  0  0  0  0
 10 21  2  0  0  0  0
 10 11  1  0  0  0  0
 11 12  2  0  0  0  0
 12 14  1  0  0  0  0
 12 13  1  0  0  0  0
 14 15  1  0  0  0  0
 15 16  1  0  0  0  0
 17 15  1  0  0  0  0
 17 18  1  0  0  0  0
 19 17  2  0  0  0  0
 20 19  1  0  0  0  0
 20 14  2  0  0  0  0
 21 20  1  0  0  0  0
 22 23  1  0  0  0  0
 22 28  1  0  0  0  0
 23 29  1  0  0  0  0
 24 30  1  0  0  0  0
 24 23  2  0  0  0  0
 25 24  1  0  0  0  0
 26 25  2  0  0  0  0
 26 27  1  0  0  0  0
 27 22  2  0  0  0  0
M  END
>  <minimizedAffinity>
-5.59807396

$$$$

 OpenBabel03272502543D

 30 33  0  0  0  0  0  0  0  0999 V2000
   36.2090   26.4130   31.7870 C   0  0  0  0  0  0  0  0  0  0  0  0
   35.4580   25.4660   31.1160 C   0  0  0  0  0  0  0  0  0  0  0  0
   35.6830   24.1160   31.2990 C   0  0  0  0  0  0  0  0  0  0  0  0
   36.6850   23.7830   32.1770 C   0  0  0  0  0  0  0  0  0  0  0  0
   37.4490   24.7130   32.8600 C   0  0  0  0  0  0  0  0  0  0  0  0
   37.1890   26.0470   32.6460 N   0  0  0  0  0  0  0  0  0  0  0  0
   34.6580   25.7370   30.4150 H   0  0  0  0  0  0  0  0  0  0  0  0
   35.0930   23.3910   30.7710 H   0  0  0  0  0  0  0  0  0  0  0  0
   36.8660   22.7270   32.3230 H   0  0  0  0  0  0  0  0  0  0  0  0
   39.7140   25.0280   33.8500 C   0  0  0  0  0  3  0  0  0  0  0  0
   38.5130   24.3570   33.7920 C   0  0  0  0  0  0  0  0  0  0  0  0
   38.3640   23.3260   34.6610 C   0  0  0  0  0  0  0  0  0  0  0  0
   37.4200   22.7680   34.6430 H   0  0  0  0  0  0  0  0  0  0  0  0
   39.3180   22.9250   35.5710 C   0  0  0  0  0  0  0  0  0  0  0  0
   39.3350   21.9390   36.4940 N   0  0  0  0  0  0  0  0  0  0  0  0
   38.5280   21.2670   36.6580 H   0  0  0  0  0  0  0  0  0  0  0  0
   40.5140   21.9780   37.1230 C   0  0  0  0  0  0  0  0  0  0  0  0
   40.8190   21.3020   37.9210 H   0  0  0  0  0  0  0  0  0  0  0  0
   41.2550   23.0150   36.5840 C   0  0  0  0  0  3  0  0  0  0  0  0
   40.5040   23.6300   35.5900 C   0  0  0  0  0  0  0  0  0  0  0  0
   40.7290   24.6870   34.7390 C   0  0  0  0  0  3  0  0  0  0  0  0
   34.8290   29.7780   32.1730 C   0  0  0  0  0  0  0  0  0  0  0  0
   35.4600   30.5170   31.1750 C   0  0  0  0  0  0  0  0  0  0  0  0
   36.3640   29.8340   30.3720 C   0  0  0  0  0  0  0  0  0  0  0  0
   36.5820   28.4940   30.6030 N   0  0  0  0  0  0  0  0  0  0  0  0
   35.9530   27.8300   31.5720 C   0  0  0  0  0  0  0  0  0  0  0  0
   35.0710   28.4830   32.3600 N   0  0  0  0  0  0  0  0  0  0  0  0
   34.1300   30.3580   32.7760 H   0  0  0  0  0  0  0  0  0  0  0  0
   35.3450   31.5500   30.9350 H   0  0  0  0  0  0  0  0  0  0  0  0
   36.9120   30.3020   29.5670 H   0  0  0  0  0  0  0  0  0  0  0  0
  1  6  1  0  0  0  0
  2  3  1  0  0  0  0
  2  1  2  0  0  0  0
  3  4  2  0  0  0  0
  4  9  1  0  0  0  0
  4  5  1  0  0  0  0
  5 11  1  0  0  0  0
  6  5  2  0  0  0  0
  7  2  1  0  0  0  0
  8  3  1  0  0  0  0
 10 21  1  0  0  0  0
 11 10  2  0  0  0  0
 11 12  1  0  0  0  0
 12 14  2  0  0  0  0
 13 12  1  0  0  0  0
 14 20  1  0  0  0  0
 14 15  1  0  0  0  0
 15 16  1  0  0  0  0
 15 17  1  0  0  0  0
 17 18  1  0  0  0  0
 19 17  2  0  0  0  0
 20 19  1  0  0  0  0
 21 20  2  0  0  0  0
 22 27  1  0  0  0  0
 22 28  1  0  0  0  0
 23 22  2  0  0  0  0
 24 25  2  0  0  0  0
 24 23  1  0  0  0  0
 25 26  1  0  0  0  0
 26  1  1  0  0  0  0
 26 27  2  0  0  0  0
 29 23  1  0  0  0  0
 30 24  1  0  0  0  0
M  END
>  <minimizedAffinity>
-5.53456354

$$$$

 OpenBabel03272502543D

 30 33  0  0  0  0  0  0  0  0999 V2000
   37.6910   27.7780   31.7310 C   0  0  0  0  0  0  0  0  0  0  0  0
   36.6990   28.6510   32.1390 C   0  0  0  0  0  0  0  0  0  0  0  0
   36.1780   28.5920   33.4160 C   0  0  0  0  0  0  0  0  0  0  0  0
   36.7010   27.6260   34.2400 C   0  0  0  0  0  0  0  0  0  0  0  0
   37.6950   26.7430   33.8540 C   0  0  0  0  0  0  0  0  0  0  0  0
   38.1840   26.8390   32.5720 N   0  0  0  0  0  0  0  0  0  0  0  0
   36.2840   29.4210   31.4760 H   0  0  0  0  0  0  0  0  0  0  0  0
   35.4080   29.2750   33.7200 H   0  0  0  0  0  0  0  0  0  0  0  0
   36.2970   27.5750   35.2410 H   0  0  0  0  0  0  0  0  0  0  0  0
   39.2520   24.8590   34.3390 C   0  0  0  0  0  3  0  0  0  0  0  0
   38.2490   25.7180   34.7310 C   0  0  0  0  0  0  0  0  0  0  0  0
   37.7910   25.5610   35.9980 C   0  0  0  0  0  0  0  0  0  0  0  0
   36.9930   26.2270   36.3450 H   0  0  0  0  0  0  0  0  0  0  0  0
   38.2600   24.6180   36.8890 C   0  0  0  0  0  0  0  0  0  0  0  0
   37.9240   24.3300   38.1650 N   0  0  0  0  0  0  0  0  0  0  0  0
   37.1720   24.8460   38.7110 H   0  0  0  0  0  0  0  0  0  0  0  0
   38.6900   23.3140   38.5760 C   0  0  0  0  0  0  0  0  0  0  0  0
   38.6470   22.8600   39.5660 H   0  0  0  0  0  0  0  0  0  0  0  0
   39.5280   22.9570   37.5350 C   0  0  0  0  0  3  0  0  0  0  0  0
   39.2650   23.7820   36.4480 C   0  0  0  0  0  0  0  0  0  0  0  0
   39.7800   23.8800   35.1760 C   0  0  0  0  0  3  0  0  0  0  0  0
   39.6370   27.0320   28.7250 C   0  0  0  0  0  0  0  0  0  0  0  0
   39.2290   28.0020   27.8110 C   0  0  0  0  0  0  0  0  0  0  0  0
   38.2760   28.9110   28.2520 C   0  0  0  0  0  0  0  0  0  0  0  0
   37.7980   28.8060   29.5400 N   0  0  0  0  0  0  0  0  0  0  0  0
   38.2200   27.8590   30.3770 C   0  0  0  0  0  0  0  0  0  0  0  0
   39.1470   26.9690   29.9610 N   0  0  0  0  0  0  0  0  0  0  0  0
   40.3850   26.3440   28.3330 H   0  0  0  0  0  0  0  0  0  0  0  0
   39.5510   28.1480   26.8050 H   0  0  0  0  0  0  0  0  0  0  0  0
   37.8850   29.7060   27.6340 H   0  0  0  0  0  0  0  0  0  0  0  0
  1  2  2  0  0  0  0
  1  6  1  0  0  0  0
  2  3  1  0  0  0  0
  3  8  1  0  0  0  0
  3  4  2  0  0  0  0
  4  9  1  0  0  0  0
  5  4  1  0  0  0  0
  5 11  1  0  0  0  0
  6  5  2  0  0  0  0
  7  2  1  0  0  0  0
 10 11  2  0  0  0  0
 10 21  1  0  0  0  0
 11 12  1  0  0  0  0
 12 13  1  0  0  0  0
 12 14  2  0  0  0  0
 14 15  1  0  0  0  0
 15 17  1  0  0  0  0
 15 16  1  0  0  0  0
 17 18  1  0  0  0  0
 19 17  2  0  0  0  0
 20 14  1  0  0  0  0
 20 19  1  0  0  0  0
 21 20  2  0  0  0  0
 22 27  1  0  0  0  0
 23 24  1  0  0  0  0
 23 22  2  0  0  0  0
 24 25  2  0  0  0  0
 25 26  1  0  0  0  0
 26  1  1  0  0  0  0
 27 26  2  0  0  0  0
 28 22  1  0  0  0  0
 29 23  1  0  0  0  0
 30 24  1  0  0  0  0
M  END
>  <minimizedAffinity>
-5.53361893

$$$$

 OpenBabel03272502543D

 30 33  0  0  0  0  0  0  0  0999 V2000
   36.6390   27.2620   31.2620 C   0  0  0  0  0  0  0  0  0  0  0  0
   37.2630   28.0390   30.3030 C   0  0  0  0  0  0  0  0  0  0  0  0
   37.2100   29.4170   30.3570 C   0  0  0  0  0  0  0  0  0  0  0  0
   36.5090   29.9560   31.4080 C   0  0  0  0  0  0  0  0  0  0  0  0
   35.8770   29.1990   32.3790 C   0  0  0  0  0  0  0  0  0  0  0  0
   35.9570   27.8290   32.2840 N   0  0  0  0  0  0  0  0  0  0  0  0
   37.8230   27.6030   29.4660 H   0  0  0  0  0  0  0  0  0  0  0  0
   37.6990   30.0090   29.6060 H   0  0  0  0  0  0  0  0  0  0  0  0
   36.4640   31.0350   31.4540 H   0  0  0  0  0  0  0  0  0  0  0  0
   33.7860   29.5560   33.6870 C   0  0  0  0  0  3  0  0  0  0  0  0
   35.1330   29.7730   33.4930 C   0  0  0  0  0  0  0  0  0  0  0  0
   35.7460   30.5650   34.4090 C   0  0  0  0  0  0  0  0  0  0  0  0
   36.8180   30.7600   34.2870 H   0  0  0  0  0  0  0  0  0  0  0  0
   35.1160   31.1460   35.4890 C   0  0  0  0  0  0  0  0  0  0  0  0
   35.5670   31.9450   36.4800 N   0  0  0  0  0  0  0  0  0  0  0  0
   36.5750   32.2700   36.5670 H   0  0  0  0  0  0  0  0  0  0  0  0
   34.5370   32.2320   37.2830 C   0  0  0  0  0  0  0  0  0  0  0  0
   34.5940   32.8600   38.1720 H   0  0  0  0  0  0  0  0  0  0  0  0
   33.4140   31.5960   36.7860 C   0  0  0  0  0  3  0  0  0  0  0  0
   33.7670   30.8970   35.6380 C   0  0  0  0  0  0  0  0  0  0  0  0
   33.0770   30.1050   34.7510 C   0  0  0  0  0  3  0  0  0  0  0  0
   35.6970   23.7350   31.4870 C   0  0  0  0  0  0  0  0  0  0  0  0
   36.8230   23.0560   31.0250 C   0  0  0  0  0  0  0  0  0  0  0  0
   37.9040   23.8360   30.6370 C   0  0  0  0  0  0  0  0  0  0  0  0
   37.8060   25.2070   30.7290 N   0  0  0  0  0  0  0  0  0  0  0  0
   36.7070   25.8100   31.1790 C   0  0  0  0  0  0  0  0  0  0  0  0
   35.6470   25.0630   31.5590 N   0  0  0  0  0  0  0  0  0  0  0  0
   34.8760   23.0800   31.7780 H   0  0  0  0  0  0  0  0  0  0  0  0
   36.9740   22.0050   30.9250 H   0  0  0  0  0  0  0  0  0  0  0  0
   38.8290   23.4220   30.2630 H   0  0  0  0  0  0  0  0  0  0  0  0
  1  6  1  0  0  0  0
  2  3  1  0  0  0  0
  2  1  2  0  0  0  0
  3  4  2  0  0  0  0
  4  9  1  0  0  0  0
  4  5  1  0  0  0  0
  5 11  1  0  0  0  0
  6  5  2  0  0  0  0
  7  2  1  0  0  0  0
  8  3  1  0  0  0  0
 10 21  1  0  0  0  0
 11 10  2  0  0  0  0
 11 12  1  0  0  0  0
 12 14  2  0  0  0  0
 13 12  1  0  0  0  0
 14 20  1  0  0  0  0
 14 15  1  0  0  0  0
 15 16  1  0  0  0  0
 15 17  1  0  0  0  0
 17 18  1  0  0  0  0
 19 17  2  0  0  0  0
 20 19  1  0  0  0  0
 21 20  2  0  0  0  0
 22 27  1  0  0  0  0
 22 28  1  0  0  0  0
 23 22  2  0  0  0  0
 24 25  2  0  0  0  0
 24 23  1  0  0  0  0
 25 26  1  0  0  0  0
 26  1  1  0  0  0  0
 26 27  2  0  0  0  0
 29 23  1  0  0  0  0
 30 24  1  0  0  0  0
M  END
>  <minimizedAffinity>
-5.53077269

$$$$

 OpenBabel03272502543D

 30 33  0  0  0  0  0  0  0  0999 V2000
   36.3010   28.4190   33.9840 C   0  0  0  0  0  0  0  0  0  0  0  0
   36.5850   28.4180   32.6300 C   0  0  0  0  0  0  0  0  0  0  0  0
   37.4050   27.4570   32.0750 C   0  0  0  0  0  0  0  0  0  0  0  0
   37.9130   26.5190   32.9400 C   0  0  0  0  0  0  0  0  0  0  0  0
   37.6420   26.5000   34.2970 C   0  0  0  0  0  0  0  0  0  0  0  0
   36.8190   27.4780   34.8070 N   0  0  0  0  0  0  0  0  0  0  0  0
   36.1760   29.1690   31.9430 H   0  0  0  0  0  0  0  0  0  0  0  0
   37.6180   27.4670   31.0220 H   0  0  0  0  0  0  0  0  0  0  0  0
   38.5560   25.7650   32.5100 H   0  0  0  0  0  0  0  0  0  0  0  0
   37.6290   25.2420   36.4490 C   0  0  0  0  0  3  0  0  0  0  0  0
   38.1820   25.5040   35.2150 C   0  0  0  0  0  0  0  0  0  0  0  0
   39.2780   24.7750   34.8870 C   0  0  0  0  0  0  0  0  0  0  0  0
   39.7470   24.9550   33.9130 H   0  0  0  0  0  0  0  0  0  0  0  0
   39.8510   23.8160   35.6960 C   0  0  0  0  0  0  0  0  0  0  0  0
   40.9230   23.0110   35.5290 N   0  0  0  0  0  0  0  0  0  0  0  0
   41.5340   23.0100   34.6590 H   0  0  0  0  0  0  0  0  0  0  0  0
   41.0510   22.2570   36.6270 C   0  0  0  0  0  0  0  0  0  0  0  0
   41.8290   21.5100   36.7840 H   0  0  0  0  0  0  0  0  0  0  0  0
   40.0350   22.5960   37.5010 C   0  0  0  0  0  3  0  0  0  0  0  0
   39.2590   23.5920   36.9210 C   0  0  0  0  0  0  0  0  0  0  0  0
   38.1450   24.2910   37.3240 C   0  0  0  0  0  3  0  0  0  0  0  0
   35.1880   31.4000   35.7880 C   0  0  0  0  0  0  0  0  0  0  0  0
   33.8060   31.4030   35.6120 C   0  0  0  0  0  0  0  0  0  0  0  0
   33.2720   30.3620   34.8640 C   0  0  0  0  0  0  0  0  0  0  0  0
   34.1190   29.4070   34.3480 N   0  0  0  0  0  0  0  0  0  0  0  0
   35.4360   29.4470   34.5450 C   0  0  0  0  0  0  0  0  0  0  0  0
   35.9690   30.4540   35.2710 N   0  0  0  0  0  0  0  0  0  0  0  0
   35.5590   32.2350   36.3820 H   0  0  0  0  0  0  0  0  0  0  0  0
   33.0880   32.1020   35.9780 H   0  0  0  0  0  0  0  0  0  0  0  0
   32.2150   30.2600   34.6610 H   0  0  0  0  0  0  0  0  0  0  0  0
  1 26  1  0  0  0  0
  1  6  1  0  0  0  0
  2  1  2  0  0  0  0
  3  2  1  0  0  0  0
  3  4  2  0  0  0  0
  4  5  1  0  0  0  0
  5  6  2  0  0  0  0
  5 11  1  0  0  0  0
  7  2  1  0  0  0  0
  8  3  1  0  0  0  0
  9  4  1  0  0  0  0
 10 21  1  0  0  0  0
 11 10  2  0  0  0  0
 12 11  1  0  0  0  0
 12 14  2  0  0  0  0
 13 12  1  0  0  0  0
 14 20  1  0  0  0  0
 15 14  1  0  0  0  0
 15 17  1  0  0  0  0
 16 15  1  0  0  0  0
 17 18  1  0  0  0  0
 17 19  2  0  0  0  0
 20 21  2  0  0  0  0
 20 19  1  0  0  0  0
 22 28  1  0  0  0  0
 23 22  1  0  0  0  0
 23 29  1  0  0  0  0
 24 23  2  0  0  0  0
 25 26  2  0  0  0  0
 25 24  1  0  0  0  0
 26 27  1  0  0  0  0
 27 22  2  0  0  0  0
 30 24  1  0  0  0  0
M  END
>  <minimizedAffinity>
-5.47443676

$$$$
