
 OpenBabel03272510193D

 39 43  0  0  0  0  0  0  0  0999 V2000
   32.7740   29.3930   46.8290 C   0  0  0  0  0  0  0  0  0  0  0  0
   31.8150   28.4160   46.7380 C   0  0  0  0  0  0  0  0  0  0  0  0
   30.7620   28.4830   45.8400 C   0  0  0  0  0  0  0  0  0  0  0  0
   30.6560   29.5330   45.0200 N   0  0  0  0  0  0  0  0  0  0  0  0
   31.5840   30.4940   45.0970 C   0  0  0  0  0  0  0  0  0  0  0  0
   32.5930   30.4100   45.9710 N   0  0  0  0  0  0  0  0  0  0  0  0
   31.8900   27.5500   47.4050 H   0  0  0  0  0  0  0  0  0  0  0  0
   30.0250   27.6730   45.8120 H   0  0  0  0  0  0  0  0  0  0  0  0
   32.6740   32.2350   43.6790 C   0  0  0  0  0  0  0  0  0  0  0  0
   31.5460   31.6770   44.2390 C   0  0  0  0  0  0  0  0  0  0  0  0
   30.3560   32.3340   43.9180 C   0  0  0  0  0  0  0  0  0  0  0  0
   29.4550   31.8920   44.3620 H   0  0  0  0  0  0  0  0  0  0  0  0
   30.3130   33.4490   43.1100 C   0  0  0  0  0  0  0  0  0  0  0  0
   29.2300   34.1450   42.7480 N   0  0  0  0  0  0  0  0  0  0  0  0
   28.2260   33.9600   43.0180 H   0  0  0  0  0  0  0  0  0  0  0  0
   29.6780   35.1310   41.9660 C   0  0  0  0  0  0  0  0  0  0  0  0
   29.0500   35.8790   41.5050 H   0  0  0  0  0  0  0  0  0  0  0  0
   31.0690   35.0570   41.8340 C   0  0  0  0  0  0  0  0  0  0  0  0
   31.4710   33.9600   42.5810 C   0  0  0  0  0  0  0  0  0  0  0  0
   32.6750   33.3480   42.8660 C   0  0  0  0  0  0  0  0  0  0  0  0
   37.4470   29.1570   50.7980 Br  0  0  0  0  0  0  0  0  0  0  0  0
   36.0160   29.2680   49.5460 C   0  0  0  0  0  0  0  0  0  0  0  0
   35.9850   30.2790   48.5870 C   0  0  0  0  0  0  0  0  0  0  0  0
   34.9250   30.3000   47.7170 C   0  0  0  0  0  0  0  0  0  0  0  0
   33.8960   29.3660   47.7540 C   0  0  0  0  0  0  0  0  0  0  0  0
   33.9560   28.3910   48.7050 C   0  0  0  0  0  0  0  0  0  0  0  0
   35.0120   28.3560   49.5840 C   0  0  0  0  0  0  0  0  0  0  0  0
   34.8340   31.0660   46.9340 H   0  0  0  0  0  0  0  0  0  0  0  0
   33.1910   27.6270   48.7980 H   0  0  0  0  0  0  0  0  0  0  0  0
   35.0520   27.5860   50.3300 H   0  0  0  0  0  0  0  0  0  0  0  0
   38.0270   33.1830   49.4480 C   0  0  0  0  0  0  0  0  0  0  0  0
   39.0360   33.1860   48.4400 C   0  0  0  0  0  0  0  0  0  0  0  0
   38.9910   32.1870   47.4880 C   0  0  0  0  0  0  0  0  0  0  0  0
   37.9920   31.2550   47.5550 N   0  0  0  0  0  0  0  0  0  0  0  0
   37.0450   31.2710   48.5190 C   0  0  0  0  0  0  0  0  0  0  0  0
   37.0790   32.2440   49.4580 N   0  0  0  0  0  0  0  0  0  0  0  0
   38.1040   33.9830   50.1690 H   0  0  0  0  0  0  0  0  0  0  0  0
   39.8320   33.8980   48.3560 H   0  0  0  0  0  0  0  0  0  0  0  0
   39.6890   32.0730   46.6750 H   0  0  0  0  0  0  0  0  0  0  0  0
  1 25  1  0  0  0  0
  2  1  1  0  0  0  0
  2  7  1  0  0  0  0
  3  2  2  0  0  0  0
  4  5  2  0  0  0  0
  4  3  1  0  0  0  0
  5  6  1  0  0  0  0
  6  1  2  0  0  0  0
  8  3  1  0  0  0  0
  9 10  1  0  0  0  0
 10  5  1  0  0  0  0
 11 10  2  0  0  0  0
 11 12  1  0  0  0  0
 13 11  1  0  0  0  0
 14 15  1  0  0  0  0
 14 13  1  0  0  0  0
 16 14  1  0  0  0  0
 17 16  1  0  0  0  0
 18 16  2  0  0  0  0
 18 19  1  0  0  0  0
 19 20  1  0  0  0  0
 19 13  2  0  0  0  0
 20  9  2  0  0  0  0
 22 27  1  0  0  0  0
 22 21  1  0  0  0  0
 23 22  2  0  0  0  0
 24 25  2  0  0  0  0
 24 23  1  0  0  0  0
 25 26  1  0  0  0  0
 26 29  1  0  0  0  0
 26 27  2  0  0  0  0
 27 30  1  0  0  0  0
 28 24  1  0  0  0  0
 31 36  1  0  0  0  0
 31 37  1  0  0  0  0
 32 31  2  0  0  0  0
 33 34  2  0  0  0  0
 33 32  1  0  0  0  0
 34 35  1  0  0  0  0
 35 23  1  0  0  0  0
 35 36  2  0  0  0  0
 38 32  1  0  0  0  0
 39 33  1  0  0  0  0
M  END
>  <minimizedAffinity>
-7.12376022

>  <minimizedRMSD>
0.756895959

$$$$
