
 OpenBabel03272501523D

 35 38  0  0  1  0  0  0  0  0999 V2000
   36.4870   29.5790   49.0550 N   0  0  0  0  0  0  0  0  0  0  0  0
   36.6780   28.7520   50.2560 C   0  0  0  0  0  0  0  0  0  0  0  0
   37.2710   29.4680   51.4070 C   0  0  0  0  0  0  0  0  0  0  0  0
   38.1090   30.5720   51.1580 N   0  0  0  0  0  0  0  0  0  0  0  0
   37.6930   31.3710   49.9870 C   0  0  0  0  0  0  0  0  0  0  0  0
   37.6220   30.3940   48.8410 C   0  0  2  0  0  0  0  0  0  0  0  0
   35.6800   28.3300   50.4920 H   0  0  0  0  0  0  0  0  0  0  0  0
   37.3290   27.9090   49.9060 H   0  0  0  0  0  0  0  0  0  0  0  0
   36.4360   29.7230   52.1190 H   0  0  0  0  0  0  0  0  0  0  0  0
   37.8700   28.7090   51.9890 H   0  0  0  0  0  0  0  0  0  0  0  0
   38.0640   31.2300   51.9590 H   0  0  0  0  0  0  0  0  0  0  0  0
   38.5600   32.0760   49.8410 H   0  0  0  0  0  0  0  0  0  0  0  0
   36.7530   31.8800   50.2000 H   0  0  0  0  0  0  0  0  0  0  0  0
   38.5640   29.7440   48.9920 H   0  0  0  0  0  0  0  0  0  0  0  0
   38.9170   31.8000   47.4190 C   0  0  0  0  0  0  0  0  0  0  0  0
   37.8040   30.9810   47.5130 C   0  0  0  0  0  0  0  0  0  0  0  0
   36.9880   30.8060   46.3900 C   0  0  0  0  0  0  0  0  0  0  0  0
   36.1460   30.1640   46.5260 H   0  0  0  0  0  0  0  0  0  0  0  0
   37.3240   31.4600   45.2250 C   0  0  0  0  0  0  0  0  0  0  0  0
   36.7110   31.4510   44.0400 N   0  0  0  0  0  0  0  0  0  0  0  0
   35.8420   30.9360   43.7630 H   0  0  0  0  0  0  0  0  0  0  0  0
   37.3890   32.2370   43.1820 C   0  0  0  0  0  0  0  0  0  0  0  0
   37.2020   32.4760   42.1400 H   0  0  0  0  0  0  0  0  0  0  0  0
   38.4880   32.7740   43.8440 C   0  0  0  0  0  0  0  0  0  0  0  0
   38.4130   32.2690   45.1130 C   0  0  0  0  0  0  0  0  0  0  0  0
   39.2110   32.4380   46.2110 C   0  0  0  0  0  0  0  0  0  0  0  0
   35.3010   29.5100   48.2770 C   0  0  0  0  0  0  0  0  0  0  0  0
   34.5120   30.6280   48.0150 C   0  0  0  0  0  0  0  0  0  0  0  0
   33.3690   30.4900   47.2330 C   0  0  0  0  0  0  0  0  0  0  0  0
   33.0750   29.2390   46.7530 N   0  0  0  0  0  0  0  0  0  0  0  0
   33.8800   28.1660   47.0370 C   0  0  0  0  0  0  0  0  0  0  0  0
   34.9840   28.2770   47.7880 N   0  0  0  0  0  0  0  0  0  0  0  0
   34.7250   31.6070   48.4010 H   0  0  0  0  0  0  0  0  0  0  0  0
   32.7370   31.3130   47.0040 H   0  0  0  0  0  0  0  0  0  0  0  0
   33.5220   27.2480   46.5930 H   0  0  0  0  0  0  0  0  0  0  0  0
  1  2  1  0  0  0  0
  2  7  1  0  0  0  0
  2  3  1  0  0  0  0
  3 10  1  0  0  0  0
  3  9  1  0  0  0  0
  4  3  1  0  0  0  0
  4 11  1  0  0  0  0
  5 13  1  0  0  0  0
  5  4  1  0  0  0  0
  6 14  1  1  0  0  0
  6  1  1  0  0  0  0
  6  5  1  0  0  0  0
  8  2  1  0  0  0  0
 12  5  1  0  0  0  0
 15 16  1  0  0  0  0
 16  6  1  0  0  0  0
 17 18  1  0  0  0  0
 17 16  2  0  0  0  0
 19 17  1  0  0  0  0
 20 19  1  0  0  0  0
 21 20  1  0  0  0  0
 22 24  2  0  0  0  0
 22 20  1  0  0  0  0
 23 22  1  0  0  0  0
 24 25  1  0  0  0  0
 25 19  2  0  0  0  0
 25 26  1  0  0  0  0
 26 15  2  0  0  0  0
 27  1  1  0  0  0  0
 28 27  1  0  0  0  0
 28 33  1  0  0  0  0
 29 28  2  0  0  0  0
 30 31  2  0  0  0  0
 30 29  1  0  0  0  0
 31 32  1  0  0  0  0
 32 27  2  0  0  0  0
 34 29  1  0  0  0  0
 35 31  1  0  0  0  0
M  END
>  <minimizedAffinity>
-5.51745939

>  <minimizedRMSD>
1.3549335

$$$$
