REMARK  Name = 
REMARK  3 active torsions:
REMARK  status: ('A' for Active; 'I' for Inactive)
REMARK    1  A    between atoms: C_12  and  C_13
REMARK    2  A    between atoms: C_13  and  C_14
REMARK    3  A    between atoms: C_14  and  C_30
REMARK                            x       y       z     vdW  Elec       q    Type
REMARK                         _______ _______ _______ _____ _____    ______ ____
ROOT
ATOM      1  C   UNL     1      36.837  29.497  51.199  0.00  0.00    +0.000 A 
ATOM      2  C   UNL     1      37.584  30.148  50.222  0.00  0.00    +0.000 A 
ATOM      3  C   UNL     1      37.025  30.625  49.055  0.00  0.00    +0.000 A 
ATOM      4  N   UNL     1      35.698  30.406  48.940  0.00  0.00    +0.000 NA
ATOM      5  C   UNL     1      34.943  29.781  49.861  0.00  0.00    +0.000 A 
ATOM      6  N   UNL     1      35.527  29.329  50.991  0.00  0.00    +0.000 NA
ATOM      7  N   UNL     1      37.787  31.280  48.082  0.00  0.00    +0.000 N 
ATOM      8  C   UNL     1      38.073  30.535  46.886  0.00  0.00    +0.000 C 
ATOM      9  C   UNL     1      38.742  31.309  45.802  0.00  0.00    +0.000 C 
ATOM     10  N   UNL     1      39.122  32.612  46.051  0.00  0.00    +0.000 NA
ATOM     11  C   UNL     1      39.201  33.139  47.326  0.00  0.00    +0.000 C 
ATOM     12  C   UNL     1      38.218  32.629  48.340  0.00  0.00    +0.000 C 
ATOM     13  H   UNL     1      37.256  29.116  52.121  0.00  0.00    +0.000 HD
ATOM     14  H   UNL     1      38.625  30.223  50.489  0.00  0.00    +0.000 HD
ATOM     15  H   UNL     1      33.881  29.641  49.700  0.00  0.00    +0.000 HD
ATOM     16  H   UNL     1      37.116  30.069  46.564  0.00  0.00    +0.000 HD
ATOM     17  H   UNL     1      38.707  29.669  47.233  0.00  0.00    +0.000 HD
ATOM     18  H   UNL     1      38.038  31.319  44.921  0.00  0.00    +0.000 HD
ATOM     19  H   UNL     1      39.612  30.715  45.446  0.00  0.00    +0.000 HD
ATOM     20  H   UNL     1      38.943  33.267  45.280  0.00  0.00    +0.000 HD
ATOM     21  H   UNL     1      40.255  32.914  47.693  0.00  0.00    +0.000 HD
ATOM     22  H   UNL     1      39.123  34.229  47.268  0.00  0.00    +0.000 HD
ATOM     23  H   UNL     1      37.295  33.254  48.359  0.00  0.00    +0.000 HD
ENDROOT
BRANCH  12  24
ATOM     24  C   UNL     1      38.885  32.806  49.675  0.00  0.00    +0.000 C 
ATOM     25  H   UNL     1      38.276  32.596  50.547  0.00  0.00    +0.000 HD
ATOM     26  H   UNL     1      39.770  32.100  49.708  0.00  0.00    +0.000 HD
BRANCH  24  27
ATOM     27  C   UNL     1      39.490  34.208  49.664  0.00  0.00    +0.000 C 
ATOM     28  H   UNL     1      40.273  34.335  48.930  0.00  0.00    +0.000 HD
ATOM     29  H   UNL     1      38.718  34.990  49.658  0.00  0.00    +0.000 HD
BRANCH  27  30
ATOM     30  C   UNL     1      40.164  34.419  51.038  0.00  0.00    +0.000 A 
ATOM     31  C   UNL     1      39.767  35.155  52.101  0.00  0.00    +0.000 A 
ATOM     32  H   UNL     1      38.834  35.687  51.996  0.00  0.00    +0.000 HD
ATOM     33  C   UNL     1      40.566  35.158  53.192  0.00  0.00    +0.000 A 
ATOM     34  C   UNL     1      41.749  34.409  53.163  0.00  0.00    +0.000 A 
ATOM     35  S   UNL     1      41.638  33.675  51.414  0.00  0.00    +0.000 S 
ENDBRANCH  27  30
ENDBRANCH  24  27
ENDBRANCH  12  24
TORSDOF 3
