
     RDKit          3D

 37 40  0  0  0  0  0  0  0  0999 V2000
   38.4201   31.1139   48.2178 C   0  0  2  0  0  0  0  0  0  0  0  0
   38.6786   32.5586   48.1051 C   0  0  0  0  0  0  0  0  0  0  0  0
   38.0555   31.7154   46.9604 C   0  0  1  0  0  0  0  0  0  0  0  0
   35.0914   30.2242   49.5478 C   0  0  0  0  0  0  0  0  0  0  0  0
   35.4170   29.5437   50.7654 C   0  0  0  0  0  0  0  0  0  0  0  0
   36.8179   29.4172   51.0960 C   0  0  0  0  0  0  0  0  0  0  0  0
   37.7486   29.9386   50.2553 N   0  0  0  0  0  0  0  0  0  0  0  0
   37.3625   30.5737   49.1138 C   0  0  0  0  0  0  0  0  0  0  0  0
   36.0435   30.7298   48.7374 N   0  0  0  0  0  0  0  0  0  0  0  0
   38.4089   31.8492   44.5213 C   0  0  0  0  0  0  0  0  0  0  0  0
   37.2968   32.4337   44.4008 O   0  0  0  0  0  0  0  0  0  0  0  0
   38.9452   31.5694   45.8213 N   0  0  0  0  0  0  0  0  0  0  0  0
   39.1832   31.4409   43.3299 C   0  0  0  0  0  0  0  0  0  0  0  0
   40.1518   30.4859   43.4871 C   0  0  0  0  0  0  0  0  0  0  0  0
   40.8695   30.1169   42.3574 C   0  0  0  0  0  0  0  0  0  0  0  0
   40.5770   30.7144   41.1722 C   0  0  0  0  0  0  0  0  0  0  0  0
   39.6004   31.6765   41.0169 C   0  0  0  0  0  0  0  0  0  0  0  0
   38.9381   31.9981   42.1292 N   0  0  0  0  0  0  0  0  0  0  0  0
   39.3591   30.5052   48.3030 H   0  0  0  0  0  0  0  0  0  0  0  0
   37.9865   33.3098   48.5254 H   0  0  0  0  0  0  0  0  0  0  0  0
   39.7048   32.9195   47.9709 H   0  0  0  0  0  0  0  0  0  0  0  0
   36.9875   31.9317   46.7440 H   0  0  0  0  0  0  0  0  0  0  0  0
   34.0277   30.2822   49.3621 H   0  0  0  0  0  0  0  0  0  0  0  0
   34.6515   29.1503   51.3951 H   0  0  0  0  0  0  0  0  0  0  0  0
   37.0750   28.9047   52.0133 H   0  0  0  0  0  0  0  0  0  0  0  0
   39.9178   31.2752   45.9706 H   0  0  0  0  0  0  0  0  0  0  0  0
   40.4003   29.9966   44.4254 H   0  0  0  0  0  0  0  0  0  0  0  0
   41.6360   29.3685   42.4552 H   0  0  0  0  0  0  0  0  0  0  0  0
   41.1875   30.3702   40.3225 H   0  0  0  0  0  0  0  0  0  0  0  0
   39.3319   32.2746   39.7460 C   0  0  0  0  0  0  0  0  0  0  0  0
   38.3197   33.0045   39.2731 C   0  0  0  0  0  0  0  0  0  0  0  0
   37.5097   33.2137   39.9561 H   0  0  0  0  0  0  0  0  0  0  0  0
   38.2975   33.4690   37.9927 C   0  0  0  0  0  0  0  0  0  0  0  0
   39.4713   33.1026   37.1824 C   0  0  0  0  0  0  0  0  0  0  0  0
   40.4957   32.1013   38.4044 S   0  0  0  0  0  0  0  0  0  0  0  0
   37.5061   34.0618   37.5606 H   0  0  0  0  0  0  0  0  0  0  0  0
   39.4802   33.4926   36.0638 H   0  0  0  0  0  0  0  0  0  0  0  0
  1  8  1  0
  2  1  1  0
  3  2  1  0
  3  1  1  0
  4  5  2  0
  5  6  1  0
  7  6  2  0
  8  7  1  0
  9  8  2  0
  9  4  1  0
 10 12  1  0
 11 10  2  0
 12  3  1  0
 13 14  2  0
 13 10  1  0
 15 14  1  0
 16 15  2  0
 17 16  1  0
 17 18  2  0
 18 13  1  0
  1 19  1  6
  2 20  1  0
  2 21  1  0
  3 22  1  6
  4 23  1  0
  5 24  1  0
  6 25  1  0
 12 26  1  0
 14 27  1  0
 15 28  1  0
 16 29  1  0
 30 31  2  0
 31 32  1  0
 31 33  1  0
 33 34  2  0
 34 35  1  0
 35 30  1  0
 33 36  1  0
 34 37  1  0
 17 30  1  0
M  ISO  8  19  13  20  13  21  13  22  13  23  14  24  14  25  14  27  14
M  ISO  3  28  14  29  14  32  15
M  END
>  <DihAtoms>  (1) 
15,16,29,30

>  <DihDeg>  (1) 
179.9979165789331

$$$$
