REMARK  Name = 
REMARK  7 active torsions:
REMARK  status: ('A' for Active; 'I' for Inactive)
REMARK    1  A    between atoms: C_1  and  C_7
REMARK    2  A    between atoms: C_6  and  C_15
REMARK    3  A    between atoms: C_7  and  O_8
REMARK    4  A    between atoms: C_7  and  C_13
REMARK    5  A    between atoms: C_16  and  C_17
REMARK    6  A    between atoms: C_17  and  S_18
REMARK    7  A    between atoms: S_18  and  C_32
REMARK                            x       y       z     vdW  Elec       q    Type
REMARK                         _______ _______ _______ _____ _____    ______ ____
ROOT
ATOM      1  C   UNL     1      37.079  30.947  49.029  0.00  0.00    +0.000 A 
ATOM      2  C   UNL     1      36.814  31.877  50.035  0.00  0.00    +0.000 A 
ATOM      3  C   UNL     1      37.426  33.121  50.064  0.00  0.00    +0.000 A 
ATOM      4  C   UNL     1      38.338  33.462  49.058  0.00  0.00    +0.000 A 
ATOM      5  C   UNL     1      38.588  32.541  48.079  0.00  0.00    +0.000 A 
ATOM      6  C   UNL     1      37.957  31.309  48.087  0.00  0.00    +0.000 A 
ATOM      7  H   UNL     1      36.108  31.622  50.819  0.00  0.00    +0.000 HD
ATOM      8  H   UNL     1      37.169  33.775  50.870  0.00  0.00    +0.000 HD
ATOM      9  H   UNL     1      38.752  34.434  49.168  0.00  0.00    +0.000 HD
ATOM     10  H   UNL     1      39.314  32.950  47.377  0.00  0.00    +0.000 HD
ENDROOT
BRANCH   1  11
ATOM     11  C   UNL     1      36.466  29.637  49.018  0.00  0.00    +0.000 C 
ATOM     12  H   UNL     1      37.008  29.058  48.175  0.00  0.00    +0.000 HD
BRANCH  11  17
ATOM     13  C   UNL     1      33.612  30.149  46.826  0.00  0.00    +0.000 A 
ATOM     14  C   UNL     1      32.954  28.935  46.844  0.00  0.00    +0.000 A 
ATOM     15  C   UNL     1      33.449  27.939  47.664  0.00  0.00    +0.000 A 
ATOM     16  N   UNL     1      34.571  28.184  48.426  0.00  0.00    +0.000 NA
ATOM     17  C   UNL     1      35.156  29.363  48.362  0.00  0.00    +0.000 A 
ATOM     18  N   UNL     1      34.684  30.351  47.568  0.00  0.00    +0.000 NA
ATOM     19  H   UNL     1      33.250  30.959  46.191  0.00  0.00    +0.000 HD
ATOM     20  H   UNL     1      32.087  28.853  46.206  0.00  0.00    +0.000 HD
ATOM     21  H   UNL     1      32.932  26.990  47.679  0.00  0.00    +0.000 HD
ENDBRANCH  11  17
BRANCH  11  22
ATOM     22  O   UNL     1      36.865  28.900  49.993  0.00  0.00    +0.000 OA
ATOM     23  H   UNL     1      36.379  28.792  50.828  0.00  0.00    +0.000 HD
ENDBRANCH  11  22
ENDBRANCH   1  11
BRANCH   6  24
ATOM     24  C   UNL     1      38.343  30.422  47.014  0.00  0.00    +0.000 C 
ATOM     25  C   UNL     1      38.816  30.836  45.835  0.00  0.00    +0.000 C 
BRANCH  25  26
ATOM     26  C   UNL     1      39.285  30.021  44.690  0.00  0.00    +0.000 C 
ATOM     27  H   UNL     1      38.682  29.086  44.605  0.00  0.00    +0.000 HD
ATOM     28  H   UNL     1      40.364  29.758  44.847  0.00  0.00    +0.000 HD
BRANCH  26  29
ATOM     29  S   UNL     1      39.191  30.990  43.182  0.00  0.00    +0.000 S 
BRANCH  29  30
ATOM     30  C   UNL     1      37.493  31.332  42.776  0.00  0.00    +0.000 A 
ATOM     31  C   UNL     1      36.603  31.399  43.882  0.00  0.00    +0.000 A 
ATOM     32  H   UNL     1      36.726  31.286  44.947  0.00  0.00    +0.000 HD
ATOM     33  C   UNL     1      35.274  31.649  43.779  0.00  0.00    +0.000 A 
ATOM     34  C   UNL     1      34.786  31.853  42.436  0.00  0.00    +0.000 A 
ATOM     35  S   UNL     1      36.326  31.668  41.340  0.00  0.00    +0.000 S 
ENDBRANCH  29  30
ENDBRANCH  26  29
ENDBRANCH  25  26
ENDBRANCH   6  24
TORSDOF 7
