
 OpenBabel03272510273D

 42 46  0  0  1  0  0  0  0  0999 V2000
   36.0410   30.2430   46.8790 C   0  0  0  0  0  0  0  0  0  0  0  0
   37.0440   30.5990   47.7480 C   0  0  0  0  0  0  0  0  0  0  0  0
   38.1880   31.2790   47.3010 C   0  0  0  0  0  0  0  0  0  0  0  0
   38.2320   31.5630   45.9340 C   0  0  0  0  0  0  0  0  0  0  0  0
   39.2340   32.2170   45.2570 N   0  0  0  0  0  0  0  0  0  0  0  0
   38.8450   32.2640   43.9730 C   0  0  0  0  0  0  0  0  0  0  0  0
   37.6720   31.6750   43.8450 N   0  0  0  0  0  0  0  0  0  0  0  0
   37.2560   31.2270   45.0400 C   0  0  0  0  0  0  0  0  0  0  0  0
   36.1340   30.5490   45.5320 C   0  0  0  0  0  0  0  0  0  0  0  0
   35.1530   29.7170   47.2180 H   0  0  0  0  0  0  0  0  0  0  0  0
   38.9960   31.5720   47.9610 H   0  0  0  0  0  0  0  0  0  0  0  0
   40.1190   32.5990   45.6670 H   0  0  0  0  0  0  0  0  0  0  0  0
   35.3540   30.2780   44.8280 H   0  0  0  0  0  0  0  0  0  0  0  0
   37.5400   30.1380   51.4540 C   0  0  0  0  0  0  0  0  0  0  0  0
   37.8330   30.5280   50.1480 C   0  0  0  0  0  0  0  0  0  0  0  0
   36.9230   30.2710   49.1570 C   0  0  0  0  0  0  0  0  0  0  0  0
   35.7560   29.6340   49.5270 N   0  0  0  0  0  0  0  0  0  0  0  0
   35.4810   29.2610   50.7930 C   0  0  0  0  0  0  0  0  0  0  0  0
   36.3610   29.5120   51.7350 N   0  0  0  0  0  0  0  0  0  0  0  0
   38.2860   30.3580   52.2110 H   0  0  0  0  0  0  0  0  0  0  0  0
   38.7420   31.0270   49.8420 H   0  0  0  0  0  0  0  0  0  0  0  0
   34.5330   28.7670   50.9730 H   0  0  0  0  0  0  0  0  0  0  0  0
   39.6190   32.8620   42.9780 O   0  0  0  0  0  0  0  0  0  0  0  0
   38.9070   31.0430   41.7510 N   0  0  0  0  0  0  0  0  0  0  0  0
   39.3650   32.4200   41.6540 C   0  0  1  0  0  0  0  0  0  0  0  0
   38.3560   33.2480   41.0150 C   0  0  0  0  0  0  0  0  0  0  0  0
   38.1550   32.7930   39.7010 O   0  0  0  0  0  0  0  0  0  0  0  0
   37.8420   31.4690   39.5880 C   0  0  0  0  0  0  0  0  0  0  0  0
   38.7780   30.5930   40.3740 C   0  0  1  0  0  0  0  0  0  0  0  0
   38.0120   30.8680   42.1730 H   0  0  0  0  0  0  0  0  0  0  0  0
   40.2850   32.3770   41.0470 H   0  0  0  0  0  0  0  0  0  0  0  0
   37.3750   33.4090   41.3730 H   0  0  0  0  0  0  0  0  0  0  0  0
   38.8140   34.2750   40.8640 H   0  0  0  0  0  0  0  0  0  0  0  0
   36.8220   31.2600   39.9650 H   0  0  0  0  0  0  0  0  0  0  0  0
   37.9430   31.2020   38.5170 H   0  0  0  0  0  0  0  0  0  0  0  0
   38.3530   29.5660   40.3210 H   0  0  0  0  0  0  0  0  0  0  0  0
   40.1130   30.6810   39.7500 C   0  0  0  0  0  0  0  0  0  0  0  0
   40.5080   31.2710   38.6270 C   0  0  0  0  0  0  0  0  0  0  0  0
   39.7590   31.7970   38.0190 H   0  0  0  0  0  0  0  0  0  0  0  0
   41.8130   31.2420   38.2070 C   0  0  0  0  0  3  0  0  0  0  0  0
   42.6860   30.5180   39.0990 C   0  0  0  0  0  3  0  0  0  0  0  0
   41.6070   29.9510   40.4290 S   0  0  0  0  0  0  0  0  0  0  0  0
  1 10  1  0  0  0  0
  1  2  1  0  0  0  0
  2 16  1  0  0  0  0
  3  2  2  0  0  0  0
  3 11  1  0  0  0  0
  4  3  1  0  0  0  0
  5 12  1  0  0  0  0
  5  4  1  0  0  0  0
  6  5  1  0  0  0  0
  7  6  2  0  0  0  0
  7  8  1  0  0  0  0
  8  9  1  0  0  0  0
  8  4  2  0  0  0  0
  9  1  2  0  0  0  0
 13  9  1  0  0  0  0
 14 19  1  0  0  0  0
 14 20  1  0  0  0  0
 15 14  2  0  0  0  0
 16 17  2  0  0  0  0
 16 15  1  0  0  0  0
 17 18  1  0  0  0  0
 18 22  1  0  0  0  0
 18 19  2  0  0  0  0
 21 15  1  0  0  0  0
 23  6  1  0  0  0  0
 24 30  1  0  0  0  0
 25 31  1  6  0  0  0
 25 24  1  0  0  0  0
 25 23  1  0  0  0  0
 26 32  1  0  0  0  0
 26 25  1  0  0  0  0
 27 26  1  0  0  0  0
 28 27  1  0  0  0  0
 28 34  1  0  0  0  0
 28 29  1  0  0  0  0
 29 36  1  6  0  0  0
 29 24  1  0  0  0  0
 33 26  1  0  0  0  0
 35 28  1  0  0  0  0
 37 29  1  0  0  0  0
 37 42  1  0  0  0  0
 38 37  2  0  0  0  0
 39 38  1  0  0  0  0
 40 38  1  0  0  0  0
 40 41  2  0  0  0  0
 41 42  1  0  0  0  0
M  END
>  <minimizedAffinity>
-5.54996824

>  <minimizedRMSD>
1.24851668

$$$$
