REMARK  Name = 
REMARK  3 active torsions:
REMARK  status: ('A' for Active; 'I' for Inactive)
REMARK    1  A    between atoms: C_5  and  C_7
REMARK    2  A    between atoms: C_8  and  C_9
REMARK    3  A    between atoms: C_9  and  C_17
REMARK                            x       y       z     vdW  Elec       q    Type
REMARK                         _______ _______ _______ _____ _____    ______ ____
ROOT
ATOM      1  C   UNL     1      34.702  28.381  49.697  0.00  0.00    +0.000 C 
ATOM      2  C   UNL     1      34.469  28.024  48.474  0.00  0.00    +0.000 C 
ENDROOT
BRANCH   1   7
ATOM      3  C   UNL     1      37.355  30.223  51.417  0.00  0.00    +0.000 A 
ATOM      4  C   UNL     1      38.126  30.713  50.353  0.00  0.00    +0.000 A 
ATOM      5  C   UNL     1      37.709  30.395  49.053  0.00  0.00    +0.000 A 
ATOM      6  N   UNL     1      36.578  29.627  48.909  0.00  0.00    +0.000 NA
ATOM      7  C   UNL     1      35.880  29.185  49.964  0.00  0.00    +0.000 A 
ATOM      8  N   UNL     1      36.273  29.485  51.200  0.00  0.00    +0.000 NA
ATOM      9  H   UNL     1      37.749  30.516  52.377  0.00  0.00    +0.000 HD
ATOM     10  H   UNL     1      39.007  31.309  50.371  0.00  0.00    +0.000 HD
ATOM     11  H   UNL     1      38.188  30.692  48.126  0.00  0.00    +0.000 HD
ENDBRANCH   1   7
BRANCH   2  12
ATOM     12  C   UNL     1      33.327  27.204  47.969  0.00  0.00    +0.000 C 
ATOM     13  H   UNL     1      32.700  26.952  48.847  0.00  0.00    +0.000 HD
ATOM     14  H   UNL     1      32.696  27.855  47.325  0.00  0.00    +0.000 HD
BRANCH  12  15
ATOM     15  C   UNL     1      33.805  26.002  47.335  0.00  0.00    +0.000 A 
ATOM     16  C   UNL     1      35.041  25.451  47.087  0.00  0.00    +0.000 A 
ATOM     17  H   UNL     1      35.856  26.058  47.452  0.00  0.00    +0.000 HD
ATOM     18  C   UNL     1      35.171  24.262  46.445  0.00  0.00    +0.000 A 
ATOM     19  C   UNL     1      34.012  23.608  46.041  0.00  0.00    +0.000 A 
ATOM     20  S   UNL     1      32.662  24.806  46.636  0.00  0.00    +0.000 S 
ENDBRANCH  12  15
ENDBRANCH   2  12
TORSDOF 3
