
 OpenBabel03272509463D

 22 23  0  0  0  0  0  0  0  0999 V2000
   34.0670   28.4970   48.6390 C   0  0  0  0  0  0  0  0  0  0  0  0
   33.1240   29.0040   48.9160 H   0  0  0  0  0  0  0  0  0  0  0  0
   34.6280   29.1950   47.9840 H   0  0  0  0  0  0  0  0  0  0  0  0
   33.8200   27.1670   47.9680 C   0  0  0  0  0  0  0  0  0  0  0  0
   32.9520   26.7200   48.5330 H   0  0  0  0  0  0  0  0  0  0  0  0
   34.6510   26.4720   48.0640 H   0  0  0  0  0  0  0  0  0  0  0  0
   33.4470   27.4220   46.5510 C   0  0  0  0  0  0  0  0  0  0  0  0
   33.8400   26.8830   45.3700 C   0  0  0  0  0  0  0  0  0  0  0  0
   34.5940   26.0920   45.4680 H   0  0  0  0  0  0  0  0  0  0  0  0
   33.3210   27.3180   44.2030 C   0  0  0  0  0  3  0  0  0  0  0  0
   32.3850   28.3210   44.2820 C   0  0  0  0  0  3  0  0  0  0  0  0
   32.2610   28.6420   46.1460 S   0  0  0  0  0  0  0  0  0  0  0  0
   34.7490   28.2860   49.8740 O   0  0  0  0  0  0  0  0  0  0  0  0
   37.3860   30.2660   51.3950 C   0  0  0  0  0  0  0  0  0  0  0  0
   38.0680   30.6880   50.2580 C   0  0  0  0  0  0  0  0  0  0  0  0
   37.5950   30.2750   49.0170 C   0  0  0  0  0  0  0  0  0  0  0  0
   36.4790   29.4750   49.0130 N   0  0  0  0  0  0  0  0  0  0  0  0
   35.8450   29.0890   50.1400 C   0  0  0  0  0  0  0  0  0  0  0  0
   36.3160   29.4960   51.3260 N   0  0  0  0  0  0  0  0  0  0  0  0
   37.7730   30.6020   52.3620 H   0  0  0  0  0  0  0  0  0  0  0  0
   38.9470   31.3170   50.2530 H   0  0  0  0  0  0  0  0  0  0  0  0
   38.0730   30.5610   48.0930 H   0  0  0  0  0  0  0  0  0  0  0  0
  1  2  1  0  0  0  0
  1 13  1  0  0  0  0
  3  1  1  0  0  0  0
  4  6  1  0  0  0  0
  4  5  1  0  0  0  0
  4  1  1  0  0  0  0
  7  4  1  0  0  0  0
  8  9  1  0  0  0  0
  8  7  2  0  0  0  0
 10 11  2  0  0  0  0
 10  8  1  0  0  0  0
 11 12  1  0  0  0  0
 12  7  1  0  0  0  0
 13 18  1  0  0  0  0
 14 20  1  0  0  0  0
 15 14  2  0  0  0  0
 16 15  1  0  0  0  0
 17 16  2  0  0  0  0
 17 18  1  0  0  0  0
 18 19  2  0  0  0  0
 19 14  1  0  0  0  0
 21 15  1  0  0  0  0
 22 16  1  0  0  0  0
M  END
>  <minimizedAffinity>
-3.67014599

>  <minimizedRMSD>
0.304357141

$$$$
