
 OpenBabel03272508273D

 35 38  0  0  1  0  0  0  0  0999 V2000
   33.7440   28.8230   47.2450 C   0  0  2  0  0  0  0  0  0  0  0  0
   34.4870   28.0750   48.3390 C   0  0  2  0  0  0  0  0  0  0  0  0
   33.5550   27.8480   49.3170 O   0  0  0  0  0  0  0  0  0  0  0  0
   32.3020   27.8770   48.7960 C   0  0  0  0  0  0  0  0  0  0  0  0
   32.4130   28.0860   47.3160 C   0  0  1  0  0  0  0  0  0  0  0  0
   33.5680   29.8770   47.4700 H   0  0  0  0  0  0  0  0  0  0  0  0
   34.8440   27.1180   47.9140 H   0  0  0  0  0  0  0  0  0  0  0  0
   31.7840   28.7790   49.2320 H   0  0  0  0  0  0  0  0  0  0  0  0
   31.6660   27.0070   49.0570 H   0  0  0  0  0  0  0  0  0  0  0  0
   32.4910   27.1130   46.7570 H   0  0  0  0  0  0  0  0  0  0  0  0
   35.5170   30.3710   48.9190 C   0  0  1  0  0  0  0  0  0  0  0  0
   35.6060   28.9270   48.8340 C   0  0  1  0  0  0  0  0  0  0  0  0
   35.6050   29.5320   50.2010 C   0  0  0  0  0  0  0  0  0  0  0  0
   34.5850   30.9800   48.9500 H   0  0  0  0  0  0  0  0  0  0  0  0
   36.6210   28.5410   48.5110 H   0  0  0  0  0  0  0  0  0  0  0  0
   36.5190   29.5800   50.7910 H   0  0  0  0  0  0  0  0  0  0  0  0
   34.6830   29.3620   50.7950 H   0  0  0  0  0  0  0  0  0  0  0  0
   36.7220   31.2500   48.7220 C   0  0  0  0  0  0  0  0  0  0  0  0
   36.9950   32.2190   49.6890 C   0  0  0  0  0  0  0  0  0  0  0  0
   38.0900   33.0170   49.4600 C   0  0  0  0  0  0  0  0  0  0  0  0
   38.8570   32.8500   48.3340 N   0  0  0  0  0  0  0  0  0  0  0  0
   38.5600   31.8940   47.4150 C   0  0  0  0  0  0  0  0  0  0  0  0
   37.4860   31.0860   47.6040 N   0  0  0  0  0  0  0  0  0  0  0  0
   36.3980   32.3620   50.5740 H   0  0  0  0  0  0  0  0  0  0  0  0
   38.3830   33.8050   50.1670 H   0  0  0  0  0  0  0  0  0  0  0  0
   39.1500   31.7320   46.5090 H   0  0  0  0  0  0  0  0  0  0  0  0
   34.3250   28.6810   45.9970 O   0  0  0  0  0  0  0  0  0  0  0  0
   34.9210   27.8640   46.0030 H   0  0  0  0  0  0  0  0  0  0  0  0
   31.3830   28.8400   46.7860 O   0  0  0  0  0  0  0  0  0  0  0  0
   29.9990   27.9770   46.9700 C   0  0  0  0  0  0  0  0  0  0  0  0
   29.2190   29.2980   47.0160 C   0  0  0  0  0  0  0  0  0  0  0  0
   29.2880   30.4110   46.9780 H   0  0  0  0  0  0  0  0  0  0  0  0
   27.8740   29.2680   47.1680 C   0  0  0  0  0  3  0  0  0  0  0  0
   27.2250   27.9810   47.2820 C   0  0  0  0  0  3  0  0  0  0  0  0
   28.7110   26.7920   47.1520 S   0  0  0  0  0  0  0  0  0  0  0  0
  1  5  1  0  0  0  0
  1  6  1  1  0  0  0
  1  2  1  0  0  0  0
  2  7  1  6  0  0  0
  2 12  1  0  0  0  0
  2  3  1  0  0  0  0
  4  9  1  0  0  0  0
  4  8  1  0  0  0  0
  4  3  1  0  0  0  0
  5 10  1  6  0  0  0
  5  4  1  0  0  0  0
 11 14  1  6  0  0  0
 11 13  1  0  0  0  0
 12 15  1  6  0  0  0
 12 11  1  0  0  0  0
 12 13  1  0  0  0  0
 13 16  1  0  0  0  0
 13 17  1  0  0  0  0
 18 11  1  0  0  0  0
 18 19  1  0  0  0  0
 19 24  1  0  0  0  0
 20 19  2  0  0  0  0
 20 25  1  0  0  0  0
 21 20  1  0  0  0  0
 22 23  1  0  0  0  0
 22 21  2  0  0  0  0
 23 18  2  0  0  0  0
 26 22  1  0  0  0  0
 27 28  1  0  0  0  0
 27  1  1  0  0  0  0
 29 30  1  0  0  0  0
 29  5  1  0  0  0  0
 30 31  2  0  0  0  0
 30 35  1  0  0  0  0
 31 33  1  0  0  0  0
 32 31  1  0  0  0  0
 33 34  2  0  0  0  0
 35 34  1  0  0  0  0
M  END
>  <minimizedAffinity>
-5.33024359

>  <minimizedRMSD>
1.39792418

$$$$
