
 OpenBabel03272501333D

 24 26  0  0  1  0  0  0  0  0999 V2000
   33.8920   28.9440   49.3020 C   0  0  2  0  0  0  0  0  0  0  0  0
   34.5220   27.5610   48.8830 C   0  0  0  0  0  0  0  0  0  0  0  0
   33.1150   27.9840   48.5400 C   0  0  2  0  0  0  0  0  0  0  0  0
   34.0030   28.9710   50.4330 H   0  0  0  0  0  0  0  0  0  0  0  0
   35.2040   27.5530   48.0350 H   0  0  0  0  0  0  0  0  0  0  0  0
   34.6920   26.8210   49.6720 H   0  0  0  0  0  0  0  0  0  0  0  0
   32.3040   27.4790   49.1540 H   0  0  0  0  0  0  0  0  0  0  0  0
   32.7290   28.1740   47.1590 C   0  0  0  0  0  0  0  0  0  0  0  0
   31.6220   28.7390   46.6280 C   0  0  0  0  0  0  0  0  0  0  0  0
   30.8560   29.1610   47.3010 H   0  0  0  0  0  0  0  0  0  0  0  0
   31.4070   28.8250   45.2880 C   0  0  0  0  0  0  0  0  0  0  0  0
   32.4510   28.2680   44.4910 C   0  0  0  0  0  0  0  0  0  0  0  0
   33.6750   27.6580   45.7730 S   0  0  0  0  0  0  0  0  0  0  0  0
   34.6690   30.0460   48.6720 C   0  0  0  0  0  0  0  0  0  0  0  0
   34.1640   30.6080   47.6410 O   0  0  0  0  0  0  0  0  0  0  0  0
   38.1360   31.4140   48.9730 C   0  0  0  0  0  0  0  0  0  0  0  0
   36.8990   31.0750   48.4450 C   0  0  0  0  0  0  0  0  0  0  0  0
   35.9440   30.4270   49.2310 C   0  0  0  0  0  0  0  0  0  0  0  0
   36.2750   30.1570   50.4950 N   0  0  0  0  0  0  0  0  0  0  0  0
   37.4980   30.5000   50.9910 C   0  0  0  0  0  0  0  0  0  0  0  0
   38.4130   31.1130   50.2590 N   0  0  0  0  0  0  0  0  0  0  0  0
   38.8590   31.9140   48.3430 H   0  0  0  0  0  0  0  0  0  0  0  0
   36.6330   31.2960   47.4200 H   0  0  0  0  0  0  0  0  0  0  0  0
   37.6100   30.2090   52.0360 H   0  0  0  0  0  0  0  0  0  0  0  0
  1  4  1  1  0  0  0
  2  1  1  0  0  0  0
  2  6  1  0  0  0  0
  3  2  1  0  0  0  0
  3  7  1  1  0  0  0
  3  1  1  0  0  0  0
  5  2  1  0  0  0  0
  8  3  1  0  0  0  0
  9  8  2  0  0  0  0
  9 10  1  0  0  0  0
 11  9  1  0  0  0  0
 12 11  2  0  0  0  0
 12 13  1  0  0  0  0
 13  8  1  0  0  0  0
 14 18  1  0  0  0  0
 14  1  1  0  0  0  0
 15 14  2  0  0  0  0
 16 21  1  0  0  0  0
 17 16  2  0  0  0  0
 17 18  1  0  0  0  0
 18 19  2  0  0  0  0
 19 20  1  0  0  0  0
 20 24  1  0  0  0  0
 21 20  2  0  0  0  0
 22 16  1  0  0  0  0
 23 17  1  0  0  0  0
M  END
>  <minimizedAffinity>
-4.13534975

>  <minimizedRMSD>
7.36812305

$$$$
