
 OpenBabel03272508273D

 35 38  0  0  1  0  0  0  0  0999 V2000
   33.6250   28.7820   47.1630 C   0  0  2  0  0  0  0  0  0  0  0  0
   34.3560   28.0080   48.2480 C   0  0  2  0  0  0  0  0  0  0  0  0
   33.4250   27.8000   49.2310 O   0  0  0  0  0  0  0  0  0  0  0  0
   32.1700   27.8640   48.7190 C   0  0  0  0  0  0  0  0  0  0  0  0
   32.2760   28.0790   47.2390 C   0  0  1  0  0  0  0  0  0  0  0  0
   33.4770   29.8390   47.3960 H   0  0  0  0  0  0  0  0  0  0  0  0
   34.6860   27.0450   47.8150 H   0  0  0  0  0  0  0  0  0  0  0  0
   31.6780   28.7760   49.1640 H   0  0  0  0  0  0  0  0  0  0  0  0
   31.5140   27.0090   48.9800 H   0  0  0  0  0  0  0  0  0  0  0  0
   32.3260   27.1070   46.6740 H   0  0  0  0  0  0  0  0  0  0  0  0
   35.4110   30.2600   48.9420 C   0  0  1  0  0  0  0  0  0  0  0  0
   35.5000   28.8290   48.7400 C   0  0  1  0  0  0  0  0  0  0  0  0
   35.5790   29.3260   50.1470 C   0  0  0  0  0  0  0  0  0  0  0  0
   34.4810   30.8580   49.0750 H   0  0  0  0  0  0  0  0  0  0  0  0
   36.4950   28.4770   48.3280 H   0  0  0  0  0  0  0  0  0  0  0  0
   36.5260   29.3360   50.6840 H   0  0  0  0  0  0  0  0  0  0  0  0
   34.6950   29.1030   50.7800 H   0  0  0  0  0  0  0  0  0  0  0  0
   36.5990   31.1620   48.7420 C   0  0  0  0  0  0  0  0  0  0  0  0
   36.8920   32.0960   49.7370 C   0  0  0  0  0  0  0  0  0  0  0  0
   37.9700   32.9160   49.5060 C   0  0  0  0  0  0  0  0  0  0  0  0
   38.7030   32.8030   48.3510 N   0  0  0  0  0  0  0  0  0  0  0  0
   38.3870   31.8800   47.4050 C   0  0  0  0  0  0  0  0  0  0  0  0
   37.3290   31.0520   47.5950 N   0  0  0  0  0  0  0  0  0  0  0  0
   36.3220   32.1960   50.6460 H   0  0  0  0  0  0  0  0  0  0  0  0
   38.2770   33.6790   50.2340 H   0  0  0  0  0  0  0  0  0  0  0  0
   38.9500   31.7610   46.4750 H   0  0  0  0  0  0  0  0  0  0  0  0
   34.1930   28.6320   45.9110 O   0  0  0  0  0  0  0  0  0  0  0  0
   34.7690   27.8000   45.9070 H   0  0  0  0  0  0  0  0  0  0  0  0
   31.2620   28.8620   46.7210 O   0  0  0  0  0  0  0  0  0  0  0  0
   29.8660   28.0100   46.8580 C   0  0  0  0  0  0  0  0  0  0  0  0
   29.1100   29.3340   47.0190 C   0  0  0  0  0  0  0  0  0  0  0  0
   29.1980   30.4460   47.0680 H   0  0  0  0  0  0  0  0  0  0  0  0
   27.7680   29.3140   47.1880 C   0  0  0  0  0  3  0  0  0  0  0  0
   27.0970   28.0360   47.2100 C   0  0  0  0  0  3  0  0  0  0  0  0
   28.5600   26.8350   46.9650 S   0  0  0  0  0  0  0  0  0  0  0  0
  1  5  1  0  0  0  0
  1  6  1  1  0  0  0
  1  2  1  0  0  0  0
  2  7  1  6  0  0  0
  2 12  1  0  0  0  0
  2  3  1  0  0  0  0
  4  9  1  0  0  0  0
  4  8  1  0  0  0  0
  4  3  1  0  0  0  0
  5 10  1  6  0  0  0
  5  4  1  0  0  0  0
 11 14  1  6  0  0  0
 11 13  1  0  0  0  0
 12 15  1  6  0  0  0
 12 11  1  0  0  0  0
 12 13  1  0  0  0  0
 13 16  1  0  0  0  0
 13 17  1  0  0  0  0
 18 11  1  0  0  0  0
 18 19  1  0  0  0  0
 19 24  1  0  0  0  0
 20 19  2  0  0  0  0
 20 25  1  0  0  0  0
 21 20  1  0  0  0  0
 22 23  1  0  0  0  0
 22 21  2  0  0  0  0
 23 18  2  0  0  0  0
 26 22  1  0  0  0  0
 27  1  1  0  0  0  0
 28 27  1  0  0  0  0
 29 30  1  0  0  0  0
 29  5  1  0  0  0  0
 30 35  1  0  0  0  0
 30 31  2  0  0  0  0
 31 32  1  0  0  0  0
 31 33  1  0  0  0  0
 33 34  2  0  0  0  0
 35 34  1  0  0  0  0
M  END
>  <minimizedAffinity>
-5.31479979

>  <minimizedRMSD>
2.067909

$$$$
