
 OpenBabel03262521223D

 30 31  0  0  0  0  0  0  0  0999 V2000
   38.0500   26.8990   35.9120 C   0  0  0  0  0  0  0  0  0  0  0  0
   39.0970   27.0550   36.2790 H   0  0  0  0  0  0  0  0  0  0  0  0
   37.4060   27.4010   36.6790 H   0  0  0  0  0  0  0  0  0  0  0  0
   37.8110   27.2890   34.6340 C   0  0  0  0  0  0  0  0  0  0  0  0
   36.9680   26.6640   34.2000 H   0  0  0  0  0  0  0  0  0  0  0  0
   37.3940   28.3140   34.4610 H   0  0  0  0  0  0  0  0  0  0  0  0
   38.9450   27.1370   33.6780 C   0  0  0  0  0  0  0  0  0  0  0  0
   39.5190   26.2310   33.9510 H   0  0  0  0  0  0  0  0  0  0  0  0
   39.6970   27.9750   33.7640 H   0  0  0  0  0  0  0  0  0  0  0  0
   38.4500   27.0360   31.9690 S   0  0  0  0  0  0  0  0  0  0  0  0
   37.1120   25.9960   31.6340 C   0  0  0  0  0  0  0  0  0  0  0  0
   35.8860   26.1760   31.0490 C   0  0  0  0  0  0  0  0  0  0  0  0
   35.6790   27.1820   30.7110 H   0  0  0  0  0  0  0  0  0  0  0  0
   35.0060   25.1610   30.9120 C   0  0  0  0  0  3  0  0  0  0  0  0
   35.4080   23.9010   31.4000 C   0  0  0  0  0  3  0  0  0  0  0  0
   37.1480   24.1820   32.0960 S   0  0  0  0  0  0  0  0  0  0  0  0
   37.6660   25.5960   35.8360 O   0  0  0  0  0  0  0  0  0  0  0  0
   38.4800   24.6360   36.3880 C   0  0  0  0  0  0  0  0  0  0  0  0
   38.0980   24.2910   37.6560 C   0  0  0  0  0  0  0  0  0  0  0  0
   38.8320   23.3190   38.3570 C   0  0  0  0  0  0  0  0  0  0  0  0
   39.9170   22.7620   37.7000 N   0  0  0  0  0  0  0  0  0  0  0  0
   40.2650   23.1300   36.4380 C   0  0  0  0  0  0  0  0  0  0  0  0
   39.5390   24.0600   35.8090 N   0  0  0  0  0  0  0  0  0  0  0  0
   41.9920   21.5000   36.6490 C   0  0  0  0  0  0  0  0  0  0  0  0
   41.6080   21.1360   37.8170 O   0  0  0  0  0  0  0  0  0  0  0  0
   41.3900   22.5020   35.8520 N   0  0  0  0  0  0  0  0  0  0  0  0
   37.2810   24.6760   38.2150 H   0  0  0  0  0  0  0  0  0  0  0  0
   38.5810   23.0090   39.3540 H   0  0  0  0  0  0  0  0  0  0  0  0
   42.8570   20.9210   36.3540 H   0  0  0  0  0  0  0  0  0  0  0  0
   41.7780   22.7240   34.9120 H   0  0  0  0  0  0  0  0  0  0  0  0
  1  2  1  0  0  0  0
  1  3  1  0  0  0  0
  4  1  1  0  0  0  0
  5  4  1  0  0  0  0
  6  4  1  0  0  0  0
  7  9  1  0  0  0  0
  7  8  1  0  0  0  0
  7  4  1  0  0  0  0
 10  7  1  0  0  0  0
 11 10  1  0  0  0  0
 11 16  1  0  0  0  0
 12 11  2  0  0  0  0
 13 12  1  0  0  0  0
 14 12  1  0  0  0  0
 14 15  2  0  0  0  0
 15 16  1  0  0  0  0
 17  1  1  0  0  0  0
 17 18  1  0  0  0  0
 18 19  1  0  0  0  0
 19 27  1  0  0  0  0
 19 20  2  0  0  0  0
 20 28  1  0  0  0  0
 21 20  1  0  0  0  0
 22 21  2  0  0  0  0
 23 18  2  0  0  0  0
 23 22  1  0  0  0  0
 24 25  2  0  0  0  0
 26 22  1  0  0  0  0
 26 24  1  0  0  0  0
 29 24  1  0  0  0  0
 30 26  1  0  0  0  0
M  END
>  <minimizedAffinity>
-4.5580101

$$$$

 OpenBabel03262521223D

 30 31  0  0  0  0  0  0  0  0999 V2000
   35.6070   28.9510   34.1480 C   0  0  0  0  0  0  0  0  0  0  0  0
   35.1640   29.4930   33.2730 H   0  0  0  0  0  0  0  0  0  0  0  0
   34.7310   28.4760   34.6570 H   0  0  0  0  0  0  0  0  0  0  0  0
   36.6210   28.0970   33.8570 C   0  0  0  0  0  0  0  0  0  0  0  0
   36.2530   27.3100   33.1240 H   0  0  0  0  0  0  0  0  0  0  0  0
   37.5000   28.4910   33.2840 H   0  0  0  0  0  0  0  0  0  0  0  0
   37.1860   27.3320   35.0050 C   0  0  0  0  0  0  0  0  0  0  0  0
   36.3920   27.1980   35.7650 H   0  0  0  0  0  0  0  0  0  0  0  0
   37.9940   27.9020   35.5480 H   0  0  0  0  0  0  0  0  0  0  0  0
   37.8580   25.7410   34.5620 S   0  0  0  0  0  0  0  0  0  0  0  0
   38.3230   24.7270   35.8810 C   0  0  0  0  0  0  0  0  0  0  0  0
   37.8060   24.4840   37.1260 C   0  0  0  0  0  0  0  0  0  0  0  0
   36.9070   25.0340   37.3680 H   0  0  0  0  0  0  0  0  0  0  0  0
   38.3880   23.6170   37.9830 C   0  0  0  0  0  3  0  0  0  0  0  0
   39.5580   22.9700   37.5340 C   0  0  0  0  0  3  0  0  0  0  0  0
   39.8430   23.6390   35.7850 S   0  0  0  0  0  0  0  0  0  0  0  0
   36.2290   29.7550   35.0530 O   0  0  0  0  0  0  0  0  0  0  0  0
   35.7140   31.0060   35.2870 C   0  0  0  0  0  0  0  0  0  0  0  0
   35.6430   31.7640   34.1500 C   0  0  0  0  0  0  0  0  0  0  0  0
   35.1360   33.0740   34.2240 C   0  0  0  0  0  0  0  0  0  0  0  0
   34.7340   33.5170   35.4730 N   0  0  0  0  0  0  0  0  0  0  0  0
   34.8200   32.7330   36.5810 C   0  0  0  0  0  0  0  0  0  0  0  0
   35.3080   31.4940   36.4640 N   0  0  0  0  0  0  0  0  0  0  0  0
   33.8390   34.5810   37.7250 C   0  0  0  0  0  0  0  0  0  0  0  0
   33.7220   35.2770   36.6540 O   0  0  0  0  0  0  0  0  0  0  0  0
   34.3820   33.2780   37.8120 N   0  0  0  0  0  0  0  0  0  0  0  0
   35.9330   31.4880   33.1660 H   0  0  0  0  0  0  0  0  0  0  0  0
   35.0570   33.7150   33.3660 H   0  0  0  0  0  0  0  0  0  0  0  0
   33.4570   35.1430   38.5670 H   0  0  0  0  0  0  0  0  0  0  0  0
   34.4320   32.7940   38.7330 H   0  0  0  0  0  0  0  0  0  0  0  0
  1  3  1  0  0  0  0
  1 17  1  0  0  0  0
  2  1  1  0  0  0  0
  4  1  1  0  0  0  0
  4  7  1  0  0  0  0
  5  4  1  0  0  0  0
  6  4  1  0  0  0  0
  7  9  1  0  0  0  0
  7  8  1  0  0  0  0
 10  7  1  0  0  0  0
 10 11  1  0  0  0  0
 11 12  2  0  0  0  0
 12 13  1  0  0  0  0
 12 14  1  0  0  0  0
 15 14  2  0  0  0  0
 16 11  1  0  0  0  0
 16 15  1  0  0  0  0
 17 18  1  0  0  0  0
 18 23  1  0  0  0  0
 19 20  1  0  0  0  0
 19 18  2  0  0  0  0
 20 21  2  0  0  0  0
 21 22  1  0  0  0  0
 22 26  1  0  0  0  0
 23 22  2  0  0  0  0
 24 26  1  0  0  0  0
 24 29  1  0  0  0  0
 25 24  2  0  0  0  0
 26 30  1  0  0  0  0
 27 19  1  0  0  0  0
 28 20  1  0  0  0  0
M  END
>  <minimizedAffinity>
-4.3421874

$$$$

 OpenBabel03262521223D

 30 31  0  0  0  0  0  0  0  0999 V2000
   41.6960   26.1390   34.2350 C   0  0  0  0  0  0  0  0  0  0  0  0
   42.6110   26.7680   34.0850 H   0  0  0  0  0  0  0  0  0  0  0  0
   41.2660   26.0200   33.2090 H   0  0  0  0  0  0  0  0  0  0  0  0
   41.8880   24.9740   34.9050 C   0  0  0  0  0  0  0  0  0  0  0  0
   42.9780   24.8910   35.2140 H   0  0  0  0  0  0  0  0  0  0  0  0
   41.3990   24.8490   35.9050 H   0  0  0  0  0  0  0  0  0  0  0  0
   41.5990   23.7240   34.1450 C   0  0  0  0  0  0  0  0  0  0  0  0
   42.3370   22.9530   34.4390 H   0  0  0  0  0  0  0  0  0  0  0  0
   41.7580   23.8480   33.0350 H   0  0  0  0  0  0  0  0  0  0  0  0
   39.9500   23.0910   34.3830 S   0  0  0  0  0  0  0  0  0  0  0  0
   39.2640   23.3470   35.9480 C   0  0  0  0  0  0  0  0  0  0  0  0
   38.1400   23.9840   36.4050 C   0  0  0  0  0  0  0  0  0  0  0  0
   37.5230   24.4370   35.6400 H   0  0  0  0  0  0  0  0  0  0  0  0
   37.8350   24.0360   37.7190 C   0  0  0  0  0  3  0  0  0  0  0  0
   38.7300   23.4020   38.6040 C   0  0  0  0  0  3  0  0  0  0  0  0
   40.0890   22.6880   37.4930 S   0  0  0  0  0  0  0  0  0  0  0  0
   40.7440   26.7090   35.0230 O   0  0  0  0  0  0  0  0  0  0  0  0
   39.5110   26.9760   34.4780 C   0  0  0  0  0  0  0  0  0  0  0  0
   38.5940   27.3550   35.4200 C   0  0  0  0  0  0  0  0  0  0  0  0
   37.2820   27.6640   35.0210 C   0  0  0  0  0  0  0  0  0  0  0  0
   37.0010   27.5620   33.6680 N   0  0  0  0  0  0  0  0  0  0  0  0
   37.9410   27.1830   32.7610 C   0  0  0  0  0  0  0  0  0  0  0  0
   39.1760   26.8980   33.1860 N   0  0  0  0  0  0  0  0  0  0  0  0
   36.2250   27.5080   31.1380 C   0  0  0  0  0  0  0  0  0  0  0  0
   35.3760   27.9130   32.0090 O   0  0  0  0  0  0  0  0  0  0  0  0
   37.5570   27.1090   31.4010 N   0  0  0  0  0  0  0  0  0  0  0  0
   38.7410   27.4530   36.4680 H   0  0  0  0  0  0  0  0  0  0  0  0
   36.5200   27.9650   35.7140 H   0  0  0  0  0  0  0  0  0  0  0  0
   35.7700   27.5150   30.1570 H   0  0  0  0  0  0  0  0  0  0  0  0
   38.1700   26.7950   30.6210 H   0  0  0  0  0  0  0  0  0  0  0  0
  1  4  1  0  0  0  0
  1 17  1  0  0  0  0
  2  1  1  0  0  0  0
  3  1  1  0  0  0  0
  4  5  1  0  0  0  0
  4  6  1  0  0  0  0
  7 10  1  0  0  0  0
  7  8  1  0  0  0  0
  7  4  1  0  0  0  0
  9  7  1  0  0  0  0
 10 11  1  0  0  0  0
 11 12  2  0  0  0  0
 11 16  1  0  0  0  0
 12 14  1  0  0  0  0
 13 12  1  0  0  0  0
 14 15  2  0  0  0  0
 16 15  1  0  0  0  0
 18 17  1  0  0  0  0
 18 19  1  0  0  0  0
 19 27  1  0  0  0  0
 20 19  2  0  0  0  0
 20 28  1  0  0  0  0
 21 20  1  0  0  0  0
 22 23  1  0  0  0  0
 22 21  2  0  0  0  0
 23 18  2  0  0  0  0
 24 26  1  0  0  0  0
 24 25  2  0  0  0  0
 26 22  1  0  0  0  0
 29 24  1  0  0  0  0
 30 26  1  0  0  0  0
M  END
>  <minimizedAffinity>
-4.30790758

$$$$

 OpenBabel03262521223D

 30 31  0  0  0  0  0  0  0  0999 V2000
   38.0920   24.6710   37.0950 C   0  0  0  0  0  0  0  0  0  0  0  0
   36.9850   24.8340   37.0580 H   0  0  0  0  0  0  0  0  0  0  0  0
   38.4230   25.1940   38.0280 H   0  0  0  0  0  0  0  0  0  0  0  0
   38.4990   23.3790   36.9990 C   0  0  0  0  0  0  0  0  0  0  0  0
   39.4850   23.3340   36.4370 H   0  0  0  0  0  0  0  0  0  0  0  0
   38.7940   22.8440   37.9390 H   0  0  0  0  0  0  0  0  0  0  0  0
   37.5860   22.4550   36.2670 C   0  0  0  0  0  0  0  0  0  0  0  0
   36.5930   22.9360   36.1780 H   0  0  0  0  0  0  0  0  0  0  0  0
   37.3820   21.5050   36.8400 H   0  0  0  0  0  0  0  0  0  0  0  0
   38.1670   21.9890   34.6470 S   0  0  0  0  0  0  0  0  0  0  0  0
   36.9460   21.5330   33.5130 C   0  0  0  0  0  0  0  0  0  0  0  0
   35.8370   20.7310   33.5750 C   0  0  0  0  0  0  0  0  0  0  0  0
   35.6580   20.2650   34.5340 H   0  0  0  0  0  0  0  0  0  0  0  0
   35.0330   20.5430   32.5070 C   0  0  0  0  0  3  0  0  0  0  0  0
   35.3890   21.2120   31.3180 C   0  0  0  0  0  3  0  0  0  0  0  0
   36.9660   22.1690   31.7520 S   0  0  0  0  0  0  0  0  0  0  0  0
   38.7770   25.2110   36.0500 O   0  0  0  0  0  0  0  0  0  0  0  0
   38.0840   25.9360   35.1120 C   0  0  0  0  0  0  0  0  0  0  0  0
   37.7670   27.1920   35.5510 C   0  0  0  0  0  0  0  0  0  0  0  0
   37.0560   28.0610   34.7040 C   0  0  0  0  0  0  0  0  0  0  0  0
   36.7170   27.5730   33.4520 N   0  0  0  0  0  0  0  0  0  0  0  0
   37.0520   26.3170   33.0510 C   0  0  0  0  0  0  0  0  0  0  0  0
   37.7280   25.5250   33.8900 N   0  0  0  0  0  0  0  0  0  0  0  0
   36.0080   26.9090   30.9910 C   0  0  0  0  0  0  0  0  0  0  0  0
   35.7530   28.1040   31.3770 O   0  0  0  0  0  0  0  0  0  0  0  0
   36.6610   25.9120   31.7530 N   0  0  0  0  0  0  0  0  0  0  0  0
   37.9940   27.6280   36.4930 H   0  0  0  0  0  0  0  0  0  0  0  0
   36.7780   29.0560   34.9940 H   0  0  0  0  0  0  0  0  0  0  0  0
   35.6470   26.7690   29.9810 H   0  0  0  0  0  0  0  0  0  0  0  0
   36.8230   24.9670   31.3460 H   0  0  0  0  0  0  0  0  0  0  0  0
  1  3  1  0  0  0  0
  2  1  1  0  0  0  0
  4  1  1  0  0  0  0
  4  6  1  0  0  0  0
  5  4  1  0  0  0  0
  7  9  1  0  0  0  0
  7  4  1  0  0  0  0
  8  7  1  0  0  0  0
 10  7  1  0  0  0  0
 11 12  2  0  0  0  0
 11 10  1  0  0  0  0
 12 13  1  0  0  0  0
 14 12  1  0  0  0  0
 15 16  1  0  0  0  0
 15 14  2  0  0  0  0
 16 11  1  0  0  0  0
 17  1  1  0  0  0  0
 18 19  1  0  0  0  0
 18 17  1  0  0  0  0
 19 27  1  0  0  0  0
 20 28  1  0  0  0  0
 20 19  2  0  0  0  0
 21 20  1  0  0  0  0
 22 21  2  0  0  0  0
 22 23  1  0  0  0  0
 23 18  2  0  0  0  0
 24 25  2  0  0  0  0
 24 26  1  0  0  0  0
 26 22  1  0  0  0  0
 29 24  1  0  0  0  0
 30 26  1  0  0  0  0
M  END
>  <minimizedAffinity>
-4.30322361

$$$$

 OpenBabel03262521223D

 30 31  0  0  0  0  0  0  0  0999 V2000
   36.9860   26.6420   34.1130 C   0  0  0  0  0  0  0  0  0  0  0  0
   36.1670   25.9150   33.8820 H   0  0  0  0  0  0  0  0  0  0  0  0
   37.7850   26.4140   33.3630 H   0  0  0  0  0  0  0  0  0  0  0  0
   36.6160   27.9470   34.1620 C   0  0  0  0  0  0  0  0  0  0  0  0
   35.6300   28.0400   34.7190 H   0  0  0  0  0  0  0  0  0  0  0  0
   37.2410   28.6540   34.7670 H   0  0  0  0  0  0  0  0  0  0  0  0
   36.3900   28.6160   32.8490 C   0  0  0  0  0  0  0  0  0  0  0  0
   36.0590   27.8550   32.1170 H   0  0  0  0  0  0  0  0  0  0  0  0
   37.3420   29.0290   32.4050 H   0  0  0  0  0  0  0  0  0  0  0  0
   35.2030   29.9450   32.9020 S   0  0  0  0  0  0  0  0  0  0  0  0
   34.9750   30.6890   34.4450 C   0  0  0  0  0  0  0  0  0  0  0  0
   35.7860   31.3910   35.2960 C   0  0  0  0  0  0  0  0  0  0  0  0
   36.8030   31.5290   34.9540 H   0  0  0  0  0  0  0  0  0  0  0  0
   35.3370   31.8720   36.4740 C   0  0  0  0  0  3  0  0  0  0  0  0
   33.9880   31.6170   36.7920 C   0  0  0  0  0  3  0  0  0  0  0  0
   33.3200   30.6310   35.3180 S   0  0  0  0  0  0  0  0  0  0  0  0
   37.5290   26.5050   35.3530 O   0  0  0  0  0  0  0  0  0  0  0  0
   38.5350   25.5870   35.5350 C   0  0  0  0  0  0  0  0  0  0  0  0
   39.6450   25.8710   34.7880 C   0  0  0  0  0  0  0  0  0  0  0  0
   40.7640   25.0240   34.8630 C   0  0  0  0  0  0  0  0  0  0  0  0
   40.6630   23.9320   35.7110 N   0  0  0  0  0  0  0  0  0  0  0  0
   39.5420   23.6820   36.4390 C   0  0  0  0  0  0  0  0  0  0  0  0
   38.5010   24.5150   36.3350 N   0  0  0  0  0  0  0  0  0  0  0  0
   40.7530   21.8170   37.3000 C   0  0  0  0  0  0  0  0  0  0  0  0
   41.8140   22.1080   36.6410 O   0  0  0  0  0  0  0  0  0  0  0  0
   39.5380   22.5420   37.2760 N   0  0  0  0  0  0  0  0  0  0  0  0
   39.7880   26.6870   34.1220 H   0  0  0  0  0  0  0  0  0  0  0  0
   41.6620   25.1950   34.3000 H   0  0  0  0  0  0  0  0  0  0  0  0
   40.9220   20.9240   37.8850 H   0  0  0  0  0  0  0  0  0  0  0  0
   38.7300   22.2230   37.8510 H   0  0  0  0  0  0  0  0  0  0  0  0
  1  4  1  0  0  0  0
  1 17  1  0  0  0  0
  2  1  1  0  0  0  0
  3  1  1  0  0  0  0
  4  5  1  0  0  0  0
  4  6  1  0  0  0  0
  7 10  1  0  0  0  0
  7  4  1  0  0  0  0
  8  7  1  0  0  0  0
  9  7  1  0  0  0  0
 10 11  1  0  0  0  0
 11 12  2  0  0  0  0
 11 16  1  0  0  0  0
 12 14  1  0  0  0  0
 13 12  1  0  0  0  0
 14 15  2  0  0  0  0
 16 15  1  0  0  0  0
 17 18  1  0  0  0  0
 18 23  1  0  0  0  0
 19 20  1  0  0  0  0
 19 18  2  0  0  0  0
 20 21  2  0  0  0  0
 21 22  1  0  0  0  0
 22 26  1  0  0  0  0
 23 22  2  0  0  0  0
 24 29  1  0  0  0  0
 25 24  2  0  0  0  0
 26 24  1  0  0  0  0
 26 30  1  0  0  0  0
 27 19  1  0  0  0  0
 28 20  1  0  0  0  0
M  END
>  <minimizedAffinity>
-4.29663181

$$$$

 OpenBabel03262521223D

 30 31  0  0  0  0  0  0  0  0999 V2000
   36.8390   27.2980   33.2850 C   0  0  0  0  0  0  0  0  0  0  0  0
   36.4330   27.8450   34.1750 H   0  0  0  0  0  0  0  0  0  0  0  0
   36.2590   26.3400   33.2560 H   0  0  0  0  0  0  0  0  0  0  0  0
   36.8380   27.9930   32.1190 C   0  0  0  0  0  0  0  0  0  0  0  0
   36.0220   28.7830   32.1500 H   0  0  0  0  0  0  0  0  0  0  0  0
   37.7210   28.6430   31.8880 H   0  0  0  0  0  0  0  0  0  0  0  0
   36.5720   27.2030   30.8830 C   0  0  0  0  0  0  0  0  0  0  0  0
   37.5340   26.8160   30.4970 H   0  0  0  0  0  0  0  0  0  0  0  0
   36.1730   27.8390   30.0410 H   0  0  0  0  0  0  0  0  0  0  0  0
   35.4360   25.8480   31.1150 S   0  0  0  0  0  0  0  0  0  0  0  0
   36.1350   24.2680   31.0930 C   0  0  0  0  0  0  0  0  0  0  0  0
   35.6500   23.0060   31.3150 C   0  0  0  0  0  0  0  0  0  0  0  0
   34.5980   22.9530   31.5610 H   0  0  0  0  0  0  0  0  0  0  0  0
   36.4400   21.9140   31.2310 C   0  0  0  0  0  3  0  0  0  0  0  0
   37.7930   22.1330   30.9030 C   0  0  0  0  0  3  0  0  0  0  0  0
   37.9480   24.0100   30.7010 S   0  0  0  0  0  0  0  0  0  0  0  0
   38.1600   26.9840   33.3710 O   0  0  0  0  0  0  0  0  0  0  0  0
   38.5530   26.0290   34.2770 C   0  0  0  0  0  0  0  0  0  0  0  0
   39.6770   25.3590   33.8770 C   0  0  0  0  0  0  0  0  0  0  0  0
   40.2070   24.3480   34.6970 C   0  0  0  0  0  0  0  0  0  0  0  0
   39.5390   24.0930   35.8840 N   0  0  0  0  0  0  0  0  0  0  0  0
   38.4240   24.7820   36.2480 C   0  0  0  0  0  0  0  0  0  0  0  0
   37.9540   25.7350   35.4360 N   0  0  0  0  0  0  0  0  0  0  0  0
   38.4900   23.4570   38.2290 C   0  0  0  0  0  0  0  0  0  0  0  0
   39.5720   22.8620   37.8840 O   0  0  0  0  0  0  0  0  0  0  0  0
   37.8130   24.4480   37.4800 N   0  0  0  0  0  0  0  0  0  0  0  0
   40.2360   25.5030   32.9850 H   0  0  0  0  0  0  0  0  0  0  0  0
   41.0850   23.7880   34.4360 H   0  0  0  0  0  0  0  0  0  0  0  0
   38.1630   23.0860   39.1910 H   0  0  0  0  0  0  0  0  0  0  0  0
   36.9380   24.8730   37.8500 H   0  0  0  0  0  0  0  0  0  0  0  0
  1 17  1  0  0  0  0
  1  2  1  0  0  0  0
  3  1  1  0  0  0  0
  4  5  1  0  0  0  0
  4  1  1  0  0  0  0
  6  4  1  0  0  0  0
  7 10  1  0  0  0  0
  7  4  1  0  0  0  0
  8  7  1  0  0  0  0
  9  7  1  0  0  0  0
 11 10  1  0  0  0  0
 11 12  2  0  0  0  0
 12 13  1  0  0  0  0
 14 12  1  0  0  0  0
 15 14  2  0  0  0  0
 16 15  1  0  0  0  0
 16 11  1  0  0  0  0
 17 18  1  0  0  0  0
 18 23  1  0  0  0  0
 19 18  2  0  0  0  0
 19 20  1  0  0  0  0
 20 21  2  0  0  0  0
 21 22  1  0  0  0  0
 22 26  1  0  0  0  0
 23 22  2  0  0  0  0
 24 29  1  0  0  0  0
 25 24  2  0  0  0  0
 26 30  1  0  0  0  0
 26 24  1  0  0  0  0
 27 19  1  0  0  0  0
 28 20  1  0  0  0  0
M  END
>  <minimizedAffinity>
-4.20773602

$$$$

 OpenBabel03262521223D

 30 31  0  0  0  0  0  0  0  0999 V2000
   37.6990   27.9060   32.1840 C   0  0  0  0  0  0  0  0  0  0  0  0
   38.4610   27.1650   31.8340 H   0  0  0  0  0  0  0  0  0  0  0  0
   38.3020   28.7580   32.5920 H   0  0  0  0  0  0  0  0  0  0  0  0
   36.7650   28.2660   31.2680 C   0  0  0  0  0  0  0  0  0  0  0  0
   37.1050   29.2070   30.7290 H   0  0  0  0  0  0  0  0  0  0  0  0
   36.5990   27.5940   30.3860 H   0  0  0  0  0  0  0  0  0  0  0  0
   35.4100   28.5880   31.8010 C   0  0  0  0  0  0  0  0  0  0  0  0
   35.2870   28.0840   32.7800 H   0  0  0  0  0  0  0  0  0  0  0  0
   34.5820   28.1600   31.1650 H   0  0  0  0  0  0  0  0  0  0  0  0
   35.0950   30.3320   31.9870 S   0  0  0  0  0  0  0  0  0  0  0  0
   35.5340   31.0180   33.5110 C   0  0  0  0  0  0  0  0  0  0  0  0
   35.6340   30.5270   34.7850 C   0  0  0  0  0  0  0  0  0  0  0  0
   35.3900   29.4790   34.8960 H   0  0  0  0  0  0  0  0  0  0  0  0
   36.0100   31.3060   35.8220 C   0  0  0  0  0  3  0  0  0  0  0  0
   36.2970   32.6550   35.5310 C   0  0  0  0  0  3  0  0  0  0  0  0
   36.0130   32.8220   33.6650 S   0  0  0  0  0  0  0  0  0  0  0  0
   36.8900   27.4550   33.1810 O   0  0  0  0  0  0  0  0  0  0  0  0
   37.4320   26.6620   34.1630 C   0  0  0  0  0  0  0  0  0  0  0  0
   37.7800   27.3740   35.2780 C   0  0  0  0  0  0  0  0  0  0  0  0
   38.3500   26.7040   36.3750 C   0  0  0  0  0  0  0  0  0  0  0  0
   38.5230   25.3350   36.2480 N   0  0  0  0  0  0  0  0  0  0  0  0
   38.1630   24.6620   35.1230 C   0  0  0  0  0  0  0  0  0  0  0  0
   37.6250   25.3400   34.1040 N   0  0  0  0  0  0  0  0  0  0  0  0
   38.9010   22.7160   36.2870 C   0  0  0  0  0  0  0  0  0  0  0  0
   39.1820   23.3700   37.3530 O   0  0  0  0  0  0  0  0  0  0  0  0
   38.3800   23.2640   35.0910 N   0  0  0  0  0  0  0  0  0  0  0  0
   37.6760   28.4190   35.4410 H   0  0  0  0  0  0  0  0  0  0  0  0
   38.6440   27.2090   37.2750 H   0  0  0  0  0  0  0  0  0  0  0  0
   39.1230   21.6680   36.4340 H   0  0  0  0  0  0  0  0  0  0  0  0
   38.1840   22.6450   34.2770 H   0  0  0  0  0  0  0  0  0  0  0  0
  1  3  1  0  0  0  0
  1 17  1  0  0  0  0
  2  1  1  0  0  0  0
  4  7  1  0  0  0  0
  4  1  1  0  0  0  0
  5  4  1  0  0  0  0
  6  4  1  0  0  0  0
  7 10  1  0  0  0  0
  7  8  1  0  0  0  0
  9  7  1  0  0  0  0
 10 11  1  0  0  0  0
 11 16  1  0  0  0  0
 11 12  2  0  0  0  0
 12 13  1  0  0  0  0
 12 14  1  0  0  0  0
 15 14  2  0  0  0  0
 16 15  1  0  0  0  0
 17 18  1  0  0  0  0
 18 19  1  0  0  0  0
 19 27  1  0  0  0  0
 19 20  2  0  0  0  0
 20 28  1  0  0  0  0
 21 20  1  0  0  0  0
 22 21  2  0  0  0  0
 23 18  2  0  0  0  0
 23 22  1  0  0  0  0
 24 29  1  0  0  0  0
 24 25  2  0  0  0  0
 26 22  1  0  0  0  0
 26 24  1  0  0  0  0
 30 26  1  0  0  0  0
M  END
>  <minimizedAffinity>
-4.18603897

$$$$

 OpenBabel03262521223D

 30 31  0  0  0  0  0  0  0  0999 V2000
   37.8910   27.4180   35.2680 C   0  0  0  0  0  0  0  0  0  0  0  0
   38.8740   27.5650   34.7520 H   0  0  0  0  0  0  0  0  0  0  0  0
   37.9750   28.0200   36.2090 H   0  0  0  0  0  0  0  0  0  0  0  0
   36.7900   27.6880   34.5220 C   0  0  0  0  0  0  0  0  0  0  0  0
   35.9850   26.9180   34.7440 H   0  0  0  0  0  0  0  0  0  0  0  0
   36.2170   28.6270   34.7410 H   0  0  0  0  0  0  0  0  0  0  0  0
   36.9730   27.6510   33.0430 C   0  0  0  0  0  0  0  0  0  0  0  0
   36.9120   26.5980   32.7060 H   0  0  0  0  0  0  0  0  0  0  0  0
   38.0050   27.9820   32.7270 H   0  0  0  0  0  0  0  0  0  0  0  0
   35.7940   28.6350   32.1370 S   0  0  0  0  0  0  0  0  0  0  0  0
   36.4290   29.5290   30.8020 C   0  0  0  0  0  0  0  0  0  0  0  0
   36.4130   30.8510   30.4450 C   0  0  0  0  0  0  0  0  0  0  0  0
   35.8950   31.5080   31.1300 H   0  0  0  0  0  0  0  0  0  0  0  0
   37.0040   31.2910   29.3130 C   0  0  0  0  0  3  0  0  0  0  0  0
   37.6420   30.3230   28.5120 C   0  0  0  0  0  3  0  0  0  0  0  0
   37.3830   28.6850   29.4300 S   0  0  0  0  0  0  0  0  0  0  0  0
   37.6270   26.1310   35.6210 O   0  0  0  0  0  0  0  0  0  0  0  0
   38.6740   25.2490   35.7350 C   0  0  0  0  0  0  0  0  0  0  0  0
   39.7170   25.5660   34.9090 C   0  0  0  0  0  0  0  0  0  0  0  0
   40.8680   24.7590   34.9090 C   0  0  0  0  0  0  0  0  0  0  0  0
   40.8670   23.6710   35.7680 N   0  0  0  0  0  0  0  0  0  0  0  0
   39.8100   23.3890   36.5760 C   0  0  0  0  0  0  0  0  0  0  0  0
   38.7360   24.1850   36.5420 N   0  0  0  0  0  0  0  0  0  0  0  0
   41.1440   21.5740   37.3580 C   0  0  0  0  0  0  0  0  0  0  0  0
   42.1440   21.8960   36.6240 O   0  0  0  0  0  0  0  0  0  0  0  0
   39.9050   22.2560   37.4180 N   0  0  0  0  0  0  0  0  0  0  0  0
   39.7840   26.3800   34.2300 H   0  0  0  0  0  0  0  0  0  0  0  0
   41.7170   24.9560   34.2820 H   0  0  0  0  0  0  0  0  0  0  0  0
   41.3850   20.6920   37.9360 H   0  0  0  0  0  0  0  0  0  0  0  0
   39.1520   21.9140   38.0500 H   0  0  0  0  0  0  0  0  0  0  0  0
  1 17  1  0  0  0  0
  1  3  1  0  0  0  0
  2  1  1  0  0  0  0
  4  6  1  0  0  0  0
  4  5  1  0  0  0  0
  4  1  1  0  0  0  0
  7  4  1  0  0  0  0
  8  7  1  0  0  0  0
  9  7  1  0  0  0  0
 10  7  1  0  0  0  0
 11 10  1  0  0  0  0
 12 11  2  0  0  0  0
 12 13  1  0  0  0  0
 14 12  1  0  0  0  0
 15 14  2  0  0  0  0
 15 16  1  0  0  0  0
 16 11  1  0  0  0  0
 17 18  1  0  0  0  0
 18 23  1  0  0  0  0
 19 20  1  0  0  0  0
 19 18  2  0  0  0  0
 20 21  2  0  0  0  0
 21 22  1  0  0  0  0
 22 26  1  0  0  0  0
 23 22  2  0  0  0  0
 24 26  1  0  0  0  0
 24 29  1  0  0  0  0
 25 24  2  0  0  0  0
 26 30  1  0  0  0  0
 27 19  1  0  0  0  0
 28 20  1  0  0  0  0
M  END
>  <minimizedAffinity>
-4.18360472

$$$$

 OpenBabel03262521223D

 30 31  0  0  0  0  0  0  0  0999 V2000
   38.0780   26.2610   33.7710 C   0  0  0  0  0  0  0  0  0  0  0  0
   38.8940   25.6180   33.3520 H   0  0  0  0  0  0  0  0  0  0  0  0
   38.5440   27.2730   33.8780 H   0  0  0  0  0  0  0  0  0  0  0  0
   36.9080   26.2490   33.0820 C   0  0  0  0  0  0  0  0  0  0  0  0
   36.1670   25.5660   33.6060 H   0  0  0  0  0  0  0  0  0  0  0  0
   36.3030   27.1910   33.0460 H   0  0  0  0  0  0  0  0  0  0  0  0
   36.9780   25.7500   31.6790 C   0  0  0  0  0  0  0  0  0  0  0  0
   37.9660   25.2750   31.5210 H   0  0  0  0  0  0  0  0  0  0  0  0
   36.9490   26.5850   30.9210 H   0  0  0  0  0  0  0  0  0  0  0  0
   35.6890   24.5950   31.2510 S   0  0  0  0  0  0  0  0  0  0  0  0
   36.0200   22.9350   31.5970 C   0  0  0  0  0  0  0  0  0  0  0  0
   35.5210   21.7460   31.1350 C   0  0  0  0  0  0  0  0  0  0  0  0
   34.7450   21.8300   30.3870 H   0  0  0  0  0  0  0  0  0  0  0  0
   35.9730   20.5580   31.5910 C   0  0  0  0  0  3  0  0  0  0  0  0
   36.9880   20.5980   32.5690 C   0  0  0  0  0  3  0  0  0  0  0  0
   37.3170   22.4420   32.8540 S   0  0  0  0  0  0  0  0  0  0  0  0
   37.6310   25.8770   34.9980 O   0  0  0  0  0  0  0  0  0  0  0  0
   38.3350   24.9180   35.6860 C   0  0  0  0  0  0  0  0  0  0  0  0
   37.6620   24.4630   36.7860 C   0  0  0  0  0  0  0  0  0  0  0  0
   38.2510   23.4770   37.5970 C   0  0  0  0  0  0  0  0  0  0  0  0
   39.5030   23.0220   37.2160 N   0  0  0  0  0  0  0  0  0  0  0  0
   40.1410   23.4990   36.1140 C   0  0  0  0  0  0  0  0  0  0  0  0
   39.5430   24.4370   35.3720 N   0  0  0  0  0  0  0  0  0  0  0  0
   41.8570   21.9410   36.6730 C   0  0  0  0  0  0  0  0  0  0  0  0
   41.2090   21.4750   37.6760 O   0  0  0  0  0  0  0  0  0  0  0  0
   41.4170   22.9700   35.8070 N   0  0  0  0  0  0  0  0  0  0  0  0
   36.7050   24.7670   37.1340 H   0  0  0  0  0  0  0  0  0  0  0  0
   37.7720   23.0830   38.4730 H   0  0  0  0  0  0  0  0  0  0  0  0
   42.8040   21.4280   36.5820 H   0  0  0  0  0  0  0  0  0  0  0  0
   42.0200   23.2790   35.0170 H   0  0  0  0  0  0  0  0  0  0  0  0
  1  3  1  0  0  0  0
  1 17  1  0  0  0  0
  2  1  1  0  0  0  0
  4  5  1  0  0  0  0
  4  1  1  0  0  0  0
  6  4  1  0  0  0  0
  7  4  1  0  0  0  0
  8  7  1  0  0  0  0
  9  7  1  0  0  0  0
 10 11  1  0  0  0  0
 10  7  1  0  0  0  0
 11 16  1  0  0  0  0
 12 14  1  0  0  0  0
 12 11  2  0  0  0  0
 13 12  1  0  0  0  0
 14 15  2  0  0  0  0
 15 16  1  0  0  0  0
 17 18  1  0  0  0  0
 18 19  1  0  0  0  0
 19 27  1  0  0  0  0
 19 20  2  0  0  0  0
 20 28  1  0  0  0  0
 21 20  1  0  0  0  0
 22 21  2  0  0  0  0
 23 18  2  0  0  0  0
 23 22  1  0  0  0  0
 24 25  2  0  0  0  0
 26 22  1  0  0  0  0
 26 24  1  0  0  0  0
 29 24  1  0  0  0  0
 30 26  1  0  0  0  0
M  END
>  <minimizedAffinity>
-4.16637039

$$$$
