
 OpenBabel03272508293D

 35 38  0  0  1  0  0  0  0  0999 V2000
   35.2540   25.4580   31.1220 C   0  0  2  0  0  0  0  0  0  0  0  0
   36.4080   26.4460   31.1570 C   0  0  2  0  0  0  0  0  0  0  0  0
   37.2830   25.9440   32.0840 O   0  0  0  0  0  0  0  0  0  0  0  0
   37.1040   24.6070   32.2340 C   0  0  0  0  0  0  0  0  0  0  0  0
   36.0450   24.1640   31.2700 C   0  0  1  0  0  0  0  0  0  0  0  0
   34.5720   25.5440   31.9710 H   0  0  0  0  0  0  0  0  0  0  0  0
   36.8730   26.4600   30.1520 H   0  0  0  0  0  0  0  0  0  0  0  0
   36.7100   24.4420   33.2770 H   0  0  0  0  0  0  0  0  0  0  0  0
   38.0290   24.0000   32.1600 H   0  0  0  0  0  0  0  0  0  0  0  0
   36.4760   23.8710   30.2730 H   0  0  0  0  0  0  0  0  0  0  0  0
   36.1560   28.3740   32.8550 C   0  0  1  0  0  0  0  0  0  0  0  0
   35.8880   27.7840   31.5590 C   0  0  1  0  0  0  0  0  0  0  0  0
   36.7540   29.0010   31.5890 C   0  0  0  0  0  0  0  0  0  0  0  0
   36.9830   28.1060   33.5510 H   0  0  0  0  0  0  0  0  0  0  0  0
   34.8450   27.9800   31.1640 H   0  0  0  0  0  0  0  0  0  0  0  0
   36.3740   29.9660   31.2580 H   0  0  0  0  0  0  0  0  0  0  0  0
   37.8260   28.8270   31.3600 H   0  0  0  0  0  0  0  0  0  0  0  0
   35.1620   29.2790   33.5310 C   0  0  0  0  0  0  0  0  0  0  0  0
   35.6060   30.0680   34.5930 C   0  0  0  0  0  0  0  0  0  0  0  0
   34.6630   30.8630   35.1990 C   0  0  0  0  0  0  0  0  0  0  0  0
   33.3600   30.8610   34.7650 N   0  0  0  0  0  0  0  0  0  0  0  0
   32.9660   30.0790   33.7260 C   0  0  0  0  0  0  0  0  0  0  0  0
   33.8670   29.2790   33.1020 N   0  0  0  0  0  0  0  0  0  0  0  0
   36.6240   30.0750   34.9450 H   0  0  0  0  0  0  0  0  0  0  0  0
   34.9210   31.5190   36.0420 H   0  0  0  0  0  0  0  0  0  0  0  0
   31.9380   30.0550   33.3540 H   0  0  0  0  0  0  0  0  0  0  0  0
   34.5550   25.4780   29.9290 O   0  0  0  0  0  0  0  0  0  0  0  0
   35.1340   25.9000   29.2150 H   0  0  0  0  0  0  0  0  0  0  0  0
   35.2560   23.1350   31.7510 O   0  0  0  0  0  0  0  0  0  0  0  0
   35.9750   21.7240   31.3200 C   0  0  0  0  0  0  0  0  0  0  0  0
   34.8940   20.9700   32.1040 C   0  0  0  0  0  0  0  0  0  0  0  0
   33.9810   21.0640   32.7380 H   0  0  0  0  0  0  0  0  0  0  0  0
   34.9270   19.6170   32.1430 C   0  0  0  0  0  3  0  0  0  0  0  0
   35.9890   18.9350   31.4390 C   0  0  0  0  0  3  0  0  0  0  0  0
   36.9590   20.4040   30.7000 S   0  0  0  0  0  0  0  0  0  0  0  0
  1  2  1  0  0  0  0
  1  5  1  0  0  0  0
  1  6  1  1  0  0  0
  2  7  1  6  0  0  0
  2 12  1  0  0  0  0
  2  3  1  0  0  0  0
  3  4  1  0  0  0  0
  4  8  1  0  0  0  0
  5 10  1  6  0  0  0
  5 29  1  0  0  0  0
  5  4  1  0  0  0  0
  9  4  1  0  0  0  0
 11 18  1  0  0  0  0
 11 14  1  1  0  0  0
 12 15  1  6  0  0  0
 12 13  1  0  0  0  0
 12 11  1  0  0  0  0
 13 11  1  0  0  0  0
 16 13  1  0  0  0  0
 17 13  1  0  0  0  0
 18 19  1  0  0  0  0
 19 24  1  0  0  0  0
 19 20  2  0  0  0  0
 20 25  1  0  0  0  0
 21 20  1  0  0  0  0
 22 21  2  0  0  0  0
 23 18  2  0  0  0  0
 23 22  1  0  0  0  0
 26 22  1  0  0  0  0
 27  1  1  0  0  0  0
 28 27  1  0  0  0  0
 30 29  1  0  0  0  0
 30 31  2  0  0  0  0
 31 33  1  0  0  0  0
 31 32  1  0  0  0  0
 34 33  2  0  0  0  0
 35 30  1  0  0  0  0
 35 34  1  0  0  0  0
M  END
>  <minimizedAffinity>
-5.30934525

$$$$

 OpenBabel03272508293D

 35 38  0  0  1  0  0  0  0  0999 V2000
   36.0710   26.7840   31.2670 C   0  0  2  0  0  0  0  0  0  0  0  0
   36.6490   27.6660   32.3620 C   0  0  2  0  0  0  0  0  0  0  0  0
   36.9750   26.8090   33.3800 O   0  0  0  0  0  0  0  0  0  0  0  0
   37.1610   25.5520   32.9030 C   0  0  0  0  0  0  0  0  0  0  0  0
   37.0000   25.5860   31.4130 C   0  0  1  0  0  0  0  0  0  0  0  0
   35.0480   26.4520   31.4600 H   0  0  0  0  0  0  0  0  0  0  0  0
   37.5570   28.1540   31.9600 H   0  0  0  0  0  0  0  0  0  0  0  0
   36.3330   24.9140   33.3240 H   0  0  0  0  0  0  0  0  0  0  0  0
   38.1070   25.0670   33.2190 H   0  0  0  0  0  0  0  0  0  0  0  0
   37.9720   25.7980   30.8880 H   0  0  0  0  0  0  0  0  0  0  0  0
   35.8470   29.6410   33.8180 C   0  0  1  0  0  0  0  0  0  0  0  0
   35.6140   28.6530   32.7840 C   0  0  1  0  0  0  0  0  0  0  0  0
   35.6580   30.0860   32.3610 C   0  0  0  0  0  0  0  0  0  0  0  0
   36.8340   30.0060   34.1820 H   0  0  0  0  0  0  0  0  0  0  0  0
   34.5700   28.2130   32.7860 H   0  0  0  0  0  0  0  0  0  0  0  0
   34.7470   30.6180   32.0940 H   0  0  0  0  0  0  0  0  0  0  0  0
   36.5510   30.3790   31.7710 H   0  0  0  0  0  0  0  0  0  0  0  0
   34.7380   30.1220   34.7140 C   0  0  0  0  0  0  0  0  0  0  0  0
   34.9940   31.2070   35.5550 C   0  0  0  0  0  0  0  0  0  0  0  0
   33.9630   31.6000   36.3750 C   0  0  0  0  0  0  0  0  0  0  0  0
   32.7580   30.9450   36.3500 N   0  0  0  0  0  0  0  0  0  0  0  0
   32.5460   29.8920   35.5160 C   0  0  0  0  0  0  0  0  0  0  0  0
   33.5380   29.4730   34.6910 N   0  0  0  0  0  0  0  0  0  0  0  0
   35.9370   31.7260   35.5860 H   0  0  0  0  0  0  0  0  0  0  0  0
   34.0730   32.4450   37.0680 H   0  0  0  0  0  0  0  0  0  0  0  0
   31.5980   29.3490   35.4690 H   0  0  0  0  0  0  0  0  0  0  0  0
   36.1740   27.3420   30.0060 O   0  0  0  0  0  0  0  0  0  0  0  0
   36.8880   28.0590   30.0200 H   0  0  0  0  0  0  0  0  0  0  0  0
   36.4370   24.4360   30.8920 O   0  0  0  0  0  0  0  0  0  0  0  0
   36.8550   23.1940   31.8810 C   0  0  0  0  0  0  0  0  0  0  0  0
   35.4750   22.5720   31.6310 C   0  0  0  0  0  0  0  0  0  0  0  0
   34.4960   22.6810   31.1080 H   0  0  0  0  0  0  0  0  0  0  0  0
   35.1600   21.3990   32.2300 C   0  0  0  0  0  3  0  0  0  0  0  0
   36.1450   20.7780   33.0870 C   0  0  0  0  0  3  0  0  0  0  0  0
   37.5870   22.0230   32.9700 S   0  0  0  0  0  0  0  0  0  0  0  0
  1  5  1  0  0  0  0
  1  6  1  1  0  0  0
  1  2  1  0  0  0  0
  2  7  1  6  0  0  0
  2 12  1  0  0  0  0
  2  3  1  0  0  0  0
  4  9  1  0  0  0  0
  4  8  1  0  0  0  0
  4  3  1  0  0  0  0
  5 10  1  6  0  0  0
  5  4  1  0  0  0  0
 11 14  1  1  0  0  0
 11 18  1  0  0  0  0
 12 15  1  1  0  0  0
 12 11  1  0  0  0  0
 13 12  1  0  0  0  0
 13 11  1  0  0  0  0
 16 13  1  0  0  0  0
 17 13  1  0  0  0  0
 18 19  1  0  0  0  0
 19 24  1  0  0  0  0
 19 20  2  0  0  0  0
 20 25  1  0  0  0  0
 21 20  1  0  0  0  0
 22 21  2  0  0  0  0
 23 18  2  0  0  0  0
 23 22  1  0  0  0  0
 26 22  1  0  0  0  0
 27 28  1  0  0  0  0
 27  1  1  0  0  0  0
 29  5  1  0  0  0  0
 29 30  1  0  0  0  0
 30 35  1  0  0  0  0
 31 30  2  0  0  0  0
 31 33  1  0  0  0  0
 32 31  1  0  0  0  0
 33 34  2  0  0  0  0
 35 34  1  0  0  0  0
M  END
>  <minimizedAffinity>
-5.14929008

$$$$

 OpenBabel03272508293D

 35 38  0  0  1  0  0  0  0  0999 V2000
   36.0680   25.0300   31.2930 C   0  0  2  0  0  0  0  0  0  0  0  0
   37.4550   25.6050   31.0600 C   0  0  2  0  0  0  0  0  0  0  0  0
   38.3170   24.7110   31.6380 O   0  0  0  0  0  0  0  0  0  0  0  0
   37.7430   23.4840   31.7260 C   0  0  0  0  0  0  0  0  0  0  0  0
   36.3860   23.5530   31.0920 C   0  0  1  0  0  0  0  0  0  0  0  0
   35.6970   25.1670   32.3110 H   0  0  0  0  0  0  0  0  0  0  0  0
   37.6230   25.6540   29.9670 H   0  0  0  0  0  0  0  0  0  0  0  0
   37.5990   23.2650   32.8220 H   0  0  0  0  0  0  0  0  0  0  0  0
   38.3570   22.6500   31.3290 H   0  0  0  0  0  0  0  0  0  0  0  0
   36.4220   23.3230   29.9910 H   0  0  0  0  0  0  0  0  0  0  0  0
   36.7240   27.3200   32.8450 C   0  0  1  0  0  0  0  0  0  0  0  0
   37.5380   26.9450   31.7070 C   0  0  1  0  0  0  0  0  0  0  0  0
   38.2420   27.1610   33.0080 C   0  0  0  0  0  0  0  0  0  0  0  0
   36.2100   26.6310   33.5530 H   0  0  0  0  0  0  0  0  0  0  0  0
   37.7050   27.7790   30.9590 H   0  0  0  0  0  0  0  0  0  0  0  0
   38.8420   28.0540   33.1780 H   0  0  0  0  0  0  0  0  0  0  0  0
   38.6350   26.2440   33.4930 H   0  0  0  0  0  0  0  0  0  0  0  0
   36.2680   28.7390   33.0570 C   0  0  0  0  0  0  0  0  0  0  0  0
   35.8060   29.0990   34.3240 C   0  0  0  0  0  0  0  0  0  0  0  0
   35.3760   30.3970   34.4700 C   0  0  0  0  0  0  0  0  0  0  0  0
   35.4090   31.2700   33.4110 N   0  0  0  0  0  0  0  0  0  0  0  0
   35.8680   30.8820   32.1920 C   0  0  0  0  0  0  0  0  0  0  0  0
   36.3000   29.6090   32.0070 N   0  0  0  0  0  0  0  0  0  0  0  0
   35.7710   28.4220   35.1600 H   0  0  0  0  0  0  0  0  0  0  0  0
   34.9980   30.7710   35.4310 H   0  0  0  0  0  0  0  0  0  0  0  0
   35.9100   31.5510   31.3290 H   0  0  0  0  0  0  0  0  0  0  0  0
   35.1350   25.4670   30.3700 O   0  0  0  0  0  0  0  0  0  0  0  0
   35.6180   25.8130   29.5520 H   0  0  0  0  0  0  0  0  0  0  0  0
   35.4490   22.7410   31.7020 O   0  0  0  0  0  0  0  0  0  0  0  0
   35.8340   21.1880   31.3340 C   0  0  0  0  0  0  0  0  0  0  0  0
   35.3370   20.7680   32.7230 C   0  0  0  0  0  0  0  0  0  0  0  0
   34.9000   21.1160   33.6890 H   0  0  0  0  0  0  0  0  0  0  0  0
   35.3890   19.4630   33.0790 C   0  0  0  0  0  3  0  0  0  0  0  0
   35.9170   18.5120   32.1270 C   0  0  0  0  0  3  0  0  0  0  0  0
   36.3410   19.6480   30.6520 S   0  0  0  0  0  0  0  0  0  0  0  0
  1  6  1  1  0  0  0
  2  7  1  6  0  0  0
  2  1  1  0  0  0  0
  2  3  1  0  0  0  0
  2 12  1  0  0  0  0
  3  4  1  0  0  0  0
  4  8  1  0  0  0  0
  5 10  1  6  0  0  0
  5  1  1  0  0  0  0
  5 29  1  0  0  0  0
  5  4  1  0  0  0  0
  9  4  1  0  0  0  0
 11 13  1  0  0  0  0
 11 18  1  0  0  0  0
 11 14  1  1  0  0  0
 12 15  1  6  0  0  0
 12 11  1  0  0  0  0
 12 13  1  0  0  0  0
 13 16  1  0  0  0  0
 13 17  1  0  0  0  0
 18 19  1  0  0  0  0
 19 20  2  0  0  0  0
 19 24  1  0  0  0  0
 20 25  1  0  0  0  0
 21 20  1  0  0  0  0
 22 21  2  0  0  0  0
 23 22  1  0  0  0  0
 23 18  2  0  0  0  0
 26 22  1  0  0  0  0
 27  1  1  0  0  0  0
 28 27  1  0  0  0  0
 30 29  1  0  0  0  0
 30 31  2  0  0  0  0
 31 33  1  0  0  0  0
 31 32  1  0  0  0  0
 34 33  2  0  0  0  0
 35 30  1  0  0  0  0
 35 34  1  0  0  0  0
M  END
>  <minimizedAffinity>
-5.06009007

$$$$

 OpenBabel03272508293D

 35 38  0  0  1  0  0  0  0  0999 V2000
   38.6710   24.3420   36.7380 C   0  0  2  0  0  0  0  0  0  0  0  0
   37.8490   24.3860   35.4600 C   0  0  2  0  0  0  0  0  0  0  0  0
   38.3510   23.3820   34.6750 O   0  0  0  0  0  0  0  0  0  0  0  0
   38.9690   22.4440   35.4370 C   0  0  0  0  0  0  0  0  0  0  0  0
   38.8130   22.8320   36.8770 C   0  0  1  0  0  0  0  0  0  0  0  0
   39.6690   24.7750   36.6370 H   0  0  0  0  0  0  0  0  0  0  0  0
   36.7950   24.1790   35.7280 H   0  0  0  0  0  0  0  0  0  0  0  0
   40.0670   22.4880   35.1870 H   0  0  0  0  0  0  0  0  0  0  0  0
   38.6540   21.3990   35.2400 H   0  0  0  0  0  0  0  0  0  0  0  0
   37.8750   22.4060   37.3300 H   0  0  0  0  0  0  0  0  0  0  0  0
   37.0620   26.7970   34.9790 C   0  0  1  0  0  0  0  0  0  0  0  0
   38.0190   25.7220   34.8200 C   0  0  1  0  0  0  0  0  0  0  0  0
   38.4640   26.9240   35.5890 C   0  0  0  0  0  0  0  0  0  0  0  0
   36.3040   26.9010   35.7900 H   0  0  0  0  0  0  0  0  0  0  0  0
   38.4750   25.6520   33.7860 H   0  0  0  0  0  0  0  0  0  0  0  0
   39.1570   27.6410   35.1530 H   0  0  0  0  0  0  0  0  0  0  0  0
   38.5890   26.7700   36.6810 H   0  0  0  0  0  0  0  0  0  0  0  0
   36.8150   27.8030   33.8880 C   0  0  0  0  0  0  0  0  0  0  0  0
   35.9420   28.8600   34.1510 C   0  0  0  0  0  0  0  0  0  0  0  0
   35.7260   29.7430   33.1200 C   0  0  0  0  0  0  0  0  0  0  0  0
   36.3470   29.5730   31.9080 N   0  0  0  0  0  0  0  0  0  0  0  0
   37.1920   28.5310   31.6900 C   0  0  0  0  0  0  0  0  0  0  0  0
   37.4310   27.6370   32.6820 N   0  0  0  0  0  0  0  0  0  0  0  0
   35.4460   29.0010   35.0970 H   0  0  0  0  0  0  0  0  0  0  0  0
   35.0560   30.6060   33.2360 H   0  0  0  0  0  0  0  0  0  0  0  0
   37.7040   28.3670   30.7380 H   0  0  0  0  0  0  0  0  0  0  0  0
   38.0130   24.8820   37.8280 O   0  0  0  0  0  0  0  0  0  0  0  0
   37.0190   24.8980   37.6380 H   0  0  0  0  0  0  0  0  0  0  0  0
   39.8990   22.4910   37.6610 O   0  0  0  0  0  0  0  0  0  0  0  0
   41.2500   22.7420   36.7630 C   0  0  0  0  0  0  0  0  0  0  0  0
   41.7760   21.3780   37.2300 C   0  0  0  0  0  0  0  0  0  0  0  0
   41.5720   20.4770   37.8550 H   0  0  0  0  0  0  0  0  0  0  0  0
   42.9820   20.9480   36.7910 C   0  0  0  0  0  3  0  0  0  0  0  0
   43.7300   21.8000   35.8940 C   0  0  0  0  0  3  0  0  0  0  0  0
   42.5540   23.2940   35.7200 S   0  0  0  0  0  0  0  0  0  0  0  0
  1  6  1  6  0  0  0
  1  5  1  0  0  0  0
  1 27  1  0  0  0  0
  2  7  1  1  0  0  0
  2  1  1  0  0  0  0
  3  4  1  0  0  0  0
  3  2  1  0  0  0  0
  4  5  1  0  0  0  0
  5 10  1  1  0  0  0
  5 29  1  0  0  0  0
  8  4  1  0  0  0  0
  9  4  1  0  0  0  0
 11 13  1  0  0  0  0
 11 14  1  1  0  0  0
 12 15  1  6  0  0  0
 12 11  1  0  0  0  0
 12  2  1  0  0  0  0
 12 13  1  0  0  0  0
 13 17  1  0  0  0  0
 16 13  1  0  0  0  0
 18 19  1  0  0  0  0
 18 11  1  0  0  0  0
 19 24  1  0  0  0  0
 20 25  1  0  0  0  0
 20 19  2  0  0  0  0
 21 20  1  0  0  0  0
 22 21  2  0  0  0  0
 22 23  1  0  0  0  0
 23 18  2  0  0  0  0
 26 22  1  0  0  0  0
 28 27  1  0  0  0  0
 30 31  2  0  0  0  0
 30 29  1  0  0  0  0
 31 32  1  0  0  0  0
 33 31  1  0  0  0  0
 34 33  2  0  0  0  0
 35 34  1  0  0  0  0
 35 30  1  0  0  0  0
M  END
>  <minimizedAffinity>
-5.01033688

$$$$

 OpenBabel03272508293D

 35 38  0  0  1  0  0  0  0  0999 V2000
   37.3900   26.6050   32.9500 C   0  0  2  0  0  0  0  0  0  0  0  0
   38.7710   27.1380   33.2940 C   0  0  2  0  0  0  0  0  0  0  0  0
   39.5780   26.7370   32.2630 O   0  0  0  0  0  0  0  0  0  0  0  0
   38.8440   26.5040   31.1450 C   0  0  0  0  0  0  0  0  0  0  0  0
   37.4140   26.8380   31.4450 C   0  0  1  0  0  0  0  0  0  0  0  0
   37.2710   25.5340   33.1310 H   0  0  0  0  0  0  0  0  0  0  0  0
   38.7080   28.2420   33.3310 H   0  0  0  0  0  0  0  0  0  0  0  0
   38.9020   25.3980   30.9370 H   0  0  0  0  0  0  0  0  0  0  0  0
   39.2160   27.0040   30.2280 H   0  0  0  0  0  0  0  0  0  0  0  0
   37.1780   27.9170   31.2280 H   0  0  0  0  0  0  0  0  0  0  0  0
   39.4870   25.1400   34.7640 C   0  0  1  0  0  0  0  0  0  0  0  0
   39.2060   26.5510   34.5940 C   0  0  1  0  0  0  0  0  0  0  0  0
   40.6250   26.1640   34.8590 C   0  0  0  0  0  0  0  0  0  0  0  0
   39.7270   24.4060   33.9610 H   0  0  0  0  0  0  0  0  0  0  0  0
   38.6950   27.0350   35.4810 H   0  0  0  0  0  0  0  0  0  0  0  0
   41.0810   26.3450   35.8310 H   0  0  0  0  0  0  0  0  0  0  0  0
   41.3170   26.2780   34.0000 H   0  0  0  0  0  0  0  0  0  0  0  0
   39.2340   24.4360   36.0700 C   0  0  0  0  0  0  0  0  0  0  0  0
   38.1710   24.8750   36.8600 C   0  0  0  0  0  0  0  0  0  0  0  0
   37.9880   24.2210   38.0550 C   0  0  0  0  0  0  0  0  0  0  0  0
   38.8220   23.1970   38.4290 N   0  0  0  0  0  0  0  0  0  0  0  0
   39.8480   22.7970   37.6320 C   0  0  0  0  0  0  0  0  0  0  0  0
   40.0620   23.4170   36.4440 N   0  0  0  0  0  0  0  0  0  0  0  0
   37.5120   25.6790   36.5780 H   0  0  0  0  0  0  0  0  0  0  0  0
   37.1750   24.4960   38.7410 H   0  0  0  0  0  0  0  0  0  0  0  0
   40.5290   21.9850   37.8980 H   0  0  0  0  0  0  0  0  0  0  0  0
   36.3660   27.3180   33.5470 O   0  0  0  0  0  0  0  0  0  0  0  0
   36.7140   28.2270   33.8210 H   0  0  0  0  0  0  0  0  0  0  0  0
   36.5080   26.0270   30.7870 O   0  0  0  0  0  0  0  0  0  0  0  0
   37.0970   24.4960   30.8340 C   0  0  0  0  0  0  0  0  0  0  0  0
   35.6940   24.0000   31.2030 C   0  0  0  0  0  0  0  0  0  0  0  0
   34.6370   24.2930   31.4080 H   0  0  0  0  0  0  0  0  0  0  0  0
   35.4900   22.6760   31.3990 C   0  0  0  0  0  3  0  0  0  0  0  0
   36.6130   21.7790   31.2540 C   0  0  0  0  0  3  0  0  0  0  0  0
   38.0140   22.9950   30.8030 S   0  0  0  0  0  0  0  0  0  0  0  0
  1  6  1  1  0  0  0
  1  2  1  0  0  0  0
  1 27  1  0  0  0  0
  2  7  1  1  0  0  0
  2 12  1  0  0  0  0
  3  2  1  0  0  0  0
  4  5  1  0  0  0  0
  4  3  1  0  0  0  0
  5 10  1  6  0  0  0
  5  1  1  0  0  0  0
  8  4  1  0  0  0  0
  9  4  1  0  0  0  0
 11 14  1  6  0  0  0
 11 13  1  0  0  0  0
 11 18  1  0  0  0  0
 12 11  1  0  0  0  0
 12 13  1  0  0  0  0
 12 15  1  1  0  0  0
 13 16  1  0  0  0  0
 17 13  1  0  0  0  0
 18 23  2  0  0  0  0
 18 19  1  0  0  0  0
 19 20  2  0  0  0  0
 20 21  1  0  0  0  0
 20 25  1  0  0  0  0
 22 26  1  0  0  0  0
 22 21  2  0  0  0  0
 23 22  1  0  0  0  0
 24 19  1  0  0  0  0
 27 28  1  0  0  0  0
 29 30  1  0  0  0  0
 29  5  1  0  0  0  0
 30 31  2  0  0  0  0
 31 33  1  0  0  0  0
 31 32  1  0  0  0  0
 34 33  2  0  0  0  0
 35 30  1  0  0  0  0
 35 34  1  0  0  0  0
M  END
>  <minimizedAffinity>
-4.98058319

$$$$

 OpenBabel03272508293D

 35 38  0  0  1  0  0  0  0  0999 V2000
   35.9230   27.4450   31.7620 C   0  0  2  0  0  0  0  0  0  0  0  0
   36.6710   28.0330   32.9470 C   0  0  2  0  0  0  0  0  0  0  0  0
   37.0110   26.9600   33.7270 O   0  0  0  0  0  0  0  0  0  0  0  0
   37.0440   25.8230   32.9850 C   0  0  0  0  0  0  0  0  0  0  0  0
   36.7540   26.1850   31.5590 C   0  0  1  0  0  0  0  0  0  0  0  0
   34.8970   27.1490   31.9890 H   0  0  0  0  0  0  0  0  0  0  0  0
   37.5790   28.5350   32.5610 H   0  0  0  0  0  0  0  0  0  0  0  0
   36.2040   25.1670   33.3500 H   0  0  0  0  0  0  0  0  0  0  0  0
   37.9690   25.2210   33.0930 H   0  0  0  0  0  0  0  0  0  0  0  0
   37.6910   26.4390   30.9890 H   0  0  0  0  0  0  0  0  0  0  0  0
   35.5900   30.3550   33.2720 C   0  0  1  0  0  0  0  0  0  0  0  0
   35.7680   28.9740   33.6710 C   0  0  1  0  0  0  0  0  0  0  0  0
   34.4280   29.3630   33.1370 C   0  0  0  0  0  0  0  0  0  0  0  0
   35.8090   30.7940   32.2720 H   0  0  0  0  0  0  0  0  0  0  0  0
   35.7790   28.8100   34.7920 H   0  0  0  0  0  0  0  0  0  0  0  0
   33.5720   29.4720   33.8010 H   0  0  0  0  0  0  0  0  0  0  0  0
   34.1810   28.9600   32.1330 H   0  0  0  0  0  0  0  0  0  0  0  0
   35.3080   31.4380   34.2790 C   0  0  0  0  0  0  0  0  0  0  0  0
   35.6750   31.2140   35.6070 C   0  0  0  0  0  0  0  0  0  0  0  0
   35.3790   32.2170   36.4990 C   0  0  0  0  0  0  0  0  0  0  0  0
   34.7560   33.3670   36.0800 N   0  0  0  0  0  0  0  0  0  0  0  0
   34.4150   33.5480   34.7770 C   0  0  0  0  0  0  0  0  0  0  0  0
   34.6890   32.5810   33.8660 N   0  0  0  0  0  0  0  0  0  0  0  0
   36.1610   30.3150   35.9470 H   0  0  0  0  0  0  0  0  0  0  0  0
   35.6320   32.1300   37.5640 H   0  0  0  0  0  0  0  0  0  0  0  0
   33.9190   34.4510   34.4100 H   0  0  0  0  0  0  0  0  0  0  0  0
   35.9620   28.2520   30.6390 O   0  0  0  0  0  0  0  0  0  0  0  0
   36.7340   28.9000   30.7250 H   0  0  0  0  0  0  0  0  0  0  0  0
   36.0490   25.2120   30.8760 O   0  0  0  0  0  0  0  0  0  0  0  0
   36.9350   23.8320   30.9330 C   0  0  0  0  0  0  0  0  0  0  0  0
   35.6370   23.0430   31.1440 C   0  0  0  0  0  0  0  0  0  0  0  0
   34.5280   23.1060   31.2520 H   0  0  0  0  0  0  0  0  0  0  0  0
   35.6930   21.6980   31.2780 C   0  0  0  0  0  3  0  0  0  0  0  0
   36.9870   21.0550   31.2170 C   0  0  0  0  0  3  0  0  0  0  0  0
   38.1410   22.5520   30.9470 S   0  0  0  0  0  0  0  0  0  0  0  0
  1  6  1  1  0  0  0
  1  2  1  0  0  0  0
  2  7  1  6  0  0  0
  2 12  1  0  0  0  0
  2  3  1  0  0  0  0
  4  9  1  0  0  0  0
  4  8  1  0  0  0  0
  4  3  1  0  0  0  0
  5 10  1  6  0  0  0
  5  1  1  0  0  0  0
  5  4  1  0  0  0  0
 11 14  1  6  0  0  0
 11 12  1  0  0  0  0
 11 18  1  0  0  0  0
 12 15  1  1  0  0  0
 13 11  1  0  0  0  0
 13 12  1  0  0  0  0
 13 16  1  0  0  0  0
 17 13  1  0  0  0  0
 18 19  1  0  0  0  0
 19 24  1  0  0  0  0
 19 20  2  0  0  0  0
 20 25  1  0  0  0  0
 21 20  1  0  0  0  0
 22 21  2  0  0  0  0
 23 18  2  0  0  0  0
 23 22  1  0  0  0  0
 26 22  1  0  0  0  0
 27 28  1  0  0  0  0
 27  1  1  0  0  0  0
 29 30  1  0  0  0  0
 29  5  1  0  0  0  0
 30 35  1  0  0  0  0
 30 31  2  0  0  0  0
 31 32  1  0  0  0  0
 31 33  1  0  0  0  0
 34 33  2  0  0  0  0
 35 34  1  0  0  0  0
M  END
>  <minimizedAffinity>
-4.89374924

$$$$

 OpenBabel03272508293D

 35 38  0  0  1  0  0  0  0  0999 V2000
   36.1510   27.1580   31.1380 C   0  0  2  0  0  0  0  0  0  0  0  0
   36.7900   28.1000   32.1450 C   0  0  2  0  0  0  0  0  0  0  0  0
   36.9780   27.3470   33.2740 O   0  0  0  0  0  0  0  0  0  0  0  0
   37.0320   26.0270   32.9630 C   0  0  0  0  0  0  0  0  0  0  0  0
   36.9280   25.8900   31.4730 C   0  0  1  0  0  0  0  0  0  0  0  0
   35.0900   26.9700   31.3190 H   0  0  0  0  0  0  0  0  0  0  0  0
   37.7630   28.4290   31.7310 H   0  0  0  0  0  0  0  0  0  0  0  0
   36.1200   25.5440   33.4170 H   0  0  0  0  0  0  0  0  0  0  0  0
   37.9030   25.4830   33.3810 H   0  0  0  0  0  0  0  0  0  0  0  0
   37.9360   25.9240   30.9740 H   0  0  0  0  0  0  0  0  0  0  0  0
   34.4840   29.0630   32.7910 C   0  0  1  0  0  0  0  0  0  0  0  0
   35.8650   29.2420   32.3930 C   0  0  1  0  0  0  0  0  0  0  0  0
   35.4890   29.6790   33.7720 C   0  0  0  0  0  0  0  0  0  0  0  0
   34.0360   28.1540   33.2550 H   0  0  0  0  0  0  0  0  0  0  0  0
   36.0360   30.1030   31.6770 H   0  0  0  0  0  0  0  0  0  0  0  0
   35.3940   30.7360   34.0180 H   0  0  0  0  0  0  0  0  0  0  0  0
   35.8890   29.0510   34.5950 H   0  0  0  0  0  0  0  0  0  0  0  0
   33.4100   30.0340   32.3800 C   0  0  0  0  0  0  0  0  0  0  0  0
   32.1710   29.9550   33.0170 C   0  0  0  0  0  0  0  0  0  0  0  0
   31.2110   30.8450   32.5960 C   0  0  0  0  0  0  0  0  0  0  0  0
   31.4810   31.7500   31.6010 N   0  0  0  0  0  0  0  0  0  0  0  0
   32.7020   31.7970   31.0040 C   0  0  0  0  0  0  0  0  0  0  0  0
   33.6760   30.9360   31.3900 N   0  0  0  0  0  0  0  0  0  0  0  0
   31.9470   29.2470   33.7960 H   0  0  0  0  0  0  0  0  0  0  0  0
   30.2070   30.8580   33.0420 H   0  0  0  0  0  0  0  0  0  0  0  0
   32.9510   32.5060   30.2100 H   0  0  0  0  0  0  0  0  0  0  0  0
   36.3630   27.5370   29.8250 O   0  0  0  0  0  0  0  0  0  0  0  0
   37.1550   28.1650   29.7880 H   0  0  0  0  0  0  0  0  0  0  0  0
   36.2510   24.7550   31.0690 O   0  0  0  0  0  0  0  0  0  0  0  0
   36.7830   23.5110   31.9990 C   0  0  0  0  0  0  0  0  0  0  0  0
   35.4970   22.7480   31.6590 C   0  0  0  0  0  0  0  0  0  0  0  0
   34.5290   22.7740   31.1060 H   0  0  0  0  0  0  0  0  0  0  0  0
   35.3050   21.5110   32.1740 C   0  0  0  0  0  3  0  0  0  0  0  0
   36.3290   20.9570   33.0310 C   0  0  0  0  0  3  0  0  0  0  0  0
   37.6150   22.3680   33.0450 S   0  0  0  0  0  0  0  0  0  0  0  0
  1  6  1  1  0  0  0
  1  5  1  0  0  0  0
  1  2  1  0  0  0  0
  2  7  1  6  0  0  0
  2 12  1  0  0  0  0
  2  3  1  0  0  0  0
  4  3  1  0  0  0  0
  4  9  1  0  0  0  0
  4  8  1  0  0  0  0
  5 10  1  6  0  0  0
  5  4  1  0  0  0  0
 11 14  1  1  0  0  0
 11 13  1  0  0  0  0
 12 15  1  6  0  0  0
 12 11  1  0  0  0  0
 12 13  1  0  0  0  0
 13 16  1  0  0  0  0
 13 17  1  0  0  0  0
 18 11  1  0  0  0  0
 18 19  1  0  0  0  0
 19 24  1  0  0  0  0
 20 19  2  0  0  0  0
 20 25  1  0  0  0  0
 21 20  1  0  0  0  0
 22 23  1  0  0  0  0
 22 21  2  0  0  0  0
 23 18  2  0  0  0  0
 26 22  1  0  0  0  0
 27  1  1  0  0  0  0
 28 27  1  0  0  0  0
 29  5  1  0  0  0  0
 29 30  1  0  0  0  0
 30 35  1  0  0  0  0
 31 30  2  0  0  0  0
 31 33  1  0  0  0  0
 32 31  1  0  0  0  0
 33 34  2  0  0  0  0
 34 35  1  0  0  0  0
M  END
>  <minimizedAffinity>
-4.85460091

$$$$

 OpenBabel03272508293D

 35 38  0  0  1  0  0  0  0  0999 V2000
   38.5910   24.8990   32.7230 C   0  0  2  0  0  0  0  0  0  0  0  0
   37.5050   25.3610   31.7660 C   0  0  2  0  0  0  0  0  0  0  0  0
   36.6540   26.1190   32.5260 O   0  0  0  0  0  0  0  0  0  0  0  0
   37.2950   26.6000   33.6220 C   0  0  0  0  0  0  0  0  0  0  0  0
   38.7290   26.1680   33.5550 C   0  0  1  0  0  0  0  0  0  0  0  0
   38.2840   24.0850   33.3830 H   0  0  0  0  0  0  0  0  0  0  0  0
   37.9820   25.9810   30.9830 H   0  0  0  0  0  0  0  0  0  0  0  0
   36.8280   26.1050   34.5210 H   0  0  0  0  0  0  0  0  0  0  0  0
   37.1860   27.6910   33.7870 H   0  0  0  0  0  0  0  0  0  0  0  0
   39.3690   26.9110   33.0050 H   0  0  0  0  0  0  0  0  0  0  0  0
   36.0710   23.2280   32.0160 C   0  0  1  0  0  0  0  0  0  0  0  0
   36.8180   24.1640   31.2010 C   0  0  1  0  0  0  0  0  0  0  0  0
   35.3370   24.1140   31.0000 C   0  0  0  0  0  0  0  0  0  0  0  0
   35.6490   23.4160   33.0300 H   0  0  0  0  0  0  0  0  0  0  0  0
   37.4050   23.6840   30.3590 H   0  0  0  0  0  0  0  0  0  0  0  0
   34.9090   23.6450   30.1160 H   0  0  0  0  0  0  0  0  0  0  0  0
   34.7780   25.0000   31.3670 H   0  0  0  0  0  0  0  0  0  0  0  0
   35.9910   21.7660   31.6680 C   0  0  0  0  0  0  0  0  0  0  0  0
   34.9790   21.0040   32.2540 C   0  0  0  0  0  0  0  0  0  0  0  0
   34.9550   19.6690   31.9290 C   0  0  0  0  0  0  0  0  0  0  0  0
   35.8880   19.1390   31.0730 N   0  0  0  0  0  0  0  0  0  0  0  0
   36.8580   19.9130   30.5220 C   0  0  0  0  0  0  0  0  0  0  0  0
   36.9170   21.2360   30.8180 N   0  0  0  0  0  0  0  0  0  0  0  0
   34.2440   21.4090   32.9290 H   0  0  0  0  0  0  0  0  0  0  0  0
   34.1930   18.9930   32.3400 H   0  0  0  0  0  0  0  0  0  0  0  0
   37.6150   19.5240   29.8350 H   0  0  0  0  0  0  0  0  0  0  0  0
   39.7810   24.5900   32.0880 O   0  0  0  0  0  0  0  0  0  0  0  0
   39.7940   25.0340   31.1790 H   0  0  0  0  0  0  0  0  0  0  0  0
   39.2860   25.9080   34.7940 O   0  0  0  0  0  0  0  0  0  0  0  0
   38.6570   24.4880   35.3250 C   0  0  0  0  0  0  0  0  0  0  0  0
   38.4270   25.1380   36.6950 C   0  0  0  0  0  0  0  0  0  0  0  0
   38.5360   26.0660   37.3050 H   0  0  0  0  0  0  0  0  0  0  0  0
   37.8700   24.4080   37.6900 C   0  0  0  0  0  3  0  0  0  0  0  0
   37.5140   23.0340   37.4170 C   0  0  0  0  0  3  0  0  0  0  0  0
   38.0450   22.8610   35.5910 S   0  0  0  0  0  0  0  0  0  0  0  0
  1  6  1  1  0  0  0
  1  5  1  0  0  0  0
  2  7  1  6  0  0  0
  2  3  1  0  0  0  0
  2  1  1  0  0  0  0
  3  4  1  0  0  0  0
  4  9  1  0  0  0  0
  4  8  1  0  0  0  0
  5 10  1  6  0  0  0
  5  4  1  0  0  0  0
  5 29  1  0  0  0  0
 11 14  1  1  0  0  0
 12 15  1  6  0  0  0
 12  2  1  0  0  0  0
 12 11  1  0  0  0  0
 13 12  1  0  0  0  0
 13 17  1  0  0  0  0
 13 11  1  0  0  0  0
 16 13  1  0  0  0  0
 18 11  1  0  0  0  0
 18 19  1  0  0  0  0
 19 24  1  0  0  0  0
 20 19  2  0  0  0  0
 20 25  1  0  0  0  0
 21 20  1  0  0  0  0
 22 23  1  0  0  0  0
 22 21  2  0  0  0  0
 23 18  2  0  0  0  0
 26 22  1  0  0  0  0
 27  1  1  0  0  0  0
 28 27  1  0  0  0  0
 29 30  1  0  0  0  0
 30 35  1  0  0  0  0
 30 31  2  0  0  0  0
 31 32  1  0  0  0  0
 31 33  1  0  0  0  0
 34 33  2  0  0  0  0
 35 34  1  0  0  0  0
M  END
>  <minimizedAffinity>
-4.82651329

$$$$

 OpenBabel03272508293D

 35 38  0  0  1  0  0  0  0  0999 V2000
   37.9980   27.1010   32.1160 C   0  0  2  0  0  0  0  0  0  0  0  0
   38.0200   25.6370   32.5240 C   0  0  2  0  0  0  0  0  0  0  0  0
   36.7160   25.2250   32.4590 O   0  0  0  0  0  0  0  0  0  0  0  0
   36.0070   26.0200   31.6170 C   0  0  0  0  0  0  0  0  0  0  0  0
   36.9440   27.0250   31.0190 C   0  0  1  0  0  0  0  0  0  0  0  0
   37.6350   27.7720   32.8970 H   0  0  0  0  0  0  0  0  0  0  0  0
   38.6380   25.0890   31.7870 H   0  0  0  0  0  0  0  0  0  0  0  0
   35.2580   26.5810   32.2470 H   0  0  0  0  0  0  0  0  0  0  0  0
   35.4140   25.4800   30.8510 H   0  0  0  0  0  0  0  0  0  0  0  0
   37.4160   26.6490   30.0690 H   0  0  0  0  0  0  0  0  0  0  0  0
   39.1140   24.3000   34.4430 C   0  0  1  0  0  0  0  0  0  0  0  0
   38.5620   25.5280   33.9090 C   0  0  1  0  0  0  0  0  0  0  0  0
   40.0300   25.5060   34.1920 C   0  0  0  0  0  0  0  0  0  0  0  0
   39.4930   23.4310   33.8600 H   0  0  0  0  0  0  0  0  0  0  0  0
   37.9660   26.1360   34.6560 H   0  0  0  0  0  0  0  0  0  0  0  0
   40.4410   26.0330   35.0510 H   0  0  0  0  0  0  0  0  0  0  0  0
   40.6860   25.5030   33.2980 H   0  0  0  0  0  0  0  0  0  0  0  0
   39.0050   23.9550   35.9040 C   0  0  0  0  0  0  0  0  0  0  0  0
   37.9700   24.5330   36.6420 C   0  0  0  0  0  0  0  0  0  0  0  0
   37.9190   24.2100   37.9770 C   0  0  0  0  0  0  0  0  0  0  0  0
   38.8480   23.3650   38.5300 N   0  0  0  0  0  0  0  0  0  0  0  0
   39.8410   22.8210   37.7790 C   0  0  0  0  0  0  0  0  0  0  0  0
   39.9260   23.1140   36.4570 N   0  0  0  0  0  0  0  0  0  0  0  0
   37.2380   25.2000   36.2190 H   0  0  0  0  0  0  0  0  0  0  0  0
   37.1380   24.6160   38.6350 H   0  0  0  0  0  0  0  0  0  0  0  0
   40.5950   22.1430   38.1870 H   0  0  0  0  0  0  0  0  0  0  0  0
   39.2070   27.5450   31.6130 O   0  0  0  0  0  0  0  0  0  0  0  0
   39.7550   26.7470   31.3180 H   0  0  0  0  0  0  0  0  0  0  0  0
   36.3590   28.2560   30.7860 O   0  0  0  0  0  0  0  0  0  0  0  0
   35.9230   28.8740   32.2430 C   0  0  0  0  0  0  0  0  0  0  0  0
   36.1000   30.2830   31.6630 C   0  0  0  0  0  0  0  0  0  0  0  0
   36.3780   30.8810   30.7640 H   0  0  0  0  0  0  0  0  0  0  0  0
   35.8640   31.3570   32.4520 C   0  0  0  0  0  3  0  0  0  0  0  0
   35.4510   31.1300   33.8180 C   0  0  0  0  0  3  0  0  0  0  0  0
   35.4250   29.2220   33.8930 S   0  0  0  0  0  0  0  0  0  0  0  0
  1  2  1  0  0  0  0
  1  6  1  1  0  0  0
  2  7  1  6  0  0  0
  2 12  1  0  0  0  0
  3  2  1  0  0  0  0
  4  8  1  0  0  0  0
  4  3  1  0  0  0  0
  5 10  1  6  0  0  0
  5  4  1  0  0  0  0
  5  1  1  0  0  0  0
  9  4  1  0  0  0  0
 11 14  1  6  0  0  0
 11 18  1  0  0  0  0
 12 13  1  0  0  0  0
 12 11  1  0  0  0  0
 12 15  1  1  0  0  0
 13 11  1  0  0  0  0
 13 16  1  0  0  0  0
 17 13  1  0  0  0  0
 18 23  2  0  0  0  0
 18 19  1  0  0  0  0
 19 20  2  0  0  0  0
 20 21  1  0  0  0  0
 20 25  1  0  0  0  0
 22 26  1  0  0  0  0
 22 21  2  0  0  0  0
 23 22  1  0  0  0  0
 24 19  1  0  0  0  0
 27  1  1  0  0  0  0
 28 27  1  0  0  0  0
 29  5  1  0  0  0  0
 29 30  1  0  0  0  0
 30 35  1  0  0  0  0
 31 30  2  0  0  0  0
 31 33  1  0  0  0  0
 32 31  1  0  0  0  0
 33 34  2  0  0  0  0
 34 35  1  0  0  0  0
M  END
>  <minimizedAffinity>
-4.79730892

$$$$
