
 OpenBabel03262522153D

 42 45  0  0  1  0  0  0  0  0999 V2000
   40.4420   33.4290   45.2810 S   0  0  0  0  0  0  0  0  0  0  0  0
   37.7580   31.8280   47.7340 C   0  0  0  0  0  0  0  0  0  0  0  0
   37.9610   32.5170   48.9430 C   0  0  0  0  0  0  0  0  0  0  0  0
   38.9210   33.4960   49.0590 C   0  0  0  0  0  0  0  0  0  0  0  0
   39.6600   33.7540   47.9340 C   0  0  0  0  0  0  0  0  0  0  0  0
   39.4540   33.0810   46.7750 C   0  0  0  0  0  0  0  0  0  0  0  0
   38.5090   32.1120   46.6450 N   0  0  0  0  0  0  0  0  0  0  0  0
   37.3450   32.2750   49.8110 H   0  0  0  0  0  0  0  0  0  0  0  0
   39.1120   34.0500   49.9630 H   0  0  0  0  0  0  0  0  0  0  0  0
   40.4400   34.5100   47.9370 H   0  0  0  0  0  0  0  0  0  0  0  0
   36.7360   30.8240   47.7030 C   0  0  0  0  0  0  0  0  0  0  0  0
   36.2950   30.4020   46.6280 O   0  0  0  0  0  0  0  0  0  0  0  0
   37.0220   29.6030   49.8310 C   0  0  0  0  0  0  0  0  0  0  0  0
   36.1600   30.2460   48.9300 C   0  0  0  0  0  0  0  0  0  0  0  0
   34.7930   30.3170   49.2200 C   0  0  0  0  0  0  0  0  0  0  0  0
   34.3350   29.7560   50.3780 N   0  0  0  0  0  0  0  0  0  0  0  0
   35.1920   29.1420   51.2290 C   0  0  0  0  0  0  0  0  0  0  0  0
   36.5070   29.0670   50.9620 N   0  0  0  0  0  0  0  0  0  0  0  0
   38.0810   29.5190   49.6590 H   0  0  0  0  0  0  0  0  0  0  0  0
   34.1450   30.8110   48.5220 H   0  0  0  0  0  0  0  0  0  0  0  0
   34.7570   28.7220   52.1250 H   0  0  0  0  0  0  0  0  0  0  0  0
   39.3820   32.9980   43.8800 C   0  0  0  0  0  0  0  0  0  0  0  0
   39.4460   33.8510   43.1610 H   0  0  0  0  0  0  0  0  0  0  0  0
   38.3290   32.8070   44.1540 H   0  0  0  0  0  0  0  0  0  0  0  0
   39.1530   29.6830   42.6680 C   0  0  1  0  0  0  0  0  0  0  0  0
   38.9970   31.1370   42.2740 C   0  0  0  0  0  0  0  0  0  0  0  0
   39.9920   31.7970   43.1970 C   0  0  2  0  0  0  0  0  0  0  0  0
   40.4470   30.8600   44.0870 O   0  0  0  0  0  0  0  0  0  0  0  0
   39.5250   29.8240   44.1370 C   0  0  0  0  0  0  0  0  0  0  0  0
   40.0460   29.2750   42.1520 H   0  0  0  0  0  0  0  0  0  0  0  0
   37.9510   31.4580   42.4680 H   0  0  0  0  0  0  0  0  0  0  0  0
   39.2840   31.2840   41.2260 H   0  0  0  0  0  0  0  0  0  0  0  0
   40.8580   32.1380   42.6010 H   0  0  0  0  0  0  0  0  0  0  0  0
   40.0530   28.9140   44.4620 H   0  0  0  0  0  0  0  0  0  0  0  0
   38.6310   30.0440   44.7390 H   0  0  0  0  0  0  0  0  0  0  0  0
   37.9940   28.9600   42.5000 O   0  0  0  0  0  0  0  0  0  0  0  0
   37.6550   27.7360   42.6930 C   0  0  0  0  0  0  0  0  0  0  0  0
   36.4940   26.9090   42.8550 C   0  0  0  0  0  0  0  0  0  0  0  0
   35.5860   27.4760   42.8030 H   0  0  0  0  0  0  0  0  0  0  0  0
   36.6310   25.5630   43.0490 C   0  0  0  0  0  0  0  0  0  0  0  0
   37.9510   24.9770   43.0900 C   0  0  0  0  0  0  0  0  0  0  0  0
   39.0300   26.4890   42.8290 S   0  0  0  0  0  0  0  0  0  0  0  0
  1  6  1  0  0  0  0
  2  3  1  0  0  0  0
  3  4  2  0  0  0  0
  3  8  1  0  0  0  0
  4  9  1  0  0  0  0
  5 10  1  0  0  0  0
  5  4  1  0  0  0  0
  6  5  2  0  0  0  0
  7  6  1  0  0  0  0
  7  2  2  0  0  0  0
 11  2  1  0  0  0  0
 11 14  1  0  0  0  0
 12 11  2  0  0  0  0
 13 18  1  0  0  0  0
 14 15  1  0  0  0  0
 14 13  2  0  0  0  0
 15 16  2  0  0  0  0
 16 17  1  0  0  0  0
 17 21  1  0  0  0  0
 18 17  2  0  0  0  0
 19 13  1  0  0  0  0
 20 15  1  0  0  0  0
 22 24  1  0  0  0  0
 22  1  1  0  0  0  0
 23 22  1  0  0  0  0
 25 30  1  6  0  0  0
 25 29  1  0  0  0  0
 26 31  1  0  0  0  0
 26 25  1  0  0  0  0
 26 27  1  0  0  0  0
 27 33  1  6  0  0  0
 27 22  1  0  0  0  0
 27 28  1  0  0  0  0
 28 29  1  0  0  0  0
 29 34  1  0  0  0  0
 29 35  1  0  0  0  0
 32 26  1  0  0  0  0
 36 25  1  0  0  0  0
 36 37  1  0  0  0  0
 37 42  1  0  0  0  0
 37 38  2  0  0  0  0
 38 40  1  0  0  0  0
 39 38  1  0  0  0  0
 40 41  2  0  0  0  0
 42 41  1  0  0  0  0
M  END
>  <minimizedAffinity>
-5.37505722

>  <minimizedRMSD>
1.11032057

$$$$
