
 OpenBabel03272501443D

 31 34  0  0  0  0  0  0  0  0999 V2000
   35.3800   28.9890   49.2740 C   0  0  0  0  0  0  0  0  0  0  0  0
   35.4430   30.0060   48.2710 C   0  0  0  0  0  0  0  0  0  0  0  0
   34.5400   29.9140   47.2050 C   0  0  0  0  0  0  0  0  0  0  0  0
   33.6680   28.8900   47.1720 N   0  0  0  0  0  0  0  0  0  0  0  0
   33.6310   27.9340   48.1430 C   0  0  0  0  0  0  0  0  0  0  0  0
   34.4880   27.9950   49.1820 N   0  0  0  0  0  0  0  0  0  0  0  0
   35.9820   28.8870   50.1540 H   0  0  0  0  0  0  0  0  0  0  0  0
   34.6290   30.6870   46.4970 H   0  0  0  0  0  0  0  0  0  0  0  0
   36.5180   31.5850   49.7580 C   0  0  0  0  0  0  0  0  0  0  0  0
   36.4480   31.0120   48.5020 C   0  0  0  0  0  0  0  0  0  0  0  0
   37.3580   31.4460   47.5380 C   0  0  0  0  0  0  0  0  0  0  0  0
   38.2870   32.4310   47.8920 C   0  0  0  0  0  0  0  0  0  0  0  0
   39.2690   33.0420   47.2020 N   0  0  0  0  0  0  0  0  0  0  0  0
   39.8920   33.9220   47.9780 C   0  0  0  0  0  0  0  0  0  0  0  0
   39.3100   33.8870   49.1930 N   0  0  0  0  0  0  0  0  0  0  0  0
   38.3340   32.9810   49.1410 C   0  0  0  0  0  0  0  0  0  0  0  0
   37.4370   32.5520   50.0910 C   0  0  0  0  0  0  0  0  0  0  0  0
   35.8640   31.3410   50.6100 H   0  0  0  0  0  0  0  0  0  0  0  0
   37.3200   31.0180   46.5680 H   0  0  0  0  0  0  0  0  0  0  0  0
   39.5200   32.8630   46.2010 H   0  0  0  0  0  0  0  0  0  0  0  0
   40.7280   34.5830   47.7380 H   0  0  0  0  0  0  0  0  0  0  0  0
   37.5050   33.0150   51.0790 H   0  0  0  0  0  0  0  0  0  0  0  0
   32.6300   26.8380   48.0210 C   0  0  0  0  0  0  0  0  0  0  0  0
   32.7310   26.1130   48.8540 H   0  0  0  0  0  0  0  0  0  0  0  0
   32.6690   26.3520   47.0340 H   0  0  0  0  0  0  0  0  0  0  0  0
   31.2310   27.4180   48.2280 C   0  0  0  0  0  0  0  0  0  0  0  0
   30.7280   27.5920   49.4550 C   0  0  0  0  0  0  0  0  0  0  0  0
   31.2190   27.3560   50.4160 H   0  0  0  0  0  0  0  0  0  0  0  0
   29.5310   28.0850   49.7800 C   0  0  0  0  0  0  0  0  0  0  0  0
   28.8180   28.4210   48.6180 C   0  0  0  0  0  0  0  0  0  0  0  0
   30.0110   27.9630   47.1810 S   0  0  0  0  0  0  0  0  0  0  0  0
  1  7  1  0  0  0  0
  2 10  1  0  0  0  0
  2  1  2  0  0  0  0
  3  2  1  0  0  0  0
  4  3  2  0  0  0  0
  4  5  1  0  0  0  0
  5  6  2  0  0  0  0
  6  1  1  0  0  0  0
  8  3  1  0  0  0  0
  9 17  1  0  0  0  0
  9 18  1  0  0  0  0
 10  9  2  0  0  0  0
 11 12  2  0  0  0  0
 11 10  1  0  0  0  0
 12 16  1  0  0  0  0
 13 12  1  0  0  0  0
 13 14  1  0  0  0  0
 14 15  2  0  0  0  0
 16 15  1  0  0  0  0
 16 17  2  0  0  0  0
 17 22  1  0  0  0  0
 19 11  1  0  0  0  0
 20 13  1  0  0  0  0
 21 14  1  0  0  0  0
 23  5  1  0  0  0  0
 23 26  1  0  0  0  0
 23 24  1  0  0  0  0
 25 23  1  0  0  0  0
 26 27  2  0  0  0  0
 27 29  1  0  0  0  0
 27 28  1  0  0  0  0
 30 29  2  0  0  0  0
 31 26  1  0  0  0  0
 31 30  1  0  0  0  0
M  END
>  <minimizedAffinity>
-6.27790642

>  <minimizedRMSD>
1.88379896

$$$$
