
 OpenBabel03272508273D

 35 38  0  0  1  0  0  0  0  0999 V2000
   33.7970   28.8800   47.2850 C   0  0  2  0  0  0  0  0  0  0  0  0
   34.5500   28.1300   48.3720 C   0  0  2  0  0  0  0  0  0  0  0  0
   33.6320   27.9220   49.3680 O   0  0  0  0  0  0  0  0  0  0  0  0
   32.3700   27.9630   48.8680 C   0  0  0  0  0  0  0  0  0  0  0  0
   32.4580   28.1600   47.3850 C   0  0  1  0  0  0  0  0  0  0  0  0
   33.6370   29.9370   47.5060 H   0  0  0  0  0  0  0  0  0  0  0  0
   34.8870   27.1650   47.9480 H   0  0  0  0  0  0  0  0  0  0  0  0
   31.8710   28.8740   49.3070 H   0  0  0  0  0  0  0  0  0  0  0  0
   31.7280   27.1020   49.1470 H   0  0  0  0  0  0  0  0  0  0  0  0
   32.5150   27.1820   46.8310 H   0  0  0  0  0  0  0  0  0  0  0  0
   35.5940   30.4100   48.9840 C   0  0  1  0  0  0  0  0  0  0  0  0
   35.6870   28.9720   48.8420 C   0  0  1  0  0  0  0  0  0  0  0  0
   35.7510   29.5260   50.2280 C   0  0  0  0  0  0  0  0  0  0  0  0
   34.6620   31.0110   49.0840 H   0  0  0  0  0  0  0  0  0  0  0  0
   36.6870   28.6050   48.4540 H   0  0  0  0  0  0  0  0  0  0  0  0
   36.6930   29.5600   50.7740 H   0  0  0  0  0  0  0  0  0  0  0  0
   34.8620   29.3280   50.8600 H   0  0  0  0  0  0  0  0  0  0  0  0
   36.7830   31.3050   48.7600 C   0  0  0  0  0  0  0  0  0  0  0  0
   37.0570   32.2890   49.7120 C   0  0  0  0  0  0  0  0  0  0  0  0
   38.1370   33.1000   49.4580 C   0  0  0  0  0  0  0  0  0  0  0  0
   38.8890   32.9320   48.3220 N   0  0  0  0  0  0  0  0  0  0  0  0
   38.5920   31.9620   47.4180 C   0  0  0  0  0  0  0  0  0  0  0  0
   37.5330   31.1400   47.6310 N   0  0  0  0  0  0  0  0  0  0  0  0
   36.4710   32.4320   50.6040 H   0  0  0  0  0  0  0  0  0  0  0  0
   38.4290   33.9000   50.1520 H   0  0  0  0  0  0  0  0  0  0  0  0
   39.1700   31.7990   46.5050 H   0  0  0  0  0  0  0  0  0  0  0  0
   34.3540   28.7220   46.0290 O   0  0  0  0  0  0  0  0  0  0  0  0
   34.9400   27.8980   46.0300 H   0  0  0  0  0  0  0  0  0  0  0  0
   31.4280   28.9230   46.8670 O   0  0  0  0  0  0  0  0  0  0  0  0
   30.0220   28.3030   47.4430 C   0  0  0  0  0  0  0  0  0  0  0  0
   29.2710   29.4500   46.7540 C   0  0  0  0  0  0  0  0  0  0  0  0
   29.3660   30.3700   46.1310 H   0  0  0  0  0  0  0  0  0  0  0  0
   27.9240   29.5160   46.8590 C   0  0  0  0  0  3  0  0  0  0  0  0
   27.2420   28.4950   47.6220 C   0  0  0  0  0  3  0  0  0  0  0  0
   28.7040   27.4080   48.1900 S   0  0  0  0  0  0  0  0  0  0  0  0
  1  5  1  0  0  0  0
  1  6  1  1  0  0  0
  1  2  1  0  0  0  0
  2  7  1  6  0  0  0
  2 12  1  0  0  0  0
  2  3  1  0  0  0  0
  4  9  1  0  0  0  0
  4  8  1  0  0  0  0
  4  3  1  0  0  0  0
  5 10  1  6  0  0  0
  5  4  1  0  0  0  0
 11 14  1  6  0  0  0
 11 13  1  0  0  0  0
 12 15  1  6  0  0  0
 12 11  1  0  0  0  0
 12 13  1  0  0  0  0
 13 16  1  0  0  0  0
 13 17  1  0  0  0  0
 18 11  1  0  0  0  0
 18 19  1  0  0  0  0
 19 24  1  0  0  0  0
 20 19  2  0  0  0  0
 20 25  1  0  0  0  0
 21 20  1  0  0  0  0
 22 23  1  0  0  0  0
 22 21  2  0  0  0  0
 23 18  2  0  0  0  0
 26 22  1  0  0  0  0
 27 28  1  0  0  0  0
 27  1  1  0  0  0  0
 29  5  1  0  0  0  0
 29 30  1  0  0  0  0
 30 35  1  0  0  0  0
 31 33  1  0  0  0  0
 31 30  2  0  0  0  0
 32 31  1  0  0  0  0
 33 34  2  0  0  0  0
 34 35  1  0  0  0  0
M  END
>  <minimizedAffinity>
-5.33089352

>  <minimizedRMSD>
1.96867847

$$$$
