
     RDKit          3D

 24 25  0  0  0  0  0  0  0  0999 V2000
   37.3197   30.2335   51.4065 C   0  0  0  0  0  0  0  0  0  0  0  0
   38.0445   30.6759   50.3042 C   0  0  0  0  0  0  0  0  0  0  0  0
   37.6208   30.2807   49.0401 C   0  0  0  0  0  0  0  0  0  0  0  0
   36.5089   29.4767   48.9805 N   0  0  0  0  0  0  0  0  0  0  0  0
   35.8340   29.0696   50.0746 C   0  0  0  0  0  0  0  0  0  0  0  0
   36.2567   29.4603   51.2855 N   0  0  0  0  0  0  0  0  0  0  0  0
   34.7519   28.2683   49.7538 O   0  0  0  0  0  0  0  0  0  0  0  0
   34.1932   28.4129   48.4501 C   0  0  0  0  0  0  0  0  0  0  0  0
   33.8253   27.0532   47.9065 C   0  0  0  0  0  0  0  0  0  0  0  0
   37.6682   30.5549   52.3944 H   0  0  0  0  0  0  0  0  0  0  0  0
   38.9193   31.3079   50.3425 H   0  0  0  0  0  0  0  0  0  0  0  0
   38.1327   30.5843   48.1385 H   0  0  0  0  0  0  0  0  0  0  0  0
   33.3057   29.0586   48.5890 H   0  0  0  0  0  0  0  0  0  0  0  0
   34.8851   28.9560   47.7741 H   0  0  0  0  0  0  0  0  0  0  0  0
   33.0444   26.6634   48.6221 H   0  0  0  0  0  0  0  0  0  0  0  0
   34.6482   26.3425   47.9214 H   0  0  0  0  0  0  0  0  0  0  0  0
   33.2469   27.2336   46.5487 C   0  0  0  0  0  0  0  0  0  0  0  0
   33.7225   27.7581   45.3925 C   0  0  0  0  0  0  0  0  0  0  0  0
   34.7510   28.1322   45.4617 H   0  0  0  0  0  0  0  0  0  0  0  0
   32.9593   27.7945   44.2803 C   0  0  0  0  0  0  0  0  0  0  0  0
   31.6913   27.2760   44.3894 C   0  0  0  0  0  0  0  0  0  0  0  0
   31.6145   26.7116   46.1973 S   0  0  0  0  0  0  0  0  0  0  0  0
   33.3143   28.2072   43.3453 H   0  0  0  0  0  0  0  0  0  0  0  0
   30.9417   27.2552   43.4877 H   0  0  0  0  0  0  0  0  0  0  0  0
  2  1  2  0
  3  2  1  0
  4  3  2  0
  4  5  1  0
  5  6  2  0
  6  1  1  0
  7  5  1  0
  8  7  1  0
  9  8  1  0
  1 10  1  0
  2 11  1  0
  3 12  1  0
  8 13  1  0
  8 14  1  0
  9 15  1  0
  9 16  1  0
 17 18  2  0
 18 19  1  0
 18 20  1  0
 20 21  2  0
 21 22  1  0
 22 17  1  0
 20 23  1  0
 21 24  1  0
  9 17  1  0
M  ISO  8  10  14  11  14  12  14  13   8  14   8  15   8  16   8  19  15
M  END
>  <DihAtoms>  (1) 
7,8,16,17

>  <DihDeg>  (1) 
0.03943289498713421

$$$$
