
 OpenBabel03272504133D

 18 19  0  0  0  0  0  0  0  0999 V2000
   38.4040   23.8580   36.9410 C   0  0  0  0  0  0  0  0  0  0  0  0
   37.8540   24.9910   36.3440 C   0  0  0  0  0  0  0  0  0  0  0  0
   37.9150   25.0930   34.9540 C   0  0  0  0  0  0  0  0  0  0  0  0
   38.5010   24.0890   34.2530 N   0  0  0  0  0  0  0  0  0  0  0  0
   39.0240   23.0010   34.8710 C   0  0  0  0  0  0  0  0  0  0  0  0
   38.9650   22.9060   36.2030 N   0  0  0  0  0  0  0  0  0  0  0  0
   37.3850   25.8000   36.8790 H   0  0  0  0  0  0  0  0  0  0  0  0
   39.4890   22.2080   34.3010 H   0  0  0  0  0  0  0  0  0  0  0  0
   37.3620   26.2400   34.3040 C   0  0  0  0  0  0  0  0  0  0  0  0
   36.9380   27.4370   34.7270 C   0  0  0  0  0  0  0  0  0  0  0  0
   37.0070   27.6280   35.7900 H   0  0  0  0  0  0  0  0  0  0  0  0
   36.4520   28.3220   33.7920 C   0  0  0  0  0  3  0  0  0  0  0  0
   36.4180   27.9680   32.5050 C   0  0  0  0  0  3  0  0  0  0  0  0
   37.0960   26.2850   32.5020 S   0  0  0  0  0  0  0  0  0  0  0  0
   38.3350   23.7560   38.4400 C   0  0  0  0  0  0  0  0  0  0  0  0
   37.3180   22.8710   38.7920 F   0  0  0  0  0  0  0  0  0  0  0  0
   39.5590   23.3730   38.8990 F   0  0  0  0  0  0  0  0  0  0  0  0
   37.9750   25.0080   38.9240 F   0  0  0  0  0  0  0  0  0  0  0  0
  1 15  1  0  0  0  0
  2  7  1  0  0  0  0
  2  1  1  0  0  0  0
  3  2  2  0  0  0  0
  4  5  2  0  0  0  0
  4  3  1  0  0  0  0
  5  6  1  0  0  0  0
  6  1  2  0  0  0  0
  8  5  1  0  0  0  0
  9 10  2  0  0  0  0
  9  3  1  0  0  0  0
 10 11  1  0  0  0  0
 12 10  1  0  0  0  0
 13 12  2  0  0  0  0
 14 13  1  0  0  0  0
 14  9  1  0  0  0  0
 15 16  1  0  0  0  0
 15 17  1  0  0  0  0
 15 18  1  0  0  0  0
M  END
>  <minimizedAffinity>
-4.9419322

$$$$

 OpenBabel03272504133D

 18 19  0  0  0  0  0  0  0  0999 V2000
   38.4740   23.7830   36.9820 C   0  0  0  0  0  0  0  0  0  0  0  0
   37.9230   24.8230   36.2380 C   0  0  0  0  0  0  0  0  0  0  0  0
   38.0760   24.7900   34.8520 C   0  0  0  0  0  0  0  0  0  0  0  0
   38.7490   23.7490   34.2960 N   0  0  0  0  0  0  0  0  0  0  0  0
   39.2720   22.7540   35.0560 C   0  0  0  0  0  0  0  0  0  0  0  0
   39.1240   22.7900   36.3840 N   0  0  0  0  0  0  0  0  0  0  0  0
   37.3860   25.6590   36.6550 H   0  0  0  0  0  0  0  0  0  0  0  0
   39.8070   21.9310   34.6010 H   0  0  0  0  0  0  0  0  0  0  0  0
   37.5250   25.8390   34.0520 C   0  0  0  0  0  0  0  0  0  0  0  0
   37.1570   25.9380   32.7690 C   0  0  0  0  0  0  0  0  0  0  0  0
   37.2860   25.0540   32.1580 H   0  0  0  0  0  0  0  0  0  0  0  0
   36.6500   27.1400   32.3290 C   0  0  0  0  0  3  0  0  0  0  0  0
   36.5400   28.1600   33.1830 C   0  0  0  0  0  3  0  0  0  0  0  0
   37.1680   27.4860   34.7450 S   0  0  0  0  0  0  0  0  0  0  0  0
   38.3060   23.8270   38.4750 C   0  0  0  0  0  0  0  0  0  0  0  0
   39.4970   23.4350   39.0820 F   0  0  0  0  0  0  0  0  0  0  0  0
   37.9160   25.0840   38.8250 F   0  0  0  0  0  0  0  0  0  0  0  0
   37.3450   22.8800   38.8120 F   0  0  0  0  0  0  0  0  0  0  0  0
  1 15  1  0  0  0  0
  2  7  1  0  0  0  0
  2  1  2  0  0  0  0
  3  2  1  0  0  0  0
  4  3  2  0  0  0  0
  4  5  1  0  0  0  0
  5  6  2  0  0  0  0
  6  1  1  0  0  0  0
  8  5  1  0  0  0  0
  9 14  1  0  0  0  0
  9  3  1  0  0  0  0
 10  9  2  0  0  0  0
 11 10  1  0  0  0  0
 12 10  1  0  0  0  0
 12 13  2  0  0  0  0
 13 14  1  0  0  0  0
 15 18  1  0  0  0  0
 15 17  1  0  0  0  0
 15 16  1  0  0  0  0
M  END
>  <minimizedAffinity>
-4.71777344

$$$$

 OpenBabel03272504133D

 18 19  0  0  0  0  0  0  0  0999 V2000
   38.4460   23.5460   36.7080 C   0  0  0  0  0  0  0  0  0  0  0  0
   37.7040   22.5580   36.0650 C   0  0  0  0  0  0  0  0  0  0  0  0
   37.7940   22.4720   34.6760 C   0  0  0  0  0  0  0  0  0  0  0  0
   38.5960   23.3490   34.0200 N   0  0  0  0  0  0  0  0  0  0  0  0
   39.3040   24.2980   34.6820 C   0  0  0  0  0  0  0  0  0  0  0  0
   39.2150   24.3780   36.0140 N   0  0  0  0  0  0  0  0  0  0  0  0
   37.0610   21.8510   36.5630 H   0  0  0  0  0  0  0  0  0  0  0  0
   39.9390   24.9910   34.1470 H   0  0  0  0  0  0  0  0  0  0  0  0
   37.0480   21.4710   33.9790 C   0  0  0  0  0  0  0  0  0  0  0  0
   35.9160   20.8040   34.2360 C   0  0  0  0  0  0  0  0  0  0  0  0
   35.4160   21.0380   35.1670 H   0  0  0  0  0  0  0  0  0  0  0  0
   35.4790   19.8830   33.3110 C   0  0  0  0  0  3  0  0  0  0  0  0
   36.1860   19.6830   32.1970 C   0  0  0  0  0  3  0  0  0  0  0  0
   37.5870   20.8230   32.3640 S   0  0  0  0  0  0  0  0  0  0  0  0
   38.3440   23.6330   38.2060 C   0  0  0  0  0  0  0  0  0  0  0  0
   37.2940   22.8260   38.6400 F   0  0  0  0  0  0  0  0  0  0  0  0
   39.5460   23.2780   38.7380 F   0  0  0  0  0  0  0  0  0  0  0  0
   38.0100   24.9440   38.5230 F   0  0  0  0  0  0  0  0  0  0  0  0
  1 15  1  0  0  0  0
  2  7  1  0  0  0  0
  2  1  1  0  0  0  0
  3  2  2  0  0  0  0
  4  3  1  0  0  0  0
  4  5  2  0  0  0  0
  5  6  1  0  0  0  0
  6  1  2  0  0  0  0
  8  5  1  0  0  0  0
  9 10  2  0  0  0  0
  9  3  1  0  0  0  0
 10 11  1  0  0  0  0
 12 10  1  0  0  0  0
 13 14  1  0  0  0  0
 13 12  2  0  0  0  0
 14  9  1  0  0  0  0
 15 18  1  0  0  0  0
 15 16  1  0  0  0  0
 15 17  1  0  0  0  0
M  END
>  <minimizedAffinity>
-4.70675039

$$$$

 OpenBabel03272504133D

 18 19  0  0  0  0  0  0  0  0999 V2000
   39.9820   23.0230   37.1050 C   0  0  0  0  0  0  0  0  0  0  0  0
   39.5510   23.8200   36.0480 C   0  0  0  0  0  0  0  0  0  0  0  0
   38.3970   24.5820   36.2310 C   0  0  0  0  0  0  0  0  0  0  0  0
   37.7540   24.5120   37.4250 N   0  0  0  0  0  0  0  0  0  0  0  0
   38.2070   23.7230   38.4320 C   0  0  0  0  0  0  0  0  0  0  0  0
   39.3120   22.9940   38.2520 N   0  0  0  0  0  0  0  0  0  0  0  0
   40.0420   23.8910   35.0920 H   0  0  0  0  0  0  0  0  0  0  0  0
   37.6850   23.6770   39.3780 H   0  0  0  0  0  0  0  0  0  0  0  0
   37.9210   25.4130   35.1700 C   0  0  0  0  0  0  0  0  0  0  0  0
   37.4150   26.6520   35.1110 C   0  0  0  0  0  0  0  0  0  0  0  0
   37.3260   27.1840   36.0500 H   0  0  0  0  0  0  0  0  0  0  0  0
   37.0510   27.1470   33.8800 C   0  0  0  0  0  3  0  0  0  0  0  0
   37.2110   26.3910   32.7920 C   0  0  0  0  0  3  0  0  0  0  0  0
   37.9160   24.8490   33.4380 S   0  0  0  0  0  0  0  0  0  0  0  0
   41.2270   22.2030   36.8990 C   0  0  0  0  0  0  0  0  0  0  0  0
   41.3710   21.3150   37.9630 F   0  0  0  0  0  0  0  0  0  0  0  0
   41.1340   21.5800   35.6910 F   0  0  0  0  0  0  0  0  0  0  0  0
   42.3080   23.0760   36.9430 F   0  0  0  0  0  0  0  0  0  0  0  0
  1  6  1  0  0  0  0
  2  3  1  0  0  0  0
  2  1  2  0  0  0  0
  3  4  2  0  0  0  0
  4  5  1  0  0  0  0
  5  8  1  0  0  0  0
  6  5  2  0  0  0  0
  7  2  1  0  0  0  0
  9  3  1  0  0  0  0
 10  9  2  0  0  0  0
 10 11  1  0  0  0  0
 12 10  1  0  0  0  0
 13 14  1  0  0  0  0
 13 12  2  0  0  0  0
 14  9  1  0  0  0  0
 15 18  1  0  0  0  0
 15  1  1  0  0  0  0
 15 16  1  0  0  0  0
 17 15  1  0  0  0  0
M  END
>  <minimizedAffinity>
-4.476933

$$$$

 OpenBabel03272504133D

 18 19  0  0  0  0  0  0  0  0999 V2000
   38.1880   24.1580   36.9740 C   0  0  0  0  0  0  0  0  0  0  0  0
   38.2790   23.1010   36.0710 C   0  0  0  0  0  0  0  0  0  0  0  0
   38.2010   23.3950   34.7100 C   0  0  0  0  0  0  0  0  0  0  0  0
   38.0430   24.6890   34.3310 N   0  0  0  0  0  0  0  0  0  0  0  0
   37.9580   25.6910   35.2420 C   0  0  0  0  0  0  0  0  0  0  0  0
   38.0320   25.4060   36.5460 N   0  0  0  0  0  0  0  0  0  0  0  0
   38.4050   22.0670   36.3470 H   0  0  0  0  0  0  0  0  0  0  0  0
   37.8300   26.7180   34.9270 H   0  0  0  0  0  0  0  0  0  0  0  0
   38.2910   22.3380   33.7510 C   0  0  0  0  0  0  0  0  0  0  0  0
   39.2860   21.5530   33.3200 C   0  0  0  0  0  0  0  0  0  0  0  0
   40.2600   21.7140   33.7650 H   0  0  0  0  0  0  0  0  0  0  0  0
   39.0010   20.6130   32.3560 C   0  0  0  0  0  3  0  0  0  0  0  0
   37.7570   20.5100   31.8840 C   0  0  0  0  0  3  0  0  0  0  0  0
   36.8430   21.7840   32.7950 S   0  0  0  0  0  0  0  0  0  0  0  0
   38.2720   23.8330   38.4400 C   0  0  0  0  0  0  0  0  0  0  0  0
   38.1280   25.0060   39.1780 F   0  0  0  0  0  0  0  0  0  0  0  0
   37.3220   22.9000   38.7270 F   0  0  0  0  0  0  0  0  0  0  0  0
   39.5530   23.3500   38.6840 F   0  0  0  0  0  0  0  0  0  0  0  0
  1 15  1  0  0  0  0
  2  7  1  0  0  0  0
  2  1  2  0  0  0  0
  3  2  1  0  0  0  0
  4  3  2  0  0  0  0
  4  5  1  0  0  0  0
  5  6  2  0  0  0  0
  6  1  1  0  0  0  0
  8  5  1  0  0  0  0
  9  3  1  0  0  0  0
 10  9  2  0  0  0  0
 10 11  1  0  0  0  0
 12 10  1  0  0  0  0
 13 12  2  0  0  0  0
 13 14  1  0  0  0  0
 14  9  1  0  0  0  0
 15 18  1  0  0  0  0
 15 17  1  0  0  0  0
 15 16  1  0  0  0  0
M  END
>  <minimizedAffinity>
-4.41801119

$$$$

 OpenBabel03272504133D

 18 19  0  0  0  0  0  0  0  0999 V2000
   38.9830   25.4830   35.6820 C   0  0  0  0  0  0  0  0  0  0  0  0
   40.0200   24.5530   35.6920 C   0  0  0  0  0  0  0  0  0  0  0  0
   39.7900   23.3240   36.3110 C   0  0  0  0  0  0  0  0  0  0  0  0
   38.5750   23.0940   36.8700 N   0  0  0  0  0  0  0  0  0  0  0  0
   37.5900   24.0260   36.8400 C   0  0  0  0  0  0  0  0  0  0  0  0
   37.8130   25.2030   36.2460 N   0  0  0  0  0  0  0  0  0  0  0  0
   40.9920   24.7120   35.2570 H   0  0  0  0  0  0  0  0  0  0  0  0
   36.6260   23.8300   37.2890 H   0  0  0  0  0  0  0  0  0  0  0  0
   40.8290   22.3420   36.3430 C   0  0  0  0  0  0  0  0  0  0  0  0
   41.3870   21.6060   37.3120 C   0  0  0  0  0  0  0  0  0  0  0  0
   41.0020   21.7510   38.3140 H   0  0  0  0  0  0  0  0  0  0  0  0
   42.3950   20.7350   36.9680 C   0  0  0  0  0  3  0  0  0  0  0  0
   42.7840   20.6470   35.6940 C   0  0  0  0  0  3  0  0  0  0  0  0
   41.7170   21.8360   34.8350 S   0  0  0  0  0  0  0  0  0  0  0  0
   39.2390   26.8060   35.0140 C   0  0  0  0  0  0  0  0  0  0  0  0
   40.6120   27.0400   34.9720 F   0  0  0  0  0  0  0  0  0  0  0  0
   38.6630   26.7800   33.7790 F   0  0  0  0  0  0  0  0  0  0  0  0
   38.6800   27.7920   35.8190 F   0  0  0  0  0  0  0  0  0  0  0  0
  1  2  2  0  0  0  0
  1  6  1  0  0  0  0
  2  3  1  0  0  0  0
  3  9  1  0  0  0  0
  3  4  2  0  0  0  0
  5  4  1  0  0  0  0
  5  8  1  0  0  0  0
  6  5  2  0  0  0  0
  7  2  1  0  0  0  0
  9 10  2  0  0  0  0
 10 11  1  0  0  0  0
 12 10  1  0  0  0  0
 13 12  2  0  0  0  0
 14 13  1  0  0  0  0
 14  9  1  0  0  0  0
 15  1  1  0  0  0  0
 15 18  1  0  0  0  0
 16 15  1  0  0  0  0
 17 15  1  0  0  0  0
M  END
>  <minimizedAffinity>
-4.20691442

$$$$

 OpenBabel03272504133D

 18 19  0  0  0  0  0  0  0  0999 V2000
   36.1360   23.5610   31.6260 C   0  0  0  0  0  0  0  0  0  0  0  0
   37.0350   24.0900   32.5490 C   0  0  0  0  0  0  0  0  0  0  0  0
   37.0750   25.4760   32.7040 C   0  0  0  0  0  0  0  0  0  0  0  0
   36.2380   26.2390   31.9550 N   0  0  0  0  0  0  0  0  0  0  0  0
   35.3750   25.6850   31.0660 C   0  0  0  0  0  0  0  0  0  0  0  0
   35.3410   24.3570   30.9190 N   0  0  0  0  0  0  0  0  0  0  0  0
   37.7090   23.5060   33.1540 H   0  0  0  0  0  0  0  0  0  0  0  0
   34.7150   26.3050   30.4750 H   0  0  0  0  0  0  0  0  0  0  0  0
   37.9840   26.0580   33.6410 C   0  0  0  0  0  0  0  0  0  0  0  0
   37.8380   26.8210   34.7320 C   0  0  0  0  0  0  0  0  0  0  0  0
   36.8240   27.0830   35.0070 H   0  0  0  0  0  0  0  0  0  0  0  0
   38.9700   27.2090   35.4100 C   0  0  0  0  0  3  0  0  0  0  0  0
   40.1680   26.8190   34.9690 C   0  0  0  0  0  3  0  0  0  0  0  0
   39.7860   25.8310   33.4970 S   0  0  0  0  0  0  0  0  0  0  0  0
   36.1000   22.0670   31.4640 C   0  0  0  0  0  0  0  0  0  0  0  0
   35.0700   21.7250   30.5900 F   0  0  0  0  0  0  0  0  0  0  0  0
   37.3250   21.6530   31.0350 F   0  0  0  0  0  0  0  0  0  0  0  0
   35.7820   21.5240   32.7030 F   0  0  0  0  0  0  0  0  0  0  0  0
  1  2  1  0  0  0  0
  2  3  2  0  0  0  0
  2  7  1  0  0  0  0
  3  9  1  0  0  0  0
  4  3  1  0  0  0  0
  5  4  2  0  0  0  0
  6  5  1  0  0  0  0
  6  1  2  0  0  0  0
  8  5  1  0  0  0  0
  9 10  2  0  0  0  0
 10 11  1  0  0  0  0
 10 12  1  0  0  0  0
 13 12  2  0  0  0  0
 14  9  1  0  0  0  0
 14 13  1  0  0  0  0
 15  1  1  0  0  0  0
 15 18  1  0  0  0  0
 16 15  1  0  0  0  0
 17 15  1  0  0  0  0
M  END
>  <minimizedAffinity>
-4.17635059

$$$$

 OpenBabel03272504133D

 18 19  0  0  0  0  0  0  0  0999 V2000
   38.1860   24.8980   36.6800 C   0  0  0  0  0  0  0  0  0  0  0  0
   38.0720   24.2580   35.4470 C   0  0  0  0  0  0  0  0  0  0  0  0
   38.0790   25.0480   34.2970 C   0  0  0  0  0  0  0  0  0  0  0  0
   38.1980   26.3940   34.4330 N   0  0  0  0  0  0  0  0  0  0  0  0
   38.3070   26.9790   35.6510 C   0  0  0  0  0  0  0  0  0  0  0  0
   38.2990   26.2190   36.7510 N   0  0  0  0  0  0  0  0  0  0  0  0
   37.9760   23.1940   35.3140 H   0  0  0  0  0  0  0  0  0  0  0  0
   38.4010   28.0520   35.7450 H   0  0  0  0  0  0  0  0  0  0  0  0
   37.9640   24.4300   33.0130 C   0  0  0  0  0  0  0  0  0  0  0  0
   37.6620   23.1930   32.5980 C   0  0  0  0  0  0  0  0  0  0  0  0
   37.4490   22.4620   33.3670 H   0  0  0  0  0  0  0  0  0  0  0  0
   37.6450   22.9490   31.2440 C   0  0  0  0  0  3  0  0  0  0  0  0
   37.9250   23.9380   30.3920 C   0  0  0  0  0  3  0  0  0  0  0  0
   38.2520   25.3580   31.4720 S   0  0  0  0  0  0  0  0  0  0  0  0
   38.1770   24.0400   37.9150 C   0  0  0  0  0  0  0  0  0  0  0  0
   39.3970   23.3740   38.0180 F   0  0  0  0  0  0  0  0  0  0  0  0
   37.9090   24.8350   38.9870 F   0  0  0  0  0  0  0  0  0  0  0  0
   37.1960   23.0710   37.7380 F   0  0  0  0  0  0  0  0  0  0  0  0
  1  6  1  0  0  0  0
  1 15  1  0  0  0  0
  2  1  2  0  0  0  0
  3  4  2  0  0  0  0
  3  2  1  0  0  0  0
  4  5  1  0  0  0  0
  5  8  1  0  0  0  0
  5  6  2  0  0  0  0
  7  2  1  0  0  0  0
  9  3  1  0  0  0  0
 10  9  2  0  0  0  0
 10 11  1  0  0  0  0
 12 10  1  0  0  0  0
 13 12  2  0  0  0  0
 13 14  1  0  0  0  0
 14  9  1  0  0  0  0
 15 16  1  0  0  0  0
 15 17  1  0  0  0  0
 18 15  1  0  0  0  0
M  END
>  <minimizedAffinity>
-4.16966963

$$$$

 OpenBabel03272504133D

 18 19  0  0  0  0  0  0  0  0999 V2000
   37.4680   26.9130   33.9680 C   0  0  0  0  0  0  0  0  0  0  0  0
   37.3980   25.5850   33.5520 C   0  0  0  0  0  0  0  0  0  0  0  0
   36.7540   25.3100   32.3460 C   0  0  0  0  0  0  0  0  0  0  0  0
   36.2300   26.3420   31.6380 N   0  0  0  0  0  0  0  0  0  0  0  0
   36.3180   27.6230   32.0770 C   0  0  0  0  0  0  0  0  0  0  0  0
   36.9360   27.8830   33.2330 N   0  0  0  0  0  0  0  0  0  0  0  0
   37.8060   24.7490   34.0960 H   0  0  0  0  0  0  0  0  0  0  0  0
   35.8950   28.4370   31.5030 H   0  0  0  0  0  0  0  0  0  0  0  0
   36.6620   23.9590   31.8840 C   0  0  0  0  0  0  0  0  0  0  0  0
   35.6420   23.1320   31.6210 C   0  0  0  0  0  0  0  0  0  0  0  0
   34.6460   23.5250   31.7760 H   0  0  0  0  0  0  0  0  0  0  0  0
   35.9340   21.8620   31.1790 C   0  0  0  0  0  3  0  0  0  0  0  0
   37.2080   21.4940   31.0260 C   0  0  0  0  0  3  0  0  0  0  0  0
   38.1450   22.9690   31.5140 S   0  0  0  0  0  0  0  0  0  0  0  0
   38.1630   27.2010   35.2700 C   0  0  0  0  0  0  0  0  0  0  0  0
   37.7060   28.4170   35.7730 F   0  0  0  0  0  0  0  0  0  0  0  0
   37.9420   26.1560   36.1140 F   0  0  0  0  0  0  0  0  0  0  0  0
   39.5160   27.3560   34.9900 F   0  0  0  0  0  0  0  0  0  0  0  0
  1 15  1  0  0  0  0
  2  1  1  0  0  0  0
  2  7  1  0  0  0  0
  3  2  2  0  0  0  0
  4  5  2  0  0  0  0
  4  3  1  0  0  0  0
  5  6  1  0  0  0  0
  6  1  2  0  0  0  0
  8  5  1  0  0  0  0
  9  3  1  0  0  0  0
 10 11  1  0  0  0  0
 10  9  2  0  0  0  0
 12 10  1  0  0  0  0
 13 12  2  0  0  0  0
 13 14  1  0  0  0  0
 14  9  1  0  0  0  0
 15 16  1  0  0  0  0
 15 17  1  0  0  0  0
 18 15  1  0  0  0  0
M  END
>  <minimizedAffinity>
-4.15910816

$$$$
