
 OpenBabel03262520423D

 18 19  0  0  0  0  0  0  0  0999 V2000
   37.8520   30.4080   49.9630 C   0  0  0  0  0  0  0  0  0  0  0  0
   38.0860   30.4930   48.5670 C   0  0  0  0  0  0  0  0  0  0  0  0
   36.9960   30.6930   47.7330 C   0  0  0  0  0  0  0  0  0  0  0  0
   35.7590   30.7990   48.2780 N   0  0  0  0  0  0  0  0  0  0  0  0
   35.5690   30.7140   49.6150 C   0  0  0  0  0  0  0  0  0  0  0  0
   36.6090   30.5210   50.4450 N   0  0  0  0  0  0  0  0  0  0  0  0
   38.6830   30.2520   50.6440 H   0  0  0  0  0  0  0  0  0  0  0  0
   39.0970   30.4020   48.1640 H   0  0  0  0  0  0  0  0  0  0  0  0
   34.5890   30.7960   50.0760 H   0  0  0  0  0  0  0  0  0  0  0  0
   37.2220   30.7830   46.2700 C   0  0  0  0  0  0  0  0  0  0  0  0
   37.4490   29.7850   45.8430 H   0  0  0  0  0  0  0  0  0  0  0  0
   36.2870   31.1350   45.7960 H   0  0  0  0  0  0  0  0  0  0  0  0
   38.2810   31.7660   45.9690 C   0  0  0  0  0  0  0  0  0  0  0  0
   39.2690   32.3570   46.7160 C   0  0  0  0  0  0  0  0  0  0  0  0
   39.2970   32.0470   47.7510 H   0  0  0  0  0  0  0  0  0  0  0  0
   40.0830   33.2400   46.0880 C   0  0  0  0  0  0  0  0  0  0  0  0
   39.9070   33.5140   44.7790 C   0  0  0  0  0  0  0  0  0  0  0  0
   38.4920   32.4830   44.2860 S   0  0  0  0  0  0  0  0  0  0  0  0
  1  6  1  0  0  0  0
  1  7  1  0  0  0  0
  2  1  2  0  0  0  0
  3  4  2  0  0  0  0
  3  2  1  0  0  0  0
  4  5  1  0  0  0  0
  5  9  1  0  0  0  0
  5  6  2  0  0  0  0
  8  2  1  0  0  0  0
 10  3  1  0  0  0  0
 11 10  1  0  0  0  0
 12 10  1  0  0  0  0
 13 10  1  0  0  0  0
 13 14  2  0  0  0  0
 14 15  1  0  0  0  0
 16 14  1  0  0  0  0
 17 16  2  0  0  0  0
 18 17  1  0  0  0  0
 18 13  1  0  0  0  0
M  END
>  <minimizedAffinity>
-4.19654226

>  <minimizedRMSD>
2.14795804

$$$$
