
 OpenBabel03272510023D

 18 19  0  0  0  0  0  0  0  0999 V2000
   38.2800   32.9770   49.5220 C   0  0  0  0  0  0  0  0  0  0  0  0
   38.8150   32.9940   48.2160 C   0  0  0  0  0  0  0  0  0  0  0  0
   38.3010   32.0720   47.3200 C   0  0  0  0  0  0  0  0  0  0  0  0
   37.3330   31.2120   47.7150 N   0  0  0  0  0  0  0  0  0  0  0  0
   36.8460   31.2280   48.9780 C   0  0  0  0  0  0  0  0  0  0  0  0
   37.3300   32.1110   49.8600 N   0  0  0  0  0  0  0  0  0  0  0  0
   38.6660   33.6910   50.2470 H   0  0  0  0  0  0  0  0  0  0  0  0
   39.5720   33.7010   47.9890 H   0  0  0  0  0  0  0  0  0  0  0  0
   38.8040   32.0360   45.9660 C   0  0  0  0  0  0  0  0  0  0  0  0
   38.3600   32.4660   44.7680 C   0  0  0  0  0  0  0  0  0  0  0  0
   37.3880   32.9630   44.8220 H   0  0  0  0  0  0  0  0  0  0  0  0
   39.0790   32.2770   43.6440 C   0  0  0  0  0  3  0  0  0  0  0  0
   40.2900   31.6230   43.7900 C   0  0  0  0  0  3  0  0  0  0  0  0
   40.3630   31.2800   45.6220 S   0  0  0  0  0  0  0  0  0  0  0  0
   35.7890   30.2570   49.3360 C   0  0  0  0  0  0  0  0  0  0  0  0
   35.7140   30.0220   50.6990 F   0  0  0  0  0  0  0  0  0  0  0  0
   34.5380   30.7050   48.9470 F   0  0  0  0  0  0  0  0  0  0  0  0
   35.9500   29.0360   48.7110 F   0  0  0  0  0  0  0  0  0  0  0  0
  1  6  1  0  0  0  0
  1  7  1  0  0  0  0
  2  1  2  0  0  0  0
  3  4  2  0  0  0  0
  3  2  1  0  0  0  0
  4  5  1  0  0  0  0
  5 15  1  0  0  0  0
  5  6  2  0  0  0  0
  8  2  1  0  0  0  0
  9  3  1  0  0  0  0
 10 11  1  0  0  0  0
 10  9  2  0  0  0  0
 12 13  2  0  0  0  0
 12 10  1  0  0  0  0
 13 14  1  0  0  0  0
 14  9  1  0  0  0  0
 15 16  1  0  0  0  0
 17 15  1  0  0  0  0
 18 15  1  0  0  0  0
M  END
>  <minimizedAffinity>
-5.1055913

>  <minimizedRMSD>
1.94230461

$$$$
