
 OpenBabel03262523413D

 35 37  0  0  1  0  0  0  0  0999 V2000
   37.2900   29.2930   50.5610 C   0  0  0  0  0  0  0  0  0  0  0  0
   36.7160   29.1160   49.3060 C   0  0  0  0  0  0  0  0  0  0  0  0
   35.3510   29.1280   49.1060 C   0  0  0  0  0  0  0  0  0  0  0  0
   34.6230   29.3220   50.2260 N   0  0  0  0  0  0  0  0  0  0  0  0
   35.1410   29.4960   51.4540 C   0  0  0  0  0  0  0  0  0  0  0  0
   36.4820   29.4790   51.6090 N   0  0  0  0  0  0  0  0  0  0  0  0
   34.7870   28.9510   47.8380 N   0  0  0  0  0  0  0  0  0  0  0  0
   34.1680   27.6780   47.5860 C   0  0  0  0  0  0  0  0  0  0  0  0
   33.4330   27.5750   46.2940 C   0  0  0  0  0  0  0  0  0  0  0  0
   33.4840   28.6360   45.4120 N   0  0  0  0  0  0  0  0  0  0  0  0
   34.4160   29.6510   45.5140 C   0  0  0  0  0  0  0  0  0  0  0  0
   34.8590   30.0370   46.8960 C   0  0  2  0  0  0  0  0  0  0  0  0
   38.3580   29.2880   50.7390 H   0  0  0  0  0  0  0  0  0  0  0  0
   37.4560   28.9690   48.5370 H   0  0  0  0  0  0  0  0  0  0  0  0
   34.4930   29.6480   52.3090 H   0  0  0  0  0  0  0  0  0  0  0  0
   33.5310   27.4520   48.4700 H   0  0  0  0  0  0  0  0  0  0  0  0
   35.0120   26.9320   47.6470 H   0  0  0  0  0  0  0  0  0  0  0  0
   32.3490   27.3890   46.5440 H   0  0  0  0  0  0  0  0  0  0  0  0
   33.7580   26.6390   45.7900 H   0  0  0  0  0  0  0  0  0  0  0  0
   32.5910   28.8590   44.9560 H   0  0  0  0  0  0  0  0  0  0  0  0
   35.3240   29.3020   44.9230 H   0  0  0  0  0  0  0  0  0  0  0  0
   34.0360   30.5380   44.9990 H   0  0  0  0  0  0  0  0  0  0  0  0
   34.2250   30.8540   47.3110 H   0  0  0  0  0  0  0  0  0  0  0  0
   36.2410   30.6050   46.7340 C   0  0  0  0  0  0  0  0  0  0  0  0
   36.4070   31.5900   47.1550 H   0  0  0  0  0  0  0  0  0  0  0  0
   36.9610   29.8970   47.2460 H   0  0  0  0  0  0  0  0  0  0  0  0
   36.5690   30.5030   45.2460 C   0  0  0  0  0  0  0  0  0  0  0  0
   36.7030   29.4870   44.9010 H   0  0  0  0  0  0  0  0  0  0  0  0
   35.8940   31.1150   44.6320 H   0  0  0  0  0  0  0  0  0  0  0  0
   37.9310   31.2010   45.0350 C   0  0  0  0  0  0  0  0  0  0  0  0
   38.2430   32.5170   45.0100 C   0  0  0  0  0  0  0  0  0  0  0  0
   37.4270   33.2070   45.1600 H   0  0  0  0  0  0  0  0  0  0  0  0
   39.5380   32.8480   44.8040 C   0  0  0  0  0  3  0  0  0  0  0  0
   40.4760   31.8230   44.6270 C   0  0  0  0  0  3  0  0  0  0  0  0
   39.3450   30.3040   44.7830 S   0  0  0  0  0  0  0  0  0  0  0  0
  1 13  1  0  0  0  0
  1  6  1  0  0  0  0
  2  1  2  0  0  0  0
  3  2  1  0  0  0  0
  3  4  2  0  0  0  0
  4  5  1  0  0  0  0
  5  6  2  0  0  0  0
  5 15  1  0  0  0  0
  7  3  1  0  0  0  0
  8 17  1  0  0  0  0
  8  7  1  0  0  0  0
  8 16  1  0  0  0  0
  9 18  1  0  0  0  0
  9  8  1  0  0  0  0
 10 11  1  0  0  0  0
 10  9  1  0  0  0  0
 11 12  1  0  0  0  0
 12 23  1  1  0  0  0
 12  7  1  0  0  0  0
 14  2  1  0  0  0  0
 19  9  1  0  0  0  0
 20 10  1  0  0  0  0
 21 11  1  0  0  0  0
 22 11  1  0  0  0  0
 24 12  1  0  0  0  0
 24 25  1  0  0  0  0
 24 26  1  0  0  0  0
 27 24  1  0  0  0  0
 28 27  1  0  0  0  0
 29 27  1  0  0  0  0
 30 27  1  0  0  0  0
 31 30  2  0  0  0  0
 31 32  1  0  0  0  0
 33 31  1  0  0  0  0
 34 35  1  0  0  0  0
 34 33  2  0  0  0  0
 35 30  1  0  0  0  0
M  END
>  <minimizedAffinity>
-4.43752193

>  <minimizedRMSD>
5.59719086

$$$$
