
 OpenBabel03272510123D

 32 35  0  0  0  0  0  0  0  0999 V2000
   33.2620   28.3240   48.9480 C   0  0  0  0  0  0  0  0  0  0  0  0
   33.5280   28.9310   50.1270 C   0  0  0  0  0  0  0  0  0  0  0  0
   34.7580   29.4580   50.4810 C   0  0  0  0  0  0  0  0  0  0  0  0
   35.8020   29.3840   49.6100 C   0  0  0  0  0  0  0  0  0  0  0  0
   35.5340   28.7580   48.3850 C   0  0  0  0  0  0  0  0  0  0  0  0
   34.3170   28.2600   48.0920 N   0  0  0  0  0  0  0  0  0  0  0  0
   32.7600   29.0360   50.8830 H   0  0  0  0  0  0  0  0  0  0  0  0
   34.9700   29.9430   51.4230 H   0  0  0  0  0  0  0  0  0  0  0  0
   36.2830   28.6360   47.6060 H   0  0  0  0  0  0  0  0  0  0  0  0
   30.8440   27.8380   49.4100 C   0  0  0  0  0  0  0  0  0  0  0  0
   31.9830   27.7780   48.5880 C   0  0  0  0  0  0  0  0  0  0  0  0
   31.8310   27.1480   47.3620 C   0  0  0  0  0  0  0  0  0  0  0  0
   30.6300   26.6260   47.0070 N   0  0  0  0  0  0  0  0  0  0  0  0
   29.5650   26.7140   47.8420 C   0  0  0  0  0  0  0  0  0  0  0  0
   29.6660   27.3120   49.0310 N   0  0  0  0  0  0  0  0  0  0  0  0
   30.9280   28.3170   50.3620 H   0  0  0  0  0  0  0  0  0  0  0  0
   32.6870   27.0700   46.6740 H   0  0  0  0  0  0  0  0  0  0  0  0
   28.6290   26.2750   47.4960 H   0  0  0  0  0  0  0  0  0  0  0  0
   37.1040   29.8590   49.7920 O   0  0  0  0  0  0  0  0  0  0  0  0
   37.6900   30.7410   48.8990 C   0  0  0  0  0  0  0  0  0  0  0  0
   38.2190   31.8940   49.4930 C   0  0  0  0  0  0  0  0  0  0  0  0
   38.7750   32.6980   48.5200 C   0  0  0  0  0  0  0  0  0  0  0  0
   38.5700   32.0230   47.3810 N   0  0  0  0  0  0  0  0  0  0  0  0
   37.9420   30.8890   47.5920 N   0  0  0  0  0  0  0  0  0  0  0  0
   38.2760   32.2640   50.5320 H   0  0  0  0  0  0  0  0  0  0  0  0
   39.2760   33.6610   48.5760 H   0  0  0  0  0  0  0  0  0  0  0  0
   38.9280   32.3670   46.0270 C   0  0  0  0  0  0  0  0  0  0  0  0
   37.9820   32.3100   45.0420 C   0  0  0  0  0  0  0  0  0  0  0  0
   36.9400   32.0330   45.1010 H   0  0  0  0  0  0  0  0  0  0  0  0
   38.1810   32.6030   43.7530 C   0  0  0  0  0  3  0  0  0  0  0  0
   39.5440   33.0100   43.4330 C   0  0  0  0  0  3  0  0  0  0  0  0
   40.4480   32.9230   45.1310 S   0  0  0  0  0  0  0  0  0  0  0  0
  1  2  1  0  0  0  0
  2  3  2  0  0  0  0
  2  7  1  0  0  0  0
  3  8  1  0  0  0  0
  4 19  1  0  0  0  0
  4  3  1  0  0  0  0
  5  4  2  0  0  0  0
  6  5  1  0  0  0  0
  6  1  2  0  0  0  0
  9  5  1  0  0  0  0
 10 16  1  0  0  0  0
 11  1  1  0  0  0  0
 11 10  2  0  0  0  0
 12 11  1  0  0  0  0
 13 12  2  0  0  0  0
 13 14  1  0  0  0  0
 14 15  2  0  0  0  0
 15 10  1  0  0  0  0
 17 12  1  0  0  0  0
 18 14  1  0  0  0  0
 20 21  1  0  0  0  0
 20 19  1  0  0  0  0
 21 25  1  0  0  0  0
 22 26  1  0  0  0  0
 22 21  2  0  0  0  0
 23 24  1  0  0  0  0
 23 22  1  0  0  0  0
 24 20  2  0  0  0  0
 27 23  1  0  0  0  0
 28 29  1  0  0  0  0
 28 27  2  0  0  0  0
 30 28  1  0  0  0  0
 31 30  2  0  0  0  0
 31 32  1  0  0  0  0
 32 27  1  0  0  0  0
M  END
>  <minimizedAffinity>
-5.61513996

>  <minimizedRMSD>
1.63620055

$$$$
