
 OpenBabel03262520323D

 20 21  0  0  0  0  0  0  0  0999 V2000
   34.7380   28.3510   49.7160 C   0  0  0  0  0  0  0  0  0  0  0  0
   34.3940   28.1370   48.4860 C   0  0  0  0  0  0  0  0  0  0  0  0
   37.3750   30.2480   51.4010 C   0  0  0  0  0  0  0  0  0  0  0  0
   38.1330   30.7360   50.3280 C   0  0  0  0  0  0  0  0  0  0  0  0
   37.7140   30.3980   49.0340 C   0  0  0  0  0  0  0  0  0  0  0  0
   36.5930   29.6130   48.9040 N   0  0  0  0  0  0  0  0  0  0  0  0
   35.9060   29.1740   49.9680 C   0  0  0  0  0  0  0  0  0  0  0  0
   36.3010   29.4930   51.1980 N   0  0  0  0  0  0  0  0  0  0  0  0
   37.7690   30.5570   52.3560 H   0  0  0  0  0  0  0  0  0  0  0  0
   39.0060   31.3440   50.3340 H   0  0  0  0  0  0  0  0  0  0  0  0
   38.1840   30.6900   48.1010 H   0  0  0  0  0  0  0  0  0  0  0  0
   33.2370   27.3290   47.9940 C   0  0  0  0  0  0  0  0  0  0  0  0
   32.8000   26.8230   48.8770 H   0  0  0  0  0  0  0  0  0  0  0  0
   32.4550   28.0340   47.6340 H   0  0  0  0  0  0  0  0  0  0  0  0
   33.6710   26.3570   47.0240 C   0  0  0  0  0  0  0  0  0  0  0  0
   34.0500   25.0350   47.0650 C   0  0  0  0  0  0  0  0  0  0  0  0
   34.0180   24.6160   48.0610 H   0  0  0  0  0  0  0  0  0  0  0  0
   34.4190   24.3670   45.9430 C   0  0  0  0  0  0  0  0  0  0  0  0
   34.4040   25.0600   44.7370 C   0  0  0  0  0  0  0  0  0  0  0  0
   33.8170   26.7830   45.2860 S   0  0  0  0  0  0  0  0  0  0  0  0
  1  7  1  0  0  0  0
  2  1  2  0  0  0  0
  3  9  1  0  0  0  0
  4 10  1  0  0  0  0
  4  3  2  0  0  0  0
  5  4  1  0  0  0  0
  6  5  2  0  0  0  0
  6  7  1  0  0  0  0
  7  8  2  0  0  0  0
  8  3  1  0  0  0  0
 11  5  1  0  0  0  0
 12  2  1  0  0  0  0
 12 13  1  0  0  0  0
 14 12  1  0  0  0  0
 15 16  2  0  0  0  0
 15 12  1  0  0  0  0
 16 17  1  0  0  0  0
 18 16  1  0  0  0  0
 19 20  1  0  0  0  0
 19 18  2  0  0  0  0
 20 15  1  0  0  0  0
M  END
>  <minimizedAffinity>
-4.28141975

>  <minimizedRMSD>
0.656390488

$$$$
