REMARK  Name = 
REMARK  3 active torsions:
REMARK  status: ('A' for Active; 'I' for Inactive)
REMARK    1  A    between atoms: C_2  and  C_14
REMARK    2  A    between atoms: C_3  and  C_8
REMARK    3  A    between atoms: C_12  and  C_24
REMARK                            x       y       z     vdW  Elec       q    Type
REMARK                         _______ _______ _______ _____ _____    ______ ____
ROOT
ATOM      1  C   UNL     1      37.222  31.459  48.600  0.00  0.00    +0.000 A 
ATOM      2  C   UNL     1      37.197  32.509  49.512  0.00  0.00    +0.000 A 
ATOM      3  C   UNL     1      38.158  33.499  49.435  0.00  0.00    +0.000 A 
ATOM      4  C   UNL     1      39.134  33.467  48.479  0.00  0.00    +0.000 A 
ATOM      5  C   UNL     1      39.132  32.419  47.594  0.00  0.00    +0.000 A 
ATOM      6  N   UNL     1      38.196  31.440  47.657  0.00  0.00    +0.000 NA
ATOM      7  H   UNL     1      36.499  32.682  50.322  0.00  0.00    +0.000 HD
ATOM      8  H   UNL     1      38.216  34.347  50.097  0.00  0.00    +0.000 HD
ATOM      9  H   UNL     1      39.946  34.138  48.273  0.00  0.00    +0.000 HD
ENDROOT
BRANCH   1  12
ATOM     10  C   UNL     1      35.170  28.671  50.028  0.00  0.00    +0.000 A 
ATOM     11  C   UNL     1      36.237  29.601  49.850  0.00  0.00    +0.000 A 
ATOM     12  C   UNL     1      36.155  30.502  48.806  0.00  0.00    +0.000 A 
ATOM     13  N   UNL     1      35.060  30.459  47.998  0.00  0.00    +0.000 NA
ATOM     14  C   UNL     1      34.061  29.553  48.202  0.00  0.00    +0.000 A 
ATOM     15  N   UNL     1      34.108  28.673  49.197  0.00  0.00    +0.000 NA
ATOM     16  N   UNL     1      33.024  29.709  47.221  0.00  0.00    +0.000 N 
ATOM     17  H   UNL     1      35.190  27.949  50.830  0.00  0.00    +0.000 HD
ATOM     18  H   UNL     1      33.235  29.311  46.266  0.00  0.00    +0.000 HD
ATOM     19  H   UNL     1      32.275  30.210  47.731  0.00  0.00    +0.000 HD
BRANCH  11  20
ATOM     20  C   UNL     1      37.386  29.550  50.802  0.00  0.00    +0.000 C 
ATOM     21  F   UNL     1      38.585  29.808  50.146  0.00  0.00    +0.000 F 
ATOM     22  F   UNL     1      37.190  30.503  51.760  0.00  0.00    +0.000 F 
ATOM     23  F   UNL     1      37.514  28.328  51.427  0.00  0.00    +0.000 F 
ENDBRANCH  11  20
ENDBRANCH   1  12
BRANCH   5  24
ATOM     24  C   UNL     1      40.042  32.098  46.457  0.00  0.00    +0.000 A 
ATOM     25  C   UNL     1      41.198  32.739  46.390  0.00  0.00    +0.000 A 
ATOM     26  H   UNL     1      41.673  33.508  47.025  0.00  0.00    +0.000 HD
ATOM     27  C   UNL     1      42.166  32.610  45.457  0.00  0.00    +0.000 A 
ATOM     28  C   UNL     1      41.740  31.608  44.477  0.00  0.00    +0.000 A 
ATOM     29  S   UNL     1      40.008  31.049  45.105  0.00  0.00    +0.000 S 
ENDBRANCH   5  24
TORSDOF 3
