
 OpenBabel03272507583D

 29 31  0  0  0  0  0  0  0  0999 V2000
   37.0430   31.3460   48.5640 C   0  0  0  0  0  0  0  0  0  0  0  0
   37.2150   32.3010   49.5610 C   0  0  0  0  0  0  0  0  0  0  0  0
   38.1630   33.2930   49.3950 C   0  0  0  0  0  0  0  0  0  0  0  0
   38.9370   33.3530   48.2710 C   0  0  0  0  0  0  0  0  0  0  0  0
   38.7440   32.3970   47.3060 C   0  0  0  0  0  0  0  0  0  0  0  0
   37.8180   31.4180   47.4540 N   0  0  0  0  0  0  0  0  0  0  0  0
   36.6890   32.3950   50.5030 H   0  0  0  0  0  0  0  0  0  0  0  0
   38.3640   34.0710   50.1120 H   0  0  0  0  0  0  0  0  0  0  0  0
   39.7080   34.0400   47.9780 H   0  0  0  0  0  0  0  0  0  0  0  0
   35.1570   28.5770   50.2380 C   0  0  0  0  0  0  0  0  0  0  0  0
   36.1870   29.5230   49.9520 C   0  0  0  0  0  0  0  0  0  0  0  0
   36.0160   30.3750   48.8790 C   0  0  0  0  0  0  0  0  0  0  0  0
   34.8730   30.2720   48.1460 N   0  0  0  0  0  0  0  0  0  0  0  0
   33.9120   29.3540   48.4530 C   0  0  0  0  0  0  0  0  0  0  0  0
   34.0450   28.5190   49.4780 N   0  0  0  0  0  0  0  0  0  0  0  0
   32.8110   29.4440   47.5350 N   0  0  0  0  0  0  0  0  0  0  0  0
   35.2470   27.8920   51.0670 H   0  0  0  0  0  0  0  0  0  0  0  0
   32.9710   29.0090   46.5860 H   0  0  0  0  0  0  0  0  0  0  0  0
   32.0840   29.9500   48.0710 H   0  0  0  0  0  0  0  0  0  0  0  0
   37.3950   29.5390   50.8290 C   0  0  0  0  0  0  0  0  0  0  0  0
   38.5390   29.8240   50.0910 F   0  0  0  0  0  0  0  0  0  0  0  0
   37.2240   30.5090   51.7750 F   0  0  0  0  0  0  0  0  0  0  0  0
   37.6100   28.3390   51.4730 F   0  0  0  0  0  0  0  0  0  0  0  0
   39.4130   32.1880   45.9900 C   0  0  0  0  0  0  0  0  0  0  0  0
   38.8810   32.7720   44.9270 C   0  0  0  0  0  0  0  0  0  0  0  0
   38.0000   33.4210   44.7840 H   0  0  0  0  0  0  0  0  0  0  0  0
   39.3140   32.7210   43.6480 C   0  0  0  0  0  3  0  0  0  0  0  0
   40.5170   31.8860   43.5950 C   0  0  0  0  0  3  0  0  0  0  0  0
   40.7840   31.3370   45.4210 S   0  0  0  0  0  0  0  0  0  0  0  0
  1 12  1  0  0  0  0
  1  2  1  0  0  0  0
  2  7  1  0  0  0  0
  3  2  2  0  0  0  0
  3  8  1  0  0  0  0
  4  3  1  0  0  0  0
  5  6  1  0  0  0  0
  5  4  2  0  0  0  0
  6  1  2  0  0  0  0
  9  4  1  0  0  0  0
 10 17  1  0  0  0  0
 11 10  1  0  0  0  0
 11 20  1  0  0  0  0
 12 11  2  0  0  0  0
 13 14  2  0  0  0  0
 13 12  1  0  0  0  0
 14 15  1  0  0  0  0
 15 10  2  0  0  0  0
 16 19  1  0  0  0  0
 16 14  1  0  0  0  0
 18 16  1  0  0  0  0
 20 23  1  0  0  0  0
 20 22  1  0  0  0  0
 21 20  1  0  0  0  0
 24  5  1  0  0  0  0
 25 24  2  0  0  0  0
 26 25  1  0  0  0  0
 27 25  1  0  0  0  0
 28 27  2  0  0  0  0
 28 29  1  0  0  0  0
 29 24  1  0  0  0  0
M  END
>  <minimizedAffinity>
-7.04316521

>  <minimizedRMSD>
0.729892075

$$$$
