
 OpenBabel03272509463D

 22 23  0  0  0  0  0  0  0  0999 V2000
   34.0440   28.4980   48.6680 C   0  0  0  0  0  0  0  0  0  0  0  0
   33.0960   28.9770   48.9760 H   0  0  0  0  0  0  0  0  0  0  0  0
   34.5780   29.2240   48.0210 H   0  0  0  0  0  0  0  0  0  0  0  0
   33.8130   27.1810   47.9670 C   0  0  0  0  0  0  0  0  0  0  0  0
   32.8970   26.7500   48.4660 H   0  0  0  0  0  0  0  0  0  0  0  0
   34.6170   26.4650   48.1130 H   0  0  0  0  0  0  0  0  0  0  0  0
   33.5450   27.4580   46.5310 C   0  0  0  0  0  0  0  0  0  0  0  0
   33.8560   26.8110   45.3810 C   0  0  0  0  0  0  0  0  0  0  0  0
   34.4270   25.8860   45.5290 H   0  0  0  0  0  0  0  0  0  0  0  0
   33.4760   27.3010   44.1830 C   0  0  0  0  0  3  0  0  0  0  0  0
   32.7650   28.4770   44.1990 C   0  0  0  0  0  3  0  0  0  0  0  0
   32.6510   28.8810   46.0470 S   0  0  0  0  0  0  0  0  0  0  0  0
   34.7530   28.2710   49.8840 O   0  0  0  0  0  0  0  0  0  0  0  0
   37.3860   30.2700   51.3890 C   0  0  0  0  0  0  0  0  0  0  0  0
   38.0620   30.6910   50.2480 C   0  0  0  0  0  0  0  0  0  0  0  0
   37.5870   30.2710   49.0110 C   0  0  0  0  0  0  0  0  0  0  0  0
   36.4750   29.4650   49.0140 N   0  0  0  0  0  0  0  0  0  0  0  0
   35.8470   29.0790   50.1440 C   0  0  0  0  0  0  0  0  0  0  0  0
   36.3200   29.4940   51.3270 N   0  0  0  0  0  0  0  0  0  0  0  0
   37.7740   30.6110   52.3540 H   0  0  0  0  0  0  0  0  0  0  0  0
   38.9370   31.3240   50.2380 H   0  0  0  0  0  0  0  0  0  0  0  0
   38.0600   30.5560   48.0840 H   0  0  0  0  0  0  0  0  0  0  0  0
  1  2  1  0  0  0  0
  1 13  1  0  0  0  0
  3  1  1  0  0  0  0
  4  6  1  0  0  0  0
  4  5  1  0  0  0  0
  4  1  1  0  0  0  0
  7  4  1  0  0  0  0
  8  9  1  0  0  0  0
  8  7  2  0  0  0  0
 10 11  2  0  0  0  0
 10  8  1  0  0  0  0
 11 12  1  0  0  0  0
 12  7  1  0  0  0  0
 13 18  1  0  0  0  0
 14 20  1  0  0  0  0
 15 14  2  0  0  0  0
 16 17  2  0  0  0  0
 16 15  1  0  0  0  0
 17 18  1  0  0  0  0
 18 19  2  0  0  0  0
 19 14  1  0  0  0  0
 21 15  1  0  0  0  0
 22 16  1  0  0  0  0
M  END
>  <minimizedAffinity>
-3.67336369

>  <minimizedRMSD>
0.463084042

$$$$
