
     RDKit          3D

 37 39  0  0  0  0  0  0  0  0999 V2000
   36.8368   29.4967   51.1988 C   0  0  0  0  0  0  0  0  0  0  0  0
   37.5835   30.1483   50.2225 C   0  0  0  0  0  0  0  0  0  0  0  0
   37.0253   30.6251   49.0546 C   0  0  0  0  0  0  0  0  0  0  0  0
   35.6979   30.4058   48.9402 N   0  0  0  0  0  0  0  0  0  0  0  0
   34.9426   29.7807   49.8605 C   0  0  0  0  0  0  0  0  0  0  0  0
   35.5266   29.3289   50.9906 N   0  0  0  0  0  0  0  0  0  0  0  0
   37.7866   31.2803   48.0820 N   0  0  0  0  0  0  0  0  0  0  0  0
   38.0730   30.5350   46.8860 C   0  0  0  0  0  0  0  0  0  0  0  0
   38.7425   31.3093   45.8023 C   0  0  0  0  0  0  0  0  0  0  0  0
   39.1219   32.6116   46.0508 N   0  0  0  0  0  0  0  0  0  0  0  0
   39.2012   33.1390   47.3262 C   0  0  0  0  0  0  0  0  0  0  0  0
   38.2175   32.6293   48.3397 C   0  0  2  0  0  0  0  0  0  0  0  0
   38.8850   32.8059   49.6747 C   0  0  0  0  0  0  0  0  0  0  0  0
   39.4896   34.2080   49.6641 C   0  0  0  0  0  0  0  0  0  0  0  0
   37.2559   29.1157   52.1215 H   0  0  0  0  0  0  0  0  0  0  0  0
   38.6248   30.2229   50.4889 H   0  0  0  0  0  0  0  0  0  0  0  0
   33.8812   29.6406   49.6997 H   0  0  0  0  0  0  0  0  0  0  0  0
   37.1159   30.0694   46.5637 H   0  0  0  0  0  0  0  0  0  0  0  0
   38.7067   29.6692   47.2329 H   0  0  0  0  0  0  0  0  0  0  0  0
   38.0376   31.3185   44.9208 H   0  0  0  0  0  0  0  0  0  0  0  0
   39.6122   30.7147   45.4457 H   0  0  0  0  0  0  0  0  0  0  0  0
   38.9429   33.2668   45.2798 H   0  0  0  0  0  0  0  0  0  0  0  0
   40.2554   32.9142   47.6931 H   0  0  0  0  0  0  0  0  0  0  0  0
   39.1227   34.2290   47.2683 H   0  0  0  0  0  0  0  0  0  0  0  0
   37.2952   33.2536   48.3591 H   0  0  0  0  0  0  0  0  0  0  0  0
   38.2763   32.5957   50.5468 H   0  0  0  0  0  0  0  0  0  0  0  0
   39.7695   32.0999   49.7079 H   0  0  0  0  0  0  0  0  0  0  0  0
   40.2735   34.3350   48.9304 H   0  0  0  0  0  0  0  0  0  0  0  0
   38.7185   34.9899   49.6579 H   0  0  0  0  0  0  0  0  0  0  0  0
   40.1643   34.4194   51.0385 C   0  0  0  0  0  0  0  0  0  0  0  0
   39.9249   35.3452   51.9939 C   0  0  0  0  0  0  0  0  0  0  0  0
   39.1440   36.0602   51.7867 H   0  0  0  0  0  0  0  0  0  0  0  0
   40.6792   35.2938   53.1156 C   0  0  0  0  0  0  0  0  0  0  0  0
   41.6556   34.2971   53.2265 C   0  0  0  0  0  0  0  0  0  0  0  0
   41.4160   33.4077   51.5642 S   0  0  0  0  0  0  0  0  0  0  0  0
   40.5371   36.0185   53.9354 H   0  0  0  0  0  0  0  0  0  0  0  0
   42.3240   34.1974   54.1426 H   0  0  0  0  0  0  0  0  0  0  0  0
  2  1  2  0
  3  2  1  0
  4  3  2  0
  4  5  1  0
  5  6  2  0
  6  1  1  0
  7 12  1  0
  7  3  1  0
  8  7  1  0
  9 10  1  0
  9  8  1  0
 10 11  1  0
 11 12  1  0
 12 13  1  0
 14 13  1  0
  1 15  1  0
  2 16  1  0
  5 17  1  0
  8 18  1  0
  8 19  1  0
  9 20  1  0
  9 21  1  0
 10 22  1  0
 11 23  1  0
 11 24  1  0
 12 25  1  1
 13 26  1  0
 13 27  1  0
 14 28  1  0
 14 29  1  0
 30 31  2  0
 31 32  1  0
 31 33  1  0
 33 34  2  0
 34 35  1  0
 35 30  1  0
 33 36  1  0
 34 37  1  0
 14 30  1  0
M  ISO  8  15  14  16  14  17  14  18  13  19  13  20  13  21  13  22   5
M  ISO  8  23  13  24  13  25  13  26   8  27   8  28   8  29   8  32  15
M  END
>  <DihAtoms>  (1) 
12,13,29,30

>  <DihDeg>  (1) 
-179.9939857116729

$$$$
