
 OpenBabel03262520333D

 20 21  0  0  0  0  0  0  0  0999 V2000
   37.7580   22.1350   34.7330 C   0  0  0  0  0  3  0  0  0  0  0  0
   37.9040   22.9510   33.7370 C   0  0  0  0  0  3  0  0  0  0  0  0
   39.9550   22.6840   37.6070 C   0  0  0  0  0  0  0  0  0  0  0  0
   39.1160   23.3530   38.5100 C   0  0  0  0  0  0  0  0  0  0  0  0
   37.7980   23.6030   38.1030 C   0  0  0  0  0  0  0  0  0  0  0  0
   37.4180   23.1760   36.8520 N   0  0  0  0  0  0  0  0  0  0  0  0
   38.2640   22.5410   36.0310 C   0  0  0  0  0  0  0  0  0  0  0  0
   39.5170   22.3020   36.4140 N   0  0  0  0  0  0  0  0  0  0  0  0
   40.9470   22.5360   38.0030 H   0  0  0  0  0  0  0  0  0  0  0  0
   39.3230   23.7160   39.4880 H   0  0  0  0  0  0  0  0  0  0  0  0
   37.0250   24.1050   38.6750 H   0  0  0  0  0  0  0  0  0  0  0  0
   37.4650   22.7470   32.3240 C   0  0  0  0  0  0  0  0  0  0  0  0
   38.3840   22.6630   31.7110 H   0  0  0  0  0  0  0  0  0  0  0  0
   36.9680   21.7540   32.2600 H   0  0  0  0  0  0  0  0  0  0  0  0
   36.6640   23.8570   31.8750 C   0  0  0  0  0  0  0  0  0  0  0  0
   35.4840   23.9960   31.1810 C   0  0  0  0  0  0  0  0  0  0  0  0
   35.0450   23.0500   30.9000 H   0  0  0  0  0  0  0  0  0  0  0  0
   34.9650   25.2180   30.9010 C   0  0  0  0  0  3  0  0  0  0  0  0
   35.6640   26.3380   31.3380 C   0  0  0  0  0  3  0  0  0  0  0  0
   37.1600   25.5510   32.2050 S   0  0  0  0  0  0  0  0  0  0  0  0
  1  7  1  0  0  0  0
  2  1  2  0  0  0  0
  3  9  1  0  0  0  0
  3  4  1  0  0  0  0
  4 10  1  0  0  0  0
  5  4  2  0  0  0  0
  5 11  1  0  0  0  0
  6  5  1  0  0  0  0
  7  8  1  0  0  0  0
  7  6  2  0  0  0  0
  8  3  2  0  0  0  0
 12  2  1  0  0  0  0
 13 12  1  0  0  0  0
 14 12  1  0  0  0  0
 15 20  1  0  0  0  0
 15 12  1  0  0  0  0
 16 15  2  0  0  0  0
 17 16  1  0  0  0  0
 18 16  1  0  0  0  0
 18 19  2  0  0  0  0
 19 20  1  0  0  0  0
M  END
>  <minimizedAffinity>
-4.27091217

$$$$

 OpenBabel03262520333D

 20 21  0  0  0  0  0  0  0  0999 V2000
   38.9300   24.2530   34.5290 C   0  0  0  0  0  3  0  0  0  0  0  0
   38.4290   25.3910   34.1660 C   0  0  0  0  0  3  0  0  0  0  0  0
   39.7970   22.8260   37.7860 C   0  0  0  0  0  0  0  0  0  0  0  0
   38.8080   23.3580   38.6250 C   0  0  0  0  0  0  0  0  0  0  0  0
   37.8540   24.2050   38.0440 C   0  0  0  0  0  0  0  0  0  0  0  0
   37.9520   24.4560   36.6960 N   0  0  0  0  0  0  0  0  0  0  0  0
   38.9200   23.9200   35.9420 C   0  0  0  0  0  0  0  0  0  0  0  0
   39.8280   23.1150   36.4900 N   0  0  0  0  0  0  0  0  0  0  0  0
   40.4850   22.1880   38.3170 H   0  0  0  0  0  0  0  0  0  0  0  0
   38.6560   23.2190   39.6690 H   0  0  0  0  0  0  0  0  0  0  0  0
   37.0280   24.6960   38.5480 H   0  0  0  0  0  0  0  0  0  0  0  0
   38.3320   25.9390   32.7790 C   0  0  0  0  0  0  0  0  0  0  0  0
   38.3170   27.0430   32.8710 H   0  0  0  0  0  0  0  0  0  0  0  0
   39.2760   25.6930   32.2470 H   0  0  0  0  0  0  0  0  0  0  0  0
   37.1310   25.4750   32.1320 C   0  0  0  0  0  0  0  0  0  0  0  0
   36.5560   24.2470   31.8980 C   0  0  0  0  0  0  0  0  0  0  0  0
   37.1390   23.4260   32.2890 H   0  0  0  0  0  0  0  0  0  0  0  0
   35.3770   24.1300   31.2380 C   0  0  0  0  0  3  0  0  0  0  0  0
   34.7560   25.2950   30.8000 C   0  0  0  0  0  3  0  0  0  0  0  0
   35.9730   26.6300   31.3900 S   0  0  0  0  0  0  0  0  0  0  0  0
  1  7  1  0  0  0  0
  2  1  2  0  0  0  0
  3  9  1  0  0  0  0
  3  4  1  0  0  0  0
  4 10  1  0  0  0  0
  5 11  1  0  0  0  0
  5  4  2  0  0  0  0
  6  5  1  0  0  0  0
  7  8  1  0  0  0  0
  7  6  2  0  0  0  0
  8  3  2  0  0  0  0
 12 13  1  0  0  0  0
 12  2  1  0  0  0  0
 14 12  1  0  0  0  0
 15 12  1  0  0  0  0
 16 15  2  0  0  0  0
 16 17  1  0  0  0  0
 18 16  1  0  0  0  0
 19 18  2  0  0  0  0
 19 20  1  0  0  0  0
 20 15  1  0  0  0  0
M  END
>  <minimizedAffinity>
-4.10443974

$$$$

 OpenBabel03262520333D

 20 21  0  0  0  0  0  0  0  0999 V2000
   38.1640   22.1070   34.5920 C   0  0  0  0  0  3  0  0  0  0  0  0
   37.8340   23.0130   33.7280 C   0  0  0  0  0  3  0  0  0  0  0  0
   37.8460   23.4880   37.9650 C   0  0  0  0  0  0  0  0  0  0  0  0
   39.1260   23.2830   38.5010 C   0  0  0  0  0  0  0  0  0  0  0  0
   40.0790   22.6670   37.6790 C   0  0  0  0  0  0  0  0  0  0  0  0
   39.6980   22.3070   36.4080 N   0  0  0  0  0  0  0  0  0  0  0  0
   38.4590   22.5280   35.9490 C   0  0  0  0  0  0  0  0  0  0  0  0
   37.5500   23.1120   36.7270 N   0  0  0  0  0  0  0  0  0  0  0  0
   37.1800   23.9660   38.6660 H   0  0  0  0  0  0  0  0  0  0  0  0
   39.5050   23.5270   39.4640 H   0  0  0  0  0  0  0  0  0  0  0  0
   41.1080   22.4370   37.9360 H   0  0  0  0  0  0  0  0  0  0  0  0
   37.4910   22.8130   32.2880 C   0  0  0  0  0  0  0  0  0  0  0  0
   37.0090   23.7490   31.9400 H   0  0  0  0  0  0  0  0  0  0  0  0
   38.4420   22.7330   31.7160 H   0  0  0  0  0  0  0  0  0  0  0  0
   36.5910   21.6990   32.1290 C   0  0  0  0  0  0  0  0  0  0  0  0
   35.2450   21.4920   32.3250 C   0  0  0  0  0  0  0  0  0  0  0  0
   34.7300   22.3710   32.6860 H   0  0  0  0  0  0  0  0  0  0  0  0
   34.6690   20.2890   32.0780 C   0  0  0  0  0  3  0  0  0  0  0  0
   35.4810   19.2600   31.6160 C   0  0  0  0  0  3  0  0  0  0  0  0
   37.1800   20.1080   31.5420 S   0  0  0  0  0  0  0  0  0  0  0  0
  1  7  1  0  0  0  0
  2  1  2  0  0  0  0
  3  4  1  0  0  0  0
  3  9  1  0  0  0  0
  4 10  1  0  0  0  0
  5 11  1  0  0  0  0
  5  4  2  0  0  0  0
  6  5  1  0  0  0  0
  7  6  2  0  0  0  0
  7  8  1  0  0  0  0
  8  3  2  0  0  0  0
 12  2  1  0  0  0  0
 13 12  1  0  0  0  0
 14 12  1  0  0  0  0
 15 12  1  0  0  0  0
 15 16  2  0  0  0  0
 16 17  1  0  0  0  0
 18 16  1  0  0  0  0
 19 18  2  0  0  0  0
 20 19  1  0  0  0  0
 20 15  1  0  0  0  0
M  END
>  <minimizedAffinity>
-4.06091499

$$$$

 OpenBabel03262520333D

 20 21  0  0  0  0  0  0  0  0999 V2000
   36.7760   27.6830   34.5520 C   0  0  0  0  0  3  0  0  0  0  0  0
   37.9700   27.3530   34.9280 C   0  0  0  0  0  3  0  0  0  0  0  0
   35.4490   29.4830   31.6550 C   0  0  0  0  0  0  0  0  0  0  0  0
   36.3700   29.1610   30.6470 C   0  0  0  0  0  0  0  0  0  0  0  0
   37.4380   28.3210   30.9920 C   0  0  0  0  0  0  0  0  0  0  0  0
   37.5110   27.8720   32.2900 N   0  0  0  0  0  0  0  0  0  0  0  0
   36.6020   28.2130   33.2120 C   0  0  0  0  0  0  0  0  0  0  0  0
   35.5860   29.0110   32.8890 N   0  0  0  0  0  0  0  0  0  0  0  0
   34.6640   30.1320   31.3010 H   0  0  0  0  0  0  0  0  0  0  0  0
   36.3910   29.4600   29.6270 H   0  0  0  0  0  0  0  0  0  0  0  0
   38.2320   27.9770   30.3380 H   0  0  0  0  0  0  0  0  0  0  0  0
   38.3830   26.7900   36.2490 C   0  0  0  0  0  0  0  0  0  0  0  0
   39.4540   27.0420   36.3850 H   0  0  0  0  0  0  0  0  0  0  0  0
   37.8400   27.3470   37.0440 H   0  0  0  0  0  0  0  0  0  0  0  0
   38.2000   25.3620   36.2740 C   0  0  0  0  0  0  0  0  0  0  0  0
   37.8360   24.4370   37.2260 C   0  0  0  0  0  0  0  0  0  0  0  0
   37.6400   24.8800   38.1920 H   0  0  0  0  0  0  0  0  0  0  0  0
   37.7480   23.1150   36.9340 C   0  0  0  0  0  3  0  0  0  0  0  0
   38.0360   22.7140   35.6340 C   0  0  0  0  0  3  0  0  0  0  0  0
   38.4600   24.3680   34.8010 S   0  0  0  0  0  0  0  0  0  0  0  0
  1  2  2  0  0  0  0
  2 12  1  0  0  0  0
  3  8  1  0  0  0  0
  4  5  1  0  0  0  0
  4  3  2  0  0  0  0
  5  6  2  0  0  0  0
  6  7  1  0  0  0  0
  7  1  1  0  0  0  0
  8  7  2  0  0  0  0
  9  3  1  0  0  0  0
 10  4  1  0  0  0  0
 11  5  1  0  0  0  0
 12 15  1  0  0  0  0
 12 13  1  0  0  0  0
 12 14  1  0  0  0  0
 15 16  2  0  0  0  0
 16 17  1  0  0  0  0
 18 16  1  0  0  0  0
 19 18  2  0  0  0  0
 20 19  1  0  0  0  0
 20 15  1  0  0  0  0
M  END
>  <minimizedAffinity>
-4.03380775

$$$$

 OpenBabel03262520333D

 20 21  0  0  0  0  0  0  0  0999 V2000
   35.7370   30.5310   34.6240 C   0  0  0  0  0  3  0  0  0  0  0  0
   35.5360   29.2630   34.4490 C   0  0  0  0  0  3  0  0  0  0  0  0
   34.5640   32.8700   37.1810 C   0  0  0  0  0  0  0  0  0  0  0  0
   33.2250   32.4900   37.3510 C   0  0  0  0  0  0  0  0  0  0  0  0
   32.7520   31.4250   36.5730 C   0  0  0  0  0  0  0  0  0  0  0  0
   33.6280   30.8260   35.6990 N   0  0  0  0  0  0  0  0  0  0  0  0
   34.8990   31.2330   35.5780 C   0  0  0  0  0  0  0  0  0  0  0  0
   35.3520   32.2450   36.3150 N   0  0  0  0  0  0  0  0  0  0  0  0
   34.8390   33.6950   37.8180 H   0  0  0  0  0  0  0  0  0  0  0  0
   32.4820   32.8920   37.9980 H   0  0  0  0  0  0  0  0  0  0  0  0
   31.7500   31.0080   36.5820 H   0  0  0  0  0  0  0  0  0  0  0  0
   36.2720   28.3450   33.5280 C   0  0  0  0  0  0  0  0  0  0  0  0
   35.5080   27.7360   33.0050 H   0  0  0  0  0  0  0  0  0  0  0  0
   36.7550   28.9650   32.7410 H   0  0  0  0  0  0  0  0  0  0  0  0
   37.1690   27.4950   34.2680 C   0  0  0  0  0  0  0  0  0  0  0  0
   37.8770   27.6040   35.4420 C   0  0  0  0  0  0  0  0  0  0  0  0
   37.7330   28.5540   35.9360 H   0  0  0  0  0  0  0  0  0  0  0  0
   38.6640   26.5950   35.8930 C   0  0  0  0  0  3  0  0  0  0  0  0
   38.7370   25.4350   35.1300 C   0  0  0  0  0  3  0  0  0  0  0  0
   37.5880   25.8520   33.6750 S   0  0  0  0  0  0  0  0  0  0  0  0
  1  7  1  0  0  0  0
  2  1  2  0  0  0  0
  3  4  1  0  0  0  0
  3  9  1  0  0  0  0
  4 10  1  0  0  0  0
  5 11  1  0  0  0  0
  5  4  2  0  0  0  0
  6  5  1  0  0  0  0
  7  6  2  0  0  0  0
  7  8  1  0  0  0  0
  8  3  2  0  0  0  0
 12 15  1  0  0  0  0
 12  2  1  0  0  0  0
 13 12  1  0  0  0  0
 14 12  1  0  0  0  0
 15 16  2  0  0  0  0
 16 18  1  0  0  0  0
 16 17  1  0  0  0  0
 19 18  2  0  0  0  0
 20 15  1  0  0  0  0
 20 19  1  0  0  0  0
M  END
>  <minimizedAffinity>
-4.01807737

$$$$

 OpenBabel03262520333D

 20 21  0  0  0  0  0  0  0  0999 V2000
   38.2360   24.4670   34.6440 C   0  0  0  0  0  3  0  0  0  0  0  0
   38.0400   25.7290   34.4280 C   0  0  0  0  0  3  0  0  0  0  0  0
   39.7730   22.8530   37.5450 C   0  0  0  0  0  0  0  0  0  0  0  0
   38.9680   23.2960   38.6040 C   0  0  0  0  0  0  0  0  0  0  0  0
   37.9020   24.1500   38.2910 C   0  0  0  0  0  0  0  0  0  0  0  0
   37.7180   24.4950   36.9720 N   0  0  0  0  0  0  0  0  0  0  0  0
   38.5210   24.0400   36.0010 C   0  0  0  0  0  0  0  0  0  0  0  0
   39.5350   23.2290   36.2950 N   0  0  0  0  0  0  0  0  0  0  0  0
   40.5660   22.2020   37.8790 H   0  0  0  0  0  0  0  0  0  0  0  0
   39.0360   23.0830   39.6440 H   0  0  0  0  0  0  0  0  0  0  0  0
   37.1880   24.5810   38.9850 H   0  0  0  0  0  0  0  0  0  0  0  0
   37.7340   26.3910   33.1240 C   0  0  0  0  0  0  0  0  0  0  0  0
   38.7040   26.6850   32.6770 H   0  0  0  0  0  0  0  0  0  0  0  0
   37.3080   25.6230   32.4410 H   0  0  0  0  0  0  0  0  0  0  0  0
   36.9050   27.5520   33.3250 C   0  0  0  0  0  0  0  0  0  0  0  0
   36.4520   28.2540   34.4180 C   0  0  0  0  0  0  0  0  0  0  0  0
   36.7940   27.8430   35.3560 H   0  0  0  0  0  0  0  0  0  0  0  0
   35.6570   29.3450   34.2800 C   0  0  0  0  0  3  0  0  0  0  0  0
   35.3080   29.7400   32.9940 C   0  0  0  0  0  3  0  0  0  0  0  0
   36.1960   28.4380   31.9330 S   0  0  0  0  0  0  0  0  0  0  0  0
  1  7  1  0  0  0  0
  2  1  2  0  0  0  0
  3  9  1  0  0  0  0
  3  4  1  0  0  0  0
  4 10  1  0  0  0  0
  5  4  2  0  0  0  0
  5 11  1  0  0  0  0
  6  5  1  0  0  0  0
  7  8  1  0  0  0  0
  7  6  2  0  0  0  0
  8  3  2  0  0  0  0
 12 15  1  0  0  0  0
 12  2  1  0  0  0  0
 13 12  1  0  0  0  0
 14 12  1  0  0  0  0
 15 16  2  0  0  0  0
 16 17  1  0  0  0  0
 18 16  1  0  0  0  0
 19 18  2  0  0  0  0
 20 19  1  0  0  0  0
 20 15  1  0  0  0  0
M  END
>  <minimizedAffinity>
-4.00634146

$$$$

 OpenBabel03262520333D

 20 21  0  0  0  0  0  0  0  0999 V2000
   36.6840   27.7980   33.4270 C   0  0  0  0  0  3  0  0  0  0  0  0
   36.1100   28.6640   34.2010 C   0  0  0  0  0  3  0  0  0  0  0  0
   38.0360   24.4310   33.9030 C   0  0  0  0  0  0  0  0  0  0  0  0
   38.3090   24.4040   35.2780 C   0  0  0  0  0  0  0  0  0  0  0  0
   38.0170   25.5580   36.0180 C   0  0  0  0  0  0  0  0  0  0  0  0
   37.4860   26.6350   35.3490 N   0  0  0  0  0  0  0  0  0  0  0  0
   37.2460   26.6050   34.0310 C   0  0  0  0  0  0  0  0  0  0  0  0
   37.5220   25.5110   33.3250 N   0  0  0  0  0  0  0  0  0  0  0  0
   38.2920   23.5040   33.4160 H   0  0  0  0  0  0  0  0  0  0  0  0
   38.7160   23.6220   35.8740 H   0  0  0  0  0  0  0  0  0  0  0  0
   38.1660   25.7020   37.0830 H   0  0  0  0  0  0  0  0  0  0  0  0
   35.4670   29.9520   33.8030 C   0  0  0  0  0  0  0  0  0  0  0  0
   36.2240   30.5260   33.2320 H   0  0  0  0  0  0  0  0  0  0  0  0
   34.6550   29.7210   33.0790 H   0  0  0  0  0  0  0  0  0  0  0  0
   35.0520   30.6940   34.9660 C   0  0  0  0  0  0  0  0  0  0  0  0
   35.6790   31.4930   35.8940 C   0  0  0  0  0  0  0  0  0  0  0  0
   36.7400   31.5940   35.7160 H   0  0  0  0  0  0  0  0  0  0  0  0
   34.9940   32.0730   36.9100 C   0  0  0  0  0  3  0  0  0  0  0  0
   33.6260   31.8370   36.9920 C   0  0  0  0  0  3  0  0  0  0  0  0
   33.3360   30.7040   35.4950 S   0  0  0  0  0  0  0  0  0  0  0  0
  1  7  1  0  0  0  0
  1  2  2  0  0  0  0
  3  4  1  0  0  0  0
  4 10  1  0  0  0  0
  4  5  2  0  0  0  0
  5 11  1  0  0  0  0
  6  5  1  0  0  0  0
  7  6  2  0  0  0  0
  8  3  2  0  0  0  0
  8  7  1  0  0  0  0
  9  3  1  0  0  0  0
 12  2  1  0  0  0  0
 12 15  1  0  0  0  0
 13 12  1  0  0  0  0
 14 12  1  0  0  0  0
 15 20  1  0  0  0  0
 15 16  2  0  0  0  0
 16 18  1  0  0  0  0
 17 16  1  0  0  0  0
 18 19  2  0  0  0  0
 20 19  1  0  0  0  0
M  END
>  <minimizedAffinity>
-4.00309753

$$$$

 OpenBabel03262520333D

 20 21  0  0  0  0  0  0  0  0999 V2000
   37.5690   25.4630   35.7280 C   0  0  0  0  0  3  0  0  0  0  0  0
   37.9840   26.6840   35.6090 C   0  0  0  0  0  3  0  0  0  0  0  0
   38.9310   23.2710   38.3220 C   0  0  0  0  0  0  0  0  0  0  0  0
   40.0640   22.7280   37.6990 C   0  0  0  0  0  0  0  0  0  0  0  0
   40.3370   23.1350   36.3850 C   0  0  0  0  0  0  0  0  0  0  0  0
   39.4780   24.0340   35.7980 N   0  0  0  0  0  0  0  0  0  0  0  0
   38.4080   24.5200   36.4430 C   0  0  0  0  0  0  0  0  0  0  0  0
   38.1470   24.1360   37.6900 N   0  0  0  0  0  0  0  0  0  0  0  0
   38.8010   22.9030   39.3270 H   0  0  0  0  0  0  0  0  0  0  0  0
   40.7780   22.0330   38.0730 H   0  0  0  0  0  0  0  0  0  0  0  0
   41.1660   22.8130   35.7640 H   0  0  0  0  0  0  0  0  0  0  0  0
   37.2930   27.8160   34.9220 C   0  0  0  0  0  0  0  0  0  0  0  0
   36.2360   27.7950   35.2530 H   0  0  0  0  0  0  0  0  0  0  0  0
   37.7130   28.7660   35.3190 H   0  0  0  0  0  0  0  0  0  0  0  0
   37.3720   27.6670   33.4920 C   0  0  0  0  0  0  0  0  0  0  0  0
   38.3250   27.2240   32.6040 C   0  0  0  0  0  0  0  0  0  0  0  0
   39.2400   26.9110   33.0870 H   0  0  0  0  0  0  0  0  0  0  0  0
   38.0950   27.2020   31.2680 C   0  0  0  0  0  3  0  0  0  0  0  0
   36.8570   27.6430   30.8120 C   0  0  0  0  0  3  0  0  0  0  0  0
   35.9900   28.1140   32.4350 S   0  0  0  0  0  0  0  0  0  0  0  0
  1  7  1  0  0  0  0
  2  1  2  0  0  0  0
  3  9  1  0  0  0  0
  4 10  1  0  0  0  0
  4  3  1  0  0  0  0
  5  4  2  0  0  0  0
  6  5  1  0  0  0  0
  6  7  2  0  0  0  0
  7  8  1  0  0  0  0
  8  3  2  0  0  0  0
 11  5  1  0  0  0  0
 12 13  1  0  0  0  0
 12 14  1  0  0  0  0
 12  2  1  0  0  0  0
 15 12  1  0  0  0  0
 16 17  1  0  0  0  0
 16 15  2  0  0  0  0
 18 16  1  0  0  0  0
 19 18  2  0  0  0  0
 19 20  1  0  0  0  0
 20 15  1  0  0  0  0
M  END
>  <minimizedAffinity>
-3.99765825

$$$$

 OpenBabel03262520333D

 20 21  0  0  0  0  0  0  0  0999 V2000
   37.9360   26.5580   35.7270 C   0  0  0  0  0  3  0  0  0  0  0  0
   37.8830   25.2710   35.8660 C   0  0  0  0  0  3  0  0  0  0  0  0
   38.4050   27.4250   32.2030 C   0  0  0  0  0  0  0  0  0  0  0  0
   37.2770   28.2120   31.9290 C   0  0  0  0  0  0  0  0  0  0  0  0
   36.3710   28.4290   32.9770 C   0  0  0  0  0  0  0  0  0  0  0  0
   36.6480   27.8580   34.1970 N   0  0  0  0  0  0  0  0  0  0  0  0
   37.7430   27.1130   34.4010 C   0  0  0  0  0  0  0  0  0  0  0  0
   38.6050   26.9050   33.4080 N   0  0  0  0  0  0  0  0  0  0  0  0
   39.0440   27.3120   31.3420 H   0  0  0  0  0  0  0  0  0  0  0  0
   36.9860   28.6890   31.0250 H   0  0  0  0  0  0  0  0  0  0  0  0
   35.4560   29.0090   32.9350 H   0  0  0  0  0  0  0  0  0  0  0  0
   38.0500   24.4860   37.1250 C   0  0  0  0  0  0  0  0  0  0  0  0
   38.2630   25.2140   37.9320 H   0  0  0  0  0  0  0  0  0  0  0  0
   37.0670   24.0320   37.3790 H   0  0  0  0  0  0  0  0  0  0  0  0
   39.1370   23.5480   37.0000 C   0  0  0  0  0  0  0  0  0  0  0  0
   39.8890   22.7980   37.8740 C   0  0  0  0  0  0  0  0  0  0  0  0
   39.6040   22.9400   38.9070 H   0  0  0  0  0  0  0  0  0  0  0  0
   40.8780   21.9790   37.4370 C   0  0  0  0  0  3  0  0  0  0  0  0
   41.1150   21.9150   36.0680 C   0  0  0  0  0  3  0  0  0  0  0  0
   39.8140   23.1240   35.3910 S   0  0  0  0  0  0  0  0  0  0  0  0
  1  2  2  0  0  0  0
  2 12  1  0  0  0  0
  3  8  1  0  0  0  0
  4  3  2  0  0  0  0
  4  5  1  0  0  0  0
  5  6  2  0  0  0  0
  6  7  1  0  0  0  0
  7  1  1  0  0  0  0
  8  7  2  0  0  0  0
  9  3  1  0  0  0  0
 10  4  1  0  0  0  0
 11  5  1  0  0  0  0
 12 14  1  0  0  0  0
 12 13  1  0  0  0  0
 15 12  1  0  0  0  0
 15 16  2  0  0  0  0
 16 17  1  0  0  0  0
 18 16  1  0  0  0  0
 19 18  2  0  0  0  0
 20 19  1  0  0  0  0
 20 15  1  0  0  0  0
M  END
>  <minimizedAffinity>
-3.96275544

$$$$
