
 OpenBabel03272510013D

 18 19  0  0  0  0  0  0  0  0999 V2000
   38.2620   31.3460   50.2210 C   0  0  0  0  0  0  0  0  0  0  0  0
   38.4980   31.4170   48.8310 C   0  0  0  0  0  0  0  0  0  0  0  0
   37.5840   30.7760   48.0110 C   0  0  0  0  0  0  0  0  0  0  0  0
   36.5280   30.1260   48.5540 N   0  0  0  0  0  0  0  0  0  0  0  0
   36.3370   30.0830   49.8930 C   0  0  0  0  0  0  0  0  0  0  0  0
   37.2090   30.6940   50.7030 N   0  0  0  0  0  0  0  0  0  0  0  0
   38.9640   31.8410   50.8890 H   0  0  0  0  0  0  0  0  0  0  0  0
   39.3500   31.9470   48.4890 H   0  0  0  0  0  0  0  0  0  0  0  0
   37.7660   30.8090   46.5780 C   0  0  0  0  0  0  0  0  0  0  0  0
   36.9530   30.7010   45.5070 C   0  0  0  0  0  0  0  0  0  0  0  0
   35.9030   30.5560   45.7760 H   0  0  0  0  0  0  0  0  0  0  0  0
   37.4350   30.7740   44.2510 C   0  0  0  0  0  3  0  0  0  0  0  0
   38.8000   30.9630   44.1250 C   0  0  0  0  0  3  0  0  0  0  0  0
   39.3790   31.0340   45.8970 S   0  0  0  0  0  0  0  0  0  0  0  0
   35.1600   29.3510   50.4120 C   0  0  0  0  0  0  0  0  0  0  0  0
   35.2400   29.1000   51.7710 F   0  0  0  0  0  0  0  0  0  0  0  0
   33.9920   30.0690   50.2140 F   0  0  0  0  0  0  0  0  0  0  0  0
   34.9580   28.1430   49.7760 F   0  0  0  0  0  0  0  0  0  0  0  0
  1  6  1  0  0  0  0
  1  7  1  0  0  0  0
  2  1  2  0  0  0  0
  3  4  2  0  0  0  0
  3  2  1  0  0  0  0
  4  5  1  0  0  0  0
  5 15  1  0  0  0  0
  5  6  2  0  0  0  0
  8  2  1  0  0  0  0
  9  3  1  0  0  0  0
 10 11  1  0  0  0  0
 10  9  2  0  0  0  0
 12 10  1  0  0  0  0
 13 12  2  0  0  0  0
 13 14  1  0  0  0  0
 14  9  1  0  0  0  0
 15 16  1  0  0  0  0
 17 15  1  0  0  0  0
 18 15  1  0  0  0  0
M  END
>  <minimizedAffinity>
-5.05126381

>  <minimizedRMSD>
0.895641625

$$$$
