
 OpenBabel03262522043D

 36 39  0  0  1  0  0  0  0  0999 V2000
   37.4470   22.9270   31.3040 C   0  0  2  0  0  0  0  0  0  0  0  0
   37.3250   24.3500   30.8650 C   0  0  0  0  0  0  0  0  0  0  0  0
   37.9330   25.2070   31.8700 N   0  0  0  0  0  0  0  0  0  0  0  0
   38.7330   26.1820   32.5560 C   0  0  0  0  0  0  0  0  0  0  0  0
   39.4850   27.1290   32.2490 O   0  0  0  0  0  0  0  0  0  0  0  0
   38.3760   25.6900   33.8850 C   0  0  1  0  0  0  0  0  0  0  0  0
   37.3310   24.9000   33.1420 C   0  0  2  0  0  0  0  0  0  0  0  0
   37.5970   23.1040   33.1200 S   0  0  0  0  0  0  0  0  0  0  0  0
   36.2780   24.6130   30.6610 H   0  0  0  0  0  0  0  0  0  0  0  0
   37.8690   24.4770   29.9080 H   0  0  0  0  0  0  0  0  0  0  0  0
   37.8740   26.3520   34.6120 H   0  0  0  0  0  0  0  0  0  0  0  0
   36.2910   25.2190   33.2800 H   0  0  0  0  0  0  0  0  0  0  0  0
   38.5710   22.1630   30.6850 C   0  0  0  0  0  0  0  0  0  0  0  0
   39.3470   21.8380   31.3780 H   0  0  0  0  0  0  0  0  0  0  0  0
   38.2130   21.3180   30.0810 H   0  0  0  0  0  0  0  0  0  0  0  0
   39.1000   22.8470   29.9570 H   0  0  0  0  0  0  0  0  0  0  0  0
   36.1000   22.2360   31.0820 C   0  0  0  0  0  0  0  0  0  0  0  0
   35.3360   22.9570   31.4490 H   0  0  0  0  0  0  0  0  0  0  0  0
   35.9750   22.2490   29.9610 H   0  0  0  0  0  0  0  0  0  0  0  0
   35.9200   20.9680   31.6130 C   0  0  0  0  0  0  0  0  0  0  0  0
   35.4900   20.3820   32.7630 C   0  0  0  0  0  0  0  0  0  0  0  0
   35.1910   21.1090   33.5070 H   0  0  0  0  0  0  0  0  0  0  0  0
   35.4370   19.0300   32.9680 C   0  0  0  0  0  3  0  0  0  0  0  0
   35.8800   18.2310   31.8510 C   0  0  0  0  0  3  0  0  0  0  0  0
   36.3400   19.5700   30.5860 S   0  0  0  0  0  0  0  0  0  0  0  0
   39.4230   24.9180   34.5860 C   0  0  0  0  0  0  0  0  0  0  0  0
   40.5040   24.8110   33.9400 O   0  0  0  0  0  0  0  0  0  0  0  0
   39.2270   24.3450   35.8940 C   0  0  0  0  0  0  0  0  0  0  0  0
   40.1060   23.3480   36.2900 C   0  0  0  0  0  0  0  0  0  0  0  0
   39.9180   22.7790   37.5750 C   0  0  0  0  0  0  0  0  0  0  0  0
   38.8830   23.2480   38.3400 N   0  0  0  0  0  0  0  0  0  0  0  0
   38.0690   24.2040   37.9180 C   0  0  0  0  0  0  0  0  0  0  0  0
   38.2330   24.7570   36.6970 N   0  0  0  0  0  0  0  0  0  0  0  0
   40.9210   22.9900   35.6660 H   0  0  0  0  0  0  0  0  0  0  0  0
   40.5840   21.9940   37.9240 H   0  0  0  0  0  0  0  0  0  0  0  0
   37.2640   24.5400   38.5640 H   0  0  0  0  0  0  0  0  0  0  0  0
  1 13  1  6  0  0  0
  1  8  1  0  0  0  0
  2  1  1  0  0  0  0
  2  3  1  0  0  0  0
  3  4  1  0  0  0  0
  3  7  1  0  0  0  0
  4  6  1  0  0  0  0
  5  4  2  0  0  0  0
  6 26  1  0  0  0  0
  6 11  1  1  0  0  0
  7 12  1  1  0  0  0
  7  6  1  0  0  0  0
  8  7  1  0  0  0  0
  9  2  1  0  0  0  0
 10  2  1  0  0  0  0
 13 14  1  0  0  0  0
 15 13  1  0  0  0  0
 16 13  1  0  0  0  0
 17  1  1  0  0  0  0
 17 18  1  0  0  0  0
 17 20  1  0  0  0  0
 19 17  1  0  0  0  0
 20 21  2  0  0  0  0
 21 23  1  0  0  0  0
 21 22  1  0  0  0  0
 24 23  2  0  0  0  0
 25 20  1  0  0  0  0
 25 24  1  0  0  0  0
 26 28  1  0  0  0  0
 27 26  2  0  0  0  0
 28 29  2  0  0  0  0
 28 33  1  0  0  0  0
 29 30  1  0  0  0  0
 30 35  1  0  0  0  0
 30 31  2  0  0  0  0
 32 31  1  0  0  0  0
 32 36  1  0  0  0  0
 33 32  2  0  0  0  0
 34 29  1  0  0  0  0
M  END
>  <minimizedAffinity>
-5.21407843

$$$$

 OpenBabel03262522043D

 36 39  0  0  1  0  0  0  0  0999 V2000
   37.2450   24.8420   31.4710 C   0  0  2  0  0  0  0  0  0  0  0  0
   37.9220   23.7610   30.6910 C   0  0  0  0  0  0  0  0  0  0  0  0
   38.2840   22.6830   31.5980 N   0  0  0  0  0  0  0  0  0  0  0  0
   38.4410   21.4070   32.2350 C   0  0  0  0  0  0  0  0  0  0  0  0
   38.2500   20.2080   31.9470 O   0  0  0  0  0  0  0  0  0  0  0  0
   38.9530   21.9770   33.4800 C   0  0  1  0  0  0  0  0  0  0  0  0
   39.0590   23.2450   32.6740 C   0  0  2  0  0  0  0  0  0  0  0  0
   37.9030   24.5600   33.1560 S   0  0  0  0  0  0  0  0  0  0  0  0
   38.7840   24.1540   30.1350 H   0  0  0  0  0  0  0  0  0  0  0  0
   37.2150   23.3710   29.9330 H   0  0  0  0  0  0  0  0  0  0  0  0
   39.9570   21.7050   33.8510 H   0  0  0  0  0  0  0  0  0  0  0  0
   40.0730   23.5790   32.4230 H   0  0  0  0  0  0  0  0  0  0  0  0
   35.7530   24.8360   31.4050 C   0  0  0  0  0  0  0  0  0  0  0  0
   35.2490   24.6360   32.3500 H   0  0  0  0  0  0  0  0  0  0  0  0
   35.3570   25.7500   30.9410 H   0  0  0  0  0  0  0  0  0  0  0  0
   35.4360   23.9930   30.7230 H   0  0  0  0  0  0  0  0  0  0  0  0
   37.8290   26.1880   31.0360 C   0  0  0  0  0  0  0  0  0  0  0  0
   38.8910   26.1690   31.3680 H   0  0  0  0  0  0  0  0  0  0  0  0
   37.8890   26.1020   29.9130 H   0  0  0  0  0  0  0  0  0  0  0  0
   37.1750   27.3430   31.4370 C   0  0  0  0  0  0  0  0  0  0  0  0
   36.7230   27.9300   32.5780 C   0  0  0  0  0  0  0  0  0  0  0  0
   36.9220   27.3280   33.4550 H   0  0  0  0  0  0  0  0  0  0  0  0
   36.0870   29.1400   32.6230 C   0  0  0  0  0  3  0  0  0  0  0  0
   35.9170   29.7840   31.3430 C   0  0  0  0  0  3  0  0  0  0  0  0
   36.7250   28.5230   30.1760 S   0  0  0  0  0  0  0  0  0  0  0  0
   38.0110   21.9860   34.6180 C   0  0  0  0  0  0  0  0  0  0  0  0
   36.8540   21.5640   34.3310 O   0  0  0  0  0  0  0  0  0  0  0  0
   38.3810   22.4320   35.9370 C   0  0  0  0  0  0  0  0  0  0  0  0
   39.6940   22.2280   36.3330 C   0  0  0  0  0  0  0  0  0  0  0  0
   40.0640   22.6650   37.6310 C   0  0  0  0  0  0  0  0  0  0  0  0
   39.1030   23.2560   38.4080 N   0  0  0  0  0  0  0  0  0  0  0  0
   37.8600   23.4300   37.9850 C   0  0  0  0  0  0  0  0  0  0  0  0
   37.4910   23.0200   36.7520 N   0  0  0  0  0  0  0  0  0  0  0  0
   40.4410   21.7560   35.7000 H   0  0  0  0  0  0  0  0  0  0  0  0
   41.0830   22.5230   37.9810 H   0  0  0  0  0  0  0  0  0  0  0  0
   37.1370   23.9040   38.6400 H   0  0  0  0  0  0  0  0  0  0  0  0
  1 17  1  6  0  0  0
  1  8  1  0  0  0  0
  2  1  1  0  0  0  0
  2  3  1  0  0  0  0
  3  4  1  0  0  0  0
  3  7  1  0  0  0  0
  4  6  1  0  0  0  0
  5  4  2  0  0  0  0
  6 11  1  1  0  0  0
  6 26  1  0  0  0  0
  7 12  1  6  0  0  0
  7  8  1  0  0  0  0
  7  6  1  0  0  0  0
  9  2  1  0  0  0  0
 10  2  1  0  0  0  0
 13  1  1  0  0  0  0
 13 14  1  0  0  0  0
 15 13  1  0  0  0  0
 16 13  1  0  0  0  0
 17 18  1  0  0  0  0
 17 20  1  0  0  0  0
 19 17  1  0  0  0  0
 20 21  2  0  0  0  0
 21 23  1  0  0  0  0
 21 22  1  0  0  0  0
 24 23  2  0  0  0  0
 25 24  1  0  0  0  0
 25 20  1  0  0  0  0
 26 28  1  0  0  0  0
 27 26  2  0  0  0  0
 28 29  2  0  0  0  0
 28 33  1  0  0  0  0
 29 30  1  0  0  0  0
 30 35  1  0  0  0  0
 30 31  2  0  0  0  0
 32 31  1  0  0  0  0
 32 36  1  0  0  0  0
 33 32  2  0  0  0  0
 34 29  1  0  0  0  0
M  END
>  <minimizedAffinity>
-5.15645409

$$$$

 OpenBabel03262522043D

 36 39  0  0  1  0  0  0  0  0999 V2000
   38.3650   25.9720   35.0890 C   0  0  2  0  0  0  0  0  0  0  0  0
   38.0510   25.3550   36.4140 C   0  0  0  0  0  0  0  0  0  0  0  0
   38.7860   24.1070   36.5390 N   0  0  0  0  0  0  0  0  0  0  0  0
   39.6350   23.0410   36.9900 C   0  0  0  0  0  0  0  0  0  0  0  0
   40.2370   22.7300   38.0390 O   0  0  0  0  0  0  0  0  0  0  0  0
   39.5950   22.3310   35.7140 C   0  0  1  0  0  0  0  0  0  0  0  0
   38.4820   23.2920   35.3910 C   0  0  2  0  0  0  0  0  0  0  0  0
   38.8690   24.5140   34.1050 S   0  0  0  0  0  0  0  0  0  0  0  0
   36.9680   25.2230   36.5430 H   0  0  0  0  0  0  0  0  0  0  0  0
   38.3770   26.0460   37.2160 H   0  0  0  0  0  0  0  0  0  0  0  0
   39.2040   21.3000   35.6570 H   0  0  0  0  0  0  0  0  0  0  0  0
   37.4710   22.8690   35.3480 H   0  0  0  0  0  0  0  0  0  0  0  0
   39.3920   27.0550   35.1190 C   0  0  0  0  0  0  0  0  0  0  0  0
   40.3150   26.8330   34.5830 H   0  0  0  0  0  0  0  0  0  0  0  0
   38.9810   28.0220   34.7960 H   0  0  0  0  0  0  0  0  0  0  0  0
   39.7100   27.2080   36.1920 H   0  0  0  0  0  0  0  0  0  0  0  0
   37.0560   26.4460   34.4560 C   0  0  0  0  0  0  0  0  0  0  0  0
   36.4660   25.5200   34.2700 H   0  0  0  0  0  0  0  0  0  0  0  0
   36.5150   26.9510   35.3070 H   0  0  0  0  0  0  0  0  0  0  0  0
   37.1290   27.2540   33.3310 C   0  0  0  0  0  0  0  0  0  0  0  0
   37.7940   27.3140   32.1460 C   0  0  0  0  0  0  0  0  0  0  0  0
   38.4830   26.4900   32.0190 H   0  0  0  0  0  0  0  0  0  0  0  0
   37.6200   28.3000   31.2130 C   0  0  0  0  0  3  0  0  0  0  0  0
   36.6540   29.3100   31.5720 C   0  0  0  0  0  3  0  0  0  0  0  0
   36.0850   28.7000   33.2770 S   0  0  0  0  0  0  0  0  0  0  0  0
   40.8170   22.4230   34.8880 C   0  0  0  0  0  0  0  0  0  0  0  0
   40.7570   21.7750   33.8050 O   0  0  0  0  0  0  0  0  0  0  0  0
   41.9710   23.1890   35.2850 C   0  0  0  0  0  0  0  0  0  0  0  0
   42.9880   22.5150   35.9430 C   0  0  0  0  0  0  0  0  0  0  0  0
   44.1270   23.2640   36.3360 C   0  0  0  0  0  0  0  0  0  0  0  0
   44.1480   24.6020   36.0430 N   0  0  0  0  0  0  0  0  0  0  0  0
   43.1510   25.2030   35.4100 C   0  0  0  0  0  0  0  0  0  0  0  0
   42.0590   24.5050   35.0280 N   0  0  0  0  0  0  0  0  0  0  0  0
   42.9510   21.4520   36.1660 H   0  0  0  0  0  0  0  0  0  0  0  0
   44.9460   22.7740   36.8550 H   0  0  0  0  0  0  0  0  0  0  0  0
   43.2170   26.2660   35.2010 H   0  0  0  0  0  0  0  0  0  0  0  0
  1 17  1  6  0  0  0
  1 13  1  0  0  0  0
  1  2  1  0  0  0  0
  2  3  1  0  0  0  0
  2  9  1  0  0  0  0
  2 10  1  0  0  0  0
  3  4  1  0  0  0  0
  4  5  2  0  0  0  0
  6 11  1  1  0  0  0
  6  4  1  0  0  0  0
  7 12  1  6  0  0  0
  7  6  1  0  0  0  0
  7  3  1  0  0  0  0
  8  1  1  0  0  0  0
  8  7  1  0  0  0  0
 13 16  1  0  0  0  0
 14 13  1  0  0  0  0
 15 13  1  0  0  0  0
 17 19  1  0  0  0  0
 18 17  1  0  0  0  0
 20 17  1  0  0  0  0
 21 20  2  0  0  0  0
 22 21  1  0  0  0  0
 23 24  2  0  0  0  0
 23 21  1  0  0  0  0
 24 25  1  0  0  0  0
 25 20  1  0  0  0  0
 26 28  1  0  0  0  0
 26  6  1  0  0  0  0
 27 26  2  0  0  0  0
 28 29  1  0  0  0  0
 29 34  1  0  0  0  0
 29 30  2  0  0  0  0
 30 35  1  0  0  0  0
 31 30  1  0  0  0  0
 32 31  2  0  0  0  0
 33 28  2  0  0  0  0
 33 32  1  0  0  0  0
 36 32  1  0  0  0  0
M  END
>  <minimizedAffinity>
-4.9825635

$$$$

 OpenBabel03262522043D

 36 39  0  0  1  0  0  0  0  0999 V2000
   38.4400   25.7710   34.2440 C   0  0  2  0  0  0  0  0  0  0  0  0
   37.2370   26.4400   33.6630 C   0  0  0  0  0  0  0  0  0  0  0  0
   36.7800   25.6730   32.5140 N   0  0  0  0  0  0  0  0  0  0  0  0
   35.9940   24.9220   31.5770 C   0  0  0  0  0  0  0  0  0  0  0  0
   34.7860   24.6670   31.3900 O   0  0  0  0  0  0  0  0  0  0  0  0
   37.1530   24.4800   30.8030 C   0  0  1  0  0  0  0  0  0  0  0  0
   37.8920   25.5120   31.6140 C   0  0  2  0  0  0  0  0  0  0  0  0
   39.0870   24.8420   32.8060 S   0  0  0  0  0  0  0  0  0  0  0  0
   37.4480   27.4890   33.4140 H   0  0  0  0  0  0  0  0  0  0  0  0
   36.4340   26.4570   34.4250 H   0  0  0  0  0  0  0  0  0  0  0  0
   37.2430   24.7350   29.7330 H   0  0  0  0  0  0  0  0  0  0  0  0
   38.2180   26.4110   31.0760 H   0  0  0  0  0  0  0  0  0  0  0  0
   38.1770   24.9130   35.4380 C   0  0  0  0  0  0  0  0  0  0  0  0
   38.3710   23.8500   35.2960 H   0  0  0  0  0  0  0  0  0  0  0  0
   38.6940   25.2840   36.3340 H   0  0  0  0  0  0  0  0  0  0  0  0
   37.0760   24.9770   35.6800 H   0  0  0  0  0  0  0  0  0  0  0  0
   39.4940   26.8410   34.5320 C   0  0  0  0  0  0  0  0  0  0  0  0
   39.2350   27.6960   33.8690 H   0  0  0  0  0  0  0  0  0  0  0  0
   39.2300   27.2040   35.5670 H   0  0  0  0  0  0  0  0  0  0  0  0
   40.8310   26.4860   34.4300 C   0  0  0  0  0  0  0  0  0  0  0  0
   41.7090   25.6040   34.9810 C   0  0  0  0  0  0  0  0  0  0  0  0
   41.2460   24.9780   35.7310 H   0  0  0  0  0  0  0  0  0  0  0  0
   43.0290   25.5120   34.6330 C   0  0  0  0  0  3  0  0  0  0  0  0
   43.4530   26.4370   33.6100 C   0  0  0  0  0  3  0  0  0  0  0  0
   41.8390   27.3710   33.2530 S   0  0  0  0  0  0  0  0  0  0  0  0
   37.5520   23.0710   30.9940 C   0  0  0  0  0  0  0  0  0  0  0  0
   38.6180   22.7510   30.3950 O   0  0  0  0  0  0  0  0  0  0  0  0
   36.7920   22.1450   31.7960 C   0  0  0  0  0  0  0  0  0  0  0  0
   35.8340   21.3800   31.1500 C   0  0  0  0  0  0  0  0  0  0  0  0
   35.0830   20.4670   31.9350 C   0  0  0  0  0  0  0  0  0  0  0  0
   35.3510   20.4020   33.2760 N   0  0  0  0  0  0  0  0  0  0  0  0
   36.2790   21.1540   33.8490 C   0  0  0  0  0  0  0  0  0  0  0  0
   37.0030   22.0280   33.1170 N   0  0  0  0  0  0  0  0  0  0  0  0
   35.6370   21.4480   30.0840 H   0  0  0  0  0  0  0  0  0  0  0  0
   34.3210   19.8490   31.4680 H   0  0  0  0  0  0  0  0  0  0  0  0
   36.4530   21.0640   34.9170 H   0  0  0  0  0  0  0  0  0  0  0  0
  1 17  1  1  0  0  0
  1 13  1  0  0  0  0
  2  1  1  0  0  0  0
  2 10  1  0  0  0  0
  3  2  1  0  0  0  0
  4  3  1  0  0  0  0
  5  4  2  0  0  0  0
  6 11  1  6  0  0  0
  6 26  1  0  0  0  0
  6  4  1  0  0  0  0
  6  7  1  0  0  0  0
  7 12  1  6  0  0  0
  7  3  1  0  0  0  0
  7  8  1  0  0  0  0
  8  1  1  0  0  0  0
  9  2  1  0  0  0  0
 13 16  1  0  0  0  0
 13 15  1  0  0  0  0
 14 13  1  0  0  0  0
 17 19  1  0  0  0  0
 18 17  1  0  0  0  0
 20 17  1  0  0  0  0
 20 21  2  0  0  0  0
 21 22  1  0  0  0  0
 23 21  1  0  0  0  0
 24 23  2  0  0  0  0
 25 24  1  0  0  0  0
 25 20  1  0  0  0  0
 26 28  1  0  0  0  0
 27 26  2  0  0  0  0
 28 33  1  0  0  0  0
 29 28  2  0  0  0  0
 29 30  1  0  0  0  0
 30 31  2  0  0  0  0
 31 32  1  0  0  0  0
 32 36  1  0  0  0  0
 33 32  2  0  0  0  0
 34 29  1  0  0  0  0
 35 30  1  0  0  0  0
M  END
>  <minimizedAffinity>
-4.94323921

$$$$

 OpenBabel03262522043D

 36 39  0  0  1  0  0  0  0  0999 V2000
   39.1180   23.2370   36.1140 C   0  0  2  0  0  0  0  0  0  0  0  0
   38.4030   24.3650   36.7850 C   0  0  0  0  0  0  0  0  0  0  0  0
   38.2180   25.4420   35.8260 N   0  0  0  0  0  0  0  0  0  0  0  0
   37.6640   26.4670   34.9870 C   0  0  0  0  0  0  0  0  0  0  0  0
   36.5810   27.0780   34.8800 O   0  0  0  0  0  0  0  0  0  0  0  0
   38.8800   26.6130   34.1880 C   0  0  1  0  0  0  0  0  0  0  0  0
   39.5050   25.7710   35.2690 C   0  0  2  0  0  0  0  0  0  0  0  0
   39.9920   24.0990   34.7570 S   0  0  0  0  0  0  0  0  0  0  0  0
   38.9360   24.6900   37.6890 H   0  0  0  0  0  0  0  0  0  0  0  0
   37.4100   24.0090   37.1210 H   0  0  0  0  0  0  0  0  0  0  0  0
   39.4070   27.5820   34.1400 H   0  0  0  0  0  0  0  0  0  0  0  0
   40.2090   26.2820   35.9370 H   0  0  0  0  0  0  0  0  0  0  0  0
   38.2450   22.1190   35.6450 C   0  0  0  0  0  0  0  0  0  0  0  0
   38.2140   21.9780   34.5650 H   0  0  0  0  0  0  0  0  0  0  0  0
   38.4790   21.1720   36.1520 H   0  0  0  0  0  0  0  0  0  0  0  0
   37.1810   22.3600   35.9370 H   0  0  0  0  0  0  0  0  0  0  0  0
   40.2230   22.7420   37.0480 C   0  0  0  0  0  0  0  0  0  0  0  0
   40.1290   23.3600   37.9690 H   0  0  0  0  0  0  0  0  0  0  0  0
   39.8680   21.7190   37.3640 H   0  0  0  0  0  0  0  0  0  0  0  0
   41.5230   22.7170   36.5670 C   0  0  0  0  0  0  0  0  0  0  0  0
   42.6270   23.5130   36.5340 C   0  0  0  0  0  0  0  0  0  0  0  0
   42.4640   24.4610   37.0280 H   0  0  0  0  0  0  0  0  0  0  0  0
   43.8120   23.1630   35.9450 C   0  0  0  0  0  3  0  0  0  0  0  0
   43.8250   21.8540   35.3390 C   0  0  0  0  0  3  0  0  0  0  0  0
   42.0610   21.2530   35.7000 S   0  0  0  0  0  0  0  0  0  0  0  0
   38.8300   26.0290   32.8320 C   0  0  0  0  0  0  0  0  0  0  0  0
   39.9560   25.9580   32.2600 O   0  0  0  0  0  0  0  0  0  0  0  0
   37.6070   25.5760   32.2200 C   0  0  0  0  0  0  0  0  0  0  0  0
   37.3240   24.2210   32.2880 C   0  0  0  0  0  0  0  0  0  0  0  0
   36.1210   23.7690   31.6870 C   0  0  0  0  0  0  0  0  0  0  0  0
   35.3200   24.6980   31.0770 N   0  0  0  0  0  0  0  0  0  0  0  0
   35.6330   25.9850   31.0390 C   0  0  0  0  0  0  0  0  0  0  0  0
   36.7740   26.4320   31.6060 N   0  0  0  0  0  0  0  0  0  0  0  0
   37.9740   23.5000   32.7760 H   0  0  0  0  0  0  0  0  0  0  0  0
   35.8620   22.7140   31.7170 H   0  0  0  0  0  0  0  0  0  0  0  0
   34.9630   26.6810   30.5430 H   0  0  0  0  0  0  0  0  0  0  0  0
  1 13  1  6  0  0  0
  1  2  1  0  0  0  0
  1 17  1  0  0  0  0
  2 10  1  0  0  0  0
  2  9  1  0  0  0  0
  3  2  1  0  0  0  0
  4  3  1  0  0  0  0
  5  4  2  0  0  0  0
  6 11  1  6  0  0  0
  6  4  1  0  0  0  0
  6  7  1  0  0  0  0
  7  3  1  0  0  0  0
  7 12  1  1  0  0  0
  8  7  1  0  0  0  0
  8  1  1  0  0  0  0
 13 16  1  0  0  0  0
 13 15  1  0  0  0  0
 14 13  1  0  0  0  0
 17 19  1  0  0  0  0
 17 18  1  0  0  0  0
 20 17  1  0  0  0  0
 21 20  2  0  0  0  0
 21 22  1  0  0  0  0
 23 21  1  0  0  0  0
 24 25  1  0  0  0  0
 24 23  2  0  0  0  0
 25 20  1  0  0  0  0
 26  6  1  0  0  0  0
 27 26  2  0  0  0  0
 28 29  1  0  0  0  0
 28 26  1  0  0  0  0
 29 34  1  0  0  0  0
 30 35  1  0  0  0  0
 30 29  2  0  0  0  0
 31 30  1  0  0  0  0
 32 31  2  0  0  0  0
 32 33  1  0  0  0  0
 33 28  2  0  0  0  0
 36 32  1  0  0  0  0
M  END
>  <minimizedAffinity>
-4.87826204

$$$$

 OpenBabel03262522043D

 36 39  0  0  1  0  0  0  0  0999 V2000
   38.1840   26.3340   31.2620 C   0  0  2  0  0  0  0  0  0  0  0  0
   39.1200   27.4680   31.5260 C   0  0  0  0  0  0  0  0  0  0  0  0
   39.8370   27.2090   32.7650 N   0  0  0  0  0  0  0  0  0  0  0  0
   40.8530   27.0100   33.7580 C   0  0  0  0  0  0  0  0  0  0  0  0
   42.0830   27.1980   33.8620 O   0  0  0  0  0  0  0  0  0  0  0  0
   39.9270   26.4520   34.7420 C   0  0  1  0  0  0  0  0  0  0  0  0
   38.8670   26.9560   33.7980 C   0  0  2  0  0  0  0  0  0  0  0  0
   37.9200   25.6620   32.9440 S   0  0  0  0  0  0  0  0  0  0  0  0
   38.5850   28.4280   31.5400 H   0  0  0  0  0  0  0  0  0  0  0  0
   39.8490   27.5310   30.6960 H   0  0  0  0  0  0  0  0  0  0  0  0
   39.7910   26.9380   35.7240 H   0  0  0  0  0  0  0  0  0  0  0  0
   38.2810   27.8180   34.1400 H   0  0  0  0  0  0  0  0  0  0  0  0
   38.6760   25.3170   30.2850 C   0  0  0  0  0  0  0  0  0  0  0  0
   38.8440   24.3220   30.6970 H   0  0  0  0  0  0  0  0  0  0  0  0
   38.0390   25.2620   29.3910 H   0  0  0  0  0  0  0  0  0  0  0  0
   39.6880   25.6510   29.9110 H   0  0  0  0  0  0  0  0  0  0  0  0
   36.8290   26.9120   30.8480 C   0  0  0  0  0  0  0  0  0  0  0  0
   36.7070   26.6370   29.7770 H   0  0  0  0  0  0  0  0  0  0  0  0
   36.0840   26.2590   31.3880 H   0  0  0  0  0  0  0  0  0  0  0  0
   36.5990   28.2610   31.0730 C   0  0  0  0  0  0  0  0  0  0  0  0
   36.1360   29.0790   32.0570 C   0  0  0  0  0  0  0  0  0  0  0  0
   35.8540   28.5320   32.9460 H   0  0  0  0  0  0  0  0  0  0  0  0
   36.0330   30.4390   31.9440 C   0  0  0  0  0  3  0  0  0  0  0  0
   36.4600   30.9760   30.6750 C   0  0  0  0  0  3  0  0  0  0  0  0
   36.9810   29.4000   29.7530 S   0  0  0  0  0  0  0  0  0  0  0  0
   40.0050   24.9900   34.9400 C   0  0  0  0  0  0  0  0  0  0  0  0
   40.5510   24.3690   33.9830 O   0  0  0  0  0  0  0  0  0  0  0  0
   39.5060   24.3340   36.1210 C   0  0  0  0  0  0  0  0  0  0  0  0
   38.3040   24.7880   36.6430 C   0  0  0  0  0  0  0  0  0  0  0  0
   37.8090   24.1450   37.8070 C   0  0  0  0  0  0  0  0  0  0  0  0
   38.5480   23.1220   38.3400 N   0  0  0  0  0  0  0  0  0  0  0  0
   39.6920   22.7230   37.8040 C   0  0  0  0  0  0  0  0  0  0  0  0
   40.1780   23.3230   36.6960 N   0  0  0  0  0  0  0  0  0  0  0  0
   37.7340   25.6020   36.2050 H   0  0  0  0  0  0  0  0  0  0  0  0
   36.8710   24.4710   38.2490 H   0  0  0  0  0  0  0  0  0  0  0  0
   40.2390   21.9070   38.2660 H   0  0  0  0  0  0  0  0  0  0  0  0
  1 13  1  6  0  0  0
  1  2  1  0  0  0  0
  1  8  1  0  0  0  0
  2  9  1  0  0  0  0
  2  3  1  0  0  0  0
  3  4  1  0  0  0  0
  3  7  1  0  0  0  0
  4  5  2  0  0  0  0
  4  6  1  0  0  0  0
  6 26  1  0  0  0  0
  6 11  1  1  0  0  0
  7 12  1  1  0  0  0
  7  6  1  0  0  0  0
  8  7  1  0  0  0  0
 10  2  1  0  0  0  0
 13 14  1  0  0  0  0
 15 13  1  0  0  0  0
 16 13  1  0  0  0  0
 17 20  1  0  0  0  0
 17  1  1  0  0  0  0
 17 19  1  0  0  0  0
 18 17  1  0  0  0  0
 20 21  2  0  0  0  0
 21 22  1  0  0  0  0
 23 21  1  0  0  0  0
 24 23  2  0  0  0  0
 25 24  1  0  0  0  0
 25 20  1  0  0  0  0
 26 28  1  0  0  0  0
 27 26  2  0  0  0  0
 28 29  2  0  0  0  0
 28 33  1  0  0  0  0
 29 30  1  0  0  0  0
 30 35  1  0  0  0  0
 30 31  2  0  0  0  0
 32 36  1  0  0  0  0
 32 31  1  0  0  0  0
 33 32  2  0  0  0  0
 34 29  1  0  0  0  0
M  END
>  <minimizedAffinity>
-4.85593414

$$$$

 OpenBabel03262522043D

 36 39  0  0  1  0  0  0  0  0999 V2000
   37.0990   26.8860   32.0090 C   0  0  2  0  0  0  0  0  0  0  0  0
   38.2680   26.4710   31.1760 C   0  0  0  0  0  0  0  0  0  0  0  0
   38.9430   25.3620   31.8300 N   0  0  0  0  0  0  0  0  0  0  0  0
   39.5550   24.0980   32.1300 C   0  0  0  0  0  0  0  0  0  0  0  0
   39.9380   23.0920   31.4980 O   0  0  0  0  0  0  0  0  0  0  0  0
   39.6090   24.3510   33.5690 C   0  0  1  0  0  0  0  0  0  0  0  0
   39.2570   25.7610   33.1770 C   0  0  2  0  0  0  0  0  0  0  0  0
   37.5960   26.3050   33.6720 S   0  0  0  0  0  0  0  0  0  0  0  0
   38.9380   27.3200   30.9830 H   0  0  0  0  0  0  0  0  0  0  0  0
   37.9000   26.1340   30.1860 H   0  0  0  0  0  0  0  0  0  0  0  0
   40.5770   24.3590   34.1010 H   0  0  0  0  0  0  0  0  0  0  0  0
   40.0500   26.5100   33.2920 H   0  0  0  0  0  0  0  0  0  0  0  0
   35.7770   26.3520   31.5630 C   0  0  0  0  0  0  0  0  0  0  0  0
   35.2940   25.6680   32.2600 H   0  0  0  0  0  0  0  0  0  0  0  0
   35.0860   27.1550   31.2680 H   0  0  0  0  0  0  0  0  0  0  0  0
   35.9430   25.7430   30.6260 H   0  0  0  0  0  0  0  0  0  0  0  0
   37.0930   28.4120   32.1070 C   0  0  0  0  0  0  0  0  0  0  0  0
   38.0930   28.6850   32.5110 H   0  0  0  0  0  0  0  0  0  0  0  0
   37.1300   28.7480   31.0310 H   0  0  0  0  0  0  0  0  0  0  0  0
   36.0620   29.0180   32.8080 C   0  0  0  0  0  0  0  0  0  0  0  0
   35.5770   29.0850   34.0780 C   0  0  0  0  0  0  0  0  0  0  0  0
   36.1570   28.4900   34.7700 H   0  0  0  0  0  0  0  0  0  0  0  0
   34.4810   29.8170   34.4470 C   0  0  0  0  0  3  0  0  0  0  0  0
   33.8460   30.5410   33.3740 C   0  0  0  0  0  3  0  0  0  0  0  0
   34.9420   30.0680   31.8980 S   0  0  0  0  0  0  0  0  0  0  0  0
   38.6210   23.6180   34.3870 C   0  0  0  0  0  0  0  0  0  0  0  0
   37.7010   23.0710   33.7150 O   0  0  0  0  0  0  0  0  0  0  0  0
   38.7040   23.5330   35.8230 C   0  0  0  0  0  0  0  0  0  0  0  0
   39.7890   22.8580   36.3590 C   0  0  0  0  0  0  0  0  0  0  0  0
   39.8760   22.7700   37.7730 C   0  0  0  0  0  0  0  0  0  0  0  0
   38.8830   23.3550   38.5140 N   0  0  0  0  0  0  0  0  0  0  0  0
   37.8640   23.9920   37.9550 C   0  0  0  0  0  0  0  0  0  0  0  0
   37.7670   24.0850   36.6110 N   0  0  0  0  0  0  0  0  0  0  0  0
   40.5650   22.4000   35.7530 H   0  0  0  0  0  0  0  0  0  0  0  0
   40.7100   22.2490   38.2340 H   0  0  0  0  0  0  0  0  0  0  0  0
   37.1040   24.4380   38.5880 H   0  0  0  0  0  0  0  0  0  0  0  0
  1 13  1  6  0  0  0
  1 17  1  0  0  0  0
  1  8  1  0  0  0  0
  2  3  1  0  0  0  0
  2  1  1  0  0  0  0
  3  4  1  0  0  0  0
  3  7  1  0  0  0  0
  4  6  1  0  0  0  0
  5  4  2  0  0  0  0
  6 11  1  1  0  0  0
  6 26  1  0  0  0  0
  7 12  1  1  0  0  0
  7  6  1  0  0  0  0
  7  8  1  0  0  0  0
  9  2  1  0  0  0  0
 10  2  1  0  0  0  0
 13 14  1  0  0  0  0
 15 13  1  0  0  0  0
 16 13  1  0  0  0  0
 17 18  1  0  0  0  0
 17 20  1  0  0  0  0
 19 17  1  0  0  0  0
 20 21  2  0  0  0  0
 21 23  1  0  0  0  0
 21 22  1  0  0  0  0
 24 23  2  0  0  0  0
 25 20  1  0  0  0  0
 25 24  1  0  0  0  0
 26 28  1  0  0  0  0
 27 26  2  0  0  0  0
 28 29  2  0  0  0  0
 28 33  1  0  0  0  0
 29 30  1  0  0  0  0
 30 35  1  0  0  0  0
 30 31  2  0  0  0  0
 32 31  1  0  0  0  0
 32 36  1  0  0  0  0
 33 32  2  0  0  0  0
 34 29  1  0  0  0  0
M  END
>  <minimizedAffinity>
-4.84539747

$$$$

 OpenBabel03262522043D

 36 39  0  0  1  0  0  0  0  0999 V2000
   38.7370   25.2620   34.3810 C   0  0  2  0  0  0  0  0  0  0  0  0
   38.8190   26.3240   33.3320 C   0  0  0  0  0  0  0  0  0  0  0  0
   38.0260   25.9130   32.1840 N   0  0  0  0  0  0  0  0  0  0  0  0
   37.0770   25.8540   31.1090 C   0  0  0  0  0  0  0  0  0  0  0  0
   36.3100   26.6420   30.5190 O   0  0  0  0  0  0  0  0  0  0  0  0
   37.2870   24.4280   30.8650 C   0  0  1  0  0  0  0  0  0  0  0  0
   38.4730   24.6060   31.7760 C   0  0  2  0  0  0  0  0  0  0  0  0
   38.3350   23.7790   33.3870 S   0  0  0  0  0  0  0  0  0  0  0  0
   39.8640   26.5410   33.0690 H   0  0  0  0  0  0  0  0  0  0  0  0
   38.4000   27.2640   33.7400 H   0  0  0  0  0  0  0  0  0  0  0  0
   37.6430   24.0730   29.8820 H   0  0  0  0  0  0  0  0  0  0  0  0
   39.4610   24.5540   31.3040 H   0  0  0  0  0  0  0  0  0  0  0  0
   37.7590   25.5270   35.4790 C   0  0  0  0  0  0  0  0  0  0  0  0
   36.9220   24.8310   35.5310 H   0  0  0  0  0  0  0  0  0  0  0  0
   38.2520   25.6140   36.4580 H   0  0  0  0  0  0  0  0  0  0  0  0
   37.2860   26.5350   35.2920 H   0  0  0  0  0  0  0  0  0  0  0  0
   40.1450   25.0090   34.9220 C   0  0  0  0  0  0  0  0  0  0  0  0
   40.8100   25.0230   34.0300 H   0  0  0  0  0  0  0  0  0  0  0  0
   40.3970   25.9630   35.4690 H   0  0  0  0  0  0  0  0  0  0  0  0
   40.3500   23.8870   35.7100 C   0  0  0  0  0  0  0  0  0  0  0  0
   39.8310   23.2970   36.8210 C   0  0  0  0  0  0  0  0  0  0  0  0
   39.0030   23.8580   37.2340 H   0  0  0  0  0  0  0  0  0  0  0  0
   40.2940   22.1290   37.3630 C   0  0  0  0  0  3  0  0  0  0  0  0
   41.4080   21.5360   36.6620 C   0  0  0  0  0  3  0  0  0  0  0  0
   41.6690   22.7760   35.2490 S   0  0  0  0  0  0  0  0  0  0  0  0
   36.2120   23.5320   31.3360 C   0  0  0  0  0  0  0  0  0  0  0  0
   35.2050   24.1360   31.8050 O   0  0  0  0  0  0  0  0  0  0  0  0
   36.3030   22.0960   31.2620 C   0  0  0  0  0  0  0  0  0  0  0  0
   35.3110   21.3610   31.8940 C   0  0  0  0  0  0  0  0  0  0  0  0
   35.3960   19.9470   31.8250 C   0  0  0  0  0  0  0  0  0  0  0  0
   36.4500   19.3990   31.1430 N   0  0  0  0  0  0  0  0  0  0  0  0
   37.3740   20.1430   30.5530 C   0  0  0  0  0  0  0  0  0  0  0  0
   37.3080   21.4910   30.6080 N   0  0  0  0  0  0  0  0  0  0  0  0
   34.4840   21.8160   32.4320 H   0  0  0  0  0  0  0  0  0  0  0  0
   34.6400   19.3330   32.3080 H   0  0  0  0  0  0  0  0  0  0  0  0
   38.1880   19.6590   30.0240 H   0  0  0  0  0  0  0  0  0  0  0  0
  1 17  1  1  0  0  0
  1 13  1  0  0  0  0
  2 10  1  0  0  0  0
  2  1  1  0  0  0  0
  3  2  1  0  0  0  0
  4  3  1  0  0  0  0
  5  4  2  0  0  0  0
  6 11  1  6  0  0  0
  6  4  1  0  0  0  0
  6 26  1  0  0  0  0
  6  7  1  0  0  0  0
  7 12  1  6  0  0  0
  7  3  1  0  0  0  0
  7  8  1  0  0  0  0
  8  1  1  0  0  0  0
  9  2  1  0  0  0  0
 13 14  1  0  0  0  0
 13 15  1  0  0  0  0
 16 13  1  0  0  0  0
 17 19  1  0  0  0  0
 17 20  1  0  0  0  0
 18 17  1  0  0  0  0
 20 21  2  0  0  0  0
 21 22  1  0  0  0  0
 21 23  1  0  0  0  0
 24 23  2  0  0  0  0
 25 20  1  0  0  0  0
 25 24  1  0  0  0  0
 26 27  2  0  0  0  0
 28 26  1  0  0  0  0
 28 29  1  0  0  0  0
 29 34  1  0  0  0  0
 30 29  2  0  0  0  0
 30 35  1  0  0  0  0
 31 30  1  0  0  0  0
 32 33  1  0  0  0  0
 32 31  2  0  0  0  0
 33 28  2  0  0  0  0
 36 32  1  0  0  0  0
M  END
>  <minimizedAffinity>
-4.69352436

$$$$

 OpenBabel03262522043D

 36 39  0  0  1  0  0  0  0  0999 V2000
   38.3260   26.0600   35.2940 C   0  0  2  0  0  0  0  0  0  0  0  0
   38.1770   25.4150   36.6340 C   0  0  0  0  0  0  0  0  0  0  0  0
   38.7490   24.0790   36.5800 N   0  0  0  0  0  0  0  0  0  0  0  0
   39.5150   22.8920   36.8310 C   0  0  0  0  0  0  0  0  0  0  0  0
   40.2490   22.4490   37.7380 O   0  0  0  0  0  0  0  0  0  0  0  0
   39.1490   22.2640   35.5620 C   0  0  1  0  0  0  0  0  0  0  0  0
   38.1350   23.3750   35.4840 C   0  0  2  0  0  0  0  0  0  0  0  0
   38.4440   24.6080   34.1870 S   0  0  0  0  0  0  0  0  0  0  0  0
   37.1270   25.4140   36.9580 H   0  0  0  0  0  0  0  0  0  0  0  0
   38.7320   26.0130   37.3820 H   0  0  0  0  0  0  0  0  0  0  0  0
   38.6200   21.2950   35.5470 H   0  0  0  0  0  0  0  0  0  0  0  0
   37.0860   23.0850   35.6160 H   0  0  0  0  0  0  0  0  0  0  0  0
   39.4780   27.0020   35.1660 C   0  0  0  0  0  0  0  0  0  0  0  0
   40.2510   26.6960   34.4600 H   0  0  0  0  0  0  0  0  0  0  0  0
   39.1490   28.0300   34.9560 H   0  0  0  0  0  0  0  0  0  0  0  0
   40.0020   27.0540   36.1650 H   0  0  0  0  0  0  0  0  0  0  0  0
   37.0000   26.7300   34.9310 C   0  0  0  0  0  0  0  0  0  0  0  0
   36.2490   25.9090   34.9180 H   0  0  0  0  0  0  0  0  0  0  0  0
   36.7410   27.3260   35.8530 H   0  0  0  0  0  0  0  0  0  0  0  0
   36.9510   27.5020   33.7800 C   0  0  0  0  0  0  0  0  0  0  0  0
   37.5110   27.5430   32.5400 C   0  0  0  0  0  0  0  0  0  0  0  0
   38.2130   26.7360   32.3810 H   0  0  0  0  0  0  0  0  0  0  0  0
   37.2260   28.4910   31.5960 C   0  0  0  0  0  3  0  0  0  0  0  0
   36.2610   29.4830   32.0050 C   0  0  0  0  0  3  0  0  0  0  0  0
   35.8590   28.9130   33.7710 S   0  0  0  0  0  0  0  0  0  0  0  0
   40.2030   22.2480   34.5270 C   0  0  0  0  0  0  0  0  0  0  0  0
   41.2510   22.8770   34.8490 O   0  0  0  0  0  0  0  0  0  0  0  0
   40.0490   21.5710   33.2650 C   0  0  0  0  0  0  0  0  0  0  0  0
   41.1510   21.5300   32.4250 C   0  0  0  0  0  0  0  0  0  0  0  0
   41.0040   20.8650   31.1800 C   0  0  0  0  0  0  0  0  0  0  0  0
   39.7870   20.3090   30.8880 N   0  0  0  0  0  0  0  0  0  0  0  0
   38.7610   20.3730   31.7250 C   0  0  0  0  0  0  0  0  0  0  0  0
   38.8830   21.0020   32.9140 N   0  0  0  0  0  0  0  0  0  0  0  0
   42.1080   21.9780   32.6760 H   0  0  0  0  0  0  0  0  0  0  0  0
   41.8430   20.8110   30.4910 H   0  0  0  0  0  0  0  0  0  0  0  0
   37.8180   19.9160   31.4450 H   0  0  0  0  0  0  0  0  0  0  0  0
  1 17  1  6  0  0  0
  1  2  1  0  0  0  0
  2  9  1  0  0  0  0
  2 10  1  0  0  0  0
  3  2  1  0  0  0  0
  3  4  1  0  0  0  0
  4  5  2  0  0  0  0
  6 11  1  1  0  0  0
  6  4  1  0  0  0  0
  7  6  1  0  0  0  0
  7 12  1  1  0  0  0
  7  3  1  0  0  0  0
  8  1  1  0  0  0  0
  8  7  1  0  0  0  0
 13  1  1  0  0  0  0
 13 16  1  0  0  0  0
 14 13  1  0  0  0  0
 15 13  1  0  0  0  0
 17 19  1  0  0  0  0
 18 17  1  0  0  0  0
 20 17  1  0  0  0  0
 21 20  2  0  0  0  0
 22 21  1  0  0  0  0
 23 24  2  0  0  0  0
 23 21  1  0  0  0  0
 24 25  1  0  0  0  0
 25 20  1  0  0  0  0
 26 27  2  0  0  0  0
 26  6  1  0  0  0  0
 28 26  1  0  0  0  0
 29 34  1  0  0  0  0
 29 28  2  0  0  0  0
 30 29  1  0  0  0  0
 31 30  2  0  0  0  0
 31 32  1  0  0  0  0
 32 33  2  0  0  0  0
 33 28  1  0  0  0  0
 35 30  1  0  0  0  0
 36 32  1  0  0  0  0
M  END
>  <minimizedAffinity>
-4.68424892

$$$$
