REMARK  Name = 
REMARK  4 active torsions:
REMARK  status: ('A' for Active; 'I' for Inactive)
REMARK    1  A    between atoms: C_1  and  C_8
REMARK    2  A    between atoms: C_3  and  N_12
REMARK    3  A    between atoms: C_10  and  C_13
REMARK    4  A    between atoms: C_17  and  C_30
REMARK                            x       y       z     vdW  Elec       q    Type
REMARK                         _______ _______ _______ _____ _____    ______ ____
ROOT
ATOM      1  C   UNL     1      38.409  31.849  44.521  0.00  0.00    +0.000 C 
ATOM      2  O   UNL     1      37.297  32.434  44.401  0.00  0.00    +0.000 OA
ATOM      3  N   UNL     1      38.945  31.569  45.821  0.00  0.00    +0.000 N 
ATOM      4  H   UNL     1      39.918  31.275  45.971  0.00  0.00    +0.000 HD
ENDROOT
BRANCH   1   5
ATOM      5  C   UNL     1      39.183  31.441  43.330  0.00  0.00    +0.000 A 
ATOM      6  C   UNL     1      40.152  30.486  43.487  0.00  0.00    +0.000 A 
ATOM      7  C   UNL     1      40.870  30.117  42.357  0.00  0.00    +0.000 A 
ATOM      8  C   UNL     1      40.577  30.714  41.172  0.00  0.00    +0.000 A 
ATOM      9  C   UNL     1      39.600  31.677  41.017  0.00  0.00    +0.000 A 
ATOM     10  N   UNL     1      38.938  31.998  42.129  0.00  0.00    +0.000 NA
ATOM     11  H   UNL     1      40.400  29.997  44.425  0.00  0.00    +0.000 HD
ATOM     12  H   UNL     1      41.636  29.369  42.455  0.00  0.00    +0.000 HD
ATOM     13  H   UNL     1      41.188  30.370  40.322  0.00  0.00    +0.000 HD
BRANCH   9  14
ATOM     14  C   UNL     1      39.332  32.275  39.746  0.00  0.00    +0.000 A 
ATOM     15  C   UNL     1      38.465  33.203  39.336  0.00  0.00    +0.000 A 
ATOM     16  H   UNL     1      37.807  33.619  40.084  0.00  0.00    +0.000 HD
ATOM     17  C   UNL     1      38.403  33.613  38.038  0.00  0.00    +0.000 A 
ATOM     18  C   UNL     1      39.363  32.955  37.136  0.00  0.00    +0.000 A 
ATOM     19  S   UNL     1      40.265  31.787  38.305  0.00  0.00    +0.000 S 
ENDBRANCH   9  14
ENDBRANCH   1   5
BRANCH   3  22
ATOM     20  C   UNL     1      38.420  31.114  48.218  0.00  0.00    +0.000 C 
ATOM     21  C   UNL     1      38.679  32.559  48.105  0.00  0.00    +0.000 C 
ATOM     22  C   UNL     1      38.056  31.715  46.960  0.00  0.00    +0.000 C 
ATOM     23  H   UNL     1      39.359  30.505  48.303  0.00  0.00    +0.000 HD
ATOM     24  H   UNL     1      37.986  33.310  48.525  0.00  0.00    +0.000 HD
ATOM     25  H   UNL     1      39.705  32.919  47.971  0.00  0.00    +0.000 HD
ATOM     26  H   UNL     1      36.987  31.932  46.744  0.00  0.00    +0.000 HD
BRANCH  20  31
ATOM     27  C   UNL     1      35.091  30.224  49.548  0.00  0.00    +0.000 A 
ATOM     28  C   UNL     1      35.417  29.544  50.765  0.00  0.00    +0.000 A 
ATOM     29  C   UNL     1      36.818  29.417  51.096  0.00  0.00    +0.000 A 
ATOM     30  N   UNL     1      37.749  29.939  50.255  0.00  0.00    +0.000 NA
ATOM     31  C   UNL     1      37.362  30.574  49.114  0.00  0.00    +0.000 A 
ATOM     32  N   UNL     1      36.044  30.730  48.737  0.00  0.00    +0.000 NA
ATOM     33  H   UNL     1      34.028  30.282  49.362  0.00  0.00    +0.000 HD
ATOM     34  H   UNL     1      34.651  29.150  51.395  0.00  0.00    +0.000 HD
ATOM     35  H   UNL     1      37.075  28.905  52.013  0.00  0.00    +0.000 HD
ENDBRANCH  20  31
ENDBRANCH   3  22
TORSDOF 4
