
 OpenBabel03272507583D

 29 31  0  0  0  0  0  0  0  0999 V2000
   37.0350   31.3350   48.5620 C   0  0  0  0  0  0  0  0  0  0  0  0
   37.2100   32.2920   49.5570 C   0  0  0  0  0  0  0  0  0  0  0  0
   38.1560   33.2840   49.3860 C   0  0  0  0  0  0  0  0  0  0  0  0
   38.9250   33.3430   48.2580 C   0  0  0  0  0  0  0  0  0  0  0  0
   38.7290   32.3850   47.2950 C   0  0  0  0  0  0  0  0  0  0  0  0
   37.8040   31.4060   47.4490 N   0  0  0  0  0  0  0  0  0  0  0  0
   36.6870   32.3860   50.5010 H   0  0  0  0  0  0  0  0  0  0  0  0
   38.3600   34.0640   50.1010 H   0  0  0  0  0  0  0  0  0  0  0  0
   39.6950   34.0300   47.9600 H   0  0  0  0  0  0  0  0  0  0  0  0
   35.1570   28.5690   50.2510 C   0  0  0  0  0  0  0  0  0  0  0  0
   36.1850   29.5150   49.9590 C   0  0  0  0  0  0  0  0  0  0  0  0
   36.0100   30.3630   48.8830 C   0  0  0  0  0  0  0  0  0  0  0  0
   34.8650   30.2560   48.1530 N   0  0  0  0  0  0  0  0  0  0  0  0
   33.9070   29.3370   48.4650 C   0  0  0  0  0  0  0  0  0  0  0  0
   34.0430   28.5060   49.4940 N   0  0  0  0  0  0  0  0  0  0  0  0
   32.8030   29.4220   47.5500 N   0  0  0  0  0  0  0  0  0  0  0  0
   35.2500   27.8860   51.0820 H   0  0  0  0  0  0  0  0  0  0  0  0
   32.9610   28.9840   46.6020 H   0  0  0  0  0  0  0  0  0  0  0  0
   32.0760   29.9280   48.0860 H   0  0  0  0  0  0  0  0  0  0  0  0
   37.3950   29.5360   50.8330 C   0  0  0  0  0  0  0  0  0  0  0  0
   38.5370   29.8230   50.0920 F   0  0  0  0  0  0  0  0  0  0  0  0
   37.2230   30.5070   51.7780 F   0  0  0  0  0  0  0  0  0  0  0  0
   37.6150   28.3380   51.4790 F   0  0  0  0  0  0  0  0  0  0  0  0
   39.3920   32.1750   45.9760 C   0  0  0  0  0  0  0  0  0  0  0  0
   38.8220   32.7060   44.9060 C   0  0  0  0  0  0  0  0  0  0  0  0
   37.9080   33.3070   44.7580 H   0  0  0  0  0  0  0  0  0  0  0  0
   39.2430   32.6420   43.6240 C   0  0  0  0  0  3  0  0  0  0  0  0
   40.4830   31.8650   43.5770 C   0  0  0  0  0  3  0  0  0  0  0  0
   40.7970   31.3760   45.4130 S   0  0  0  0  0  0  0  0  0  0  0  0
  1 12  1  0  0  0  0
  1  2  1  0  0  0  0
  2  7  1  0  0  0  0
  3  2  2  0  0  0  0
  3  8  1  0  0  0  0
  4  3  1  0  0  0  0
  5  6  1  0  0  0  0
  5  4  2  0  0  0  0
  6  1  2  0  0  0  0
  9  4  1  0  0  0  0
 10 17  1  0  0  0  0
 11 10  1  0  0  0  0
 11 20  1  0  0  0  0
 12 11  2  0  0  0  0
 13 14  2  0  0  0  0
 13 12  1  0  0  0  0
 14 15  1  0  0  0  0
 15 10  2  0  0  0  0
 16 19  1  0  0  0  0
 16 14  1  0  0  0  0
 18 16  1  0  0  0  0
 20 23  1  0  0  0  0
 20 22  1  0  0  0  0
 21 20  1  0  0  0  0
 24  5  1  0  0  0  0
 25 24  2  0  0  0  0
 26 25  1  0  0  0  0
 27 25  1  0  0  0  0
 28 27  2  0  0  0  0
 28 29  1  0  0  0  0
 29 24  1  0  0  0  0
M  END
>  <minimizedAffinity>
-7.04190302

>  <minimizedRMSD>
0.596288204

$$$$
