
 OpenBabel03272509423D

 35 37  0  0  1  0  0  0  0  0999 V2000
   37.0410   30.9240   49.0220 C   0  0  0  0  0  0  0  0  0  0  0  0
   36.7710   31.8180   50.0590 C   0  0  0  0  0  0  0  0  0  0  0  0
   37.3670   33.0680   50.1240 C   0  0  0  0  0  0  0  0  0  0  0  0
   38.2670   33.4540   49.1230 C   0  0  0  0  0  0  0  0  0  0  0  0
   38.5210   32.5680   48.1130 C   0  0  0  0  0  0  0  0  0  0  0  0
   37.9060   31.3280   48.0850 C   0  0  0  0  0  0  0  0  0  0  0  0
   36.0750   31.5280   50.8400 H   0  0  0  0  0  0  0  0  0  0  0  0
   37.1080   33.6920   50.9530 H   0  0  0  0  0  0  0  0  0  0  0  0
   38.6690   34.4270   49.2610 H   0  0  0  0  0  0  0  0  0  0  0  0
   39.2360   33.0100   47.4190 H   0  0  0  0  0  0  0  0  0  0  0  0
   36.4450   29.6070   48.9730 C   0  0  2  0  0  0  0  0  0  0  0  0
   36.9670   29.0730   48.0890 H   0  0  0  0  0  0  0  0  0  0  0  0
   33.5730   30.1080   46.8020 C   0  0  0  0  0  0  0  0  0  0  0  0
   32.8830   28.9140   46.8790 C   0  0  0  0  0  0  0  0  0  0  0  0
   33.3630   27.9390   47.7320 C   0  0  0  0  0  0  0  0  0  0  0  0
   34.5030   28.1840   48.4670 N   0  0  0  0  0  0  0  0  0  0  0  0
   35.1180   29.3430   48.3470 C   0  0  0  0  0  0  0  0  0  0  0  0
   34.6610   30.3110   47.5200 N   0  0  0  0  0  0  0  0  0  0  0  0
   33.2230   30.9010   46.1400 H   0  0  0  0  0  0  0  0  0  0  0  0
   32.0040   28.8300   46.2570 H   0  0  0  0  0  0  0  0  0  0  0  0
   32.8220   27.0060   47.7930 H   0  0  0  0  0  0  0  0  0  0  0  0
   36.8850   28.8350   49.9020 O   0  0  0  0  0  0  0  0  0  0  0  0
   36.4270   28.6840   50.7460 H   0  0  0  0  0  0  0  0  0  0  0  0
   38.2950   30.4820   46.9810 C   0  0  0  0  0  3  0  0  0  0  0  0
   38.9890   30.9070   45.9210 C   0  0  0  0  0  3  0  0  0  0  0  0
   39.4800   30.1230   44.7640 C   0  0  0  0  0  0  0  0  0  0  0  0
   39.0570   29.0910   44.7850 H   0  0  0  0  0  0  0  0  0  0  0  0
   40.6000   30.0700   44.8090 H   0  0  0  0  0  0  0  0  0  0  0  0
   39.0510   30.9660   43.2390 S   0  0  0  0  0  0  0  0  0  0  0  0
   37.2940   31.2350   43.1590 C   0  0  0  0  0  0  0  0  0  0  0  0
   36.4890   30.1080   43.4720 C   0  0  0  0  0  0  0  0  0  0  0  0
   36.7070   29.0910   43.7560 H   0  0  0  0  0  0  0  0  0  0  0  0
   35.1330   30.1130   43.4670 C   0  0  0  0  0  3  0  0  0  0  0  0
   34.5210   31.3720   43.1150 C   0  0  0  0  0  3  0  0  0  0  0  0
   35.9860   32.5360   42.7940 S   0  0  0  0  0  0  0  0  0  0  0  0
  1  2  1  0  0  0  0
  2  3  2  0  0  0  0
  2  7  1  0  0  0  0
  3  8  1  0  0  0  0
  4  9  1  0  0  0  0
  4  3  1  0  0  0  0
  5  4  2  0  0  0  0
  6  5  1  0  0  0  0
  6  1  2  0  0  0  0
 10  5  1  0  0  0  0
 11 12  1  6  0  0  0
 11  1  1  0  0  0  0
 11 22  1  0  0  0  0
 13 14  2  0  0  0  0
 13 18  1  0  0  0  0
 14 15  1  0  0  0  0
 15 21  1  0  0  0  0
 15 16  2  0  0  0  0
 17 16  1  0  0  0  0
 17 11  1  0  0  0  0
 18 17  2  0  0  0  0
 19 13  1  0  0  0  0
 20 14  1  0  0  0  0
 22 23  1  0  0  0  0
 24  6  1  0  0  0  0
 25 24  2  0  0  0  0
 26 27  1  0  0  0  0
 26 28  1  0  0  0  0
 26 25  1  0  0  0  0
 29 26  1  0  0  0  0
 30 29  1  0  0  0  0
 30 31  2  0  0  0  0
 31 32  1  0  0  0  0
 33 31  1  0  0  0  0
 34 33  2  0  0  0  0
 35 34  1  0  0  0  0
 35 30  1  0  0  0  0
M  END
>  <minimizedAffinity>
-5.42769909

>  <minimizedRMSD>
0.43158707

$$$$
