
 OpenBabel03272509423D

 35 37  0  0  1  0  0  0  0  0999 V2000
   37.0210   30.9240   49.0560 C   0  0  0  0  0  0  0  0  0  0  0  0
   36.7200   31.8150   50.0880 C   0  0  0  0  0  0  0  0  0  0  0  0
   37.3030   33.0700   50.1670 C   0  0  0  0  0  0  0  0  0  0  0  0
   38.2230   33.4640   49.1880 C   0  0  0  0  0  0  0  0  0  0  0  0
   38.5080   32.5810   48.1830 C   0  0  0  0  0  0  0  0  0  0  0  0
   37.9050   31.3360   48.1410 C   0  0  0  0  0  0  0  0  0  0  0  0
   36.0080   31.5190   50.8510 H   0  0  0  0  0  0  0  0  0  0  0  0
   37.0190   33.6920   50.9900 H   0  0  0  0  0  0  0  0  0  0  0  0
   38.6130   34.4410   49.3360 H   0  0  0  0  0  0  0  0  0  0  0  0
   39.2360   33.0290   47.5070 H   0  0  0  0  0  0  0  0  0  0  0  0
   36.4380   29.6020   48.9930 C   0  0  2  0  0  0  0  0  0  0  0  0
   36.9470   29.0920   48.0870 H   0  0  0  0  0  0  0  0  0  0  0  0
   33.6010   29.9990   46.7550 C   0  0  0  0  0  0  0  0  0  0  0  0
   32.8510   28.8590   46.9600 C   0  0  0  0  0  0  0  0  0  0  0  0
   33.2780   27.9630   47.9220 C   0  0  0  0  0  0  0  0  0  0  0  0
   34.4270   28.2310   48.6350 N   0  0  0  0  0  0  0  0  0  0  0  0
   35.1010   29.3360   48.3900 C   0  0  0  0  0  0  0  0  0  0  0  0
   34.6960   30.2260   47.4550 N   0  0  0  0  0  0  0  0  0  0  0  0
   33.2950   30.7290   46.0040 H   0  0  0  0  0  0  0  0  0  0  0  0
   31.9710   28.7490   46.3450 H   0  0  0  0  0  0  0  0  0  0  0  0
   32.6890   27.0720   48.0840 H   0  0  0  0  0  0  0  0  0  0  0  0
   36.9050   28.8160   49.8960 O   0  0  0  0  0  0  0  0  0  0  0  0
   36.4670   28.6420   50.7470 H   0  0  0  0  0  0  0  0  0  0  0  0
   38.3280   30.4940   47.0460 C   0  0  0  0  0  3  0  0  0  0  0  0
   38.9730   30.9400   45.9650 C   0  0  0  0  0  3  0  0  0  0  0  0
   39.4930   30.1660   44.8140 C   0  0  0  0  0  0  0  0  0  0  0  0
   38.7090   29.4720   44.4260 H   0  0  0  0  0  0  0  0  0  0  0  0
   40.3860   29.5740   45.1450 H   0  0  0  0  0  0  0  0  0  0  0  0
   40.0500   31.2920   43.5320 S   0  0  0  0  0  0  0  0  0  0  0  0
   38.6630   32.1460   42.8180 C   0  0  0  0  0  0  0  0  0  0  0  0
   38.9660   32.9860   41.7130 C   0  0  0  0  0  0  0  0  0  0  0  0
   39.8760   33.2320   41.1900 H   0  0  0  0  0  0  0  0  0  0  0  0
   38.0480   33.7180   41.0360 C   0  0  0  0  0  3  0  0  0  0  0  0
   36.6890   33.5980   41.5100 C   0  0  0  0  0  3  0  0  0  0  0  0
   36.8040   32.3870   42.9690 S   0  0  0  0  0  0  0  0  0  0  0  0
  1  2  1  0  0  0  0
  2  3  2  0  0  0  0
  2  7  1  0  0  0  0
  3  8  1  0  0  0  0
  4  9  1  0  0  0  0
  4  3  1  0  0  0  0
  5  4  2  0  0  0  0
  6  5  1  0  0  0  0
  6  1  2  0  0  0  0
 10  5  1  0  0  0  0
 11 12  1  6  0  0  0
 11  1  1  0  0  0  0
 11 22  1  0  0  0  0
 13 14  2  0  0  0  0
 13 18  1  0  0  0  0
 14 15  1  0  0  0  0
 15 21  1  0  0  0  0
 15 16  2  0  0  0  0
 17 16  1  0  0  0  0
 17 11  1  0  0  0  0
 18 17  2  0  0  0  0
 19 13  1  0  0  0  0
 20 14  1  0  0  0  0
 22 23  1  0  0  0  0
 24  6  1  0  0  0  0
 25 24  2  0  0  0  0
 26 28  1  0  0  0  0
 26 25  1  0  0  0  0
 27 26  1  0  0  0  0
 29 26  1  0  0  0  0
 30 35  1  0  0  0  0
 30 29  1  0  0  0  0
 31 30  2  0  0  0  0
 32 31  1  0  0  0  0
 33 34  2  0  0  0  0
 33 31  1  0  0  0  0
 34 35  1  0  0  0  0
M  END
>  <minimizedAffinity>
-5.69837999

>  <minimizedRMSD>
1.17670572

$$$$
