
 OpenBabel03272508443D

 24 26  0  0  0  0  0  0  0  0999 V2000
   35.8810   30.1670   49.9040 C   0  0  0  0  0  0  0  0  0  0  0  0
   36.7470   29.9070   50.9380 C   0  0  0  0  0  0  0  0  0  0  0  0
   37.8650   30.6700   50.6290 C   0  0  0  0  0  0  0  0  0  0  0  0
   37.6280   31.3380   49.4530 C   0  0  0  0  0  0  0  0  0  0  0  0
   36.4370   31.0110   49.0540 O   0  0  0  0  0  0  0  0  0  0  0  0
   36.6510   29.2850   51.7960 H   0  0  0  0  0  0  0  0  0  0  0  0
   38.8080   30.7930   51.1480 H   0  0  0  0  0  0  0  0  0  0  0  0
   38.4620   32.2420   48.7220 C   0  0  0  0  0  0  0  0  0  0  0  0
   38.9340   32.1260   47.4400 C   0  0  0  0  0  0  0  0  0  0  0  0
   38.6710   31.2540   46.8570 H   0  0  0  0  0  0  0  0  0  0  0  0
   39.7260   33.0750   46.8690 C   0  0  0  0  0  3  0  0  0  0  0  0
   40.0450   34.2370   47.7220 C   0  0  0  0  0  3  0  0  0  0  0  0
   39.1340   33.8210   49.3150 S   0  0  0  0  0  0  0  0  0  0  0  0
   34.5340   29.5860   49.7680 C   0  0  0  0  0  0  0  0  0  0  0  0
   33.7440   29.7260   50.7290 O   0  0  0  0  0  0  0  0  0  0  0  0
   33.8280   26.8490   47.4960 C   0  0  0  0  0  0  0  0  0  0  0  0
   33.4930   27.4850   46.3000 C   0  0  0  0  0  0  0  0  0  0  0  0
   33.5060   28.8690   46.2660 C   0  0  0  0  0  0  0  0  0  0  0  0
   33.8460   29.5380   47.4000 N   0  0  0  0  0  0  0  0  0  0  0  0
   34.1670   28.8820   48.5440 C   0  0  0  0  0  0  0  0  0  0  0  0
   34.1570   27.5340   48.5890 N   0  0  0  0  0  0  0  0  0  0  0  0
   33.8140   25.7720   47.5080 H   0  0  0  0  0  0  0  0  0  0  0  0
   33.2210   26.9420   45.3940 H   0  0  0  0  0  0  0  0  0  0  0  0
   33.2600   29.4520   45.3800 H   0  0  0  0  0  0  0  0  0  0  0  0
  1  2  2  0  0  0  0
  2  6  1  0  0  0  0
  3  2  1  0  0  0  0
  3  7  1  0  0  0  0
  4  3  2  0  0  0  0
  5  4  1  0  0  0  0
  5  1  1  0  0  0  0
  8 13  1  0  0  0  0
  8  4  1  0  0  0  0
  9  8  2  0  0  0  0
 10  9  1  0  0  0  0
 11  9  1  0  0  0  0
 11 12  2  0  0  0  0
 12 13  1  0  0  0  0
 14  1  1  0  0  0  0
 14 15  2  0  0  0  0
 16 22  1  0  0  0  0
 16 21  1  0  0  0  0
 17 16  2  0  0  0  0
 18 17  1  0  0  0  0
 18 19  2  0  0  0  0
 19 20  1  0  0  0  0
 20 21  2  0  0  0  0
 20 14  1  0  0  0  0
 23 17  1  0  0  0  0
 24 18  1  0  0  0  0
M  END
>  <minimizedAffinity>
-5.07928991

>  <minimizedRMSD>
2.03413963

$$$$
