
 OpenBabel03272508273D

 35 38  0  0  1  0  0  0  0  0999 V2000
   33.6060   28.8420   47.1880 C   0  0  2  0  0  0  0  0  0  0  0  0
   34.3800   28.0380   48.2200 C   0  0  2  0  0  0  0  0  0  0  0  0
   33.4770   27.7620   49.2120 O   0  0  0  0  0  0  0  0  0  0  0  0
   32.2090   27.8180   48.7320 C   0  0  0  0  0  0  0  0  0  0  0  0
   32.2760   28.1020   47.2610 C   0  0  1  0  0  0  0  0  0  0  0  0
   33.4380   29.8830   47.4720 H   0  0  0  0  0  0  0  0  0  0  0  0
   34.7220   27.1030   47.7350 H   0  0  0  0  0  0  0  0  0  0  0  0
   31.7070   28.6960   49.2290 H   0  0  0  0  0  0  0  0  0  0  0  0
   31.5800   26.9360   48.9680 H   0  0  0  0  0  0  0  0  0  0  0  0
   32.3350   27.1590   46.6510 H   0  0  0  0  0  0  0  0  0  0  0  0
   35.4260   30.2980   48.9000 C   0  0  1  0  0  0  0  0  0  0  0  0
   35.5150   28.8630   48.7230 C   0  0  1  0  0  0  0  0  0  0  0  0
   35.5650   29.3830   50.1240 C   0  0  0  0  0  0  0  0  0  0  0  0
   34.4950   30.9000   49.0030 H   0  0  0  0  0  0  0  0  0  0  0  0
   36.5180   28.5020   48.3390 H   0  0  0  0  0  0  0  0  0  0  0  0
   36.5000   29.3990   50.6810 H   0  0  0  0  0  0  0  0  0  0  0  0
   34.6670   29.1720   50.7400 H   0  0  0  0  0  0  0  0  0  0  0  0
   36.6210   31.1930   48.7120 C   0  0  0  0  0  0  0  0  0  0  0  0
   36.9160   32.1170   49.7160 C   0  0  0  0  0  0  0  0  0  0  0  0
   38.0010   32.9310   49.4960 C   0  0  0  0  0  0  0  0  0  0  0  0
   38.7370   32.8230   48.3420 N   0  0  0  0  0  0  0  0  0  0  0  0
   38.4180   31.9100   47.3870 C   0  0  0  0  0  0  0  0  0  0  0  0
   37.3540   31.0880   47.5660 N   0  0  0  0  0  0  0  0  0  0  0  0
   36.3440   32.2130   50.6240 H   0  0  0  0  0  0  0  0  0  0  0  0
   38.3100   33.6860   50.2320 H   0  0  0  0  0  0  0  0  0  0  0  0
   38.9830   31.7960   46.4580 H   0  0  0  0  0  0  0  0  0  0  0  0
   34.1480   28.7630   45.9180 O   0  0  0  0  0  0  0  0  0  0  0  0
   34.7430   27.9470   45.8630 H   0  0  0  0  0  0  0  0  0  0  0  0
   31.2310   28.8830   46.8020 O   0  0  0  0  0  0  0  0  0  0  0  0
   29.8660   27.9770   46.8920 C   0  0  0  0  0  0  0  0  0  0  0  0
   29.0930   29.2390   47.2930 C   0  0  0  0  0  0  0  0  0  0  0  0
   29.1590   30.3340   47.5000 H   0  0  0  0  0  0  0  0  0  0  0  0
   27.7640   29.1530   47.5350 C   0  0  0  0  0  3  0  0  0  0  0  0
   27.1240   27.8630   47.4060 C   0  0  0  0  0  3  0  0  0  0  0  0
   28.5960   26.7590   46.9010 S   0  0  0  0  0  0  0  0  0  0  0  0
  1  5  1  0  0  0  0
  1  6  1  1  0  0  0
  1  2  1  0  0  0  0
  2  7  1  6  0  0  0
  2 12  1  0  0  0  0
  2  3  1  0  0  0  0
  4  9  1  0  0  0  0
  4  3  1  0  0  0  0
  4  8  1  0  0  0  0
  5 10  1  6  0  0  0
  5  4  1  0  0  0  0
 11 14  1  6  0  0  0
 11 13  1  0  0  0  0
 12 15  1  6  0  0  0
 12 11  1  0  0  0  0
 12 13  1  0  0  0  0
 13 16  1  0  0  0  0
 13 17  1  0  0  0  0
 18 11  1  0  0  0  0
 18 19  1  0  0  0  0
 19 24  1  0  0  0  0
 20 19  2  0  0  0  0
 20 25  1  0  0  0  0
 21 20  1  0  0  0  0
 22 23  1  0  0  0  0
 22 21  2  0  0  0  0
 23 18  2  0  0  0  0
 26 22  1  0  0  0  0
 27  1  1  0  0  0  0
 28 27  1  0  0  0  0
 29 30  1  0  0  0  0
 29  5  1  0  0  0  0
 30 35  1  0  0  0  0
 30 31  2  0  0  0  0
 31 32  1  0  0  0  0
 31 33  1  0  0  0  0
 34 33  2  0  0  0  0
 35 34  1  0  0  0  0
M  END
>  <minimizedAffinity>
-5.34256172

>  <minimizedRMSD>
1.63669598

$$$$
