
 OpenBabel03272501283D

 36 39  0  0  1  0  0  0  0  0999 V2000
   38.4760   24.8180   35.7440 C   0  0  0  0  0  0  0  0  0  0  0  0
   37.9380   24.3800   36.9530 C   0  0  0  0  0  0  0  0  0  0  0  0
   38.7850   23.3970   37.4680 C   0  0  0  0  0  0  0  0  0  0  0  0
   39.7900   23.2730   36.5710 N   0  0  0  0  0  0  0  0  0  0  0  0
   39.5730   24.1200   35.5790 N   0  0  0  0  0  0  0  0  0  0  0  0
   37.0250   24.7000   37.4680 H   0  0  0  0  0  0  0  0  0  0  0  0
   38.6740   22.8440   38.3880 H   0  0  0  0  0  0  0  0  0  0  0  0
   41.0920   21.6520   35.3710 N   0  0  0  0  0  0  0  0  0  0  0  0
   42.4570   21.1740   35.4180 C   0  0  0  0  0  0  0  0  0  0  0  0
   43.1990   22.0090   36.4400 C   0  0  0  0  0  0  0  0  0  0  0  0
   42.2140   23.1720   36.6690 C   0  0  0  0  0  0  0  0  0  0  0  0
   40.9260   22.4100   36.6010 C   0  0  1  0  0  0  0  0  0  0  0  0
   40.8960   22.2500   34.5570 H   0  0  0  0  0  0  0  0  0  0  0  0
   42.9130   21.4340   34.4180 H   0  0  0  0  0  0  0  0  0  0  0  0
   42.5390   20.0830   35.6030 H   0  0  0  0  0  0  0  0  0  0  0  0
   44.1630   22.3730   36.0770 H   0  0  0  0  0  0  0  0  0  0  0  0
   43.2400   21.4590   37.3850 H   0  0  0  0  0  0  0  0  0  0  0  0
   42.3370   23.8910   35.8530 H   0  0  0  0  0  0  0  0  0  0  0  0
   42.4170   23.6340   37.6650 H   0  0  0  0  0  0  0  0  0  0  0  0
   40.8150   21.5370   37.7420 N   0  0  0  0  0  0  0  0  0  0  0  0
   40.6280   22.1140   38.5840 H   0  0  0  0  0  0  0  0  0  0  0  0
   40.1360   20.8000   37.5270 H   0  0  0  0  0  0  0  0  0  0  0  0
   37.4400   25.6250   33.6220 C   0  0  0  0  0  0  0  0  0  0  0  0
   37.8380   25.8440   34.9410 C   0  0  0  0  0  0  0  0  0  0  0  0
   37.6050   27.1100   35.4880 C   0  0  0  0  0  0  0  0  0  0  0  0
   37.0090   28.0410   34.7100 N   0  0  0  0  0  0  0  0  0  0  0  0
   36.6310   27.7990   33.4290 C   0  0  0  0  0  0  0  0  0  0  0  0
   36.8540   26.5650   32.8790 N   0  0  0  0  0  0  0  0  0  0  0  0
   37.6160   24.6460   33.1880 H   0  0  0  0  0  0  0  0  0  0  0  0
   37.8920   27.3580   36.5220 H   0  0  0  0  0  0  0  0  0  0  0  0
   36.0200   28.8000   32.6720 C   0  0  0  0  0  0  0  0  0  0  0  0
   36.6280   29.2540   31.5560 C   0  0  0  0  0  0  0  0  0  0  0  0
   37.5790   28.9970   31.0580 H   0  0  0  0  0  0  0  0  0  0  0  0
   36.2030   30.2130   30.6870 C   0  0  0  0  0  3  0  0  0  0  0  0
   34.8920   30.7370   31.1520 C   0  0  0  0  0  3  0  0  0  0  0  0
   34.4850   29.7940   32.7220 S   0  0  0  0  0  0  0  0  0  0  0  0
  1  2  1  0  0  0  0
  2  6  1  0  0  0  0
  2  3  2  0  0  0  0
  3  7  1  0  0  0  0
  4 12  1  0  0  0  0
  4  3  1  0  0  0  0
  5  1  2  0  0  0  0
  5  4  1  0  0  0  0
  8  9  1  0  0  0  0
  8 12  1  0  0  0  0
  9 15  1  0  0  0  0
  9 10  1  0  0  0  0
 10 11  1  0  0  0  0
 10 17  1  0  0  0  0
 11 19  1  0  0  0  0
 12 11  1  0  0  0  0
 12 20  1  1  0  0  0
 13  8  1  0  0  0  0
 14  9  1  0  0  0  0
 16 10  1  0  0  0  0
 18 11  1  0  0  0  0
 20 21  1  0  0  0  0
 22 20  1  0  0  0  0
 23 24  1  0  0  0  0
 24 25  2  0  0  0  0
 24  1  1  0  0  0  0
 25 30  1  0  0  0  0
 26 25  1  0  0  0  0
 27 26  2  0  0  0  0
 28 27  1  0  0  0  0
 28 23  2  0  0  0  0
 29 23  1  0  0  0  0
 31 36  1  0  0  0  0
 31 27  1  0  0  0  0
 32 31  2  0  0  0  0
 33 32  1  0  0  0  0
 34 35  2  0  0  0  0
 34 32  1  0  0  0  0
 35 36  1  0  0  0  0
M  END
>  <minimizedAffinity>
-5.65234089

$$$$

 OpenBabel03272501283D

 36 39  0  0  1  0  0  0  0  0999 V2000
   36.2780   28.3390   32.9070 C   0  0  0  0  0  0  0  0  0  0  0  0
   36.7320   28.6600   31.6290 C   0  0  0  0  0  0  0  0  0  0  0  0
   35.8820   29.6370   31.1050 C   0  0  0  0  0  0  0  0  0  0  0  0
   34.9580   29.8700   32.0650 N   0  0  0  0  0  0  0  0  0  0  0  0
   35.2240   29.0930   33.1010 N   0  0  0  0  0  0  0  0  0  0  0  0
   37.5880   28.2630   31.0730 H   0  0  0  0  0  0  0  0  0  0  0  0
   35.9390   30.1120   30.1390 H   0  0  0  0  0  0  0  0  0  0  0  0
   33.5230   31.2450   30.7190 N   0  0  0  0  0  0  0  0  0  0  0  0
   32.1880   31.7910   30.8450 C   0  0  0  0  0  0  0  0  0  0  0  0
   31.5910   31.2460   32.1260 C   0  0  0  0  0  0  0  0  0  0  0  0
   32.5780   30.1160   32.4750 C   0  0  0  0  0  0  0  0  0  0  0  0
   33.8550   30.7750   32.0540 C   0  0  1  0  0  0  0  0  0  0  0  0
   33.5850   30.4700   30.0450 H   0  0  0  0  0  0  0  0  0  0  0  0
   31.5840   31.3360   30.0060 H   0  0  0  0  0  0  0  0  0  0  0  0
   32.1540   32.8980   30.7840 H   0  0  0  0  0  0  0  0  0  0  0  0
   30.5770   30.8610   31.9940 H   0  0  0  0  0  0  0  0  0  0  0  0
   31.7000   31.9960   32.9140 H   0  0  0  0  0  0  0  0  0  0  0  0
   32.3230   29.2390   31.8720 H   0  0  0  0  0  0  0  0  0  0  0  0
   32.5160   29.9010   33.5700 H   0  0  0  0  0  0  0  0  0  0  0  0
   34.1490   31.8760   32.9380 N   0  0  0  0  0  0  0  0  0  0  0  0
   34.4490   31.4940   33.8540 H   0  0  0  0  0  0  0  0  0  0  0  0
   34.8030   32.5090   32.4660 H   0  0  0  0  0  0  0  0  0  0  0  0
   37.3680   27.6260   35.0360 C   0  0  0  0  0  0  0  0  0  0  0  0
   36.9400   27.3500   33.7370 C   0  0  0  0  0  0  0  0  0  0  0  0
   37.1680   26.0630   33.2360 C   0  0  0  0  0  0  0  0  0  0  0  0
   37.7880   25.1680   34.0380 N   0  0  0  0  0  0  0  0  0  0  0  0
   38.1940   25.4650   35.2990 C   0  0  0  0  0  0  0  0  0  0  0  0
   37.9770   26.7200   35.8020 N   0  0  0  0  0  0  0  0  0  0  0  0
   37.1950   28.6210   35.4330 H   0  0  0  0  0  0  0  0  0  0  0  0
   36.8590   25.7710   32.2210 H   0  0  0  0  0  0  0  0  0  0  0  0
   38.8300   24.5010   36.0820 C   0  0  0  0  0  0  0  0  0  0  0  0
   38.3440   24.2130   37.3080 C   0  0  0  0  0  0  0  0  0  0  0  0
   37.4860   24.5960   37.8880 H   0  0  0  0  0  0  0  0  0  0  0  0
   38.8120   23.3150   38.2190 C   0  0  0  0  0  3  0  0  0  0  0  0
   40.0110   22.6400   37.6560 C   0  0  0  0  0  3  0  0  0  0  0  0
   40.2720   23.3810   35.9530 S   0  0  0  0  0  0  0  0  0  0  0  0
  1  5  2  0  0  0  0
  1 24  1  0  0  0  0
  2  1  1  0  0  0  0
  3  2  2  0  0  0  0
  3  4  1  0  0  0  0
  4  5  1  0  0  0  0
  6  2  1  0  0  0  0
  7  3  1  0  0  0  0
  8  9  1  0  0  0  0
  8 12  1  0  0  0  0
  9 10  1  0  0  0  0
 10 11  1  0  0  0  0
 10 17  1  0  0  0  0
 11 19  1  0  0  0  0
 12  4  1  0  0  0  0
 12 11  1  0  0  0  0
 12 20  1  1  0  0  0
 13  8  1  0  0  0  0
 14  9  1  0  0  0  0
 15  9  1  0  0  0  0
 16 10  1  0  0  0  0
 18 11  1  0  0  0  0
 20 21  1  0  0  0  0
 22 20  1  0  0  0  0
 23 29  1  0  0  0  0
 23 28  1  0  0  0  0
 24 23  2  0  0  0  0
 25 24  1  0  0  0  0
 25 26  2  0  0  0  0
 26 27  1  0  0  0  0
 27 28  2  0  0  0  0
 27 31  1  0  0  0  0
 30 25  1  0  0  0  0
 31 32  2  0  0  0  0
 32 33  1  0  0  0  0
 32 34  1  0  0  0  0
 35 34  2  0  0  0  0
 36 31  1  0  0  0  0
 36 35  1  0  0  0  0
M  END
>  <minimizedAffinity>
-5.48019648

$$$$

 OpenBabel03272501283D

 36 39  0  0  1  0  0  0  0  0999 V2000
   35.9880   28.4140   32.5510 C   0  0  0  0  0  0  0  0  0  0  0  0
   36.2940   29.4270   31.6440 C   0  0  0  0  0  0  0  0  0  0  0  0
   35.9940   30.6500   32.2490 C   0  0  0  0  0  0  0  0  0  0  0  0
   35.5240   30.3420   33.4800 N   0  0  0  0  0  0  0  0  0  0  0  0
   35.5370   29.0280   33.6180 N   0  0  0  0  0  0  0  0  0  0  0  0
   36.6980   29.3560   30.6280 H   0  0  0  0  0  0  0  0  0  0  0  0
   36.1070   31.6390   31.8330 H   0  0  0  0  0  0  0  0  0  0  0  0
   33.8300   30.7640   35.1280 N   0  0  0  0  0  0  0  0  0  0  0  0
   33.7500   31.4980   36.3730 C   0  0  0  0  0  0  0  0  0  0  0  0
   35.1350   32.0280   36.6800 C   0  0  0  0  0  0  0  0  0  0  0  0
   36.0030   31.2310   35.6880 C   0  0  0  0  0  0  0  0  0  0  0  0
   35.0710   31.2120   34.5170 C   0  0  1  0  0  0  0  0  0  0  0  0
   33.8480   29.7430   35.2560 H   0  0  0  0  0  0  0  0  0  0  0  0
   33.5290   30.7320   37.1730 H   0  0  0  0  0  0  0  0  0  0  0  0
   32.9710   32.2870   36.3740 H   0  0  0  0  0  0  0  0  0  0  0  0
   35.4430   31.8460   37.7120 H   0  0  0  0  0  0  0  0  0  0  0  0
   35.1930   33.0730   36.3600 H   0  0  0  0  0  0  0  0  0  0  0  0
   36.1860   30.2390   36.1130 H   0  0  0  0  0  0  0  0  0  0  0  0
   36.9540   31.7870   35.5040 H   0  0  0  0  0  0  0  0  0  0  0  0
   34.9370   32.5440   33.9800 N   0  0  0  0  0  0  0  0  0  0  0  0
   35.8180   32.7940   33.4930 H   0  0  0  0  0  0  0  0  0  0  0  0
   34.0750   32.5890   33.4260 H   0  0  0  0  0  0  0  0  0  0  0  0
   35.5300   26.3830   31.1760 C   0  0  0  0  0  0  0  0  0  0  0  0
   36.1820   27.0110   32.2370 C   0  0  0  0  0  0  0  0  0  0  0  0
   37.0510   26.2390   33.0150 C   0  0  0  0  0  0  0  0  0  0  0  0
   37.2070   24.9350   32.6930 N   0  0  0  0  0  0  0  0  0  0  0  0
   36.5600   24.3500   31.6540 C   0  0  0  0  0  0  0  0  0  0  0  0
   35.7050   25.0930   30.8840 N   0  0  0  0  0  0  0  0  0  0  0  0
   34.8540   26.9740   30.5660 H   0  0  0  0  0  0  0  0  0  0  0  0
   37.6010   26.6650   33.8690 H   0  0  0  0  0  0  0  0  0  0  0  0
   36.7590   22.9980   31.3670 C   0  0  0  0  0  0  0  0  0  0  0  0
   35.7100   22.1500   31.4030 C   0  0  0  0  0  0  0  0  0  0  0  0
   34.6370   22.2860   31.6260 H   0  0  0  0  0  0  0  0  0  0  0  0
   35.6920   20.8100   31.1580 C   0  0  0  0  0  3  0  0  0  0  0  0
   37.0700   20.3640   30.8210 C   0  0  0  0  0  3  0  0  0  0  0  0
   38.1460   21.8980   30.9060 S   0  0  0  0  0  0  0  0  0  0  0  0
  1  5  2  0  0  0  0
  2  3  2  0  0  0  0
  2  1  1  0  0  0  0
  3  4  1  0  0  0  0
  4  5  1  0  0  0  0
  4 12  1  0  0  0  0
  6  2  1  0  0  0  0
  7  3  1  0  0  0  0
  8 13  1  0  0  0  0
  8  9  1  0  0  0  0
  9 15  1  0  0  0  0
  9 10  1  0  0  0  0
  9 14  1  0  0  0  0
 10 16  1  0  0  0  0
 11 18  1  0  0  0  0
 11 10  1  0  0  0  0
 12 20  1  6  0  0  0
 12  8  1  0  0  0  0
 12 11  1  0  0  0  0
 17 10  1  0  0  0  0
 19 11  1  0  0  0  0
 21 20  1  0  0  0  0
 22 20  1  0  0  0  0
 23 24  1  0  0  0  0
 24  1  1  0  0  0  0
 24 25  2  0  0  0  0
 25 30  1  0  0  0  0
 26 25  1  0  0  0  0
 27 26  2  0  0  0  0
 28 23  2  0  0  0  0
 28 27  1  0  0  0  0
 29 23  1  0  0  0  0
 31 32  2  0  0  0  0
 31 27  1  0  0  0  0
 32 33  1  0  0  0  0
 34 32  1  0  0  0  0
 35 36  1  0  0  0  0
 35 34  2  0  0  0  0
 36 31  1  0  0  0  0
M  END
>  <minimizedAffinity>
-5.41834068

$$$$

 OpenBabel03272501283D

 36 39  0  0  1  0  0  0  0  0999 V2000
   36.1790   28.3290   32.8400 C   0  0  0  0  0  0  0  0  0  0  0  0
   36.6360   28.6630   31.5660 C   0  0  0  0  0  0  0  0  0  0  0  0
   35.7840   29.6390   31.0470 C   0  0  0  0  0  0  0  0  0  0  0  0
   34.8560   29.8610   32.0060 N   0  0  0  0  0  0  0  0  0  0  0  0
   35.1210   29.0770   33.0360 N   0  0  0  0  0  0  0  0  0  0  0  0
   37.4960   28.2740   31.0090 H   0  0  0  0  0  0  0  0  0  0  0  0
   35.8420   30.1230   30.0840 H   0  0  0  0  0  0  0  0  0  0  0  0
   32.4940   30.1150   32.3530 N   0  0  0  0  0  0  0  0  0  0  0  0
   31.6040   31.2060   32.6890 C   0  0  0  0  0  0  0  0  0  0  0  0
   32.4580   32.4290   32.9490 C   0  0  0  0  0  0  0  0  0  0  0  0
   33.8650   31.8110   33.0590 C   0  0  0  0  0  0  0  0  0  0  0  0
   33.7480   30.7610   31.9990 C   0  0  1  0  0  0  0  0  0  0  0  0
   32.6430   29.4560   33.1290 H   0  0  0  0  0  0  0  0  0  0  0  0
   31.1410   30.9360   33.6830 H   0  0  0  0  0  0  0  0  0  0  0  0
   30.8110   31.3800   31.9330 H   0  0  0  0  0  0  0  0  0  0  0  0
   32.1830   32.9550   33.8660 H   0  0  0  0  0  0  0  0  0  0  0  0
   32.4710   33.0500   32.0490 H   0  0  0  0  0  0  0  0  0  0  0  0
   33.9800   31.4000   34.0670 H   0  0  0  0  0  0  0  0  0  0  0  0
   34.6280   32.5960   32.8400 H   0  0  0  0  0  0  0  0  0  0  0  0
   33.6650   31.3850   30.7020 N   0  0  0  0  0  0  0  0  0  0  0  0
   34.5980   31.7690   30.4590 H   0  0  0  0  0  0  0  0  0  0  0  0
   33.2560   30.7170   30.0410 H   0  0  0  0  0  0  0  0  0  0  0  0
   37.0980   26.0390   33.2160 C   0  0  0  0  0  0  0  0  0  0  0  0
   36.8430   27.3360   33.6640 C   0  0  0  0  0  0  0  0  0  0  0  0
   37.2510   27.6690   34.9600 C   0  0  0  0  0  0  0  0  0  0  0  0
   37.8670   26.7180   35.6980 N   0  0  0  0  0  0  0  0  0  0  0  0
   38.1020   25.4640   35.2360 C   0  0  0  0  0  0  0  0  0  0  0  0
   37.7080   25.1230   33.9700 N   0  0  0  0  0  0  0  0  0  0  0  0
   36.7850   25.7720   32.2120 H   0  0  0  0  0  0  0  0  0  0  0  0
   37.0840   28.6720   35.3820 H   0  0  0  0  0  0  0  0  0  0  0  0
   38.7420   24.5210   36.0430 C   0  0  0  0  0  0  0  0  0  0  0  0
   38.2550   24.2620   37.2750 C   0  0  0  0  0  0  0  0  0  0  0  0
   37.3940   24.6540   37.8440 H   0  0  0  0  0  0  0  0  0  0  0  0
   38.7250   23.3880   38.2080 C   0  0  0  0  0  3  0  0  0  0  0  0
   39.9290   22.7050   37.6640 C   0  0  0  0  0  3  0  0  0  0  0  0
   40.1890   23.4060   35.9430 S   0  0  0  0  0  0  0  0  0  0  0  0
  1  5  2  0  0  0  0
  1 24  1  0  0  0  0
  2  1  1  0  0  0  0
  3  2  2  0  0  0  0
  3  4  1  0  0  0  0
  4  5  1  0  0  0  0
  6  2  1  0  0  0  0
  7  3  1  0  0  0  0
  8  9  1  0  0  0  0
  8 13  1  0  0  0  0
  9 10  1  0  0  0  0
  9 14  1  0  0  0  0
 10 11  1  0  0  0  0
 10 16  1  0  0  0  0
 11 18  1  0  0  0  0
 12 20  1  6  0  0  0
 12  4  1  0  0  0  0
 12  8  1  0  0  0  0
 12 11  1  0  0  0  0
 15  9  1  0  0  0  0
 17 10  1  0  0  0  0
 19 11  1  0  0  0  0
 21 20  1  0  0  0  0
 22 20  1  0  0  0  0
 23 24  2  0  0  0  0
 23 28  1  0  0  0  0
 24 25  1  0  0  0  0
 25 30  1  0  0  0  0
 25 26  2  0  0  0  0
 27 26  1  0  0  0  0
 27 31  1  0  0  0  0
 28 27  2  0  0  0  0
 29 23  1  0  0  0  0
 31 32  2  0  0  0  0
 32 33  1  0  0  0  0
 32 34  1  0  0  0  0
 35 34  2  0  0  0  0
 36 31  1  0  0  0  0
 36 35  1  0  0  0  0
M  END
>  <minimizedAffinity>
-5.4127903

$$$$

 OpenBabel03272501283D

 36 39  0  0  1  0  0  0  0  0999 V2000
   37.4540   25.9640   33.9300 C   0  0  0  0  0  0  0  0  0  0  0  0
   37.8560   24.9560   33.0540 C   0  0  0  0  0  0  0  0  0  0  0  0
   38.2770   23.8660   33.8190 C   0  0  0  0  0  0  0  0  0  0  0  0
   38.1180   24.2420   35.1090 N   0  0  0  0  0  0  0  0  0  0  0  0
   37.6350   25.4720   35.1310 N   0  0  0  0  0  0  0  0  0  0  0  0
   37.8700   24.9480   31.9590 H   0  0  0  0  0  0  0  0  0  0  0  0
   38.6520   22.9180   33.4680 H   0  0  0  0  0  0  0  0  0  0  0  0
   39.8090   23.2180   36.4710 N   0  0  0  0  0  0  0  0  0  0  0  0
   39.9450   22.8610   37.8670 C   0  0  0  0  0  0  0  0  0  0  0  0
   38.7130   23.3670   38.5890 C   0  0  0  0  0  0  0  0  0  0  0  0
   38.0960   24.3060   37.5360 C   0  0  0  0  0  0  0  0  0  0  0  0
   38.3940   23.5110   36.3030 C   0  0  1  0  0  0  0  0  0  0  0  0
   40.3730   24.0340   36.2010 H   0  0  0  0  0  0  0  0  0  0  0  0
   40.8070   23.4730   38.2630 H   0  0  0  0  0  0  0  0  0  0  0  0
   40.1350   21.7810   38.0330 H   0  0  0  0  0  0  0  0  0  0  0  0
   38.9490   23.9050   39.5100 H   0  0  0  0  0  0  0  0  0  0  0  0
   38.0070   22.5400   38.7070 H   0  0  0  0  0  0  0  0  0  0  0  0
   38.6270   25.2620   37.5750 H   0  0  0  0  0  0  0  0  0  0  0  0
   37.0050   24.4260   37.7470 H   0  0  0  0  0  0  0  0  0  0  0  0
   37.6070   22.3030   36.3000 N   0  0  0  0  0  0  0  0  0  0  0  0
   36.6190   22.5520   36.1060 H   0  0  0  0  0  0  0  0  0  0  0  0
   38.0450   21.6270   35.6650 H   0  0  0  0  0  0  0  0  0  0  0  0
   36.3130   28.1520   34.3000 C   0  0  0  0  0  0  0  0  0  0  0  0
   36.9570   27.2430   33.4600 C   0  0  0  0  0  0  0  0  0  0  0  0
   37.1180   27.6000   32.1160 C   0  0  0  0  0  0  0  0  0  0  0  0
   36.6420   28.8000   31.7150 N   0  0  0  0  0  0  0  0  0  0  0  0
   36.0200   29.6650   32.5550 C   0  0  0  0  0  0  0  0  0  0  0  0
   35.8550   29.3300   33.8720 N   0  0  0  0  0  0  0  0  0  0  0  0
   36.1840   27.8840   35.3440 H   0  0  0  0  0  0  0  0  0  0  0  0
   37.6150   26.9350   31.3940 H   0  0  0  0  0  0  0  0  0  0  0  0
   35.5480   30.8920   32.0850 C   0  0  0  0  0  0  0  0  0  0  0  0
   36.3570   31.9710   32.1130 C   0  0  0  0  0  0  0  0  0  0  0  0
   37.3970   32.1250   32.4510 H   0  0  0  0  0  0  0  0  0  0  0  0
   36.0920   33.2430   31.7050 C   0  0  0  0  0  3  0  0  0  0  0  0
   34.7000   33.3030   31.1860 C   0  0  0  0  0  3  0  0  0  0  0  0
   34.0090   31.5670   31.3610 S   0  0  0  0  0  0  0  0  0  0  0  0
  1  5  2  0  0  0  0
  2  3  2  0  0  0  0
  2  1  1  0  0  0  0
  3  4  1  0  0  0  0
  4  5  1  0  0  0  0
  4 12  1  0  0  0  0
  6  2  1  0  0  0  0
  7  3  1  0  0  0  0
  8  9  1  0  0  0  0
  9 15  1  0  0  0  0
  9 14  1  0  0  0  0
  9 10  1  0  0  0  0
 10 17  1  0  0  0  0
 10 16  1  0  0  0  0
 11 18  1  0  0  0  0
 11 19  1  0  0  0  0
 11 10  1  0  0  0  0
 12 20  1  1  0  0  0
 12  8  1  0  0  0  0
 12 11  1  0  0  0  0
 13  8  1  0  0  0  0
 21 20  1  0  0  0  0
 22 20  1  0  0  0  0
 23 29  1  0  0  0  0
 24  1  1  0  0  0  0
 24 23  2  0  0  0  0
 25 24  1  0  0  0  0
 26 25  2  0  0  0  0
 26 27  1  0  0  0  0
 27 28  2  0  0  0  0
 28 23  1  0  0  0  0
 30 25  1  0  0  0  0
 31 32  2  0  0  0  0
 31 27  1  0  0  0  0
 32 33  1  0  0  0  0
 34 32  1  0  0  0  0
 35 36  1  0  0  0  0
 35 34  2  0  0  0  0
 36 31  1  0  0  0  0
M  END
>  <minimizedAffinity>
-5.27969408

$$$$

 OpenBabel03272501283D

 36 39  0  0  1  0  0  0  0  0999 V2000
   37.7050   25.2550   33.3660 C   0  0  0  0  0  0  0  0  0  0  0  0
   37.6770   24.0180   32.7250 C   0  0  0  0  0  0  0  0  0  0  0  0
   37.9200   23.0320   33.6850 C   0  0  0  0  0  0  0  0  0  0  0  0
   38.0840   23.6940   34.8540 N   0  0  0  0  0  0  0  0  0  0  0  0
   37.9510   24.9890   34.6250 N   0  0  0  0  0  0  0  0  0  0  0  0
   37.5040   23.7820   31.6700 H   0  0  0  0  0  0  0  0  0  0  0  0
   37.9690   21.9650   33.5380 H   0  0  0  0  0  0  0  0  0  0  0  0
   39.7710   22.9230   36.3780 N   0  0  0  0  0  0  0  0  0  0  0  0
   39.8990   22.8040   37.8150 C   0  0  0  0  0  0  0  0  0  0  0  0
   38.6590   23.4150   38.4350 C   0  0  0  0  0  0  0  0  0  0  0  0
   38.0440   24.1610   37.2360 C   0  0  0  0  0  0  0  0  0  0  0  0
   38.3560   23.1730   36.1550 C   0  0  1  0  0  0  0  0  0  0  0  0
   40.3330   23.6870   35.9790 H   0  0  0  0  0  0  0  0  0  0  0  0
   40.7550   23.4800   38.1080 H   0  0  0  0  0  0  0  0  0  0  0  0
   40.0940   21.7680   38.1590 H   0  0  0  0  0  0  0  0  0  0  0  0
   38.8850   24.1000   39.2550 H   0  0  0  0  0  0  0  0  0  0  0  0
   37.9570   22.6130   38.6840 H   0  0  0  0  0  0  0  0  0  0  0  0
   38.5690   25.1140   37.1190 H   0  0  0  0  0  0  0  0  0  0  0  0
   36.9510   24.3070   37.4170 H   0  0  0  0  0  0  0  0  0  0  0  0
   37.5770   21.9760   36.3480 N   0  0  0  0  0  0  0  0  0  0  0  0
   36.5880   22.1830   36.1100 H   0  0  0  0  0  0  0  0  0  0  0  0
   38.0230   21.2080   35.8370 H   0  0  0  0  0  0  0  0  0  0  0  0
   36.7280   27.5440   33.1800 C   0  0  0  0  0  0  0  0  0  0  0  0
   37.4890   26.5000   32.6530 C   0  0  0  0  0  0  0  0  0  0  0  0
   38.0540   26.6830   31.3860 C   0  0  0  0  0  0  0  0  0  0  0  0
   37.8310   27.8550   30.7520 N   0  0  0  0  0  0  0  0  0  0  0  0
   37.0860   28.8550   31.2900 C   0  0  0  0  0  0  0  0  0  0  0  0
   36.5260   28.6910   32.5280 N   0  0  0  0  0  0  0  0  0  0  0  0
   36.2860   27.4120   34.1630 H   0  0  0  0  0  0  0  0  0  0  0  0
   38.6660   25.9040   30.9050 H   0  0  0  0  0  0  0  0  0  0  0  0
   36.8880   30.0450   30.5880 C   0  0  0  0  0  0  0  0  0  0  0  0
   37.3490   30.1570   29.3250 C   0  0  0  0  0  0  0  0  0  0  0  0
   37.8940   29.4670   28.6570 H   0  0  0  0  0  0  0  0  0  0  0  0
   37.2590   31.2200   28.4780 C   0  0  0  0  0  3  0  0  0  0  0  0
   36.5390   32.3240   29.1660 C   0  0  0  0  0  3  0  0  0  0  0  0
   36.1140   31.6780   30.8760 S   0  0  0  0  0  0  0  0  0  0  0  0
  1  5  2  0  0  0  0
  2  1  1  0  0  0  0
  2  3  2  0  0  0  0
  3  4  1  0  0  0  0
  4 12  1  0  0  0  0
  5  4  1  0  0  0  0
  6  2  1  0  0  0  0
  7  3  1  0  0  0  0
  8  9  1  0  0  0  0
  9 14  1  0  0  0  0
  9 15  1  0  0  0  0
  9 10  1  0  0  0  0
 10 17  1  0  0  0  0
 10 16  1  0  0  0  0
 11 19  1  0  0  0  0
 11 10  1  0  0  0  0
 12 20  1  1  0  0  0
 12  8  1  0  0  0  0
 12 11  1  0  0  0  0
 13  8  1  0  0  0  0
 18 11  1  0  0  0  0
 21 20  1  0  0  0  0
 22 20  1  0  0  0  0
 23 29  1  0  0  0  0
 24 23  1  0  0  0  0
 24  1  1  0  0  0  0
 25 24  2  0  0  0  0
 26 27  2  0  0  0  0
 26 25  1  0  0  0  0
 27 28  1  0  0  0  0
 28 23  2  0  0  0  0
 30 25  1  0  0  0  0
 31 36  1  0  0  0  0
 31 27  1  0  0  0  0
 32 31  2  0  0  0  0
 33 32  1  0  0  0  0
 34 35  2  0  0  0  0
 34 32  1  0  0  0  0
 35 36  1  0  0  0  0
M  END
>  <minimizedAffinity>
-5.2558918

$$$$

 OpenBabel03272501283D

 36 39  0  0  1  0  0  0  0  0999 V2000
   35.9880   28.7620   32.9360 C   0  0  0  0  0  0  0  0  0  0  0  0
   36.0330   29.8160   32.0250 C   0  0  0  0  0  0  0  0  0  0  0  0
   35.7860   30.9990   32.7250 C   0  0  0  0  0  0  0  0  0  0  0  0
   35.6040   30.6300   34.0130 N   0  0  0  0  0  0  0  0  0  0  0  0
   35.7300   29.3170   34.0950 N   0  0  0  0  0  0  0  0  0  0  0  0
   36.2200   29.7980   30.9460 H   0  0  0  0  0  0  0  0  0  0  0  0
   35.7460   32.0030   32.3330 H   0  0  0  0  0  0  0  0  0  0  0  0
   35.1740   32.8490   34.8220 N   0  0  0  0  0  0  0  0  0  0  0  0
   34.5090   33.4260   35.9700 C   0  0  0  0  0  0  0  0  0  0  0  0
   33.8880   32.2910   36.7570 C   0  0  0  0  0  0  0  0  0  0  0  0
   33.9870   31.1250   35.7560 C   0  0  0  0  0  0  0  0  0  0  0  0
   35.3210   31.4400   35.1540 C   0  0  1  0  0  0  0  0  0  0  0  0
   34.6440   32.9530   33.9470 H   0  0  0  0  0  0  0  0  0  0  0  0
   33.6440   34.0260   35.5610 H   0  0  0  0  0  0  0  0  0  0  0  0
   35.1660   34.0750   36.5850 H   0  0  0  0  0  0  0  0  0  0  0  0
   32.8500   32.4840   37.0390 H   0  0  0  0  0  0  0  0  0  0  0  0
   34.5510   32.0320   37.5880 H   0  0  0  0  0  0  0  0  0  0  0  0
   33.1590   31.2110   35.0460 H   0  0  0  0  0  0  0  0  0  0  0  0
   33.9580   30.1580   36.3150 H   0  0  0  0  0  0  0  0  0  0  0  0
   36.3590   31.2400   36.1350 N   0  0  0  0  0  0  0  0  0  0  0  0
   36.4770   30.2210   36.2870 H   0  0  0  0  0  0  0  0  0  0  0  0
   37.1910   31.7630   35.8440 H   0  0  0  0  0  0  0  0  0  0  0  0
   35.5920   26.8260   31.4130 C   0  0  0  0  0  0  0  0  0  0  0  0
   36.2030   27.3850   32.5360 C   0  0  0  0  0  0  0  0  0  0  0  0
   37.0510   26.5660   33.2890 C   0  0  0  0  0  0  0  0  0  0  0  0
   37.2270   25.2880   32.8860 N   0  0  0  0  0  0  0  0  0  0  0  0
   36.6200   24.7710   31.7880 C   0  0  0  0  0  0  0  0  0  0  0  0
   35.7870   25.5600   31.0400 N   0  0  0  0  0  0  0  0  0  0  0  0
   34.9330   27.4530   30.8210 H   0  0  0  0  0  0  0  0  0  0  0  0
   37.5680   26.9360   34.1880 H   0  0  0  0  0  0  0  0  0  0  0  0
   36.8380   23.4430   31.4180 C   0  0  0  0  0  0  0  0  0  0  0  0
   35.8060   22.5730   31.4220 C   0  0  0  0  0  0  0  0  0  0  0  0
   34.7350   22.6750   31.6700 H   0  0  0  0  0  0  0  0  0  0  0  0
   35.8080   21.2500   31.0980 C   0  0  0  0  0  3  0  0  0  0  0  0
   37.1880   20.8510   30.7110 C   0  0  0  0  0  3  0  0  0  0  0  0
   38.2370   22.3990   30.8690 S   0  0  0  0  0  0  0  0  0  0  0  0
  1  5  2  0  0  0  0
  2  3  2  0  0  0  0
  2  1  1  0  0  0  0
  3  4  1  0  0  0  0
  4  5  1  0  0  0  0
  4 12  1  0  0  0  0
  6  2  1  0  0  0  0
  7  3  1  0  0  0  0
  8 12  1  0  0  0  0
  8  9  1  0  0  0  0
  9 15  1  0  0  0  0
  9 10  1  0  0  0  0
 10 16  1  0  0  0  0
 10 17  1  0  0  0  0
 11 19  1  0  0  0  0
 11 10  1  0  0  0  0
 12 11  1  0  0  0  0
 12 20  1  1  0  0  0
 13  8  1  0  0  0  0
 14  9  1  0  0  0  0
 18 11  1  0  0  0  0
 20 21  1  0  0  0  0
 22 20  1  0  0  0  0
 23 24  1  0  0  0  0
 24  1  1  0  0  0  0
 24 25  2  0  0  0  0
 25 30  1  0  0  0  0
 26 25  1  0  0  0  0
 27 26  2  0  0  0  0
 28 23  2  0  0  0  0
 28 27  1  0  0  0  0
 29 23  1  0  0  0  0
 31 32  2  0  0  0  0
 31 27  1  0  0  0  0
 32 33  1  0  0  0  0
 34 32  1  0  0  0  0
 35 36  1  0  0  0  0
 35 34  2  0  0  0  0
 36 31  1  0  0  0  0
M  END
>  <minimizedAffinity>
-5.23839474

$$$$

 OpenBabel03272501283D

 36 39  0  0  1  0  0  0  0  0999 V2000
   37.1090   27.4810   34.1000 C   0  0  0  0  0  0  0  0  0  0  0  0
   36.7080   27.6540   32.7760 C   0  0  0  0  0  0  0  0  0  0  0  0
   35.9070   28.7960   32.7160 C   0  0  0  0  0  0  0  0  0  0  0  0
   35.8500   29.2690   33.9820 N   0  0  0  0  0  0  0  0  0  0  0  0
   36.5640   28.4740   34.7590 N   0  0  0  0  0  0  0  0  0  0  0  0
   36.9380   27.0480   31.8930 H   0  0  0  0  0  0  0  0  0  0  0  0
   35.4270   29.2220   31.8490 H   0  0  0  0  0  0  0  0  0  0  0  0
   33.9080   30.0810   35.1360 N   0  0  0  0  0  0  0  0  0  0  0  0
   33.5760   31.2540   35.9170 C   0  0  0  0  0  0  0  0  0  0  0  0
   34.8400   32.0760   36.0640 C   0  0  0  0  0  0  0  0  0  0  0  0
   35.9180   31.0790   35.5990 C   0  0  0  0  0  0  0  0  0  0  0  0
   35.1660   30.4150   34.4880 C   0  0  1  0  0  0  0  0  0  0  0  0
   34.0170   29.2300   35.7030 H   0  0  0  0  0  0  0  0  0  0  0  0
   33.3300   30.8790   36.9530 H   0  0  0  0  0  0  0  0  0  0  0  0
   32.7240   31.8330   35.5070 H   0  0  0  0  0  0  0  0  0  0  0  0
   35.0190   32.4030   37.0910 H   0  0  0  0  0  0  0  0  0  0  0  0
   34.8290   32.8780   35.3200 H   0  0  0  0  0  0  0  0  0  0  0  0
   36.1460   30.4070   36.4320 H   0  0  0  0  0  0  0  0  0  0  0  0
   36.8200   31.6460   35.2620 H   0  0  0  0  0  0  0  0  0  0  0  0
   34.9650   31.3490   33.4080 N   0  0  0  0  0  0  0  0  0  0  0  0
   35.8730   31.5030   32.9310 H   0  0  0  0  0  0  0  0  0  0  0  0
   34.1890   31.0170   32.8270 H   0  0  0  0  0  0  0  0  0  0  0  0
   37.8680   25.7980   35.7790 C   0  0  0  0  0  0  0  0  0  0  0  0
   37.9570   26.3790   34.5130 C   0  0  0  0  0  0  0  0  0  0  0  0
   38.9090   25.8640   33.6260 C   0  0  0  0  0  0  0  0  0  0  0  0
   39.6810   24.8370   34.0470 N   0  0  0  0  0  0  0  0  0  0  0  0
   39.5720   24.2900   35.2840 C   0  0  0  0  0  0  0  0  0  0  0  0
   38.6460   24.7840   36.1630 N   0  0  0  0  0  0  0  0  0  0  0  0
   37.1320   26.1900   36.4730 H   0  0  0  0  0  0  0  0  0  0  0  0
   39.0380   26.2710   32.6120 H   0  0  0  0  0  0  0  0  0  0  0  0
   40.3970   23.2310   35.6650 C   0  0  0  0  0  0  0  0  0  0  0  0
   40.3840   22.8040   36.9450 C   0  0  0  0  0  0  0  0  0  0  0  0
   39.8250   23.1250   37.8410 H   0  0  0  0  0  0  0  0  0  0  0  0
   41.1050   21.7970   37.5120 C   0  0  0  0  0  3  0  0  0  0  0  0
   41.9700   21.1790   36.4730 C   0  0  0  0  0  3  0  0  0  0  0  0
   41.6230   22.1170   34.8860 S   0  0  0  0  0  0  0  0  0  0  0  0
  1 24  1  0  0  0  0
  1  5  2  0  0  0  0
  2  1  1  0  0  0  0
  3  2  2  0  0  0  0
  3  4  1  0  0  0  0
  4 12  1  0  0  0  0
  4  5  1  0  0  0  0
  6  2  1  0  0  0  0
  7  3  1  0  0  0  0
  8 13  1  0  0  0  0
  8  9  1  0  0  0  0
  9 10  1  0  0  0  0
  9 14  1  0  0  0  0
 10 16  1  0  0  0  0
 11 10  1  0  0  0  0
 11 18  1  0  0  0  0
 12 20  1  6  0  0  0
 12  8  1  0  0  0  0
 12 11  1  0  0  0  0
 15  9  1  0  0  0  0
 17 10  1  0  0  0  0
 19 11  1  0  0  0  0
 21 20  1  0  0  0  0
 22 20  1  0  0  0  0
 23 28  1  0  0  0  0
 23 29  1  0  0  0  0
 24 23  2  0  0  0  0
 25 26  2  0  0  0  0
 25 24  1  0  0  0  0
 26 27  1  0  0  0  0
 27 31  1  0  0  0  0
 27 28  2  0  0  0  0
 30 25  1  0  0  0  0
 31 32  2  0  0  0  0
 32 34  1  0  0  0  0
 32 33  1  0  0  0  0
 35 34  2  0  0  0  0
 36 31  1  0  0  0  0
 36 35  1  0  0  0  0
M  END
>  <minimizedAffinity>
-5.17501211

$$$$

 OpenBabel03272501283D

 36 39  0  0  1  0  0  0  0  0999 V2000
   36.0750   27.5570   31.6130 C   0  0  0  0  0  0  0  0  0  0  0  0
   36.6590   28.3050   30.5920 C   0  0  0  0  0  0  0  0  0  0  0  0
   36.4780   29.6570   30.8930 C   0  0  0  0  0  0  0  0  0  0  0  0
   35.8020   29.6820   32.0640 N   0  0  0  0  0  0  0  0  0  0  0  0
   35.5870   28.4370   32.4520 N   0  0  0  0  0  0  0  0  0  0  0  0
   37.1810   27.9670   29.6890 H   0  0  0  0  0  0  0  0  0  0  0  0
   36.8020   30.5110   30.3190 H   0  0  0  0  0  0  0  0  0  0  0  0
   35.6480   30.6770   34.2440 N   0  0  0  0  0  0  0  0  0  0  0  0
   35.5130   32.0190   34.7680 C   0  0  0  0  0  0  0  0  0  0  0  0
   35.5770   32.9750   33.5950 C   0  0  0  0  0  0  0  0  0  0  0  0
   36.0960   32.0580   32.4710 C   0  0  0  0  0  0  0  0  0  0  0  0
   35.3570   30.8050   32.8250 C   0  0  1  0  0  0  0  0  0  0  0  0
   36.5870   30.2780   34.3780 H   0  0  0  0  0  0  0  0  0  0  0  0
   36.4460   32.2130   35.3740 H   0  0  0  0  0  0  0  0  0  0  0  0
   34.6110   32.1610   35.3980 H   0  0  0  0  0  0  0  0  0  0  0  0
   36.2530   33.8160   33.7650 H   0  0  0  0  0  0  0  0  0  0  0  0
   34.5580   33.2540   33.3100 H   0  0  0  0  0  0  0  0  0  0  0  0
   37.1810   31.9670   32.5770 H   0  0  0  0  0  0  0  0  0  0  0  0
   35.8090   32.4920   31.4830 H   0  0  0  0  0  0  0  0  0  0  0  0
   33.9460   30.9900   32.5960 N   0  0  0  0  0  0  0  0  0  0  0  0
   33.7760   31.0050   31.5730 H   0  0  0  0  0  0  0  0  0  0  0  0
   33.4300   30.2900   33.1390 H   0  0  0  0  0  0  0  0  0  0  0  0
   37.0340   25.3620   32.3110 C   0  0  0  0  0  0  0  0  0  0  0  0
   36.0850   26.1070   31.6100 C   0  0  0  0  0  0  0  0  0  0  0  0
   35.1150   25.4060   30.8840 C   0  0  0  0  0  0  0  0  0  0  0  0
   35.1560   24.0550   30.9060 N   0  0  0  0  0  0  0  0  0  0  0  0
   36.0910   23.3560   31.5970 C   0  0  0  0  0  0  0  0  0  0  0  0
   37.0470   24.0280   32.3120 N   0  0  0  0  0  0  0  0  0  0  0  0
   37.7900   25.8960   32.8780 H   0  0  0  0  0  0  0  0  0  0  0  0
   34.3340   25.9250   30.3070 H   0  0  0  0  0  0  0  0  0  0  0  0
   36.0850   21.9600   31.5830 C   0  0  0  0  0  0  0  0  0  0  0  0
   35.0260   21.2950   32.0890 C   0  0  0  0  0  0  0  0  0  0  0  0
   34.0800   21.6250   32.5520 H   0  0  0  0  0  0  0  0  0  0  0  0
   34.8260   19.9500   32.1680 C   0  0  0  0  0  3  0  0  0  0  0  0
   36.0040   19.2530   31.5860 C   0  0  0  0  0  3  0  0  0  0  0  0
   37.1820   20.6030   31.0310 S   0  0  0  0  0  0  0  0  0  0  0  0
  1  5  2  0  0  0  0
  2  3  2  0  0  0  0
  2  1  1  0  0  0  0
  3  4  1  0  0  0  0
  4  5  1  0  0  0  0
  4 12  1  0  0  0  0
  6  2  1  0  0  0  0
  7  3  1  0  0  0  0
  8 13  1  0  0  0  0
  8  9  1  0  0  0  0
  9 14  1  0  0  0  0
  9 15  1  0  0  0  0
 10 16  1  0  0  0  0
 10  9  1  0  0  0  0
 11 18  1  0  0  0  0
 11 12  1  0  0  0  0
 11 10  1  0  0  0  0
 12 20  1  6  0  0  0
 12  8  1  0  0  0  0
 17 10  1  0  0  0  0
 19 11  1  0  0  0  0
 20 22  1  0  0  0  0
 21 20  1  0  0  0  0
 23 28  1  0  0  0  0
 23 29  1  0  0  0  0
 24  1  1  0  0  0  0
 24 23  2  0  0  0  0
 25 26  2  0  0  0  0
 25 24  1  0  0  0  0
 26 27  1  0  0  0  0
 27 28  2  0  0  0  0
 30 25  1  0  0  0  0
 31 27  1  0  0  0  0
 31 32  2  0  0  0  0
 32 34  1  0  0  0  0
 32 33  1  0  0  0  0
 35 34  2  0  0  0  0
 36 31  1  0  0  0  0
 36 35  1  0  0  0  0
M  END
>  <minimizedAffinity>
-5.15753508

$$$$
