
 OpenBabel03272507473D

 43 47  0  0  1  0  0  0  0  0999 V2000
   32.8420   28.1510   47.3810 N   0  0  0  0  0  0  0  0  0  0  0  0
   33.5480   27.6150   48.4940 C   0  0  0  0  0  0  0  0  0  0  0  0
   34.7160   28.3830   48.9840 C   0  0  0  0  0  0  0  0  0  0  0  0
   35.5450   29.0400   47.9740 C   0  0  1  0  0  0  0  0  0  0  0  0
   34.7250   29.5280   46.7670 C   0  0  0  0  0  0  0  0  0  0  0  0
   33.8060   28.3770   46.3400 C   0  0  0  0  0  0  0  0  0  0  0  0
   32.8050   27.4730   49.3210 H   0  0  0  0  0  0  0  0  0  0  0  0
   33.8960   26.5700   48.2620 H   0  0  0  0  0  0  0  0  0  0  0  0
   34.2140   29.2150   49.5820 H   0  0  0  0  0  0  0  0  0  0  0  0
   35.2910   27.7720   49.6960 H   0  0  0  0  0  0  0  0  0  0  0  0
   36.3210   28.3540   47.5320 H   0  0  0  0  0  0  0  0  0  0  0  0
   34.0690   30.3400   47.0840 H   0  0  0  0  0  0  0  0  0  0  0  0
   35.4210   29.7840   45.9590 H   0  0  0  0  0  0  0  0  0  0  0  0
   34.3940   27.4780   46.0750 H   0  0  0  0  0  0  0  0  0  0  0  0
   33.2520   28.7310   45.4570 H   0  0  0  0  0  0  0  0  0  0  0  0
   35.9590   30.7320   49.7030 C   0  0  0  0  0  0  0  0  0  0  0  0
   36.2790   30.2400   48.4460 C   0  0  0  0  0  0  0  0  0  0  0  0
   37.2070   30.8110   47.6170 C   0  0  0  0  0  0  0  0  0  0  0  0
   37.8660   31.9560   48.0700 C   0  0  0  0  0  0  0  0  0  0  0  0
   37.5490   32.4430   49.3120 C   0  0  0  0  0  0  0  0  0  0  0  0
   36.6060   31.8640   50.1570 C   0  0  0  0  0  0  0  0  0  0  0  0
   38.3070   33.5920   49.5900 O   0  0  0  0  0  0  0  0  0  0  0  0
   39.3460   33.5760   48.6160 C   0  0  0  0  0  0  0  0  0  0  0  0
   38.8420   32.8060   47.5510 O   0  0  0  0  0  0  0  0  0  0  0  0
   35.2620   30.3650   50.4430 H   0  0  0  0  0  0  0  0  0  0  0  0
   37.4300   30.4100   46.6610 H   0  0  0  0  0  0  0  0  0  0  0  0
   36.4050   32.3130   51.1390 H   0  0  0  0  0  0  0  0  0  0  0  0
   39.5080   34.6160   48.2700 H   0  0  0  0  0  0  0  0  0  0  0  0
   40.2780   33.1520   49.0070 H   0  0  0  0  0  0  0  0  0  0  0  0
   31.4440   28.4220   47.2810 C   0  0  0  0  0  0  0  0  0  0  0  0
   30.7990   28.9830   46.1850 C   0  0  0  0  0  0  0  0  0  0  0  0
   29.4250   29.1700   46.2730 C   0  0  0  0  0  0  0  0  0  0  0  0
   28.7790   28.8000   47.4150 N   0  0  0  0  0  0  0  0  0  0  0  0
   29.4340   28.2690   48.4390 C   0  0  0  0  0  0  0  0  0  0  0  0
   30.7430   28.0780   48.3830 N   0  0  0  0  0  0  0  0  0  0  0  0
   31.4390   29.2240   45.3550 H   0  0  0  0  0  0  0  0  0  0  0  0
   28.9870   29.6080   45.3890 H   0  0  0  0  0  0  0  0  0  0  0  0
   28.6030   27.9200   49.6040 C   0  0  0  0  0  0  0  0  0  0  0  0
   28.8050   27.1450   50.6720 C   0  0  0  0  0  0  0  0  0  0  0  0
   29.7930   26.6560   50.7120 H   0  0  0  0  0  0  0  0  0  0  0  0
   27.8620   26.9870   51.6210 C   0  0  0  0  0  0  0  0  0  0  0  0
   26.6760   27.6810   51.4070 C   0  0  0  0  0  0  0  0  0  0  0  0
   26.9740   28.5650   49.7940 S   0  0  0  0  0  0  0  0  0  0  0  0
  1  2  1  0  0  0  0
  2  3  1  0  0  0  0
  2  7  1  0  0  0  0
  3  9  1  0  0  0  0
  3 10  1  0  0  0  0
  4 11  1  6  0  0  0
  4 17  1  0  0  0  0
  4  3  1  0  0  0  0
  5 12  1  0  0  0  0
  5  4  1  0  0  0  0
  6  5  1  0  0  0  0
  6  1  1  0  0  0  0
  8  2  1  0  0  0  0
 13  5  1  0  0  0  0
 14  6  1  0  0  0  0
 15  6  1  0  0  0  0
 16 21  1  0  0  0  0
 16 25  1  0  0  0  0
 17 16  2  0  0  0  0
 18 19  2  0  0  0  0
 18 17  1  0  0  0  0
 19 20  1  0  0  0  0
 20 22  1  0  0  0  0
 20 21  2  0  0  0  0
 21 27  1  0  0  0  0
 23 29  1  0  0  0  0
 23 22  1  0  0  0  0
 24 19  1  0  0  0  0
 24 23  1  0  0  0  0
 26 18  1  0  0  0  0
 28 23  1  0  0  0  0
 30  1  1  0  0  0  0
 30 35  1  0  0  0  0
 31 32  1  0  0  0  0
 31 30  2  0  0  0  0
 32 33  2  0  0  0  0
 33 34  1  0  0  0  0
 34 38  1  0  0  0  0
 35 34  2  0  0  0  0
 36 31  1  0  0  0  0
 37 32  1  0  0  0  0
 38 43  1  0  0  0  0
 38 39  2  0  0  0  0
 39 40  1  0  0  0  0
 39 41  1  0  0  0  0
 42 41  2  0  0  0  0
 43 42  1  0  0  0  0
M  END
>  <minimizedAffinity>
-7.49828434

>  <minimizedRMSD>
0.69062829

$$$$
