
 OpenBabel03272506553D

 17 18  0  0  0  0  0  0  0  0999 V2000
   36.7780   29.1850   50.1170 C   0  0  0  0  0  0  0  0  0  0  0  0
   37.4080   30.3280   49.6240 C   0  0  0  0  0  0  0  0  0  0  0  0
   36.7530   30.9910   48.5750 C   0  0  0  0  0  0  0  0  0  0  0  0
   35.5630   30.5150   48.0920 N   0  0  0  0  0  0  0  0  0  0  0  0
   35.0120   29.4110   48.6120 C   0  0  0  0  0  0  0  0  0  0  0  0
   35.5900   28.7220   49.6240 N   0  0  0  0  0  0  0  0  0  0  0  0
   37.2720   28.6710   50.9180 H   0  0  0  0  0  0  0  0  0  0  0  0
   37.2110   31.8720   48.1750 H   0  0  0  0  0  0  0  0  0  0  0  0
   33.7600   28.8160   48.1810 C   0  0  0  0  0  0  0  0  0  0  0  0
   32.9340   27.9510   48.7980 C   0  0  0  0  0  0  0  0  0  0  0  0
   33.2160   27.6070   49.8070 H   0  0  0  0  0  0  0  0  0  0  0  0
   31.8000   27.5290   48.1880 C   0  0  0  0  0  0  0  0  0  0  0  0
   31.5640   28.0360   46.9280 C   0  0  0  0  0  0  0  0  0  0  0  0
   32.9570   29.1170   46.6070 S   0  0  0  0  0  0  0  0  0  0  0  0
   38.6400   30.7710   50.1660 N   0  0  0  0  0  0  0  0  0  0  0  0
   38.8370   30.6490   51.1780 H   0  0  0  0  0  0  0  0  0  0  0  0
   39.2950   31.2100   49.4810 H   0  0  0  0  0  0  0  0  0  0  0  0
  1  7  1  0  0  0  0
  2  1  1  0  0  0  0
  2 15  1  0  0  0  0
  3  2  2  0  0  0  0
  4  3  1  0  0  0  0
  4  5  2  0  0  0  0
  5  6  1  0  0  0  0
  6  1  2  0  0  0  0
  8  3  1  0  0  0  0
  9  5  1  0  0  0  0
  9 10  2  0  0  0  0
 10 11  1  0  0  0  0
 12 10  1  0  0  0  0
 13 12  2  0  0  0  0
 14 13  1  0  0  0  0
 14  9  1  0  0  0  0
 15 16  1  0  0  0  0
 17 15  1  0  0  0  0
M  END
>  <minimizedAffinity>
-4.09807396

>  <minimizedRMSD>
1.86272621

$$$$
