
 OpenBabel03272500453D

 22 24  0  0  0  0  0  0  0  0999 V2000
   37.1450   26.8140   33.9600 C   0  0  0  0  0  0  0  0  0  0  0  0
   37.4090   25.7250   33.1210 C   0  0  0  0  0  0  0  0  0  0  0  0
   37.9330   24.6950   33.8920 C   0  0  0  0  0  0  0  0  0  0  0  0
   37.9780   25.1710   35.1680 N   0  0  0  0  0  0  0  0  0  0  0  0
   37.5100   26.4120   35.1710 N   0  0  0  0  0  0  0  0  0  0  0  0
   37.2530   25.6370   32.0470 H   0  0  0  0  0  0  0  0  0  0  0  0
   38.2370   23.7240   33.5390 H   0  0  0  0  0  0  0  0  0  0  0  0
   35.8660   28.9360   34.2920 C   0  0  0  0  0  0  0  0  0  0  0  0
   36.5930   28.0570   33.4940 C   0  0  0  0  0  0  0  0  0  0  0  0
   36.7900   28.4270   32.1550 C   0  0  0  0  0  0  0  0  0  0  0  0
   36.2610   29.6120   31.7240 N   0  0  0  0  0  0  0  0  0  0  0  0
   35.5560   30.4360   32.5490 C   0  0  0  0  0  0  0  0  0  0  0  0
   35.3600   30.0870   33.8460 N   0  0  0  0  0  0  0  0  0  0  0  0
   35.6980   28.6770   35.3300 H   0  0  0  0  0  0  0  0  0  0  0  0
   37.3430   27.7800   31.5110 H   0  0  0  0  0  0  0  0  0  0  0  0
   35.2420   31.3060   31.9830 H   0  0  0  0  0  0  0  0  0  0  0  0
   38.4500   24.4170   36.2350 C   0  0  0  0  0  0  0  0  0  0  0  0
   38.0230   24.2600   37.5230 C   0  0  0  0  0  0  0  0  0  0  0  0
   37.1430   24.8210   37.8000 H   0  0  0  0  0  0  0  0  0  0  0  0
   38.6720   23.4410   38.4040 C   0  0  0  0  0  3  0  0  0  0  0  0
   39.8550   22.7640   37.8240 C   0  0  0  0  0  3  0  0  0  0  0  0
   39.8560   23.4250   36.0480 S   0  0  0  0  0  0  0  0  0  0  0  0
  1  5  2  0  0  0  0
  2  3  2  0  0  0  0
  2  1  1  0  0  0  0
  3  4  1  0  0  0  0
  4  5  1  0  0  0  0
  4 17  1  0  0  0  0
  6  2  1  0  0  0  0
  7  3  1  0  0  0  0
  8 14  1  0  0  0  0
  9  1  1  0  0  0  0
  9  8  2  0  0  0  0
 10  9  1  0  0  0  0
 11 10  2  0  0  0  0
 11 12  1  0  0  0  0
 12 13  2  0  0  0  0
 13  8  1  0  0  0  0
 15 10  1  0  0  0  0
 16 12  1  0  0  0  0
 17 18  2  0  0  0  0
 18 19  1  0  0  0  0
 18 20  1  0  0  0  0
 21 20  2  0  0  0  0
 22 17  1  0  0  0  0
 22 21  1  0  0  0  0
M  END
>  <minimizedAffinity>
-4.48642111

$$$$

 OpenBabel03272500453D

 22 24  0  0  0  0  0  0  0  0999 V2000
   37.0870   26.8760   33.9280 C   0  0  0  0  0  0  0  0  0  0  0  0
   37.4400   25.8200   33.0800 C   0  0  0  0  0  0  0  0  0  0  0  0
   37.9740   24.7960   33.8540 C   0  0  0  0  0  0  0  0  0  0  0  0
   37.9350   25.2430   35.1410 N   0  0  0  0  0  0  0  0  0  0  0  0
   37.4120   26.4620   35.1480 N   0  0  0  0  0  0  0  0  0  0  0  0
   37.3410   25.7500   31.9990 H   0  0  0  0  0  0  0  0  0  0  0  0
   38.3380   23.8480   33.4960 H   0  0  0  0  0  0  0  0  0  0  0  0
   36.5000   28.5100   32.1310 C   0  0  0  0  0  0  0  0  0  0  0  0
   36.5030   28.1040   33.4630 C   0  0  0  0  0  0  0  0  0  0  0  0
   35.8920   28.9590   34.3910 C   0  0  0  0  0  0  0  0  0  0  0  0
   35.3390   30.1240   33.9360 N   0  0  0  0  0  0  0  0  0  0  0  0
   35.3640   30.4740   32.6190 C   0  0  0  0  0  0  0  0  0  0  0  0
   35.9530   29.6530   31.7130 N   0  0  0  0  0  0  0  0  0  0  0  0
   36.9630   27.8700   31.3910 H   0  0  0  0  0  0  0  0  0  0  0  0
   35.8740   28.6830   35.4220 H   0  0  0  0  0  0  0  0  0  0  0  0
   34.8670   31.4320   32.5060 H   0  0  0  0  0  0  0  0  0  0  0  0
   38.3890   24.4860   36.2130 C   0  0  0  0  0  0  0  0  0  0  0  0
   37.9510   24.3370   37.4980 C   0  0  0  0  0  0  0  0  0  0  0  0
   37.0760   24.9100   37.7660 H   0  0  0  0  0  0  0  0  0  0  0  0
   38.5830   23.5120   38.3860 C   0  0  0  0  0  3  0  0  0  0  0  0
   39.7620   22.8200   37.8170 C   0  0  0  0  0  3  0  0  0  0  0  0
   39.7850   23.4770   36.0400 S   0  0  0  0  0  0  0  0  0  0  0  0
  1  5  2  0  0  0  0
  2  3  2  0  0  0  0
  2  1  1  0  0  0  0
  3  4  1  0  0  0  0
  4  5  1  0  0  0  0
  4 17  1  0  0  0  0
  6  2  1  0  0  0  0
  7  3  1  0  0  0  0
  8  9  1  0  0  0  0
  9  1  1  0  0  0  0
  9 10  2  0  0  0  0
 10 15  1  0  0  0  0
 11 10  1  0  0  0  0
 12 11  2  0  0  0  0
 13  8  2  0  0  0  0
 13 12  1  0  0  0  0
 14  8  1  0  0  0  0
 16 12  1  0  0  0  0
 17 18  2  0  0  0  0
 18 19  1  0  0  0  0
 18 20  1  0  0  0  0
 21 20  2  0  0  0  0
 22 17  1  0  0  0  0
 22 21  1  0  0  0  0
M  END
>  <minimizedAffinity>
-4.47106838

$$$$

 OpenBabel03272500453D

 22 24  0  0  0  0  0  0  0  0999 V2000
   37.9390   25.3940   34.9900 C   0  0  0  0  0  0  0  0  0  0  0  0
   37.8510   25.0730   33.6310 C   0  0  0  0  0  0  0  0  0  0  0  0
   37.2120   26.1190   32.9740 C   0  0  0  0  0  0  0  0  0  0  0  0
   36.9290   27.0430   33.9340 N   0  0  0  0  0  0  0  0  0  0  0  0
   37.3670   26.5870   35.1000 N   0  0  0  0  0  0  0  0  0  0  0  0
   38.1990   24.1800   33.1150 H   0  0  0  0  0  0  0  0  0  0  0  0
   36.9940   26.1730   31.9210 H   0  0  0  0  0  0  0  0  0  0  0  0
   39.7250   23.8230   35.7600 C   0  0  0  0  0  0  0  0  0  0  0  0
   38.5450   24.5330   35.9690 C   0  0  0  0  0  0  0  0  0  0  0  0
   37.9260   24.3850   37.2180 C   0  0  0  0  0  0  0  0  0  0  0  0
   38.5110   23.5640   38.1410 N   0  0  0  0  0  0  0  0  0  0  0  0
   39.6680   22.8920   37.8850 C   0  0  0  0  0  0  0  0  0  0  0  0
   40.2760   23.0280   36.6780 N   0  0  0  0  0  0  0  0  0  0  0  0
   40.2250   23.9180   34.8050 H   0  0  0  0  0  0  0  0  0  0  0  0
   37.0190   24.9130   37.4170 H   0  0  0  0  0  0  0  0  0  0  0  0
   39.9330   22.3110   38.7610 H   0  0  0  0  0  0  0  0  0  0  0  0
   36.2830   28.2410   33.6560 C   0  0  0  0  0  0  0  0  0  0  0  0
   35.8850   29.2870   34.4410 C   0  0  0  0  0  0  0  0  0  0  0  0
   36.1020   29.1940   35.4940 H   0  0  0  0  0  0  0  0  0  0  0  0
   35.2540   30.3810   33.9190 C   0  0  0  0  0  3  0  0  0  0  0  0
   35.0530   30.3090   32.4530 C   0  0  0  0  0  3  0  0  0  0  0  0
   35.8260   28.6300   32.0330 S   0  0  0  0  0  0  0  0  0  0  0  0
  1  5  2  0  0  0  0
  1  9  1  0  0  0  0
  2  1  1  0  0  0  0
  3  2  2  0  0  0  0
  3  4  1  0  0  0  0
  4  5  1  0  0  0  0
  6  2  1  0  0  0  0
  7  3  1  0  0  0  0
  8  9  2  0  0  0  0
  8 13  1  0  0  0  0
  9 10  1  0  0  0  0
 10 15  1  0  0  0  0
 10 11  2  0  0  0  0
 12 11  1  0  0  0  0
 12 16  1  0  0  0  0
 13 12  2  0  0  0  0
 14  8  1  0  0  0  0
 17  4  1  0  0  0  0
 17 18  2  0  0  0  0
 18 19  1  0  0  0  0
 20 18  1  0  0  0  0
 21 20  2  0  0  0  0
 22 21  1  0  0  0  0
 22 17  1  0  0  0  0
M  END
>  <minimizedAffinity>
-4.36125469

$$$$

 OpenBabel03272500453D

 22 24  0  0  0  0  0  0  0  0999 V2000
   37.9760   25.0390   34.7320 C   0  0  0  0  0  0  0  0  0  0  0  0
   37.8260   24.5220   33.4400 C   0  0  0  0  0  0  0  0  0  0  0  0
   37.2400   25.4990   32.6430 C   0  0  0  0  0  0  0  0  0  0  0  0
   37.0480   26.5760   33.4550 N   0  0  0  0  0  0  0  0  0  0  0  0
   37.4890   26.2730   34.6690 N   0  0  0  0  0  0  0  0  0  0  0  0
   38.0980   23.5390   33.0620 H   0  0  0  0  0  0  0  0  0  0  0  0
   36.9950   25.4080   31.5990 H   0  0  0  0  0  0  0  0  0  0  0  0
   38.0310   24.2750   37.1120 C   0  0  0  0  0  0  0  0  0  0  0  0
   38.5510   24.2960   35.8200 C   0  0  0  0  0  0  0  0  0  0  0  0
   39.7080   23.5390   35.5880 C   0  0  0  0  0  0  0  0  0  0  0  0
   40.2460   22.8360   36.6300 N   0  0  0  0  0  0  0  0  0  0  0  0
   39.6950   22.8500   37.8760 C   0  0  0  0  0  0  0  0  0  0  0  0
   38.5750   23.5800   38.1120 N   0  0  0  0  0  0  0  0  0  0  0  0
   37.1380   24.8500   37.3210 H   0  0  0  0  0  0  0  0  0  0  0  0
   40.1380   23.5290   34.6110 H   0  0  0  0  0  0  0  0  0  0  0  0
   40.2940   22.2230   38.5270 H   0  0  0  0  0  0  0  0  0  0  0  0
   36.4770   27.7610   33.0080 C   0  0  0  0  0  0  0  0  0  0  0  0
   35.9620   28.8480   33.6570 C   0  0  0  0  0  0  0  0  0  0  0  0
   35.9900   28.8090   34.7350 H   0  0  0  0  0  0  0  0  0  0  0  0
   35.4460   29.9150   32.9790 C   0  0  0  0  0  3  0  0  0  0  0  0
   35.5030   29.7680   31.5060 C   0  0  0  0  0  3  0  0  0  0  0  0
   36.3150   28.0670   31.3130 S   0  0  0  0  0  0  0  0  0  0  0  0
  1  9  1  0  0  0  0
  2  1  1  0  0  0  0
  3  2  2  0  0  0  0
  3  4  1  0  0  0  0
  4  5  1  0  0  0  0
  5  1  2  0  0  0  0
  6  2  1  0  0  0  0
  7  3  1  0  0  0  0
  8 14  1  0  0  0  0
  8 13  1  0  0  0  0
  9  8  2  0  0  0  0
 10  9  1  0  0  0  0
 10 11  2  0  0  0  0
 11 12  1  0  0  0  0
 12 13  2  0  0  0  0
 12 16  1  0  0  0  0
 15 10  1  0  0  0  0
 17  4  1  0  0  0  0
 17 18  2  0  0  0  0
 18 19  1  0  0  0  0
 20 18  1  0  0  0  0
 21 20  2  0  0  0  0
 22 21  1  0  0  0  0
 22 17  1  0  0  0  0
M  END
>  <minimizedAffinity>
-4.26058102

$$$$

 OpenBabel03272500453D

 22 24  0  0  0  0  0  0  0  0999 V2000
   38.6180   25.6410   35.3120 C   0  0  0  0  0  0  0  0  0  0  0  0
   38.2140   26.7820   36.0140 C   0  0  0  0  0  0  0  0  0  0  0  0
   37.6550   27.6770   35.1090 C   0  0  0  0  0  0  0  0  0  0  0  0
   37.7300   27.0710   33.8910 N   0  0  0  0  0  0  0  0  0  0  0  0
   38.2980   25.8820   34.0470 N   0  0  0  0  0  0  0  0  0  0  0  0
   38.2940   26.9940   37.0780 H   0  0  0  0  0  0  0  0  0  0  0  0
   37.2500   28.6480   35.3390 H   0  0  0  0  0  0  0  0  0  0  0  0
   40.4200   23.9170   35.4910 C   0  0  0  0  0  0  0  0  0  0  0  0
   39.2400   24.5050   35.9380 C   0  0  0  0  0  0  0  0  0  0  0  0
   38.6370   23.9410   37.0720 C   0  0  0  0  0  0  0  0  0  0  0  0
   39.2370   22.8620   37.6580 N   0  0  0  0  0  0  0  0  0  0  0  0
   40.3940   22.3250   37.1790 C   0  0  0  0  0  0  0  0  0  0  0  0
   40.9860   22.8640   36.0820 N   0  0  0  0  0  0  0  0  0  0  0  0
   40.9090   24.3320   34.6180 H   0  0  0  0  0  0  0  0  0  0  0  0
   37.7310   24.3640   37.4460 H   0  0  0  0  0  0  0  0  0  0  0  0
   40.6720   21.4850   37.8060 H   0  0  0  0  0  0  0  0  0  0  0  0
   37.2650   27.6660   32.7260 C   0  0  0  0  0  0  0  0  0  0  0  0
   36.3700   28.6720   32.4890 C   0  0  0  0  0  0  0  0  0  0  0  0
   35.9160   29.1140   33.3630 H   0  0  0  0  0  0  0  0  0  0  0  0
   36.0720   29.0890   31.2220 C   0  0  0  0  0  3  0  0  0  0  0  0
   36.8040   28.3520   30.1660 C   0  0  0  0  0  3  0  0  0  0  0  0
   37.8410   27.1350   31.1830 S   0  0  0  0  0  0  0  0  0  0  0  0
  1  9  1  0  0  0  0
  1  2  1  0  0  0  0
  2  6  1  0  0  0  0
  3  7  1  0  0  0  0
  3  2  2  0  0  0  0
  4  5  1  0  0  0  0
  4  3  1  0  0  0  0
  5  1  2  0  0  0  0
  8  9  2  0  0  0  0
  8 13  1  0  0  0  0
  9 10  1  0  0  0  0
 10 15  1  0  0  0  0
 10 11  2  0  0  0  0
 12 11  1  0  0  0  0
 12 16  1  0  0  0  0
 13 12  2  0  0  0  0
 14  8  1  0  0  0  0
 17  4  1  0  0  0  0
 18 17  2  0  0  0  0
 18 19  1  0  0  0  0
 20 18  1  0  0  0  0
 21 22  1  0  0  0  0
 21 20  2  0  0  0  0
 22 17  1  0  0  0  0
M  END
>  <minimizedAffinity>
-4.23793554

$$$$

 OpenBabel03272500453D

 22 24  0  0  0  0  0  0  0  0999 V2000
   38.1680   25.1240   35.2450 C   0  0  0  0  0  0  0  0  0  0  0  0
   37.7480   24.8590   36.5530 C   0  0  0  0  0  0  0  0  0  0  0  0
   38.6040   23.9130   37.1040 C   0  0  0  0  0  0  0  0  0  0  0  0
   39.5150   23.6250   36.1330 N   0  0  0  0  0  0  0  0  0  0  0  0
   39.2310   24.3500   35.0600 N   0  0  0  0  0  0  0  0  0  0  0  0
   36.9090   25.2840   37.1000 H   0  0  0  0  0  0  0  0  0  0  0  0
   38.5460   23.5010   38.0970 H   0  0  0  0  0  0  0  0  0  0  0  0
   37.0560   27.3140   34.7790 C   0  0  0  0  0  0  0  0  0  0  0  0
   37.5080   26.0600   34.3750 C   0  0  0  0  0  0  0  0  0  0  0  0
   37.2960   25.7080   33.0350 C   0  0  0  0  0  0  0  0  0  0  0  0
   36.6670   26.6060   32.2180 N   0  0  0  0  0  0  0  0  0  0  0  0
   36.2450   27.8220   32.6640 C   0  0  0  0  0  0  0  0  0  0  0  0
   36.4450   28.1730   33.9610 N   0  0  0  0  0  0  0  0  0  0  0  0
   37.2050   27.6140   35.8080 H   0  0  0  0  0  0  0  0  0  0  0  0
   37.6280   24.7550   32.6870 H   0  0  0  0  0  0  0  0  0  0  0  0
   35.7800   28.3510   31.8400 H   0  0  0  0  0  0  0  0  0  0  0  0
   40.5440   22.7090   36.3160 C   0  0  0  0  0  0  0  0  0  0  0  0
   40.9120   21.9240   37.3720 C   0  0  0  0  0  0  0  0  0  0  0  0
   40.3000   22.0080   38.2570 H   0  0  0  0  0  0  0  0  0  0  0  0
   41.9880   21.0840   37.3060 C   0  0  0  0  0  3  0  0  0  0  0  0
   42.6910   21.1210   36.0030 C   0  0  0  0  0  3  0  0  0  0  0  0
   41.6690   22.3930   35.0400 S   0  0  0  0  0  0  0  0  0  0  0  0
  1  2  1  0  0  0  0
  2  6  1  0  0  0  0
  2  3  2  0  0  0  0
  3  7  1  0  0  0  0
  4 17  1  0  0  0  0
  4  3  1  0  0  0  0
  5  1  2  0  0  0  0
  5  4  1  0  0  0  0
  8 14  1  0  0  0  0
  9  8  1  0  0  0  0
  9  1  1  0  0  0  0
 10  9  2  0  0  0  0
 11 12  2  0  0  0  0
 11 10  1  0  0  0  0
 12 13  1  0  0  0  0
 13  8  2  0  0  0  0
 15 10  1  0  0  0  0
 16 12  1  0  0  0  0
 17 18  2  0  0  0  0
 18 19  1  0  0  0  0
 20 18  1  0  0  0  0
 21 20  2  0  0  0  0
 22 21  1  0  0  0  0
 22 17  1  0  0  0  0
M  END
>  <minimizedAffinity>
-4.22373438

$$$$

 OpenBabel03272500453D

 22 24  0  0  0  0  0  0  0  0999 V2000
   36.3290   28.1770   32.5170 C   0  0  0  0  0  0  0  0  0  0  0  0
   36.2050   29.3240   31.7250 C   0  0  0  0  0  0  0  0  0  0  0  0
   35.7510   30.3640   32.5280 C   0  0  0  0  0  0  0  0  0  0  0  0
   35.6100   29.8350   33.7760 N   0  0  0  0  0  0  0  0  0  0  0  0
   35.9550   28.5560   33.7330 N   0  0  0  0  0  0  0  0  0  0  0  0
   36.4110   29.4470   30.6630 H   0  0  0  0  0  0  0  0  0  0  0  0
   35.5560   31.3750   32.2130 H   0  0  0  0  0  0  0  0  0  0  0  0
   35.9420   25.9720   31.4040 C   0  0  0  0  0  0  0  0  0  0  0  0
   36.7770   26.9080   32.0090 C   0  0  0  0  0  0  0  0  0  0  0  0
   38.1340   26.5750   32.1190 C   0  0  0  0  0  0  0  0  0  0  0  0
   38.5480   25.3660   31.6320 N   0  0  0  0  0  0  0  0  0  0  0  0
   37.6880   24.4850   31.0490 C   0  0  0  0  0  0  0  0  0  0  0  0
   36.3720   24.7990   30.9370 N   0  0  0  0  0  0  0  0  0  0  0  0
   34.8890   26.2020   31.3040 H   0  0  0  0  0  0  0  0  0  0  0  0
   38.8060   27.2670   32.5770 H   0  0  0  0  0  0  0  0  0  0  0  0
   38.2460   23.6060   30.7450 H   0  0  0  0  0  0  0  0  0  0  0  0
   35.1690   30.5820   34.8610 C   0  0  0  0  0  0  0  0  0  0  0  0
   35.8130   31.3870   35.7580 C   0  0  0  0  0  0  0  0  0  0  0  0
   36.8790   31.4850   35.6230 H   0  0  0  0  0  0  0  0  0  0  0  0
   35.1430   32.0280   36.7620 C   0  0  0  0  0  3  0  0  0  0  0  0
   33.6860   31.7600   36.7710 C   0  0  0  0  0  3  0  0  0  0  0  0
   33.4930   30.5930   35.2910 S   0  0  0  0  0  0  0  0  0  0  0  0
  1  5  2  0  0  0  0
  2  1  1  0  0  0  0
  2  3  2  0  0  0  0
  3  4  1  0  0  0  0
  4 17  1  0  0  0  0
  5  4  1  0  0  0  0
  6  2  1  0  0  0  0
  7  3  1  0  0  0  0
  8  9  1  0  0  0  0
  9 10  2  0  0  0  0
  9  1  1  0  0  0  0
 10 15  1  0  0  0  0
 11 10  1  0  0  0  0
 12 11  2  0  0  0  0
 13 12  1  0  0  0  0
 13  8  2  0  0  0  0
 14  8  1  0  0  0  0
 16 12  1  0  0  0  0
 17 22  1  0  0  0  0
 17 18  2  0  0  0  0
 18 20  1  0  0  0  0
 19 18  1  0  0  0  0
 20 21  2  0  0  0  0
 22 21  1  0  0  0  0
M  END
>  <minimizedAffinity>
-4.15299606

$$$$

 OpenBabel03272500453D

 22 24  0  0  0  0  0  0  0  0999 V2000
   36.5950   22.4630   32.3600 C   0  0  0  0  0  0  0  0  0  0  0  0
   36.0390   23.4770   31.5720 C   0  0  0  0  0  0  0  0  0  0  0  0
   36.5820   24.6910   31.9730 C   0  0  0  0  0  0  0  0  0  0  0  0
   37.4470   24.3960   32.9840 N   0  0  0  0  0  0  0  0  0  0  0  0
   37.4300   23.0850   33.1840 N   0  0  0  0  0  0  0  0  0  0  0  0
   35.3060   23.3960   30.7710 H   0  0  0  0  0  0  0  0  0  0  0  0
   36.3560   25.6600   31.5600 H   0  0  0  0  0  0  0  0  0  0  0  0
   35.7260   20.2890   33.2380 C   0  0  0  0  0  0  0  0  0  0  0  0
   36.2570   21.0730   32.2160 C   0  0  0  0  0  0  0  0  0  0  0  0
   36.4650   20.4480   30.9780 C   0  0  0  0  0  0  0  0  0  0  0  0
   36.1400   19.1260   30.8530 N   0  0  0  0  0  0  0  0  0  0  0  0
   35.6230   18.4050   31.8870 C   0  0  0  0  0  0  0  0  0  0  0  0
   35.4170   19.0000   33.0900 N   0  0  0  0  0  0  0  0  0  0  0  0
   35.5540   20.7440   34.2050 H   0  0  0  0  0  0  0  0  0  0  0  0
   36.8700   21.0160   30.1690 H   0  0  0  0  0  0  0  0  0  0  0  0
   35.4480   17.3900   31.5480 H   0  0  0  0  0  0  0  0  0  0  0  0
   38.1880   25.3670   33.6450 C   0  0  0  0  0  0  0  0  0  0  0  0
   39.2880   26.0970   33.2930 C   0  0  0  0  0  0  0  0  0  0  0  0
   39.6850   25.9050   32.3080 H   0  0  0  0  0  0  0  0  0  0  0  0
   39.8470   27.0140   34.1390 C   0  0  0  0  0  3  0  0  0  0  0  0
   39.1500   27.1230   35.4410 C   0  0  0  0  0  3  0  0  0  0  0  0
   37.7540   25.8550   35.2480 S   0  0  0  0  0  0  0  0  0  0  0  0
  1  5  2  0  0  0  0
  2  3  2  0  0  0  0
  2  1  1  0  0  0  0
  3  4  1  0  0  0  0
  4  5  1  0  0  0  0
  4 17  1  0  0  0  0
  6  2  1  0  0  0  0
  7  3  1  0  0  0  0
  8 14  1  0  0  0  0
  9  1  1  0  0  0  0
  9  8  2  0  0  0  0
 10  9  1  0  0  0  0
 11 10  2  0  0  0  0
 11 12  1  0  0  0  0
 12 13  2  0  0  0  0
 13  8  1  0  0  0  0
 15 10  1  0  0  0  0
 16 12  1  0  0  0  0
 17 22  1  0  0  0  0
 18 17  2  0  0  0  0
 18 20  1  0  0  0  0
 19 18  1  0  0  0  0
 20 21  2  0  0  0  0
 22 21  1  0  0  0  0
M  END
>  <minimizedAffinity>
-4.11737728

$$$$

 OpenBabel03272500453D

 22 24  0  0  0  0  0  0  0  0999 V2000
   35.5250   30.0310   33.8720 C   0  0  0  0  0  0  0  0  0  0  0  0
   35.9440   28.6960   33.8820 C   0  0  0  0  0  0  0  0  0  0  0  0
   36.5120   28.4050   32.6480 C   0  0  0  0  0  0  0  0  0  0  0  0
   36.4280   29.5550   31.9200 N   0  0  0  0  0  0  0  0  0  0  0  0
   35.8460   30.4840   32.6660 N   0  0  0  0  0  0  0  0  0  0  0  0
   35.8680   27.9620   34.6830 H   0  0  0  0  0  0  0  0  0  0  0  0
   36.9290   27.4610   32.3430 H   0  0  0  0  0  0  0  0  0  0  0  0
   33.5350   30.5580   35.2900 C   0  0  0  0  0  0  0  0  0  0  0  0
   34.8910   30.6710   34.9930 C   0  0  0  0  0  0  0  0  0  0  0  0
   35.6680   31.4600   35.8530 C   0  0  0  0  0  0  0  0  0  0  0  0
   35.0540   32.0630   36.9150 N   0  0  0  0  0  0  0  0  0  0  0  0
   33.7220   31.9200   37.1610 C   0  0  0  0  0  0  0  0  0  0  0  0
   32.9600   31.1570   36.3350 N   0  0  0  0  0  0  0  0  0  0  0  0
   32.9100   29.9550   34.6450 H   0  0  0  0  0  0  0  0  0  0  0  0
   36.7120   31.5700   35.6580 H   0  0  0  0  0  0  0  0  0  0  0  0
   33.4710   32.4870   38.0500 H   0  0  0  0  0  0  0  0  0  0  0  0
   36.8990   29.6540   30.6170 C   0  0  0  0  0  0  0  0  0  0  0  0
   37.4050   28.7380   29.7390 C   0  0  0  0  0  0  0  0  0  0  0  0
   37.4640   27.7220   30.1000 H   0  0  0  0  0  0  0  0  0  0  0  0
   37.8100   29.0900   28.4820 C   0  0  0  0  0  3  0  0  0  0  0  0
   37.6450   30.5320   28.1870 C   0  0  0  0  0  3  0  0  0  0  0  0
   36.9110   31.1840   29.8080 S   0  0  0  0  0  0  0  0  0  0  0  0
  1  2  1  0  0  0  0
  1  9  1  0  0  0  0
  2  6  1  0  0  0  0
  3  2  2  0  0  0  0
  4  3  1  0  0  0  0
  4  5  1  0  0  0  0
  5  1  2  0  0  0  0
  7  3  1  0  0  0  0
  8 13  1  0  0  0  0
  9  8  2  0  0  0  0
  9 10  1  0  0  0  0
 10 11  2  0  0  0  0
 11 12  1  0  0  0  0
 12 16  1  0  0  0  0
 13 12  2  0  0  0  0
 14  8  1  0  0  0  0
 15 10  1  0  0  0  0
 17  4  1  0  0  0  0
 18 19  1  0  0  0  0
 18 17  2  0  0  0  0
 20 18  1  0  0  0  0
 21 20  2  0  0  0  0
 21 22  1  0  0  0  0
 22 17  1  0  0  0  0
M  END
>  <minimizedAffinity>
-4.11675596

$$$$
