
 OpenBabel03272508023D

 25 27  0  0  0  0  0  0  0  0999 V2000
   38.9140   30.8930   45.7680 C   0  0  0  0  0  0  0  0  0  0  0  0
   40.1140   31.5200   46.0260 C   0  0  0  0  0  0  0  0  0  0  0  0
   40.9480   31.4590   44.9150 C   0  0  0  0  0  0  0  0  0  0  0  0
   40.2020   30.7840   44.0090 N   0  0  0  0  0  0  0  0  0  0  0  0
   39.0200   30.4530   44.5000 N   0  0  0  0  0  0  0  0  0  0  0  0
   40.4090   32.0030   46.9460 H   0  0  0  0  0  0  0  0  0  0  0  0
   41.9490   31.8330   44.7450 H   0  0  0  0  0  0  0  0  0  0  0  0
   37.7860   30.7460   46.6730 C   0  0  0  0  0  0  0  0  0  0  0  0
   38.0060   30.9780   48.0560 C   0  0  0  0  0  0  0  0  0  0  0  0
   36.9170   30.8320   48.9130 C   0  0  0  0  0  0  0  0  0  0  0  0
   35.7150   30.4810   48.3800 N   0  0  0  0  0  0  0  0  0  0  0  0
   35.5350   30.2660   47.0580 C   0  0  0  0  0  0  0  0  0  0  0  0
   36.5810   30.4040   46.2170 N   0  0  0  0  0  0  0  0  0  0  0  0
   38.9700   31.2580   48.4640 H   0  0  0  0  0  0  0  0  0  0  0  0
   34.5510   29.9880   46.6950 H   0  0  0  0  0  0  0  0  0  0  0  0
   37.1270   31.0720   50.3710 C   0  0  0  0  0  0  0  0  0  0  0  0
   36.6050   32.3080   50.6290 F   0  0  0  0  0  0  0  0  0  0  0  0
   36.4630   30.1300   51.1560 F   0  0  0  0  0  0  0  0  0  0  0  0
   38.4780   31.0690   50.7060 F   0  0  0  0  0  0  0  0  0  0  0  0
   40.5620   30.4170   42.6420 C   0  0  0  0  0  0  0  0  0  0  0  0
   40.1800   31.2280   41.5410 C   0  0  0  0  0  0  0  0  0  0  0  0
   39.6150   32.1410   41.6530 H   0  0  0  0  0  0  0  0  0  0  0  0
   40.5350   30.8480   40.2940 C   0  0  0  0  0  0  0  0  0  0  0  0
   41.2950   29.6290   40.1060 C   0  0  0  0  0  0  0  0  0  0  0  0
   41.4780   29.0360   41.8740 S   0  0  0  0  0  0  0  0  0  0  0  0
  1  2  1  0  0  0  0
  1  8  1  0  0  0  0
  2  6  1  0  0  0  0
  3  2  2  0  0  0  0
  4  5  1  0  0  0  0
  4  3  1  0  0  0  0
  5  1  2  0  0  0  0
  7  3  1  0  0  0  0
  8  9  1  0  0  0  0
  9 14  1  0  0  0  0
  9 10  2  0  0  0  0
 10 16  1  0  0  0  0
 11 10  1  0  0  0  0
 12 11  2  0  0  0  0
 13  8  2  0  0  0  0
 13 12  1  0  0  0  0
 15 12  1  0  0  0  0
 16 17  1  0  0  0  0
 16 19  1  0  0  0  0
 16 18  1  0  0  0  0
 20  4  1  0  0  0  0
 21 22  1  0  0  0  0
 21 20  2  0  0  0  0
 23 21  1  0  0  0  0
 24 23  2  0  0  0  0
 24 25  1  0  0  0  0
 25 20  1  0  0  0  0
M  END
>  <minimizedAffinity>
-6.01015377

>  <minimizedRMSD>
0.984454393

$$$$
