
 OpenBabel03272507583D

 29 31  0  0  0  0  0  0  0  0999 V2000
   37.0600   31.1920   48.5240 C   0  0  0  0  0  0  0  0  0  0  0  0
   37.2170   32.2390   49.4270 C   0  0  0  0  0  0  0  0  0  0  0  0
   38.1900   33.1930   49.2000 C   0  0  0  0  0  0  0  0  0  0  0  0
   39.0030   33.1290   48.1030 C   0  0  0  0  0  0  0  0  0  0  0  0
   38.8240   32.0850   47.2310 C   0  0  0  0  0  0  0  0  0  0  0  0
   37.8730   31.1410   47.4410 N   0  0  0  0  0  0  0  0  0  0  0  0
   36.6610   32.4340   50.3360 H   0  0  0  0  0  0  0  0  0  0  0  0
   38.3830   34.0350   49.8430 H   0  0  0  0  0  0  0  0  0  0  0  0
   39.7970   33.7700   47.7720 H   0  0  0  0  0  0  0  0  0  0  0  0
   35.0890   28.5920   50.3620 C   0  0  0  0  0  0  0  0  0  0  0  0
   36.1470   29.4860   50.0210 C   0  0  0  0  0  0  0  0  0  0  0  0
   36.0030   30.2750   48.8960 C   0  0  0  0  0  0  0  0  0  0  0  0
   34.8590   30.1610   48.1670 N   0  0  0  0  0  0  0  0  0  0  0  0
   33.8700   29.2930   48.5270 C   0  0  0  0  0  0  0  0  0  0  0  0
   33.9760   28.5210   49.6040 N   0  0  0  0  0  0  0  0  0  0  0  0
   32.7740   29.3580   47.6020 N   0  0  0  0  0  0  0  0  0  0  0  0
   35.1560   27.9580   51.2320 H   0  0  0  0  0  0  0  0  0  0  0  0
   32.9210   28.8610   46.6830 H   0  0  0  0  0  0  0  0  0  0  0  0
   32.0610   29.9180   48.1030 H   0  0  0  0  0  0  0  0  0  0  0  0
   37.3540   29.5210   50.8990 C   0  0  0  0  0  0  0  0  0  0  0  0
   38.5040   29.7530   50.1520 F   0  0  0  0  0  0  0  0  0  0  0  0
   37.1980   30.5340   51.8010 F   0  0  0  0  0  0  0  0  0  0  0  0
   37.5470   28.3480   51.5960 F   0  0  0  0  0  0  0  0  0  0  0  0
   39.5330   31.7360   45.9660 C   0  0  0  0  0  0  0  0  0  0  0  0
   39.1180   30.6700   45.2990 C   0  0  0  0  0  0  0  0  0  0  0  0
   38.3160   29.9330   45.4790 H   0  0  0  0  0  0  0  0  0  0  0  0
   39.6070   30.1720   44.1430 C   0  0  0  0  0  3  0  0  0  0  0  0
   40.7180   31.0190   43.7030 C   0  0  0  0  0  3  0  0  0  0  0  0
   40.8360   32.3780   45.0610 S   0  0  0  0  0  0  0  0  0  0  0  0
  1 12  1  0  0  0  0
  1  2  1  0  0  0  0
  2  7  1  0  0  0  0
  3  2  2  0  0  0  0
  3  8  1  0  0  0  0
  4  3  1  0  0  0  0
  5  6  1  0  0  0  0
  5  4  2  0  0  0  0
  6  1  2  0  0  0  0
  9  4  1  0  0  0  0
 10 17  1  0  0  0  0
 11 10  1  0  0  0  0
 11 20  1  0  0  0  0
 12 11  2  0  0  0  0
 13 14  2  0  0  0  0
 13 12  1  0  0  0  0
 14 15  1  0  0  0  0
 15 10  2  0  0  0  0
 16 19  1  0  0  0  0
 16 14  1  0  0  0  0
 18 16  1  0  0  0  0
 20 23  1  0  0  0  0
 20 22  1  0  0  0  0
 21 20  1  0  0  0  0
 24  5  1  0  0  0  0
 25 26  1  0  0  0  0
 25 24  2  0  0  0  0
 27 25  1  0  0  0  0
 28 27  2  0  0  0  0
 28 29  1  0  0  0  0
 29 24  1  0  0  0  0
M  END
>  <minimizedAffinity>
-6.9842329

>  <minimizedRMSD>
0.604954481

$$$$
