REMARK  Name = 
REMARK  2 active torsions:
REMARK  status: ('A' for Active; 'I' for Inactive)
REMARK    1  A    between atoms: C_3  and  C_13
REMARK    2  A    between atoms: C_5  and  C_7
REMARK                            x       y       z     vdW  Elec       q    Type
REMARK                         _______ _______ _______ _____ _____    ______ ____
ROOT
ATOM      1  C   UNL     1      38.307  31.232  50.123  0.00  0.00    +0.000 A 
ATOM      2  C   UNL     1      38.301  31.615  48.765  0.00  0.00    +0.000 A 
ATOM      3  C   UNL     1      37.206  31.224  48.012  0.00  0.00    +0.000 A 
ATOM      4  N   UNL     1      36.210  30.511  48.588  0.00  0.00    +0.000 NA
ATOM      5  C   UNL     1      36.253  30.164  49.895  0.00  0.00    +0.000 A 
ATOM      6  N   UNL     1      37.303  30.531  50.640  0.00  0.00    +0.000 NA
ATOM      7  H   UNL     1      39.155  31.526  50.738  0.00  0.00    +0.000 HD
ATOM      8  H   UNL     1      39.122  32.173  48.393  0.00  0.00    +0.000 HD
ENDROOT
BRANCH   3   9
ATOM      9  C   UNL     1      37.136  31.583  46.614  0.00  0.00    +0.000 A 
ATOM     10  C   UNL     1      36.141  31.841  45.741  0.00  0.00    +0.000 A 
ATOM     11  H   UNL     1      35.146  31.764  46.186  0.00  0.00    +0.000 HD
ATOM     12  C   UNL     1      36.399  32.158  44.458  0.00  0.00    +0.000 A 
ATOM     13  C   UNL     1      37.734  32.204  44.090  0.00  0.00    +0.000 A 
ATOM     14  S   UNL     1      38.619  31.769  45.674  0.00  0.00    +0.000 S 
ENDBRANCH   3   9
BRANCH   5  15
ATOM     15  C   UNL     1      35.127  29.383  50.453  0.00  0.00    +0.000 C 
ATOM     16  F   UNL     1      35.264  29.135  51.809  0.00  0.00    +0.000 F 
ATOM     17  F   UNL     1      33.923  30.050  50.297  0.00  0.00    +0.000 F 
ATOM     18  F   UNL     1      34.955  28.167  49.823  0.00  0.00    +0.000 F 
ENDBRANCH   5  15
TORSDOF 2
