
 OpenBabel03272510273D

 42 46  0  0  1  0  0  0  0  0999 V2000
   36.1370   30.1440   46.3350 C   0  0  0  0  0  0  0  0  0  0  0  0
   37.0610   30.7780   47.1310 C   0  0  0  0  0  0  0  0  0  0  0  0
   37.9800   31.6940   46.5930 C   0  0  0  0  0  0  0  0  0  0  0  0
   37.8890   31.9100   45.2170 C   0  0  0  0  0  0  0  0  0  0  0  0
   38.6660   32.7530   44.4590 N   0  0  0  0  0  0  0  0  0  0  0  0
   38.2190   32.6380   43.1990 C   0  0  0  0  0  0  0  0  0  0  0  0
   37.2220   31.7750   43.1600 N   0  0  0  0  0  0  0  0  0  0  0  0
   36.9860   31.3000   44.3930 C   0  0  0  0  0  0  0  0  0  0  0  0
   36.0900   30.3950   44.9740 C   0  0  0  0  0  0  0  0  0  0  0  0
   35.4240   29.4350   46.7450 H   0  0  0  0  0  0  0  0  0  0  0  0
   38.7190   32.2090   47.1950 H   0  0  0  0  0  0  0  0  0  0  0  0
   39.4470   33.3600   44.8030 H   0  0  0  0  0  0  0  0  0  0  0  0
   35.3690   29.9060   44.3270 H   0  0  0  0  0  0  0  0  0  0  0  0
   37.8270   30.6430   50.8170 C   0  0  0  0  0  0  0  0  0  0  0  0
   37.9540   31.0240   49.4830 C   0  0  0  0  0  0  0  0  0  0  0  0
   37.0890   30.5040   48.5560 C   0  0  0  0  0  0  0  0  0  0  0  0
   36.1330   29.6210   49.0170 N   0  0  0  0  0  0  0  0  0  0  0  0
   36.0180   29.2580   50.3100 C   0  0  0  0  0  0  0  0  0  0  0  0
   36.8520   29.7630   51.1890 N   0  0  0  0  0  0  0  0  0  0  0  0
   38.5290   31.0760   51.5210 H   0  0  0  0  0  0  0  0  0  0  0  0
   38.6960   31.7130   49.1060 H   0  0  0  0  0  0  0  0  0  0  0  0
   35.2300   28.5570   50.5630 H   0  0  0  0  0  0  0  0  0  0  0  0
   38.7740   33.3550   42.1390 O   0  0  0  0  0  0  0  0  0  0  0  0
   37.7920   32.2910   40.3440 N   0  0  0  0  0  0  0  0  0  0  0  0
   37.9200   33.5680   41.0270 C   0  0  1  0  0  0  0  0  0  0  0  0
   36.6160   34.0470   41.4570 C   0  0  0  0  0  0  0  0  0  0  0  0
   35.8140   34.2690   40.3260 O   0  0  0  0  0  0  0  0  0  0  0  0
   35.6870   33.2000   39.4870 C   0  0  0  0  0  0  0  0  0  0  0  0
   37.0140   32.5800   39.1500 C   0  0  1  0  0  0  0  0  0  0  0  0
   37.2990   31.5490   40.8090 H   0  0  0  0  0  0  0  0  0  0  0  0
   38.3670   34.2500   40.2840 H   0  0  0  0  0  0  0  0  0  0  0  0
   35.9690   33.5490   42.1270 H   0  0  0  0  0  0  0  0  0  0  0  0
   36.7660   35.0910   41.8750 H   0  0  0  0  0  0  0  0  0  0  0  0
   35.0700   32.3990   39.9400 H   0  0  0  0  0  0  0  0  0  0  0  0
   35.2370   33.5770   38.5460 H   0  0  0  0  0  0  0  0  0  0  0  0
   36.7830   31.6510   38.5820 H   0  0  0  0  0  0  0  0  0  0  0  0
   37.7780   33.5530   38.3450 C   0  0  0  0  0  0  0  0  0  0  0  0
   37.3930   34.6780   37.7480 C   0  0  0  0  0  0  0  0  0  0  0  0
   36.3420   34.9820   37.8330 H   0  0  0  0  0  0  0  0  0  0  0  0
   38.2660   35.4580   37.0350 C   0  0  0  0  0  3  0  0  0  0  0  0
   39.6100   34.9400   37.0070 C   0  0  0  0  0  3  0  0  0  0  0  0
   39.5300   33.4180   37.9730 S   0  0  0  0  0  0  0  0  0  0  0  0
  1 10  1  0  0  0  0
  1  2  1  0  0  0  0
  2 16  1  0  0  0  0
  3  2  2  0  0  0  0
  3 11  1  0  0  0  0
  4  3  1  0  0  0  0
  5 12  1  0  0  0  0
  5  4  1  0  0  0  0
  6  5  1  0  0  0  0
  7  6  2  0  0  0  0
  7  8  1  0  0  0  0
  8  9  1  0  0  0  0
  8  4  2  0  0  0  0
  9  1  2  0  0  0  0
 13  9  1  0  0  0  0
 14 19  1  0  0  0  0
 14 20  1  0  0  0  0
 15 14  2  0  0  0  0
 16 17  2  0  0  0  0
 16 15  1  0  0  0  0
 17 18  1  0  0  0  0
 18 22  1  0  0  0  0
 18 19  2  0  0  0  0
 21 15  1  0  0  0  0
 23  6  1  0  0  0  0
 24 30  1  0  0  0  0
 24 25  1  0  0  0  0
 25 31  1  6  0  0  0
 25 26  1  0  0  0  0
 25 23  1  0  0  0  0
 26 33  1  0  0  0  0
 26 32  1  0  0  0  0
 27 26  1  0  0  0  0
 28 34  1  0  0  0  0
 28 27  1  0  0  0  0
 29 36  1  6  0  0  0
 29 28  1  0  0  0  0
 29 24  1  0  0  0  0
 35 28  1  0  0  0  0
 37 29  1  0  0  0  0
 38 39  1  0  0  0  0
 38 37  2  0  0  0  0
 40 38  1  0  0  0  0
 41 40  2  0  0  0  0
 41 42  1  0  0  0  0
 42 37  1  0  0  0  0
M  END
>  <minimizedAffinity>
-5.15264511

>  <minimizedRMSD>
1.8885597

$$$$
