
 OpenBabel03272502303D

 21 22  0  0  0  0  0  0  0  0999 V2000
   37.6340   25.5420   35.7150 C   0  0  0  0  0  3  0  0  0  0  0  0
   38.0860   26.7590   35.4750 C   0  0  0  0  0  3  0  0  0  0  0  0
   38.7560   23.3740   38.5340 C   0  0  0  0  0  0  0  0  0  0  0  0
   38.0280   24.2970   37.7810 C   0  0  0  0  0  0  0  0  0  0  0  0
   38.3970   24.5890   36.4730 C   0  0  0  0  0  0  0  0  0  0  0  0
   39.4850   23.9460   35.9620 N   0  0  0  0  0  0  0  0  0  0  0  0
   40.1600   23.0690   36.7060 C   0  0  0  0  0  0  0  0  0  0  0  0
   39.8100   22.7820   37.9700 N   0  0  0  0  0  0  0  0  0  0  0  0
   38.5320   23.0960   39.5500 H   0  0  0  0  0  0  0  0  0  0  0  0
   37.1860   24.7450   38.2860 H   0  0  0  0  0  0  0  0  0  0  0  0
   41.0240   22.5950   36.2180 H   0  0  0  0  0  0  0  0  0  0  0  0
   37.1950   27.6680   34.6690 C   0  0  0  0  0  0  0  0  0  0  0  0
   36.1420   27.3740   34.8420 H   0  0  0  0  0  0  0  0  0  0  0  0
   37.3920   28.7360   34.9240 H   0  0  0  0  0  0  0  0  0  0  0  0
   37.6050   27.4360   32.9080 S   0  0  0  0  0  0  0  0  0  0  0  0
   36.6880   26.2090   32.1400 C   0  0  0  0  0  0  0  0  0  0  0  0
   35.5080   26.3150   31.3330 C   0  0  0  0  0  0  0  0  0  0  0  0
   35.1110   27.3040   31.1660 H   0  0  0  0  0  0  0  0  0  0  0  0
   34.9670   25.1560   30.8340 C   0  0  0  0  0  3  0  0  0  0  0  0
   35.5940   23.9400   31.1370 C   0  0  0  0  0  3  0  0  0  0  0  0
   37.0200   24.3990   32.1740 S   0  0  0  0  0  0  0  0  0  0  0  0
  1  5  1  0  0  0  0
  2  1  2  0  0  0  0
  3  9  1  0  0  0  0
  4 10  1  0  0  0  0
  4  3  2  0  0  0  0
  5  4  1  0  0  0  0
  6  5  2  0  0  0  0
  6  7  1  0  0  0  0
  7  8  2  0  0  0  0
  8  3  1  0  0  0  0
 11  7  1  0  0  0  0
 12 13  1  0  0  0  0
 12 14  1  0  0  0  0
 12  2  1  0  0  0  0
 15 12  1  0  0  0  0
 16 21  1  0  0  0  0
 16 15  1  0  0  0  0
 17 16  2  0  0  0  0
 18 17  1  0  0  0  0
 19 20  2  0  0  0  0
 19 17  1  0  0  0  0
 20 21  1  0  0  0  0
M  END
>  <minimizedAffinity>
-4.43021202

$$$$

 OpenBabel03272502303D

 21 22  0  0  0  0  0  0  0  0999 V2000
   37.6570   25.4990   35.6960 C   0  0  0  0  0  3  0  0  0  0  0  0
   38.0480   26.7530   35.5570 C   0  0  0  0  0  3  0  0  0  0  0  0
   40.2320   22.9900   36.6880 C   0  0  0  0  0  0  0  0  0  0  0  0
   39.4960   23.9060   35.9350 C   0  0  0  0  0  0  0  0  0  0  0  0
   38.4010   24.5590   36.4900 C   0  0  0  0  0  0  0  0  0  0  0  0
   38.0790   24.2720   37.7830 N   0  0  0  0  0  0  0  0  0  0  0  0
   38.8020   23.3910   38.4770 C   0  0  0  0  0  0  0  0  0  0  0  0
   39.8600   22.7570   37.9480 N   0  0  0  0  0  0  0  0  0  0  0  0
   41.0900   22.4470   36.3290 H   0  0  0  0  0  0  0  0  0  0  0  0
   39.8400   24.0570   34.9230 H   0  0  0  0  0  0  0  0  0  0  0  0
   38.4750   23.2180   39.5120 H   0  0  0  0  0  0  0  0  0  0  0  0
   37.1840   27.6410   34.7020 C   0  0  0  0  0  0  0  0  0  0  0  0
   36.1270   27.3500   34.8430 H   0  0  0  0  0  0  0  0  0  0  0  0
   37.3710   28.7150   34.9400 H   0  0  0  0  0  0  0  0  0  0  0  0
   37.6580   27.3740   32.9610 S   0  0  0  0  0  0  0  0  0  0  0  0
   36.7130   26.1870   32.1630 C   0  0  0  0  0  0  0  0  0  0  0  0
   35.5390   26.3420   31.3540 C   0  0  0  0  0  0  0  0  0  0  0  0
   35.1690   27.3440   31.2080 H   0  0  0  0  0  0  0  0  0  0  0  0
   34.9710   25.2090   30.8270 C   0  0  0  0  0  3  0  0  0  0  0  0
   35.5650   23.9700   31.1040 C   0  0  0  0  0  3  0  0  0  0  0  0
   36.9980   24.3690   32.1570 S   0  0  0  0  0  0  0  0  0  0  0  0
  1  5  1  0  0  0  0
  2  1  2  0  0  0  0
  3  8  1  0  0  0  0
  4  5  1  0  0  0  0
  4  3  2  0  0  0  0
  5  6  2  0  0  0  0
  6  7  1  0  0  0  0
  7 11  1  0  0  0  0
  8  7  2  0  0  0  0
  9  3  1  0  0  0  0
 10  4  1  0  0  0  0
 12 13  1  0  0  0  0
 12 14  1  0  0  0  0
 12  2  1  0  0  0  0
 15 12  1  0  0  0  0
 16 15  1  0  0  0  0
 17 16  2  0  0  0  0
 18 17  1  0  0  0  0
 19 20  2  0  0  0  0
 19 17  1  0  0  0  0
 20 21  1  0  0  0  0
 21 16  1  0  0  0  0
M  END
>  <minimizedAffinity>
-4.36457682

$$$$

 OpenBabel03272502303D

 21 22  0  0  0  0  0  0  0  0999 V2000
   36.3200   23.4310   31.5360 C   0  0  0  0  0  3  0  0  0  0  0  0
   35.3810   24.2990   31.2040 C   0  0  0  0  0  3  0  0  0  0  0  0
   34.7960   20.0840   32.1620 C   0  0  0  0  0  0  0  0  0  0  0  0
   35.0360   21.4590   32.2000 C   0  0  0  0  0  0  0  0  0  0  0  0
   36.0900   22.0130   31.4820 C   0  0  0  0  0  0  0  0  0  0  0  0
   36.8700   21.1700   30.7480 N   0  0  0  0  0  0  0  0  0  0  0  0
   36.6160   19.8600   30.7310 C   0  0  0  0  0  0  0  0  0  0  0  0
   35.6000   19.3180   31.4220 N   0  0  0  0  0  0  0  0  0  0  0  0
   34.0020   19.5840   32.6890 H   0  0  0  0  0  0  0  0  0  0  0  0
   34.3570   22.0310   32.8130 H   0  0  0  0  0  0  0  0  0  0  0  0
   37.2920   19.2520   30.1140 H   0  0  0  0  0  0  0  0  0  0  0  0
   35.7420   25.7580   31.3010 C   0  0  0  0  0  0  0  0  0  0  0  0
   35.5140   26.2430   30.3330 H   0  0  0  0  0  0  0  0  0  0  0  0
   35.2120   26.2360   32.1580 H   0  0  0  0  0  0  0  0  0  0  0  0
   37.5320   25.8710   31.6270 S   0  0  0  0  0  0  0  0  0  0  0  0
   37.9130   26.4580   33.1920 C   0  0  0  0  0  0  0  0  0  0  0  0
   37.1000   27.1860   34.1210 C   0  0  0  0  0  0  0  0  0  0  0  0
   36.0900   27.4150   33.8200 H   0  0  0  0  0  0  0  0  0  0  0  0
   37.6610   27.5390   35.3230 C   0  0  0  0  0  3  0  0  0  0  0  0
   38.9900   27.1720   35.5760 C   0  0  0  0  0  3  0  0  0  0  0  0
   39.5180   26.2830   34.0760 S   0  0  0  0  0  0  0  0  0  0  0  0
  2 12  1  0  0  0  0
  2  1  2  0  0  0  0
  3  4  1  0  0  0  0
  3  9  1  0  0  0  0
  4 10  1  0  0  0  0
  5  1  1  0  0  0  0
  5  4  2  0  0  0  0
  6  5  1  0  0  0  0
  7  6  2  0  0  0  0
  7  8  1  0  0  0  0
  8  3  2  0  0  0  0
 11  7  1  0  0  0  0
 12 15  1  0  0  0  0
 12 14  1  0  0  0  0
 13 12  1  0  0  0  0
 15 16  1  0  0  0  0
 16 21  1  0  0  0  0
 16 17  2  0  0  0  0
 17 19  1  0  0  0  0
 18 17  1  0  0  0  0
 19 20  2  0  0  0  0
 21 20  1  0  0  0  0
M  END
>  <minimizedAffinity>
-4.05795908

$$$$

 OpenBabel03272502303D

 21 22  0  0  0  0  0  0  0  0999 V2000
   38.2990   24.6530   34.5010 C   0  0  0  0  0  3  0  0  0  0  0  0
   37.9520   23.8560   33.5060 C   0  0  0  0  0  3  0  0  0  0  0  0
   38.0160   24.0660   38.1730 C   0  0  0  0  0  0  0  0  0  0  0  0
   37.7730   24.5480   36.8860 C   0  0  0  0  0  0  0  0  0  0  0  0
   38.5660   24.1440   35.8180 C   0  0  0  0  0  0  0  0  0  0  0  0
   39.5790   23.2690   36.0760 N   0  0  0  0  0  0  0  0  0  0  0  0
   39.7870   22.8260   37.3170 C   0  0  0  0  0  0  0  0  0  0  0  0
   39.0250   23.2120   38.3530 N   0  0  0  0  0  0  0  0  0  0  0  0
   37.4460   24.3320   39.0470 H   0  0  0  0  0  0  0  0  0  0  0  0
   36.9450   25.2360   36.7970 H   0  0  0  0  0  0  0  0  0  0  0  0
   40.6240   22.1240   37.4380 H   0  0  0  0  0  0  0  0  0  0  0  0
   37.6980   24.5060   32.1720 C   0  0  0  0  0  0  0  0  0  0  0  0
   37.5980   25.5980   32.3240 H   0  0  0  0  0  0  0  0  0  0  0  0
   38.5070   24.2450   31.4490 H   0  0  0  0  0  0  0  0  0  0  0  0
   36.1330   23.8410   31.5140 S   0  0  0  0  0  0  0  0  0  0  0  0
   35.9820   22.1410   31.6770 C   0  0  0  0  0  0  0  0  0  0  0  0
   35.0340   21.3730   32.4310 C   0  0  0  0  0  0  0  0  0  0  0  0
   34.2910   21.9180   32.9910 H   0  0  0  0  0  0  0  0  0  0  0  0
   35.1400   20.0060   32.3860 C   0  0  0  0  0  3  0  0  0  0  0  0
   36.1600   19.4370   31.6120 C   0  0  0  0  0  3  0  0  0  0  0  0
   37.0420   20.8590   30.8920 S   0  0  0  0  0  0  0  0  0  0  0  0
  1  5  1  0  0  0  0
  2  1  2  0  0  0  0
  3  8  1  0  0  0  0
  3  9  1  0  0  0  0
  4  3  2  0  0  0  0
  5  6  2  0  0  0  0
  5  4  1  0  0  0  0
  6  7  1  0  0  0  0
  7 11  1  0  0  0  0
  7  8  2  0  0  0  0
 10  4  1  0  0  0  0
 12 13  1  0  0  0  0
 12  2  1  0  0  0  0
 14 12  1  0  0  0  0
 15 16  1  0  0  0  0
 15 12  1  0  0  0  0
 16 17  2  0  0  0  0
 17 18  1  0  0  0  0
 19 17  1  0  0  0  0
 20 19  2  0  0  0  0
 21 20  1  0  0  0  0
 21 16  1  0  0  0  0
M  END
>  <minimizedAffinity>
-4.0387044

$$$$

 OpenBabel03272502303D

 21 22  0  0  0  0  0  0  0  0999 V2000
   34.5240   29.8890   33.8320 C   0  0  0  0  0  3  0  0  0  0  0  0
   35.6900   30.1060   33.2520 C   0  0  0  0  0  3  0  0  0  0  0  0
   34.7350   32.0210   36.8850 C   0  0  0  0  0  0  0  0  0  0  0  0
   35.0700   31.3810   35.6900 C   0  0  0  0  0  0  0  0  0  0  0  0
   34.1590   30.5390   35.0610 C   0  0  0  0  0  0  0  0  0  0  0  0
   32.9420   30.3660   35.6510 N   0  0  0  0  0  0  0  0  0  0  0  0
   32.6520   30.9920   36.7930 C   0  0  0  0  0  0  0  0  0  0  0  0
   33.5260   31.8060   37.4060 N   0  0  0  0  0  0  0  0  0  0  0  0
   35.3850   32.6860   37.4280 H   0  0  0  0  0  0  0  0  0  0  0  0
   36.0590   31.5900   35.3130 H   0  0  0  0  0  0  0  0  0  0  0  0
   31.6500   30.7980   37.2000 H   0  0  0  0  0  0  0  0  0  0  0  0
   35.9570   29.3670   31.9670 C   0  0  0  0  0  0  0  0  0  0  0  0
   35.0570   29.4350   31.3270 H   0  0  0  0  0  0  0  0  0  0  0  0
   36.8720   29.7660   31.4680 H   0  0  0  0  0  0  0  0  0  0  0  0
   36.2720   27.6200   32.3820 S   0  0  0  0  0  0  0  0  0  0  0  0
   37.4760   27.4010   33.5820 C   0  0  0  0  0  0  0  0  0  0  0  0
   37.3920   27.5620   35.0040 C   0  0  0  0  0  0  0  0  0  0  0  0
   36.4410   27.8670   35.4120 H   0  0  0  0  0  0  0  0  0  0  0  0
   38.5230   27.3180   35.7440 C   0  0  0  0  0  3  0  0  0  0  0  0
   39.6910   26.9280   35.0740 C   0  0  0  0  0  3  0  0  0  0  0  0
   39.2230   26.8870   33.3130 S   0  0  0  0  0  0  0  0  0  0  0  0
  1  5  1  0  0  0  0
  2  1  2  0  0  0  0
  3  8  1  0  0  0  0
  3  9  1  0  0  0  0
  4  3  2  0  0  0  0
  5  6  2  0  0  0  0
  5  4  1  0  0  0  0
  6  7  1  0  0  0  0
  7 11  1  0  0  0  0
  7  8  2  0  0  0  0
 10  4  1  0  0  0  0
 12 15  1  0  0  0  0
 12  2  1  0  0  0  0
 13 12  1  0  0  0  0
 14 12  1  0  0  0  0
 15 16  1  0  0  0  0
 16 17  2  0  0  0  0
 17 18  1  0  0  0  0
 17 19  1  0  0  0  0
 20 19  2  0  0  0  0
 21 16  1  0  0  0  0
 21 20  1  0  0  0  0
M  END
>  <minimizedAffinity>
-4.00852537

$$$$

 OpenBabel03272502303D

 21 22  0  0  0  0  0  0  0  0999 V2000
   38.1330   22.7760   34.6420 C   0  0  0  0  0  3  0  0  0  0  0  0
   37.5870   21.6420   34.2430 C   0  0  0  0  0  3  0  0  0  0  0  0
   39.8860   22.7920   37.9340 C   0  0  0  0  0  0  0  0  0  0  0  0
   39.5940   22.5550   36.5900 C   0  0  0  0  0  0  0  0  0  0  0  0
   38.4150   23.0320   36.0280 C   0  0  0  0  0  0  0  0  0  0  0  0
   37.5670   23.7330   36.8330 N   0  0  0  0  0  0  0  0  0  0  0  0
   37.8740   23.9440   38.1140 C   0  0  0  0  0  0  0  0  0  0  0  0
   39.0100   23.4860   38.6640 N   0  0  0  0  0  0  0  0  0  0  0  0
   40.7760   22.4560   38.4380 H   0  0  0  0  0  0  0  0  0  0  0  0
   40.3360   21.9890   36.0470 H   0  0  0  0  0  0  0  0  0  0  0  0
   37.1360   24.5180   38.6920 H   0  0  0  0  0  0  0  0  0  0  0  0
   37.3400   21.4910   32.7650 C   0  0  0  0  0  0  0  0  0  0  0  0
   37.8330   20.5640   32.4170 H   0  0  0  0  0  0  0  0  0  0  0  0
   36.2460   21.5060   32.5470 H   0  0  0  0  0  0  0  0  0  0  0  0
   38.0890   22.9260   31.9240 S   0  0  0  0  0  0  0  0  0  0  0  0
   36.9760   24.1840   31.5820 C   0  0  0  0  0  0  0  0  0  0  0  0
   35.6120   24.1090   31.1470 C   0  0  0  0  0  0  0  0  0  0  0  0
   35.1930   23.1260   31.0040 H   0  0  0  0  0  0  0  0  0  0  0  0
   34.9390   25.2880   30.9450 C   0  0  0  0  0  3  0  0  0  0  0  0
   35.6160   26.4940   31.1720 C   0  0  0  0  0  3  0  0  0  0  0  0
   37.2870   25.9940   31.7000 S   0  0  0  0  0  0  0  0  0  0  0  0
  1  5  1  0  0  0  0
  2  1  2  0  0  0  0
  3  9  1  0  0  0  0
  3  8  1  0  0  0  0
  4  3  2  0  0  0  0
  5  4  1  0  0  0  0
  5  6  2  0  0  0  0
  6  7  1  0  0  0  0
  7  8  2  0  0  0  0
  7 11  1  0  0  0  0
 10  4  1  0  0  0  0
 12  2  1  0  0  0  0
 13 12  1  0  0  0  0
 14 12  1  0  0  0  0
 15 12  1  0  0  0  0
 16 21  1  0  0  0  0
 16 15  1  0  0  0  0
 17 16  2  0  0  0  0
 18 17  1  0  0  0  0
 19 17  1  0  0  0  0
 19 20  2  0  0  0  0
 20 21  1  0  0  0  0
M  END
>  <minimizedAffinity>
-4.0055542

$$$$

 OpenBabel03272502303D

 21 22  0  0  0  0  0  0  0  0999 V2000
   39.0070   24.7320   34.6880 C   0  0  0  0  0  3  0  0  0  0  0  0
   38.2870   25.7780   34.3260 C   0  0  0  0  0  3  0  0  0  0  0  0
   37.9740   24.2160   38.2350 C   0  0  0  0  0  0  0  0  0  0  0  0
   38.0220   24.6980   36.9250 C   0  0  0  0  0  0  0  0  0  0  0  0
   38.9740   24.2220   36.0320 C   0  0  0  0  0  0  0  0  0  0  0  0
   39.8480   23.2770   36.4800 N   0  0  0  0  0  0  0  0  0  0  0  0
   39.7770   22.8350   37.7370 C   0  0  0  0  0  0  0  0  0  0  0  0
   38.8600   23.2910   38.6060 N   0  0  0  0  0  0  0  0  0  0  0  0
   37.2670   24.5350   38.9820 H   0  0  0  0  0  0  0  0  0  0  0  0
   37.2820   25.4450   36.6790 H   0  0  0  0  0  0  0  0  0  0  0  0
   40.5180   22.0730   38.0170 H   0  0  0  0  0  0  0  0  0  0  0  0
   38.4050   26.2180   32.8900 C   0  0  0  0  0  0  0  0  0  0  0  0
   39.0880   27.0870   32.8420 H   0  0  0  0  0  0  0  0  0  0  0  0
   38.7410   25.3700   32.2470 H   0  0  0  0  0  0  0  0  0  0  0  0
   36.7470   26.7190   32.3210 S   0  0  0  0  0  0  0  0  0  0  0  0
   36.2550   28.2580   32.8930 C   0  0  0  0  0  0  0  0  0  0  0  0
   35.9890   28.6960   34.2320 C   0  0  0  0  0  0  0  0  0  0  0  0
   36.1060   27.9700   35.0220 H   0  0  0  0  0  0  0  0  0  0  0  0
   35.6040   30.0010   34.4140 C   0  0  0  0  0  3  0  0  0  0  0  0
   35.4940   30.8300   33.2900 C   0  0  0  0  0  3  0  0  0  0  0  0
   35.9440   29.7640   31.8820 S   0  0  0  0  0  0  0  0  0  0  0  0
  1  5  1  0  0  0  0
  2  1  2  0  0  0  0
  3  8  1  0  0  0  0
  3  9  1  0  0  0  0
  4  3  2  0  0  0  0
  5  6  2  0  0  0  0
  5  4  1  0  0  0  0
  6  7  1  0  0  0  0
  7 11  1  0  0  0  0
  7  8  2  0  0  0  0
 10  4  1  0  0  0  0
 12  2  1  0  0  0  0
 13 12  1  0  0  0  0
 14 12  1  0  0  0  0
 15 12  1  0  0  0  0
 15 16  1  0  0  0  0
 16 17  2  0  0  0  0
 17 19  1  0  0  0  0
 17 18  1  0  0  0  0
 20 19  2  0  0  0  0
 21 16  1  0  0  0  0
 21 20  1  0  0  0  0
M  END
>  <minimizedAffinity>
-3.89908981

$$$$

 OpenBabel03272502303D

 21 22  0  0  0  0  0  0  0  0999 V2000
   35.4160   22.1560   31.8290 C   0  0  0  0  0  3  0  0  0  0  0  0
   36.1490   23.0520   31.1950 C   0  0  0  0  0  3  0  0  0  0  0  0
   35.2670   18.4770   32.4270 C   0  0  0  0  0  0  0  0  0  0  0  0
   34.8990   19.8210   32.3380 C   0  0  0  0  0  0  0  0  0  0  0  0
   35.8150   20.7770   31.9130 C   0  0  0  0  0  0  0  0  0  0  0  0
   37.0700   20.3550   31.5910 N   0  0  0  0  0  0  0  0  0  0  0  0
   37.3910   19.0630   31.6860 C   0  0  0  0  0  0  0  0  0  0  0  0
   36.5130   18.1340   32.0960 N   0  0  0  0  0  0  0  0  0  0  0  0
   34.6150   17.6820   32.7460 H   0  0  0  0  0  0  0  0  0  0  0  0
   33.8810   20.0430   32.6180 H   0  0  0  0  0  0  0  0  0  0  0  0
   38.4240   18.8080   31.4080 H   0  0  0  0  0  0  0  0  0  0  0  0
   35.6260   24.4650   31.1750 C   0  0  0  0  0  0  0  0  0  0  0  0
   35.2140   24.6750   30.1710 H   0  0  0  0  0  0  0  0  0  0  0  0
   34.8780   24.6160   31.9890 H   0  0  0  0  0  0  0  0  0  0  0  0
   37.0280   25.5840   31.5000 S   0  0  0  0  0  0  0  0  0  0  0  0
   36.6500   26.8770   32.5600 C   0  0  0  0  0  0  0  0  0  0  0  0
   37.0480   27.0940   33.9200 C   0  0  0  0  0  0  0  0  0  0  0  0
   37.6830   26.3490   34.3740 H   0  0  0  0  0  0  0  0  0  0  0  0
   36.5960   28.2290   34.5460 C   0  0  0  0  0  3  0  0  0  0  0  0
   35.7750   29.1090   33.8280 C   0  0  0  0  0  3  0  0  0  0  0  0
   35.6030   28.3430   32.1830 S   0  0  0  0  0  0  0  0  0  0  0  0
  1  5  1  0  0  0  0
  2  1  2  0  0  0  0
  3  9  1  0  0  0  0
  4  3  1  0  0  0  0
  4 10  1  0  0  0  0
  5  4  2  0  0  0  0
  6  7  2  0  0  0  0
  6  5  1  0  0  0  0
  7  8  1  0  0  0  0
  8  3  2  0  0  0  0
 11  7  1  0  0  0  0
 12  2  1  0  0  0  0
 12 15  1  0  0  0  0
 12 14  1  0  0  0  0
 13 12  1  0  0  0  0
 15 16  1  0  0  0  0
 16 17  2  0  0  0  0
 17 18  1  0  0  0  0
 17 19  1  0  0  0  0
 20 19  2  0  0  0  0
 21 16  1  0  0  0  0
 21 20  1  0  0  0  0
M  END
>  <minimizedAffinity>
-3.87355614

$$$$

 OpenBabel03272502303D

 21 22  0  0  0  0  0  0  0  0999 V2000
   36.0270   28.9120   33.9490 C   0  0  0  0  0  3  0  0  0  0  0  0
   36.6900   27.9120   34.5010 C   0  0  0  0  0  3  0  0  0  0  0  0
   33.3520   31.0000   35.4950 C   0  0  0  0  0  0  0  0  0  0  0  0
   33.9970   30.0260   34.7300 C   0  0  0  0  0  0  0  0  0  0  0  0
   35.3830   29.9220   34.7440 C   0  0  0  0  0  0  0  0  0  0  0  0
   36.0790   30.7970   35.5230 N   0  0  0  0  0  0  0  0  0  0  0  0
   35.4330   31.7170   36.2430 C   0  0  0  0  0  0  0  0  0  0  0  0
   34.0950   31.8240   36.2350 N   0  0  0  0  0  0  0  0  0  0  0  0
   32.2850   31.1420   35.5370 H   0  0  0  0  0  0  0  0  0  0  0  0
   33.3480   29.3870   34.1510 H   0  0  0  0  0  0  0  0  0  0  0  0
   36.0690   32.3830   36.8440 H   0  0  0  0  0  0  0  0  0  0  0  0
   37.3220   26.9170   33.5640 C   0  0  0  0  0  0  0  0  0  0  0  0
   36.6870   26.0130   33.5260 H   0  0  0  0  0  0  0  0  0  0  0  0
   37.4820   27.3740   32.5580 H   0  0  0  0  0  0  0  0  0  0  0  0
   38.9590   26.4780   34.2360 S   0  0  0  0  0  0  0  0  0  0  0  0
   38.9060   25.2680   35.4490 C   0  0  0  0  0  0  0  0  0  0  0  0
   38.0340   25.1410   36.5800 C   0  0  0  0  0  0  0  0  0  0  0  0
   37.2880   25.9080   36.7170 H   0  0  0  0  0  0  0  0  0  0  0  0
   38.2100   24.0590   37.4060 C   0  0  0  0  0  3  0  0  0  0  0  0
   39.2250   23.1410   37.1010 C   0  0  0  0  0  3  0  0  0  0  0  0
   39.9980   23.7920   35.5850 S   0  0  0  0  0  0  0  0  0  0  0  0
  1  2  2  0  0  0  0
  1  5  1  0  0  0  0
  3  9  1  0  0  0  0
  3  8  1  0  0  0  0
  4  5  1  0  0  0  0
  4  3  2  0  0  0  0
  5  6  2  0  0  0  0
  6  7  1  0  0  0  0
  7 11  1  0  0  0  0
  8  7  2  0  0  0  0
 10  4  1  0  0  0  0
 12 15  1  0  0  0  0
 12  2  1  0  0  0  0
 13 12  1  0  0  0  0
 14 12  1  0  0  0  0
 15 16  1  0  0  0  0
 16 21  1  0  0  0  0
 16 17  2  0  0  0  0
 17 18  1  0  0  0  0
 17 19  1  0  0  0  0
 20 19  2  0  0  0  0
 21 20  1  0  0  0  0
M  END
>  <minimizedAffinity>
-3.8474102

$$$$
