
 OpenBabel03262522583D

 22 24  0  0  0  0  0  0  0  0999 V2000
   37.9890   24.8260   34.7130 C   0  0  0  0  0  0  0  0  0  0  0  0
   38.0020   24.1690   33.4900 C   0  0  0  0  0  0  0  0  0  0  0  0
   37.5680   25.0220   32.5200 C   0  0  0  0  0  0  0  0  0  0  0  0
   37.2910   26.2050   33.1600 N   0  0  0  0  0  0  0  0  0  0  0  0
   37.5550   26.0440   34.4540 N   0  0  0  0  0  0  0  0  0  0  0  0
   38.3110   23.1350   33.3480 H   0  0  0  0  0  0  0  0  0  0  0  0
   37.4530   24.8440   31.4660 H   0  0  0  0  0  0  0  0  0  0  0  0
   39.8030   22.8460   37.2040 C   0  0  0  0  0  0  0  0  0  0  0  0
   39.1050   23.1750   38.4070 C   0  0  0  0  0  0  0  0  0  0  0  0
   38.0260   24.0700   38.3350 C   0  0  0  0  0  0  0  0  0  0  0  0
   37.7170   24.5660   37.1160 N   0  0  0  0  0  0  0  0  0  0  0  0
   38.3830   24.2490   35.9830 C   0  0  0  0  0  0  0  0  0  0  0  0
   39.4030   23.4030   36.0560 N   0  0  0  0  0  0  0  0  0  0  0  0
   40.6210   22.1560   37.3220 H   0  0  0  0  0  0  0  0  0  0  0  0
   39.3360   22.7890   39.3910 H   0  0  0  0  0  0  0  0  0  0  0  0
   37.4580   24.3620   39.1920 H   0  0  0  0  0  0  0  0  0  0  0  0
   36.7950   27.4230   32.5280 C   0  0  0  0  0  0  0  0  0  0  0  0
   36.3110   28.5550   33.0490 C   0  0  0  0  0  0  0  0  0  0  0  0
   36.2710   28.5950   34.1550 H   0  0  0  0  0  0  0  0  0  0  0  0
   35.9100   29.5560   32.2600 C   0  0  0  0  0  3  0  0  0  0  0  0
   36.0370   29.3200   30.9600 C   0  0  0  0  0  3  0  0  0  0  0  0
   36.7010   27.7410   30.7910 S   0  0  0  0  0  0  0  0  0  0  0  0
  1 12  1  0  0  0  0
  2  1  1  0  0  0  0
  3  4  1  0  0  0  0
  3  2  2  0  0  0  0
  4  5  1  0  0  0  0
  5  1  2  0  0  0  0
  6  2  1  0  0  0  0
  7  3  1  0  0  0  0
  8 14  1  0  0  0  0
  8  9  1  0  0  0  0
  9 15  1  0  0  0  0
 10  9  2  0  0  0  0
 10 16  1  0  0  0  0
 11 10  1  0  0  0  0
 12 13  1  0  0  0  0
 12 11  2  0  0  0  0
 13  8  2  0  0  0  0
 17 18  2  0  0  0  0
 17  4  1  0  0  0  0
 18 19  1  0  0  0  0
 20 18  1  0  0  0  0
 21 20  2  0  0  0  0
 22 21  1  0  0  0  0
 22 17  1  0  0  0  0
M  END
>  <minimizedAffinity>
-4.45531845

$$$$

 OpenBabel03262522583D

 22 24  0  0  0  0  0  0  0  0999 V2000
   37.9900   24.8720   34.7460 C   0  0  0  0  0  0  0  0  0  0  0  0
   38.0490   24.2330   33.5150 C   0  0  0  0  0  0  0  0  0  0  0  0
   37.6150   25.0880   32.5480 C   0  0  0  0  0  0  0  0  0  0  0  0
   37.2900   26.2540   33.1970 N   0  0  0  0  0  0  0  0  0  0  0  0
   37.5290   26.0810   34.4940 N   0  0  0  0  0  0  0  0  0  0  0  0
   38.3900   23.2100   33.3660 H   0  0  0  0  0  0  0  0  0  0  0  0
   37.5290   24.9210   31.4880 H   0  0  0  0  0  0  0  0  0  0  0  0
   38.0230   24.0800   38.3230 C   0  0  0  0  0  0  0  0  0  0  0  0
   39.1160   23.1620   38.4110 C   0  0  0  0  0  0  0  0  0  0  0  0
   39.8170   22.8360   37.2400 C   0  0  0  0  0  0  0  0  0  0  0  0
   39.4050   23.4210   36.0930 N   0  0  0  0  0  0  0  0  0  0  0  0
   38.3700   24.2880   36.0180 C   0  0  0  0  0  0  0  0  0  0  0  0
   37.7100   24.5930   37.1280 N   0  0  0  0  0  0  0  0  0  0  0  0
   37.5240   24.2910   39.2530 H   0  0  0  0  0  0  0  0  0  0  0  0
   39.4600   22.6850   39.3190 H   0  0  0  0  0  0  0  0  0  0  0  0
   40.6430   22.1590   37.2300 H   0  0  0  0  0  0  0  0  0  0  0  0
   36.7770   27.4670   32.5700 C   0  0  0  0  0  0  0  0  0  0  0  0
   36.2770   28.5890   33.0960 C   0  0  0  0  0  0  0  0  0  0  0  0
   36.2370   28.6250   34.2030 H   0  0  0  0  0  0  0  0  0  0  0  0
   35.8600   29.5870   32.3110 C   0  0  0  0  0  3  0  0  0  0  0  0
   35.9890   29.3580   31.0110 C   0  0  0  0  0  3  0  0  0  0  0  0
   36.6750   27.7900   30.8340 S   0  0  0  0  0  0  0  0  0  0  0  0
  1 12  1  0  0  0  0
  2  1  1  0  0  0  0
  3  4  1  0  0  0  0
  3  2  2  0  0  0  0
  4  5  1  0  0  0  0
  5  1  2  0  0  0  0
  6  2  1  0  0  0  0
  7  3  1  0  0  0  0
  8  9  1  0  0  0  0
  8 14  1  0  0  0  0
  9 15  1  0  0  0  0
 10  9  2  0  0  0  0
 11 10  1  0  0  0  0
 12 11  2  0  0  0  0
 12 13  1  0  0  0  0
 13  8  2  0  0  0  0
 16 10  1  0  0  0  0
 17 18  2  0  0  0  0
 17  4  1  0  0  0  0
 18 19  1  0  0  0  0
 20 18  1  0  0  0  0
 21 20  2  0  0  0  0
 22 21  1  0  0  0  0
 22 17  1  0  0  0  0
M  END
>  <minimizedAffinity>
-4.45463705

$$$$

 OpenBabel03262522583D

 22 24  0  0  0  0  0  0  0  0999 V2000
   37.1110   26.8440   33.9410 C   0  0  0  0  0  0  0  0  0  0  0  0
   37.4360   25.8090   33.0750 C   0  0  0  0  0  0  0  0  0  0  0  0
   37.9580   24.7750   33.7900 C   0  0  0  0  0  0  0  0  0  0  0  0
   37.9500   25.1840   35.1010 N   0  0  0  0  0  0  0  0  0  0  0  0
   37.4410   26.4130   35.1430 N   0  0  0  0  0  0  0  0  0  0  0  0
   37.2900   25.8390   31.9960 H   0  0  0  0  0  0  0  0  0  0  0  0
   38.3140   23.8220   33.4390 H   0  0  0  0  0  0  0  0  0  0  0  0
   35.9770   29.6510   31.8800 C   0  0  0  0  0  0  0  0  0  0  0  0
   35.4220   30.5320   32.8610 C   0  0  0  0  0  0  0  0  0  0  0  0
   35.4510   30.1410   34.2090 C   0  0  0  0  0  0  0  0  0  0  0  0
   36.0080   28.9420   34.4900 N   0  0  0  0  0  0  0  0  0  0  0  0
   36.5310   28.1160   33.5570 C   0  0  0  0  0  0  0  0  0  0  0  0
   36.5020   28.4890   32.2830 N   0  0  0  0  0  0  0  0  0  0  0  0
   35.9260   30.0050   30.8650 H   0  0  0  0  0  0  0  0  0  0  0  0
   34.9730   31.4940   32.6550 H   0  0  0  0  0  0  0  0  0  0  0  0
   35.0550   30.7460   34.9950 H   0  0  0  0  0  0  0  0  0  0  0  0
   38.4170   24.4060   36.2430 C   0  0  0  0  0  0  0  0  0  0  0  0
   37.9740   24.3310   37.5020 C   0  0  0  0  0  0  0  0  0  0  0  0
   37.0970   24.9640   37.7400 H   0  0  0  0  0  0  0  0  0  0  0  0
   38.5710   23.5330   38.3920 C   0  0  0  0  0  3  0  0  0  0  0  0
   39.6050   22.8520   37.9170 C   0  0  0  0  0  3  0  0  0  0  0  0
   39.7830   23.2830   36.2600 S   0  0  0  0  0  0  0  0  0  0  0  0
  1  5  2  0  0  0  0
  2  3  2  0  0  0  0
  2  1  1  0  0  0  0
  3  4  1  0  0  0  0
  4  5  1  0  0  0  0
  4 17  1  0  0  0  0
  6  2  1  0  0  0  0
  7  3  1  0  0  0  0
  8 13  2  0  0  0  0
  8  9  1  0  0  0  0
  9 10  2  0  0  0  0
 10 11  1  0  0  0  0
 10 16  1  0  0  0  0
 12  1  1  0  0  0  0
 12 11  2  0  0  0  0
 13 12  1  0  0  0  0
 14  8  1  0  0  0  0
 15  9  1  0  0  0  0
 17 22  1  0  0  0  0
 17 18  2  0  0  0  0
 18 19  1  0  0  0  0
 18 20  1  0  0  0  0
 21 20  2  0  0  0  0
 22 21  1  0  0  0  0
M  END
>  <minimizedAffinity>
-4.45075941

$$$$

 OpenBabel03262522583D

 22 24  0  0  0  0  0  0  0  0999 V2000
   38.2470   24.8780   35.5320 C   0  0  0  0  0  0  0  0  0  0  0  0
   37.7940   24.4990   36.7890 C   0  0  0  0  0  0  0  0  0  0  0  0
   38.6210   23.5390   37.2900 C   0  0  0  0  0  0  0  0  0  0  0  0
   39.5820   23.3350   36.3310 N   0  0  0  0  0  0  0  0  0  0  0  0
   39.3220   24.1480   35.3100 N   0  0  0  0  0  0  0  0  0  0  0  0
   36.9150   24.9130   37.2790 H   0  0  0  0  0  0  0  0  0  0  0  0
   38.5650   23.0260   38.2340 H   0  0  0  0  0  0  0  0  0  0  0  0
   36.8570   26.5210   32.5680 C   0  0  0  0  0  0  0  0  0  0  0  0
   36.4600   27.7900   33.0940 C   0  0  0  0  0  0  0  0  0  0  0  0
   36.6790   28.0530   34.4550 C   0  0  0  0  0  0  0  0  0  0  0  0
   37.2580   27.0740   35.1860 N   0  0  0  0  0  0  0  0  0  0  0  0
   37.6310   25.8770   34.6800 C   0  0  0  0  0  0  0  0  0  0  0  0
   37.4210   25.6320   33.3920 N   0  0  0  0  0  0  0  0  0  0  0  0
   36.6630   26.3780   31.5190 H   0  0  0  0  0  0  0  0  0  0  0  0
   35.9950   28.5850   32.5260 H   0  0  0  0  0  0  0  0  0  0  0  0
   36.4080   28.9780   34.9160 H   0  0  0  0  0  0  0  0  0  0  0  0
   40.6920   22.3930   36.4200 C   0  0  0  0  0  0  0  0  0  0  0  0
   41.2050   21.7270   37.4590 C   0  0  0  0  0  0  0  0  0  0  0  0
   40.7130   21.9090   38.4360 H   0  0  0  0  0  0  0  0  0  0  0  0
   42.2430   20.9010   37.3000 C   0  0  0  0  0  3  0  0  0  0  0  0
   42.6930   20.8140   36.0550 C   0  0  0  0  0  3  0  0  0  0  0  0
   41.7170   21.8480   35.0860 S   0  0  0  0  0  0  0  0  0  0  0  0
  1  2  1  0  0  0  0
  2  6  1  0  0  0  0
  2  3  2  0  0  0  0
  3  7  1  0  0  0  0
  4 17  1  0  0  0  0
  4  3  1  0  0  0  0
  5  1  2  0  0  0  0
  5  4  1  0  0  0  0
  8  9  2  0  0  0  0
  8 13  1  0  0  0  0
  9 10  1  0  0  0  0
 10 16  1  0  0  0  0
 10 11  2  0  0  0  0
 12 11  1  0  0  0  0
 12  1  1  0  0  0  0
 13 12  2  0  0  0  0
 14  8  1  0  0  0  0
 15  9  1  0  0  0  0
 17 18  2  0  0  0  0
 18 19  1  0  0  0  0
 20 18  1  0  0  0  0
 21 20  2  0  0  0  0
 22 21  1  0  0  0  0
 22 17  1  0  0  0  0
M  END
>  <minimizedAffinity>
-4.38017511

$$$$

 OpenBabel03262522583D

 22 24  0  0  0  0  0  0  0  0999 V2000
   38.5160   25.7560   35.3160 C   0  0  0  0  0  0  0  0  0  0  0  0
   38.0970   26.9100   35.9650 C   0  0  0  0  0  0  0  0  0  0  0  0
   37.5940   27.7810   35.0460 C   0  0  0  0  0  0  0  0  0  0  0  0
   37.7100   27.1520   33.8310 N   0  0  0  0  0  0  0  0  0  0  0  0
   38.2590   25.9580   34.0380 N   0  0  0  0  0  0  0  0  0  0  0  0
   38.1670   27.0740   37.0380 H   0  0  0  0  0  0  0  0  0  0  0  0
   37.1850   28.7640   35.2010 H   0  0  0  0  0  0  0  0  0  0  0  0
   40.7340   22.9150   35.9670 C   0  0  0  0  0  0  0  0  0  0  0  0
   40.2040   22.4020   37.1920 C   0  0  0  0  0  0  0  0  0  0  0  0
   39.0960   23.0450   37.7660 C   0  0  0  0  0  0  0  0  0  0  0  0
   38.6000   24.1190   37.1130 N   0  0  0  0  0  0  0  0  0  0  0  0
   39.1070   24.5970   35.9550 C   0  0  0  0  0  0  0  0  0  0  0  0
   40.1550   23.9860   35.4150 N   0  0  0  0  0  0  0  0  0  0  0  0
   41.5830   22.3820   35.5760 H   0  0  0  0  0  0  0  0  0  0  0  0
   40.5870   21.5450   37.7290 H   0  0  0  0  0  0  0  0  0  0  0  0
   38.6470   22.7180   38.6800 H   0  0  0  0  0  0  0  0  0  0  0  0
   37.3000   27.7000   32.5420 C   0  0  0  0  0  0  0  0  0  0  0  0
   36.5340   28.7510   32.2330 C   0  0  0  0  0  0  0  0  0  0  0  0
   36.1300   29.3210   33.0930 H   0  0  0  0  0  0  0  0  0  0  0  0
   36.2910   29.0690   30.9580 C   0  0  0  0  0  3  0  0  0  0  0  0
   36.8640   28.2680   30.0690 C   0  0  0  0  0  3  0  0  0  0  0  0
   37.7390   27.0740   30.9480 S   0  0  0  0  0  0  0  0  0  0  0  0
  1 12  1  0  0  0  0
  1  2  1  0  0  0  0
  2  6  1  0  0  0  0
  3  7  1  0  0  0  0
  3  2  2  0  0  0  0
  4  5  1  0  0  0  0
  4  3  1  0  0  0  0
  5  1  2  0  0  0  0
  8  9  1  0  0  0  0
  9 15  1  0  0  0  0
  9 10  2  0  0  0  0
 10 16  1  0  0  0  0
 11 10  1  0  0  0  0
 12 11  2  0  0  0  0
 13 12  1  0  0  0  0
 13  8  2  0  0  0  0
 14  8  1  0  0  0  0
 17  4  1  0  0  0  0
 18 17  2  0  0  0  0
 18 19  1  0  0  0  0
 20 18  1  0  0  0  0
 21 22  1  0  0  0  0
 21 20  2  0  0  0  0
 22 17  1  0  0  0  0
M  END
>  <minimizedAffinity>
-4.24409103

$$$$

 OpenBabel03262522583D

 22 24  0  0  0  0  0  0  0  0999 V2000
   39.1310   25.7790   34.8750 C   0  0  0  0  0  0  0  0  0  0  0  0
   40.3000   26.4150   34.4810 C   0  0  0  0  0  0  0  0  0  0  0  0
   40.0430   27.1860   33.3880 C   0  0  0  0  0  0  0  0  0  0  0  0
   38.7070   27.0170   33.1170 N   0  0  0  0  0  0  0  0  0  0  0  0
   38.2090   26.1780   34.0210 N   0  0  0  0  0  0  0  0  0  0  0  0
   41.2620   26.3010   34.9780 H   0  0  0  0  0  0  0  0  0  0  0  0
   40.7170   27.8090   32.8280 H   0  0  0  0  0  0  0  0  0  0  0  0
   37.9440   24.2900   38.0040 C   0  0  0  0  0  0  0  0  0  0  0  0
   38.7810   23.1370   38.1180 C   0  0  0  0  0  0  0  0  0  0  0  0
   39.7360   22.8970   37.1170 C   0  0  0  0  0  0  0  0  0  0  0  0
   39.7980   23.7850   36.1000 N   0  0  0  0  0  0  0  0  0  0  0  0
   39.0010   24.8730   36.0000 C   0  0  0  0  0  0  0  0  0  0  0  0
   38.1000   25.0960   36.9490 N   0  0  0  0  0  0  0  0  0  0  0  0
   37.2320   24.4210   38.8010 H   0  0  0  0  0  0  0  0  0  0  0  0
   38.7470   22.4160   38.9240 H   0  0  0  0  0  0  0  0  0  0  0  0
   40.3950   22.0570   37.1360 H   0  0  0  0  0  0  0  0  0  0  0  0
   37.9690   27.6490   32.0300 C   0  0  0  0  0  0  0  0  0  0  0  0
   36.7990   28.2970   32.0150 C   0  0  0  0  0  0  0  0  0  0  0  0
   36.2830   28.3780   32.9920 H   0  0  0  0  0  0  0  0  0  0  0  0
   36.3100   28.8020   30.8790 C   0  0  0  0  0  3  0  0  0  0  0  0
   37.0740   28.6040   29.8120 C   0  0  0  0  0  3  0  0  0  0  0  0
   38.4630   27.7310   30.3340 S   0  0  0  0  0  0  0  0  0  0  0  0
  1 12  1  0  0  0  0
  2  1  1  0  0  0  0
  2  6  1  0  0  0  0
  3  2  2  0  0  0  0
  4  3  1  0  0  0  0
  4  5  1  0  0  0  0
  5  1  2  0  0  0  0
  7  3  1  0  0  0  0
  8  9  1  0  0  0  0
  8 14  1  0  0  0  0
  9 15  1  0  0  0  0
 10 16  1  0  0  0  0
 10  9  2  0  0  0  0
 11 10  1  0  0  0  0
 12 11  2  0  0  0  0
 12 13  1  0  0  0  0
 13  8  2  0  0  0  0
 17  4  1  0  0  0  0
 18 17  2  0  0  0  0
 18 19  1  0  0  0  0
 20 18  1  0  0  0  0
 21 22  1  0  0  0  0
 21 20  2  0  0  0  0
 22 17  1  0  0  0  0
M  END
>  <minimizedAffinity>
-4.23823643

$$$$

 OpenBabel03262522583D

 22 24  0  0  0  0  0  0  0  0999 V2000
   36.2460   28.0130   32.1450 C   0  0  0  0  0  0  0  0  0  0  0  0
   36.3790   29.1820   31.4090 C   0  0  0  0  0  0  0  0  0  0  0  0
   36.0350   30.2430   32.1910 C   0  0  0  0  0  0  0  0  0  0  0  0
   35.6920   29.7140   33.4110 N   0  0  0  0  0  0  0  0  0  0  0  0
   35.8310   28.3920   33.3380 N   0  0  0  0  0  0  0  0  0  0  0  0
   36.7060   29.2250   30.3720 H   0  0  0  0  0  0  0  0  0  0  0  0
   36.0230   31.2900   31.9420 H   0  0  0  0  0  0  0  0  0  0  0  0
   35.7390   24.5550   31.0470 C   0  0  0  0  0  0  0  0  0  0  0  0
   37.0730   24.1470   30.7330 C   0  0  0  0  0  0  0  0  0  0  0  0
   38.1170   25.0700   30.9050 C   0  0  0  0  0  0  0  0  0  0  0  0
   37.7840   26.2980   31.3630 N   0  0  0  0  0  0  0  0  0  0  0  0
   36.5200   26.6750   31.6580 C   0  0  0  0  0  0  0  0  0  0  0  0
   35.5360   25.7990   31.4940 N   0  0  0  0  0  0  0  0  0  0  0  0
   34.9830   23.8050   30.8950 H   0  0  0  0  0  0  0  0  0  0  0  0
   37.3590   23.1710   30.3660 H   0  0  0  0  0  0  0  0  0  0  0  0
   39.1370   24.8360   30.6900 H   0  0  0  0  0  0  0  0  0  0  0  0
   35.2520   30.4700   34.5780 C   0  0  0  0  0  0  0  0  0  0  0  0
   35.9340   31.2050   35.4630 C   0  0  0  0  0  0  0  0  0  0  0  0
   37.0280   31.2620   35.2980 H   0  0  0  0  0  0  0  0  0  0  0  0
   35.3070   31.8180   36.4710 C   0  0  0  0  0  3  0  0  0  0  0  0
   33.9940   31.6320   36.5010 C   0  0  0  0  0  3  0  0  0  0  0  0
   33.5910   30.6230   35.1660 S   0  0  0  0  0  0  0  0  0  0  0  0
  1  5  2  0  0  0  0
  2  1  1  0  0  0  0
  2  3  2  0  0  0  0
  3  4  1  0  0  0  0
  4 17  1  0  0  0  0
  5  4  1  0  0  0  0
  6  2  1  0  0  0  0
  7  3  1  0  0  0  0
  8 13  1  0  0  0  0
  9 10  1  0  0  0  0
  9  8  2  0  0  0  0
 10 11  2  0  0  0  0
 11 12  1  0  0  0  0
 12  1  1  0  0  0  0
 13 12  2  0  0  0  0
 14  8  1  0  0  0  0
 15  9  1  0  0  0  0
 16 10  1  0  0  0  0
 17 22  1  0  0  0  0
 17 18  2  0  0  0  0
 18 20  1  0  0  0  0
 19 18  1  0  0  0  0
 20 21  2  0  0  0  0
 22 21  1  0  0  0  0
M  END
>  <minimizedAffinity>
-4.19590282

$$$$

 OpenBabel03262522583D

 22 24  0  0  0  0  0  0  0  0999 V2000
   38.1730   25.0070   33.5670 C   0  0  0  0  0  0  0  0  0  0  0  0
   38.9520   26.0510   34.0450 C   0  0  0  0  0  0  0  0  0  0  0  0
   39.8690   25.5590   34.9240 C   0  0  0  0  0  0  0  0  0  0  0  0
   39.6440   24.2050   34.9800 N   0  0  0  0  0  0  0  0  0  0  0  0
   38.6340   23.9230   34.1620 N   0  0  0  0  0  0  0  0  0  0  0  0
   38.8340   27.0930   33.7530 H   0  0  0  0  0  0  0  0  0  0  0  0
   40.6250   26.0870   35.4780 H   0  0  0  0  0  0  0  0  0  0  0  0
   35.5230   24.1180   31.2000 C   0  0  0  0  0  0  0  0  0  0  0  0
   35.0370   25.4040   30.8050 C   0  0  0  0  0  0  0  0  0  0  0  0
   35.6320   26.5470   31.3620 C   0  0  0  0  0  0  0  0  0  0  0  0
   36.6360   26.3510   32.2450 N   0  0  0  0  0  0  0  0  0  0  0  0
   37.0900   25.1320   32.6120 C   0  0  0  0  0  0  0  0  0  0  0  0
   36.5240   24.0530   32.0840 N   0  0  0  0  0  0  0  0  0  0  0  0
   35.0280   23.2800   30.7400 H   0  0  0  0  0  0  0  0  0  0  0  0
   34.2360   25.5810   30.1010 H   0  0  0  0  0  0  0  0  0  0  0  0
   35.3210   27.5390   31.1140 H   0  0  0  0  0  0  0  0  0  0  0  0
   40.3860   23.2480   35.7930 C   0  0  0  0  0  0  0  0  0  0  0  0
   40.1530   22.7600   37.0160 C   0  0  0  0  0  0  0  0  0  0  0  0
   39.2400   23.1360   37.5170 H   0  0  0  0  0  0  0  0  0  0  0  0
   40.9870   21.8750   37.5710 C   0  0  0  0  0  3  0  0  0  0  0  0
   42.0260   21.5460   36.8140 C   0  0  0  0  0  3  0  0  0  0  0  0
   41.8870   22.4290   35.3440 S   0  0  0  0  0  0  0  0  0  0  0  0
  1  2  1  0  0  0  0
  1  5  2  0  0  0  0
  2  3  2  0  0  0  0
  3  4  1  0  0  0  0
  3  7  1  0  0  0  0
  4 17  1  0  0  0  0
  5  4  1  0  0  0  0
  6  2  1  0  0  0  0
  8 13  1  0  0  0  0
  9  8  2  0  0  0  0
  9 10  1  0  0  0  0
 10 11  2  0  0  0  0
 11 12  1  0  0  0  0
 12  1  1  0  0  0  0
 13 12  2  0  0  0  0
 14  8  1  0  0  0  0
 15  9  1  0  0  0  0
 16 10  1  0  0  0  0
 17 18  2  0  0  0  0
 18 19  1  0  0  0  0
 18 20  1  0  0  0  0
 21 20  2  0  0  0  0
 22 17  1  0  0  0  0
 22 21  1  0  0  0  0
M  END
>  <minimizedAffinity>
-4.17817831

$$$$

 OpenBabel03262522583D

 22 24  0  0  0  0  0  0  0  0999 V2000
   35.9620   28.5730   32.8860 C   0  0  0  0  0  0  0  0  0  0  0  0
   36.0860   29.7290   32.1280 C   0  0  0  0  0  0  0  0  0  0  0  0
   35.7040   30.7990   32.8800 C   0  0  0  0  0  0  0  0  0  0  0  0
   35.3460   30.2880   34.1030 N   0  0  0  0  0  0  0  0  0  0  0  0
   35.5150   28.9690   34.0620 N   0  0  0  0  0  0  0  0  0  0  0  0
   36.4340   29.7570   31.0970 H   0  0  0  0  0  0  0  0  0  0  0  0
   35.6750   31.8400   32.6080 H   0  0  0  0  0  0  0  0  0  0  0  0
   37.5700   25.2920   32.6230 C   0  0  0  0  0  0  0  0  0  0  0  0
   36.8370   24.6900   31.5540 C   0  0  0  0  0  0  0  0  0  0  0  0
   35.8060   25.4250   30.9470 C   0  0  0  0  0  0  0  0  0  0  0  0
   35.5750   26.6690   31.4220 N   0  0  0  0  0  0  0  0  0  0  0  0
   36.2730   27.2310   32.4340 C   0  0  0  0  0  0  0  0  0  0  0  0
   37.2470   26.5320   33.0050 N   0  0  0  0  0  0  0  0  0  0  0  0
   38.3460   24.6810   33.0490 H   0  0  0  0  0  0  0  0  0  0  0  0
   37.0070   23.6970   31.1600 H   0  0  0  0  0  0  0  0  0  0  0  0
   35.2170   25.0390   30.1430 H   0  0  0  0  0  0  0  0  0  0  0  0
   34.8670   31.0600   35.2450 C   0  0  0  0  0  0  0  0  0  0  0  0
   35.5140   31.8380   36.1190 C   0  0  0  0  0  0  0  0  0  0  0  0
   36.6080   31.9250   35.9670 H   0  0  0  0  0  0  0  0  0  0  0  0
   34.8540   32.4570   37.1030 C   0  0  0  0  0  3  0  0  0  0  0  0
   33.5480   32.2300   37.1210 C   0  0  0  0  0  3  0  0  0  0  0  0
   33.1950   31.1760   35.8070 S   0  0  0  0  0  0  0  0  0  0  0  0
  1  5  2  0  0  0  0
  2  3  2  0  0  0  0
  2  1  1  0  0  0  0
  3  4  1  0  0  0  0
  4 17  1  0  0  0  0
  5  4  1  0  0  0  0
  6  2  1  0  0  0  0
  7  3  1  0  0  0  0
  8 13  1  0  0  0  0
  8 14  1  0  0  0  0
  9  8  2  0  0  0  0
 10 11  2  0  0  0  0
 10  9  1  0  0  0  0
 11 12  1  0  0  0  0
 12  1  1  0  0  0  0
 12 13  2  0  0  0  0
 15  9  1  0  0  0  0
 16 10  1  0  0  0  0
 17 22  1  0  0  0  0
 17 18  2  0  0  0  0
 18 20  1  0  0  0  0
 19 18  1  0  0  0  0
 20 21  2  0  0  0  0
 22 21  1  0  0  0  0
M  END
>  <minimizedAffinity>
-4.14109087

$$$$
