
 OpenBabel03272501593D

 28 30  0  0  0  0  0  0  0  0999 V2000
   37.6330   25.8940   35.6740 C   0  0  0  0  0  0  0  0  0  0  0  0
   37.3650   25.5670   34.6540 H   0  0  0  0  0  0  0  0  0  0  0  0
   36.7400   26.1280   36.2820 H   0  0  0  0  0  0  0  0  0  0  0  0
   38.3580   24.7620   36.3640 C   0  0  0  0  0  0  0  0  0  0  0  0
   38.0630   24.2460   37.6170 C   0  0  0  0  0  0  0  0  0  0  0  0
   38.9540   23.2170   37.8980 C   0  0  0  0  0  0  0  0  0  0  0  0
   39.7520   23.1460   36.8140 N   0  0  0  0  0  0  0  0  0  0  0  0
   39.4110   24.0480   35.9080 N   0  0  0  0  0  0  0  0  0  0  0  0
   37.2550   24.6220   38.2390 H   0  0  0  0  0  0  0  0  0  0  0  0
   38.9890   22.6150   38.7920 H   0  0  0  0  0  0  0  0  0  0  0  0
   40.8010   22.2420   36.6590 C   0  0  0  0  0  0  0  0  0  0  0  0
   41.4540   21.4930   37.5700 C   0  0  0  0  0  0  0  0  0  0  0  0
   41.1700   21.5510   38.6120 H   0  0  0  0  0  0  0  0  0  0  0  0
   42.4740   20.6620   37.1820 C   0  0  0  0  0  3  0  0  0  0  0  0
   42.7740   20.6550   35.7930 C   0  0  0  0  0  3  0  0  0  0  0  0
   41.5670   21.8670   35.0350 S   0  0  0  0  0  0  0  0  0  0  0  0
   38.5670   27.0550   35.7220 C   0  0  0  0  0  0  0  0  0  0  0  0
   39.2000   27.0510   36.6280 H   0  0  0  0  0  0  0  0  0  0  0  0
   38.0130   28.0210   35.7300 H   0  0  0  0  0  0  0  0  0  0  0  0
   41.4800   27.1310   33.4260 C   0  0  0  0  0  0  0  0  0  0  0  0
   40.8620   27.1710   32.1720 C   0  0  0  0  0  0  0  0  0  0  0  0
   39.4650   27.1720   32.1260 C   0  0  0  0  0  0  0  0  0  0  0  0
   38.7550   27.1340   33.2770 N   0  0  0  0  0  0  0  0  0  0  0  0
   39.3980   27.0960   34.4780 C   0  0  0  0  0  0  0  0  0  0  0  0
   40.7280   27.0960   34.5150 N   0  0  0  0  0  0  0  0  0  0  0  0
   42.5470   27.1270   33.5800 H   0  0  0  0  0  0  0  0  0  0  0  0
   41.5020   27.2000   31.3150 H   0  0  0  0  0  0  0  0  0  0  0  0
   38.9940   27.2030   31.1500 H   0  0  0  0  0  0  0  0  0  0  0  0
  1 17  1  0  0  0  0
  1  3  1  0  0  0  0
  1  4  1  0  0  0  0
  2  1  1  0  0  0  0
  4  5  1  0  0  0  0
  5  6  2  0  0  0  0
  5  9  1  0  0  0  0
  6 10  1  0  0  0  0
  7  6  1  0  0  0  0
  8  4  2  0  0  0  0
  8  7  1  0  0  0  0
 11  7  1  0  0  0  0
 11 12  2  0  0  0  0
 12 13  1  0  0  0  0
 14 12  1  0  0  0  0
 15 14  2  0  0  0  0
 16 15  1  0  0  0  0
 16 11  1  0  0  0  0
 17 19  1  0  0  0  0
 17 18  1  0  0  0  0
 20 26  1  0  0  0  0
 20 25  1  0  0  0  0
 21 20  2  0  0  0  0
 22 21  1  0  0  0  0
 22 23  2  0  0  0  0
 23 24  1  0  0  0  0
 24 25  2  0  0  0  0
 24 17  1  0  0  0  0
 27 21  1  0  0  0  0
 28 22  1  0  0  0  0
M  END
>  <minimizedAffinity>
-4.63893795

$$$$

 OpenBabel03272501593D

 28 30  0  0  0  0  0  0  0  0999 V2000
   38.4250   25.9820   30.8910 C   0  0  0  0  0  0  0  0  0  0  0  0
   39.3410   25.5600   31.3400 H   0  0  0  0  0  0  0  0  0  0  0  0
   38.5420   26.1640   29.8060 H   0  0  0  0  0  0  0  0  0  0  0  0
   37.3060   24.9810   31.0570 C   0  0  0  0  0  0  0  0  0  0  0  0
   35.9510   25.2720   31.1140 C   0  0  0  0  0  0  0  0  0  0  0  0
   35.2450   24.0860   31.2730 C   0  0  0  0  0  0  0  0  0  0  0  0
   36.1890   23.1240   31.3060 N   0  0  0  0  0  0  0  0  0  0  0  0
   37.4020   23.6390   31.1800 N   0  0  0  0  0  0  0  0  0  0  0  0
   35.5570   26.2820   31.0420 H   0  0  0  0  0  0  0  0  0  0  0  0
   34.1750   23.9720   31.3510 H   0  0  0  0  0  0  0  0  0  0  0  0
   35.9310   21.7630   31.4530 C   0  0  0  0  0  0  0  0  0  0  0  0
   34.9420   21.1250   32.1110 C   0  0  0  0  0  0  0  0  0  0  0  0
   34.1880   21.7000   32.6320 H   0  0  0  0  0  0  0  0  0  0  0  0
   34.8870   19.7540   32.1220 C   0  0  0  0  0  3  0  0  0  0  0  0
   35.9200   19.0870   31.4090 C   0  0  0  0  0  3  0  0  0  0  0  0
   36.9870   20.4580   30.7140 S   0  0  0  0  0  0  0  0  0  0  0  0
   37.9430   27.2340   31.5410 C   0  0  0  0  0  0  0  0  0  0  0  0
   36.8610   27.4010   31.3840 H   0  0  0  0  0  0  0  0  0  0  0  0
   38.4610   28.1300   31.1310 H   0  0  0  0  0  0  0  0  0  0  0  0
   39.8330   26.9210   34.7170 C   0  0  0  0  0  0  0  0  0  0  0  0
   38.8520   27.2120   35.6700 C   0  0  0  0  0  0  0  0  0  0  0  0
   37.5630   27.5110   35.2190 C   0  0  0  0  0  0  0  0  0  0  0  0
   37.3000   27.5100   33.8920 N   0  0  0  0  0  0  0  0  0  0  0  0
   38.2860   27.2200   32.9970 C   0  0  0  0  0  0  0  0  0  0  0  0
   39.5100   26.9360   33.4330 N   0  0  0  0  0  0  0  0  0  0  0  0
   40.8570   26.6770   34.9510 H   0  0  0  0  0  0  0  0  0  0  0  0
   39.1500   27.1880   36.6980 H   0  0  0  0  0  0  0  0  0  0  0  0
   36.8080   27.7350   35.9640 H   0  0  0  0  0  0  0  0  0  0  0  0
  1  4  1  0  0  0  0
  1  2  1  0  0  0  0
  1 17  1  0  0  0  0
  3  1  1  0  0  0  0
  4  5  1  0  0  0  0
  4  8  2  0  0  0  0
  5  6  2  0  0  0  0
  6  7  1  0  0  0  0
  6 10  1  0  0  0  0
  7 11  1  0  0  0  0
  8  7  1  0  0  0  0
  9  5  1  0  0  0  0
 11 12  2  0  0  0  0
 12 14  1  0  0  0  0
 12 13  1  0  0  0  0
 15 14  2  0  0  0  0
 16 15  1  0  0  0  0
 16 11  1  0  0  0  0
 17 24  1  0  0  0  0
 18 17  1  0  0  0  0
 19 17  1  0  0  0  0
 20 26  1  0  0  0  0
 20 21  1  0  0  0  0
 21 27  1  0  0  0  0
 22 21  2  0  0  0  0
 22 28  1  0  0  0  0
 23 22  1  0  0  0  0
 24 25  1  0  0  0  0
 24 23  2  0  0  0  0
 25 20  2  0  0  0  0
M  END
>  <minimizedAffinity>
-4.61351347

$$$$

 OpenBabel03272501593D

 28 30  0  0  0  0  0  0  0  0999 V2000
   38.4640   25.4620   33.7310 C   0  0  0  0  0  0  0  0  0  0  0  0
   39.4640   24.9940   33.7280 H   0  0  0  0  0  0  0  0  0  0  0  0
   38.4670   26.4480   33.2290 H   0  0  0  0  0  0  0  0  0  0  0  0
   37.5170   24.5720   32.9610 C   0  0  0  0  0  0  0  0  0  0  0  0
   36.5710   24.9910   32.0370 C   0  0  0  0  0  0  0  0  0  0  0  0
   35.8990   23.8760   31.5490 C   0  0  0  0  0  0  0  0  0  0  0  0
   36.4570   22.8290   32.1890 N   0  0  0  0  0  0  0  0  0  0  0  0
   37.4080   23.2260   33.0200 N   0  0  0  0  0  0  0  0  0  0  0  0
   36.4200   26.0340   31.7730 H   0  0  0  0  0  0  0  0  0  0  0  0
   35.1070   23.8650   30.8180 H   0  0  0  0  0  0  0  0  0  0  0  0
   36.0870   21.4980   32.0060 C   0  0  0  0  0  0  0  0  0  0  0  0
   34.9090   20.8790   32.2220 C   0  0  0  0  0  0  0  0  0  0  0  0
   34.0680   21.4450   32.5990 H   0  0  0  0  0  0  0  0  0  0  0  0
   34.7740   19.5370   31.9690 C   0  0  0  0  0  3  0  0  0  0  0  0
   35.9340   18.8790   31.4770 C   0  0  0  0  0  3  0  0  0  0  0  0
   37.2400   20.2160   31.3800 S   0  0  0  0  0  0  0  0  0  0  0  0
   37.8610   25.6130   35.0860 C   0  0  0  0  0  0  0  0  0  0  0  0
   36.7610   25.4970   35.0730 H   0  0  0  0  0  0  0  0  0  0  0  0
   38.0650   26.6210   35.5110 H   0  0  0  0  0  0  0  0  0  0  0  0
   40.1940   23.1430   36.5750 C   0  0  0  0  0  0  0  0  0  0  0  0
   39.6150   22.9130   37.8270 C   0  0  0  0  0  0  0  0  0  0  0  0
   38.4400   23.6000   38.1460 C   0  0  0  0  0  0  0  0  0  0  0  0
   37.9000   24.4580   37.2490 N   0  0  0  0  0  0  0  0  0  0  0  0
   38.4980   24.6530   36.0400 C   0  0  0  0  0  0  0  0  0  0  0  0
   39.6150   23.9960   35.7430 N   0  0  0  0  0  0  0  0  0  0  0  0
   41.0970   22.6700   36.2240 H   0  0  0  0  0  0  0  0  0  0  0  0
   40.1100   22.2170   38.4710 H   0  0  0  0  0  0  0  0  0  0  0  0
   37.9970   23.4150   39.1180 H   0  0  0  0  0  0  0  0  0  0  0  0
  1 17  1  0  0  0  0
  2  1  1  0  0  0  0
  3  1  1  0  0  0  0
  4  8  2  0  0  0  0
  4  1  1  0  0  0  0
  5  4  1  0  0  0  0
  6  5  2  0  0  0  0
  6  7  1  0  0  0  0
  7  8  1  0  0  0  0
  9  5  1  0  0  0  0
 10  6  1  0  0  0  0
 11  7  1  0  0  0  0
 11 12  2  0  0  0  0
 12 13  1  0  0  0  0
 14 12  1  0  0  0  0
 15 14  2  0  0  0  0
 16 15  1  0  0  0  0
 16 11  1  0  0  0  0
 17 19  1  0  0  0  0
 17 24  1  0  0  0  0
 18 17  1  0  0  0  0
 20 21  1  0  0  0  0
 21 22  2  0  0  0  0
 21 27  1  0  0  0  0
 22 28  1  0  0  0  0
 23 22  1  0  0  0  0
 24 23  2  0  0  0  0
 25 24  1  0  0  0  0
 25 20  2  0  0  0  0
 26 20  1  0  0  0  0
M  END
>  <minimizedAffinity>
-4.60095978

$$$$

 OpenBabel03272501593D

 28 30  0  0  0  0  0  0  0  0999 V2000
   37.8340   26.2150   33.6310 C   0  0  0  0  0  0  0  0  0  0  0  0
   37.1700   25.3590   33.8450 H   0  0  0  0  0  0  0  0  0  0  0  0
   38.3280   26.1200   32.6460 H   0  0  0  0  0  0  0  0  0  0  0  0
   36.9950   27.4710   33.5890 C   0  0  0  0  0  0  0  0  0  0  0  0
   36.4220   28.0340   32.4590 C   0  0  0  0  0  0  0  0  0  0  0  0
   35.7300   29.1800   32.8320 C   0  0  0  0  0  0  0  0  0  0  0  0
   35.9060   29.2710   34.1650 N   0  0  0  0  0  0  0  0  0  0  0  0
   36.6470   28.2730   34.6200 N   0  0  0  0  0  0  0  0  0  0  0  0
   36.5280   27.6090   31.4650 H   0  0  0  0  0  0  0  0  0  0  0  0
   35.1760   29.8430   32.1860 H   0  0  0  0  0  0  0  0  0  0  0  0
   35.3800   30.2810   34.9690 C   0  0  0  0  0  0  0  0  0  0  0  0
   35.9990   31.1990   35.7380 C   0  0  0  0  0  0  0  0  0  0  0  0
   37.0800   31.2160   35.7880 H   0  0  0  0  0  0  0  0  0  0  0  0
   35.2660   32.1100   36.4560 C   0  0  0  0  0  3  0  0  0  0  0  0
   33.8540   32.0100   36.3260 C   0  0  0  0  0  3  0  0  0  0  0  0
   33.5800   30.5790   35.1510 S   0  0  0  0  0  0  0  0  0  0  0  0
   38.8730   26.4620   34.6700 C   0  0  0  0  0  0  0  0  0  0  0  0
   38.7240   27.4230   35.1970 H   0  0  0  0  0  0  0  0  0  0  0  0
   39.8920   26.5050   34.2230 H   0  0  0  0  0  0  0  0  0  0  0  0
   39.8380   23.2900   36.3340 C   0  0  0  0  0  0  0  0  0  0  0  0
   38.9570   23.2510   37.4200 C   0  0  0  0  0  0  0  0  0  0  0  0
   38.0490   24.3030   37.5700 C   0  0  0  0  0  0  0  0  0  0  0  0
   38.0440   25.3180   36.6750 N   0  0  0  0  0  0  0  0  0  0  0  0
   38.9200   25.3170   35.6310 C   0  0  0  0  0  0  0  0  0  0  0  0
   39.7810   24.3120   35.4940 N   0  0  0  0  0  0  0  0  0  0  0  0
   40.5770   22.5350   36.1210 H   0  0  0  0  0  0  0  0  0  0  0  0
   39.0320   22.4100   38.0760 H   0  0  0  0  0  0  0  0  0  0  0  0
   37.3700   24.2650   38.4140 H   0  0  0  0  0  0  0  0  0  0  0  0
  1  2  1  0  0  0  0
  1 17  1  0  0  0  0
  3  1  1  0  0  0  0
  4  1  1  0  0  0  0
  4  8  2  0  0  0  0
  5  6  2  0  0  0  0
  5  4  1  0  0  0  0
  6  7  1  0  0  0  0
  7  8  1  0  0  0  0
  7 11  1  0  0  0  0
  9  5  1  0  0  0  0
 10  6  1  0  0  0  0
 11 16  1  0  0  0  0
 11 12  2  0  0  0  0
 12 13  1  0  0  0  0
 12 14  1  0  0  0  0
 15 14  2  0  0  0  0
 16 15  1  0  0  0  0
 17 18  1  0  0  0  0
 17 24  1  0  0  0  0
 19 17  1  0  0  0  0
 20 21  1  0  0  0  0
 21 22  2  0  0  0  0
 21 27  1  0  0  0  0
 22 28  1  0  0  0  0
 23 22  1  0  0  0  0
 24 23  2  0  0  0  0
 25 24  1  0  0  0  0
 25 20  2  0  0  0  0
 26 20  1  0  0  0  0
M  END
>  <minimizedAffinity>
-4.59809685

$$$$

 OpenBabel03272501593D

 28 30  0  0  0  0  0  0  0  0999 V2000
   36.9460   23.8770   31.2820 C   0  0  0  0  0  0  0  0  0  0  0  0
   36.9420   24.7730   30.6360 H   0  0  0  0  0  0  0  0  0  0  0  0
   37.6520   23.1080   30.9180 H   0  0  0  0  0  0  0  0  0  0  0  0
   37.4040   24.2860   32.6630 C   0  0  0  0  0  0  0  0  0  0  0  0
   37.3510   25.5640   33.1960 C   0  0  0  0  0  0  0  0  0  0  0  0
   37.8640   25.5320   34.4870 C   0  0  0  0  0  0  0  0  0  0  0  0
   38.2080   24.2440   34.6890 N   0  0  0  0  0  0  0  0  0  0  0  0
   37.9420   23.5040   33.6250 N   0  0  0  0  0  0  0  0  0  0  0  0
   36.9610   26.4200   32.6510 H   0  0  0  0  0  0  0  0  0  0  0  0
   37.9610   26.3620   35.1680 H   0  0  0  0  0  0  0  0  0  0  0  0
   38.7700   23.7480   35.8640 C   0  0  0  0  0  0  0  0  0  0  0  0
   38.3500   23.8360   37.1410 C   0  0  0  0  0  0  0  0  0  0  0  0
   37.4330   24.3630   37.3680 H   0  0  0  0  0  0  0  0  0  0  0  0
   39.0790   23.2620   38.1520 C   0  0  0  0  0  3  0  0  0  0  0  0
   40.2680   22.5910   37.7560 C   0  0  0  0  0  3  0  0  0  0  0  0
   40.3360   22.7930   35.8970 S   0  0  0  0  0  0  0  0  0  0  0  0
   35.6070   23.2510   31.4730 C   0  0  0  0  0  0  0  0  0  0  0  0
   34.8650   23.6090   30.7360 H   0  0  0  0  0  0  0  0  0  0  0  0
   35.1890   23.4860   32.4780 H   0  0  0  0  0  0  0  0  0  0  0  0
   36.7860   19.8230   30.6870 C   0  0  0  0  0  0  0  0  0  0  0  0
   35.9000   19.0340   31.4280 C   0  0  0  0  0  0  0  0  0  0  0  0
   34.9160   19.6780   32.1830 C   0  0  0  0  0  0  0  0  0  0  0  0
   34.8450   21.0290   32.1790 N   0  0  0  0  0  0  0  0  0  0  0  0
   35.7280   21.7610   31.4430 C   0  0  0  0  0  0  0  0  0  0  0  0
   36.6620   21.1410   30.7260 N   0  0  0  0  0  0  0  0  0  0  0  0
   37.5800   19.4350   30.0710 H   0  0  0  0  0  0  0  0  0  0  0  0
   36.0300   17.9730   31.3710 H   0  0  0  0  0  0  0  0  0  0  0  0
   34.2340   19.0580   32.7540 H   0  0  0  0  0  0  0  0  0  0  0  0
  1 17  1  0  0  0  0
  1  4  1  0  0  0  0
  2  1  1  0  0  0  0
  3  1  1  0  0  0  0
  4  5  1  0  0  0  0
  4  8  2  0  0  0  0
  5  6  2  0  0  0  0
  6  7  1  0  0  0  0
  6 10  1  0  0  0  0
  7 11  1  0  0  0  0
  8  7  1  0  0  0  0
  9  5  1  0  0  0  0
 11 16  1  0  0  0  0
 11 12  2  0  0  0  0
 12 13  1  0  0  0  0
 12 14  1  0  0  0  0
 15 14  2  0  0  0  0
 16 15  1  0  0  0  0
 17 19  1  0  0  0  0
 18 17  1  0  0  0  0
 20 25  2  0  0  0  0
 20 21  1  0  0  0  0
 21 22  2  0  0  0  0
 22 28  1  0  0  0  0
 23 22  1  0  0  0  0
 24 17  1  0  0  0  0
 24 23  2  0  0  0  0
 25 24  1  0  0  0  0
 26 20  1  0  0  0  0
 27 21  1  0  0  0  0
M  END
>  <minimizedAffinity>
-4.59788084

$$$$

 OpenBabel03272501593D

 28 30  0  0  0  0  0  0  0  0999 V2000
   37.7680   26.3970   35.3640 C   0  0  0  0  0  0  0  0  0  0  0  0
   36.6640   26.3520   35.3650 H   0  0  0  0  0  0  0  0  0  0  0  0
   38.1470   27.2560   35.9490 H   0  0  0  0  0  0  0  0  0  0  0  0
   38.2990   25.1420   36.0180 C   0  0  0  0  0  0  0  0  0  0  0  0
   37.7030   24.4500   37.0610 C   0  0  0  0  0  0  0  0  0  0  0  0
   38.4960   23.3540   37.3800 C   0  0  0  0  0  0  0  0  0  0  0  0
   39.5360   23.4200   36.5250 N   0  0  0  0  0  0  0  0  0  0  0  0
   39.4300   24.4660   35.7210 N   0  0  0  0  0  0  0  0  0  0  0  0
   36.7670   24.7570   37.5200 H   0  0  0  0  0  0  0  0  0  0  0  0
   38.3080   22.6190   38.1460 H   0  0  0  0  0  0  0  0  0  0  0  0
   40.5900   22.5090   36.4860 C   0  0  0  0  0  0  0  0  0  0  0  0
   41.1650   21.7930   37.4730 C   0  0  0  0  0  0  0  0  0  0  0  0
   40.8010   21.8890   38.4860 H   0  0  0  0  0  0  0  0  0  0  0  0
   42.2090   20.9460   37.1960 C   0  0  0  0  0  3  0  0  0  0  0  0
   42.6170   20.8870   35.8360 C   0  0  0  0  0  3  0  0  0  0  0  0
   41.4790   22.0740   34.9420 S   0  0  0  0  0  0  0  0  0  0  0  0
   38.3800   26.4300   34.0050 C   0  0  0  0  0  0  0  0  0  0  0  0
   39.2330   25.7340   33.9100 H   0  0  0  0  0  0  0  0  0  0  0  0
   38.7740   27.4440   33.7620 H   0  0  0  0  0  0  0  0  0  0  0  0
   35.7360   26.9190   31.4500 C   0  0  0  0  0  0  0  0  0  0  0  0
   35.4460   25.6030   31.0750 C   0  0  0  0  0  0  0  0  0  0  0  0
   36.1530   24.5700   31.6960 C   0  0  0  0  0  0  0  0  0  0  0  0
   37.0870   24.8630   32.6310 N   0  0  0  0  0  0  0  0  0  0  0  0
   37.3380   26.1600   32.9660 C   0  0  0  0  0  0  0  0  0  0  0  0
   36.6610   27.1380   32.3720 N   0  0  0  0  0  0  0  0  0  0  0  0
   35.2540   27.7910   31.0380 H   0  0  0  0  0  0  0  0  0  0  0  0
   34.6920   25.4650   30.3290 H   0  0  0  0  0  0  0  0  0  0  0  0
   35.9220   23.5530   31.4000 H   0  0  0  0  0  0  0  0  0  0  0  0
  1  2  1  0  0  0  0
  1  3  1  0  0  0  0
  1  4  1  0  0  0  0
  4  5  1  0  0  0  0
  5  6  2  0  0  0  0
  5  9  1  0  0  0  0
  6 10  1  0  0  0  0
  7  6  1  0  0  0  0
  8  4  2  0  0  0  0
  8  7  1  0  0  0  0
 11  7  1  0  0  0  0
 11 12  2  0  0  0  0
 12 13  1  0  0  0  0
 14 12  1  0  0  0  0
 15 14  2  0  0  0  0
 16 15  1  0  0  0  0
 16 11  1  0  0  0  0
 17  1  1  0  0  0  0
 18 17  1  0  0  0  0
 19 17  1  0  0  0  0
 20 25  1  0  0  0  0
 21 20  2  0  0  0  0
 21 22  1  0  0  0  0
 22 23  2  0  0  0  0
 23 24  1  0  0  0  0
 24 17  1  0  0  0  0
 25 24  2  0  0  0  0
 26 20  1  0  0  0  0
 27 21  1  0  0  0  0
 28 22  1  0  0  0  0
M  END
>  <minimizedAffinity>
-4.58482218

$$$$

 OpenBabel03272501593D

 28 30  0  0  0  0  0  0  0  0999 V2000
   35.2710   25.6000   30.9660 C   0  0  0  0  0  0  0  0  0  0  0  0
   34.6780   25.6380   30.0350 H   0  0  0  0  0  0  0  0  0  0  0  0
   34.6360   25.6970   31.8660 H   0  0  0  0  0  0  0  0  0  0  0  0
   35.9540   24.2550   31.0440 C   0  0  0  0  0  0  0  0  0  0  0  0
   37.2790   23.9930   30.7310 C   0  0  0  0  0  0  0  0  0  0  0  0
   37.5260   22.6390   30.9300 C   0  0  0  0  0  0  0  0  0  0  0  0
   36.3510   22.1330   31.3550 N   0  0  0  0  0  0  0  0  0  0  0  0
   35.4220   23.0730   31.4250 N   0  0  0  0  0  0  0  0  0  0  0  0
   37.9720   24.7570   30.3880 H   0  0  0  0  0  0  0  0  0  0  0  0
   38.4580   22.1200   30.7760 H   0  0  0  0  0  0  0  0  0  0  0  0
   36.1330   20.7960   31.6800 C   0  0  0  0  0  0  0  0  0  0  0  0
   35.0230   20.1710   32.1200 C   0  0  0  0  0  0  0  0  0  0  0  0
   34.1130   20.7380   32.2690 H   0  0  0  0  0  0  0  0  0  0  0  0
   35.0420   18.8240   32.3810 C   0  0  0  0  0  3  0  0  0  0  0  0
   36.2810   18.1660   32.1550 C   0  0  0  0  0  3  0  0  0  0  0  0
   37.4370   19.5120   31.5600 S   0  0  0  0  0  0  0  0  0  0  0  0
   36.3660   26.6100   31.0380 C   0  0  0  0  0  0  0  0  0  0  0  0
   36.4480   27.2090   30.1130 H   0  0  0  0  0  0  0  0  0  0  0  0
   37.3570   26.1240   31.1870 H   0  0  0  0  0  0  0  0  0  0  0  0
   36.6420   28.0060   34.4640 C   0  0  0  0  0  0  0  0  0  0  0  0
   35.7980   29.1180   34.3940 C   0  0  0  0  0  0  0  0  0  0  0  0
   35.1470   29.3780   33.1850 C   0  0  0  0  0  0  0  0  0  0  0  0
   35.3470   28.5580   32.1270 N   0  0  0  0  0  0  0  0  0  0  0  0
   36.1790   27.4840   32.2380 C   0  0  0  0  0  0  0  0  0  0  0  0
   36.7940   27.2430   33.3920 N   0  0  0  0  0  0  0  0  0  0  0  0
   37.1920   27.7120   35.3430 H   0  0  0  0  0  0  0  0  0  0  0  0
   35.6990   29.7100   35.2810 H   0  0  0  0  0  0  0  0  0  0  0  0
   34.4940   30.2420   33.1390 H   0  0  0  0  0  0  0  0  0  0  0  0
  1 17  1  0  0  0  0
  1  4  1  0  0  0  0
  1  3  1  0  0  0  0
  2  1  1  0  0  0  0
  4  8  2  0  0  0  0
  5  6  2  0  0  0  0
  5  4  1  0  0  0  0
  6  7  1  0  0  0  0
  7  8  1  0  0  0  0
  7 11  1  0  0  0  0
  9  5  1  0  0  0  0
 10  6  1  0  0  0  0
 11 12  2  0  0  0  0
 12 13  1  0  0  0  0
 12 14  1  0  0  0  0
 15 14  2  0  0  0  0
 16 11  1  0  0  0  0
 16 15  1  0  0  0  0
 17 19  1  0  0  0  0
 17 24  1  0  0  0  0
 18 17  1  0  0  0  0
 20 26  1  0  0  0  0
 21 20  1  0  0  0  0
 21 27  1  0  0  0  0
 22 21  2  0  0  0  0
 23 24  2  0  0  0  0
 23 22  1  0  0  0  0
 24 25  1  0  0  0  0
 25 20  2  0  0  0  0
 28 22  1  0  0  0  0
M  END
>  <minimizedAffinity>
-4.52535057

$$$$

 OpenBabel03272501593D

 28 30  0  0  0  0  0  0  0  0999 V2000
   36.3200   28.5120   34.0150 C   0  0  0  0  0  0  0  0  0  0  0  0
   35.4320   28.5870   34.6670 H   0  0  0  0  0  0  0  0  0  0  0  0
   37.0800   29.2770   34.2610 H   0  0  0  0  0  0  0  0  0  0  0  0
   36.9590   27.1600   34.2330 C   0  0  0  0  0  0  0  0  0  0  0  0
   37.2530   26.2280   33.2490 C   0  0  0  0  0  0  0  0  0  0  0  0
   37.8340   25.1160   33.8470 C   0  0  0  0  0  0  0  0  0  0  0  0
   37.8720   25.4110   35.1620 N   0  0  0  0  0  0  0  0  0  0  0  0
   37.3610   26.6090   35.3990 N   0  0  0  0  0  0  0  0  0  0  0  0
   37.0420   26.3890   32.1950 H   0  0  0  0  0  0  0  0  0  0  0  0
   38.1760   24.2190   33.3560 H   0  0  0  0  0  0  0  0  0  0  0  0
   38.3810   24.5710   36.1500 C   0  0  0  0  0  0  0  0  0  0  0  0
   37.9480   24.3310   37.4040 C   0  0  0  0  0  0  0  0  0  0  0  0
   37.0660   24.8390   37.7720 H   0  0  0  0  0  0  0  0  0  0  0  0
   38.6200   23.4500   38.2130 C   0  0  0  0  0  3  0  0  0  0  0  0
   39.7660   22.8340   37.6420 C   0  0  0  0  0  3  0  0  0  0  0  0
   39.8770   23.5370   35.9110 S   0  0  0  0  0  0  0  0  0  0  0  0
   36.0180   28.5820   32.5570 C   0  0  0  0  0  0  0  0  0  0  0  0
   35.9340   27.5810   32.0950 H   0  0  0  0  0  0  0  0  0  0  0  0
   36.8220   29.1170   32.0010 H   0  0  0  0  0  0  0  0  0  0  0  0
   32.5160   29.7950   32.7060 C   0  0  0  0  0  0  0  0  0  0  0  0
   32.5590   30.9150   31.8690 C   0  0  0  0  0  0  0  0  0  0  0  0
   33.7770   31.2400   31.2660 C   0  0  0  0  0  0  0  0  0  0  0  0
   34.8690   30.4760   31.5040 N   0  0  0  0  0  0  0  0  0  0  0  0
   34.7820   29.3930   32.3270 C   0  0  0  0  0  0  0  0  0  0  0  0
   33.6200   29.0890   32.8970 N   0  0  0  0  0  0  0  0  0  0  0  0
   31.6330   29.4530   33.2210 H   0  0  0  0  0  0  0  0  0  0  0  0
   31.6480   31.4590   31.7380 H   0  0  0  0  0  0  0  0  0  0  0  0
   33.8020   32.1090   30.6190 H   0  0  0  0  0  0  0  0  0  0  0  0
  1  4  1  0  0  0  0
  1  3  1  0  0  0  0
  1  2  1  0  0  0  0
  4  8  2  0  0  0  0
  5  6  2  0  0  0  0
  5  4  1  0  0  0  0
  6  7  1  0  0  0  0
  7  8  1  0  0  0  0
  7 11  1  0  0  0  0
  9  5  1  0  0  0  0
 10  6  1  0  0  0  0
 11 12  2  0  0  0  0
 12 13  1  0  0  0  0
 12 14  1  0  0  0  0
 15 14  2  0  0  0  0
 16 11  1  0  0  0  0
 16 15  1  0  0  0  0
 17  1  1  0  0  0  0
 18 17  1  0  0  0  0
 19 17  1  0  0  0  0
 20 25  1  0  0  0  0
 20 26  1  0  0  0  0
 21 20  2  0  0  0  0
 22 23  2  0  0  0  0
 22 21  1  0  0  0  0
 23 24  1  0  0  0  0
 24 17  1  0  0  0  0
 24 25  2  0  0  0  0
 27 21  1  0  0  0  0
 28 22  1  0  0  0  0
M  END
>  <minimizedAffinity>
-4.52215004

$$$$

 OpenBabel03272501593D

 28 30  0  0  0  0  0  0  0  0999 V2000
   38.4100   22.3770   33.5410 C   0  0  0  0  0  0  0  0  0  0  0  0
   38.6510   21.6060   32.7880 H   0  0  0  0  0  0  0  0  0  0  0  0
   39.3200   22.8520   33.9530 H   0  0  0  0  0  0  0  0  0  0  0  0
   37.6030   23.4650   32.8700 C   0  0  0  0  0  0  0  0  0  0  0  0
   36.6420   23.2810   31.8880 C   0  0  0  0  0  0  0  0  0  0  0  0
   36.1280   24.5210   31.5280 C   0  0  0  0  0  0  0  0  0  0  0  0
   36.7910   25.4060   32.2990 N   0  0  0  0  0  0  0  0  0  0  0  0
   37.6590   24.7970   33.0910 N   0  0  0  0  0  0  0  0  0  0  0  0
   36.3720   22.3040   31.4960 H   0  0  0  0  0  0  0  0  0  0  0  0
   35.3660   24.7190   30.7910 H   0  0  0  0  0  0  0  0  0  0  0  0
   36.5940   26.7850   32.2730 C   0  0  0  0  0  0  0  0  0  0  0  0
   36.4530   27.6690   33.2810 C   0  0  0  0  0  0  0  0  0  0  0  0
   36.4890   27.3230   34.3050 H   0  0  0  0  0  0  0  0  0  0  0  0
   36.2650   29.0020   33.0140 C   0  0  0  0  0  3  0  0  0  0  0  0
   36.2320   29.3600   31.6390 C   0  0  0  0  0  3  0  0  0  0  0  0
   36.4760   27.7500   30.7170 S   0  0  0  0  0  0  0  0  0  0  0  0
   37.5660   21.8910   34.6700 C   0  0  0  0  0  0  0  0  0  0  0  0
   37.4620   20.7910   34.6750 H   0  0  0  0  0  0  0  0  0  0  0  0
   36.5330   22.3040   34.6110 H   0  0  0  0  0  0  0  0  0  0  0  0
   37.8030   23.4370   38.0330 C   0  0  0  0  0  0  0  0  0  0  0  0
   39.1620   23.2880   38.3270 C   0  0  0  0  0  0  0  0  0  0  0  0
   39.9780   22.6650   37.3780 C   0  0  0  0  0  0  0  0  0  0  0  0
   39.4400   22.2270   36.2160 N   0  0  0  0  0  0  0  0  0  0  0  0
   38.1100   22.3930   35.9700 C   0  0  0  0  0  0  0  0  0  0  0  0
   37.3400   22.9880   36.8770 N   0  0  0  0  0  0  0  0  0  0  0  0
   37.0850   23.9010   38.6890 H   0  0  0  0  0  0  0  0  0  0  0  0
   39.5000   23.6650   39.2700 H   0  0  0  0  0  0  0  0  0  0  0  0
   41.0300   22.5530   37.6140 H   0  0  0  0  0  0  0  0  0  0  0  0
  1  3  1  0  0  0  0
  1 17  1  0  0  0  0
  2  1  1  0  0  0  0
  4  8  2  0  0  0  0
  4  1  1  0  0  0  0
  5  4  1  0  0  0  0
  6  5  2  0  0  0  0
  6  7  1  0  0  0  0
  7  8  1  0  0  0  0
  9  5  1  0  0  0  0
 10  6  1  0  0  0  0
 11  7  1  0  0  0  0
 11 12  2  0  0  0  0
 12 13  1  0  0  0  0
 14 12  1  0  0  0  0
 15 14  2  0  0  0  0
 16 15  1  0  0  0  0
 16 11  1  0  0  0  0
 17 18  1  0  0  0  0
 17 24  1  0  0  0  0
 19 17  1  0  0  0  0
 20 21  1  0  0  0  0
 20 26  1  0  0  0  0
 21 27  1  0  0  0  0
 22 28  1  0  0  0  0
 22 21  2  0  0  0  0
 23 22  1  0  0  0  0
 24 23  2  0  0  0  0
 24 25  1  0  0  0  0
 25 20  2  0  0  0  0
M  END
>  <minimizedAffinity>
-4.51345825

$$$$
