
 OpenBabel03272510113D

 32 35  0  0  0  0  0  0  0  0999 V2000
   33.2640   28.3260   48.9490 C   0  0  0  0  0  0  0  0  0  0  0  0
   33.5290   28.9320   50.1280 C   0  0  0  0  0  0  0  0  0  0  0  0
   34.7590   29.4600   50.4830 C   0  0  0  0  0  0  0  0  0  0  0  0
   35.8040   29.3860   49.6130 C   0  0  0  0  0  0  0  0  0  0  0  0
   35.5370   28.7600   48.3890 C   0  0  0  0  0  0  0  0  0  0  0  0
   34.3210   28.2620   48.0940 N   0  0  0  0  0  0  0  0  0  0  0  0
   32.7610   29.0370   50.8830 H   0  0  0  0  0  0  0  0  0  0  0  0
   34.9700   29.9440   51.4260 H   0  0  0  0  0  0  0  0  0  0  0  0
   36.2870   28.6390   47.6100 H   0  0  0  0  0  0  0  0  0  0  0  0
   30.8470   27.8380   49.4080 C   0  0  0  0  0  0  0  0  0  0  0  0
   31.9870   27.7800   48.5880 C   0  0  0  0  0  0  0  0  0  0  0  0
   31.8350   27.1500   47.3600 C   0  0  0  0  0  0  0  0  0  0  0  0
   30.6350   26.6290   47.0040 N   0  0  0  0  0  0  0  0  0  0  0  0
   29.5690   26.7150   47.8380 C   0  0  0  0  0  0  0  0  0  0  0  0
   29.6690   27.3120   49.0280 N   0  0  0  0  0  0  0  0  0  0  0  0
   30.9290   28.3160   50.3610 H   0  0  0  0  0  0  0  0  0  0  0  0
   32.6920   27.0730   46.6730 H   0  0  0  0  0  0  0  0  0  0  0  0
   28.6340   26.2770   47.4910 H   0  0  0  0  0  0  0  0  0  0  0  0
   37.1060   29.8610   49.7970 O   0  0  0  0  0  0  0  0  0  0  0  0
   37.7000   30.7270   48.8940 C   0  0  0  0  0  0  0  0  0  0  0  0
   38.2080   31.8990   49.4690 C   0  0  0  0  0  0  0  0  0  0  0  0
   38.7740   32.6840   48.4870 C   0  0  0  0  0  0  0  0  0  0  0  0
   38.5960   31.9800   47.3620 N   0  0  0  0  0  0  0  0  0  0  0  0
   37.9740   30.8460   47.5890 N   0  0  0  0  0  0  0  0  0  0  0  0
   38.2430   32.2940   50.5000 H   0  0  0  0  0  0  0  0  0  0  0  0
   39.2650   33.6530   48.5290 H   0  0  0  0  0  0  0  0  0  0  0  0
   38.9760   32.2950   46.0060 C   0  0  0  0  0  0  0  0  0  0  0  0
   38.0200   32.3460   45.0310 C   0  0  0  0  0  0  0  0  0  0  0  0
   36.9550   32.1800   45.0990 H   0  0  0  0  0  0  0  0  0  0  0  0
   38.2350   32.6260   43.7410 C   0  0  0  0  0  3  0  0  0  0  0  0
   39.6300   32.8890   43.4100 C   0  0  0  0  0  3  0  0  0  0  0  0
   40.5380   32.6940   45.0980 S   0  0  0  0  0  0  0  0  0  0  0  0
  1  2  1  0  0  0  0
  2  3  2  0  0  0  0
  2  7  1  0  0  0  0
  3  8  1  0  0  0  0
  4 19  1  0  0  0  0
  4  3  1  0  0  0  0
  5  4  2  0  0  0  0
  6  5  1  0  0  0  0
  6  1  2  0  0  0  0
  9  5  1  0  0  0  0
 10 16  1  0  0  0  0
 11  1  1  0  0  0  0
 11 10  2  0  0  0  0
 12 11  1  0  0  0  0
 13 12  2  0  0  0  0
 13 14  1  0  0  0  0
 14 15  2  0  0  0  0
 15 10  1  0  0  0  0
 17 12  1  0  0  0  0
 18 14  1  0  0  0  0
 20 21  1  0  0  0  0
 20 19  1  0  0  0  0
 21 25  1  0  0  0  0
 22 26  1  0  0  0  0
 22 21  2  0  0  0  0
 23 24  1  0  0  0  0
 23 22  1  0  0  0  0
 24 20  2  0  0  0  0
 27 23  1  0  0  0  0
 28 29  1  0  0  0  0
 28 27  2  0  0  0  0
 30 28  1  0  0  0  0
 31 30  2  0  0  0  0
 31 32  1  0  0  0  0
 32 27  1  0  0  0  0
M  END
>  <minimizedAffinity>
-5.60994005

>  <minimizedRMSD>
1.65021479

$$$$
