
 OpenBabel03272509463D

 22 23  0  0  0  0  0  0  0  0999 V2000
   34.1200   28.4620   48.5620 C   0  0  0  0  0  0  0  0  0  0  0  0
   33.1900   29.0300   48.7550 H   0  0  0  0  0  0  0  0  0  0  0  0
   34.7460   29.0870   47.8930 H   0  0  0  0  0  0  0  0  0  0  0  0
   33.8410   27.1030   47.9680 C   0  0  0  0  0  0  0  0  0  0  0  0
   33.0370   26.6630   48.6270 H   0  0  0  0  0  0  0  0  0  0  0  0
   34.6900   26.4270   48.0130 H   0  0  0  0  0  0  0  0  0  0  0  0
   33.3340   27.2940   46.5830 C   0  0  0  0  0  0  0  0  0  0  0  0
   33.8260   26.9910   45.3570 C   0  0  0  0  0  0  0  0  0  0  0  0
   34.8080   26.5010   45.3790 H   0  0  0  0  0  0  0  0  0  0  0  0
   33.1350   27.2860   44.2370 C   0  0  0  0  0  3  0  0  0  0  0  0
   31.9190   27.9030   44.4120 C   0  0  0  0  0  3  0  0  0  0  0  0
   31.7860   28.0570   46.2970 S   0  0  0  0  0  0  0  0  0  0  0  0
   34.7290   28.3050   49.8420 O   0  0  0  0  0  0  0  0  0  0  0  0
   37.3700   30.2480   51.4020 C   0  0  0  0  0  0  0  0  0  0  0  0
   38.0670   30.6730   50.2740 C   0  0  0  0  0  0  0  0  0  0  0  0
   37.6010   30.2740   49.0270 C   0  0  0  0  0  0  0  0  0  0  0  0
   36.4770   29.4850   49.0060 N   0  0  0  0  0  0  0  0  0  0  0  0
   35.8300   29.0950   50.1240 C   0  0  0  0  0  0  0  0  0  0  0  0
   36.2940   29.4890   51.3180 N   0  0  0  0  0  0  0  0  0  0  0  0
   37.7520   30.5730   52.3750 H   0  0  0  0  0  0  0  0  0  0  0  0
   38.9500   31.2940   50.2820 H   0  0  0  0  0  0  0  0  0  0  0  0
   38.0890   30.5640   48.1080 H   0  0  0  0  0  0  0  0  0  0  0  0
  1  2  1  0  0  0  0
  1 13  1  0  0  0  0
  3  1  1  0  0  0  0
  4  6  1  0  0  0  0
  4  1  1  0  0  0  0
  4  5  1  0  0  0  0
  7  4  1  0  0  0  0
  8  9  1  0  0  0  0
  8  7  2  0  0  0  0
 10 11  2  0  0  0  0
 10  8  1  0  0  0  0
 11 12  1  0  0  0  0
 12  7  1  0  0  0  0
 13 18  1  0  0  0  0
 14 20  1  0  0  0  0
 15 21  1  0  0  0  0
 15 14  2  0  0  0  0
 16 15  1  0  0  0  0
 17 16  2  0  0  0  0
 17 18  1  0  0  0  0
 18 19  2  0  0  0  0
 19 14  1  0  0  0  0
 22 16  1  0  0  0  0
M  END
>  <minimizedAffinity>
-3.65257907

>  <minimizedRMSD>
0.134100541

$$$$
