
 OpenBabel03272500473D

 29 32  0  0  1  0  0  0  0  0999 V2000
   37.6040   27.6480   31.3350 C   0  0  0  0  0  0  0  0  0  0  0  0
   36.6840   26.6200   31.4270 C   0  0  0  0  0  0  0  0  0  0  0  0
   36.9270   25.9400   32.6310 C   0  0  0  0  0  0  0  0  0  0  0  0
   37.9600   26.5620   33.2150 N   0  0  0  0  0  0  0  0  0  0  0  0
   38.3340   27.5570   32.4330 N   0  0  0  0  0  0  0  0  0  0  0  0
   35.8770   26.2870   30.7730 H   0  0  0  0  0  0  0  0  0  0  0  0
   36.4140   25.0810   33.0520 H   0  0  0  0  0  0  0  0  0  0  0  0
   38.3590   28.2670   29.0280 C   0  0  0  0  0  0  0  0  0  0  0  0
   37.6580   28.5640   30.2250 C   0  0  0  0  0  0  0  0  0  0  0  0
   37.0180   29.7870   30.2860 C   0  0  0  0  0  0  0  0  0  0  0  0
   37.0910   30.6280   29.2150 N   0  0  0  0  0  0  0  0  0  0  0  0
   37.7650   30.3040   28.1020 C   0  0  0  0  0  0  0  0  0  0  0  0
   38.4090   29.1190   27.9960 N   0  0  0  0  0  0  0  0  0  0  0  0
   38.8570   27.2920   29.0050 H   0  0  0  0  0  0  0  0  0  0  0  0
   36.4580   30.0880   31.1730 H   0  0  0  0  0  0  0  0  0  0  0  0
   37.7520   31.0530   27.3200 H   0  0  0  0  0  0  0  0  0  0  0  0
   38.5630   26.2090   34.4800 C   0  0  1  0  0  0  0  0  0  0  0  0
   38.2630   27.1450   35.6800 C   0  0  0  0  0  0  0  0  0  0  0  0
   37.7210   25.7500   35.5950 C   0  0  2  0  0  0  0  0  0  0  0  0
   39.5940   25.8480   34.4090 H   0  0  0  0  0  0  0  0  0  0  0  0
   39.1210   27.3370   36.3540 H   0  0  0  0  0  0  0  0  0  0  0  0
   37.5410   27.9470   35.4590 H   0  0  0  0  0  0  0  0  0  0  0  0
   36.6300   25.6170   35.5030 H   0  0  0  0  0  0  0  0  0  0  0  0
   38.3470   24.7120   36.5020 C   0  0  0  0  0  0  0  0  0  0  0  0
   38.0600   24.3340   37.8680 C   0  0  0  0  0  0  0  0  0  0  0  0
   37.2680   24.8570   38.3660 H   0  0  0  0  0  0  0  0  0  0  0  0
   38.8600   23.3360   38.3440 C   0  0  0  0  0  3  0  0  0  0  0  0
   39.8640   22.7010   37.6570 C   0  0  0  0  0  3  0  0  0  0  0  0
   39.7330   23.6310   35.9800 S   0  0  0  0  0  0  0  0  0  0  0  0
  1  2  1  0  0  0  0
  1  5  2  0  0  0  0
  2  3  2  0  0  0  0
  3  7  1  0  0  0  0
  3  4  1  0  0  0  0
  4 17  1  0  0  0  0
  5  4  1  0  0  0  0
  6  2  1  0  0  0  0
  8  9  1  0  0  0  0
  9 10  2  0  0  0  0
  9  1  1  0  0  0  0
 10 15  1  0  0  0  0
 11 10  1  0  0  0  0
 12 11  2  0  0  0  0
 13 12  1  0  0  0  0
 13  8  2  0  0  0  0
 14  8  1  0  0  0  0
 16 12  1  0  0  0  0
 17 20  1  6  0  0  0
 17 19  1  0  0  0  0
 17 18  1  0  0  0  0
 18 21  1  0  0  0  0
 19 23  1  6  0  0  0
 19 18  1  0  0  0  0
 19 24  1  0  0  0  0
 22 18  1  0  0  0  0
 24 25  2  0  0  0  0
 25 27  1  0  0  0  0
 25 26  1  0  0  0  0
 28 27  2  0  0  0  0
 29 24  1  0  0  0  0
 29 28  1  0  0  0  0
M  END
>  <minimizedAffinity>
-4.97219801

$$$$

 OpenBabel03272500473D

 29 32  0  0  1  0  0  0  0  0999 V2000
   39.6580   23.2900   36.4270 C   0  0  0  0  0  0  0  0  0  0  0  0
   38.7030   23.2920   37.4280 C   0  0  0  0  0  0  0  0  0  0  0  0
   37.8200   24.3530   37.1700 C   0  0  0  0  0  0  0  0  0  0  0  0
   38.2570   24.9440   36.0500 N   0  0  0  0  0  0  0  0  0  0  0  0
   39.3330   24.3000   35.6390 N   0  0  0  0  0  0  0  0  0  0  0  0
   38.5450   22.6590   38.3020 H   0  0  0  0  0  0  0  0  0  0  0  0
   36.9480   24.6730   37.7290 H   0  0  0  0  0  0  0  0  0  0  0  0
   41.3480   21.9630   35.1380 C   0  0  0  0  0  0  0  0  0  0  0  0
   40.7340   22.3350   36.3620 C   0  0  0  0  0  0  0  0  0  0  0  0
   41.2160   21.7350   37.5100 C   0  0  0  0  0  0  0  0  0  0  0  0
   42.2360   20.8350   37.4100 N   0  0  0  0  0  0  0  0  0  0  0  0
   42.7870   20.5150   36.2300 C   0  0  0  0  0  0  0  0  0  0  0  0
   42.3480   21.0750   35.0790 N   0  0  0  0  0  0  0  0  0  0  0  0
   40.9470   22.4530   34.2450 H   0  0  0  0  0  0  0  0  0  0  0  0
   40.7950   21.9690   38.4890 H   0  0  0  0  0  0  0  0  0  0  0  0
   43.5900   19.7880   36.2770 H   0  0  0  0  0  0  0  0  0  0  0  0
   37.6580   26.0880   35.4010 C   0  0  1  0  0  0  0  0  0  0  0  0
   38.2760   27.4740   35.7210 C   0  0  0  0  0  0  0  0  0  0  0  0
   38.4060   26.8290   34.3740 C   0  0  2  0  0  0  0  0  0  0  0  0
   36.5650   26.0600   35.3450 H   0  0  0  0  0  0  0  0  0  0  0  0
   37.5470   28.2990   35.8420 H   0  0  0  0  0  0  0  0  0  0  0  0
   39.1770   27.4320   36.3540 H   0  0  0  0  0  0  0  0  0  0  0  0
   39.4100   26.5260   34.0330 H   0  0  0  0  0  0  0  0  0  0  0  0
   37.5740   27.4090   33.2510 C   0  0  0  0  0  0  0  0  0  0  0  0
   36.3650   28.2010   33.2630 C   0  0  0  0  0  0  0  0  0  0  0  0
   35.9480   28.4460   34.2190 H   0  0  0  0  0  0  0  0  0  0  0  0
   35.9120   28.5360   32.0200 C   0  0  0  0  0  3  0  0  0  0  0  0
   36.4910   28.1930   30.8230 C   0  0  0  0  0  3  0  0  0  0  0  0
   37.9930   27.1880   31.4790 S   0  0  0  0  0  0  0  0  0  0  0  0
  1  2  1  0  0  0  0
  2  6  1  0  0  0  0
  3  2  2  0  0  0  0
  3  7  1  0  0  0  0
  4  3  1  0  0  0  0
  5  4  1  0  0  0  0
  5  1  2  0  0  0  0
  8  9  1  0  0  0  0
  9  1  1  0  0  0  0
  9 10  2  0  0  0  0
 10 15  1  0  0  0  0
 11 10  1  0  0  0  0
 12 16  1  0  0  0  0
 12 11  2  0  0  0  0
 13  8  2  0  0  0  0
 13 12  1  0  0  0  0
 14  8  1  0  0  0  0
 17 20  1  6  0  0  0
 17 18  1  0  0  0  0
 17  4  1  0  0  0  0
 18 21  1  0  0  0  0
 18 22  1  0  0  0  0
 19 23  1  6  0  0  0
 19 17  1  0  0  0  0
 19 18  1  0  0  0  0
 24 25  2  0  0  0  0
 24 19  1  0  0  0  0
 25 26  1  0  0  0  0
 27 25  1  0  0  0  0
 28 29  1  0  0  0  0
 28 27  2  0  0  0  0
 29 24  1  0  0  0  0
M  END
>  <minimizedAffinity>
-4.96947289

$$$$

 OpenBabel03272500473D

 29 32  0  0  1  0  0  0  0  0999 V2000
   35.4340   30.0390   33.8410 C   0  0  0  0  0  0  0  0  0  0  0  0
   35.7510   30.7010   32.6680 C   0  0  0  0  0  0  0  0  0  0  0  0
   36.2900   29.7570   31.7800 C   0  0  0  0  0  0  0  0  0  0  0  0
   36.2830   28.5830   32.4270 N   0  0  0  0  0  0  0  0  0  0  0  0
   35.7760   28.7800   33.6290 N   0  0  0  0  0  0  0  0  0  0  0  0
   35.6560   31.7420   32.3560 H   0  0  0  0  0  0  0  0  0  0  0  0
   36.6540   29.8930   30.7670 H   0  0  0  0  0  0  0  0  0  0  0  0
   35.6200   31.4960   35.8700 C   0  0  0  0  0  0  0  0  0  0  0  0
   34.8550   30.6930   34.9860 C   0  0  0  0  0  0  0  0  0  0  0  0
   33.5100   30.5590   35.2700 C   0  0  0  0  0  0  0  0  0  0  0  0
   32.9970   31.1930   36.3630 N   0  0  0  0  0  0  0  0  0  0  0  0
   33.7590   31.9440   37.1720 C   0  0  0  0  0  0  0  0  0  0  0  0
   35.0810   32.1030   36.9340 N   0  0  0  0  0  0  0  0  0  0  0  0
   36.6830   31.5860   35.6210 H   0  0  0  0  0  0  0  0  0  0  0  0
   32.8560   29.9570   34.6380 H   0  0  0  0  0  0  0  0  0  0  0  0
   33.2390   32.3970   38.0070 H   0  0  0  0  0  0  0  0  0  0  0  0
   36.7480   27.3190   31.9030 C   0  0  1  0  0  0  0  0  0  0  0  0
   38.2120   26.9250   32.2290 C   0  0  0  0  0  0  0  0  0  0  0  0
   37.0360   26.2040   32.8160 C   0  0  2  0  0  0  0  0  0  0  0  0
   36.4150   27.0980   30.8830 H   0  0  0  0  0  0  0  0  0  0  0  0
   38.7660   26.4420   31.4010 H   0  0  0  0  0  0  0  0  0  0  0  0
   38.7270   27.6220   32.9090 H   0  0  0  0  0  0  0  0  0  0  0  0
   36.8740   26.2670   33.9050 H   0  0  0  0  0  0  0  0  0  0  0  0
   36.7370   24.8220   32.2760 C   0  0  0  0  0  0  0  0  0  0  0  0
   35.6830   24.3370   31.4130 C   0  0  0  0  0  0  0  0  0  0  0  0
   34.9630   25.0510   31.0690 H   0  0  0  0  0  0  0  0  0  0  0  0
   35.7570   23.0000   31.1490 C   0  0  0  0  0  3  0  0  0  0  0  0
   36.7080   22.1290   31.6200 C   0  0  0  0  0  3  0  0  0  0  0  0
   37.7650   23.3520   32.6610 S   0  0  0  0  0  0  0  0  0  0  0  0
  1  9  1  0  0  0  0
  2  1  1  0  0  0  0
  3  4  1  0  0  0  0
  3  2  2  0  0  0  0
  4  5  1  0  0  0  0
  5  1  2  0  0  0  0
  6  2  1  0  0  0  0
  7  3  1  0  0  0  0
  8 13  1  0  0  0  0
  9 10  1  0  0  0  0
  9  8  2  0  0  0  0
 10 11  2  0  0  0  0
 11 12  1  0  0  0  0
 12 16  1  0  0  0  0
 13 12  2  0  0  0  0
 14  8  1  0  0  0  0
 15 10  1  0  0  0  0
 17 20  1  6  0  0  0
 17 18  1  0  0  0  0
 17  4  1  0  0  0  0
 17 19  1  0  0  0  0
 18 19  1  0  0  0  0
 18 22  1  0  0  0  0
 19 23  1  1  0  0  0
 21 18  1  0  0  0  0
 24 29  1  0  0  0  0
 24 19  1  0  0  0  0
 25 24  2  0  0  0  0
 26 25  1  0  0  0  0
 27 25  1  0  0  0  0
 27 28  2  0  0  0  0
 28 29  1  0  0  0  0
M  END
>  <minimizedAffinity>
-4.78044224

$$$$

 OpenBabel03272500473D

 29 32  0  0  1  0  0  0  0  0999 V2000
   35.5100   29.0390   33.7490 C   0  0  0  0  0  0  0  0  0  0  0  0
   35.8570   28.6720   32.4610 C   0  0  0  0  0  0  0  0  0  0  0  0
   36.8490   27.6830   32.5540 C   0  0  0  0  0  0  0  0  0  0  0  0
   37.0660   27.4880   33.8620 N   0  0  0  0  0  0  0  0  0  0  0  0
   36.2680   28.2950   34.5350 N   0  0  0  0  0  0  0  0  0  0  0  0
   35.5130   29.0000   31.4790 H   0  0  0  0  0  0  0  0  0  0  0  0
   37.3680   27.1520   31.7630 H   0  0  0  0  0  0  0  0  0  0  0  0
   33.1710   29.7020   34.3510 C   0  0  0  0  0  0  0  0  0  0  0  0
   34.5150   30.0370   34.0450 C   0  0  0  0  0  0  0  0  0  0  0  0
   34.8380   31.3800   34.0430 C   0  0  0  0  0  0  0  0  0  0  0  0
   33.8690   32.2960   34.3290 N   0  0  0  0  0  0  0  0  0  0  0  0
   32.6100   31.9330   34.6130 C   0  0  0  0  0  0  0  0  0  0  0  0
   32.2460   30.6300   34.6260 N   0  0  0  0  0  0  0  0  0  0  0  0
   32.9410   28.6310   34.3460 H   0  0  0  0  0  0  0  0  0  0  0  0
   35.8510   31.7170   33.8170 H   0  0  0  0  0  0  0  0  0  0  0  0
   31.9300   32.7500   34.8230 H   0  0  0  0  0  0  0  0  0  0  0  0
   38.0080   26.5560   34.4400 C   0  0  1  0  0  0  0  0  0  0  0  0
   39.2810   27.1630   35.0850 C   0  0  0  0  0  0  0  0  0  0  0  0
   38.2020   26.5120   35.8960 C   0  0  2  0  0  0  0  0  0  0  0  0
   38.1640   25.6440   33.8550 H   0  0  0  0  0  0  0  0  0  0  0  0
   40.2160   26.5980   34.9030 H   0  0  0  0  0  0  0  0  0  0  0  0
   39.2930   28.2640   35.1120 H   0  0  0  0  0  0  0  0  0  0  0  0
   37.6210   27.1380   36.5940 H   0  0  0  0  0  0  0  0  0  0  0  0
   38.5040   25.1460   36.4740 C   0  0  0  0  0  0  0  0  0  0  0  0
   38.0500   24.4940   37.6830 C   0  0  0  0  0  0  0  0  0  0  0  0
   37.3760   25.0400   38.3120 H   0  0  0  0  0  0  0  0  0  0  0  0
   38.5580   23.2390   37.8570 C   0  0  0  0  0  3  0  0  0  0  0  0
   39.4220   22.5870   37.0130 C   0  0  0  0  0  3  0  0  0  0  0  0
   39.6220   23.9400   35.6620 S   0  0  0  0  0  0  0  0  0  0  0  0
  1  9  1  0  0  0  0
  1  5  2  0  0  0  0
  2  3  2  0  0  0  0
  2  1  1  0  0  0  0
  3  4  1  0  0  0  0
  4 17  1  0  0  0  0
  4  5  1  0  0  0  0
  6  2  1  0  0  0  0
  7  3  1  0  0  0  0
  8 13  1  0  0  0  0
  9  8  2  0  0  0  0
 10  9  1  0  0  0  0
 10 11  2  0  0  0  0
 11 12  1  0  0  0  0
 12 13  2  0  0  0  0
 12 16  1  0  0  0  0
 14  8  1  0  0  0  0
 15 10  1  0  0  0  0
 17 20  1  6  0  0  0
 17 18  1  0  0  0  0
 17 19  1  0  0  0  0
 18 22  1  0  0  0  0
 18 19  1  0  0  0  0
 19 24  1  0  0  0  0
 19 23  1  1  0  0  0
 21 18  1  0  0  0  0
 24 25  2  0  0  0  0
 25 27  1  0  0  0  0
 25 26  1  0  0  0  0
 28 27  2  0  0  0  0
 29 24  1  0  0  0  0
 29 28  1  0  0  0  0
M  END
>  <minimizedAffinity>
-4.75298166

$$$$

 OpenBabel03272500473D

 29 32  0  0  1  0  0  0  0  0999 V2000
   37.1560   27.3650   34.4650 C   0  0  0  0  0  0  0  0  0  0  0  0
   37.8470   27.8160   35.5760 C   0  0  0  0  0  0  0  0  0  0  0  0
   38.4940   26.7090   36.1500 C   0  0  0  0  0  0  0  0  0  0  0  0
   38.1820   25.6520   35.3880 N   0  0  0  0  0  0  0  0  0  0  0  0
   37.3990   26.0670   34.4100 N   0  0  0  0  0  0  0  0  0  0  0  0
   37.9560   28.8010   36.0310 H   0  0  0  0  0  0  0  0  0  0  0  0
   39.1280   26.6630   37.0290 H   0  0  0  0  0  0  0  0  0  0  0  0
   35.4580   29.1790   34.1440 C   0  0  0  0  0  0  0  0  0  0  0  0
   36.3710   28.2270   33.6200 C   0  0  0  0  0  0  0  0  0  0  0  0
   36.4790   28.1570   32.2440 C   0  0  0  0  0  0  0  0  0  0  0  0
   35.7190   28.9890   31.4760 N   0  0  0  0  0  0  0  0  0  0  0  0
   34.8690   29.8750   32.0160 C   0  0  0  0  0  0  0  0  0  0  0  0
   34.7280   29.9790   33.3570 N   0  0  0  0  0  0  0  0  0  0  0  0
   35.3920   29.2140   35.2360 H   0  0  0  0  0  0  0  0  0  0  0  0
   37.1590   27.4500   31.7660 H   0  0  0  0  0  0  0  0  0  0  0  0
   34.3200   30.4810   31.3040 H   0  0  0  0  0  0  0  0  0  0  0  0
   38.6240   24.2920   35.5970 C   0  0  1  0  0  0  0  0  0  0  0  0
   38.6540   23.3700   34.3500 C   0  0  0  0  0  0  0  0  0  0  0  0
   39.9040   23.8380   35.0330 C   0  0  2  0  0  0  0  0  0  0  0  0
   38.2550   23.8290   36.5180 H   0  0  0  0  0  0  0  0  0  0  0  0
   38.3160   22.3300   34.5240 H   0  0  0  0  0  0  0  0  0  0  0  0
   38.4130   23.8810   33.4040 H   0  0  0  0  0  0  0  0  0  0  0  0
   40.5830   24.5080   34.4800 H   0  0  0  0  0  0  0  0  0  0  0  0
   40.6580   22.8190   35.8600 C   0  0  0  0  0  0  0  0  0  0  0  0
   40.5260   22.4200   37.2440 C   0  0  0  0  0  0  0  0  0  0  0  0
   39.7690   22.9070   37.8260 H   0  0  0  0  0  0  0  0  0  0  0  0
   41.4080   21.4510   37.6260 C   0  0  0  0  0  3  0  0  0  0  0  0
   42.3610   20.8610   36.8330 C   0  0  0  0  0  3  0  0  0  0  0  0
   42.0250   21.7980   35.1880 S   0  0  0  0  0  0  0  0  0  0  0  0
  1  2  1  0  0  0  0
  2  6  1  0  0  0  0
  2  3  2  0  0  0  0
  3  7  1  0  0  0  0
  4 17  1  0  0  0  0
  4  3  1  0  0  0  0
  5  1  2  0  0  0  0
  5  4  1  0  0  0  0
  8 14  1  0  0  0  0
  9  8  1  0  0  0  0
  9  1  1  0  0  0  0
 10  9  2  0  0  0  0
 11 12  2  0  0  0  0
 11 10  1  0  0  0  0
 12 13  1  0  0  0  0
 13  8  2  0  0  0  0
 15 10  1  0  0  0  0
 16 12  1  0  0  0  0
 17 20  1  1  0  0  0
 18 21  1  0  0  0  0
 18 19  1  0  0  0  0
 18 17  1  0  0  0  0
 19 23  1  6  0  0  0
 19 17  1  0  0  0  0
 19 24  1  0  0  0  0
 22 18  1  0  0  0  0
 24 25  2  0  0  0  0
 25 27  1  0  0  0  0
 25 26  1  0  0  0  0
 28 27  2  0  0  0  0
 29 24  1  0  0  0  0
 29 28  1  0  0  0  0
M  END
>  <minimizedAffinity>
-4.66132355

$$$$

 OpenBabel03272500473D

 29 32  0  0  1  0  0  0  0  0999 V2000
   37.6540   25.7180   34.4700 C   0  0  0  0  0  0  0  0  0  0  0  0
   37.3860   25.4380   33.1420 C   0  0  0  0  0  0  0  0  0  0  0  0
   36.8200   26.5890   32.5720 C   0  0  0  0  0  0  0  0  0  0  0  0
   36.7660   27.5060   33.5470 N   0  0  0  0  0  0  0  0  0  0  0  0
   37.2610   26.9680   34.6450 N   0  0  0  0  0  0  0  0  0  0  0  0
   37.5310   24.5470   32.5300 H   0  0  0  0  0  0  0  0  0  0  0  0
   36.4800   26.7570   31.5560 H   0  0  0  0  0  0  0  0  0  0  0  0
   37.9120   24.7230   36.7550 C   0  0  0  0  0  0  0  0  0  0  0  0
   38.2430   24.7650   35.3760 C   0  0  0  0  0  0  0  0  0  0  0  0
   39.1680   23.8420   34.9280 C   0  0  0  0  0  0  0  0  0  0  0  0
   39.7040   22.9560   35.8150 N   0  0  0  0  0  0  0  0  0  0  0  0
   39.3600   22.9520   37.1110 C   0  0  0  0  0  0  0  0  0  0  0  0
   38.4600   23.8380   37.5970 N   0  0  0  0  0  0  0  0  0  0  0  0
   37.1770   25.4650   37.0840 H   0  0  0  0  0  0  0  0  0  0  0  0
   39.4740   23.8120   33.8810 H   0  0  0  0  0  0  0  0  0  0  0  0
   39.8530   22.2010   37.7170 H   0  0  0  0  0  0  0  0  0  0  0  0
   36.2550   28.8530   33.4230 C   0  0  1  0  0  0  0  0  0  0  0  0
   34.7180   29.0050   33.2810 C   0  0  0  0  0  0  0  0  0  0  0  0
   35.4580   29.4420   34.5090 C   0  0  2  0  0  0  0  0  0  0  0  0
   36.8550   29.5110   32.7870 H   0  0  0  0  0  0  0  0  0  0  0  0
   34.3850   29.7790   32.5630 H   0  0  0  0  0  0  0  0  0  0  0  0
   34.1600   28.0600   33.3780 H   0  0  0  0  0  0  0  0  0  0  0  0
   35.2590   28.9140   35.4570 H   0  0  0  0  0  0  0  0  0  0  0  0
   35.6320   30.9310   34.7140 C   0  0  0  0  0  0  0  0  0  0  0  0
   36.0360   31.7000   35.8710 C   0  0  0  0  0  0  0  0  0  0  0  0
   36.2630   31.1570   36.7660 H   0  0  0  0  0  0  0  0  0  0  0  0
   36.0730   33.0470   35.6530 C   0  0  0  0  0  3  0  0  0  0  0  0
   35.7700   33.6890   34.4790 C   0  0  0  0  0  3  0  0  0  0  0  0
   35.3290   32.1660   33.3920 S   0  0  0  0  0  0  0  0  0  0  0  0
  1  5  2  0  0  0  0
  1  9  1  0  0  0  0
  2  1  1  0  0  0  0
  3  2  2  0  0  0  0
  3  4  1  0  0  0  0
  4  5  1  0  0  0  0
  6  2  1  0  0  0  0
  7  3  1  0  0  0  0
  8 14  1  0  0  0  0
  8 13  1  0  0  0  0
  9  8  2  0  0  0  0
 10  9  1  0  0  0  0
 10 11  2  0  0  0  0
 11 12  1  0  0  0  0
 12 13  2  0  0  0  0
 12 16  1  0  0  0  0
 15 10  1  0  0  0  0
 17 20  1  6  0  0  0
 17  4  1  0  0  0  0
 17 19  1  0  0  0  0
 18 22  1  0  0  0  0
 18 17  1  0  0  0  0
 18 19  1  0  0  0  0
 19 24  1  0  0  0  0
 19 23  1  1  0  0  0
 21 18  1  0  0  0  0
 24 25  2  0  0  0  0
 25 26  1  0  0  0  0
 27 25  1  0  0  0  0
 28 27  2  0  0  0  0
 29 28  1  0  0  0  0
 29 24  1  0  0  0  0
M  END
>  <minimizedAffinity>
-4.65527916

$$$$

 OpenBabel03272500473D

 29 32  0  0  1  0  0  0  0  0999 V2000
   36.8310   27.4800   33.7210 C   0  0  0  0  0  0  0  0  0  0  0  0
   36.8970   26.4170   32.8370 C   0  0  0  0  0  0  0  0  0  0  0  0
   37.6180   25.3880   33.4640 C   0  0  0  0  0  0  0  0  0  0  0  0
   37.9570   25.8490   34.6760 N   0  0  0  0  0  0  0  0  0  0  0  0
   37.4820   27.0740   34.7970 N   0  0  0  0  0  0  0  0  0  0  0  0
   36.5140   26.2690   31.8270 H   0  0  0  0  0  0  0  0  0  0  0  0
   37.8770   24.4030   33.0910 H   0  0  0  0  0  0  0  0  0  0  0  0
   35.6110   29.5500   34.4270 C   0  0  0  0  0  0  0  0  0  0  0  0
   36.1630   28.7190   33.4180 C   0  0  0  0  0  0  0  0  0  0  0  0
   36.0320   29.1500   32.1120 C   0  0  0  0  0  0  0  0  0  0  0  0
   35.3930   30.3290   31.8640 N   0  0  0  0  0  0  0  0  0  0  0  0
   34.8860   31.0840   32.8510 C   0  0  0  0  0  0  0  0  0  0  0  0
   34.9890   30.7020   34.1440 N   0  0  0  0  0  0  0  0  0  0  0  0
   35.7280   29.1850   35.4520 H   0  0  0  0  0  0  0  0  0  0  0  0
   36.4300   28.5660   31.2810 H   0  0  0  0  0  0  0  0  0  0  0  0
   34.4010   31.9980   32.5300 H   0  0  0  0  0  0  0  0  0  0  0  0
   38.7110   25.1320   35.6800 C   0  0  1  0  0  0  0  0  0  0  0  0
   37.9260   24.6460   36.9270 C   0  0  0  0  0  0  0  0  0  0  0  0
   38.4690   23.6990   35.9000 C   0  0  2  0  0  0  0  0  0  0  0  0
   39.7070   25.5400   35.8790 H   0  0  0  0  0  0  0  0  0  0  0  0
   38.4630   24.7440   37.8900 H   0  0  0  0  0  0  0  0  0  0  0  0
   36.8400   24.8260   36.8750 H   0  0  0  0  0  0  0  0  0  0  0  0
   37.7550   23.1150   35.2950 H   0  0  0  0  0  0  0  0  0  0  0  0
   39.6830   22.8840   36.2900 C   0  0  0  0  0  0  0  0  0  0  0  0
   40.2000   22.4900   37.5830 C   0  0  0  0  0  0  0  0  0  0  0  0
   39.6550   22.8130   38.4480 H   0  0  0  0  0  0  0  0  0  0  0  0
   41.3400   21.7430   37.5180 C   0  0  0  0  0  3  0  0  0  0  0  0
   41.9960   21.3590   36.3750 C   0  0  0  0  0  3  0  0  0  0  0  0
   40.8460   22.1700   35.0650 S   0  0  0  0  0  0  0  0  0  0  0  0
  1  5  2  0  0  0  0
  2  3  2  0  0  0  0
  2  1  1  0  0  0  0
  3  4  1  0  0  0  0
  4  5  1  0  0  0  0
  4 17  1  0  0  0  0
  6  2  1  0  0  0  0
  7  3  1  0  0  0  0
  8 14  1  0  0  0  0
  9  1  1  0  0  0  0
  9  8  2  0  0  0  0
 10  9  1  0  0  0  0
 11 10  2  0  0  0  0
 11 12  1  0  0  0  0
 12 13  2  0  0  0  0
 13  8  1  0  0  0  0
 15 10  1  0  0  0  0
 16 12  1  0  0  0  0
 17 20  1  1  0  0  0
 17 19  1  0  0  0  0
 17 18  1  0  0  0  0
 18 21  1  0  0  0  0
 19 23  1  6  0  0  0
 19 24  1  0  0  0  0
 19 18  1  0  0  0  0
 22 18  1  0  0  0  0
 24 25  2  0  0  0  0
 25 26  1  0  0  0  0
 27 25  1  0  0  0  0
 28 27  2  0  0  0  0
 29 24  1  0  0  0  0
 29 28  1  0  0  0  0
M  END
>  <minimizedAffinity>
-4.62297726

$$$$

 OpenBabel03272500473D

 29 32  0  0  1  0  0  0  0  0999 V2000
   38.3310   25.5860   35.1610 C   0  0  0  0  0  0  0  0  0  0  0  0
   37.7650   26.7540   35.6380 C   0  0  0  0  0  0  0  0  0  0  0  0
   37.3300   27.4990   34.5300 C   0  0  0  0  0  0  0  0  0  0  0  0
   37.6380   26.7760   33.4450 N   0  0  0  0  0  0  0  0  0  0  0  0
   38.2220   25.6620   33.8460 N   0  0  0  0  0  0  0  0  0  0  0  0
   37.6180   27.1490   36.6440 H   0  0  0  0  0  0  0  0  0  0  0  0
   36.8390   28.4660   34.5000 H   0  0  0  0  0  0  0  0  0  0  0  0
   40.0730   23.8630   35.6830 C   0  0  0  0  0  0  0  0  0  0  0  0
   38.8890   24.5710   36.0160 C   0  0  0  0  0  0  0  0  0  0  0  0
   38.2810   24.2430   37.2130 C   0  0  0  0  0  0  0  0  0  0  0  0
   38.8390   23.2760   37.9970 N   0  0  0  0  0  0  0  0  0  0  0  0
   39.9610   22.6330   37.6420 C   0  0  0  0  0  0  0  0  0  0  0  0
   40.5910   22.9190   36.4790 N   0  0  0  0  0  0  0  0  0  0  0  0
   40.5340   24.1420   34.7300 H   0  0  0  0  0  0  0  0  0  0  0  0
   37.3680   24.7420   37.5380 H   0  0  0  0  0  0  0  0  0  0  0  0
   40.3080   21.8860   38.3460 H   0  0  0  0  0  0  0  0  0  0  0  0
   37.3790   27.1470   32.0720 C   0  0  1  0  0  0  0  0  0  0  0  0
   35.9320   26.9350   31.5540 C   0  0  0  0  0  0  0  0  0  0  0  0
   36.5170   28.2980   31.7700 C   0  0  2  0  0  0  0  0  0  0  0  0
   38.1760   26.8800   31.3700 H   0  0  0  0  0  0  0  0  0  0  0  0
   35.8540   26.5530   30.5180 H   0  0  0  0  0  0  0  0  0  0  0  0
   35.2210   26.5990   32.3250 H   0  0  0  0  0  0  0  0  0  0  0  0
   36.0790   28.9380   32.5540 H   0  0  0  0  0  0  0  0  0  0  0  0
   36.8910   29.0890   30.5350 C   0  0  0  0  0  0  0  0  0  0  0  0
   37.5350   28.6940   29.3010 C   0  0  0  0  0  0  0  0  0  0  0  0
   37.8140   27.6640   29.2010 H   0  0  0  0  0  0  0  0  0  0  0  0
   37.7010   29.7170   28.4140 C   0  0  0  0  0  3  0  0  0  0  0  0
   37.3220   31.0240   28.5980 C   0  0  0  0  0  3  0  0  0  0  0  0
   36.5640   30.8850   30.3580 S   0  0  0  0  0  0  0  0  0  0  0  0
  1  2  1  0  0  0  0
  1  9  1  0  0  0  0
  2  6  1  0  0  0  0
  3  2  2  0  0  0  0
  4  5  1  0  0  0  0
  4  3  1  0  0  0  0
  5  1  2  0  0  0  0
  7  3  1  0  0  0  0
  8  9  2  0  0  0  0
  8 13  1  0  0  0  0
  9 10  1  0  0  0  0
 10 15  1  0  0  0  0
 10 11  2  0  0  0  0
 12 11  1  0  0  0  0
 12 16  1  0  0  0  0
 13 12  2  0  0  0  0
 14  8  1  0  0  0  0
 17 20  1  6  0  0  0
 17  4  1  0  0  0  0
 18 19  1  0  0  0  0
 18 17  1  0  0  0  0
 18 22  1  0  0  0  0
 19 17  1  0  0  0  0
 19 23  1  1  0  0  0
 21 18  1  0  0  0  0
 24 19  1  0  0  0  0
 25 24  2  0  0  0  0
 26 25  1  0  0  0  0
 27 28  2  0  0  0  0
 27 25  1  0  0  0  0
 28 29  1  0  0  0  0
 29 24  1  0  0  0  0
M  END
>  <minimizedAffinity>
-4.58890867

$$$$

 OpenBabel03272500473D

 29 32  0  0  1  0  0  0  0  0999 V2000
   36.3580   27.0260   31.2860 C   0  0  0  0  0  0  0  0  0  0  0  0
   36.7680   27.9250   30.3180 C   0  0  0  0  0  0  0  0  0  0  0  0
   36.3710   29.2060   30.7340 C   0  0  0  0  0  0  0  0  0  0  0  0
   35.7500   29.0460   31.9100 N   0  0  0  0  0  0  0  0  0  0  0  0
   35.7590   27.7600   32.2070 N   0  0  0  0  0  0  0  0  0  0  0  0
   37.3000   27.8050   29.3730 H   0  0  0  0  0  0  0  0  0  0  0  0
   36.5130   30.1630   30.2430 H   0  0  0  0  0  0  0  0  0  0  0  0
   37.8870   25.0650   30.9820 C   0  0  0  0  0  0  0  0  0  0  0  0
   36.5940   25.6070   31.1990 C   0  0  0  0  0  0  0  0  0  0  0  0
   35.5530   24.7090   31.3250 C   0  0  0  0  0  0  0  0  0  0  0  0
   35.8140   23.3730   31.2360 N   0  0  0  0  0  0  0  0  0  0  0  0
   37.0540   22.9050   31.0310 C   0  0  0  0  0  0  0  0  0  0  0  0
   38.1050   23.7460   30.9000 N   0  0  0  0  0  0  0  0  0  0  0  0
   38.6940   25.7980   30.8860 H   0  0  0  0  0  0  0  0  0  0  0  0
   34.5300   25.0490   31.4920 H   0  0  0  0  0  0  0  0  0  0  0  0
   37.1370   21.8260   30.9790 H   0  0  0  0  0  0  0  0  0  0  0  0
   35.1700   30.0950   32.7170 C   0  0  1  0  0  0  0  0  0  0  0  0
   33.6410   30.3140   32.5820 C   0  0  0  0  0  0  0  0  0  0  0  0
   34.2650   29.7580   33.8260 C   0  0  2  0  0  0  0  0  0  0  0  0
   35.7740   31.0060   32.7820 H   0  0  0  0  0  0  0  0  0  0  0  0
   33.3140   31.3730   32.5840 H   0  0  0  0  0  0  0  0  0  0  0  0
   33.1340   29.5780   31.9380 H   0  0  0  0  0  0  0  0  0  0  0  0
   34.0310   28.7180   34.1090 H   0  0  0  0  0  0  0  0  0  0  0  0
   34.3360   30.6740   35.0290 C   0  0  0  0  0  0  0  0  0  0  0  0
   35.4500   31.3490   35.6560 C   0  0  0  0  0  0  0  0  0  0  0  0
   36.4200   31.2040   35.2230 H   0  0  0  0  0  0  0  0  0  0  0  0
   35.1010   32.0990   36.7420 C   0  0  0  0  0  3  0  0  0  0  0  0
   33.8360   32.2490   37.2530 C   0  0  0  0  0  3  0  0  0  0  0  0
   32.8640   31.1430   36.0170 S   0  0  0  0  0  0  0  0  0  0  0  0
  1  5  2  0  0  0  0
  2  3  2  0  0  0  0
  2  1  1  0  0  0  0
  3  4  1  0  0  0  0
  4  5  1  0  0  0  0
  4 17  1  0  0  0  0
  6  2  1  0  0  0  0
  7  3  1  0  0  0  0
  8  9  1  0  0  0  0
  9  1  1  0  0  0  0
  9 10  2  0  0  0  0
 10 15  1  0  0  0  0
 11 10  1  0  0  0  0
 12 11  2  0  0  0  0
 13  8  2  0  0  0  0
 13 12  1  0  0  0  0
 14  8  1  0  0  0  0
 16 12  1  0  0  0  0
 17 20  1  1  0  0  0
 17 19  1  0  0  0  0
 18 21  1  0  0  0  0
 18 17  1  0  0  0  0
 18 19  1  0  0  0  0
 19 23  1  1  0  0  0
 19 24  1  0  0  0  0
 22 18  1  0  0  0  0
 24 25  2  0  0  0  0
 24 29  1  0  0  0  0
 25 27  1  0  0  0  0
 26 25  1  0  0  0  0
 27 28  2  0  0  0  0
 29 28  1  0  0  0  0
M  END
>  <minimizedAffinity>
-4.5735302

$$$$
