
     RDKit          3D

 36 38  0  0  0  0  0  0  0  0999 V2000
   37.1310   30.9574   49.0123 C   0  0  0  0  0  0  0  0  0  0  0  0
   36.9111   31.9392   49.9978 C   0  0  0  0  0  0  0  0  0  0  0  0
   37.5559   33.1677   49.9778 C   0  0  0  0  0  0  0  0  0  0  0  0
   38.4526   33.4586   48.9593 C   0  0  0  0  0  0  0  0  0  0  0  0
   38.6560   32.4884   48.0044 C   0  0  0  0  0  0  0  0  0  0  0  0
   38.0084   31.2784   48.0413 C   0  0  0  0  0  0  0  0  0  0  0  0
   36.4116   29.7051   49.1175 C   0  0  0  0  0  0  0  0  0  0  0  0
   36.9265   28.8740   49.9533 O   0  0  0  0  0  0  0  0  0  0  0  0
   33.6276   30.1758   46.8536 C   0  0  0  0  0  0  0  0  0  0  0  0
   32.9629   28.9500   46.8768 C   0  0  0  0  0  0  0  0  0  0  0  0
   33.4774   27.9587   47.6761 C   0  0  0  0  0  0  0  0  0  0  0  0
   34.5932   28.1926   48.4054 N   0  0  0  0  0  0  0  0  0  0  0  0
   35.2082   29.3661   48.3674 C   0  0  0  0  0  0  0  0  0  0  0  0
   34.7166   30.3407   47.5921 N   0  0  0  0  0  0  0  0  0  0  0  0
   38.3402   30.3825   46.9634 C   0  0  0  0  0  0  0  0  0  0  0  0
   38.8043   30.7090   45.7571 C   0  0  0  0  0  0  0  0  0  0  0  0
   39.1755   29.9128   44.5903 C   0  0  0  0  0  0  0  0  0  0  0  0
   36.2180   31.7589   50.8161 H   0  0  0  0  0  0  0  0  0  0  0  0
   37.3432   33.8791   50.7645 H   0  0  0  0  0  0  0  0  0  0  0  0
   38.9419   34.4263   48.9689 H   0  0  0  0  0  0  0  0  0  0  0  0
   39.3728   32.7891   47.2381 H   0  0  0  0  0  0  0  0  0  0  0  0
   33.2726   31.0075   46.2399 H   0  0  0  0  0  0  0  0  0  0  0  0
   32.0844   28.9213   46.2371 H   0  0  0  0  0  0  0  0  0  0  0  0
   32.9414   27.0341   47.6678 H   0  0  0  0  0  0  0  0  0  0  0  0
   38.2422   29.2889   47.0223 H   0  0  0  0  0  0  0  0  0  0  0  0
   38.9665   31.7723   45.5170 H   0  0  0  0  0  0  0  0  0  0  0  0
   38.4945   30.1684   43.7258 H   0  0  0  0  0  0  0  0  0  0  0  0
   38.9320   28.8323   44.7866 H   0  0  0  0  0  0  0  0  0  0  0  0
   40.5220   30.0278   44.1487 C   0  0  0  0  0  0  0  0  0  0  0  0
   41.5318   29.0681   44.0261 C   0  0  0  0  0  0  0  0  0  0  0  0
   41.2980   28.0534   44.3006 H   0  0  0  0  0  0  0  0  0  0  0  0
   42.7721   29.4230   43.5704 C   0  0  0  0  0  0  0  0  0  0  0  0
   42.9586   30.8446   43.2296 C   0  0  0  0  0  0  0  0  0  0  0  0
   41.2325   31.5270   43.6298 S   0  0  0  0  0  0  0  0  0  0  0  0
   43.5994   28.7467   43.4481 H   0  0  0  0  0  0  0  0  0  0  0  0
   43.8808   31.2319   42.8663 H   0  0  0  0  0  0  0  0  0  0  0  0
  1  7  1  0
  1  2  2  0
  3  2  1  0
  4  3  2  0
  5  6  2  0
  5  4  1  0
  6  1  1  0
  7  8  2  0
  9 10  2  0
  9 14  1  0
 10 11  1  0
 11 12  2  0
 13 12  1  0
 13  7  1  0
 14 13  2  0
 15  6  1  0
 16 15  2  0
 17 16  1  0
  2 18  1  0
  3 19  1  0
  4 20  1  0
  5 21  1  0
  9 22  1  0
 10 23  1  0
 11 24  1  0
 15 25  1  0
 16 26  1  0
 17 27  1  0
 17 28  1  0
 29 30  2  0
 30 31  1  0
 30 32  1  0
 32 33  2  0
 33 34  1  0
 34 29  1  0
 32 35  1  0
 33 36  1  0
 17 29  1  0
M  ISO  8  18  14  19  14  20  14  21  14  22  14  23  14  24  14  27   8
M  ISO  2  28   8  31  15
M  END
>  <DihAtoms>  (1) 
15,16,28,29

>  <DihDeg>  (1) 
-90.20183822616235

$$$$
