
     RDKit          3D

 34 37  0  0  0  0  0  0  0  0999 V2000
   38.9116   30.8880   45.7638 C   0  0  0  0  0  0  0  0  0  0  0  0
   40.1140   31.5311   46.0245 C   0  0  0  0  0  0  0  0  0  0  0  0
   40.9368   31.4636   44.9117 C   0  0  0  0  0  0  0  0  0  0  0  0
   40.1878   30.7708   44.0062 N   0  0  0  0  0  0  0  0  0  0  0  0
   39.0049   30.4306   44.4941 N   0  0  0  0  0  0  0  0  0  0  0  0
   37.7936   30.7476   46.6767 C   0  0  0  0  0  0  0  0  0  0  0  0
   38.0141   30.9680   48.0590 C   0  0  0  0  0  0  0  0  0  0  0  0
   36.9215   30.8284   48.9143 C   0  0  0  0  0  0  0  0  0  0  0  0
   35.7169   30.4916   48.3787 N   0  0  0  0  0  0  0  0  0  0  0  0
   35.5309   30.2857   47.0515 C   0  0  0  0  0  0  0  0  0  0  0  0
   36.5777   30.4170   46.2122 N   0  0  0  0  0  0  0  0  0  0  0  0
   37.1368   31.0575   50.3758 C   0  0  0  0  0  0  0  0  0  0  0  0
   36.6101   32.3044   50.6243 F   0  0  0  0  0  0  0  0  0  0  0  0
   36.4599   30.1316   51.1580 F   0  0  0  0  0  0  0  0  0  0  0  0
   38.4780   31.0765   50.7069 F   0  0  0  0  0  0  0  0  0  0  0  0
   40.5526   30.4070   42.6471 C   0  0  0  0  0  0  0  0  0  0  0  0
   40.1717   31.1980   41.5503 C   0  0  0  0  0  0  0  0  0  0  0  0
   40.5418   30.8357   40.2948 C   0  0  0  0  0  0  0  0  0  0  0  0
   41.3087   29.6572   40.1197 C   0  0  0  0  0  0  0  0  0  0  0  0
   41.4915   29.0627   41.8644 S   0  0  0  0  0  0  0  0  0  0  0  0
   40.3953   32.0188   46.9433 H   0  0  0  0  0  0  0  0  0  0  0  0
   41.9286   31.8432   44.7429 H   0  0  0  0  0  0  0  0  0  0  0  0
   38.9962   31.2342   48.4281 H   0  0  0  0  0  0  0  0  0  0  0  0
   34.5339   30.0216   46.7265 H   0  0  0  0  0  0  0  0  0  0  0  0
   39.5752   32.1166   41.6617 H   0  0  0  0  0  0  0  0  0  0  0  0
   40.3274   31.3375   39.3659 H   0  0  0  0  0  0  0  0  0  0  0  0
   41.8484   28.9868   39.0902 C   0  0  0  0  0  0  0  0  0  0  0  0
   41.3545   28.3915   37.9698 C   0  0  0  0  0  0  0  0  0  0  0  0
   40.2900   28.4314   37.8123 H   0  0  0  0  0  0  0  0  0  0  0  0
   42.2181   27.7834   37.1155 C   0  0  0  0  0  0  0  0  0  0  0  0
   43.6327   27.7739   37.3990 C   0  0  0  0  0  0  0  0  0  0  0  0
   43.6657   28.7186   39.0177 S   0  0  0  0  0  0  0  0  0  0  0  0
   41.8621   27.2889   36.1962 H   0  0  0  0  0  0  0  0  0  0  0  0
   44.3527   27.2643   36.6822 H   0  0  0  0  0  0  0  0  0  0  0  0
  1  2  1  0
  1  6  1  0
  3  2  2  0
  4  5  1  0
  4  3  1  0
  5  1  2  0
  6  7  2  0
  7  8  1  0
  8 12  1  0
  9  8  2  0
 10  9  1  0
 11  6  1  0
 11 10  2  0
 12 13  1  0
 12 15  1  0
 12 14  1  0
 16  4  1  0
 17 16  2  0
 18 17  1  0
 19 18  2  0
 19 20  1  0
 20 16  1  0
  2 21  1  0
  3 22  1  0
  7 23  1  0
 10 24  1  0
 17 25  1  0
 18 26  1  0
 27 28  2  0
 28 29  1  0
 28 30  1  0
 30 31  2  0
 31 32  1  0
 32 27  1  0
 30 33  1  0
 31 34  1  0
 19 27  1  0
M  ISO  7  21  14  22  14  23  14  24  14  25  14  26  14  29  15
M  END
>  <DihAtoms>  (1) 
17,18,26,27

>  <DihDeg>  (1) 
179.99994985694462

$$$$
