
     RDKit          3D

 26 28  0  0  0  0  0  0  0  0999 V2000
   35.1909   30.4315   48.9808 C   0  0  0  0  0  0  0  0  0  0  0  0
   34.3364   30.1826   49.8608 O   0  0  0  0  0  0  0  0  0  0  0  0
   33.3241   30.0985   45.8890 C   0  0  0  0  0  0  0  0  0  0  0  0
   34.3143   30.0094   44.9093 C   0  0  0  0  0  0  0  0  0  0  0  0
   35.6386   30.0635   45.3075 C   0  0  0  0  0  0  0  0  0  0  0  0
   35.9077   30.2006   46.6315 N   0  0  0  0  0  0  0  0  0  0  0  0
   34.9174   30.2840   47.5554 C   0  0  0  0  0  0  0  0  0  0  0  0
   33.6216   30.2326   47.1803 N   0  0  0  0  0  0  0  0  0  0  0  0
   36.5168   30.8896   49.4290 C   0  0  0  0  0  0  0  0  0  0  0  0
   37.3139   30.2260   50.3287 C   0  0  0  0  0  0  0  0  0  0  0  0
   38.4394   31.0331   50.4284 C   0  0  0  0  0  0  0  0  0  0  0  0
   38.2732   32.1187   49.6050 C   0  0  0  0  0  0  0  0  0  0  0  0
   37.1168   31.9960   49.0283 O   0  0  0  0  0  0  0  0  0  0  0  0
   32.2980   30.0552   45.5663 H   0  0  0  0  0  0  0  0  0  0  0  0
   34.0904   29.8993   43.8475 H   0  0  0  0  0  0  0  0  0  0  0  0
   36.4777   30.0019   44.6150 H   0  0  0  0  0  0  0  0  0  0  0  0
   37.1692   29.3140   50.8584 H   0  0  0  0  0  0  0  0  0  0  0  0
   39.3430   30.9246   51.0162 H   0  0  0  0  0  0  0  0  0  0  0  0
   39.1424   33.2289   49.3552 C   0  0  0  0  0  0  0  0  0  0  0  0
   40.2362   33.6378   50.0736 C   0  0  0  0  0  0  0  0  0  0  0  0
   40.5267   33.0855   50.9551 H   0  0  0  0  0  0  0  0  0  0  0  0
   40.9750   34.7235   49.7128 C   0  0  0  0  0  0  0  0  0  0  0  0
   40.5209   35.4303   48.4984 C   0  0  0  0  0  0  0  0  0  0  0  0
   39.0212   34.4163   47.9873 S   0  0  0  0  0  0  0  0  0  0  0  0
   41.8399   35.1220   50.2022 H   0  0  0  0  0  0  0  0  0  0  0  0
   41.0486   36.3390   48.1014 H   0  0  0  0  0  0  0  0  0  0  0  0
  1  9  1  0
  1  2  2  0
  3  8  2  0
  4  5  2  0
  4  3  1  0
  5  6  1  0
  6  7  2  0
  7  1  1  0
  8  7  1  0
  9 10  2  0
 10 11  1  0
 12 11  2  0
 13  9  1  0
 13 12  1  0
  3 14  1  0
  4 15  1  0
  5 16  1  0
 10 17  1  0
 11 18  1  0
 19 20  2  0
 20 21  1  0
 20 22  1  0
 22 23  2  0
 23 24  1  0
 24 19  1  0
 22 25  1  0
 23 26  1  0
 12 19  1  0
M  ISO  6  14  14  15  14  16  14  17  14  18  14  21  15
M  END
>  <DihAtoms>  (1) 
10,11,18,19

>  <DihDeg>  (1) 
-0.0020946786371872387

$$$$
