
 OpenBabel03272507583D

 29 31  0  0  0  0  0  0  0  0999 V2000
   37.0040   31.3070   48.5270 C   0  0  0  0  0  0  0  0  0  0  0  0
   37.2090   32.2560   49.5230 C   0  0  0  0  0  0  0  0  0  0  0  0
   38.1530   33.2470   49.3340 C   0  0  0  0  0  0  0  0  0  0  0  0
   38.8900   33.3140   48.1850 C   0  0  0  0  0  0  0  0  0  0  0  0
   38.6650   32.3650   47.2210 C   0  0  0  0  0  0  0  0  0  0  0  0
   37.7420   31.3860   47.3920 N   0  0  0  0  0  0  0  0  0  0  0  0
   36.7130   32.3440   50.4820 H   0  0  0  0  0  0  0  0  0  0  0  0
   38.3780   34.0210   50.0490 H   0  0  0  0  0  0  0  0  0  0  0  0
   39.6520   34.0020   47.8720 H   0  0  0  0  0  0  0  0  0  0  0  0
   35.1530   28.5540   50.2640 C   0  0  0  0  0  0  0  0  0  0  0  0
   36.1740   29.5010   49.9520 C   0  0  0  0  0  0  0  0  0  0  0  0
   35.9860   30.3360   48.8680 C   0  0  0  0  0  0  0  0  0  0  0  0
   34.8350   30.2150   48.1500 N   0  0  0  0  0  0  0  0  0  0  0  0
   33.8830   29.2960   48.4810 C   0  0  0  0  0  0  0  0  0  0  0  0
   34.0330   28.4780   49.5180 N   0  0  0  0  0  0  0  0  0  0  0  0
   32.7710   29.3660   47.5750 N   0  0  0  0  0  0  0  0  0  0  0  0
   35.2560   27.8820   51.1020 H   0  0  0  0  0  0  0  0  0  0  0  0
   32.9230   28.9180   46.6310 H   0  0  0  0  0  0  0  0  0  0  0  0
   32.0470   29.8750   48.1120 H   0  0  0  0  0  0  0  0  0  0  0  0
   37.3920   29.5370   50.8150 C   0  0  0  0  0  0  0  0  0  0  0  0
   38.5260   29.8180   50.0600 F   0  0  0  0  0  0  0  0  0  0  0  0
   37.2260   30.5200   51.7480 F   0  0  0  0  0  0  0  0  0  0  0  0
   37.6220   28.3490   51.4740 F   0  0  0  0  0  0  0  0  0  0  0  0
   39.2900   32.1640   45.8820 C   0  0  0  0  0  0  0  0  0  0  0  0
   38.5210   31.7200   44.9020 C   0  0  0  0  0  0  0  0  0  0  0  0
   37.4530   31.4480   44.8440 H   0  0  0  0  0  0  0  0  0  0  0  0
   38.8710   31.4680   43.6210 C   0  0  0  0  0  3  0  0  0  0  0  0
   40.2950   31.7690   43.4580 C   0  0  0  0  0  3  0  0  0  0  0  0
   40.8490   32.3620   45.2030 S   0  0  0  0  0  0  0  0  0  0  0  0
  1 12  1  0  0  0  0
  1  2  1  0  0  0  0
  2  7  1  0  0  0  0
  3  2  2  0  0  0  0
  3  8  1  0  0  0  0
  4  3  1  0  0  0  0
  5  6  1  0  0  0  0
  5  4  2  0  0  0  0
  6  1  2  0  0  0  0
  9  4  1  0  0  0  0
 10 17  1  0  0  0  0
 11 10  1  0  0  0  0
 11 20  1  0  0  0  0
 12 11  2  0  0  0  0
 13 14  2  0  0  0  0
 13 12  1  0  0  0  0
 14 15  1  0  0  0  0
 15 10  2  0  0  0  0
 16 19  1  0  0  0  0
 16 14  1  0  0  0  0
 18 16  1  0  0  0  0
 20 23  1  0  0  0  0
 20 22  1  0  0  0  0
 21 20  1  0  0  0  0
 24  5  1  0  0  0  0
 25 24  2  0  0  0  0
 26 25  1  0  0  0  0
 27 25  1  0  0  0  0
 28 27  2  0  0  0  0
 28 29  1  0  0  0  0
 29 24  1  0  0  0  0
M  END
>  <minimizedAffinity>
-6.89401102

>  <minimizedRMSD>
0.680341303

$$$$
