
 OpenBabel03272504223D

 36 38  0  0  1  0  0  0  0  0999 V2000
   36.8330   31.5830   48.6920 O   0  0  0  0  0  0  0  0  0  0  0  0
   38.8460   32.4000   47.8430 C   0  0  2  0  0  0  0  0  0  0  0  0
   38.1950   31.3850   48.7570 C   0  0  1  0  0  0  0  0  0  0  0  0
   38.7280   31.9200   50.0890 C   0  0  0  0  0  0  0  0  0  0  0  0
   38.3930   33.2670   49.9820 O   0  0  0  0  0  0  0  0  0  0  0  0
   38.6520   33.6570   48.6900 C   0  0  0  0  0  0  0  0  0  0  0  0
   39.9040   32.1590   47.7080 H   0  0  0  0  0  0  0  0  0  0  0  0
   38.5210   30.3480   48.5790 H   0  0  0  0  0  0  0  0  0  0  0  0
   39.8050   31.7390   50.1560 H   0  0  0  0  0  0  0  0  0  0  0  0
   38.1300   31.4410   50.8720 H   0  0  0  0  0  0  0  0  0  0  0  0
   39.5840   34.2670   48.6080 H   0  0  0  0  0  0  0  0  0  0  0  0
   37.8420   34.3000   48.2680 H   0  0  0  0  0  0  0  0  0  0  0  0
   38.1150   32.4400   46.6600 O   0  0  0  0  0  0  0  0  0  0  0  0
   38.7990   31.9860   45.5060 C   0  0  0  0  0  0  0  0  0  0  0  0
   39.0560   30.6530   45.1720 C   0  0  0  0  0  0  0  0  0  0  0  0
   38.7170   29.8740   45.8330 H   0  0  0  0  0  0  0  0  0  0  0  0
   39.7310   30.3750   44.0210 C   0  0  0  0  0  3  0  0  0  0  0  0
   40.1550   31.4740   43.1870 C   0  0  0  0  0  3  0  0  0  0  0  0
   39.5920   32.9100   44.0460 S   0  0  0  0  0  0  0  0  0  0  0  0
   35.9240   29.8520   46.9800 O   0  0  0  0  0  0  0  0  0  0  0  0
   35.9690   30.1640   48.4560 P   0  0  1  0  0  0  0  0  0  0  0  0
   36.7500   28.8670   49.2460 O   0  0  0  0  0  0  0  0  0  0  0  0
   37.4400   29.1710   49.8840 H   0  0  0  0  0  0  0  0  0  0  0  0
   34.3920   30.3300   49.0710 O   0  0  0  0  0  0  0  0  0  0  0  0
   34.1230   29.1880   49.7980 C   0  0  0  0  0  0  0  0  0  0  0  0
   33.6090   29.4540   50.7650 H   0  0  0  0  0  0  0  0  0  0  0  0
   35.0320   28.6450   50.1190 H   0  0  0  0  0  0  0  0  0  0  0  0
   33.2610   28.2200   49.0840 C   0  0  0  0  0  0  0  0  0  0  0  0
   33.8920   27.3310   48.2470 C   0  0  0  0  0  0  0  0  0  0  0  0
   33.1350   26.3920   47.5440 C   0  0  0  0  0  0  0  0  0  0  0  0
   31.7850   26.4160   47.7350 N   0  0  0  0  0  0  0  0  0  0  0  0
   31.1910   27.2970   48.5620 C   0  0  0  0  0  0  0  0  0  0  0  0
   31.9260   28.2070   49.2420 N   0  0  0  0  0  0  0  0  0  0  0  0
   34.9420   27.2340   48.0300 H   0  0  0  0  0  0  0  0  0  0  0  0
   33.5300   25.6610   46.8720 H   0  0  0  0  0  0  0  0  0  0  0  0
   30.1170   27.2290   48.6400 H   0  0  0  0  0  0  0  0  0  0  0  0
  1  3  1  0  0  0  0
  2  7  1  6  0  0  0
  2  6  1  0  0  0  0
  2  3  1  0  0  0  0
  3  8  1  6  0  0  0
  3  4  1  0  0  0  0
  4  9  1  0  0  0  0
  4 10  1  0  0  0  0
  5  4  1  0  0  0  0
  6  5  1  0  0  0  0
 11  6  1  0  0  0  0
 12  6  1  0  0  0  0
 13  2  1  0  0  0  0
 14 13  1  0  0  0  0
 15 14  2  0  0  0  0
 15 16  1  0  0  0  0
 17 15  1  0  0  0  0
 18 17  2  0  0  0  0
 18 19  1  0  0  0  0
 19 14  1  0  0  0  0
 21 20  2  6  0  0  0
 21  1  1  0  0  0  0
 21 24  1  0  0  0  0
 21 22  1  0  0  0  0
 22 23  1  0  0  0  0
 24 25  1  0  0  0  0
 25 27  1  0  0  0  0
 25 26  1  0  0  0  0
 28 33  1  0  0  0  0
 28 25  1  0  0  0  0
 29 28  2  0  0  0  0
 30 31  2  0  0  0  0
 30 29  1  0  0  0  0
 31 32  1  0  0  0  0
 32 36  1  0  0  0  0
 32 33  2  0  0  0  0
 34 29  1  0  0  0  0
 35 30  1  0  0  0  0
M  END
>  <minimizedAffinity>
-4.59747982

>  <minimizedRMSD>
0.23071909

$$$$
