
 OpenBabel03272510123D

 32 35  0  0  0  0  0  0  0  0999 V2000
   33.1430   28.3320   48.9740 C   0  0  0  0  0  0  0  0  0  0  0  0
   33.2570   29.0620   50.1070 C   0  0  0  0  0  0  0  0  0  0  0  0
   34.4250   29.6660   50.5390 C   0  0  0  0  0  0  0  0  0  0  0  0
   35.5640   29.5430   49.8030 C   0  0  0  0  0  0  0  0  0  0  0  0
   35.4530   28.7890   48.6270 C   0  0  0  0  0  0  0  0  0  0  0  0
   34.2910   28.2220   48.2520 N   0  0  0  0  0  0  0  0  0  0  0  0
   32.4060   29.2140   50.7570 H   0  0  0  0  0  0  0  0  0  0  0  0
   34.5160   30.2490   51.4450 H   0  0  0  0  0  0  0  0  0  0  0  0
   36.2900   28.6180   47.9530 H   0  0  0  0  0  0  0  0  0  0  0  0
   30.7350   27.6970   49.2740 C   0  0  0  0  0  0  0  0  0  0  0  0
   31.9280   27.7080   48.5320 C   0  0  0  0  0  0  0  0  0  0  0  0
   31.8980   27.0680   47.3000 C   0  0  0  0  0  0  0  0  0  0  0  0
   30.7590   26.4720   46.8680 N   0  0  0  0  0  0  0  0  0  0  0  0
   29.6360   26.4940   47.6290 C   0  0  0  0  0  0  0  0  0  0  0  0
   29.6200   27.0980   48.8190 N   0  0  0  0  0  0  0  0  0  0  0  0
   30.7240   28.1810   50.2270 H   0  0  0  0  0  0  0  0  0  0  0  0
   32.8020   27.0420   46.6720 H   0  0  0  0  0  0  0  0  0  0  0  0
   28.7550   25.9980   47.2230 H   0  0  0  0  0  0  0  0  0  0  0  0
   36.8250   30.0800   50.0790 O   0  0  0  0  0  0  0  0  0  0  0  0
   37.5950   30.6770   49.0940 C   0  0  0  0  0  0  0  0  0  0  0  0
   38.0360   31.9680   49.4120 C   0  0  0  0  0  0  0  0  0  0  0  0
   38.7890   32.4640   48.3680 C   0  0  0  0  0  0  0  0  0  0  0  0
   38.7840   31.4780   47.4630 N   0  0  0  0  0  0  0  0  0  0  0  0
   38.0950   30.4400   47.8750 N   0  0  0  0  0  0  0  0  0  0  0  0
   37.9050   32.6290   50.2860 H   0  0  0  0  0  0  0  0  0  0  0  0
   39.2990   33.4150   48.2320 H   0  0  0  0  0  0  0  0  0  0  0  0
   39.4040   31.4170   46.1610 C   0  0  0  0  0  0  0  0  0  0  0  0
   39.0530   30.4240   45.2910 C   0  0  0  0  0  0  0  0  0  0  0  0
   38.3450   29.6180   45.4130 H   0  0  0  0  0  0  0  0  0  0  0  0
   39.5470   30.2550   44.0600 C   0  0  0  0  0  3  0  0  0  0  0  0
   40.5420   31.2470   43.6720 C   0  0  0  0  0  3  0  0  0  0  0  0
   40.6650   32.3890   45.2180 S   0  0  0  0  0  0  0  0  0  0  0  0
  1  2  1  0  0  0  0
  2  3  2  0  0  0  0
  2  7  1  0  0  0  0
  3  8  1  0  0  0  0
  4 19  1  0  0  0  0
  4  3  1  0  0  0  0
  5  4  2  0  0  0  0
  6  5  1  0  0  0  0
  6  1  2  0  0  0  0
  9  5  1  0  0  0  0
 10 16  1  0  0  0  0
 11  1  1  0  0  0  0
 11 10  2  0  0  0  0
 12 11  1  0  0  0  0
 13 12  2  0  0  0  0
 13 14  1  0  0  0  0
 14 15  2  0  0  0  0
 15 10  1  0  0  0  0
 17 12  1  0  0  0  0
 18 14  1  0  0  0  0
 20 21  1  0  0  0  0
 20 19  1  0  0  0  0
 21 25  1  0  0  0  0
 22 21  2  0  0  0  0
 23 24  1  0  0  0  0
 23 22  1  0  0  0  0
 24 20  2  0  0  0  0
 26 22  1  0  0  0  0
 27 23  1  0  0  0  0
 28 29  1  0  0  0  0
 28 27  2  0  0  0  0
 30 28  1  0  0  0  0
 31 30  2  0  0  0  0
 31 32  1  0  0  0  0
 32 27  1  0  0  0  0
M  END
>  <minimizedAffinity>
-5.59773779

>  <minimizedRMSD>
2.11070204

$$$$
