REMARK  Name = 
REMARK  4 active torsions:
REMARK  status: ('A' for Active; 'I' for Inactive)
REMARK    1  A    between atoms: C_1  and  C_6
REMARK    2  A    between atoms: N_4  and  C_16
REMARK    3  A    between atoms: C_8  and  C_12
REMARK    4  A    between atoms: C_19  and  C_27
REMARK                            x       y       z     vdW  Elec       q    Type
REMARK                         _______ _______ _______ _____ _____    ______ ____
ROOT
ATOM      1  C   UNL     1      38.912  30.888  45.764  0.00  0.00    +0.000 A 
ATOM      2  C   UNL     1      40.114  31.531  46.025  0.00  0.00    +0.000 A 
ATOM      3  C   UNL     1      40.937  31.464  44.912  0.00  0.00    +0.000 A 
ATOM      4  N   UNL     1      40.188  30.771  44.006  0.00  0.00    +0.000 N 
ATOM      5  N   UNL     1      39.005  30.431  44.494  0.00  0.00    +0.000 NA
ATOM      6  H   UNL     1      40.395  32.019  46.943  0.00  0.00    +0.000 HD
ATOM      7  H   UNL     1      41.929  31.843  44.743  0.00  0.00    +0.000 HD
ENDROOT
BRANCH   1   8
ATOM      8  C   UNL     1      37.794  30.748  46.677  0.00  0.00    +0.000 A 
ATOM      9  C   UNL     1      38.014  30.968  48.059  0.00  0.00    +0.000 A 
ATOM     10  C   UNL     1      36.922  30.828  48.914  0.00  0.00    +0.000 A 
ATOM     11  N   UNL     1      35.717  30.492  48.379  0.00  0.00    +0.000 NA
ATOM     12  C   UNL     1      35.531  30.286  47.051  0.00  0.00    +0.000 A 
ATOM     13  N   UNL     1      36.578  30.417  46.212  0.00  0.00    +0.000 NA
ATOM     14  H   UNL     1      38.996  31.234  48.428  0.00  0.00    +0.000 HD
ATOM     15  H   UNL     1      34.534  30.022  46.727  0.00  0.00    +0.000 HD
BRANCH  10  16
ATOM     16  C   UNL     1      37.137  31.058  50.376  0.00  0.00    +0.000 C 
ATOM     17  F   UNL     1      36.610  32.304  50.624  0.00  0.00    +0.000 F 
ATOM     18  F   UNL     1      36.460  30.132  51.158  0.00  0.00    +0.000 F 
ATOM     19  F   UNL     1      38.478  31.076  50.707  0.00  0.00    +0.000 F 
ENDBRANCH  10  16
ENDBRANCH   1   8
BRANCH   4  20
ATOM     20  C   UNL     1      40.553  30.407  42.647  0.00  0.00    +0.000 A 
ATOM     21  C   UNL     1      40.172  31.198  41.550  0.00  0.00    +0.000 A 
ATOM     22  C   UNL     1      40.542  30.836  40.295  0.00  0.00    +0.000 A 
ATOM     23  C   UNL     1      41.309  29.657  40.120  0.00  0.00    +0.000 A 
ATOM     24  S   UNL     1      41.492  29.063  41.864  0.00  0.00    +0.000 S 
ATOM     25  H   UNL     1      39.575  32.117  41.662  0.00  0.00    +0.000 HD
ATOM     26  H   UNL     1      40.327  31.337  39.366  0.00  0.00    +0.000 HD
BRANCH  23  27
ATOM     27  C   UNL     1      41.848  28.987  39.090  0.00  0.00    +0.000 A 
ATOM     28  C   UNL     1      41.355  28.392  37.970  0.00  0.00    +0.000 A 
ATOM     29  H   UNL     1      40.290  28.431  37.812  0.00  0.00    +0.000 HD
ATOM     30  C   UNL     1      42.218  27.783  37.115  0.00  0.00    +0.000 A 
ATOM     31  C   UNL     1      43.633  27.774  37.399  0.00  0.00    +0.000 A 
ATOM     32  S   UNL     1      43.666  28.719  39.018  0.00  0.00    +0.000 S 
ENDBRANCH  23  27
ENDBRANCH   4  20
TORSDOF 4
