
     RDKit          3D

 37 40  0  0  0  0  0  0  0  0999 V2000
   35.8283   30.5448   49.0699 C   0  0  1  0  0  0  0  0  0  0  0  0
   35.9090   29.1150   48.8540 C   0  0  1  0  0  0  0  0  0  0  0  0
   36.0492   29.6025   50.2597 C   0  0  0  0  0  0  0  0  0  0  0  0
   37.0062   31.4486   48.8249 C   0  0  0  0  0  0  0  0  0  0  0  0
   37.1999   32.5272   49.6902 C   0  0  0  0  0  0  0  0  0  0  0  0
   38.2725   33.3422   49.4181 C   0  0  0  0  0  0  0  0  0  0  0  0
   39.0925   33.0880   48.3469 N   0  0  0  0  0  0  0  0  0  0  0  0
   38.8722   32.0272   47.5269 C   0  0  0  0  0  0  0  0  0  0  0  0
   37.8229   31.1992   47.7615 N   0  0  0  0  0  0  0  0  0  0  0  0
   33.9542   29.0873   47.3768 C   0  0  2  0  0  0  0  0  0  0  0  0
   34.7445   28.2974   48.4073 C   0  0  2  0  0  0  0  0  0  0  0  0
   33.8676   28.0644   49.4327 O   0  0  0  0  0  0  0  0  0  0  0  0
   32.5874   28.1295   48.9887 C   0  0  0  0  0  0  0  0  0  0  0  0
   32.6137   28.3738   47.5095 C   0  0  1  0  0  0  0  0  0  0  0  0
   34.4564   28.9647   46.0939 O   0  0  0  0  0  0  0  0  0  0  0  0
   31.5695   29.1613   47.0610 O   0  0  0  0  0  0  0  0  0  0  0  0
   34.9038   31.1409   49.2480 H   0  0  0  0  0  0  0  0  0  0  0  0
   36.8851   28.7671   48.3960 H   0  0  0  0  0  0  0  0  0  0  0  0
   37.0193   29.6087   50.7551 H   0  0  0  0  0  0  0  0  0  0  0  0
   35.1944   29.3740   50.9291 H   0  0  0  0  0  0  0  0  0  0  0  0
   36.5613   32.7381   50.5311 H   0  0  0  0  0  0  0  0  0  0  0  0
   38.5049   34.2132   50.0462 H   0  0  0  0  0  0  0  0  0  0  0  0
   39.5056   31.7949   46.6667 H   0  0  0  0  0  0  0  0  0  0  0  0
   33.8132   30.1378   47.6381 H   0  0  0  0  0  0  0  0  0  0  0  0
   35.0558   27.3436   47.9379 H   0  0  0  0  0  0  0  0  0  0  0  0
   32.1154   29.0303   49.4770 H   0  0  0  0  0  0  0  0  0  0  0  0
   31.9502   27.2659   49.2673 H   0  0  0  0  0  0  0  0  0  0  0  0
   32.6391   27.4143   46.9236 H   0  0  0  0  0  0  0  0  0  0  0  0
   35.0351   28.1371   46.0438 H   0  0  0  0  0  0  0  0  0  0  0  0
   30.9767   28.4588   45.7009 C   0  0  0  0  0  0  0  0  0  0  0  0
   31.5002   27.1098   46.2079 C   0  0  0  0  0  0  0  0  0  0  0  0
   32.0421   26.5797   47.0269 H   0  0  0  0  0  0  0  0  0  0  0  0
   31.3063   26.0000   45.4571 C   0  0  0  0  0  0  0  0  0  0  0  0
   30.6088   26.1352   44.1987 C   0  0  0  0  0  0  0  0  0  0  0  0
   30.2417   28.0080   44.1674 S   0  0  0  0  0  0  0  0  0  0  0  0
   31.4130   24.9421   45.2793 H   0  0  0  0  0  0  0  0  0  0  0  0
   30.1641   25.8744   43.2734 H   0  0  0  0  0  0  0  0  0  0  0  0
  1  3  1  0
  2  1  1  0
  2  3  1  0
  4  1  1  0
  4  5  2  0
  6  5  1  0
  7  6  2  0
  8  9  2  0
  8  7  1  0
  9  4  1  0
 10 15  1  0
 10 14  1  0
 10 11  1  0
 11  2  1  0
 11 12  1  0
 13 12  1  0
 14 16  1  0
 14 13  1  0
  1 17  1  1
  2 18  1  6
  3 19  1  0
  3 20  1  0
  5 21  1  0
  6 22  1  0
  8 23  1  0
 10 24  1  1
 11 25  1  6
 13 26  1  0
 13 27  1  0
 14 28  1  6
 15 29  1  0
 30 31  2  0
 31 32  1  0
 31 33  1  0
 33 34  2  0
 34 35  1  0
 35 30  1  0
 33 36  1  0
 34 37  1  0
 16 30  1  0
M  ISO  8  17  13  18  13  19  13  20  13  21  14  22  14  23  14  24  13
M  ISO  6  25  13  26  13  27  13  28  13  29   3  32  15
M  END
>  <DihAtoms>  (1) 
13,15,29,30

>  <DihDeg>  (1) 
175.6959416341665

$$$$
