
 OpenBabel03272507283D

 38 40  0  0  1  0  0  0  0  0999 V2000
   34.8890   29.8940   47.4930 C   0  0  0  0  0  0  0  0  0  0  0  0
   35.6440   30.4530   46.4400 C   0  0  0  0  0  0  0  0  0  0  0  0
   35.5060   29.8690   45.1820 C   0  0  0  0  0  0  0  0  0  0  0  0
   34.6770   28.8210   45.0340 N   0  0  0  0  0  0  0  0  0  0  0  0
   33.9690   28.3110   46.0630 C   0  0  0  0  0  0  0  0  0  0  0  0
   34.0760   28.8440   47.2790 N   0  0  0  0  0  0  0  0  0  0  0  0
   36.2120   30.3610   44.0890 N   0  0  0  0  0  0  0  0  0  0  0  0
   36.5960   31.7830   43.8760 C   0  0  0  0  0  0  0  0  0  0  0  0
   37.1120   31.9150   42.5040 C   0  0  0  0  0  0  0  0  0  0  0  0
   36.5980   30.7190   41.8290 C   0  0  0  0  0  0  0  0  0  0  0  0
   36.7160   29.7180   42.9200 C   0  0  2  0  0  0  0  0  0  0  0  0
   35.0790   30.4330   48.4280 H   0  0  0  0  0  0  0  0  0  0  0  0
   36.3140   31.2830   46.5110 H   0  0  0  0  0  0  0  0  0  0  0  0
   33.2880   27.4770   46.0220 H   0  0  0  0  0  0  0  0  0  0  0  0
   35.5080   32.2380   43.8860 H   0  0  0  0  0  0  0  0  0  0  0  0
   37.0250   32.2900   44.7030 H   0  0  0  0  0  0  0  0  0  0  0  0
   36.4450   32.7630   42.0380 H   0  0  0  0  0  0  0  0  0  0  0  0
   38.0720   32.3200   42.2990 H   0  0  0  0  0  0  0  0  0  0  0  0
   35.5610   30.7880   41.4910 H   0  0  0  0  0  0  0  0  0  0  0  0
   37.2260   30.4440   40.9390 H   0  0  0  0  0  0  0  0  0  0  0  0
   35.9930   28.4280   42.5390 C   0  0  0  0  0  0  0  0  0  0  0  0
   34.6330   28.6800   42.5550 F   0  0  0  0  0  0  0  0  0  0  0  0
   36.2020   27.3680   43.3720 F   0  0  0  0  0  0  0  0  0  0  0  0
   36.3180   28.1640   41.2280 F   0  0  0  0  0  0  0  0  0  0  0  0
   38.0860   29.3530   43.1820 C   0  0  2  0  0  0  0  0  0  0  0  0
   38.1480   28.4840   43.8250 H   0  0  0  0  0  0  0  0  0  0  0  0
   38.9440   30.2930   44.0730 C   0  0  0  0  0  0  0  0  0  0  0  0
   39.1630   30.2820   45.4930 C   0  0  0  0  0  0  0  0  0  0  0  0
   38.5330   29.5570   45.9670 H   0  0  0  0  0  0  0  0  0  0  0  0
   40.0760   31.1390   45.9870 C   0  0  0  0  0  3  0  0  0  0  0  0
   40.7820   32.0100   45.0990 C   0  0  0  0  0  3  0  0  0  0  0  0
   40.1720   31.6510   43.4710 S   0  0  0  0  0  0  0  0  0  0  0  0
   38.7230   29.4440   42.1030 O   0  0  0  0  0  0  0  0  0  0  0  0
   39.6530   28.7900   41.3890 C   0  0  0  0  0  0  0  0  0  0  0  0
   39.2630   28.5310   40.2460 O   0  0  0  0  0  0  0  0  0  0  0  0
   40.9590   28.2300   41.3370 N   0  0  0  0  0  0  0  0  0  0  0  0
   41.1470   27.2010   41.4920 H   0  0  0  0  0  0  0  0  0  0  0  0
   41.6650   28.9640   41.1330 H   0  0  0  0  0  0  0  0  0  0  0  0
  1 12  1  0  0  0  0
  2 13  1  0  0  0  0
  2  1  2  0  0  0  0
  3  2  1  0  0  0  0
  4  3  2  0  0  0  0
  4  5  1  0  0  0  0
  5  6  2  0  0  0  0
  6  1  1  0  0  0  0
  7  3  1  0  0  0  0
  8 15  1  0  0  0  0
  8  7  1  0  0  0  0
  8 16  1  0  0  0  0
  9  8  1  0  0  0  0
 10  9  1  0  0  0  0
 10 11  1  0  0  0  0
 11 21  1  6  0  0  0
 11 25  1  0  0  0  0
 11  7  1  0  0  0  0
 14  5  1  0  0  0  0
 17  9  1  0  0  0  0
 18  9  1  0  0  0  0
 19 10  1  0  0  0  0
 20 10  1  0  0  0  0
 21 22  1  0  0  0  0
 21 23  1  0  0  0  0
 24 21  1  0  0  0  0
 25 26  1  1  0  0  0
 25 27  1  0  0  0  0
 27 28  2  0  0  0  0
 28 29  1  0  0  0  0
 28 30  1  0  0  0  0
 31 30  2  0  0  0  0
 32 27  1  0  0  0  0
 32 31  1  0  0  0  0
 33 25  1  0  0  0  0
 34 33  1  0  0  0  0
 35 34  2  0  0  0  0
 36 34  1  0  0  0  0
 36 37  1  0  0  0  0
 38 36  1  0  0  0  0
M  END
>  <minimizedAffinity>
-3.72117782

>  <minimizedRMSD>
3.07646847

$$$$
