
 OpenBabel03272501133D

 25 27  0  0  1  0  0  0  0  0999 V2000
   36.7290   31.2250   50.1010 C   0  0  1  0  0  0  0  0  0  0  0  0
   36.5060   29.7960   50.0760 C   0  0  1  0  0  0  0  0  0  0  0  0
   37.3960   30.3500   51.1620 C   0  0  0  0  0  0  0  0  0  0  0  0
   36.0530   32.0010   50.5240 H   0  0  0  0  0  0  0  0  0  0  0  0
   37.1030   29.2100   49.3240 H   0  0  0  0  0  0  0  0  0  0  0  0
   36.9090   30.3650   52.1580 H   0  0  0  0  0  0  0  0  0  0  0  0
   38.4800   30.2090   51.1350 H   0  0  0  0  0  0  0  0  0  0  0  0
   37.7450   31.8670   49.1780 C   0  0  0  0  0  0  0  0  0  0  0  0
   38.2090   33.1280   49.5590 C   0  0  0  0  0  0  0  0  0  0  0  0
   39.1260   33.7020   48.6810 C   0  0  0  0  0  0  0  0  0  0  0  0
   39.5170   33.0500   47.5400 N   0  0  0  0  0  0  0  0  0  0  0  0
   39.0310   31.8260   47.2200 C   0  0  0  0  0  0  0  0  0  0  0  0
   38.1300   31.2310   48.0590 N   0  0  0  0  0  0  0  0  0  0  0  0
   37.8830   33.6180   50.4640 H   0  0  0  0  0  0  0  0  0  0  0  0
   39.5380   34.6800   48.9000 H   0  0  0  0  0  0  0  0  0  0  0  0
   39.3570   31.3340   46.3140 H   0  0  0  0  0  0  0  0  0  0  0  0
   35.1290   29.2820   50.4010 C   0  0  0  0  0  0  0  0  0  0  0  0
   34.4820   30.0670   50.8390 H   0  0  0  0  0  0  0  0  0  0  0  0
   35.2280   28.4130   51.0780 H   0  0  0  0  0  0  0  0  0  0  0  0
   34.5470   28.7870   49.1270 C   0  0  0  0  0  0  0  0  0  0  0  0
   34.1060   27.5690   48.7790 C   0  0  0  0  0  0  0  0  0  0  0  0
   34.1620   26.7710   49.5230 H   0  0  0  0  0  0  0  0  0  0  0  0
   33.6020   27.3460   47.5260 C   0  0  0  0  0  0  0  0  0  0  0  0
   33.5840   28.4480   46.6690 C   0  0  0  0  0  0  0  0  0  0  0  0
   34.3030   29.8080   47.6940 S   0  0  0  0  0  0  0  0  0  0  0  0
  1  4  1  1  0  0  0
  1  3  1  0  0  0  0
  2  5  1  6  0  0  0
  2  1  1  0  0  0  0
  2 17  1  0  0  0  0
  2  3  1  0  0  0  0
  3  6  1  0  0  0  0
  7  3  1  0  0  0  0
  8  9  1  0  0  0  0
  8  1  1  0  0  0  0
  9 14  1  0  0  0  0
 10 15  1  0  0  0  0
 10  9  2  0  0  0  0
 11 10  1  0  0  0  0
 12 11  2  0  0  0  0
 12 13  1  0  0  0  0
 13  8  2  0  0  0  0
 16 12  1  0  0  0  0
 17 18  1  0  0  0  0
 17 19  1  0  0  0  0
 20 17  1  0  0  0  0
 21 20  2  0  0  0  0
 21 22  1  0  0  0  0
 23 21  1  0  0  0  0
 24 23  2  0  0  0  0
 24 25  1  0  0  0  0
 25 20  1  0  0  0  0
M  END
>  <minimizedAffinity>
-5.33103466

>  <minimizedRMSD>
2.18130159

$$$$
