
 OpenBabel03272510343D

 25 27  0  0  0  0  0  0  0  0999 V2000
   35.9640   30.1070   46.9800 C   0  0  0  0  0  0  0  0  0  0  0  0
   35.4310   30.1000   45.7090 C   0  0  0  0  0  0  0  0  0  0  0  0
   34.3230   29.3320   45.4070 C   0  0  0  0  0  0  0  0  0  0  0  0
   33.7600   28.5700   46.4020 C   0  0  0  0  0  0  0  0  0  0  0  0
   34.2730   28.5580   47.6820 C   0  0  0  0  0  0  0  0  0  0  0  0
   35.3820   29.3310   47.9720 C   0  0  0  0  0  0  0  0  0  0  0  0
   35.8790   30.7080   44.9090 H   0  0  0  0  0  0  0  0  0  0  0  0
   33.9050   29.3250   44.4070 H   0  0  0  0  0  0  0  0  0  0  0  0
   32.8880   27.9410   46.2470 H   0  0  0  0  0  0  0  0  0  0  0  0
   33.8920   27.9860   48.5270 H   0  0  0  0  0  0  0  0  0  0  0  0
   38.0470   32.6920   48.4520 C   0  0  0  0  0  0  0  0  0  0  0  0
   39.2520   32.6170   47.7540 C   0  0  0  0  0  0  0  0  0  0  0  0
   39.3340   31.6370   46.7470 C   0  0  0  0  0  0  0  0  0  0  0  0
   38.2650   30.8360   46.5110 N   0  0  0  0  0  0  0  0  0  0  0  0
   37.1260   30.9440   47.2070 C   0  0  0  0  0  0  0  0  0  0  0  0
   37.0220   31.8830   48.1850 N   0  0  0  0  0  0  0  0  0  0  0  0
   37.9780   33.4560   49.2390 H   0  0  0  0  0  0  0  0  0  0  0  0
   40.0610   33.3010   48.0110 H   0  0  0  0  0  0  0  0  0  0  0  0
   40.2670   31.5830   46.2120 H   0  0  0  0  0  0  0  0  0  0  0  0
   35.9760   29.3580   49.3200 C   0  0  0  0  0  0  0  0  0  0  0  0
   35.2000   29.5100   50.5130 C   0  0  0  0  0  0  0  0  0  0  0  0
   34.1280   29.6110   50.4650 H   0  0  0  0  0  0  0  0  0  0  0  0
   35.8700   29.5190   51.7060 C   0  0  0  0  0  3  0  0  0  0  0  0
   37.2840   29.3820   51.6970 C   0  0  0  0  0  3  0  0  0  0  0  0
   37.7240   29.2270   49.9440 S   0  0  0  0  0  0  0  0  0  0  0  0
  1 15  1  0  0  0  0
  1  6  1  0  0  0  0
  2  1  2  0  0  0  0
  3  2  1  0  0  0  0
  3  4  2  0  0  0  0
  4  5  1  0  0  0  0
  5  6  2  0  0  0  0
  5 10  1  0  0  0  0
  6 20  1  0  0  0  0
  7  2  1  0  0  0  0
  8  3  1  0  0  0  0
  9  4  1  0  0  0  0
 11 17  1  0  0  0  0
 12 18  1  0  0  0  0
 12 11  2  0  0  0  0
 13 12  1  0  0  0  0
 14 13  2  0  0  0  0
 14 15  1  0  0  0  0
 15 16  2  0  0  0  0
 16 11  1  0  0  0  0
 19 13  1  0  0  0  0
 20 25  1  0  0  0  0
 20 21  2  0  0  0  0
 21 23  1  0  0  0  0
 22 21  1  0  0  0  0
 24 23  2  0  0  0  0
 25 24  1  0  0  0  0
M  END
>  <minimizedAffinity>
-4.24170732

>  <minimizedRMSD>
1.71874428

$$$$
