
 OpenBabel03272506033D

 43 46  0  0  1  0  0  0  0  0999 V2000
   37.9090   26.1090   33.1060 C   0  0  2  0  0  0  0  0  0  0  0  0
   39.0020   25.3500   33.6990 C   0  0  0  0  0  0  0  0  0  0  0  0
   38.8520   25.1870   35.2450 C   0  0  2  0  0  0  0  0  0  0  0  0
   38.7720   26.4380   35.9570 C   0  0  0  0  0  0  0  0  0  0  0  0
   37.9800   27.5220   35.2160 C   0  0  0  0  0  0  0  0  0  0  0  0
   37.1180   26.9110   34.1490 C   0  0  0  0  0  0  0  0  0  0  0  0
   38.2990   26.9200   32.4210 H   0  0  0  0  0  0  0  0  0  0  0  0
   39.9480   25.9900   33.6490 H   0  0  0  0  0  0  0  0  0  0  0  0
   39.3070   24.3850   33.3610 H   0  0  0  0  0  0  0  0  0  0  0  0
   37.9860   24.5260   35.4180 H   0  0  0  0  0  0  0  0  0  0  0  0
   39.7680   26.8900   36.1300 H   0  0  0  0  0  0  0  0  0  0  0  0
   38.3560   26.2610   36.9690 H   0  0  0  0  0  0  0  0  0  0  0  0
   38.6000   28.3390   34.8540 H   0  0  0  0  0  0  0  0  0  0  0  0
   37.2790   27.9580   35.9560 H   0  0  0  0  0  0  0  0  0  0  0  0
   36.5770   27.7080   33.6340 H   0  0  0  0  0  0  0  0  0  0  0  0
   36.3670   26.2570   34.6340 H   0  0  0  0  0  0  0  0  0  0  0  0
   38.4230   22.8820   37.0370 Cl  0  0  0  0  0  0  0  0  0  0  0  0
   40.0080   23.3560   36.4860 C   0  0  0  0  0  0  0  0  0  0  0  0
   40.0790   24.4170   35.6190 C   0  0  0  0  0  0  0  0  0  0  0  0
   41.3700   24.7030   35.2020 C   0  0  0  0  0  0  0  0  0  0  0  0
   42.4770   23.9910   35.6190 C   0  0  0  0  0  0  0  0  0  0  0  0
   42.3200   22.9270   36.5030 C   0  0  0  0  0  0  0  0  0  0  0  0
   41.0380   22.6010   36.9490 C   0  0  0  0  0  0  0  0  0  0  0  0
   41.4980   25.5320   34.5100 H   0  0  0  0  0  0  0  0  0  0  0  0
   43.4370   24.3020   35.2310 H   0  0  0  0  0  0  0  0  0  0  0  0
   43.1950   22.3780   36.8230 H   0  0  0  0  0  0  0  0  0  0  0  0
   40.8790   21.5180   37.8480 N   0  0  0  0  0  0  0  0  0  0  0  0
   41.1220   20.5320   37.6630 H   0  0  0  0  0  0  0  0  0  0  0  0
   40.4990   21.5330   38.8240 H   0  0  0  0  0  0  0  0  0  0  0  0
   36.9300   25.3500   32.3340 C   0  0  0  0  0  0  0  0  0  0  0  0
   36.0140   26.1360   31.6500 C   0  0  0  0  0  0  0  0  0  0  0  0
   35.0530   25.5140   30.8600 C   0  0  0  0  0  0  0  0  0  0  0  0
   35.0550   24.1180   30.7950 N   0  0  0  0  0  0  0  0  0  0  0  0
   35.9560   23.3960   31.4730 C   0  0  0  0  0  0  0  0  0  0  0  0
   36.8630   24.0350   32.2190 N   0  0  0  0  0  0  0  0  0  0  0  0
   35.7820   27.1840   31.5210 H   0  0  0  0  0  0  0  0  0  0  0  0
   34.2600   25.8800   30.2510 H   0  0  0  0  0  0  0  0  0  0  0  0
   35.9590   21.9330   31.4050 C   0  0  0  0  0  0  0  0  0  0  0  0
   34.9750   21.3090   32.0400 C   0  0  0  0  0  0  0  0  0  0  0  0
   34.1050   21.6330   32.6410 H   0  0  0  0  0  0  0  0  0  0  0  0
   34.7380   19.9710   32.1400 C   0  0  0  0  0  3  0  0  0  0  0  0
   35.8110   19.2610   31.3840 C   0  0  0  0  0  3  0  0  0  0  0  0
   36.9250   20.6230   30.6950 S   0  0  0  0  0  0  0  0  0  0  0  0
  1  7  1  6  0  0  0
  1  2  1  0  0  0  0
  1  6  1  0  0  0  0
  2  3  1  0  0  0  0
  3 10  1  1  0  0  0
  3 19  1  0  0  0  0
  3  4  1  0  0  0  0
  4 11  1  0  0  0  0
  4 12  1  0  0  0  0
  5 14  1  0  0  0  0
  5  4  1  0  0  0  0
  6 16  1  0  0  0  0
  6  5  1  0  0  0  0
  8  2  1  0  0  0  0
  9  2  1  0  0  0  0
 13  5  1  0  0  0  0
 15  6  1  0  0  0  0
 18 23  1  0  0  0  0
 18 17  1  0  0  0  0
 19 18  2  0  0  0  0
 20 19  1  0  0  0  0
 20 21  2  0  0  0  0
 21 22  1  0  0  0  0
 22 26  1  0  0  0  0
 22 23  2  0  0  0  0
 23 27  1  0  0  0  0
 24 20  1  0  0  0  0
 25 21  1  0  0  0  0
 27 29  1  0  0  0  0
 28 27  1  0  0  0  0
 30  1  1  0  0  0  0
 31 30  2  0  0  0  0
 32 31  1  0  0  0  0
 33 32  2  0  0  0  0
 33 34  1  0  0  0  0
 34 35  2  0  0  0  0
 35 30  1  0  0  0  0
 36 31  1  0  0  0  0
 37 32  1  0  0  0  0
 38 34  1  0  0  0  0
 38 39  2  0  0  0  0
 39 41  1  0  0  0  0
 39 40  1  0  0  0  0
 42 41  2  0  0  0  0
 43 42  1  0  0  0  0
 43 38  1  0  0  0  0
M  END
>  <minimizedAffinity>
-6.9767127

$$$$

 OpenBabel03272506033D

 43 46  0  0  1  0  0  0  0  0999 V2000
   36.8100   28.4880   33.2990 C   0  0  2  0  0  0  0  0  0  0  0  0
   35.9420   29.0550   34.3230 C   0  0  0  0  0  0  0  0  0  0  0  0
   34.5510   29.4860   33.7610 C   0  0  2  0  0  0  0  0  0  0  0  0
   34.6280   30.4510   32.6920 C   0  0  0  0  0  0  0  0  0  0  0  0
   35.8080   30.2240   31.7390 C   0  0  0  0  0  0  0  0  0  0  0  0
   36.3390   28.8270   31.8780 C   0  0  0  0  0  0  0  0  0  0  0  0
   37.8400   28.9550   33.3310 H   0  0  0  0  0  0  0  0  0  0  0  0
   36.3680   30.0720   34.6270 H   0  0  0  0  0  0  0  0  0  0  0  0
   35.7150   28.5680   35.2450 H   0  0  0  0  0  0  0  0  0  0  0  0
   34.0140   28.5640   33.4830 H   0  0  0  0  0  0  0  0  0  0  0  0
   34.7650   31.4840   33.0650 H   0  0  0  0  0  0  0  0  0  0  0  0
   33.6670   30.4690   32.1410 H   0  0  0  0  0  0  0  0  0  0  0  0
   36.5780   30.9890   31.8150 H   0  0  0  0  0  0  0  0  0  0  0  0
   35.3960   30.2880   30.7110 H   0  0  0  0  0  0  0  0  0  0  0  0
   37.1820   28.7010   31.1950 H   0  0  0  0  0  0  0  0  0  0  0  0
   35.5490   28.1160   31.5650 H   0  0  0  0  0  0  0  0  0  0  0  0
   35.9780   31.6710   35.1400 Cl  0  0  0  0  0  0  0  0  0  0  0  0
   34.4590   31.0370   35.7150 C   0  0  0  0  0  0  0  0  0  0  0  0
   33.8670   30.0520   34.9660 C   0  0  0  0  0  0  0  0  0  0  0  0
   32.6470   29.6320   35.4730 C   0  0  0  0  0  0  0  0  0  0  0  0
   32.0830   30.1520   36.6210 C   0  0  0  0  0  0  0  0  0  0  0  0
   32.7500   31.1500   37.3260 C   0  0  0  0  0  0  0  0  0  0  0  0
   33.9810   31.6060   36.8520 C   0  0  0  0  0  0  0  0  0  0  0  0
   32.1210   28.8540   34.9250 H   0  0  0  0  0  0  0  0  0  0  0  0
   31.1270   29.7490   36.9250 H   0  0  0  0  0  0  0  0  0  0  0  0
   32.2970   31.5490   38.2230 H   0  0  0  0  0  0  0  0  0  0  0  0
   34.6590   32.6220   37.5700 N   0  0  0  0  0  0  0  0  0  0  0  0
   34.3120   33.5790   37.7440 H   0  0  0  0  0  0  0  0  0  0  0  0
   35.5980   32.5770   38.0310 H   0  0  0  0  0  0  0  0  0  0  0  0
   37.0090   27.0430   33.3390 C   0  0  0  0  0  0  0  0  0  0  0  0
   36.6110   26.3830   32.1850 C   0  0  0  0  0  0  0  0  0  0  0  0
   36.7830   25.0050   32.1060 C   0  0  0  0  0  0  0  0  0  0  0  0
   37.3500   24.3470   33.2020 N   0  0  0  0  0  0  0  0  0  0  0  0
   37.7200   25.0220   34.2980 C   0  0  0  0  0  0  0  0  0  0  0  0
   37.5370   26.3460   34.3290 N   0  0  0  0  0  0  0  0  0  0  0  0
   36.1620   26.6190   31.2300 H   0  0  0  0  0  0  0  0  0  0  0  0
   36.5660   24.2840   31.3530 H   0  0  0  0  0  0  0  0  0  0  0  0
   38.3150   24.3330   35.4440 C   0  0  0  0  0  0  0  0  0  0  0  0
   37.7540   24.5580   36.6270 C   0  0  0  0  0  0  0  0  0  0  0  0
   36.9030   25.1690   36.9820 H   0  0  0  0  0  0  0  0  0  0  0  0
   38.1000   24.0550   37.8440 C   0  0  0  0  0  3  0  0  0  0  0  0
   39.2750   23.1570   37.6480 C   0  0  0  0  0  3  0  0  0  0  0  0
   39.6450   23.2100   35.7950 S   0  0  0  0  0  0  0  0  0  0  0  0
  1  7  1  1  0  0  0
  1 30  1  0  0  0  0
  1  2  1  0  0  0  0
  2  8  1  0  0  0  0
  2  9  1  0  0  0  0
  3 10  1  6  0  0  0
  3  2  1  0  0  0  0
  3 19  1  0  0  0  0
  4 11  1  0  0  0  0
  4  3  1  0  0  0  0
  5 13  1  0  0  0  0
  5  6  1  0  0  0  0
  5  4  1  0  0  0  0
  6  1  1  0  0  0  0
 12  4  1  0  0  0  0
 14  5  1  0  0  0  0
 15  6  1  0  0  0  0
 16  6  1  0  0  0  0
 17 18  1  0  0  0  0
 18 23  1  0  0  0  0
 19 20  1  0  0  0  0
 19 18  2  0  0  0  0
 20 21  2  0  0  0  0
 21 25  1  0  0  0  0
 21 22  1  0  0  0  0
 22 26  1  0  0  0  0
 23 22  2  0  0  0  0
 23 27  1  0  0  0  0
 24 20  1  0  0  0  0
 27 28  1  0  0  0  0
 27 29  1  0  0  0  0
 30 35  1  0  0  0  0
 31 30  2  0  0  0  0
 32 31  1  0  0  0  0
 32 33  2  0  0  0  0
 33 34  1  0  0  0  0
 34 35  2  0  0  0  0
 34 38  1  0  0  0  0
 36 31  1  0  0  0  0
 37 32  1  0  0  0  0
 38 43  1  0  0  0  0
 38 39  2  0  0  0  0
 39 40  1  0  0  0  0
 39 41  1  0  0  0  0
 42 41  2  0  0  0  0
 43 42  1  0  0  0  0
M  END
>  <minimizedAffinity>
-6.69978189

$$$$

 OpenBabel03272506033D

 43 46  0  0  1  0  0  0  0  0999 V2000
   37.5360   26.9620   33.1250 C   0  0  2  0  0  0  0  0  0  0  0  0
   38.9790   26.7690   33.1840 C   0  0  0  0  0  0  0  0  0  0  0  0
   39.4650   26.2950   34.5900 C   0  0  2  0  0  0  0  0  0  0  0  0
   39.1150   27.1940   35.6620 C   0  0  0  0  0  0  0  0  0  0  0  0
   37.7330   27.8380   35.5010 C   0  0  0  0  0  0  0  0  0  0  0  0
   36.9010   27.0660   34.5180 C   0  0  0  0  0  0  0  0  0  0  0  0
   37.2750   27.9620   32.6630 H   0  0  0  0  0  0  0  0  0  0  0  0
   39.4780   27.7970   33.1280 H   0  0  0  0  0  0  0  0  0  0  0  0
   39.5250   26.1630   32.4970 H   0  0  0  0  0  0  0  0  0  0  0  0
   39.0850   25.2690   34.7340 H   0  0  0  0  0  0  0  0  0  0  0  0
   39.8140   28.0490   35.7400 H   0  0  0  0  0  0  0  0  0  0  0  0
   39.1980   26.6630   36.6310 H   0  0  0  0  0  0  0  0  0  0  0  0
   37.7750   28.9040   35.2880 H   0  0  0  0  0  0  0  0  0  0  0  0
   37.2220   27.7290   36.4790 H   0  0  0  0  0  0  0  0  0  0  0  0
   35.9290   27.5560   34.4190 H   0  0  0  0  0  0  0  0  0  0  0  0
   36.7230   26.0520   34.9260 H   0  0  0  0  0  0  0  0  0  0  0  0
   40.7240   23.8410   35.6420 Cl  0  0  0  0  0  0  0  0  0  0  0  0
   41.6470   25.1250   34.9070 C   0  0  0  0  0  0  0  0  0  0  0  0
   40.9480   26.1980   34.4130 C   0  0  0  0  0  0  0  0  0  0  0  0
   41.7540   27.1530   33.8140 C   0  0  0  0  0  0  0  0  0  0  0  0
   43.1270   27.0380   33.7230 C   0  0  0  0  0  0  0  0  0  0  0  0
   43.7620   25.9170   34.2520 C   0  0  0  0  0  0  0  0  0  0  0  0
   42.9910   24.9280   34.8640 C   0  0  0  0  0  0  0  0  0  0  0  0
   41.2630   28.0290   33.3980 H   0  0  0  0  0  0  0  0  0  0  0  0
   43.6570   27.8440   33.2360 H   0  0  0  0  0  0  0  0  0  0  0  0
   44.8380   25.8400   34.1750 H   0  0  0  0  0  0  0  0  0  0  0  0
   43.6370   23.7880   35.4020 N   0  0  0  0  0  0  0  0  0  0  0  0
   44.1960   23.0990   34.8730 H   0  0  0  0  0  0  0  0  0  0  0  0
   43.6580   23.4600   36.3960 H   0  0  0  0  0  0  0  0  0  0  0  0
   36.7720   25.9560   32.3930 C   0  0  0  0  0  0  0  0  0  0  0  0
   35.8440   26.4830   31.5070 C   0  0  0  0  0  0  0  0  0  0  0  0
   35.0800   25.6120   30.7370 C   0  0  0  0  0  0  0  0  0  0  0  0
   35.2860   24.2380   30.8970 N   0  0  0  0  0  0  0  0  0  0  0  0
   36.1910   23.7710   31.7650 C   0  0  0  0  0  0  0  0  0  0  0  0
   36.9040   24.6450   32.4830 N   0  0  0  0  0  0  0  0  0  0  0  0
   35.4840   27.4530   31.1910 H   0  0  0  0  0  0  0  0  0  0  0  0
   34.3210   25.7580   30.0040 H   0  0  0  0  0  0  0  0  0  0  0  0
   36.4070   22.3320   31.9310 C   0  0  0  0  0  0  0  0  0  0  0  0
   35.3250   21.5630   31.8980 C   0  0  0  0  0  0  0  0  0  0  0  0
   34.2430   21.7470   31.7700 H   0  0  0  0  0  0  0  0  0  0  0  0
   35.2370   20.2110   32.0250 C   0  0  0  0  0  3  0  0  0  0  0  0
   36.6180   19.6800   32.2180 C   0  0  0  0  0  3  0  0  0  0  0  0
   37.7480   21.1950   32.1810 S   0  0  0  0  0  0  0  0  0  0  0  0
  1  7  1  6  0  0  0
  1  2  1  0  0  0  0
  1  6  1  0  0  0  0
  2  3  1  0  0  0  0
  3 10  1  1  0  0  0
  3  4  1  0  0  0  0
  4 11  1  0  0  0  0
  4 12  1  0  0  0  0
  5  4  1  0  0  0  0
  5 14  1  0  0  0  0
  6 16  1  0  0  0  0
  6  5  1  0  0  0  0
  8  2  1  0  0  0  0
  9  2  1  0  0  0  0
 13  5  1  0  0  0  0
 15  6  1  0  0  0  0
 18 17  1  0  0  0  0
 19  3  1  0  0  0  0
 19 18  2  0  0  0  0
 20 19  1  0  0  0  0
 21 20  2  0  0  0  0
 21 22  1  0  0  0  0
 22 23  2  0  0  0  0
 23 18  1  0  0  0  0
 23 27  1  0  0  0  0
 24 20  1  0  0  0  0
 25 21  1  0  0  0  0
 26 22  1  0  0  0  0
 27 29  1  0  0  0  0
 28 27  1  0  0  0  0
 30 35  1  0  0  0  0
 30  1  1  0  0  0  0
 31 30  2  0  0  0  0
 32 33  2  0  0  0  0
 32 31  1  0  0  0  0
 33 34  1  0  0  0  0
 34 38  1  0  0  0  0
 34 35  2  0  0  0  0
 36 31  1  0  0  0  0
 37 32  1  0  0  0  0
 38 43  1  0  0  0  0
 39 38  2  0  0  0  0
 39 41  1  0  0  0  0
 40 39  1  0  0  0  0
 41 42  2  0  0  0  0
 43 42  1  0  0  0  0
M  END
>  <minimizedAffinity>
-6.42838478

$$$$

 OpenBabel03272506033D

 43 46  0  0  1  0  0  0  0  0999 V2000
   37.2210   27.8330   32.7070 C   0  0  2  0  0  0  0  0  0  0  0  0
   36.6600   28.6840   33.7470 C   0  0  0  0  0  0  0  0  0  0  0  0
   35.2180   29.1770   33.4070 C   0  0  2  0  0  0  0  0  0  0  0  0
   35.1300   29.9110   32.1680 C   0  0  0  0  0  0  0  0  0  0  0  0
   36.0390   29.3640   31.0610 C   0  0  0  0  0  0  0  0  0  0  0  0
   36.4700   27.9610   31.3750 C   0  0  0  0  0  0  0  0  0  0  0  0
   38.2670   28.1640   32.4280 H   0  0  0  0  0  0  0  0  0  0  0  0
   37.2260   29.6780   33.7380 H   0  0  0  0  0  0  0  0  0  0  0  0
   36.6090   28.4090   34.7760 H   0  0  0  0  0  0  0  0  0  0  0  0
   34.5570   28.2950   33.4440 H   0  0  0  0  0  0  0  0  0  0  0  0
   35.4340   30.9690   32.2830 H   0  0  0  0  0  0  0  0  0  0  0  0
   34.0730   29.9480   31.8360 H   0  0  0  0  0  0  0  0  0  0  0  0
   36.8670   30.0260   30.8160 H   0  0  0  0  0  0  0  0  0  0  0  0
   35.4110   29.2890   30.1500 H   0  0  0  0  0  0  0  0  0  0  0  0
   37.1220   27.6050   30.5740 H   0  0  0  0  0  0  0  0  0  0  0  0
   35.5730   27.3100   31.3870 H   0  0  0  0  0  0  0  0  0  0  0  0
   32.3970   29.0990   34.2730 Cl  0  0  0  0  0  0  0  0  0  0  0  0
   33.5840   30.1190   35.0430 C   0  0  0  0  0  0  0  0  0  0  0  0
   34.8750   30.0370   34.5830 C   0  0  0  0  0  0  0  0  0  0  0  0
   35.7590   30.8520   35.2730 C   0  0  0  0  0  0  0  0  0  0  0  0
   35.3790   31.6680   36.3200 C   0  0  0  0  0  0  0  0  0  0  0  0
   34.0480   31.6940   36.7260 C   0  0  0  0  0  0  0  0  0  0  0  0
   33.1210   30.8900   36.0610 C   0  0  0  0  0  0  0  0  0  0  0  0
   36.8000   30.8320   34.9610 H   0  0  0  0  0  0  0  0  0  0  0  0
   36.1530   32.2620   36.7860 H   0  0  0  0  0  0  0  0  0  0  0  0
   33.7630   32.3380   37.5470 H   0  0  0  0  0  0  0  0  0  0  0  0
   31.7660   30.9170   36.4740 N   0  0  0  0  0  0  0  0  0  0  0  0
   31.4080   30.6510   37.4050 H   0  0  0  0  0  0  0  0  0  0  0  0
   30.9240   31.2040   35.9220 H   0  0  0  0  0  0  0  0  0  0  0  0
   37.3040   26.4060   33.0040 C   0  0  0  0  0  0  0  0  0  0  0  0
   36.9060   25.5850   31.9590 C   0  0  0  0  0  0  0  0  0  0  0  0
   36.9720   24.2060   32.1260 C   0  0  0  0  0  0  0  0  0  0  0  0
   37.4360   23.7110   33.3480 N   0  0  0  0  0  0  0  0  0  0  0  0
   37.8080   24.5390   34.3330 C   0  0  0  0  0  0  0  0  0  0  0  0
   37.7300   25.8580   34.1280 N   0  0  0  0  0  0  0  0  0  0  0  0
   36.5210   25.6820   30.9530 H   0  0  0  0  0  0  0  0  0  0  0  0
   36.7330   23.3810   31.4950 H   0  0  0  0  0  0  0  0  0  0  0  0
   38.2950   24.0200   35.6130 C   0  0  0  0  0  0  0  0  0  0  0  0
   37.7730   24.5600   36.7070 C   0  0  0  0  0  0  0  0  0  0  0  0
   37.0210   25.3460   36.9060 H   0  0  0  0  0  0  0  0  0  0  0  0
   38.0410   24.2720   38.0110 C   0  0  0  0  0  3  0  0  0  0  0  0
   39.0710   23.1930   38.0360 C   0  0  0  0  0  3  0  0  0  0  0  0
   39.4450   22.8130   36.2230 S   0  0  0  0  0  0  0  0  0  0  0  0
  1  7  1  6  0  0  0
  1 30  1  0  0  0  0
  1  2  1  0  0  0  0
  2  9  1  0  0  0  0
  3 10  1  6  0  0  0
  3  2  1  0  0  0  0
  3 19  1  0  0  0  0
  4 11  1  0  0  0  0
  4  3  1  0  0  0  0
  5  6  1  0  0  0  0
  5  4  1  0  0  0  0
  6 16  1  0  0  0  0
  6  1  1  0  0  0  0
  8  2  1  0  0  0  0
 12  4  1  0  0  0  0
 13  5  1  0  0  0  0
 14  5  1  0  0  0  0
 15  6  1  0  0  0  0
 17 18  1  0  0  0  0
 18 23  1  0  0  0  0
 19 18  2  0  0  0  0
 19 20  1  0  0  0  0
 20 21  2  0  0  0  0
 21 22  1  0  0  0  0
 21 25  1  0  0  0  0
 22 26  1  0  0  0  0
 23 27  1  0  0  0  0
 23 22  2  0  0  0  0
 24 20  1  0  0  0  0
 27 28  1  0  0  0  0
 29 27  1  0  0  0  0
 30 35  1  0  0  0  0
 31 32  1  0  0  0  0
 31 30  2  0  0  0  0
 32 33  2  0  0  0  0
 33 34  1  0  0  0  0
 34 38  1  0  0  0  0
 35 34  2  0  0  0  0
 36 31  1  0  0  0  0
 37 32  1  0  0  0  0
 38 43  1  0  0  0  0
 38 39  2  0  0  0  0
 39 40  1  0  0  0  0
 39 41  1  0  0  0  0
 41 42  2  0  0  0  0
 43 42  1  0  0  0  0
M  END
>  <minimizedAffinity>
-6.41388512

$$$$

 OpenBabel03272506033D

 43 46  0  0  1  0  0  0  0  0999 V2000
   36.5640   28.7510   32.4940 C   0  0  2  0  0  0  0  0  0  0  0  0
   36.0040   29.3580   33.6940 C   0  0  0  0  0  0  0  0  0  0  0  0
   34.5430   29.8660   33.4850 C   0  0  2  0  0  0  0  0  0  0  0  0
   34.4080   30.8320   32.4220 C   0  0  0  0  0  0  0  0  0  0  0  0
   35.3060   30.5460   31.2120 C   0  0  0  0  0  0  0  0  0  0  0  0
   35.7800   29.1220   31.2290 C   0  0  0  0  0  0  0  0  0  0  0  0
   37.5940   29.1620   32.2710 H   0  0  0  0  0  0  0  0  0  0  0  0
   36.5440   30.3500   33.8770 H   0  0  0  0  0  0  0  0  0  0  0  0
   35.9830   28.8790   34.6470 H   0  0  0  0  0  0  0  0  0  0  0  0
   33.9060   28.9750   33.3540 H   0  0  0  0  0  0  0  0  0  0  0  0
   34.6870   31.8540   32.7420 H   0  0  0  0  0  0  0  0  0  0  0  0
   33.3440   30.9030   32.1220 H   0  0  0  0  0  0  0  0  0  0  0  0
   36.1110   31.2680   31.0910 H   0  0  0  0  0  0  0  0  0  0  0  0
   34.6600   30.6380   30.3150 H   0  0  0  0  0  0  0  0  0  0  0  0
   36.4230   28.9540   30.3620 H   0  0  0  0  0  0  0  0  0  0  0  0
   34.9000   28.4560   31.1240 H   0  0  0  0  0  0  0  0  0  0  0  0
   31.9130   29.1140   34.5950 Cl  0  0  0  0  0  0  0  0  0  0  0  0
   32.9880   30.2210   35.4050 C   0  0  0  0  0  0  0  0  0  0  0  0
   34.2040   30.4610   34.8160 C   0  0  0  0  0  0  0  0  0  0  0  0
   35.0100   31.3230   35.5440 C   0  0  0  0  0  0  0  0  0  0  0  0
   34.6270   31.8870   36.7450 C   0  0  0  0  0  0  0  0  0  0  0  0
   33.3740   31.5940   37.2760 C   0  0  0  0  0  0  0  0  0  0  0  0
   32.5280   30.7300   36.5790 C   0  0  0  0  0  0  0  0  0  0  0  0
   35.9900   31.5530   35.1340 H   0  0  0  0  0  0  0  0  0  0  0  0
   35.3350   32.5460   37.2270 H   0  0  0  0  0  0  0  0  0  0  0  0
   33.0860   32.0420   38.2170 H   0  0  0  0  0  0  0  0  0  0  0  0
   31.2530   30.4320   37.1200 N   0  0  0  0  0  0  0  0  0  0  0  0
   31.0690   29.9670   38.0230 H   0  0  0  0  0  0  0  0  0  0  0  0
   30.3100   30.6260   36.7080 H   0  0  0  0  0  0  0  0  0  0  0  0
   36.6900   27.2970   32.4960 C   0  0  0  0  0  0  0  0  0  0  0  0
   36.1190   26.6770   31.3940 C   0  0  0  0  0  0  0  0  0  0  0  0
   36.2060   25.2930   31.2820 C   0  0  0  0  0  0  0  0  0  0  0  0
   36.8680   24.5900   32.2930 N   0  0  0  0  0  0  0  0  0  0  0  0
   37.4040   25.2270   33.3410 C   0  0  0  0  0  0  0  0  0  0  0  0
   37.2970   26.5580   33.4070 N   0  0  0  0  0  0  0  0  0  0  0  0
   35.5700   26.9500   30.5040 H   0  0  0  0  0  0  0  0  0  0  0  0
   35.8610   24.5960   30.5540 H   0  0  0  0  0  0  0  0  0  0  0  0
   38.0980   24.4910   34.3990 C   0  0  0  0  0  0  0  0  0  0  0  0
   37.9260   24.9340   35.6390 C   0  0  0  0  0  0  0  0  0  0  0  0
   37.3600   25.7650   36.0990 H   0  0  0  0  0  0  0  0  0  0  0  0
   38.4480   24.4450   36.7980 C   0  0  0  0  0  3  0  0  0  0  0  0
   39.2930   23.2640   36.4560 C   0  0  0  0  0  3  0  0  0  0  0  0
   39.1760   23.0920   34.5780 S   0  0  0  0  0  0  0  0  0  0  0  0
  1  7  1  6  0  0  0
  1 30  1  0  0  0  0
  1  2  1  0  0  0  0
  2  8  1  0  0  0  0
  2  9  1  0  0  0  0
  3 10  1  6  0  0  0
  3  2  1  0  0  0  0
  3 19  1  0  0  0  0
  4 11  1  0  0  0  0
  4  3  1  0  0  0  0
  5  6  1  0  0  0  0
  5  4  1  0  0  0  0
  6  1  1  0  0  0  0
 12  4  1  0  0  0  0
 13  5  1  0  0  0  0
 14  5  1  0  0  0  0
 15  6  1  0  0  0  0
 16  6  1  0  0  0  0
 17 18  1  0  0  0  0
 18 23  1  0  0  0  0
 19 18  2  0  0  0  0
 19 20  1  0  0  0  0
 20 21  2  0  0  0  0
 21 25  1  0  0  0  0
 21 22  1  0  0  0  0
 22 26  1  0  0  0  0
 23 27  1  0  0  0  0
 23 22  2  0  0  0  0
 24 20  1  0  0  0  0
 27 28  1  0  0  0  0
 29 27  1  0  0  0  0
 30 35  1  0  0  0  0
 31 30  2  0  0  0  0
 32 31  1  0  0  0  0
 32 33  2  0  0  0  0
 33 34  1  0  0  0  0
 34 35  2  0  0  0  0
 34 38  1  0  0  0  0
 36 31  1  0  0  0  0
 37 32  1  0  0  0  0
 38 43  1  0  0  0  0
 38 39  2  0  0  0  0
 39 40  1  0  0  0  0
 39 41  1  0  0  0  0
 42 41  2  0  0  0  0
 43 42  1  0  0  0  0
M  END
>  <minimizedAffinity>
-6.25909281

$$$$

 OpenBabel03272506033D

 43 46  0  0  1  0  0  0  0  0999 V2000
   39.4480   25.8250   32.4230 C   0  0  2  0  0  0  0  0  0  0  0  0
   39.6690   24.8050   33.4400 C   0  0  0  0  0  0  0  0  0  0  0  0
   40.2220   25.3970   34.7740 C   0  0  2  0  0  0  0  0  0  0  0  0
   41.4630   26.1170   34.6220 C   0  0  0  0  0  0  0  0  0  0  0  0
   41.5510   26.9280   33.3240 C   0  0  0  0  0  0  0  0  0  0  0  0
   40.1850   27.1340   32.7350 C   0  0  0  0  0  0  0  0  0  0  0  0
   39.9030   25.5200   31.4330 H   0  0  0  0  0  0  0  0  0  0  0  0
   40.5570   24.1630   33.1130 H   0  0  0  0  0  0  0  0  0  0  0  0
   38.9260   24.1050   33.7500 H   0  0  0  0  0  0  0  0  0  0  0  0
   39.4150   26.0020   35.2200 H   0  0  0  0  0  0  0  0  0  0  0  0
   42.3400   25.4430   34.5910 H   0  0  0  0  0  0  0  0  0  0  0  0
   41.6260   26.7620   35.5090 H   0  0  0  0  0  0  0  0  0  0  0  0
   42.2720   26.5300   32.6140 H   0  0  0  0  0  0  0  0  0  0  0  0
   41.9100   27.9370   33.6100 H   0  0  0  0  0  0  0  0  0  0  0  0
   40.2840   27.7050   31.8090 H   0  0  0  0  0  0  0  0  0  0  0  0
   39.5850   27.7440   33.4400 H   0  0  0  0  0  0  0  0  0  0  0  0
   38.1360   24.9700   36.8190 Cl  0  0  0  0  0  0  0  0  0  0  0  0
   39.5090   23.9090   36.6480 C   0  0  0  0  0  0  0  0  0  0  0  0
   40.3910   24.1820   35.6320 C   0  0  0  0  0  0  0  0  0  0  0  0
   41.4310   23.2700   35.5440 C   0  0  0  0  0  0  0  0  0  0  0  0
   41.5690   22.1920   36.3960 C   0  0  0  0  0  0  0  0  0  0  0  0
   40.6310   21.9860   37.4040 C   0  0  0  0  0  0  0  0  0  0  0  0
   39.5650   22.8780   37.5310 C   0  0  0  0  0  0  0  0  0  0  0  0
   42.1650   23.4260   34.7570 H   0  0  0  0  0  0  0  0  0  0  0  0
   42.4200   21.5450   36.2370 H   0  0  0  0  0  0  0  0  0  0  0  0
   40.7510   21.1380   38.0650 H   0  0  0  0  0  0  0  0  0  0  0  0
   38.6110   22.6670   38.5560 N   0  0  0  0  0  0  0  0  0  0  0  0
   38.0000   21.8410   38.6590 H   0  0  0  0  0  0  0  0  0  0  0  0
   38.3710   23.2940   39.3600 H   0  0  0  0  0  0  0  0  0  0  0  0
   38.0600   26.1840   32.1480 C   0  0  0  0  0  0  0  0  0  0  0  0
   37.3390   25.1970   31.4920 C   0  0  0  0  0  0  0  0  0  0  0  0
   35.9960   25.4250   31.2050 C   0  0  0  0  0  0  0  0  0  0  0  0
   35.4370   26.6460   31.5930 N   0  0  0  0  0  0  0  0  0  0  0  0
   36.1700   27.5730   32.2230 C   0  0  0  0  0  0  0  0  0  0  0  0
   37.4560   27.3110   32.4800 N   0  0  0  0  0  0  0  0  0  0  0  0
   37.5000   24.2070   31.0880 H   0  0  0  0  0  0  0  0  0  0  0  0
   35.2440   24.8450   30.7240 H   0  0  0  0  0  0  0  0  0  0  0  0
   35.5840   28.8510   32.6300 C   0  0  0  0  0  0  0  0  0  0  0  0
   35.5550   29.1010   33.9340 C   0  0  0  0  0  0  0  0  0  0  0  0
   35.8800   28.5550   34.8400 H   0  0  0  0  0  0  0  0  0  0  0  0
   35.0720   30.1970   34.5810 C   0  0  0  0  0  3  0  0  0  0  0  0
   34.5480   31.1400   33.5510 C   0  0  0  0  0  3  0  0  0  0  0  0
   34.8430   30.2860   31.8920 S   0  0  0  0  0  0  0  0  0  0  0  0
  1  7  1  6  0  0  0
  1  6  1  0  0  0  0
  1  2  1  0  0  0  0
  2  9  1  0  0  0  0
  2  3  1  0  0  0  0
  3 10  1  1  0  0  0
  3 19  1  0  0  0  0
  4  3  1  0  0  0  0
  4 12  1  0  0  0  0
  5 14  1  0  0  0  0
  5  4  1  0  0  0  0
  6  5  1  0  0  0  0
  6 16  1  0  0  0  0
  8  2  1  0  0  0  0
 11  4  1  0  0  0  0
 13  5  1  0  0  0  0
 15  6  1  0  0  0  0
 18 17  1  0  0  0  0
 18 23  1  0  0  0  0
 19 18  2  0  0  0  0
 20 19  1  0  0  0  0
 20 21  2  0  0  0  0
 21 22  1  0  0  0  0
 22 23  2  0  0  0  0
 22 26  1  0  0  0  0
 23 27  1  0  0  0  0
 24 20  1  0  0  0  0
 25 21  1  0  0  0  0
 27 28  1  0  0  0  0
 27 29  1  0  0  0  0
 30  1  1  0  0  0  0
 30 35  1  0  0  0  0
 31 30  2  0  0  0  0
 32 31  1  0  0  0  0
 32 33  2  0  0  0  0
 33 34  1  0  0  0  0
 34 35  2  0  0  0  0
 34 38  1  0  0  0  0
 36 31  1  0  0  0  0
 37 32  1  0  0  0  0
 38 39  2  0  0  0  0
 39 41  1  0  0  0  0
 39 40  1  0  0  0  0
 42 41  2  0  0  0  0
 43 38  1  0  0  0  0
 43 42  1  0  0  0  0
M  END
>  <minimizedAffinity>
-6.20267344

$$$$

 OpenBabel03272506033D

 43 46  0  0  1  0  0  0  0  0999 V2000
   36.9110   28.2890   33.2950 C   0  0  2  0  0  0  0  0  0  0  0  0
   36.2620   29.1360   34.2860 C   0  0  0  0  0  0  0  0  0  0  0  0
   34.7370   29.3240   34.0090 C   0  0  2  0  0  0  0  0  0  0  0  0
   34.4450   29.8900   32.7150 C   0  0  0  0  0  0  0  0  0  0  0  0
   35.3750   29.3940   31.6020 C   0  0  0  0  0  0  0  0  0  0  0  0
   36.0750   28.1330   32.0180 C   0  0  0  0  0  0  0  0  0  0  0  0
   37.8610   28.7670   32.9070 H   0  0  0  0  0  0  0  0  0  0  0  0
   36.6340   30.2080   34.1370 H   0  0  0  0  0  0  0  0  0  0  0  0
   36.3210   28.9710   35.3380 H   0  0  0  0  0  0  0  0  0  0  0  0
   34.2540   28.3480   34.1830 H   0  0  0  0  0  0  0  0  0  0  0  0
   34.5540   30.9910   32.7010 H   0  0  0  0  0  0  0  0  0  0  0  0
   33.3830   29.7010   32.4620 H   0  0  0  0  0  0  0  0  0  0  0  0
   36.0510   30.1610   31.2300 H   0  0  0  0  0  0  0  0  0  0  0  0
   34.7210   29.1090   30.7520 H   0  0  0  0  0  0  0  0  0  0  0  0
   36.7360   27.8130   31.2090 H   0  0  0  0  0  0  0  0  0  0  0  0
   35.3160   27.3390   32.1610 H   0  0  0  0  0  0  0  0  0  0  0  0
   31.9730   28.9530   34.9760 Cl  0  0  0  0  0  0  0  0  0  0  0  0
   33.0290   30.1860   35.6130 C   0  0  0  0  0  0  0  0  0  0  0  0
   34.3080   30.2340   35.1180 C   0  0  0  0  0  0  0  0  0  0  0  0
   35.0900   31.2170   35.7040 C   0  0  0  0  0  0  0  0  0  0  0  0
   34.6280   32.0670   36.6900 C   0  0  0  0  0  0  0  0  0  0  0  0
   33.3140   31.9540   37.1370 C   0  0  0  0  0  0  0  0  0  0  0  0
   32.4890   30.9770   36.5760 C   0  0  0  0  0  0  0  0  0  0  0  0
   36.1170   31.3070   35.3600 H   0  0  0  0  0  0  0  0  0  0  0  0
   35.3240   32.7970   37.0760 H   0  0  0  0  0  0  0  0  0  0  0  0
   32.9650   32.6260   37.9090 H   0  0  0  0  0  0  0  0  0  0  0  0
   31.1530   30.8630   37.0320 N   0  0  0  0  0  0  0  0  0  0  0  0
   30.8550   30.6370   37.9950 H   0  0  0  0  0  0  0  0  0  0  0  0
   30.2670   30.9850   36.4870 H   0  0  0  0  0  0  0  0  0  0  0  0
   37.2730   26.9410   33.7240 C   0  0  0  0  0  0  0  0  0  0  0  0
   37.7200   26.8630   35.0340 C   0  0  0  0  0  0  0  0  0  0  0  0
   38.0660   25.6200   35.5530 C   0  0  0  0  0  0  0  0  0  0  0  0
   37.9460   24.5020   34.7230 N   0  0  0  0  0  0  0  0  0  0  0  0
   37.5110   24.6210   33.4620 C   0  0  0  0  0  0  0  0  0  0  0  0
   37.1900   25.8360   33.0050 N   0  0  0  0  0  0  0  0  0  0  0  0
   37.9080   27.5260   35.8670 H   0  0  0  0  0  0  0  0  0  0  0  0
   38.4260   25.2990   36.5030 H   0  0  0  0  0  0  0  0  0  0  0  0
   37.3850   23.4500   32.5920 C   0  0  0  0  0  0  0  0  0  0  0  0
   36.2110   23.2790   31.9960 C   0  0  0  0  0  0  0  0  0  0  0  0
   35.2520   23.8290   31.9920 H   0  0  0  0  0  0  0  0  0  0  0  0
   35.8230   22.2880   31.1470 C   0  0  0  0  0  3  0  0  0  0  0  0
   36.9790   21.3620   30.9680 C   0  0  0  0  0  3  0  0  0  0  0  0
   38.3660   22.0810   32.0320 S   0  0  0  0  0  0  0  0  0  0  0  0
  1  7  1  6  0  0  0
  1 30  1  0  0  0  0
  1  2  1  0  0  0  0
  2  9  1  0  0  0  0
  3 10  1  1  0  0  0
  3  2  1  0  0  0  0
  3 19  1  0  0  0  0
  4  3  1  0  0  0  0
  5  6  1  0  0  0  0
  5  4  1  0  0  0  0
  6 16  1  0  0  0  0
  6  1  1  0  0  0  0
  8  2  1  0  0  0  0
 11  4  1  0  0  0  0
 12  4  1  0  0  0  0
 13  5  1  0  0  0  0
 14  5  1  0  0  0  0
 15  6  1  0  0  0  0
 17 18  1  0  0  0  0
 18 23  1  0  0  0  0
 19 18  2  0  0  0  0
 19 20  1  0  0  0  0
 20 21  2  0  0  0  0
 21 25  1  0  0  0  0
 21 22  1  0  0  0  0
 22 26  1  0  0  0  0
 23 27  1  0  0  0  0
 23 22  2  0  0  0  0
 24 20  1  0  0  0  0
 27 28  1  0  0  0  0
 29 27  1  0  0  0  0
 30 31  1  0  0  0  0
 31 32  2  0  0  0  0
 31 36  1  0  0  0  0
 32 37  1  0  0  0  0
 33 32  1  0  0  0  0
 34 33  2  0  0  0  0
 35 34  1  0  0  0  0
 35 30  2  0  0  0  0
 38 34  1  0  0  0  0
 39 38  2  0  0  0  0
 40 39  1  0  0  0  0
 41 39  1  0  0  0  0
 42 41  2  0  0  0  0
 42 43  1  0  0  0  0
 43 38  1  0  0  0  0
M  END
>  <minimizedAffinity>
-6.02863836

$$$$

 OpenBabel03272506033D

 43 46  0  0  1  0  0  0  0  0999 V2000
   37.4560   27.0780   31.6770 C   0  0  2  0  0  0  0  0  0  0  0  0
   37.3550   26.1590   32.8030 C   0  0  0  0  0  0  0  0  0  0  0  0
   38.6860   26.0490   33.6100 C   0  0  2  0  0  0  0  0  0  0  0  0
   39.8140   25.6220   32.8190 C   0  0  0  0  0  0  0  0  0  0  0  0
   39.8200   26.1940   31.3960 C   0  0  0  0  0  0  0  0  0  0  0  0
   38.9110   27.3850   31.3000 C   0  0  0  0  0  0  0  0  0  0  0  0
   37.0530   26.6090   30.7300 H   0  0  0  0  0  0  0  0  0  0  0  0
   37.2740   25.0960   32.3890 H   0  0  0  0  0  0  0  0  0  0  0  0
   36.5960   26.2190   33.5520 H   0  0  0  0  0  0  0  0  0  0  0  0
   38.8420   27.0180   34.1120 H   0  0  0  0  0  0  0  0  0  0  0  0
   39.8410   24.5240   32.6790 H   0  0  0  0  0  0  0  0  0  0  0  0
   40.7530   25.8680   33.3520 H   0  0  0  0  0  0  0  0  0  0  0  0
   39.6340   25.4450   30.6290 H   0  0  0  0  0  0  0  0  0  0  0  0
   40.8440   26.5810   31.2200 H   0  0  0  0  0  0  0  0  0  0  0  0
   38.9310   27.7610   30.2740 H   0  0  0  0  0  0  0  0  0  0  0  0
   39.3080   28.1850   31.9550 H   0  0  0  0  0  0  0  0  0  0  0  0
   38.4130   27.1250   36.3450 Cl  0  0  0  0  0  0  0  0  0  0  0  0
   38.2460   25.4270   35.9880 C   0  0  0  0  0  0  0  0  0  0  0  0
   38.3490   25.0490   34.6720 C   0  0  0  0  0  0  0  0  0  0  0  0
   38.1680   23.6890   34.4730 C   0  0  0  0  0  0  0  0  0  0  0  0
   37.9090   22.8000   35.4980 C   0  0  0  0  0  0  0  0  0  0  0  0
   37.8210   23.2640   36.8070 C   0  0  0  0  0  0  0  0  0  0  0  0
   37.9960   24.6260   37.0570 C   0  0  0  0  0  0  0  0  0  0  0  0
   38.2330   23.3230   33.4520 H   0  0  0  0  0  0  0  0  0  0  0  0
   37.7860   21.7610   35.2280 H   0  0  0  0  0  0  0  0  0  0  0  0
   37.6190   22.5570   37.6000 H   0  0  0  0  0  0  0  0  0  0  0  0
   37.9060   25.0970   38.3900 N   0  0  0  0  0  0  0  0  0  0  0  0
   37.0770   25.0380   39.0010 H   0  0  0  0  0  0  0  0  0  0  0  0
   38.6430   25.5720   38.9630 H   0  0  0  0  0  0  0  0  0  0  0  0
   36.7820   28.3650   31.8220 C   0  0  0  0  0  0  0  0  0  0  0  0
   36.7390   29.1160   30.6560 C   0  0  0  0  0  0  0  0  0  0  0  0
   36.0950   30.3490   30.6760 C   0  0  0  0  0  0  0  0  0  0  0  0
   35.5220   30.7750   31.8770 N   0  0  0  0  0  0  0  0  0  0  0  0
   35.5880   30.0190   32.9800 C   0  0  0  0  0  0  0  0  0  0  0  0
   36.2150   28.8400   32.9160 N   0  0  0  0  0  0  0  0  0  0  0  0
   37.0810   29.0460   29.6330 H   0  0  0  0  0  0  0  0  0  0  0  0
   35.9270   31.0970   29.9360 H   0  0  0  0  0  0  0  0  0  0  0  0
   34.9860   30.4650   34.2390 C   0  0  0  0  0  0  0  0  0  0  0  0
   35.7650   31.1690   35.0510 C   0  0  0  0  0  0  0  0  0  0  0  0
   36.8120   31.5230   35.0140 H   0  0  0  0  0  0  0  0  0  0  0  0
   35.4670   31.7010   36.2690 C   0  0  0  0  0  3  0  0  0  0  0  0
   34.0480   31.3580   36.5810 C   0  0  0  0  0  3  0  0  0  0  0  0
   33.4350   30.3610   35.0970 S   0  0  0  0  0  0  0  0  0  0  0  0
  1  7  1  6  0  0  0
  1 30  1  0  0  0  0
  1  2  1  0  0  0  0
  2  9  1  0  0  0  0
  2  3  1  0  0  0  0
  3 10  1  1  0  0  0
  3 19  1  0  0  0  0
  4 12  1  0  0  0  0
  4  3  1  0  0  0  0
  5  4  1  0  0  0  0
  6  5  1  0  0  0  0
  6  1  1  0  0  0  0
  6 16  1  0  0  0  0
  8  2  1  0  0  0  0
 11  4  1  0  0  0  0
 13  5  1  0  0  0  0
 14  5  1  0  0  0  0
 15  6  1  0  0  0  0
 18 17  1  0  0  0  0
 18 23  1  0  0  0  0
 19 18  2  0  0  0  0
 20 19  1  0  0  0  0
 20 21  2  0  0  0  0
 21 22  1  0  0  0  0
 22 23  2  0  0  0  0
 22 26  1  0  0  0  0
 23 27  1  0  0  0  0
 24 20  1  0  0  0  0
 25 21  1  0  0  0  0
 27 29  1  0  0  0  0
 27 28  1  0  0  0  0
 30 35  1  0  0  0  0
 31 32  1  0  0  0  0
 31 30  2  0  0  0  0
 32 33  2  0  0  0  0
 33 34  1  0  0  0  0
 34 38  1  0  0  0  0
 35 34  2  0  0  0  0
 36 31  1  0  0  0  0
 37 32  1  0  0  0  0
 38 39  2  0  0  0  0
 38 43  1  0  0  0  0
 39 41  1  0  0  0  0
 40 39  1  0  0  0  0
 41 42  2  0  0  0  0
 43 42  1  0  0  0  0
M  END
>  <minimizedAffinity>
-5.9190464

$$$$

 OpenBabel03272506033D

 43 46  0  0  1  0  0  0  0  0999 V2000
   34.8580   30.9810   33.8430 C   0  0  2  0  0  0  0  0  0  0  0  0
   33.9980   30.0700   34.5860 C   0  0  0  0  0  0  0  0  0  0  0  0
   32.4810   30.3260   34.3210 C   0  0  2  0  0  0  0  0  0  0  0  0
   32.0520   31.6660   34.6410 C   0  0  0  0  0  0  0  0  0  0  0  0
   33.0870   32.7430   34.2970 C   0  0  0  0  0  0  0  0  0  0  0  0
   34.1020   32.2130   33.3270 C   0  0  0  0  0  0  0  0  0  0  0  0
   35.6430   31.4420   34.5160 H   0  0  0  0  0  0  0  0  0  0  0  0
   34.0640   30.3420   35.6950 H   0  0  0  0  0  0  0  0  0  0  0  0
   34.0950   29.0080   34.5590 H   0  0  0  0  0  0  0  0  0  0  0  0
   32.2810   30.0380   33.2760 H   0  0  0  0  0  0  0  0  0  0  0  0
   31.8560   31.8000   35.7220 H   0  0  0  0  0  0  0  0  0  0  0  0
   31.0820   31.8700   34.1440 H   0  0  0  0  0  0  0  0  0  0  0  0
   33.5300   33.2110   35.1740 H   0  0  0  0  0  0  0  0  0  0  0  0
   32.5390   33.5400   33.7540 H   0  0  0  0  0  0  0  0  0  0  0  0
   34.8280   33.0000   33.1120 H   0  0  0  0  0  0  0  0  0  0  0  0
   33.5870   31.9660   32.3770 H   0  0  0  0  0  0  0  0  0  0  0  0
   32.8000   30.7300   37.2280 Cl  0  0  0  0  0  0  0  0  0  0  0  0
   31.9370   29.3700   36.5620 C   0  0  0  0  0  0  0  0  0  0  0  0
   31.8150   29.3110   35.1960 C   0  0  0  0  0  0  0  0  0  0  0  0
   31.0840   28.2190   34.7540 C   0  0  0  0  0  0  0  0  0  0  0  0
   30.5330   27.2810   35.6040 C   0  0  0  0  0  0  0  0  0  0  0  0
   30.7040   27.4110   36.9800 C   0  0  0  0  0  0  0  0  0  0  0  0
   31.4320   28.4960   37.4720 C   0  0  0  0  0  0  0  0  0  0  0  0
   30.9460   28.1140   33.6810 H   0  0  0  0  0  0  0  0  0  0  0  0
   29.9820   26.4690   35.1500 H   0  0  0  0  0  0  0  0  0  0  0  0
   30.2680   26.6690   37.6340 H   0  0  0  0  0  0  0  0  0  0  0  0
   31.6050   28.6280   38.8710 N   0  0  0  0  0  0  0  0  0  0  0  0
   30.8540   28.7480   39.5690 H   0  0  0  0  0  0  0  0  0  0  0  0
   32.4980   28.6260   39.4190 H   0  0  0  0  0  0  0  0  0  0  0  0
   35.5710   30.4210   32.7000 C   0  0  0  0  0  0  0  0  0  0  0  0
   36.0560   31.3700   31.8120 C   0  0  0  0  0  0  0  0  0  0  0  0
   36.7760   30.9450   30.7000 C   0  0  0  0  0  0  0  0  0  0  0  0
   36.9750   29.5720   30.5290 N   0  0  0  0  0  0  0  0  0  0  0  0
   36.4880   28.6880   31.4090 C   0  0  0  0  0  0  0  0  0  0  0  0
   35.8030   29.1410   32.4640 N   0  0  0  0  0  0  0  0  0  0  0  0
   36.0540   32.4450   31.6940 H   0  0  0  0  0  0  0  0  0  0  0  0
   37.2430   31.4580   29.8920 H   0  0  0  0  0  0  0  0  0  0  0  0
   36.6970   27.2500   31.2310 C   0  0  0  0  0  0  0  0  0  0  0  0
   35.6130   26.4840   31.2730 C   0  0  0  0  0  0  0  0  0  0  0  0
   34.5330   26.6700   31.4180 H   0  0  0  0  0  0  0  0  0  0  0  0
   35.5190   25.1320   31.1390 C   0  0  0  0  0  3  0  0  0  0  0  0
   36.8960   24.5990   30.9230 C   0  0  0  0  0  3  0  0  0  0  0  0
   38.0300   26.1100   30.9550 S   0  0  0  0  0  0  0  0  0  0  0  0
  1  7  1  1  0  0  0
  1  2  1  0  0  0  0
  2  8  1  0  0  0  0
  3 10  1  6  0  0  0
  3  2  1  0  0  0  0
  3  4  1  0  0  0  0
  3 19  1  0  0  0  0
  4 11  1  0  0  0  0
  5  4  1  0  0  0  0
  5 13  1  0  0  0  0
  6  1  1  0  0  0  0
  6  5  1  0  0  0  0
  9  2  1  0  0  0  0
 12  4  1  0  0  0  0
 14  5  1  0  0  0  0
 15  6  1  0  0  0  0
 16  6  1  0  0  0  0
 18 17  1  0  0  0  0
 18 23  1  0  0  0  0
 19 18  2  0  0  0  0
 20 19  1  0  0  0  0
 20 21  2  0  0  0  0
 21 22  1  0  0  0  0
 22 23  2  0  0  0  0
 22 26  1  0  0  0  0
 23 27  1  0  0  0  0
 24 20  1  0  0  0  0
 25 21  1  0  0  0  0
 27 29  1  0  0  0  0
 27 28  1  0  0  0  0
 30  1  1  0  0  0  0
 31 30  2  0  0  0  0
 32 31  1  0  0  0  0
 33 32  2  0  0  0  0
 33 34  1  0  0  0  0
 34 35  2  0  0  0  0
 35 30  1  0  0  0  0
 36 31  1  0  0  0  0
 37 32  1  0  0  0  0
 38 39  2  0  0  0  0
 38 34  1  0  0  0  0
 39 40  1  0  0  0  0
 41 39  1  0  0  0  0
 42 43  1  0  0  0  0
 42 41  2  0  0  0  0
 43 38  1  0  0  0  0
M  END
>  <minimizedAffinity>
-5.90139627

$$$$
