
 OpenBabel03272502313D

 24 25  0  0  1  0  0  0  0  0999 V2000
   38.1780   30.9230   47.4240 C   0  0  2  0  0  0  0  0  0  0  0  0
   38.8260   30.0760   47.8640 H   0  0  0  0  0  0  0  0  0  0  0  0
   38.8230   32.1490   47.7300 C   0  0  0  0  0  0  0  0  0  0  0  0
   39.6780   33.1530   47.2180 C   0  0  0  0  0  0  0  0  0  0  0  0
   39.9610   32.8870   46.2230 H   0  0  0  0  0  0  0  0  0  0  0  0
   39.9820   34.2260   48.0160 C   0  0  0  0  0  3  0  0  0  0  0  0
   39.4050   34.2500   49.3130 C   0  0  0  0  0  3  0  0  0  0  0  0
   38.4430   32.7320   49.3640 S   0  0  0  0  0  0  0  0  0  0  0  0
   39.1200   30.1620   45.3660 C   0  0  0  0  0  3  0  0  0  0  0  0
   38.0770   30.6630   45.9520 C   0  0  0  0  0  3  0  0  0  0  0  0
   39.2190   30.7530   41.6810 C   0  0  0  0  0  0  0  0  0  0  0  0
   39.1790   30.9580   43.0640 C   0  0  0  0  0  0  0  0  0  0  0  0
   39.1550   29.8940   43.9570 C   0  0  0  0  0  0  0  0  0  0  0  0
   39.1700   28.6630   43.4220 N   0  0  0  0  0  0  0  0  0  0  0  0
   39.2080   28.4590   42.1050 C   0  0  0  0  0  0  0  0  0  0  0  0
   39.2320   29.4800   41.2270 N   0  0  0  0  0  0  0  0  0  0  0  0
   39.2430   31.5840   40.9990 H   0  0  0  0  0  0  0  0  0  0  0  0
   39.1800   31.9940   43.3520 H   0  0  0  0  0  0  0  0  0  0  0  0
   39.2040   27.4420   41.7720 H   0  0  0  0  0  0  0  0  0  0  0  0
   36.5310   30.7610   48.1410 S   0  0  0  0  0  0  0  0  0  0  0  0
   36.5470   29.6780   49.5700 C   0  0  0  0  0  0  0  0  0  0  0  0
   37.8340   29.3170   49.9500 F   0  0  0  0  0  0  0  0  0  0  0  0
   35.8050   30.1740   50.6230 F   0  0  0  0  0  0  0  0  0  0  0  0
   35.8830   28.4860   49.1840 F   0  0  0  0  0  0  0  0  0  0  0  0
  1  3  1  0  0  0  0
  1  2  1  1  0  0  0
  1 20  1  0  0  0  0
  3  8  1  0  0  0  0
  4  3  2  0  0  0  0
  4  6  1  0  0  0  0
  5  4  1  0  0  0  0
  6  7  2  0  0  0  0
  7  8  1  0  0  0  0
  9 10  2  0  0  0  0
 10  1  1  0  0  0  0
 11 12  1  0  0  0  0
 12 18  1  0  0  0  0
 12 13  2  0  0  0  0
 13  9  1  0  0  0  0
 14 13  1  0  0  0  0
 15 14  2  0  0  0  0
 16 11  2  0  0  0  0
 16 15  1  0  0  0  0
 17 11  1  0  0  0  0
 19 15  1  0  0  0  0
 20 21  1  0  0  0  0
 21 22  1  0  0  0  0
 21 23  1  0  0  0  0
 24 21  1  0  0  0  0
M  END
>  <minimizedAffinity>
-4.76974869

>  <minimizedRMSD>
3.4335742

$$$$
