
 OpenBabel03272508193D

 28 30  0  0  0  0  0  0  0  0999 V2000
   38.0880   25.1050   36.2610 C   0  0  0  0  0  0  0  0  0  0  0  0
   38.0890   23.8060   35.7470 C   0  0  0  0  0  0  0  0  0  0  0  0
   38.0390   22.8230   36.7050 C   0  0  0  0  0  0  0  0  0  0  0  0
   37.9910   23.1040   38.0320 N   0  0  0  0  0  0  0  0  0  0  0  0
   37.9920   24.3680   38.4910 C   0  0  0  0  0  0  0  0  0  0  0  0
   38.0410   25.3790   37.6090 N   0  0  0  0  0  0  0  0  0  0  0  0
   38.0520   21.7610   36.5370 H   0  0  0  0  0  0  0  0  0  0  0  0
   37.9540   24.5750   39.5490 H   0  0  0  0  0  0  0  0  0  0  0  0
   38.0620   26.2300   35.2380 C   0  0  0  0  0  0  0  0  0  0  0  0
   38.2040   27.5850   35.6200 C   0  0  0  0  0  0  0  0  0  0  0  0
   39.4870   26.8910   35.2040 C   0  0  0  0  0  0  0  0  0  0  0  0
   37.8180   25.8520   34.2150 H   0  0  0  0  0  0  0  0  0  0  0  0
   37.8400   28.3760   34.9040 H   0  0  0  0  0  0  0  0  0  0  0  0
   38.1510   27.9400   36.6630 H   0  0  0  0  0  0  0  0  0  0  0  0
   40.2120   26.6120   35.9600 H   0  0  0  0  0  0  0  0  0  0  0  0
   39.8790   27.0120   34.2040 H   0  0  0  0  0  0  0  0  0  0  0  0
   38.1850   23.4850   34.3420 C   0  0  0  0  0  0  0  0  0  0  0  0
   38.9320   24.1400   33.8520 H   0  0  0  0  0  0  0  0  0  0  0  0
   37.2010   23.8630   33.8840 H   0  0  0  0  0  0  0  0  0  0  0  0
   38.2690   22.0960   33.8900 C   0  0  0  0  0  0  0  0  0  0  0  0
   38.5120   21.3490   34.6810 H   0  0  0  0  0  0  0  0  0  0  0  0
   39.0390   22.0120   33.1080 H   0  0  0  0  0  0  0  0  0  0  0  0
   36.9840   21.5500   33.2930 C   0  0  0  0  0  0  0  0  0  0  0  0
   36.6150   21.9850   32.0610 C   0  0  0  0  0  0  0  0  0  0  0  0
   37.1370   22.7050   31.3980 H   0  0  0  0  0  0  0  0  0  0  0  0
   35.5280   21.6480   31.3550 C   0  0  0  0  0  3  0  0  0  0  0  0
   34.7470   20.7220   32.0770 C   0  0  0  0  0  3  0  0  0  0  0  0
   35.6830   20.4550   33.6910 S   0  0  0  0  0  0  0  0  0  0  0  0
  1  6  1  0  0  0  0
  2  1  2  0  0  0  0
  2  3  1  0  0  0  0
  3  4  2  0  0  0  0
  4  5  1  0  0  0  0
  5  8  1  0  0  0  0
  6  5  2  0  0  0  0
  7  3  1  0  0  0  0
  9 10  1  0  0  0  0
  9  1  1  0  0  0  0
 10 14  1  0  0  0  0
 11  9  1  0  0  0  0
 11 10  1  0  0  0  0
 11 15  1  0  0  0  0
 12  9  1  0  0  0  0
 13 10  1  0  0  0  0
 16 11  1  0  0  0  0
 17  2  1  0  0  0  0
 18 17  1  0  0  0  0
 19 17  1  0  0  0  0
 20 17  1  0  0  0  0
 20 21  1  0  0  0  0
 22 20  1  0  0  0  0
 23 28  1  0  0  0  0
 23 20  1  0  0  0  0
 24 23  2  0  0  0  0
 25 24  1  0  0  0  0
 26 24  1  0  0  0  0
 26 27  2  0  0  0  0
 27 28  1  0  0  0  0
M  END
>  <minimizedAffinity>
-4.45540285

$$$$

 OpenBabel03272508193D

 28 30  0  0  0  0  0  0  0  0999 V2000
   36.4930   26.6500   32.1930 C   0  0  0  0  0  0  0  0  0  0  0  0
   37.1410   25.5770   32.8120 C   0  0  0  0  0  0  0  0  0  0  0  0
   36.7140   24.3420   32.3880 C   0  0  0  0  0  0  0  0  0  0  0  0
   35.7460   24.1920   31.4480 N   0  0  0  0  0  0  0  0  0  0  0  0
   35.1430   25.2480   30.8750 C   0  0  0  0  0  0  0  0  0  0  0  0
   35.5110   26.4860   31.2430 N   0  0  0  0  0  0  0  0  0  0  0  0
   37.0570   23.3870   32.7430 H   0  0  0  0  0  0  0  0  0  0  0  0
   34.3750   25.1120   30.1300 H   0  0  0  0  0  0  0  0  0  0  0  0
   36.9860   28.0380   32.5700 C   0  0  0  0  0  0  0  0  0  0  0  0
   36.2900   29.2060   32.1790 C   0  0  0  0  0  0  0  0  0  0  0  0
   35.9420   28.6750   33.5560 C   0  0  0  0  0  0  0  0  0  0  0  0
   37.9810   27.9990   33.0780 H   0  0  0  0  0  0  0  0  0  0  0  0
   36.8550   30.1800   32.1740 H   0  0  0  0  0  0  0  0  0  0  0  0
   35.4750   29.2170   31.4350 H   0  0  0  0  0  0  0  0  0  0  0  0
   34.9940   28.1730   33.7110 H   0  0  0  0  0  0  0  0  0  0  0  0
   36.3940   29.1020   34.4400 H   0  0  0  0  0  0  0  0  0  0  0  0
   38.1410   25.7150   33.8460 C   0  0  0  0  0  0  0  0  0  0  0  0
   38.8190   26.5580   33.6080 H   0  0  0  0  0  0  0  0  0  0  0  0
   38.8330   24.8080   33.7120 H   0  0  0  0  0  0  0  0  0  0  0  0
   37.7730   25.6680   35.2610 C   0  0  0  0  0  0  0  0  0  0  0  0
   36.7030   25.4370   35.4700 H   0  0  0  0  0  0  0  0  0  0  0  0
   38.0010   26.6370   35.7300 H   0  0  0  0  0  0  0  0  0  0  0  0
   38.5100   24.6130   36.0670 C   0  0  0  0  0  0  0  0  0  0  0  0
   38.0660   24.3400   37.3210 C   0  0  0  0  0  0  0  0  0  0  0  0
   37.2080   24.7880   37.8630 H   0  0  0  0  0  0  0  0  0  0  0  0
   38.5640   23.4630   38.2030 C   0  0  0  0  0  3  0  0  0  0  0  0
   39.6800   22.8010   37.6530 C   0  0  0  0  0  3  0  0  0  0  0  0
   39.8720   23.5310   35.9250 S   0  0  0  0  0  0  0  0  0  0  0  0
  1  9  1  0  0  0  0
  1  2  1  0  0  0  0
  2 17  1  0  0  0  0
  3  7  1  0  0  0  0
  3  2  2  0  0  0  0
  4  3  1  0  0  0  0
  5  6  1  0  0  0  0
  5  4  2  0  0  0  0
  6  1  2  0  0  0  0
  8  5  1  0  0  0  0
  9 12  1  0  0  0  0
  9 11  1  0  0  0  0
 10  9  1  0  0  0  0
 10 11  1  0  0  0  0
 11 15  1  0  0  0  0
 11 16  1  0  0  0  0
 13 10  1  0  0  0  0
 14 10  1  0  0  0  0
 17 20  1  0  0  0  0
 18 17  1  0  0  0  0
 19 17  1  0  0  0  0
 20 21  1  0  0  0  0
 20 22  1  0  0  0  0
 20 23  1  0  0  0  0
 23 24  2  0  0  0  0
 24 25  1  0  0  0  0
 24 26  1  0  0  0  0
 27 26  2  0  0  0  0
 28 23  1  0  0  0  0
 28 27  1  0  0  0  0
M  END
>  <minimizedAffinity>
-4.44102716

$$$$

 OpenBabel03272508193D

 28 30  0  0  0  0  0  0  0  0999 V2000
   34.4360   30.4040   34.7460 C   0  0  0  0  0  0  0  0  0  0  0  0
   34.6380   29.7090   33.5510 C   0  0  0  0  0  0  0  0  0  0  0  0
   33.4790   29.3600   32.9010 C   0  0  0  0  0  0  0  0  0  0  0  0
   32.2520   29.6720   33.3880 N   0  0  0  0  0  0  0  0  0  0  0  0
   32.0950   30.3430   34.5430 C   0  0  0  0  0  0  0  0  0  0  0  0
   33.1860   30.7140   35.2320 N   0  0  0  0  0  0  0  0  0  0  0  0
   33.4000   28.8060   31.9830 H   0  0  0  0  0  0  0  0  0  0  0  0
   31.1120   30.5830   34.9170 H   0  0  0  0  0  0  0  0  0  0  0  0
   35.6880   30.8820   35.4640 C   0  0  0  0  0  0  0  0  0  0  0  0
   36.1160   32.2290   35.3960 C   0  0  0  0  0  0  0  0  0  0  0  0
   35.2520   31.8840   36.5920 C   0  0  0  0  0  0  0  0  0  0  0  0
   36.2440   30.0330   35.9330 H   0  0  0  0  0  0  0  0  0  0  0  0
   37.1940   32.4530   35.6380 H   0  0  0  0  0  0  0  0  0  0  0  0
   35.7060   32.9700   34.6890 H   0  0  0  0  0  0  0  0  0  0  0  0
   34.2220   32.2210   36.6230 H   0  0  0  0  0  0  0  0  0  0  0  0
   35.7010   31.6700   37.5520 H   0  0  0  0  0  0  0  0  0  0  0  0
   35.9340   29.3280   33.0390 C   0  0  0  0  0  0  0  0  0  0  0  0
   36.7280   29.9180   33.5380 H   0  0  0  0  0  0  0  0  0  0  0  0
   35.9640   29.7450   31.9690 H   0  0  0  0  0  0  0  0  0  0  0  0
   36.2960   27.9190   32.8760 C   0  0  0  0  0  0  0  0  0  0  0  0
   36.5370   27.6050   31.8330 H   0  0  0  0  0  0  0  0  0  0  0  0
   35.4690   27.2860   33.2310 H   0  0  0  0  0  0  0  0  0  0  0  0
   37.5310   27.4940   33.6500 C   0  0  0  0  0  0  0  0  0  0  0  0
   37.4930   27.5650   35.0050 C   0  0  0  0  0  0  0  0  0  0  0  0
   36.6570   27.8960   35.6560 H   0  0  0  0  0  0  0  0  0  0  0  0
   38.4590   27.2530   35.8780 C   0  0  0  0  0  3  0  0  0  0  0  0
   39.6080   26.8070   35.1930 C   0  0  0  0  0  3  0  0  0  0  0  0
   39.1470   26.8970   33.3680 S   0  0  0  0  0  0  0  0  0  0  0  0
  1  6  1  0  0  0  0
  1  9  1  0  0  0  0
  2  1  2  0  0  0  0
  3  4  2  0  0  0  0
  3  2  1  0  0  0  0
  4  5  1  0  0  0  0
  5  8  1  0  0  0  0
  5  6  2  0  0  0  0
  7  3  1  0  0  0  0
  9 12  1  0  0  0  0
  9 11  1  0  0  0  0
 10  9  1  0  0  0  0
 10 13  1  0  0  0  0
 10 11  1  0  0  0  0
 11 15  1  0  0  0  0
 11 16  1  0  0  0  0
 14 10  1  0  0  0  0
 17 18  1  0  0  0  0
 17  2  1  0  0  0  0
 19 17  1  0  0  0  0
 20 17  1  0  0  0  0
 20 22  1  0  0  0  0
 20 23  1  0  0  0  0
 21 20  1  0  0  0  0
 23 24  2  0  0  0  0
 24 25  1  0  0  0  0
 24 26  1  0  0  0  0
 27 26  2  0  0  0  0
 28 23  1  0  0  0  0
 28 27  1  0  0  0  0
M  END
>  <minimizedAffinity>
-4.41290855

$$$$

 OpenBabel03272508193D

 28 30  0  0  0  0  0  0  0  0999 V2000
   37.0770   26.6750   33.5780 C   0  0  0  0  0  0  0  0  0  0  0  0
   36.3810   27.5490   32.7380 C   0  0  0  0  0  0  0  0  0  0  0  0
   36.0260   27.0020   31.5290 C   0  0  0  0  0  0  0  0  0  0  0  0
   36.3310   25.7220   31.1940 N   0  0  0  0  0  0  0  0  0  0  0  0
   37.0020   24.9090   32.0280 C   0  0  0  0  0  0  0  0  0  0  0  0
   37.3820   25.3800   33.2270 N   0  0  0  0  0  0  0  0  0  0  0  0
   35.5100   27.4970   30.7270 H   0  0  0  0  0  0  0  0  0  0  0  0
   37.2370   23.8950   31.7470 H   0  0  0  0  0  0  0  0  0  0  0  0
   37.4220   27.2080   34.9600 C   0  0  0  0  0  0  0  0  0  0  0  0
   38.0830   26.4070   35.9210 C   0  0  0  0  0  0  0  0  0  0  0  0
   38.9870   27.2820   35.0760 C   0  0  0  0  0  0  0  0  0  0  0  0
   37.0010   28.2300   35.1250 H   0  0  0  0  0  0  0  0  0  0  0  0
   38.0050   26.7100   37.0040 H   0  0  0  0  0  0  0  0  0  0  0  0
   38.2210   25.3170   35.8250 H   0  0  0  0  0  0  0  0  0  0  0  0
   39.5920   26.8310   34.2980 H   0  0  0  0  0  0  0  0  0  0  0  0
   39.3440   28.2310   35.4530 H   0  0  0  0  0  0  0  0  0  0  0  0
   36.0880   28.9270   33.0570 C   0  0  0  0  0  0  0  0  0  0  0  0
   36.6140   29.6010   32.3530 H   0  0  0  0  0  0  0  0  0  0  0  0
   36.6460   29.1280   34.0410 H   0  0  0  0  0  0  0  0  0  0  0  0
   34.7190   29.3600   33.3370 C   0  0  0  0  0  0  0  0  0  0  0  0
   33.9930   28.5430   33.5550 H   0  0  0  0  0  0  0  0  0  0  0  0
   34.3320   29.9260   32.4750 H   0  0  0  0  0  0  0  0  0  0  0  0
   34.5810   30.2660   34.5470 C   0  0  0  0  0  0  0  0  0  0  0  0
   35.7090   30.8190   35.0640 C   0  0  0  0  0  0  0  0  0  0  0  0
   36.7560   30.7070   34.7150 H   0  0  0  0  0  0  0  0  0  0  0  0
   35.8220   31.6320   36.1220 C   0  0  0  0  0  3  0  0  0  0  0  0
   34.5540   31.8750   36.6870 C   0  0  0  0  0  3  0  0  0  0  0  0
   33.3520   30.8940   35.6160 S   0  0  0  0  0  0  0  0  0  0  0  0
  1  9  1  0  0  0  0
  2 17  1  0  0  0  0
  2  1  2  0  0  0  0
  3  2  1  0  0  0  0
  4  3  2  0  0  0  0
  4  5  1  0  0  0  0
  5  6  2  0  0  0  0
  6  1  1  0  0  0  0
  7  3  1  0  0  0  0
  8  5  1  0  0  0  0
  9 11  1  0  0  0  0
  9 12  1  0  0  0  0
  9 10  1  0  0  0  0
 10 13  1  0  0  0  0
 11 16  1  0  0  0  0
 11 10  1  0  0  0  0
 14 10  1  0  0  0  0
 15 11  1  0  0  0  0
 17 20  1  0  0  0  0
 17 19  1  0  0  0  0
 18 17  1  0  0  0  0
 20 21  1  0  0  0  0
 20 23  1  0  0  0  0
 22 20  1  0  0  0  0
 23 24  2  0  0  0  0
 23 28  1  0  0  0  0
 24 26  1  0  0  0  0
 25 24  1  0  0  0  0
 26 27  2  0  0  0  0
 28 27  1  0  0  0  0
M  END
>  <minimizedAffinity>
-4.38204384

$$$$

 OpenBabel03272508193D

 28 30  0  0  0  0  0  0  0  0999 V2000
   39.0830   25.0340   35.8310 C   0  0  0  0  0  0  0  0  0  0  0  0
   39.1750   26.3690   35.4280 C   0  0  0  0  0  0  0  0  0  0  0  0
   40.3530   26.6860   34.7980 C   0  0  0  0  0  0  0  0  0  0  0  0
   41.3340   25.7710   34.5900 N   0  0  0  0  0  0  0  0  0  0  0  0
   41.2120   24.4940   34.9920 C   0  0  0  0  0  0  0  0  0  0  0  0
   40.0850   24.1150   35.6170 N   0  0  0  0  0  0  0  0  0  0  0  0
   40.6430   27.6530   34.4280 H   0  0  0  0  0  0  0  0  0  0  0  0
   42.0010   23.7790   34.8200 H   0  0  0  0  0  0  0  0  0  0  0  0
   37.7660   24.6130   36.4620 C   0  0  0  0  0  0  0  0  0  0  0  0
   37.5810   23.3200   37.0050 C   0  0  0  0  0  0  0  0  0  0  0  0
   38.0120   24.3830   37.9970 C   0  0  0  0  0  0  0  0  0  0  0  0
   36.9790   25.3990   36.3390 H   0  0  0  0  0  0  0  0  0  0  0  0
   36.5250   22.9490   37.1370 H   0  0  0  0  0  0  0  0  0  0  0  0
   38.2790   22.4800   36.8480 H   0  0  0  0  0  0  0  0  0  0  0  0
   39.0290   24.3850   38.3700 H   0  0  0  0  0  0  0  0  0  0  0  0
   37.2840   24.8760   38.6260 H   0  0  0  0  0  0  0  0  0  0  0  0
   38.1620   27.3680   35.6800 C   0  0  0  0  0  0  0  0  0  0  0  0
   38.6370   28.3400   35.9150 H   0  0  0  0  0  0  0  0  0  0  0  0
   37.7030   27.0760   36.6930 H   0  0  0  0  0  0  0  0  0  0  0  0
   37.0020   27.5040   34.7980 C   0  0  0  0  0  0  0  0  0  0  0  0
   36.6740   28.5510   34.5980 H   0  0  0  0  0  0  0  0  0  0  0  0
   36.1470   26.9650   35.2330 H   0  0  0  0  0  0  0  0  0  0  0  0
   37.2050   26.9420   33.4020 C   0  0  0  0  0  0  0  0  0  0  0  0
   37.6250   27.7880   32.4260 C   0  0  0  0  0  0  0  0  0  0  0  0
   37.8560   28.8700   32.5030 H   0  0  0  0  0  0  0  0  0  0  0  0
   37.8580   27.5130   31.1360 C   0  0  0  0  0  3  0  0  0  0  0  0
   37.6050   26.1510   30.8760 C   0  0  0  0  0  3  0  0  0  0  0  0
   37.0590   25.4360   32.5320 S   0  0  0  0  0  0  0  0  0  0  0  0
  1  9  1  0  0  0  0
  2 17  1  0  0  0  0
  2  1  2  0  0  0  0
  3  2  1  0  0  0  0
  4  3  2  0  0  0  0
  4  5  1  0  0  0  0
  5  6  2  0  0  0  0
  6  1  1  0  0  0  0
  7  3  1  0  0  0  0
  8  5  1  0  0  0  0
  9 10  1  0  0  0  0
  9 11  1  0  0  0  0
 10 13  1  0  0  0  0
 10 11  1  0  0  0  0
 11 15  1  0  0  0  0
 11 16  1  0  0  0  0
 12  9  1  0  0  0  0
 14 10  1  0  0  0  0
 17 18  1  0  0  0  0
 17 19  1  0  0  0  0
 20 22  1  0  0  0  0
 20 17  1  0  0  0  0
 21 20  1  0  0  0  0
 23 20  1  0  0  0  0
 24 25  1  0  0  0  0
 24 23  2  0  0  0  0
 26 24  1  0  0  0  0
 27 26  2  0  0  0  0
 27 28  1  0  0  0  0
 28 23  1  0  0  0  0
M  END
>  <minimizedAffinity>
-4.35213709

$$$$

 OpenBabel03272508193D

 28 30  0  0  0  0  0  0  0  0999 V2000
   34.6480   30.6200   34.4860 C   0  0  0  0  0  0  0  0  0  0  0  0
   34.8560   29.5200   33.6490 C   0  0  0  0  0  0  0  0  0  0  0  0
   33.8190   29.2700   32.7830 C   0  0  0  0  0  0  0  0  0  0  0  0
   32.6970   30.0340   32.7550 N   0  0  0  0  0  0  0  0  0  0  0  0
   32.5310   31.0840   33.5770 C   0  0  0  0  0  0  0  0  0  0  0  0
   33.5050   31.3860   34.4500 N   0  0  0  0  0  0  0  0  0  0  0  0
   33.7570   28.4680   32.0710 H   0  0  0  0  0  0  0  0  0  0  0  0
   31.6330   31.6810   33.5420 H   0  0  0  0  0  0  0  0  0  0  0  0
   35.8000   30.9860   35.4080 C   0  0  0  0  0  0  0  0  0  0  0  0
   36.2230   32.3270   35.5740 C   0  0  0  0  0  0  0  0  0  0  0  0
   35.2220   31.8320   36.5990 C   0  0  0  0  0  0  0  0  0  0  0  0
   36.3020   30.0780   35.8240 H   0  0  0  0  0  0  0  0  0  0  0  0
   37.2610   32.5070   35.9730 H   0  0  0  0  0  0  0  0  0  0  0  0
   35.8960   33.1590   34.9280 H   0  0  0  0  0  0  0  0  0  0  0  0
   34.1940   32.1710   36.5500 H   0  0  0  0  0  0  0  0  0  0  0  0
   35.5520   31.4870   37.5690 H   0  0  0  0  0  0  0  0  0  0  0  0
   36.0220   28.6690   33.6950 C   0  0  0  0  0  0  0  0  0  0  0  0
   35.8670   27.8500   34.4240 H   0  0  0  0  0  0  0  0  0  0  0  0
   36.8290   29.3000   34.2140 H   0  0  0  0  0  0  0  0  0  0  0  0
   36.6720   28.2140   32.4650 C   0  0  0  0  0  0  0  0  0  0  0  0
   37.7760   28.3620   32.4240 H   0  0  0  0  0  0  0  0  0  0  0  0
   36.2340   28.7410   31.6040 H   0  0  0  0  0  0  0  0  0  0  0  0
   36.5200   26.7290   32.1870 C   0  0  0  0  0  0  0  0  0  0  0  0
   35.5600   26.3370   31.3110 C   0  0  0  0  0  0  0  0  0  0  0  0
   34.8460   26.9660   30.7410 H   0  0  0  0  0  0  0  0  0  0  0  0
   35.2480   25.0920   30.9270 C   0  0  0  0  0  3  0  0  0  0  0  0
   36.0830   24.1590   31.5760 C   0  0  0  0  0  3  0  0  0  0  0  0
   37.2170   25.2010   32.6630 S   0  0  0  0  0  0  0  0  0  0  0  0
  1  9  1  0  0  0  0
  2 17  1  0  0  0  0
  2  1  2  0  0  0  0
  3  2  1  0  0  0  0
  4  3  2  0  0  0  0
  4  5  1  0  0  0  0
  5  6  2  0  0  0  0
  6  1  1  0  0  0  0
  7  3  1  0  0  0  0
  8  5  1  0  0  0  0
  9 10  1  0  0  0  0
  9 12  1  0  0  0  0
  9 11  1  0  0  0  0
 10 13  1  0  0  0  0
 10 11  1  0  0  0  0
 11 16  1  0  0  0  0
 14 10  1  0  0  0  0
 15 11  1  0  0  0  0
 17 19  1  0  0  0  0
 17 18  1  0  0  0  0
 20 17  1  0  0  0  0
 21 20  1  0  0  0  0
 22 20  1  0  0  0  0
 23 20  1  0  0  0  0
 23 28  1  0  0  0  0
 24 23  2  0  0  0  0
 25 24  1  0  0  0  0
 26 24  1  0  0  0  0
 26 27  2  0  0  0  0
 27 28  1  0  0  0  0
M  END
>  <minimizedAffinity>
-4.34771013

$$$$

 OpenBabel03272508193D

 28 30  0  0  0  0  0  0  0  0999 V2000
   36.2180   22.2130   32.2910 C   0  0  0  0  0  0  0  0  0  0  0  0
   37.3390   22.6580   32.9960 C   0  0  0  0  0  0  0  0  0  0  0  0
   37.7350   23.9340   32.6760 C   0  0  0  0  0  0  0  0  0  0  0  0
   37.0820   24.6860   31.7540 N   0  0  0  0  0  0  0  0  0  0  0  0
   36.0060   24.2250   31.0930 C   0  0  0  0  0  0  0  0  0  0  0  0
   35.5650   22.9840   31.3560 N   0  0  0  0  0  0  0  0  0  0  0  0
   38.5790   24.4640   33.0780 H   0  0  0  0  0  0  0  0  0  0  0  0
   35.4990   24.8350   30.3630 H   0  0  0  0  0  0  0  0  0  0  0  0
   35.6930   20.8370   32.6660 C   0  0  0  0  0  0  0  0  0  0  0  0
   34.5550   20.2780   32.0370 C   0  0  0  0  0  0  0  0  0  0  0  0
   35.8890   19.8860   31.4310 C   0  0  0  0  0  0  0  0  0  0  0  0
   36.2440   20.4090   33.5390 H   0  0  0  0  0  0  0  0  0  0  0  0
   34.0130   19.4460   32.5690 H   0  0  0  0  0  0  0  0  0  0  0  0
   33.8680   20.8470   31.3890 H   0  0  0  0  0  0  0  0  0  0  0  0
   36.1910   20.3160   30.4830 H   0  0  0  0  0  0  0  0  0  0  0  0
   36.3530   18.9440   31.6850 H   0  0  0  0  0  0  0  0  0  0  0  0
   38.0740   21.8570   33.9480 C   0  0  0  0  0  0  0  0  0  0  0  0
   38.1560   20.8140   33.5850 H   0  0  0  0  0  0  0  0  0  0  0  0
   37.3670   21.7410   34.8460 H   0  0  0  0  0  0  0  0  0  0  0  0
   39.3180   22.3460   34.5430 C   0  0  0  0  0  0  0  0  0  0  0  0
   39.7220   23.2880   34.1030 H   0  0  0  0  0  0  0  0  0  0  0  0
   40.0970   21.5740   34.4470 H   0  0  0  0  0  0  0  0  0  0  0  0
   39.2190   22.6810   36.0210 C   0  0  0  0  0  0  0  0  0  0  0  0
   38.0710   23.2490   36.4720 C   0  0  0  0  0  0  0  0  0  0  0  0
   37.1570   23.5090   35.9000 H   0  0  0  0  0  0  0  0  0  0  0  0
   37.7710   23.6300   37.7210 C   0  0  0  0  0  3  0  0  0  0  0  0
   38.8520   23.3610   38.5850 C   0  0  0  0  0  3  0  0  0  0  0  0
   40.1710   22.5880   37.4810 S   0  0  0  0  0  0  0  0  0  0  0  0
  1  9  1  0  0  0  0
  1  2  1  0  0  0  0
  2 17  1  0  0  0  0
  3  2  2  0  0  0  0
  3  7  1  0  0  0  0
  4  3  1  0  0  0  0
  5  6  1  0  0  0  0
  5  4  2  0  0  0  0
  6  1  2  0  0  0  0
  8  5  1  0  0  0  0
  9 12  1  0  0  0  0
 10 13  1  0  0  0  0
 10  9  1  0  0  0  0
 11 16  1  0  0  0  0
 11 10  1  0  0  0  0
 11  9  1  0  0  0  0
 14 10  1  0  0  0  0
 15 11  1  0  0  0  0
 17 20  1  0  0  0  0
 17 19  1  0  0  0  0
 18 17  1  0  0  0  0
 20 23  1  0  0  0  0
 21 20  1  0  0  0  0
 22 20  1  0  0  0  0
 23 24  2  0  0  0  0
 23 28  1  0  0  0  0
 24 26  1  0  0  0  0
 25 24  1  0  0  0  0
 26 27  2  0  0  0  0
 28 27  1  0  0  0  0
M  END
>  <minimizedAffinity>
-4.28752995

$$$$

 OpenBabel03272508193D

 28 30  0  0  0  0  0  0  0  0999 V2000
   38.3670   24.9050   35.9860 C   0  0  0  0  0  0  0  0  0  0  0  0
   38.2420   24.6480   34.6180 C   0  0  0  0  0  0  0  0  0  0  0  0
   38.0220   25.7680   33.8530 C   0  0  0  0  0  0  0  0  0  0  0  0
   37.9360   27.0100   34.3940 N   0  0  0  0  0  0  0  0  0  0  0  0
   38.0610   27.2200   35.7160 C   0  0  0  0  0  0  0  0  0  0  0  0
   38.2770   26.1700   36.5230 N   0  0  0  0  0  0  0  0  0  0  0  0
   37.8740   25.7990   32.7890 H   0  0  0  0  0  0  0  0  0  0  0  0
   37.9910   28.2140   36.1290 H   0  0  0  0  0  0  0  0  0  0  0  0
   38.6910   23.7090   36.8660 C   0  0  0  0  0  0  0  0  0  0  0  0
   38.5090   23.7470   38.2690 C   0  0  0  0  0  0  0  0  0  0  0  0
   37.3470   23.1770   37.4800 C   0  0  0  0  0  0  0  0  0  0  0  0
   39.1700   22.8840   36.2820 H   0  0  0  0  0  0  0  0  0  0  0  0
   39.0710   22.9970   38.8940 H   0  0  0  0  0  0  0  0  0  0  0  0
   38.3130   24.6700   38.8390 H   0  0  0  0  0  0  0  0  0  0  0  0
   36.4450   23.7660   37.3560 H   0  0  0  0  0  0  0  0  0  0  0  0
   37.2230   22.1080   37.3780 H   0  0  0  0  0  0  0  0  0  0  0  0
   38.2840   23.3290   34.0300 C   0  0  0  0  0  0  0  0  0  0  0  0
   37.8380   22.5890   34.7230 H   0  0  0  0  0  0  0  0  0  0  0  0
   39.3940   23.0320   34.0470 H   0  0  0  0  0  0  0  0  0  0  0  0
   37.8850   23.1110   32.6390 C   0  0  0  0  0  0  0  0  0  0  0  0
   38.6900   22.7360   31.9640 H   0  0  0  0  0  0  0  0  0  0  0  0
   37.5100   24.0550   32.2140 H   0  0  0  0  0  0  0  0  0  0  0  0
   36.7830   22.0830   32.4550 C   0  0  0  0  0  0  0  0  0  0  0  0
   36.4820   21.2740   33.5030 C   0  0  0  0  0  0  0  0  0  0  0  0
   36.9350   21.2560   34.5150 H   0  0  0  0  0  0  0  0  0  0  0  0
   35.5620   20.3020   33.5600 C   0  0  0  0  0  3  0  0  0  0  0  0
   34.8860   20.1980   32.3270 C   0  0  0  0  0  3  0  0  0  0  0  0
   35.6680   21.5210   31.2350 S   0  0  0  0  0  0  0  0  0  0  0  0
  1  6  1  0  0  0  0
  1  9  1  0  0  0  0
  2  1  2  0  0  0  0
  3  4  2  0  0  0  0
  3  2  1  0  0  0  0
  4  5  1  0  0  0  0
  5  8  1  0  0  0  0
  5  6  2  0  0  0  0
  7  3  1  0  0  0  0
  9 11  1  0  0  0  0
  9 10  1  0  0  0  0
 10 14  1  0  0  0  0
 10 13  1  0  0  0  0
 11 10  1  0  0  0  0
 12  9  1  0  0  0  0
 15 11  1  0  0  0  0
 16 11  1  0  0  0  0
 17 19  1  0  0  0  0
 17  2  1  0  0  0  0
 17 18  1  0  0  0  0
 20 17  1  0  0  0  0
 21 20  1  0  0  0  0
 22 20  1  0  0  0  0
 23 20  1  0  0  0  0
 23 24  2  0  0  0  0
 24 26  1  0  0  0  0
 24 25  1  0  0  0  0
 27 26  2  0  0  0  0
 28 27  1  0  0  0  0
 28 23  1  0  0  0  0
M  END
>  <minimizedAffinity>
-4.12953901

$$$$

 OpenBabel03272508193D

 28 30  0  0  0  0  0  0  0  0999 V2000
   36.9740   27.2740   33.6680 C   0  0  0  0  0  0  0  0  0  0  0  0
   36.1970   28.4100   33.4230 C   0  0  0  0  0  0  0  0  0  0  0  0
   35.9360   28.6360   32.0930 C   0  0  0  0  0  0  0  0  0  0  0  0
   36.3990   27.8190   31.1130 N   0  0  0  0  0  0  0  0  0  0  0  0
   37.1450   26.7340   31.3860 C   0  0  0  0  0  0  0  0  0  0  0  0
   37.4390   26.4530   32.6650 N   0  0  0  0  0  0  0  0  0  0  0  0
   35.3820   29.4580   31.6790 H   0  0  0  0  0  0  0  0  0  0  0  0
   37.5050   26.0940   30.5960 H   0  0  0  0  0  0  0  0  0  0  0  0
   37.2240   26.9350   35.1280 C   0  0  0  0  0  0  0  0  0  0  0  0
   38.1230   25.9110   35.5110 C   0  0  0  0  0  0  0  0  0  0  0  0
   38.7110   27.3080   35.4680 C   0  0  0  0  0  0  0  0  0  0  0  0
   36.5450   27.5090   35.8070 H   0  0  0  0  0  0  0  0  0  0  0  0
   38.0150   25.4730   36.5430 H   0  0  0  0  0  0  0  0  0  0  0  0
   38.5510   25.1750   34.8110 H   0  0  0  0  0  0  0  0  0  0  0  0
   39.3800   27.5820   34.6610 H   0  0  0  0  0  0  0  0  0  0  0  0
   38.8100   27.8920   36.3730 H   0  0  0  0  0  0  0  0  0  0  0  0
   35.7340   29.3170   34.4480 C   0  0  0  0  0  0  0  0  0  0  0  0
   36.5560   29.5410   35.1560 H   0  0  0  0  0  0  0  0  0  0  0  0
   35.0240   28.6910   35.0980 H   0  0  0  0  0  0  0  0  0  0  0  0
   34.9440   30.5000   34.1060 C   0  0  0  0  0  0  0  0  0  0  0  0
   34.1290   30.7550   34.8230 H   0  0  0  0  0  0  0  0  0  0  0  0
   34.4830   30.3580   33.1170 H   0  0  0  0  0  0  0  0  0  0  0  0
   35.7430   31.7890   34.0310 C   0  0  0  0  0  0  0  0  0  0  0  0
   36.1710   32.3450   35.1940 C   0  0  0  0  0  0  0  0  0  0  0  0
   36.0220   31.9780   36.2310 H   0  0  0  0  0  0  0  0  0  0  0  0
   36.8760   33.4710   35.3630 C   0  0  0  0  0  3  0  0  0  0  0  0
   37.1500   34.0650   34.1150 C   0  0  0  0  0  3  0  0  0  0  0  0
   36.3510   32.9200   32.8480 S   0  0  0  0  0  0  0  0  0  0  0  0
  1  9  1  0  0  0  0
  2  1  1  0  0  0  0
  2 17  1  0  0  0  0
  3  2  2  0  0  0  0
  4  5  2  0  0  0  0
  4  3  1  0  0  0  0
  5  6  1  0  0  0  0
  6  1  2  0  0  0  0
  7  3  1  0  0  0  0
  8  5  1  0  0  0  0
  9 11  1  0  0  0  0
  9 10  1  0  0  0  0
  9 12  1  0  0  0  0
 10 13  1  0  0  0  0
 11 10  1  0  0  0  0
 11 16  1  0  0  0  0
 14 10  1  0  0  0  0
 15 11  1  0  0  0  0
 17 19  1  0  0  0  0
 17 18  1  0  0  0  0
 20 17  1  0  0  0  0
 20 21  1  0  0  0  0
 22 20  1  0  0  0  0
 23 20  1  0  0  0  0
 23 24  2  0  0  0  0
 24 26  1  0  0  0  0
 24 25  1  0  0  0  0
 27 26  2  0  0  0  0
 28 23  1  0  0  0  0
 28 27  1  0  0  0  0
M  END
>  <minimizedAffinity>
-4.08006859

$$$$
