
 OpenBabel03272509433D

 35 37  0  0  1  0  0  0  0  0999 V2000
   37.0050   30.9130   49.0250 C   0  0  0  0  0  0  0  0  0  0  0  0
   36.7150   31.8010   50.0620 C   0  0  0  0  0  0  0  0  0  0  0  0
   37.3090   33.0510   50.1460 C   0  0  0  0  0  0  0  0  0  0  0  0
   38.2280   33.4420   49.1650 C   0  0  0  0  0  0  0  0  0  0  0  0
   38.5030   32.5620   48.1550 C   0  0  0  0  0  0  0  0  0  0  0  0
   37.8890   31.3230   48.1080 C   0  0  0  0  0  0  0  0  0  0  0  0
   36.0030   31.5070   50.8270 H   0  0  0  0  0  0  0  0  0  0  0  0
   37.0330   33.6700   50.9730 H   0  0  0  0  0  0  0  0  0  0  0  0
   38.6280   34.4150   49.3170 H   0  0  0  0  0  0  0  0  0  0  0  0
   39.2320   33.0070   47.4780 H   0  0  0  0  0  0  0  0  0  0  0  0
   36.4100   29.5970   48.9570 C   0  0  2  0  0  0  0  0  0  0  0  0
   36.9340   29.0760   48.0650 H   0  0  0  0  0  0  0  0  0  0  0  0
   33.5600   30.1010   46.7580 C   0  0  0  0  0  0  0  0  0  0  0  0
   32.8530   28.9180   46.8490 C   0  0  0  0  0  0  0  0  0  0  0  0
   33.3150   27.9500   47.7200 C   0  0  0  0  0  0  0  0  0  0  0  0
   34.4530   28.1910   48.4600 N   0  0  0  0  0  0  0  0  0  0  0  0
   35.0840   29.3400   48.3260 C   0  0  0  0  0  0  0  0  0  0  0  0
   34.6460   30.3010   47.4810 N   0  0  0  0  0  0  0  0  0  0  0  0
   33.2250   30.8890   46.0810 H   0  0  0  0  0  0  0  0  0  0  0  0
   31.9780   28.8360   46.2220 H   0  0  0  0  0  0  0  0  0  0  0  0
   32.7600   27.0250   47.7920 H   0  0  0  0  0  0  0  0  0  0  0  0
   36.8500   28.8110   49.8750 O   0  0  0  0  0  0  0  0  0  0  0  0
   36.3920   28.6480   50.7160 H   0  0  0  0  0  0  0  0  0  0  0  0
   38.3000   30.4820   47.0070 C   0  0  0  0  0  3  0  0  0  0  0  0
   38.9540   30.9270   45.9310 C   0  0  0  0  0  3  0  0  0  0  0  0
   39.4640   30.1540   44.7740 C   0  0  0  0  0  0  0  0  0  0  0  0
   39.0640   29.1120   44.7960 H   0  0  0  0  0  0  0  0  0  0  0  0
   40.5840   30.1260   44.8190 H   0  0  0  0  0  0  0  0  0  0  0  0
   39.0160   30.9860   43.2480 S   0  0  0  0  0  0  0  0  0  0  0  0
   37.2550   31.2320   43.1760 C   0  0  0  0  0  0  0  0  0  0  0  0
   36.8360   32.5210   42.7480 C   0  0  0  0  0  0  0  0  0  0  0  0
   37.3590   33.4130   42.4450 H   0  0  0  0  0  0  0  0  0  0  0  0
   35.5400   32.9020   42.6280 C   0  0  0  0  0  3  0  0  0  0  0  0
   34.5660   31.8930   42.9700 C   0  0  0  0  0  3  0  0  0  0  0  0
   35.6020   30.3840   43.4700 S   0  0  0  0  0  0  0  0  0  0  0  0
  1  2  1  0  0  0  0
  2  3  2  0  0  0  0
  2  7  1  0  0  0  0
  3  8  1  0  0  0  0
  4  9  1  0  0  0  0
  4  3  1  0  0  0  0
  5  4  2  0  0  0  0
  6  5  1  0  0  0  0
  6  1  2  0  0  0  0
 10  5  1  0  0  0  0
 11 12  1  6  0  0  0
 11  1  1  0  0  0  0
 11 22  1  0  0  0  0
 13 14  2  0  0  0  0
 13 18  1  0  0  0  0
 14 15  1  0  0  0  0
 15 21  1  0  0  0  0
 15 16  2  0  0  0  0
 17 16  1  0  0  0  0
 17 11  1  0  0  0  0
 18 17  2  0  0  0  0
 19 13  1  0  0  0  0
 20 14  1  0  0  0  0
 22 23  1  0  0  0  0
 24  6  1  0  0  0  0
 25 24  2  0  0  0  0
 26 27  1  0  0  0  0
 26 28  1  0  0  0  0
 26 25  1  0  0  0  0
 29 26  1  0  0  0  0
 30 29  1  0  0  0  0
 30 35  1  0  0  0  0
 31 30  2  0  0  0  0
 32 31  1  0  0  0  0
 33 31  1  0  0  0  0
 33 34  2  0  0  0  0
 34 35  1  0  0  0  0
M  END
>  <minimizedAffinity>
-5.45866346

>  <minimizedRMSD>
0.368101507

$$$$
