
 OpenBabel03272509393D

 32 34  0  0  1  0  0  0  0  0999 V2000
   38.1260   31.4040   48.9220 C   0  0  0  0  0  0  0  0  0  0  0  0
   38.2750   32.5020   49.7920 C   0  0  0  0  0  0  0  0  0  0  0  0
   38.9110   33.6740   49.4050 C   0  0  0  0  0  0  0  0  0  0  0  0
   39.4250   33.7870   48.1210 C   0  0  0  0  0  0  0  0  0  0  0  0
   39.2710   32.7050   47.2840 C   0  0  0  0  0  0  0  0  0  0  0  0
   38.6380   31.5540   47.6850 C   0  0  0  0  0  0  0  0  0  0  0  0
   37.8890   32.4630   50.8070 H   0  0  0  0  0  0  0  0  0  0  0  0
   38.9920   34.4810   50.1200 H   0  0  0  0  0  0  0  0  0  0  0  0
   39.9170   34.7130   47.8470 H   0  0  0  0  0  0  0  0  0  0  0  0
   39.7000   32.8680   46.2940 H   0  0  0  0  0  0  0  0  0  0  0  0
   37.4480   30.2240   49.4150 C   0  0  1  0  0  0  0  0  0  0  0  0
   38.0850   29.6030   50.3440 O   0  0  0  0  0  0  0  0  0  0  0  0
   34.3030   30.2690   47.6260 C   0  0  0  0  0  0  0  0  0  0  0  0
   33.7230   29.0380   47.9320 C   0  0  0  0  0  0  0  0  0  0  0  0
   34.4190   28.1910   48.7580 C   0  0  0  0  0  0  0  0  0  0  0  0
   35.6250   28.5650   49.2440 N   0  0  0  0  0  0  0  0  0  0  0  0
   36.1570   29.7400   48.9390 C   0  0  0  0  0  0  0  0  0  0  0  0
   35.4890   30.5750   48.1340 N   0  0  0  0  0  0  0  0  0  0  0  0
   33.8040   30.9910   46.9740 H   0  0  0  0  0  0  0  0  0  0  0  0
   32.7520   28.8870   47.4640 H   0  0  0  0  0  0  0  0  0  0  0  0
   33.9430   27.2580   48.9710 H   0  0  0  0  0  0  0  0  0  0  0  0
   38.5670   30.5240   46.6820 C   0  0  0  0  0  0  0  0  0  0  0  0
   39.0810   30.5570   45.4530 C   0  0  0  0  0  0  0  0  0  0  0  0
   39.0810   29.5970   44.3520 C   0  0  0  0  0  0  0  0  0  0  0  0
   38.1360   28.9800   44.3880 H   0  0  0  0  0  0  0  0  0  0  0  0
   39.8850   28.8310   44.5300 H   0  0  0  0  0  0  0  0  0  0  0  0
   39.2140   30.1360   43.0430 C   0  0  0  0  0  0  0  0  0  0  0  0
   40.2750   30.8130   42.4330 C   0  0  0  0  0  0  0  0  0  0  0  0
   41.1660   30.9790   43.0130 H   0  0  0  0  0  0  0  0  0  0  0  0
   40.1670   31.2440   41.1390 C   0  0  0  0  0  0  0  0  0  0  0  0
   38.8940   30.9520   40.4580 C   0  0  0  0  0  0  0  0  0  0  0  0
   37.9620   30.0440   41.8410 S   0  0  0  0  0  0  0  0  0  0  0  0
  1 11  1  0  0  0  0
  1  2  1  0  0  0  0
  2  7  1  0  0  0  0
  3  2  2  0  0  0  0
  3  8  1  0  0  0  0
  4  3  1  0  0  0  0
  5  6  1  0  0  0  0
  5  4  2  0  0  0  0
  6  1  2  0  0  0  0
  9  4  1  0  0  0  0
 10  5  1  0  0  0  0
 11 12  1  1  0  0  0
 13 14  2  0  0  0  0
 13 18  1  0  0  0  0
 14 15  1  0  0  0  0
 15 21  1  0  0  0  0
 15 16  2  0  0  0  0
 17 16  1  0  0  0  0
 17 11  1  0  0  0  0
 18 17  2  0  0  0  0
 19 13  1  0  0  0  0
 20 14  1  0  0  0  0
 22  6  1  0  0  0  0
 23 22  2  0  0  0  0
 24 25  1  0  0  0  0
 24 26  1  0  0  0  0
 24 23  1  0  0  0  0
 27 24  1  0  0  0  0
 28 29  1  0  0  0  0
 28 27  2  0  0  0  0
 30 28  1  0  0  0  0
 31 30  2  0  0  0  0
 31 32  1  0  0  0  0
 32 27  1  0  0  0  0
M  END
>  <minimizedAffinity>
-5.90962219

>  <minimizedRMSD>
1.94738793

$$$$
