
 OpenBabel03272504213D

 36 38  0  0  1  0  0  0  0  0999 V2000
   36.8330   31.5940   48.7010 O   0  0  0  0  0  0  0  0  0  0  0  0
   38.8310   32.4360   47.8440 C   0  0  2  0  0  0  0  0  0  0  0  0
   38.1960   31.3990   48.7440 C   0  0  1  0  0  0  0  0  0  0  0  0
   38.7450   31.9060   50.0800 C   0  0  0  0  0  0  0  0  0  0  0  0
   38.4040   33.2540   50.0070 O   0  0  0  0  0  0  0  0  0  0  0  0
   38.6450   33.6730   48.7220 C   0  0  0  0  0  0  0  0  0  0  0  0
   39.8880   32.2020   47.6900 H   0  0  0  0  0  0  0  0  0  0  0  0
   38.5230   30.3680   48.5380 H   0  0  0  0  0  0  0  0  0  0  0  0
   39.8230   31.7280   50.1280 H   0  0  0  0  0  0  0  0  0  0  0  0
   38.1590   31.4070   50.8600 H   0  0  0  0  0  0  0  0  0  0  0  0
   39.5730   34.2890   48.6400 H   0  0  0  0  0  0  0  0  0  0  0  0
   37.8260   34.3230   48.3250 H   0  0  0  0  0  0  0  0  0  0  0  0
   38.0850   32.5000   46.6720 O   0  0  0  0  0  0  0  0  0  0  0  0
   38.7870   32.1820   45.4840 C   0  0  0  0  0  0  0  0  0  0  0  0
   38.4160   32.5420   44.1860 C   0  0  0  0  0  0  0  0  0  0  0  0
   37.5150   33.1150   44.0400 H   0  0  0  0  0  0  0  0  0  0  0  0
   39.2010   32.1590   43.1390 C   0  0  0  0  0  3  0  0  0  0  0  0
   40.3930   31.3930   43.4150 C   0  0  0  0  0  3  0  0  0  0  0  0
   40.3960   31.2170   45.1720 S   0  0  0  0  0  0  0  0  0  0  0  0
   35.9140   29.8640   46.9920 O   0  0  0  0  0  0  0  0  0  0  0  0
   35.9690   30.1740   48.4690 P   0  0  1  0  0  0  0  0  0  0  0  0
   36.7570   28.8770   49.2500 O   0  0  0  0  0  0  0  0  0  0  0  0
   37.4510   29.1800   49.8840 H   0  0  0  0  0  0  0  0  0  0  0  0
   34.3960   30.3370   49.0940 O   0  0  0  0  0  0  0  0  0  0  0  0
   34.1290   29.1880   49.8120 C   0  0  0  0  0  0  0  0  0  0  0  0
   33.6180   29.4470   50.7830 H   0  0  0  0  0  0  0  0  0  0  0  0
   35.0400   28.6440   50.1280 H   0  0  0  0  0  0  0  0  0  0  0  0
   33.2680   28.2250   49.0930 C   0  0  0  0  0  0  0  0  0  0  0  0
   33.8990   27.3380   48.2540 C   0  0  0  0  0  0  0  0  0  0  0  0
   33.1420   26.4030   47.5450 C   0  0  0  0  0  0  0  0  0  0  0  0
   31.7910   26.4300   47.7320 N   0  0  0  0  0  0  0  0  0  0  0  0
   31.1970   27.3090   48.5600 C   0  0  0  0  0  0  0  0  0  0  0  0
   31.9320   28.2150   49.2460 N   0  0  0  0  0  0  0  0  0  0  0  0
   34.9500   27.2390   48.0410 H   0  0  0  0  0  0  0  0  0  0  0  0
   33.5370   25.6740   46.8720 H   0  0  0  0  0  0  0  0  0  0  0  0
   30.1230   27.2430   48.6350 H   0  0  0  0  0  0  0  0  0  0  0  0
  1  3  1  0  0  0  0
  2  7  1  6  0  0  0
  2  6  1  0  0  0  0
  2  3  1  0  0  0  0
  3  8  1  6  0  0  0
  3  4  1  0  0  0  0
  4  9  1  0  0  0  0
  4 10  1  0  0  0  0
  5  4  1  0  0  0  0
  6  5  1  0  0  0  0
 11  6  1  0  0  0  0
 12  6  1  0  0  0  0
 13  2  1  0  0  0  0
 14 13  1  0  0  0  0
 15 14  2  0  0  0  0
 16 15  1  0  0  0  0
 17 18  2  0  0  0  0
 17 15  1  0  0  0  0
 18 19  1  0  0  0  0
 19 14  1  0  0  0  0
 21 20  2  6  0  0  0
 21  1  1  0  0  0  0
 21 24  1  0  0  0  0
 21 22  1  0  0  0  0
 22 23  1  0  0  0  0
 24 25  1  0  0  0  0
 25 27  1  0  0  0  0
 25 26  1  0  0  0  0
 28 33  1  0  0  0  0
 28 25  1  0  0  0  0
 29 28  2  0  0  0  0
 30 31  2  0  0  0  0
 30 29  1  0  0  0  0
 31 32  1  0  0  0  0
 32 36  1  0  0  0  0
 32 33  2  0  0  0  0
 34 29  1  0  0  0  0
 35 30  1  0  0  0  0
M  END
>  <minimizedAffinity>
-4.56164932

>  <minimizedRMSD>
0.194957748

$$$$
