
 OpenBabel03272510273D

 42 46  0  0  1  0  0  0  0  0999 V2000
   36.1670   30.1680   46.3340 C   0  0  0  0  0  0  0  0  0  0  0  0
   37.0730   30.7910   47.1590 C   0  0  0  0  0  0  0  0  0  0  0  0
   38.0110   31.7060   46.6520 C   0  0  0  0  0  0  0  0  0  0  0  0
   37.9570   31.9320   45.2750 C   0  0  0  0  0  0  0  0  0  0  0  0
   38.7590   32.7770   44.5450 N   0  0  0  0  0  0  0  0  0  0  0  0
   38.3440   32.6730   43.2720 C   0  0  0  0  0  0  0  0  0  0  0  0
   37.3450   31.8160   43.2010 N   0  0  0  0  0  0  0  0  0  0  0  0
   37.0730   31.3330   44.4240 C   0  0  0  0  0  0  0  0  0  0  0  0
   36.1570   30.4290   44.9750 C   0  0  0  0  0  0  0  0  0  0  0  0
   35.4390   29.4600   46.7200 H   0  0  0  0  0  0  0  0  0  0  0  0
   38.7370   32.2120   47.2770 H   0  0  0  0  0  0  0  0  0  0  0  0
   39.5340   33.3770   44.9130 H   0  0  0  0  0  0  0  0  0  0  0  0
   35.4510   29.9490   44.3050 H   0  0  0  0  0  0  0  0  0  0  0  0
   37.7710   30.5860   50.8550 C   0  0  0  0  0  0  0  0  0  0  0  0
   37.9420   30.9680   49.5260 C   0  0  0  0  0  0  0  0  0  0  0  0
   37.0620   30.5060   48.5820 C   0  0  0  0  0  0  0  0  0  0  0  0
   36.0480   29.6790   49.0210 N   0  0  0  0  0  0  0  0  0  0  0  0
   35.8910   29.3140   50.3090 C   0  0  0  0  0  0  0  0  0  0  0  0
   36.7400   29.7640   51.2050 N   0  0  0  0  0  0  0  0  0  0  0  0
   38.4860   30.9720   51.5730 H   0  0  0  0  0  0  0  0  0  0  0  0
   38.7300   31.6140   49.1660 H   0  0  0  0  0  0  0  0  0  0  0  0
   35.0590   28.6600   50.5450 H   0  0  0  0  0  0  0  0  0  0  0  0
   38.9320   33.3950   42.2330 O   0  0  0  0  0  0  0  0  0  0  0  0
   38.0760   32.2610   40.4150 N   0  0  0  0  0  0  0  0  0  0  0  0
   38.1340   33.5580   41.0710 C   0  0  1  0  0  0  0  0  0  0  0  0
   36.7970   34.0130   41.4180 C   0  0  0  0  0  0  0  0  0  0  0  0
   36.0520   34.1850   40.2410 O   0  0  0  0  0  0  0  0  0  0  0  0
   35.9980   33.0940   39.4230 C   0  0  0  0  0  0  0  0  0  0  0  0
   37.3570   32.5000   39.1740 C   0  0  1  0  0  0  0  0  0  0  0  0
   37.5770   31.5190   40.8730 H   0  0  0  0  0  0  0  0  0  0  0  0
   38.6040   34.2330   40.3360 H   0  0  0  0  0  0  0  0  0  0  0  0
   36.1270   33.5140   42.0650 H   0  0  0  0  0  0  0  0  0  0  0  0
   36.8980   35.0700   41.8160 H   0  0  0  0  0  0  0  0  0  0  0  0
   35.3780   32.2880   39.8630 H   0  0  0  0  0  0  0  0  0  0  0  0
   35.5910   33.4350   38.4500 H   0  0  0  0  0  0  0  0  0  0  0  0
   37.1810   31.5530   38.6190 H   0  0  0  0  0  0  0  0  0  0  0  0
   38.1390   33.4740   38.3870 C   0  0  0  0  0  0  0  0  0  0  0  0
   39.4510   33.5840   38.2000 C   0  0  0  0  0  0  0  0  0  0  0  0
   40.1120   32.8570   38.6890 H   0  0  0  0  0  0  0  0  0  0  0  0
   39.9960   34.5720   37.4220 C   0  0  0  0  0  3  0  0  0  0  0  0
   39.0130   35.4560   36.8430 C   0  0  0  0  0  3  0  0  0  0  0  0
   37.4310   34.8250   37.4390 S   0  0  0  0  0  0  0  0  0  0  0  0
  1 10  1  0  0  0  0
  1  2  1  0  0  0  0
  2 16  1  0  0  0  0
  3  2  2  0  0  0  0
  3 11  1  0  0  0  0
  4  3  1  0  0  0  0
  5 12  1  0  0  0  0
  5  4  1  0  0  0  0
  6  5  1  0  0  0  0
  7  6  2  0  0  0  0
  7  8  1  0  0  0  0
  8  9  1  0  0  0  0
  8  4  2  0  0  0  0
  9  1  2  0  0  0  0
 13  9  1  0  0  0  0
 14 19  1  0  0  0  0
 14 20  1  0  0  0  0
 15 14  2  0  0  0  0
 16 17  2  0  0  0  0
 16 15  1  0  0  0  0
 17 18  1  0  0  0  0
 18 22  1  0  0  0  0
 18 19  2  0  0  0  0
 21 15  1  0  0  0  0
 23  6  1  0  0  0  0
 24 30  1  0  0  0  0
 24 25  1  0  0  0  0
 25 31  1  6  0  0  0
 25 26  1  0  0  0  0
 25 23  1  0  0  0  0
 26 33  1  0  0  0  0
 26 32  1  0  0  0  0
 27 26  1  0  0  0  0
 28 34  1  0  0  0  0
 28 27  1  0  0  0  0
 29 36  1  6  0  0  0
 29 28  1  0  0  0  0
 29 24  1  0  0  0  0
 35 28  1  0  0  0  0
 37 29  1  0  0  0  0
 38 37  2  0  0  0  0
 38 39  1  0  0  0  0
 40 38  1  0  0  0  0
 41 40  2  0  0  0  0
 41 42  1  0  0  0  0
 42 37  1  0  0  0  0
M  END
>  <minimizedAffinity>
-5.20869637

>  <minimizedRMSD>
1.79964113

$$$$
