
 OpenBabel03272510123D

 32 35  0  0  0  0  0  0  0  0999 V2000
   36.2930   23.0660   31.9830 C   0  0  0  0  0  0  0  0  0  0  0  0
   35.5210   23.9550   31.3180 C   0  0  0  0  0  0  0  0  0  0  0  0
   35.8030   25.3050   31.1960 C   0  0  0  0  0  0  0  0  0  0  0  0
   36.9280   25.8170   31.7690 C   0  0  0  0  0  0  0  0  0  0  0  0
   37.7330   24.9010   32.4590 C   0  0  0  0  0  0  0  0  0  0  0  0
   37.4120   23.5960   32.5480 N   0  0  0  0  0  0  0  0  0  0  0  0
   34.6080   23.6420   30.8310 H   0  0  0  0  0  0  0  0  0  0  0  0
   35.1860   26.0160   30.6660 H   0  0  0  0  0  0  0  0  0  0  0  0
   38.6570   25.1850   32.9590 H   0  0  0  0  0  0  0  0  0  0  0  0
   35.9380   20.7770   31.0190 C   0  0  0  0  0  0  0  0  0  0  0  0
   35.9950   21.6670   32.1060 C   0  0  0  0  0  0  0  0  0  0  0  0
   35.7420   21.1300   33.3610 C   0  0  0  0  0  0  0  0  0  0  0  0
   35.4580   19.8110   33.4940 N   0  0  0  0  0  0  0  0  0  0  0  0
   35.4170   19.0000   32.4080 C   0  0  0  0  0  0  0  0  0  0  0  0
   35.6540   19.4730   31.1830 N   0  0  0  0  0  0  0  0  0  0  0  0
   36.1270   21.1580   30.0380 H   0  0  0  0  0  0  0  0  0  0  0  0
   35.7720   21.7780   34.2510 H   0  0  0  0  0  0  0  0  0  0  0  0
   35.1840   17.9500   32.5850 H   0  0  0  0  0  0  0  0  0  0  0  0
   37.3720   27.1420   31.7500 O   0  0  0  0  0  0  0  0  0  0  0  0
   36.6260   28.1700   32.3030 C   0  0  0  0  0  0  0  0  0  0  0  0
   36.1080   29.0740   31.3670 C   0  0  0  0  0  0  0  0  0  0  0  0
   35.3860   30.0500   32.0230 C   0  0  0  0  0  0  0  0  0  0  0  0
   35.4840   29.7160   33.3160 N   0  0  0  0  0  0  0  0  0  0  0  0
   36.2000   28.6290   33.4870 N   0  0  0  0  0  0  0  0  0  0  0  0
   36.1630   29.1540   30.2680 H   0  0  0  0  0  0  0  0  0  0  0  0
   34.8400   30.9140   31.6560 H   0  0  0  0  0  0  0  0  0  0  0  0
   34.9360   30.3670   34.4810 C   0  0  0  0  0  0  0  0  0  0  0  0
   35.7520   31.1120   35.2850 C   0  0  0  0  0  0  0  0  0  0  0  0
   36.8090   31.3140   35.1980 H   0  0  0  0  0  0  0  0  0  0  0  0
   35.3730   31.7640   36.3890 C   0  0  0  0  0  3  0  0  0  0  0  0
   33.9570   31.6310   36.7100 C   0  0  0  0  0  3  0  0  0  0  0  0
   33.2820   30.5100   35.2970 S   0  0  0  0  0  0  0  0  0  0  0  0
  1 11  1  0  0  0  0
  1  6  1  0  0  0  0
  2  1  2  0  0  0  0
  3  2  1  0  0  0  0
  3  4  2  0  0  0  0
  4  5  1  0  0  0  0
  5  6  2  0  0  0  0
  5  9  1  0  0  0  0
  7  2  1  0  0  0  0
  8  3  1  0  0  0  0
 10 15  2  0  0  0  0
 10 11  1  0  0  0  0
 11 12  2  0  0  0  0
 12 13  1  0  0  0  0
 12 17  1  0  0  0  0
 14 18  1  0  0  0  0
 14 13  2  0  0  0  0
 15 14  1  0  0  0  0
 16 10  1  0  0  0  0
 19  4  1  0  0  0  0
 19 20  1  0  0  0  0
 20 24  2  0  0  0  0
 21 22  2  0  0  0  0
 21 20  1  0  0  0  0
 22 23  1  0  0  0  0
 23 24  1  0  0  0  0
 23 27  1  0  0  0  0
 25 21  1  0  0  0  0
 26 22  1  0  0  0  0
 27 28  2  0  0  0  0
 27 32  1  0  0  0  0
 28 30  1  0  0  0  0
 29 28  1  0  0  0  0
 30 31  2  0  0  0  0
 32 31  1  0  0  0  0
M  END
>  <minimizedAffinity>
-5.60858011

$$$$

 OpenBabel03272510123D

 32 35  0  0  0  0  0  0  0  0999 V2000
   35.6100   29.8860   34.2690 C   0  0  0  0  0  0  0  0  0  0  0  0
   35.6760   30.1190   32.9390 C   0  0  0  0  0  0  0  0  0  0  0  0
   36.2270   29.2490   32.0140 C   0  0  0  0  0  0  0  0  0  0  0  0
   36.7520   28.0630   32.4280 C   0  0  0  0  0  0  0  0  0  0  0  0
   36.6870   27.8140   33.8060 C   0  0  0  0  0  0  0  0  0  0  0  0
   36.1390   28.6960   34.6630 N   0  0  0  0  0  0  0  0  0  0  0  0
   35.2860   31.0350   32.5160 H   0  0  0  0  0  0  0  0  0  0  0  0
   36.2800   29.4360   30.9510 H   0  0  0  0  0  0  0  0  0  0  0  0
   37.0700   26.9030   34.2610 H   0  0  0  0  0  0  0  0  0  0  0  0
   35.7840   31.7160   35.9770 C   0  0  0  0  0  0  0  0  0  0  0  0
   35.0370   30.7930   35.2230 C   0  0  0  0  0  0  0  0  0  0  0  0
   33.6660   30.7840   35.4370 C   0  0  0  0  0  0  0  0  0  0  0  0
   33.1100   31.6340   36.3350 N   0  0  0  0  0  0  0  0  0  0  0  0
   33.8810   32.5030   37.0340 C   0  0  0  0  0  0  0  0  0  0  0  0
   35.2040   32.5470   36.8600 N   0  0  0  0  0  0  0  0  0  0  0  0
   36.8440   31.7490   35.8370 H   0  0  0  0  0  0  0  0  0  0  0  0
   33.0280   30.0830   34.8760 H   0  0  0  0  0  0  0  0  0  0  0  0
   33.3710   33.1590   37.7400 H   0  0  0  0  0  0  0  0  0  0  0  0
   37.3440   27.0680   31.6450 O   0  0  0  0  0  0  0  0  0  0  0  0
   36.7780   25.8100   31.5150 C   0  0  0  0  0  0  0  0  0  0  0  0
   35.4730   25.8160   31.0060 C   0  0  0  0  0  0  0  0  0  0  0  0
   35.0090   24.5200   30.9170 C   0  0  0  0  0  0  0  0  0  0  0  0
   36.0280   23.7770   31.3670 N   0  0  0  0  0  0  0  0  0  0  0  0
   37.0560   24.5160   31.7150 N   0  0  0  0  0  0  0  0  0  0  0  0
   34.7810   26.6120   30.6800 H   0  0  0  0  0  0  0  0  0  0  0  0
   34.0610   24.1130   30.5770 H   0  0  0  0  0  0  0  0  0  0  0  0
   36.1320   22.3440   31.5130 C   0  0  0  0  0  0  0  0  0  0  0  0
   35.1840   21.6690   32.2280 C   0  0  0  0  0  0  0  0  0  0  0  0
   34.3090   22.0420   32.7400 H   0  0  0  0  0  0  0  0  0  0  0  0
   35.1610   20.3480   32.4390 C   0  0  0  0  0  3  0  0  0  0  0  0
   36.2690   19.6240   31.8290 C   0  0  0  0  0  3  0  0  0  0  0  0
   37.2880   21.0090   30.9620 S   0  0  0  0  0  0  0  0  0  0  0  0
  1  6  1  0  0  0  0
  1 11  1  0  0  0  0
  2  1  2  0  0  0  0
  3  4  2  0  0  0  0
  3  2  1  0  0  0  0
  4  5  1  0  0  0  0
  5  9  1  0  0  0  0
  5  6  2  0  0  0  0
  7  2  1  0  0  0  0
  8  3  1  0  0  0  0
 10 15  1  0  0  0  0
 11 12  1  0  0  0  0
 11 10  2  0  0  0  0
 12 13  2  0  0  0  0
 13 14  1  0  0  0  0
 14 18  1  0  0  0  0
 15 14  2  0  0  0  0
 16 10  1  0  0  0  0
 17 12  1  0  0  0  0
 19  4  1  0  0  0  0
 20 19  1  0  0  0  0
 20 24  2  0  0  0  0
 21 20  1  0  0  0  0
 22 21  2  0  0  0  0
 22 23  1  0  0  0  0
 23 27  1  0  0  0  0
 23 24  1  0  0  0  0
 25 21  1  0  0  0  0
 26 22  1  0  0  0  0
 27 28  2  0  0  0  0
 28 30  1  0  0  0  0
 28 29  1  0  0  0  0
 31 30  2  0  0  0  0
 32 27  1  0  0  0  0
 32 31  1  0  0  0  0
M  END
>  <minimizedAffinity>
-5.51542044

$$$$

 OpenBabel03272510123D

 32 35  0  0  0  0  0  0  0  0999 V2000
   38.5910   25.2470   35.3310 C   0  0  0  0  0  0  0  0  0  0  0  0
   38.4340   26.5180   35.7660 C   0  0  0  0  0  0  0  0  0  0  0  0
   37.7620   27.5100   35.0730 C   0  0  0  0  0  0  0  0  0  0  0  0
   37.2040   27.2310   33.8630 C   0  0  0  0  0  0  0  0  0  0  0  0
   37.3610   25.9160   33.4050 C   0  0  0  0  0  0  0  0  0  0  0  0
   38.0260   24.9880   34.1210 N   0  0  0  0  0  0  0  0  0  0  0  0
   38.8440   26.8330   36.7170 H   0  0  0  0  0  0  0  0  0  0  0  0
   37.6380   28.5250   35.4210 H   0  0  0  0  0  0  0  0  0  0  0  0
   36.9610   25.5680   32.4550 H   0  0  0  0  0  0  0  0  0  0  0  0
   40.5030   23.6510   35.6330 C   0  0  0  0  0  0  0  0  0  0  0  0
   39.2900   24.2230   36.0550 C   0  0  0  0  0  0  0  0  0  0  0  0
   38.7630   23.7480   37.2480 C   0  0  0  0  0  0  0  0  0  0  0  0
   39.4100   22.7810   37.9430 N   0  0  0  0  0  0  0  0  0  0  0  0
   40.5780   22.2660   37.4860 C   0  0  0  0  0  0  0  0  0  0  0  0
   41.1220   22.6930   36.3450 N   0  0  0  0  0  0  0  0  0  0  0  0
   40.9360   23.9930   34.7180 H   0  0  0  0  0  0  0  0  0  0  0  0
   37.8150   24.1580   37.6310 H   0  0  0  0  0  0  0  0  0  0  0  0
   41.0470   21.4920   38.0930 H   0  0  0  0  0  0  0  0  0  0  0  0
   36.4930   28.0970   33.0280 O   0  0  0  0  0  0  0  0  0  0  0  0
   35.5770   29.0070   33.5300 C   0  0  0  0  0  0  0  0  0  0  0  0
   34.3890   29.0940   32.7930 C   0  0  0  0  0  0  0  0  0  0  0  0
   33.5530   30.0220   33.3780 C   0  0  0  0  0  0  0  0  0  0  0  0
   34.2460   30.4650   34.4360 N   0  0  0  0  0  0  0  0  0  0  0  0
   35.4180   29.8820   34.5310 N   0  0  0  0  0  0  0  0  0  0  0  0
   34.0120   28.5930   31.8850 H   0  0  0  0  0  0  0  0  0  0  0  0
   32.5590   30.3710   33.1110 H   0  0  0  0  0  0  0  0  0  0  0  0
   33.8860   31.4510   35.4270 C   0  0  0  0  0  0  0  0  0  0  0  0
   34.8370   31.9180   36.2900 C   0  0  0  0  0  0  0  0  0  0  0  0
   35.8830   31.6630   36.3680 H   0  0  0  0  0  0  0  0  0  0  0  0
   34.6380   32.8270   37.2500 C   0  0  0  0  0  3  0  0  0  0  0  0
   33.2700   33.3230   37.3330 C   0  0  0  0  0  3  0  0  0  0  0  0
   32.3600   32.3670   35.9310 S   0  0  0  0  0  0  0  0  0  0  0  0
  1  2  1  0  0  0  0
  1 11  1  0  0  0  0
  2  7  1  0  0  0  0
  3  8  1  0  0  0  0
  3  2  2  0  0  0  0
  4  3  1  0  0  0  0
  5  4  2  0  0  0  0
  5  6  1  0  0  0  0
  6  1  2  0  0  0  0
  9  5  1  0  0  0  0
 10 11  2  0  0  0  0
 10 15  1  0  0  0  0
 11 12  1  0  0  0  0
 12 17  1  0  0  0  0
 12 13  2  0  0  0  0
 14 13  1  0  0  0  0
 14 18  1  0  0  0  0
 15 14  2  0  0  0  0
 16 10  1  0  0  0  0
 19 20  1  0  0  0  0
 19  4  1  0  0  0  0
 20 24  2  0  0  0  0
 21 22  2  0  0  0  0
 21 20  1  0  0  0  0
 22 23  1  0  0  0  0
 23 24  1  0  0  0  0
 23 27  1  0  0  0  0
 25 21  1  0  0  0  0
 26 22  1  0  0  0  0
 27 32  1  0  0  0  0
 27 28  2  0  0  0  0
 28 29  1  0  0  0  0
 28 30  1  0  0  0  0
 30 31  2  0  0  0  0
 32 31  1  0  0  0  0
M  END
>  <minimizedAffinity>
-5.45980358

$$$$

 OpenBabel03272510123D

 32 35  0  0  0  0  0  0  0  0999 V2000
   35.7360   29.1320   33.7990 C   0  0  0  0  0  0  0  0  0  0  0  0
   36.5670   28.1110   34.1060 C   0  0  0  0  0  0  0  0  0  0  0  0
   37.1130   27.2360   33.1830 C   0  0  0  0  0  0  0  0  0  0  0  0
   36.8210   27.3770   31.8610 C   0  0  0  0  0  0  0  0  0  0  0  0
   35.9610   28.4340   31.5340 C   0  0  0  0  0  0  0  0  0  0  0  0
   35.4560   29.2570   32.4730 N   0  0  0  0  0  0  0  0  0  0  0  0
   36.8550   27.9200   35.1310 H   0  0  0  0  0  0  0  0  0  0  0  0
   37.7770   26.4190   33.4290 H   0  0  0  0  0  0  0  0  0  0  0  0
   35.6520   28.6520   30.5140 H   0  0  0  0  0  0  0  0  0  0  0  0
   35.9340   30.8890   35.5790 C   0  0  0  0  0  0  0  0  0  0  0  0
   35.1720   30.0360   34.7620 C   0  0  0  0  0  0  0  0  0  0  0  0
   33.7940   30.0940   34.9190 C   0  0  0  0  0  0  0  0  0  0  0  0
   33.2460   30.9420   35.8240 N   0  0  0  0  0  0  0  0  0  0  0  0
   34.0320   31.7430   36.5860 C   0  0  0  0  0  0  0  0  0  0  0  0
   35.3610   31.7200   36.4680 N   0  0  0  0  0  0  0  0  0  0  0  0
   36.9990   30.8690   35.4830 H   0  0  0  0  0  0  0  0  0  0  0  0
   33.1440   29.4500   34.3070 H   0  0  0  0  0  0  0  0  0  0  0  0
   33.5280   32.4010   37.2930 H   0  0  0  0  0  0  0  0  0  0  0  0
   37.2760   26.5960   30.7940 O   0  0  0  0  0  0  0  0  0  0  0  0
   37.3430   25.2150   30.8780 C   0  0  0  0  0  0  0  0  0  0  0  0
   38.5990   24.6790   30.5670 C   0  0  0  0  0  0  0  0  0  0  0  0
   38.5530   23.3050   30.6820 C   0  0  0  0  0  0  0  0  0  0  0  0
   37.2910   23.0500   31.0530 N   0  0  0  0  0  0  0  0  0  0  0  0
   36.5840   24.1510   31.1690 N   0  0  0  0  0  0  0  0  0  0  0  0
   39.5650   25.1180   30.2630 H   0  0  0  0  0  0  0  0  0  0  0  0
   39.3090   22.5410   30.5270 H   0  0  0  0  0  0  0  0  0  0  0  0
   36.6460   21.7880   31.3240 C   0  0  0  0  0  0  0  0  0  0  0  0
   35.3880   21.7730   31.8550 C   0  0  0  0  0  0  0  0  0  0  0  0
   34.7440   22.5960   32.1290 H   0  0  0  0  0  0  0  0  0  0  0  0
   34.6800   20.6780   32.1520 C   0  0  0  0  0  3  0  0  0  0  0  0
   35.3640   19.4240   31.8600 C   0  0  0  0  0  3  0  0  0  0  0  0
   37.0590   19.9940   31.1450 S   0  0  0  0  0  0  0  0  0  0  0  0
  1  2  1  0  0  0  0
  1 11  1  0  0  0  0
  2  7  1  0  0  0  0
  3  8  1  0  0  0  0
  3  2  2  0  0  0  0
  4  3  1  0  0  0  0
  5  4  2  0  0  0  0
  5  6  1  0  0  0  0
  6  1  2  0  0  0  0
  9  5  1  0  0  0  0
 10 15  1  0  0  0  0
 11 12  1  0  0  0  0
 11 10  2  0  0  0  0
 12 13  2  0  0  0  0
 13 14  1  0  0  0  0
 14 18  1  0  0  0  0
 15 14  2  0  0  0  0
 16 10  1  0  0  0  0
 17 12  1  0  0  0  0
 19 20  1  0  0  0  0
 19  4  1  0  0  0  0
 20 24  2  0  0  0  0
 21 22  2  0  0  0  0
 21 20  1  0  0  0  0
 22 23  1  0  0  0  0
 23 24  1  0  0  0  0
 23 27  1  0  0  0  0
 25 21  1  0  0  0  0
 26 22  1  0  0  0  0
 27 28  2  0  0  0  0
 28 29  1  0  0  0  0
 28 30  1  0  0  0  0
 31 30  2  0  0  0  0
 32 27  1  0  0  0  0
 32 31  1  0  0  0  0
M  END
>  <minimizedAffinity>
-5.26027441

$$$$

 OpenBabel03272510123D

 32 35  0  0  0  0  0  0  0  0999 V2000
   38.0830   25.5180   35.0120 C   0  0  0  0  0  0  0  0  0  0  0  0
   37.6990   26.7920   35.2520 C   0  0  0  0  0  0  0  0  0  0  0  0
   37.2040   27.6590   34.2930 C   0  0  0  0  0  0  0  0  0  0  0  0
   37.0790   27.2410   33.0030 C   0  0  0  0  0  0  0  0  0  0  0  0
   37.4740   25.9220   32.7460 C   0  0  0  0  0  0  0  0  0  0  0  0
   37.9500   25.1200   33.7180 N   0  0  0  0  0  0  0  0  0  0  0  0
   37.7630   27.2120   36.2470 H   0  0  0  0  0  0  0  0  0  0  0  0
   36.8980   28.6770   34.4860 H   0  0  0  0  0  0  0  0  0  0  0  0
   37.4220   25.4700   31.7580 H   0  0  0  0  0  0  0  0  0  0  0  0
   39.7460   23.8330   35.8440 C   0  0  0  0  0  0  0  0  0  0  0  0
   38.5950   24.6240   36.0120 C   0  0  0  0  0  0  0  0  0  0  0  0
   37.9390   24.5110   37.2290 C   0  0  0  0  0  0  0  0  0  0  0  0
   38.4090   23.6710   38.1840 N   0  0  0  0  0  0  0  0  0  0  0  0
   39.5250   22.9320   37.9650 C   0  0  0  0  0  0  0  0  0  0  0  0
   40.1890   23.0090   36.8090 N   0  0  0  0  0  0  0  0  0  0  0  0
   40.2760   23.8960   34.9170 H   0  0  0  0  0  0  0  0  0  0  0  0
   37.0310   25.1060   37.4210 H   0  0  0  0  0  0  0  0  0  0  0  0
   39.8510   22.2780   38.7730 H   0  0  0  0  0  0  0  0  0  0  0  0
   36.6020   27.9700   31.9090 O   0  0  0  0  0  0  0  0  0  0  0  0
   35.5090   28.8140   32.0160 C   0  0  0  0  0  0  0  0  0  0  0  0
   35.6290   30.0060   31.2900 C   0  0  0  0  0  0  0  0  0  0  0  0
   34.4910   30.7660   31.4660 C   0  0  0  0  0  0  0  0  0  0  0  0
   33.7270   30.0270   32.2800 N   0  0  0  0  0  0  0  0  0  0  0  0
   34.3080   28.8960   32.6030 N   0  0  0  0  0  0  0  0  0  0  0  0
   36.4130   30.4320   30.6400 H   0  0  0  0  0  0  0  0  0  0  0  0
   34.2050   31.7390   31.0760 H   0  0  0  0  0  0  0  0  0  0  0  0
   32.4170   30.3050   32.8200 C   0  0  0  0  0  0  0  0  0  0  0  0
   31.7660   29.3440   33.5400 C   0  0  0  0  0  0  0  0  0  0  0  0
   32.0780   28.3420   33.7950 H   0  0  0  0  0  0  0  0  0  0  0  0
   30.5550   29.4710   34.0930 C   0  0  0  0  0  3  0  0  0  0  0  0
   29.9280   30.7690   33.8730 C   0  0  0  0  0  3  0  0  0  0  0  0
   31.2330   31.7260   32.8290 S   0  0  0  0  0  0  0  0  0  0  0  0
  1  2  1  0  0  0  0
  1 11  1  0  0  0  0
  2  7  1  0  0  0  0
  3  8  1  0  0  0  0
  3  2  2  0  0  0  0
  4  3  1  0  0  0  0
  5  4  2  0  0  0  0
  5  6  1  0  0  0  0
  6  1  2  0  0  0  0
  9  5  1  0  0  0  0
 10 11  2  0  0  0  0
 10 15  1  0  0  0  0
 11 12  1  0  0  0  0
 12 17  1  0  0  0  0
 12 13  2  0  0  0  0
 14 13  1  0  0  0  0
 14 18  1  0  0  0  0
 15 14  2  0  0  0  0
 16 10  1  0  0  0  0
 19 20  1  0  0  0  0
 19  4  1  0  0  0  0
 20 24  2  0  0  0  0
 21 22  2  0  0  0  0
 21 20  1  0  0  0  0
 22 23  1  0  0  0  0
 23 24  1  0  0  0  0
 23 27  1  0  0  0  0
 25 21  1  0  0  0  0
 26 22  1  0  0  0  0
 27 32  1  0  0  0  0
 27 28  2  0  0  0  0
 28 29  1  0  0  0  0
 28 30  1  0  0  0  0
 31 30  2  0  0  0  0
 32 31  1  0  0  0  0
M  END
>  <minimizedAffinity>
-5.19695711

$$$$

 OpenBabel03272510123D

 32 35  0  0  0  0  0  0  0  0999 V2000
   38.3250   25.5800   35.4660 C   0  0  0  0  0  0  0  0  0  0  0  0
   38.2170   26.8430   35.9370 C   0  0  0  0  0  0  0  0  0  0  0  0
   37.5860   27.8790   35.2700 C   0  0  0  0  0  0  0  0  0  0  0  0
   37.0200   27.6560   34.0520 C   0  0  0  0  0  0  0  0  0  0  0  0
   37.1270   26.3490   33.5580 C   0  0  0  0  0  0  0  0  0  0  0  0
   37.7530   25.3770   34.2480 N   0  0  0  0  0  0  0  0  0  0  0  0
   38.6360   27.1150   36.8960 H   0  0  0  0  0  0  0  0  0  0  0  0
   37.5000   28.8890   35.6460 H   0  0  0  0  0  0  0  0  0  0  0  0
   36.7160   26.0440   32.5980 H   0  0  0  0  0  0  0  0  0  0  0  0
   38.5420   23.9850   37.3910 C   0  0  0  0  0  0  0  0  0  0  0  0
   38.9810   24.5090   36.1620 C   0  0  0  0  0  0  0  0  0  0  0  0
   40.1200   23.9350   35.6150 C   0  0  0  0  0  0  0  0  0  0  0  0
   40.7520   22.9240   36.2610 N   0  0  0  0  0  0  0  0  0  0  0  0
   40.2820   22.4590   37.4450 C   0  0  0  0  0  0  0  0  0  0  0  0
   39.1900   22.9810   38.0070 N   0  0  0  0  0  0  0  0  0  0  0  0
   37.6680   24.4050   37.8400 H   0  0  0  0  0  0  0  0  0  0  0  0
   40.5130   24.3030   34.6540 H   0  0  0  0  0  0  0  0  0  0  0  0
   40.8360   21.6450   37.9110 H   0  0  0  0  0  0  0  0  0  0  0  0
   36.3450   28.5730   33.2400 O   0  0  0  0  0  0  0  0  0  0  0  0
   35.3250   29.3700   33.7320 C   0  0  0  0  0  0  0  0  0  0  0  0
   35.5290   30.7440   33.5500 C   0  0  0  0  0  0  0  0  0  0  0  0
   34.4590   31.4400   34.0720 C   0  0  0  0  0  0  0  0  0  0  0  0
   33.6500   30.4850   34.5490 N   0  0  0  0  0  0  0  0  0  0  0  0
   34.1440   29.2840   34.3560 N   0  0  0  0  0  0  0  0  0  0  0  0
   36.3350   31.3450   33.0940 H   0  0  0  0  0  0  0  0  0  0  0  0
   34.2450   32.5040   34.1270 H   0  0  0  0  0  0  0  0  0  0  0  0
   32.3750   30.6040   35.2160 C   0  0  0  0  0  0  0  0  0  0  0  0
   31.3260   29.8270   34.8110 C   0  0  0  0  0  0  0  0  0  0  0  0
   31.2780   29.0870   34.0260 H   0  0  0  0  0  0  0  0  0  0  0  0
   30.0990   29.8380   35.3410 C   0  0  0  0  0  3  0  0  0  0  0  0
   29.9270   30.7810   36.4390 C   0  0  0  0  0  3  0  0  0  0  0  0
   31.6620   31.6010   36.6020 S   0  0  0  0  0  0  0  0  0  0  0  0
  1  2  1  0  0  0  0
  1 11  1  0  0  0  0
  2  7  1  0  0  0  0
  3  8  1  0  0  0  0
  3  2  2  0  0  0  0
  4  3  1  0  0  0  0
  5  4  2  0  0  0  0
  5  6  1  0  0  0  0
  6  1  2  0  0  0  0
  9  5  1  0  0  0  0
 10 16  1  0  0  0  0
 10 15  1  0  0  0  0
 11 10  2  0  0  0  0
 12 11  1  0  0  0  0
 12 13  2  0  0  0  0
 13 14  1  0  0  0  0
 14 18  1  0  0  0  0
 14 15  2  0  0  0  0
 17 12  1  0  0  0  0
 19 20  1  0  0  0  0
 19  4  1  0  0  0  0
 20 24  2  0  0  0  0
 21 20  1  0  0  0  0
 21 22  2  0  0  0  0
 22 26  1  0  0  0  0
 22 23  1  0  0  0  0
 23 27  1  0  0  0  0
 24 23  1  0  0  0  0
 25 21  1  0  0  0  0
 27 32  1  0  0  0  0
 28 27  2  0  0  0  0
 28 30  1  0  0  0  0
 29 28  1  0  0  0  0
 30 31  2  0  0  0  0
 31 32  1  0  0  0  0
M  END
>  <minimizedAffinity>
-5.1745801

$$$$

 OpenBabel03272510123D

 32 35  0  0  0  0  0  0  0  0999 V2000
   36.1960   23.9330   31.7980 C   0  0  0  0  0  0  0  0  0  0  0  0
   37.1540   24.7610   32.2710 C   0  0  0  0  0  0  0  0  0  0  0  0
   37.1650   26.1340   32.0930 C   0  0  0  0  0  0  0  0  0  0  0  0
   36.1610   26.7350   31.3970 C   0  0  0  0  0  0  0  0  0  0  0  0
   35.1640   25.8830   30.9040 C   0  0  0  0  0  0  0  0  0  0  0  0
   35.2020   24.5520   31.1060 N   0  0  0  0  0  0  0  0  0  0  0  0
   37.9930   24.3750   32.8350 H   0  0  0  0  0  0  0  0  0  0  0  0
   37.9310   26.7960   32.4710 H   0  0  0  0  0  0  0  0  0  0  0  0
   34.3090   26.2400   30.3340 H   0  0  0  0  0  0  0  0  0  0  0  0
   35.5740   21.6020   31.1070 C   0  0  0  0  0  0  0  0  0  0  0  0
   36.1910   22.5090   31.9860 C   0  0  0  0  0  0  0  0  0  0  0  0
   36.8260   21.9640   33.0930 C   0  0  0  0  0  0  0  0  0  0  0  0
   36.8300   20.6220   33.2860 N   0  0  0  0  0  0  0  0  0  0  0  0
   36.2170   19.7950   32.4030 C   0  0  0  0  0  0  0  0  0  0  0  0
   35.5950   20.2760   31.3240 N   0  0  0  0  0  0  0  0  0  0  0  0
   35.0760   21.9890   30.2440 H   0  0  0  0  0  0  0  0  0  0  0  0
   37.3280   22.6240   33.8190 H   0  0  0  0  0  0  0  0  0  0  0  0
   36.2570   18.7270   32.6160 H   0  0  0  0  0  0  0  0  0  0  0  0
   36.0050   28.0960   31.1200 O   0  0  0  0  0  0  0  0  0  0  0  0
   35.6200   29.0000   32.0970 C   0  0  0  0  0  0  0  0  0  0  0  0
   36.1470   30.2870   31.9300 C   0  0  0  0  0  0  0  0  0  0  0  0
   35.7010   31.1010   32.9510 C   0  0  0  0  0  0  0  0  0  0  0  0
   34.9300   30.2980   33.6960 N   0  0  0  0  0  0  0  0  0  0  0  0
   34.8780   29.0800   33.2080 N   0  0  0  0  0  0  0  0  0  0  0  0
   36.8130   30.7510   31.1830 H   0  0  0  0  0  0  0  0  0  0  0  0
   35.8840   32.1490   33.1730 H   0  0  0  0  0  0  0  0  0  0  0  0
   34.1930   30.5870   34.9030 C   0  0  0  0  0  0  0  0  0  0  0  0
   34.6970   31.4800   35.8050 C   0  0  0  0  0  0  0  0  0  0  0  0
   35.6150   32.0490   35.7740 H   0  0  0  0  0  0  0  0  0  0  0  0
   34.1190   31.8360   36.9560 C   0  0  0  0  0  3  0  0  0  0  0  0
   32.8430   31.1800   37.2150 C   0  0  0  0  0  3  0  0  0  0  0  0
   32.5990   30.0510   35.6740 S   0  0  0  0  0  0  0  0  0  0  0  0
  1 11  1  0  0  0  0
  1  2  1  0  0  0  0
  2  7  1  0  0  0  0
  3  2  2  0  0  0  0
  3  8  1  0  0  0  0
  4  3  1  0  0  0  0
  5  6  1  0  0  0  0
  5  4  2  0  0  0  0
  6  1  2  0  0  0  0
  9  5  1  0  0  0  0
 10 15  2  0  0  0  0
 10 11  1  0  0  0  0
 11 12  2  0  0  0  0
 12 13  1  0  0  0  0
 12 17  1  0  0  0  0
 14 18  1  0  0  0  0
 14 13  2  0  0  0  0
 15 14  1  0  0  0  0
 16 10  1  0  0  0  0
 19  4  1  0  0  0  0
 19 20  1  0  0  0  0
 20 24  2  0  0  0  0
 21 20  1  0  0  0  0
 21 22  2  0  0  0  0
 22 26  1  0  0  0  0
 22 23  1  0  0  0  0
 23 27  1  0  0  0  0
 24 23  1  0  0  0  0
 25 21  1  0  0  0  0
 27 32  1  0  0  0  0
 27 28  2  0  0  0  0
 28 30  1  0  0  0  0
 29 28  1  0  0  0  0
 30 31  2  0  0  0  0
 32 31  1  0  0  0  0
M  END
>  <minimizedAffinity>
-5.08061171

$$$$

 OpenBabel03272510123D

 32 35  0  0  0  0  0  0  0  0999 V2000
   38.2910   25.3820   35.3130 C   0  0  0  0  0  0  0  0  0  0  0  0
   38.0520   26.6560   35.6980 C   0  0  0  0  0  0  0  0  0  0  0  0
   37.3870   27.5980   34.9320 C   0  0  0  0  0  0  0  0  0  0  0  0
   36.9220   27.2610   33.6970 C   0  0  0  0  0  0  0  0  0  0  0  0
   37.1650   25.9410   33.2920 C   0  0  0  0  0  0  0  0  0  0  0  0
   37.8180   25.0640   34.0780 N   0  0  0  0  0  0  0  0  0  0  0  0
   38.3850   27.0160   36.6620 H   0  0  0  0  0  0  0  0  0  0  0  0
   37.1970   28.6170   35.2390 H   0  0  0  0  0  0  0  0  0  0  0  0
   36.8440   25.5490   32.3290 H   0  0  0  0  0  0  0  0  0  0  0  0
   38.5280   23.9550   37.3630 C   0  0  0  0  0  0  0  0  0  0  0  0
   38.9820   24.4100   36.1130 C   0  0  0  0  0  0  0  0  0  0  0  0
   40.1730   23.8680   35.6520 C   0  0  0  0  0  0  0  0  0  0  0  0
   40.8390   22.9500   36.3950 N   0  0  0  0  0  0  0  0  0  0  0  0
   40.3510   22.5480   37.5950 C   0  0  0  0  0  0  0  0  0  0  0  0
   39.2090   23.0420   38.0780 N   0  0  0  0  0  0  0  0  0  0  0  0
   37.6130   24.3520   37.7480 H   0  0  0  0  0  0  0  0  0  0  0  0
   40.5800   24.1860   34.6790 H   0  0  0  0  0  0  0  0  0  0  0  0
   40.9350   21.8070   38.1420 H   0  0  0  0  0  0  0  0  0  0  0  0
   36.2330   28.0710   32.7900 O   0  0  0  0  0  0  0  0  0  0  0  0
   36.8440   28.5800   31.6560 C   0  0  0  0  0  0  0  0  0  0  0  0
   36.1640   29.6540   31.0680 C   0  0  0  0  0  0  0  0  0  0  0  0
   36.8570   30.0800   29.9540 C   0  0  0  0  0  0  0  0  0  0  0  0
   37.9190   29.2660   29.8980 N   0  0  0  0  0  0  0  0  0  0  0  0
   37.9190   28.3950   30.8790 N   0  0  0  0  0  0  0  0  0  0  0  0
   35.2330   30.1950   31.3090 H   0  0  0  0  0  0  0  0  0  0  0  0
   36.6580   30.8740   29.2390 H   0  0  0  0  0  0  0  0  0  0  0  0
   39.0020   29.2270   28.9440 C   0  0  0  0  0  0  0  0  0  0  0  0
   39.9200   30.2370   28.9230 C   0  0  0  0  0  0  0  0  0  0  0  0
   39.9860   31.1240   29.5370 H   0  0  0  0  0  0  0  0  0  0  0  0
   40.9670   30.3230   28.0950 C   0  0  0  0  0  3  0  0  0  0  0  0
   41.0820   29.2120   27.1580 C   0  0  0  0  0  3  0  0  0  0  0  0
   39.5770   28.0950   27.5980 S   0  0  0  0  0  0  0  0  0  0  0  0
  1  2  1  0  0  0  0
  1 11  1  0  0  0  0
  2  7  1  0  0  0  0
  3  8  1  0  0  0  0
  3  2  2  0  0  0  0
  4  3  1  0  0  0  0
  5  4  2  0  0  0  0
  5  6  1  0  0  0  0
  6  1  2  0  0  0  0
  9  5  1  0  0  0  0
 10 16  1  0  0  0  0
 10 15  1  0  0  0  0
 11 10  2  0  0  0  0
 12 11  1  0  0  0  0
 12 13  2  0  0  0  0
 13 14  1  0  0  0  0
 14 15  2  0  0  0  0
 14 18  1  0  0  0  0
 17 12  1  0  0  0  0
 19  4  1  0  0  0  0
 20 19  1  0  0  0  0
 21 25  1  0  0  0  0
 21 20  1  0  0  0  0
 22 21  2  0  0  0  0
 23 22  1  0  0  0  0
 23 24  1  0  0  0  0
 24 20  2  0  0  0  0
 26 22  1  0  0  0  0
 27 23  1  0  0  0  0
 28 27  2  0  0  0  0
 28 29  1  0  0  0  0
 30 28  1  0  0  0  0
 31 32  1  0  0  0  0
 31 30  2  0  0  0  0
 32 27  1  0  0  0  0
M  END
>  <minimizedAffinity>
-5.06755495

$$$$

 OpenBabel03272510123D

 32 35  0  0  0  0  0  0  0  0999 V2000
   38.3820   25.3260   35.2980 C   0  0  0  0  0  0  0  0  0  0  0  0
   38.0940   26.5630   35.7630 C   0  0  0  0  0  0  0  0  0  0  0  0
   37.3770   27.5190   35.0640 C   0  0  0  0  0  0  0  0  0  0  0  0
   36.9100   27.2360   33.8160 C   0  0  0  0  0  0  0  0  0  0  0  0
   37.2030   25.9560   33.3280 C   0  0  0  0  0  0  0  0  0  0  0  0
   37.9060   25.0630   34.0510 N   0  0  0  0  0  0  0  0  0  0  0  0
   38.4250   26.8780   36.7430 H   0  0  0  0  0  0  0  0  0  0  0  0
   37.1480   28.5070   35.4350 H   0  0  0  0  0  0  0  0  0  0  0  0
   36.8860   25.6090   32.3470 H   0  0  0  0  0  0  0  0  0  0  0  0
   38.7230   23.8070   37.2660 C   0  0  0  0  0  0  0  0  0  0  0  0
   39.1270   24.3400   36.0290 C   0  0  0  0  0  0  0  0  0  0  0  0
   40.3220   23.8620   35.5090 C   0  0  0  0  0  0  0  0  0  0  0  0
   41.0380   22.9310   36.1870 N   0  0  0  0  0  0  0  0  0  0  0  0
   40.5980   22.4530   37.3770 C   0  0  0  0  0  0  0  0  0  0  0  0
   39.4540   22.8830   37.9140 N   0  0  0  0  0  0  0  0  0  0  0  0
   37.8070   24.1530   37.6940 H   0  0  0  0  0  0  0  0  0  0  0  0
   40.6910   24.2410   34.5430 H   0  0  0  0  0  0  0  0  0  0  0  0
   41.2200   21.7060   37.8700 H   0  0  0  0  0  0  0  0  0  0  0  0
   36.1720   28.0680   32.9690 O   0  0  0  0  0  0  0  0  0  0  0  0
   35.4640   29.1570   33.4510 C   0  0  0  0  0  0  0  0  0  0  0  0
   35.8600   30.3870   32.9110 C   0  0  0  0  0  0  0  0  0  0  0  0
   35.0940   31.3950   33.4570 C   0  0  0  0  0  0  0  0  0  0  0  0
   34.2690   30.7600   34.2990 N   0  0  0  0  0  0  0  0  0  0  0  0
   34.4770   29.4640   34.3020 N   0  0  0  0  0  0  0  0  0  0  0  0
   36.6240   30.6900   32.1740 H   0  0  0  0  0  0  0  0  0  0  0  0
   35.0950   32.4710   33.2990 H   0  0  0  0  0  0  0  0  0  0  0  0
   33.2390   31.2920   35.1600 C   0  0  0  0  0  0  0  0  0  0  0  0
   32.2440   32.0600   34.6260 C   0  0  0  0  0  0  0  0  0  0  0  0
   32.0780   32.3620   33.6020 H   0  0  0  0  0  0  0  0  0  0  0  0
   31.2340   32.6120   35.3080 C   0  0  0  0  0  3  0  0  0  0  0  0
   31.2540   32.3340   36.7380 C   0  0  0  0  0  3  0  0  0  0  0  0
   32.8220   31.2390   36.9610 S   0  0  0  0  0  0  0  0  0  0  0  0
  1  2  1  0  0  0  0
  1 11  1  0  0  0  0
  2  7  1  0  0  0  0
  3  8  1  0  0  0  0
  3  2  2  0  0  0  0
  4  3  1  0  0  0  0
  5  4  2  0  0  0  0
  5  6  1  0  0  0  0
  6  1  2  0  0  0  0
  9  5  1  0  0  0  0
 10 16  1  0  0  0  0
 10 15  1  0  0  0  0
 11 10  2  0  0  0  0
 12 11  1  0  0  0  0
 12 13  2  0  0  0  0
 13 14  1  0  0  0  0
 14 18  1  0  0  0  0
 14 15  2  0  0  0  0
 17 12  1  0  0  0  0
 19 20  1  0  0  0  0
 19  4  1  0  0  0  0
 20 24  2  0  0  0  0
 21 20  1  0  0  0  0
 21 22  2  0  0  0  0
 22 23  1  0  0  0  0
 23 24  1  0  0  0  0
 23 27  1  0  0  0  0
 25 21  1  0  0  0  0
 26 22  1  0  0  0  0
 27 32  1  0  0  0  0
 28 27  2  0  0  0  0
 28 30  1  0  0  0  0
 29 28  1  0  0  0  0
 30 31  2  0  0  0  0
 31 32  1  0  0  0  0
M  END
>  <minimizedAffinity>
-5.02885199

$$$$
