
 OpenBabel03272501133D

 25 27  0  0  1  0  0  0  0  0999 V2000
   37.3660   26.6890   35.2920 C   0  0  1  0  0  0  0  0  0  0  0  0
   38.3090   25.6210   35.5410 C   0  0  1  0  0  0  0  0  0  0  0  0
   38.8050   27.0400   35.6660 C   0  0  0  0  0  0  0  0  0  0  0  0
   36.6090   27.0930   36.0010 H   0  0  0  0  0  0  0  0  0  0  0  0
   38.7450   25.1180   34.6340 H   0  0  0  0  0  0  0  0  0  0  0  0
   38.9530   27.3580   36.7180 H   0  0  0  0  0  0  0  0  0  0  0  0
   39.4630   27.4810   34.9110 H   0  0  0  0  0  0  0  0  0  0  0  0
   37.0310   27.1130   33.8750 C   0  0  0  0  0  0  0  0  0  0  0  0
   36.3340   28.3160   33.7440 C   0  0  0  0  0  0  0  0  0  0  0  0
   36.0220   28.6700   32.4330 C   0  0  0  0  0  0  0  0  0  0  0  0
   36.3870   27.8710   31.3790 N   0  0  0  0  0  0  0  0  0  0  0  0
   37.0630   26.7120   31.5670 C   0  0  0  0  0  0  0  0  0  0  0  0
   37.3860   26.3330   32.8410 N   0  0  0  0  0  0  0  0  0  0  0  0
   36.0590   28.9240   34.5920 H   0  0  0  0  0  0  0  0  0  0  0  0
   35.4830   29.5890   32.2390 H   0  0  0  0  0  0  0  0  0  0  0  0
   37.3380   26.1020   30.7180 H   0  0  0  0  0  0  0  0  0  0  0  0
   38.1120   24.7650   36.7640 C   0  0  0  0  0  0  0  0  0  0  0  0
   37.1160   24.2800   36.7800 H   0  0  0  0  0  0  0  0  0  0  0  0
   38.2730   25.3930   37.6610 H   0  0  0  0  0  0  0  0  0  0  0  0
   39.1850   23.7380   36.7430 C   0  0  0  0  0  0  0  0  0  0  0  0
   39.6640   22.9510   37.7180 C   0  0  0  0  0  0  0  0  0  0  0  0
   39.2240   23.0420   38.7130 H   0  0  0  0  0  0  0  0  0  0  0  0
   40.6730   22.0630   37.4590 C   0  0  0  0  0  3  0  0  0  0  0  0
   41.1480   22.0440   36.1460 C   0  0  0  0  0  3  0  0  0  0  0  0
   40.1200   23.3210   35.2920 S   0  0  0  0  0  0  0  0  0  0  0  0
  1  2  1  0  0  0  0
  1  3  1  0  0  0  0
  1  4  1  1  0  0  0
  2  5  1  6  0  0  0
  2  3  1  0  0  0  0
  2 17  1  0  0  0  0
  3  6  1  0  0  0  0
  7  3  1  0  0  0  0
  8  1  1  0  0  0  0
  9  8  1  0  0  0  0
  9 14  1  0  0  0  0
 10  9  2  0  0  0  0
 11 12  2  0  0  0  0
 11 10  1  0  0  0  0
 12 13  1  0  0  0  0
 13  8  2  0  0  0  0
 15 10  1  0  0  0  0
 16 12  1  0  0  0  0
 17 18  1  0  0  0  0
 17 19  1  0  0  0  0
 20 17  1  0  0  0  0
 20 21  2  0  0  0  0
 21 22  1  0  0  0  0
 23 21  1  0  0  0  0
 24 23  2  0  0  0  0
 25 24  1  0  0  0  0
 25 20  1  0  0  0  0
M  END
>  <minimizedAffinity>
-4.39596891

$$$$

 OpenBabel03272501133D

 25 27  0  0  1  0  0  0  0  0999 V2000
   37.3470   26.5820   35.1070 C   0  0  1  0  0  0  0  0  0  0  0  0
   38.3930   25.7440   35.6510 C   0  0  1  0  0  0  0  0  0  0  0  0
   38.3500   27.1880   36.0880 C   0  0  0  0  0  0  0  0  0  0  0  0
   36.2910   26.6450   35.4530 H   0  0  0  0  0  0  0  0  0  0  0  0
   39.2760   25.5500   34.9830 H   0  0  0  0  0  0  0  0  0  0  0  0
   37.9750   27.3180   37.1240 H   0  0  0  0  0  0  0  0  0  0  0  0
   39.0830   27.9140   35.7240 H   0  0  0  0  0  0  0  0  0  0  0  0
   37.4770   27.1830   33.7220 C   0  0  0  0  0  0  0  0  0  0  0  0
   38.5470   26.7210   32.9520 C   0  0  0  0  0  0  0  0  0  0  0  0
   38.6540   27.3060   31.6910 C   0  0  0  0  0  0  0  0  0  0  0  0
   37.7600   28.2580   31.2750 N   0  0  0  0  0  0  0  0  0  0  0  0
   36.7400   28.6690   32.0670 C   0  0  0  0  0  0  0  0  0  0  0  0
   36.6040   28.1170   33.3110 N   0  0  0  0  0  0  0  0  0  0  0  0
   39.2360   25.9700   33.3060 H   0  0  0  0  0  0  0  0  0  0  0  0
   39.4560   27.0050   31.0270 H   0  0  0  0  0  0  0  0  0  0  0  0
   36.0500   29.4220   31.7140 H   0  0  0  0  0  0  0  0  0  0  0  0
   38.0050   24.6430   36.6020 C   0  0  0  0  0  0  0  0  0  0  0  0
   37.0950   24.1050   36.2690 H   0  0  0  0  0  0  0  0  0  0  0  0
   37.8720   25.0790   37.6090 H   0  0  0  0  0  0  0  0  0  0  0  0
   39.1590   23.7110   36.6690 C   0  0  0  0  0  0  0  0  0  0  0  0
   39.5970   22.9280   37.6670 C   0  0  0  0  0  0  0  0  0  0  0  0
   39.0460   22.9430   38.6100 H   0  0  0  0  0  0  0  0  0  0  0  0
   40.7020   22.1400   37.4960 C   0  0  0  0  0  3  0  0  0  0  0  0
   41.3160   22.2120   36.2440 C   0  0  0  0  0  3  0  0  0  0  0  0
   40.2780   23.4300   35.3200 S   0  0  0  0  0  0  0  0  0  0  0  0
  1  4  1  1  0  0  0
  1  2  1  0  0  0  0
  1  3  1  0  0  0  0
  2  5  1  6  0  0  0
  2  3  1  0  0  0  0
  2 17  1  0  0  0  0
  3  6  1  0  0  0  0
  7  3  1  0  0  0  0
  8  1  1  0  0  0  0
  9 14  1  0  0  0  0
  9  8  2  0  0  0  0
 10  9  1  0  0  0  0
 11 10  2  0  0  0  0
 11 12  1  0  0  0  0
 12 13  2  0  0  0  0
 13  8  1  0  0  0  0
 15 10  1  0  0  0  0
 16 12  1  0  0  0  0
 17 20  1  0  0  0  0
 17 19  1  0  0  0  0
 18 17  1  0  0  0  0
 20 21  2  0  0  0  0
 21 22  1  0  0  0  0
 23 21  1  0  0  0  0
 24 23  2  0  0  0  0
 25 24  1  0  0  0  0
 25 20  1  0  0  0  0
M  END
>  <minimizedAffinity>
-4.36178875

$$$$

 OpenBabel03272501133D

 25 27  0  0  1  0  0  0  0  0999 V2000
   39.1790   25.2590   34.7170 C   0  0  1  0  0  0  0  0  0  0  0  0
   38.4560   26.4970   34.5240 C   0  0  1  0  0  0  0  0  0  0  0  0
   39.9140   26.5860   34.9030 C   0  0  0  0  0  0  0  0  0  0  0  0
   39.6210   24.6120   33.9270 H   0  0  0  0  0  0  0  0  0  0  0  0
   37.7970   26.8280   35.3730 H   0  0  0  0  0  0  0  0  0  0  0  0
   40.5650   26.8850   34.0560 H   0  0  0  0  0  0  0  0  0  0  0  0
   40.2230   26.8910   35.9070 H   0  0  0  0  0  0  0  0  0  0  0  0
   39.0650   24.4890   36.0170 C   0  0  0  0  0  0  0  0  0  0  0  0
   38.0300   24.8790   36.8710 C   0  0  0  0  0  0  0  0  0  0  0  0
   37.9620   24.1680   38.0680 C   0  0  0  0  0  0  0  0  0  0  0  0
   38.8600   23.1710   38.3500 N   0  0  0  0  0  0  0  0  0  0  0  0
   39.8460   22.8360   37.4830 C   0  0  0  0  0  0  0  0  0  0  0  0
   39.9430   23.5120   36.2980 N   0  0  0  0  0  0  0  0  0  0  0  0
   37.3380   25.6690   36.6220 H   0  0  0  0  0  0  0  0  0  0  0  0
   37.1880   24.4040   38.7880 H   0  0  0  0  0  0  0  0  0  0  0  0
   40.5400   22.0460   37.7310 H   0  0  0  0  0  0  0  0  0  0  0  0
   38.0010   26.8500   33.1330 C   0  0  0  0  0  0  0  0  0  0  0  0
   37.5930   25.9740   32.5920 H   0  0  0  0  0  0  0  0  0  0  0  0
   38.8510   27.3030   32.5900 H   0  0  0  0  0  0  0  0  0  0  0  0
   36.9580   27.8970   33.2780 C   0  0  0  0  0  0  0  0  0  0  0  0
   36.3230   28.3560   34.3660 C   0  0  0  0  0  0  0  0  0  0  0  0
   36.5800   27.9190   35.3330 H   0  0  0  0  0  0  0  0  0  0  0  0
   35.3820   29.3450   34.2550 C   0  0  0  0  0  3  0  0  0  0  0  0
   35.1450   29.8190   32.9630 C   0  0  0  0  0  3  0  0  0  0  0  0
   36.2960   28.8230   31.9150 S   0  0  0  0  0  0  0  0  0  0  0  0
  1  4  1  6  0  0  0
  1  3  1  0  0  0  0
  1  8  1  0  0  0  0
  2  1  1  0  0  0  0
  2  3  1  0  0  0  0
  2  5  1  1  0  0  0
  3  7  1  0  0  0  0
  6  3  1  0  0  0  0
  8 13  2  0  0  0  0
  8  9  1  0  0  0  0
  9 10  2  0  0  0  0
 10 11  1  0  0  0  0
 10 15  1  0  0  0  0
 12 16  1  0  0  0  0
 12 11  2  0  0  0  0
 13 12  1  0  0  0  0
 14  9  1  0  0  0  0
 17 20  1  0  0  0  0
 17  2  1  0  0  0  0
 18 17  1  0  0  0  0
 19 17  1  0  0  0  0
 20 21  2  0  0  0  0
 21 22  1  0  0  0  0
 23 21  1  0  0  0  0
 24 23  2  0  0  0  0
 25 24  1  0  0  0  0
 25 20  1  0  0  0  0
M  END
>  <minimizedAffinity>
-4.32507086

$$$$

 OpenBabel03272501133D

 25 27  0  0  1  0  0  0  0  0999 V2000
   39.5440   25.3800   34.4650 C   0  0  1  0  0  0  0  0  0  0  0  0
   38.6570   26.4310   34.0160 C   0  0  1  0  0  0  0  0  0  0  0  0
   39.8660   26.8290   34.8280 C   0  0  0  0  0  0  0  0  0  0  0  0
   40.3430   24.8800   33.8750 H   0  0  0  0  0  0  0  0  0  0  0  0
   37.7100   26.5720   34.6050 H   0  0  0  0  0  0  0  0  0  0  0  0
   40.6630   27.3000   34.2180 H   0  0  0  0  0  0  0  0  0  0  0  0
   39.7690   27.1550   35.8680 H   0  0  0  0  0  0  0  0  0  0  0  0
   39.2060   24.5520   35.6900 C   0  0  0  0  0  0  0  0  0  0  0  0
   37.9730   24.8200   36.2890 C   0  0  0  0  0  0  0  0  0  0  0  0
   37.6990   24.0590   37.4240 C   0  0  0  0  0  0  0  0  0  0  0  0
   38.5950   23.1300   37.8870 N   0  0  0  0  0  0  0  0  0  0  0  0
   39.7790   22.9140   37.2630 C   0  0  0  0  0  0  0  0  0  0  0  0
   40.0820   23.6420   36.1460 N   0  0  0  0  0  0  0  0  0  0  0  0
   37.2870   25.5580   35.9020 H   0  0  0  0  0  0  0  0  0  0  0  0
   36.7630   24.2010   37.9510 H   0  0  0  0  0  0  0  0  0  0  0  0
   40.4670   22.1750   37.6500 H   0  0  0  0  0  0  0  0  0  0  0  0
   38.5920   26.7280   32.5410 C   0  0  0  0  0  0  0  0  0  0  0  0
   39.4840   26.3580   32.0000 H   0  0  0  0  0  0  0  0  0  0  0  0
   38.4600   27.8180   32.4080 H   0  0  0  0  0  0  0  0  0  0  0  0
   37.3660   26.0660   32.0270 C   0  0  0  0  0  0  0  0  0  0  0  0
   36.9730   24.7850   32.0810 C   0  0  0  0  0  0  0  0  0  0  0  0
   37.6310   24.0670   32.5760 H   0  0  0  0  0  0  0  0  0  0  0  0
   35.7810   24.4000   31.5290 C   0  0  0  0  0  3  0  0  0  0  0  0
   35.0330   25.4130   30.9260 C   0  0  0  0  0  3  0  0  0  0  0  0
   36.0710   26.9240   31.1670 S   0  0  0  0  0  0  0  0  0  0  0  0
  1  4  1  6  0  0  0
  1  3  1  0  0  0  0
  1  8  1  0  0  0  0
  2  1  1  0  0  0  0
  2  5  1  1  0  0  0
  2  3  1  0  0  0  0
  3  7  1  0  0  0  0
  6  3  1  0  0  0  0
  8 13  2  0  0  0  0
  8  9  1  0  0  0  0
  9 10  2  0  0  0  0
 10 11  1  0  0  0  0
 10 15  1  0  0  0  0
 12 16  1  0  0  0  0
 12 11  2  0  0  0  0
 13 12  1  0  0  0  0
 14  9  1  0  0  0  0
 17  2  1  0  0  0  0
 18 17  1  0  0  0  0
 19 17  1  0  0  0  0
 20 21  2  0  0  0  0
 20 17  1  0  0  0  0
 21 22  1  0  0  0  0
 23 21  1  0  0  0  0
 24 25  1  0  0  0  0
 24 23  2  0  0  0  0
 25 20  1  0  0  0  0
M  END
>  <minimizedAffinity>
-4.27566528

$$$$

 OpenBabel03272501133D

 25 27  0  0  1  0  0  0  0  0999 V2000
   36.8030   27.9700   32.9230 C   0  0  1  0  0  0  0  0  0  0  0  0
   35.7210   28.7630   33.4650 C   0  0  1  0  0  0  0  0  0  0  0  0
   36.5960   28.0100   34.4370 C   0  0  0  0  0  0  0  0  0  0  0  0
   37.8030   28.3340   32.6000 H   0  0  0  0  0  0  0  0  0  0  0  0
   34.6930   28.3100   33.4110 H   0  0  0  0  0  0  0  0  0  0  0  0
   37.2970   28.6680   34.9900 H   0  0  0  0  0  0  0  0  0  0  0  0
   36.2330   27.1160   34.9520 H   0  0  0  0  0  0  0  0  0  0  0  0
   36.5410   26.5900   32.3530 C   0  0  0  0  0  0  0  0  0  0  0  0
   35.5150   26.5010   31.4100 C   0  0  0  0  0  0  0  0  0  0  0  0
   35.2830   25.2170   30.9190 C   0  0  0  0  0  0  0  0  0  0  0  0
   36.0260   24.1490   31.3530 N   0  0  0  0  0  0  0  0  0  0  0  0
   37.0100   24.2960   32.2730 C   0  0  0  0  0  0  0  0  0  0  0  0
   37.2660   25.5420   32.7760 N   0  0  0  0  0  0  0  0  0  0  0  0
   34.9460   27.3600   31.0870 H   0  0  0  0  0  0  0  0  0  0  0  0
   34.5050   25.0580   30.1830 H   0  0  0  0  0  0  0  0  0  0  0  0
   37.5800   23.4370   32.5980 H   0  0  0  0  0  0  0  0  0  0  0  0
   35.8100   30.2630   33.3550 C   0  0  0  0  0  0  0  0  0  0  0  0
   35.2430   30.6530   32.4870 H   0  0  0  0  0  0  0  0  0  0  0  0
   36.8770   30.5480   33.3040 H   0  0  0  0  0  0  0  0  0  0  0  0
   35.2620   30.8160   34.6190 C   0  0  0  0  0  0  0  0  0  0  0  0
   35.8560   31.5050   35.6050 C   0  0  0  0  0  0  0  0  0  0  0  0
   36.9220   31.7220   35.5090 H   0  0  0  0  0  0  0  0  0  0  0  0
   35.1360   31.9200   36.6930 C   0  0  0  0  0  3  0  0  0  0  0  0
   33.7820   31.5800   36.6950 C   0  0  0  0  0  3  0  0  0  0  0  0
   33.5620   30.6570   35.1080 S   0  0  0  0  0  0  0  0  0  0  0  0
  1  4  1  6  0  0  0
  1  2  1  0  0  0  0
  1  3  1  0  0  0  0
  2  5  1  6  0  0  0
  2  3  1  0  0  0  0
  3  7  1  0  0  0  0
  3  6  1  0  0  0  0
  8 13  1  0  0  0  0
  8  1  1  0  0  0  0
  9  8  2  0  0  0  0
 10 11  2  0  0  0  0
 10  9  1  0  0  0  0
 11 12  1  0  0  0  0
 12 16  1  0  0  0  0
 12 13  2  0  0  0  0
 14  9  1  0  0  0  0
 15 10  1  0  0  0  0
 17  2  1  0  0  0  0
 17 20  1  0  0  0  0
 18 17  1  0  0  0  0
 19 17  1  0  0  0  0
 20 25  1  0  0  0  0
 20 21  2  0  0  0  0
 21 23  1  0  0  0  0
 22 21  1  0  0  0  0
 23 24  2  0  0  0  0
 25 24  1  0  0  0  0
M  END
>  <minimizedAffinity>
-4.25679779

$$$$

 OpenBabel03272501133D

 25 27  0  0  1  0  0  0  0  0999 V2000
   38.5620   26.2330   34.9920 C   0  0  1  0  0  0  0  0  0  0  0  0
   37.3240   26.9670   35.1420 C   0  0  1  0  0  0  0  0  0  0  0  0
   38.5310   27.4610   35.9020 C   0  0  0  0  0  0  0  0  0  0  0  0
   39.2920   26.3160   34.1560 H   0  0  0  0  0  0  0  0  0  0  0  0
   36.5610   26.5230   35.8390 H   0  0  0  0  0  0  0  0  0  0  0  0
   38.9720   28.3800   35.4660 H   0  0  0  0  0  0  0  0  0  0  0  0
   38.6140   27.3270   36.9840 H   0  0  0  0  0  0  0  0  0  0  0  0
   38.8060   24.9570   35.7720 C   0  0  0  0  0  0  0  0  0  0  0  0
   40.0070   24.2970   35.5070 C   0  0  0  0  0  0  0  0  0  0  0  0
   40.1950   23.1160   36.2240 C   0  0  0  0  0  0  0  0  0  0  0  0
   39.2500   22.6700   37.1110 N   0  0  0  0  0  0  0  0  0  0  0  0
   38.1000   23.3530   37.3280 C   0  0  0  0  0  0  0  0  0  0  0  0
   37.8820   24.5170   36.6420 N   0  0  0  0  0  0  0  0  0  0  0  0
   40.7330   24.6720   34.8020 H   0  0  0  0  0  0  0  0  0  0  0  0
   41.1010   22.5400   36.0800 H   0  0  0  0  0  0  0  0  0  0  0  0
   37.3720   22.9780   38.0330 H   0  0  0  0  0  0  0  0  0  0  0  0
   36.7980   27.7310   33.9560 C   0  0  0  0  0  0  0  0  0  0  0  0
   37.0840   28.8010   33.9870 H   0  0  0  0  0  0  0  0  0  0  0  0
   35.7000   27.6050   33.9150 H   0  0  0  0  0  0  0  0  0  0  0  0
   37.3650   27.0820   32.7460 C   0  0  0  0  0  0  0  0  0  0  0  0
   38.3550   27.4680   31.9270 C   0  0  0  0  0  0  0  0  0  0  0  0
   38.8620   28.4110   32.1430 H   0  0  0  0  0  0  0  0  0  0  0  0
   38.7100   26.6930   30.8560 C   0  0  0  0  0  3  0  0  0  0  0  0
   37.9850   25.5120   30.6890 C   0  0  0  0  0  3  0  0  0  0  0  0
   36.7870   25.5340   32.0970 S   0  0  0  0  0  0  0  0  0  0  0  0
  1  4  1  6  0  0  0
  1  2  1  0  0  0  0
  1  8  1  0  0  0  0
  1  3  1  0  0  0  0
  2  5  1  1  0  0  0
  2  3  1  0  0  0  0
  3  7  1  0  0  0  0
  6  3  1  0  0  0  0
  8 13  1  0  0  0  0
  9  8  2  0  0  0  0
  9 10  1  0  0  0  0
 10 11  2  0  0  0  0
 11 12  1  0  0  0  0
 12 16  1  0  0  0  0
 13 12  2  0  0  0  0
 14  9  1  0  0  0  0
 15 10  1  0  0  0  0
 17 18  1  0  0  0  0
 17  2  1  0  0  0  0
 19 17  1  0  0  0  0
 20 17  1  0  0  0  0
 21 22  1  0  0  0  0
 21 20  2  0  0  0  0
 23 21  1  0  0  0  0
 24 23  2  0  0  0  0
 24 25  1  0  0  0  0
 25 20  1  0  0  0  0
M  END
>  <minimizedAffinity>
-4.1131196

$$$$

 OpenBabel03272501133D

 25 27  0  0  1  0  0  0  0  0999 V2000
   36.7280   25.1260   31.4580 C   0  0  1  0  0  0  0  0  0  0  0  0
   36.3520   23.7610   31.7580 C   0  0  1  0  0  0  0  0  0  0  0  0
   35.3180   24.6490   31.1110 C   0  0  0  0  0  0  0  0  0  0  0  0
   37.3070   25.4820   30.5780 H   0  0  0  0  0  0  0  0  0  0  0  0
   36.0840   23.5400   32.8280 H   0  0  0  0  0  0  0  0  0  0  0  0
   35.1510   24.4140   30.0400 H   0  0  0  0  0  0  0  0  0  0  0  0
   34.4670   25.0370   31.6790 H   0  0  0  0  0  0  0  0  0  0  0  0
   36.7160   26.1880   32.5390 C   0  0  0  0  0  0  0  0  0  0  0  0
   36.2730   27.4540   32.1490 C   0  0  0  0  0  0  0  0  0  0  0  0
   36.2920   28.4150   33.1580 C   0  0  0  0  0  0  0  0  0  0  0  0
   36.7200   28.1050   34.4230 N   0  0  0  0  0  0  0  0  0  0  0  0
   37.1390   26.8570   34.7440 C   0  0  0  0  0  0  0  0  0  0  0  0
   37.1340   25.8880   33.7790 N   0  0  0  0  0  0  0  0  0  0  0  0
   35.9430   27.6700   31.1440 H   0  0  0  0  0  0  0  0  0  0  0  0
   35.9640   29.4250   32.9420 H   0  0  0  0  0  0  0  0  0  0  0  0
   37.4720   26.6400   35.7500 H   0  0  0  0  0  0  0  0  0  0  0  0
   37.0070   22.6520   30.9780 C   0  0  0  0  0  0  0  0  0  0  0  0
   38.1070   22.6380   31.1140 H   0  0  0  0  0  0  0  0  0  0  0  0
   36.7300   22.7610   29.9130 H   0  0  0  0  0  0  0  0  0  0  0  0
   36.4130   21.3800   31.4640 C   0  0  0  0  0  0  0  0  0  0  0  0
   35.1340   21.0350   31.6730 C   0  0  0  0  0  0  0  0  0  0  0  0
   34.3610   21.7780   31.4660 H   0  0  0  0  0  0  0  0  0  0  0  0
   34.8190   19.7840   32.1320 C   0  0  0  0  0  3  0  0  0  0  0  0
   35.8990   18.9270   32.3580 C   0  0  0  0  0  3  0  0  0  0  0  0
   37.3690   19.9490   31.8980 S   0  0  0  0  0  0  0  0  0  0  0  0
  1  4  1  6  0  0  0
  1  2  1  0  0  0  0
  1  8  1  0  0  0  0
  2  5  1  1  0  0  0
  3  1  1  0  0  0  0
  3  7  1  0  0  0  0
  3  2  1  0  0  0  0
  6  3  1  0  0  0  0
  8 13  1  0  0  0  0
  9  8  2  0  0  0  0
  9 10  1  0  0  0  0
 10 11  2  0  0  0  0
 11 12  1  0  0  0  0
 12 16  1  0  0  0  0
 13 12  2  0  0  0  0
 14  9  1  0  0  0  0
 15 10  1  0  0  0  0
 17 18  1  0  0  0  0
 17 20  1  0  0  0  0
 17  2  1  0  0  0  0
 19 17  1  0  0  0  0
 20 21  2  0  0  0  0
 20 25  1  0  0  0  0
 21 23  1  0  0  0  0
 22 21  1  0  0  0  0
 23 24  2  0  0  0  0
 25 24  1  0  0  0  0
M  END
>  <minimizedAffinity>
-4.0629406

$$$$

 OpenBabel03272501133D

 25 27  0  0  1  0  0  0  0  0999 V2000
   35.5980   30.2020   33.1840 C   0  0  1  0  0  0  0  0  0  0  0  0
   35.5500   28.8150   33.5910 C   0  0  1  0  0  0  0  0  0  0  0  0
   34.3390   29.3860   32.8940 C   0  0  0  0  0  0  0  0  0  0  0  0
   36.0810   30.6160   32.2710 H   0  0  0  0  0  0  0  0  0  0  0  0
   35.3370   28.6190   34.6770 H   0  0  0  0  0  0  0  0  0  0  0  0
   34.2350   29.0380   31.8460 H   0  0  0  0  0  0  0  0  0  0  0  0
   33.4190   29.6070   33.4440 H   0  0  0  0  0  0  0  0  0  0  0  0
   35.3350   31.3120   34.1830 C   0  0  0  0  0  0  0  0  0  0  0  0
   35.7500   31.0670   35.4940 C   0  0  0  0  0  0  0  0  0  0  0  0
   35.4770   32.0950   36.3940 C   0  0  0  0  0  0  0  0  0  0  0  0
   34.8470   33.2430   35.9870 N   0  0  0  0  0  0  0  0  0  0  0  0
   34.4660   33.4250   34.6990 C   0  0  0  0  0  0  0  0  0  0  0  0
   34.7180   32.4370   33.7880 N   0  0  0  0  0  0  0  0  0  0  0  0
   36.2440   30.1530   35.7860 H   0  0  0  0  0  0  0  0  0  0  0  0
   35.7660   31.9890   37.4330 H   0  0  0  0  0  0  0  0  0  0  0  0
   33.9700   34.3400   34.4060 H   0  0  0  0  0  0  0  0  0  0  0  0
   36.4480   27.8320   32.8860 C   0  0  0  0  0  0  0  0  0  0  0  0
   36.8650   28.2460   31.9470 H   0  0  0  0  0  0  0  0  0  0  0  0
   35.8770   26.9030   32.7030 H   0  0  0  0  0  0  0  0  0  0  0  0
   37.5430   27.5010   33.8330 C   0  0  0  0  0  0  0  0  0  0  0  0
   37.5990   27.5820   35.1710 C   0  0  0  0  0  0  0  0  0  0  0  0
   36.7170   27.9480   35.7000 H   0  0  0  0  0  0  0  0  0  0  0  0
   38.7350   27.2140   35.8410 C   0  0  0  0  0  3  0  0  0  0  0  0
   39.7930   26.7640   35.0480 C   0  0  0  0  0  3  0  0  0  0  0  0
   39.1270   26.8780   33.3280 S   0  0  0  0  0  0  0  0  0  0  0  0
  1  4  1  6  0  0  0
  1  2  1  0  0  0  0
  1  8  1  0  0  0  0
  2  5  1  1  0  0  0
  3  1  1  0  0  0  0
  3  7  1  0  0  0  0
  3  2  1  0  0  0  0
  6  3  1  0  0  0  0
  8  9  1  0  0  0  0
  9 14  1  0  0  0  0
  9 10  2  0  0  0  0
 10 15  1  0  0  0  0
 11 10  1  0  0  0  0
 12 11  2  0  0  0  0
 13  8  2  0  0  0  0
 13 12  1  0  0  0  0
 16 12  1  0  0  0  0
 17  2  1  0  0  0  0
 17 20  1  0  0  0  0
 18 17  1  0  0  0  0
 19 17  1  0  0  0  0
 20 21  2  0  0  0  0
 21 22  1  0  0  0  0
 21 23  1  0  0  0  0
 24 23  2  0  0  0  0
 25 20  1  0  0  0  0
 25 24  1  0  0  0  0
M  END
>  <minimizedAffinity>
-4.04328728

$$$$

 OpenBabel03272501133D

 25 27  0  0  1  0  0  0  0  0999 V2000
   36.0140   30.0170   33.7070 C   0  0  1  0  0  0  0  0  0  0  0  0
   35.7680   28.7300   33.0940 C   0  0  1  0  0  0  0  0  0  0  0  0
   35.2930   29.9600   32.3600 C   0  0  0  0  0  0  0  0  0  0  0  0
   36.9610   30.6010   33.6810 H   0  0  0  0  0  0  0  0  0  0  0  0
   34.9010   28.1400   33.4990 H   0  0  0  0  0  0  0  0  0  0  0  0
   35.9200   30.2110   31.4810 H   0  0  0  0  0  0  0  0  0  0  0  0
   34.2310   30.2170   32.3110 H   0  0  0  0  0  0  0  0  0  0  0  0
   35.1130   30.5340   34.8090 C   0  0  0  0  0  0  0  0  0  0  0  0
   35.6950   31.4330   35.7060 C   0  0  0  0  0  0  0  0  0  0  0  0
   34.8490   31.8760   36.7210 C   0  0  0  0  0  0  0  0  0  0  0  0
   33.5510   31.4400   36.8000 N   0  0  0  0  0  0  0  0  0  0  0  0
   33.0390   30.5650   35.9010 C   0  0  0  0  0  0  0  0  0  0  0  0
   33.8410   30.1100   34.8910 N   0  0  0  0  0  0  0  0  0  0  0  0
   36.7200   31.7580   35.6190 H   0  0  0  0  0  0  0  0  0  0  0  0
   35.2190   32.5760   37.4600 H   0  0  0  0  0  0  0  0  0  0  0  0
   32.0130   30.2380   35.9870 H   0  0  0  0  0  0  0  0  0  0  0  0
   36.9480   27.9420   32.5880 C   0  0  0  0  0  0  0  0  0  0  0  0
   37.6980   27.7550   33.3820 H   0  0  0  0  0  0  0  0  0  0  0  0
   37.3910   28.4840   31.7310 H   0  0  0  0  0  0  0  0  0  0  0  0
   36.4130   26.6570   32.0710 C   0  0  0  0  0  0  0  0  0  0  0  0
   35.3940   26.4040   31.2360 C   0  0  0  0  0  0  0  0  0  0  0  0
   34.8320   27.2520   30.8410 H   0  0  0  0  0  0  0  0  0  0  0  0
   35.0800   25.1160   30.8960 C   0  0  0  0  0  3  0  0  0  0  0  0
   35.8760   24.1210   31.4690 C   0  0  0  0  0  3  0  0  0  0  0  0
   37.0820   25.0690   32.5000 S   0  0  0  0  0  0  0  0  0  0  0  0
  1  4  1  6  0  0  0
  1  8  1  0  0  0  0
  2  5  1  1  0  0  0
  2  1  1  0  0  0  0
  3  2  1  0  0  0  0
  3  1  1  0  0  0  0
  6  3  1  0  0  0  0
  7  3  1  0  0  0  0
  8 13  2  0  0  0  0
  8  9  1  0  0  0  0
  9 10  2  0  0  0  0
 10 11  1  0  0  0  0
 10 15  1  0  0  0  0
 12 16  1  0  0  0  0
 12 11  2  0  0  0  0
 13 12  1  0  0  0  0
 14  9  1  0  0  0  0
 17  2  1  0  0  0  0
 17 18  1  0  0  0  0
 19 17  1  0  0  0  0
 20 25  1  0  0  0  0
 20 17  1  0  0  0  0
 21 20  2  0  0  0  0
 22 21  1  0  0  0  0
 23 21  1  0  0  0  0
 23 24  2  0  0  0  0
 24 25  1  0  0  0  0
M  END
>  <minimizedAffinity>
-4.01545

$$$$
