REMARK  Name = 
REMARK  6 active torsions:
REMARK  status: ('A' for Active; 'I' for Inactive)
REMARK    1  A    between atoms: C_1  and  C_8
REMARK    2  A    between atoms: C_4  and  O_13
REMARK    3  A    between atoms: O_13  and  C_14
REMARK    4  A    between atoms: N_17  and  C_19
REMARK    5  A    between atoms: C_19  and  C_20
REMARK    6  A    between atoms: C_20  and  C_33
REMARK                            x       y       z     vdW  Elec       q    Type
REMARK                         _______ _______ _______ _____ _____    ______ ____
ROOT
ATOM      1  O   UNL     1      37.769  30.307  49.434  0.00  0.00    +0.000 OA
ENDROOT
BRANCH   1   5
ATOM      2  C   UNL     1      34.003  28.813  48.291  0.00  0.00    +0.000 A 
ATOM      3  C   UNL     1      34.632  28.362  49.414  0.00  0.00    +0.000 A 
ATOM      4  C   UNL     1      35.854  28.802  49.845  0.00  0.00    +0.000 A 
ATOM      5  C   UNL     1      36.532  29.754  49.142  0.00  0.00    +0.000 A 
ATOM      6  C   UNL     1      35.900  30.225  47.989  0.00  0.00    +0.000 A 
ATOM      7  N   UNL     1      34.697  29.770  47.594  0.00  0.00    +0.000 NA
ATOM      8  H   UNL     1      34.156  27.608  50.023  0.00  0.00    +0.000 HD
ATOM      9  H   UNL     1      36.347  28.438  50.739  0.00  0.00    +0.000 HD
ATOM     10  H   UNL     1      36.369  30.982  47.372  0.00  0.00    +0.000 HD
BRANCH   2  12
ATOM     11  C   UNL     1      31.911  27.487  48.556  0.00  0.00    +0.000 A 
ATOM     12  C   UNL     1      32.728  28.365  47.825  0.00  0.00    +0.000 A 
ATOM     13  C   UNL     1      32.250  28.791  46.613  0.00  0.00    +0.000 A 
ATOM     14  N   UNL     1      31.031  28.360  46.168  0.00  0.00    +0.000 NA
ATOM     15  C   UNL     1      30.279  27.504  46.923  0.00  0.00    +0.000 A 
ATOM     16  N   UNL     1      30.711  27.062  48.120  0.00  0.00    +0.000 NA
ATOM     17  H   UNL     1      32.241  27.125  49.513  0.00  0.00    +0.000 HD
ATOM     18  H   UNL     1      32.856  29.471  46.020  0.00  0.00    +0.000 HD
ATOM     19  H   UNL     1      29.311  27.154  46.584  0.00  0.00    +0.000 HD
ENDBRANCH   2  12
ENDBRANCH   1   5
BRANCH   1  20
ATOM     20  C   UNL     1      38.358  31.264  48.642  0.00  0.00    +0.000 A 
ATOM     21  C   UNL     1      38.450  32.506  49.229  0.00  0.00    +0.000 A 
ATOM     22  C   UNL     1      39.065  33.361  48.310  0.00  0.00    +0.000 A 
ATOM     23  N   UNL     1      39.320  32.636  47.227  0.00  0.00    +0.000 N 
ATOM     24  N   UNL     1      38.907  31.423  47.429  0.00  0.00    +0.000 NA
ATOM     25  H   UNL     1      38.172  32.955  50.186  0.00  0.00    +0.000 HD
ATOM     26  H   UNL     1      39.321  34.413  48.379  0.00  0.00    +0.000 HD
BRANCH  23  27
ATOM     27  C   UNL     1      39.956  33.089  46.008  0.00  0.00    +0.000 C 
ATOM     28  H   UNL     1      39.206  33.441  45.280  0.00  0.00    +0.000 HD
ATOM     29  H   UNL     1      40.649  33.924  46.283  0.00  0.00    +0.000 HD
BRANCH  27  30
ATOM     30  C   UNL     1      40.675  31.941  45.377  0.00  0.00    +0.000 C 
ATOM     31  H   UNL     1      39.886  31.182  45.087  0.00  0.00    +0.000 HD
ATOM     32  H   UNL     1      41.049  32.288  44.369  0.00  0.00    +0.000 HD
BRANCH  30  33
ATOM     33  C   UNL     1      41.731  31.329  46.163  0.00  0.00    +0.000 A 
ATOM     34  C   UNL     1      43.120  31.546  46.648  0.00  0.00    +0.000 A 
ATOM     35  H   UNL     1      43.480  32.483  46.288  0.00  0.00    +0.000 HD
ATOM     36  C   UNL     1      43.602  30.531  47.420  0.00  0.00    +0.000 A 
ATOM     37  C   UNL     1      42.882  29.395  47.738  0.00  0.00    +0.000 A 
ATOM     38  S   UNL     1      41.300  29.642  46.913  0.00  0.00    +0.000 S 
ENDBRANCH  30  33
ENDBRANCH  27  30
ENDBRANCH  23  27
ENDBRANCH   1  20
TORSDOF 6
