REMARK  Name = 
REMARK  4 active torsions:
REMARK  status: ('A' for Active; 'I' for Inactive)
REMARK    1  A    between atoms: C_2  and  C_12
REMARK    2  A    between atoms: C_6  and  O_16
REMARK    3  A    between atoms: O_16  and  C_18
REMARK    4  A    between atoms: C_22  and  C_37
REMARK                            x       y       z     vdW  Elec       q    Type
REMARK                         _______ _______ _______ _____ _____    ______ ____
ROOT
ATOM      1  C   UNL     1      36.234  30.181  46.856  0.00  0.00    +0.000 A 
ATOM      2  C   UNL     1      37.071  30.730  47.797  0.00  0.00    +0.000 A 
ATOM      3  C   UNL     1      38.069  31.650  47.437  0.00  0.00    +0.000 A 
ATOM      4  C   UNL     1      38.148  31.961  46.078  0.00  0.00    +0.000 A 
ATOM      5  N   UNL     1      39.030  32.828  45.478  0.00  0.00    +0.000 N 
ATOM      6  C   UNL     1      38.733  32.812  44.169  0.00  0.00    +0.000 A 
ATOM      7  N   UNL     1      37.728  31.986  43.953  0.00  0.00    +0.000 NA
ATOM      8  C   UNL     1      37.335  31.437  45.113  0.00  0.00    +0.000 A 
ATOM      9  C   UNL     1      36.355  30.524  45.520  0.00  0.00    +0.000 A 
ATOM     10  H   UNL     1      35.460  29.469  47.128  0.00  0.00    +0.000 HD
ATOM     11  H   UNL     1      38.744  32.099  48.156  0.00  0.00    +0.000 HD
ATOM     12  H   UNL     1      39.779  33.385  45.953  0.00  0.00    +0.000 HD
ATOM     13  H   UNL     1      35.705  30.103  44.760  0.00  0.00    +0.000 HD
ENDROOT
BRANCH   2  16
ATOM     14  C   UNL     1      37.494  30.160  51.497  0.00  0.00    +0.000 A 
ATOM     15  C   UNL     1      37.811  30.591  50.210  0.00  0.00    +0.000 A 
ATOM     16  C   UNL     1      36.923  30.359  49.193  0.00  0.00    +0.000 A 
ATOM     17  N   UNL     1      35.753  29.703  49.519  0.00  0.00    +0.000 NA
ATOM     18  C   UNL     1      35.455  29.290  50.767  0.00  0.00    +0.000 A 
ATOM     19  N   UNL     1      36.314  29.518  51.734  0.00  0.00    +0.000 NA
ATOM     20  H   UNL     1      38.222  30.362  52.276  0.00  0.00    +0.000 HD
ATOM     21  H   UNL     1      38.722  31.105  49.938  0.00  0.00    +0.000 HD
ATOM     22  H   UNL     1      34.507  28.784  50.912  0.00  0.00    +0.000 HD
ENDBRANCH   2  16
BRANCH   6  23
ATOM     23  O   UNL     1      39.428  33.581  43.235  0.00  0.00    +0.000 OA
BRANCH  23  25
ATOM     24  N   UNL     1      39.574  31.847  41.721  0.00  0.00    +0.000 NA
ATOM     25  C   UNL     1      39.205  33.245  41.875  0.00  0.00    +0.000 C 
ATOM     26  C   UNL     1      37.811  33.446  41.512  0.00  0.00    +0.000 C 
ATOM     27  O   UNL     1      37.641  33.127  40.155  0.00  0.00    +0.000 OA
ATOM     28  C   UNL     1      38.063  31.880  39.795  0.00  0.00    +0.000 C 
ATOM     29  C   UNL     1      39.448  31.580  40.297  0.00  0.00    +0.000 C 
ATOM     30  H   UNL     1      39.006  31.152  42.173  0.00  0.00    +0.000 HD
ATOM     31  H   UNL     1      39.875  33.798  41.195  0.00  0.00    +0.000 HD
ATOM     32  H   UNL     1      36.982  32.988  41.980  0.00  0.00    +0.000 HD
ATOM     33  H   UNL     1      37.617  34.563  41.540  0.00  0.00    +0.000 HD
ATOM     34  H   UNL     1      37.401  31.093  40.207  0.00  0.00    +0.000 HD
ATOM     35  H   UNL     1      38.088  31.852  38.687  0.00  0.00    +0.000 HD
ATOM     36  H   UNL     1      39.632  30.507  40.068  0.00  0.00    +0.000 HD
BRANCH  29  37
ATOM     37  C   UNL     1      40.389  32.473  39.592  0.00  0.00    +0.000 A 
ATOM     38  C   UNL     1      40.172  33.578  38.886  0.00  0.00    +0.000 A 
ATOM     39  H   UNL     1      39.139  33.934  38.774  0.00  0.00    +0.000 HD
ATOM     40  C   UNL     1      41.192  34.280  38.298  0.00  0.00    +0.000 A 
ATOM     41  C   UNL     1      42.493  33.700  38.526  0.00  0.00    +0.000 A 
ATOM     42  S   UNL     1      42.169  32.239  39.533  0.00  0.00    +0.000 S 
ENDBRANCH  29  37
ENDBRANCH  23  25
ENDBRANCH   6  23
TORSDOF 4
