
 OpenBabel03272508273D

 35 38  0  0  1  0  0  0  0  0999 V2000
   33.5430   28.7830   47.1330 C   0  0  2  0  0  0  0  0  0  0  0  0
   34.2680   28.0010   48.2160 C   0  0  2  0  0  0  0  0  0  0  0  0
   33.3500   27.8420   49.2200 O   0  0  0  0  0  0  0  0  0  0  0  0
   32.0870   27.9440   48.7330 C   0  0  0  0  0  0  0  0  0  0  0  0
   32.1710   28.1310   47.2470 C   0  0  1  0  0  0  0  0  0  0  0  0
   33.4380   29.8480   47.3510 H   0  0  0  0  0  0  0  0  0  0  0  0
   34.5530   27.0190   47.7920 H   0  0  0  0  0  0  0  0  0  0  0  0
   31.6390   28.8800   49.1720 H   0  0  0  0  0  0  0  0  0  0  0  0
   31.4060   27.1180   49.0210 H   0  0  0  0  0  0  0  0  0  0  0  0
   32.1740   27.1490   46.6980 H   0  0  0  0  0  0  0  0  0  0  0  0
   35.3870   30.2040   48.9630 C   0  0  1  0  0  0  0  0  0  0  0  0
   35.4500   28.7870   48.6710 C   0  0  1  0  0  0  0  0  0  0  0  0
   35.6340   29.1990   50.0960 C   0  0  0  0  0  0  0  0  0  0  0  0
   34.4730   30.7960   49.1990 H   0  0  0  0  0  0  0  0  0  0  0  0
   36.4100   28.4570   48.1670 H   0  0  0  0  0  0  0  0  0  0  0  0
   36.6180   29.1740   50.5620 H   0  0  0  0  0  0  0  0  0  0  0  0
   34.7970   28.9420   50.7770 H   0  0  0  0  0  0  0  0  0  0  0  0
   36.5640   31.1120   48.7320 C   0  0  0  0  0  0  0  0  0  0  0  0
   36.8860   32.0400   49.7240 C   0  0  0  0  0  0  0  0  0  0  0  0
   37.9530   32.8660   49.4630 C   0  0  0  0  0  0  0  0  0  0  0  0
   38.6470   32.7650   48.2840 N   0  0  0  0  0  0  0  0  0  0  0  0
   38.3040   31.8480   47.3410 C   0  0  0  0  0  0  0  0  0  0  0  0
   37.2560   31.0140   47.5600 N   0  0  0  0  0  0  0  0  0  0  0  0
   36.3460   32.1310   50.6510 H   0  0  0  0  0  0  0  0  0  0  0  0
   38.2800   33.6250   50.1870 H   0  0  0  0  0  0  0  0  0  0  0  0
   38.8360   31.7390   46.3920 H   0  0  0  0  0  0  0  0  0  0  0  0
   34.0790   28.5930   45.8720 O   0  0  0  0  0  0  0  0  0  0  0  0
   34.6240   27.7400   45.8710 H   0  0  0  0  0  0  0  0  0  0  0  0
   31.1750   28.9420   46.7360 O   0  0  0  0  0  0  0  0  0  0  0  0
   29.7960   28.6030   47.5590 C   0  0  0  0  0  0  0  0  0  0  0  0
   29.2660   27.8870   46.3110 C   0  0  0  0  0  0  0  0  0  0  0  0
   29.4770   27.5970   45.2540 H   0  0  0  0  0  0  0  0  0  0  0  0
   28.0360   27.3210   46.3450 C   0  0  0  0  0  3  0  0  0  0  0  0
   27.2700   27.4160   47.5660 C   0  0  0  0  0  3  0  0  0  0  0  0
   28.4620   28.3960   48.6880 S   0  0  0  0  0  0  0  0  0  0  0  0
  1  5  1  0  0  0  0
  1  6  1  1  0  0  0
  1  2  1  0  0  0  0
  2  7  1  6  0  0  0
  2 12  1  0  0  0  0
  2  3  1  0  0  0  0
  4  9  1  0  0  0  0
  4  8  1  0  0  0  0
  4  3  1  0  0  0  0
  5 10  1  6  0  0  0
  5  4  1  0  0  0  0
 11 14  1  6  0  0  0
 11 13  1  0  0  0  0
 12 15  1  6  0  0  0
 12 11  1  0  0  0  0
 12 13  1  0  0  0  0
 13 16  1  0  0  0  0
 13 17  1  0  0  0  0
 18 11  1  0  0  0  0
 18 19  1  0  0  0  0
 19 24  1  0  0  0  0
 20 19  2  0  0  0  0
 20 25  1  0  0  0  0
 21 20  1  0  0  0  0
 22 23  1  0  0  0  0
 22 21  2  0  0  0  0
 23 18  2  0  0  0  0
 26 22  1  0  0  0  0
 27  1  1  0  0  0  0
 28 27  1  0  0  0  0
 29  5  1  0  0  0  0
 29 30  1  0  0  0  0
 30 35  1  0  0  0  0
 31 33  1  0  0  0  0
 31 30  2  0  0  0  0
 32 31  1  0  0  0  0
 33 34  2  0  0  0  0
 34 35  1  0  0  0  0
M  END
>  <minimizedAffinity>
-5.2750001

>  <minimizedRMSD>
2.27009368

$$$$
