
 OpenBabel03272508543D

 35 38  0  0  1  0  0  0  0  0999 V2000
   38.3440   31.8680   44.5640 C   0  0  0  0  0  0  0  0  0  0  0  0
   37.1750   32.3290   44.4470 O   0  0  0  0  0  0  0  0  0  0  0  0
   38.9390   31.7160   45.8600 N   0  0  0  0  0  0  0  0  0  0  0  0
   39.9410   31.5310   45.9950 H   0  0  0  0  0  0  0  0  0  0  0  0
   39.1260   31.4750   43.3730 C   0  0  0  0  0  0  0  0  0  0  0  0
   40.1120   30.5370   43.5290 C   0  0  0  0  0  0  0  0  0  0  0  0
   40.8370   30.1820   42.3990 C   0  0  0  0  0  0  0  0  0  0  0  0
   40.5340   30.7750   41.2150 C   0  0  0  0  0  0  0  0  0  0  0  0
   39.5390   31.7200   41.0600 C   0  0  0  0  0  0  0  0  0  0  0  0
   38.8710   32.0280   42.1720 N   0  0  0  0  0  0  0  0  0  0  0  0
   40.3690   30.0520   44.4670 H   0  0  0  0  0  0  0  0  0  0  0  0
   41.6170   29.4480   42.4970 H   0  0  0  0  0  0  0  0  0  0  0  0
   41.1510   30.4430   40.3640 H   0  0  0  0  0  0  0  0  0  0  0  0
   39.2610   32.3140   39.7890 C   0  0  0  0  0  0  0  0  0  0  0  0
   39.6280   32.0200   38.5410 C   0  0  0  0  0  0  0  0  0  0  0  0
   40.2730   31.1630   38.4120 H   0  0  0  0  0  0  0  0  0  0  0  0
   39.2200   32.7590   37.4720 C   0  0  0  0  0  0  0  0  0  0  0  0
   38.3460   33.8960   37.8060 C   0  0  0  0  0  0  0  0  0  0  0  0
   38.2180   33.7570   39.6790 S   0  0  0  0  0  0  0  0  0  0  0  0
   38.4370   31.1750   48.2440 C   0  0  2  0  0  0  0  0  0  0  0  0
   38.7250   32.6180   48.1850 C   0  0  0  0  0  0  0  0  0  0  0  0
   38.0690   31.8340   47.0160 C   0  0  1  0  0  0  0  0  0  0  0  0
   39.3630   30.5440   48.2910 H   0  0  0  0  0  0  0  0  0  0  0  0
   38.0540   33.3660   48.6450 H   0  0  0  0  0  0  0  0  0  0  0  0
   39.7560   32.9620   48.0510 H   0  0  0  0  0  0  0  0  0  0  0  0
   37.0020   32.0820   46.8240 H   0  0  0  0  0  0  0  0  0  0  0  0
   35.1100   30.2370   49.5470 C   0  0  0  0  0  0  0  0  0  0  0  0
   35.4360   29.5660   50.7690 C   0  0  0  0  0  0  0  0  0  0  0  0
   36.8360   29.4630   51.1130 C   0  0  0  0  0  0  0  0  0  0  0  0
   37.7660   29.9970   50.2790 N   0  0  0  0  0  0  0  0  0  0  0  0
   37.3790   30.6210   49.1320 C   0  0  0  0  0  0  0  0  0  0  0  0
   36.0620   30.7550   48.7430 N   0  0  0  0  0  0  0  0  0  0  0  0
   34.0480   30.2770   49.3520 H   0  0  0  0  0  0  0  0  0  0  0  0
   34.6710   29.1620   51.3940 H   0  0  0  0  0  0  0  0  0  0  0  0
   37.0930   28.9580   52.0340 H   0  0  0  0  0  0  0  0  0  0  0  0
  1  3  1  0  0  0  0
  2  1  2  0  0  0  0
  3  4  1  0  0  0  0
  3 22  1  0  0  0  0
  5  6  1  0  0  0  0
  5  1  1  0  0  0  0
  6 11  1  0  0  0  0
  7 12  1  0  0  0  0
  7  6  2  0  0  0  0
  8  7  1  0  0  0  0
  9  8  2  0  0  0  0
  9 10  1  0  0  0  0
 10  5  2  0  0  0  0
 13  8  1  0  0  0  0
 14  9  1  0  0  0  0
 15 14  2  0  0  0  0
 16 15  1  0  0  0  0
 17 18  2  0  0  0  0
 17 15  1  0  0  0  0
 18 19  1  0  0  0  0
 19 14  1  0  0  0  0
 20 23  1  6  0  0  0
 20 31  1  0  0  0  0
 21 20  1  0  0  0  0
 21 24  1  0  0  0  0
 22 26  1  6  0  0  0
 22 21  1  0  0  0  0
 22 20  1  0  0  0  0
 25 21  1  0  0  0  0
 27 28  1  0  0  0  0
 28 29  2  0  0  0  0
 28 34  1  0  0  0  0
 29 35  1  0  0  0  0
 30 29  1  0  0  0  0
 31 30  2  0  0  0  0
 32 31  1  0  0  0  0
 32 27  2  0  0  0  0
 33 27  1  0  0  0  0
M  END
>  <minimizedAffinity>
-5.17375374

>  <minimizedRMSD>
0.423434049

$$$$
