
 OpenBabel03272510343D

 25 27  0  0  0  0  0  0  0  0999 V2000
   34.6880   28.7800   48.8130 C   0  0  0  0  0  0  0  0  0  0  0  0
   35.2710   28.6270   50.0530 C   0  0  0  0  0  0  0  0  0  0  0  0
   36.2300   29.5130   50.5010 C   0  0  0  0  0  0  0  0  0  0  0  0
   36.5960   30.5550   49.6840 C   0  0  0  0  0  0  0  0  0  0  0  0
   36.0300   30.7320   48.4390 C   0  0  0  0  0  0  0  0  0  0  0  0
   35.0700   29.8390   48.0020 C   0  0  0  0  0  0  0  0  0  0  0  0
   34.9810   27.7940   50.7100 H   0  0  0  0  0  0  0  0  0  0  0  0
   36.6900   29.3930   51.4760 H   0  0  0  0  0  0  0  0  0  0  0  0
   37.3420   31.2960   49.9630 H   0  0  0  0  0  0  0  0  0  0  0  0
   36.2610   31.5260   47.7290 H   0  0  0  0  0  0  0  0  0  0  0  0
   31.4450   27.1680   48.5510 C   0  0  0  0  0  0  0  0  0  0  0  0
   31.6750   26.0330   47.7740 C   0  0  0  0  0  0  0  0  0  0  0  0
   32.9960   25.8310   47.3330 C   0  0  0  0  0  0  0  0  0  0  0  0
   33.9550   26.7270   47.6770 N   0  0  0  0  0  0  0  0  0  0  0  0
   33.6880   27.8040   48.4260 C   0  0  0  0  0  0  0  0  0  0  0  0
   32.4190   28.0210   48.8640 N   0  0  0  0  0  0  0  0  0  0  0  0
   30.4140   27.3290   48.8970 H   0  0  0  0  0  0  0  0  0  0  0  0
   30.8430   25.3650   47.5450 H   0  0  0  0  0  0  0  0  0  0  0  0
   33.1680   24.9530   46.7330 H   0  0  0  0  0  0  0  0  0  0  0  0
   34.4310   29.9740   46.6810 C   0  0  0  0  0  0  0  0  0  0  0  0
   35.0940   29.6550   45.4540 C   0  0  0  0  0  0  0  0  0  0  0  0
   36.1090   29.2950   45.4530 H   0  0  0  0  0  0  0  0  0  0  0  0
   34.3910   29.8250   44.2940 C   0  0  0  0  0  3  0  0  0  0  0  0
   33.0550   30.3040   44.3650 C   0  0  0  0  0  3  0  0  0  0  0  0
   32.7420   30.5370   46.1360 S   0  0  0  0  0  0  0  0  0  0  0  0
  1  2  1  0  0  0  0
  2  3  2  0  0  0  0
  2  7  1  0  0  0  0
  3  8  1  0  0  0  0
  4  9  1  0  0  0  0
  4  3  1  0  0  0  0
  5  4  2  0  0  0  0
  6  5  1  0  0  0  0
  6  1  2  0  0  0  0
 10  5  1  0  0  0  0
 11 16  1  0  0  0  0
 11 17  1  0  0  0  0
 12 11  2  0  0  0  0
 13 14  2  0  0  0  0
 13 12  1  0  0  0  0
 14 15  1  0  0  0  0
 15  1  1  0  0  0  0
 15 16  2  0  0  0  0
 18 12  1  0  0  0  0
 19 13  1  0  0  0  0
 20  6  1  0  0  0  0
 21 20  2  0  0  0  0
 22 21  1  0  0  0  0
 23 24  2  0  0  0  0
 23 21  1  0  0  0  0
 24 25  1  0  0  0  0
 25 20  1  0  0  0  0
M  END
>  <minimizedAffinity>
-4.79327679

>  <minimizedRMSD>
6.48438311

$$$$
