
 OpenBabel03262523103D

 17 18  0  0  0  0  0  0  0  0999 V2000
   39.6660   22.8590   37.5850 C   0  0  0  0  0  0  0  0  0  0  0  0
   38.7430   23.2360   38.5840 C   0  0  0  0  0  0  0  0  0  0  0  0
   37.9050   24.3220   38.3380 C   0  0  0  0  0  0  0  0  0  0  0  0
   38.0300   24.9550   37.1440 N   0  0  0  0  0  0  0  0  0  0  0  0
   38.9110   24.5810   36.2120 C   0  0  0  0  0  0  0  0  0  0  0  0
   39.7210   23.5460   36.4240 N   0  0  0  0  0  0  0  0  0  0  0  0
   38.7150   22.6760   39.5010 H   0  0  0  0  0  0  0  0  0  0  0  0
   37.1900   24.6320   39.0840 H   0  0  0  0  0  0  0  0  0  0  0  0
   39.0100   25.2930   34.9380 C   0  0  0  0  0  0  0  0  0  0  0  0
   39.6540   26.4220   34.6510 C   0  0  0  0  0  0  0  0  0  0  0  0
   40.2140   26.9480   35.4410 H   0  0  0  0  0  0  0  0  0  0  0  0
   39.6260   26.9370   33.3770 C   0  0  0  0  0  3  0  0  0  0  0  0
   38.8860   26.1870   32.4530 C   0  0  0  0  0  3  0  0  0  0  0  0
   38.2610   24.7760   33.4530 S   0  0  0  0  0  0  0  0  0  0  0  0
   40.5630   21.7550   37.7550 N   0  0  0  0  0  0  0  0  0  0  0  0
   41.0760   21.5940   38.6640 H   0  0  0  0  0  0  0  0  0  0  0  0
   40.7320   21.0870   36.9950 H   0  0  0  0  0  0  0  0  0  0  0  0
  1 15  1  0  0  0  0
  1  2  1  0  0  0  0
  2  7  1  0  0  0  0
  3  2  2  0  0  0  0
  3  8  1  0  0  0  0
  4  3  1  0  0  0  0
  5  6  1  0  0  0  0
  5  4  2  0  0  0  0
  6  1  2  0  0  0  0
  9  5  1  0  0  0  0
 10  9  2  0  0  0  0
 10 11  1  0  0  0  0
 12 10  1  0  0  0  0
 13 12  2  0  0  0  0
 13 14  1  0  0  0  0
 14  9  1  0  0  0  0
 15 16  1  0  0  0  0
 17 15  1  0  0  0  0
M  END
>  <minimizedAffinity>
-4.21499109

$$$$

 OpenBabel03262523103D

 17 18  0  0  0  0  0  0  0  0999 V2000
   39.1430   23.1350   37.7690 C   0  0  0  0  0  0  0  0  0  0  0  0
   40.3670   22.6190   37.2930 C   0  0  0  0  0  0  0  0  0  0  0  0
   40.8940   23.1400   36.1130 C   0  0  0  0  0  0  0  0  0  0  0  0
   40.1910   24.1190   35.4890 N   0  0  0  0  0  0  0  0  0  0  0  0
   39.0330   24.5930   35.9580 C   0  0  0  0  0  0  0  0  0  0  0  0
   38.5110   24.1120   37.0830 N   0  0  0  0  0  0  0  0  0  0  0  0
   40.8540   21.8420   37.8540 H   0  0  0  0  0  0  0  0  0  0  0  0
   41.8280   22.7630   35.7260 H   0  0  0  0  0  0  0  0  0  0  0  0
   38.3100   25.6510   35.2510 C   0  0  0  0  0  0  0  0  0  0  0  0
   37.9480   26.8580   35.6820 C   0  0  0  0  0  0  0  0  0  0  0  0
   38.1990   27.1690   36.7090 H   0  0  0  0  0  0  0  0  0  0  0  0
   37.2660   27.7180   34.8550 C   0  0  0  0  0  3  0  0  0  0  0  0
   37.0020   27.2190   33.5720 C   0  0  0  0  0  3  0  0  0  0  0  0
   37.7440   25.5370   33.6080 S   0  0  0  0  0  0  0  0  0  0  0  0
   38.5320   22.6570   38.9730 N   0  0  0  0  0  0  0  0  0  0  0  0
   38.4920   21.6270   39.2020 H   0  0  0  0  0  0  0  0  0  0  0  0
   38.1150   23.3060   39.6500 H   0  0  0  0  0  0  0  0  0  0  0  0
  1 15  1  0  0  0  0
  2  1  1  0  0  0  0
  2  7  1  0  0  0  0
  3  2  2  0  0  0  0
  4  5  2  0  0  0  0
  4  3  1  0  0  0  0
  5  6  1  0  0  0  0
  6  1  2  0  0  0  0
  8  3  1  0  0  0  0
  9 10  2  0  0  0  0
  9  5  1  0  0  0  0
 10 11  1  0  0  0  0
 12 10  1  0  0  0  0
 13 14  1  0  0  0  0
 13 12  2  0  0  0  0
 14  9  1  0  0  0  0
 15 16  1  0  0  0  0
 15 17  1  0  0  0  0
M  END
>  <minimizedAffinity>
-4.20765591

$$$$

 OpenBabel03262523103D

 17 18  0  0  0  0  0  0  0  0999 V2000
   39.7530   22.4170   37.4350 C   0  0  0  0  0  0  0  0  0  0  0  0
   39.1000   23.3030   38.3180 C   0  0  0  0  0  0  0  0  0  0  0  0
   38.0340   24.0590   37.8330 C   0  0  0  0  0  0  0  0  0  0  0  0
   37.6880   23.8940   36.5310 N   0  0  0  0  0  0  0  0  0  0  0  0
   38.3210   23.0490   35.7120 C   0  0  0  0  0  0  0  0  0  0  0  0
   39.3410   22.3170   36.1530 N   0  0  0  0  0  0  0  0  0  0  0  0
   39.4440   23.3680   39.3340 H   0  0  0  0  0  0  0  0  0  0  0  0
   37.5170   24.7440   38.4860 H   0  0  0  0  0  0  0  0  0  0  0  0
   37.9120   22.9050   34.3150 C   0  0  0  0  0  0  0  0  0  0  0  0
   37.4110   21.8420   33.6880 C   0  0  0  0  0  0  0  0  0  0  0  0
   37.2550   20.9030   34.2440 H   0  0  0  0  0  0  0  0  0  0  0  0
   37.0860   21.9070   32.3550 C   0  0  0  0  0  3  0  0  0  0  0  0
   37.3240   23.1490   31.7490 C   0  0  0  0  0  3  0  0  0  0  0  0
   38.0060   24.1680   33.1190 S   0  0  0  0  0  0  0  0  0  0  0  0
   40.8570   21.6040   37.8510 N   0  0  0  0  0  0  0  0  0  0  0  0
   41.6290   21.9890   38.4600 H   0  0  0  0  0  0  0  0  0  0  0  0
   40.9260   20.6200   37.5670 H   0  0  0  0  0  0  0  0  0  0  0  0
  1 15  1  0  0  0  0
  1  2  1  0  0  0  0
  2  7  1  0  0  0  0
  3  2  2  0  0  0  0
  3  8  1  0  0  0  0
  4  3  1  0  0  0  0
  5  6  1  0  0  0  0
  5  4  2  0  0  0  0
  6  1  2  0  0  0  0
  9  5  1  0  0  0  0
 10 11  1  0  0  0  0
 10  9  2  0  0  0  0
 12 10  1  0  0  0  0
 13 12  2  0  0  0  0
 13 14  1  0  0  0  0
 14  9  1  0  0  0  0
 15 16  1  0  0  0  0
 17 15  1  0  0  0  0
M  END
>  <minimizedAffinity>
-3.91750336

$$$$

 OpenBabel03262523103D

 17 18  0  0  0  0  0  0  0  0999 V2000
   36.4500   28.4710   30.8860 C   0  0  0  0  0  0  0  0  0  0  0  0
   35.6280   29.5790   31.1850 C   0  0  0  0  0  0  0  0  0  0  0  0
   35.4100   29.9020   32.5230 C   0  0  0  0  0  0  0  0  0  0  0  0
   36.0060   29.1260   33.4620 N   0  0  0  0  0  0  0  0  0  0  0  0
   36.7810   28.0810   33.1570 C   0  0  0  0  0  0  0  0  0  0  0  0
   37.0040   27.7530   31.8860 N   0  0  0  0  0  0  0  0  0  0  0  0
   35.1970   30.1370   30.3740 H   0  0  0  0  0  0  0  0  0  0  0  0
   34.7860   30.7440   32.7800 H   0  0  0  0  0  0  0  0  0  0  0  0
   37.4040   27.2720   34.2050 C   0  0  0  0  0  0  0  0  0  0  0  0
   37.8140   27.6340   35.4190 C   0  0  0  0  0  0  0  0  0  0  0  0
   37.6950   28.6800   35.7460 H   0  0  0  0  0  0  0  0  0  0  0  0
   38.3820   26.7140   36.2670 C   0  0  0  0  0  3  0  0  0  0  0  0
   38.4810   25.4150   35.7480 C   0  0  0  0  0  3  0  0  0  0  0  0
   37.7560   25.5720   34.0660 S   0  0  0  0  0  0  0  0  0  0  0  0
   36.7260   28.0700   29.5390 N   0  0  0  0  0  0  0  0  0  0  0  0
   35.9690   28.0450   28.8030 H   0  0  0  0  0  0  0  0  0  0  0  0
   37.6720   27.7950   29.2510 H   0  0  0  0  0  0  0  0  0  0  0  0
  1  2  2  0  0  0  0
  1  6  1  0  0  0  0
  2  3  1  0  0  0  0
  3  8  1  0  0  0  0
  3  4  2  0  0  0  0
  5  4  1  0  0  0  0
  5  9  1  0  0  0  0
  6  5  2  0  0  0  0
  7  2  1  0  0  0  0
  9 10  2  0  0  0  0
 10 11  1  0  0  0  0
 10 12  1  0  0  0  0
 13 12  2  0  0  0  0
 14  9  1  0  0  0  0
 14 13  1  0  0  0  0
 15  1  1  0  0  0  0
 16 15  1  0  0  0  0
 17 15  1  0  0  0  0
M  END
>  <minimizedAffinity>
-3.78031874

$$$$

 OpenBabel03262523103D

 17 18  0  0  0  0  0  0  0  0999 V2000
   37.2070   25.9780   33.0370 C   0  0  0  0  0  0  0  0  0  0  0  0
   36.8640   27.2990   33.3960 C   0  0  0  0  0  0  0  0  0  0  0  0
   37.0600   27.7010   34.7150 C   0  0  0  0  0  0  0  0  0  0  0  0
   37.5740   26.7910   35.5800 N   0  0  0  0  0  0  0  0  0  0  0  0
   37.8930   25.5450   35.2190 C   0  0  0  0  0  0  0  0  0  0  0  0
   37.7150   25.1370   33.9640 N   0  0  0  0  0  0  0  0  0  0  0  0
   36.4620   27.9510   32.6420 H   0  0  0  0  0  0  0  0  0  0  0  0
   36.8060   28.7050   35.0170 H   0  0  0  0  0  0  0  0  0  0  0  0
   38.4450   24.5960   36.1870 C   0  0  0  0  0  0  0  0  0  0  0  0
   38.0960   24.3850   37.4540 C   0  0  0  0  0  0  0  0  0  0  0  0
   37.2800   24.9750   37.9020 H   0  0  0  0  0  0  0  0  0  0  0  0
   38.7440   23.4360   38.2080 C   0  0  0  0  0  3  0  0  0  0  0  0
   39.7630   22.7450   37.5380 C   0  0  0  0  0  3  0  0  0  0  0  0
   39.7470   23.4880   35.8560 S   0  0  0  0  0  0  0  0  0  0  0  0
   37.0390   25.4830   31.7040 N   0  0  0  0  0  0  0  0  0  0  0  0
   36.1690   25.6920   31.1420 H   0  0  0  0  0  0  0  0  0  0  0  0
   37.7610   24.9090   31.2560 H   0  0  0  0  0  0  0  0  0  0  0  0
  1  2  2  0  0  0  0
  1  6  1  0  0  0  0
  2  3  1  0  0  0  0
  3  8  1  0  0  0  0
  3  4  2  0  0  0  0
  5  4  1  0  0  0  0
  5  9  1  0  0  0  0
  6  5  2  0  0  0  0
  7  2  1  0  0  0  0
  9 10  2  0  0  0  0
 10 11  1  0  0  0  0
 10 12  1  0  0  0  0
 13 12  2  0  0  0  0
 14  9  1  0  0  0  0
 14 13  1  0  0  0  0
 15  1  1  0  0  0  0
 16 15  1  0  0  0  0
 17 15  1  0  0  0  0
M  END
>  <minimizedAffinity>
-3.74661756

$$$$

 OpenBabel03262523103D

 17 18  0  0  0  0  0  0  0  0999 V2000
   38.0390   23.0480   36.7960 C   0  0  0  0  0  0  0  0  0  0  0  0
   38.8390   24.0940   36.2890 C   0  0  0  0  0  0  0  0  0  0  0  0
   39.0080   24.1920   34.9100 C   0  0  0  0  0  0  0  0  0  0  0  0
   38.3880   23.2690   34.1330 N   0  0  0  0  0  0  0  0  0  0  0  0
   37.6340   22.2860   34.6340 C   0  0  0  0  0  0  0  0  0  0  0  0
   37.4580   22.1720   35.9490 N   0  0  0  0  0  0  0  0  0  0  0  0
   39.2920   24.7800   36.9820 H   0  0  0  0  0  0  0  0  0  0  0  0
   39.6150   24.9820   34.4950 H   0  0  0  0  0  0  0  0  0  0  0  0
   36.9840   21.3120   33.7570 C   0  0  0  0  0  0  0  0  0  0  0  0
   35.8120   20.6960   33.9030 C   0  0  0  0  0  0  0  0  0  0  0  0
   35.1920   20.9050   34.7900 H   0  0  0  0  0  0  0  0  0  0  0  0
   35.3710   19.8030   32.9570 C   0  0  0  0  0  3  0  0  0  0  0  0
   36.2380   19.6150   31.8720 C   0  0  0  0  0  3  0  0  0  0  0  0
   37.6510   20.7280   32.2580 S   0  0  0  0  0  0  0  0  0  0  0  0
   37.8130   22.8740   38.2000 N   0  0  0  0  0  0  0  0  0  0  0  0
   38.5950   22.9740   38.9030 H   0  0  0  0  0  0  0  0  0  0  0  0
   36.8800   22.6470   38.5620 H   0  0  0  0  0  0  0  0  0  0  0  0
  1 15  1  0  0  0  0
  2  1  1  0  0  0  0
  2  7  1  0  0  0  0
  3  2  2  0  0  0  0
  4  5  2  0  0  0  0
  4  3  1  0  0  0  0
  5  6  1  0  0  0  0
  6  1  2  0  0  0  0
  8  3  1  0  0  0  0
  9 10  2  0  0  0  0
  9  5  1  0  0  0  0
 10 11  1  0  0  0  0
 12 10  1  0  0  0  0
 13 14  1  0  0  0  0
 13 12  2  0  0  0  0
 14  9  1  0  0  0  0
 15 17  1  0  0  0  0
 15 16  1  0  0  0  0
M  END
>  <minimizedAffinity>
-3.74287963

$$$$

 OpenBabel03262523103D

 17 18  0  0  0  0  0  0  0  0999 V2000
   39.7890   22.9000   37.1230 C   0  0  0  0  0  0  0  0  0  0  0  0
   38.4710   23.2170   37.5140 C   0  0  0  0  0  0  0  0  0  0  0  0
   37.8340   24.2900   36.8930 C   0  0  0  0  0  0  0  0  0  0  0  0
   38.5260   24.9670   35.9430 N   0  0  0  0  0  0  0  0  0  0  0  0
   39.7740   24.6490   35.5880 C   0  0  0  0  0  0  0  0  0  0  0  0
   40.4030   23.6290   36.1660 N   0  0  0  0  0  0  0  0  0  0  0  0
   38.0010   22.6240   38.2780 H   0  0  0  0  0  0  0  0  0  0  0  0
   36.8260   24.5550   37.1730 H   0  0  0  0  0  0  0  0  0  0  0  0
   40.4820   25.4090   34.5570 C   0  0  0  0  0  0  0  0  0  0  0  0
   40.6050   26.7270   34.4150 C   0  0  0  0  0  0  0  0  0  0  0  0
   40.1310   27.4010   35.1460 H   0  0  0  0  0  0  0  0  0  0  0  0
   41.3210   27.2520   33.3660 C   0  0  0  0  0  3  0  0  0  0  0  0
   41.8820   26.3030   32.5000 C   0  0  0  0  0  3  0  0  0  0  0  0
   41.3570   24.6990   33.2290 S   0  0  0  0  0  0  0  0  0  0  0  0
   40.5170   21.8140   37.7090 N   0  0  0  0  0  0  0  0  0  0  0  0
   40.4980   21.6340   38.7500 H   0  0  0  0  0  0  0  0  0  0  0  0
   41.0770   21.1780   37.1320 H   0  0  0  0  0  0  0  0  0  0  0  0
  1  2  1  0  0  0  0
  1 15  1  0  0  0  0
  2  7  1  0  0  0  0
  3  8  1  0  0  0  0
  3  2  2  0  0  0  0
  4  3  1  0  0  0  0
  5  4  2  0  0  0  0
  5  6  1  0  0  0  0
  6  1  2  0  0  0  0
  9  5  1  0  0  0  0
 10  9  2  0  0  0  0
 10 11  1  0  0  0  0
 12 10  1  0  0  0  0
 13 14  1  0  0  0  0
 13 12  2  0  0  0  0
 14  9  1  0  0  0  0
 15 16  1  0  0  0  0
 17 15  1  0  0  0  0
M  END
>  <minimizedAffinity>
-3.72635937

$$$$

 OpenBabel03262523103D

 17 18  0  0  0  0  0  0  0  0999 V2000
   38.6460   23.1500   37.9510 C   0  0  0  0  0  0  0  0  0  0  0  0
   37.9170   24.0570   37.1530 C   0  0  0  0  0  0  0  0  0  0  0  0
   38.5140   24.5550   35.9970 C   0  0  0  0  0  0  0  0  0  0  0  0
   39.7710   24.1320   35.7080 N   0  0  0  0  0  0  0  0  0  0  0  0
   40.4440   23.2720   36.4770 C   0  0  0  0  0  0  0  0  0  0  0  0
   39.8940   22.7830   37.5860 N   0  0  0  0  0  0  0  0  0  0  0  0
   36.9250   24.3360   37.4620 H   0  0  0  0  0  0  0  0  0  0  0  0
   37.9800   25.2500   35.3690 H   0  0  0  0  0  0  0  0  0  0  0  0
   41.7980   22.8440   36.1250 C   0  0  0  0  0  0  0  0  0  0  0  0
   42.9680   23.3700   36.4800 C   0  0  0  0  0  0  0  0  0  0  0  0
   42.9920   24.2570   37.1330 H   0  0  0  0  0  0  0  0  0  0  0  0
   44.1450   22.8150   36.0390 C   0  0  0  0  0  3  0  0  0  0  0  0
   43.9970   21.6910   35.2160 C   0  0  0  0  0  3  0  0  0  0  0  0
   42.1730   21.4790   35.1100 S   0  0  0  0  0  0  0  0  0  0  0  0
   38.1070   22.5900   39.1540 N   0  0  0  0  0  0  0  0  0  0  0  0
   37.5710   23.1800   39.8470 H   0  0  0  0  0  0  0  0  0  0  0  0
   38.2270   21.5960   39.3770 H   0  0  0  0  0  0  0  0  0  0  0  0
  1 15  1  0  0  0  0
  2  7  1  0  0  0  0
  2  1  2  0  0  0  0
  3  2  1  0  0  0  0
  4  3  2  0  0  0  0
  4  5  1  0  0  0  0
  5  6  2  0  0  0  0
  6  1  1  0  0  0  0
  8  3  1  0  0  0  0
  9  5  1  0  0  0  0
  9 10  2  0  0  0  0
 10 11  1  0  0  0  0
 12 10  1  0  0  0  0
 13 12  2  0  0  0  0
 14 13  1  0  0  0  0
 14  9  1  0  0  0  0
 15 17  1  0  0  0  0
 15 16  1  0  0  0  0
M  END
>  <minimizedAffinity>
-3.70599174

$$$$

 OpenBabel03262523103D

 17 18  0  0  0  0  0  0  0  0999 V2000
   36.0450   19.6900   30.9730 C   0  0  0  0  0  0  0  0  0  0  0  0
   35.7300   19.1410   32.2340 C   0  0  0  0  0  0  0  0  0  0  0  0
   35.5230   20.0100   33.3030 C   0  0  0  0  0  0  0  0  0  0  0  0
   35.6370   21.3400   33.0640 N   0  0  0  0  0  0  0  0  0  0  0  0
   35.9360   21.8390   31.8610 C   0  0  0  0  0  0  0  0  0  0  0  0
   36.1390   21.0290   30.8240 N   0  0  0  0  0  0  0  0  0  0  0  0
   35.6610   18.0730   32.3300 H   0  0  0  0  0  0  0  0  0  0  0  0
   35.2800   19.6170   34.2790 H   0  0  0  0  0  0  0  0  0  0  0  0
   36.0490   23.2820   31.6490 C   0  0  0  0  0  0  0  0  0  0  0  0
   35.1480   24.1380   31.1700 C   0  0  0  0  0  0  0  0  0  0  0  0
   34.1520   23.7720   30.8720 H   0  0  0  0  0  0  0  0  0  0  0  0
   35.4500   25.4720   31.0470 C   0  0  0  0  0  3  0  0  0  0  0  0
   36.7430   25.8260   31.4570 C   0  0  0  0  0  3  0  0  0  0  0  0
   37.4690   24.2270   32.0010 S   0  0  0  0  0  0  0  0  0  0  0  0
   36.2740   18.8690   29.8210 N   0  0  0  0  0  0  0  0  0  0  0  0
   36.8500   17.9860   29.8770 H   0  0  0  0  0  0  0  0  0  0  0  0
   35.8820   19.1190   28.9060 H   0  0  0  0  0  0  0  0  0  0  0  0
  1  2  1  0  0  0  0
  2  7  1  0  0  0  0
  2  3  2  0  0  0  0
  3  8  1  0  0  0  0
  4  3  1  0  0  0  0
  5  4  2  0  0  0  0
  6  1  2  0  0  0  0
  6  5  1  0  0  0  0
  9  5  1  0  0  0  0
  9 14  1  0  0  0  0
 10  9  2  0  0  0  0
 11 10  1  0  0  0  0
 12 10  1  0  0  0  0
 12 13  2  0  0  0  0
 13 14  1  0  0  0  0
 15 16  1  0  0  0  0
 15  1  1  0  0  0  0
 17 15  1  0  0  0  0
M  END
>  <minimizedAffinity>
-3.7014091

$$$$
