
 OpenBabel03272509463D

 22 23  0  0  0  0  0  0  0  0999 V2000
   34.0790   28.5040   48.6010 C   0  0  0  0  0  0  0  0  0  0  0  0
   33.1530   29.0410   48.8800 H   0  0  0  0  0  0  0  0  0  0  0  0
   34.6600   29.1840   47.9440 H   0  0  0  0  0  0  0  0  0  0  0  0
   33.7890   27.1830   47.9300 C   0  0  0  0  0  0  0  0  0  0  0  0
   33.1160   26.6390   48.6530 H   0  0  0  0  0  0  0  0  0  0  0  0
   34.6720   26.5630   47.7930 H   0  0  0  0  0  0  0  0  0  0  0  0
   33.0760   27.4540   46.6540 C   0  0  0  0  0  0  0  0  0  0  0  0
   33.3960   28.1450   45.5330 C   0  0  0  0  0  0  0  0  0  0  0  0
   34.3900   28.6070   45.5610 H   0  0  0  0  0  0  0  0  0  0  0  0
   32.5330   28.2300   44.4980 C   0  0  0  0  0  3  0  0  0  0  0  0
   31.3310   27.5830   44.6480 C   0  0  0  0  0  3  0  0  0  0  0  0
   31.4690   26.8180   46.3770 S   0  0  0  0  0  0  0  0  0  0  0  0
   34.7580   28.2720   49.8330 O   0  0  0  0  0  0  0  0  0  0  0  0
   37.3640   30.2520   51.4070 C   0  0  0  0  0  0  0  0  0  0  0  0
   38.0620   30.6850   50.2830 C   0  0  0  0  0  0  0  0  0  0  0  0
   37.6090   30.2780   49.0330 C   0  0  0  0  0  0  0  0  0  0  0  0
   36.4960   29.4740   49.0070 N   0  0  0  0  0  0  0  0  0  0  0  0
   35.8470   29.0770   50.1210 C   0  0  0  0  0  0  0  0  0  0  0  0
   36.2990   29.4780   51.3170 N   0  0  0  0  0  0  0  0  0  0  0  0
   37.7360   30.5830   52.3820 H   0  0  0  0  0  0  0  0  0  0  0  0
   38.9380   31.3170   50.2950 H   0  0  0  0  0  0  0  0  0  0  0  0
   38.1000   30.5730   48.1170 H   0  0  0  0  0  0  0  0  0  0  0  0
  1  2  1  0  0  0  0
  1 13  1  0  0  0  0
  3  1  1  0  0  0  0
  4  1  1  0  0  0  0
  4  5  1  0  0  0  0
  6  4  1  0  0  0  0
  7  4  1  0  0  0  0
  8  9  1  0  0  0  0
  8  7  2  0  0  0  0
 10 11  2  0  0  0  0
 10  8  1  0  0  0  0
 11 12  1  0  0  0  0
 12  7  1  0  0  0  0
 13 18  1  0  0  0  0
 14 20  1  0  0  0  0
 15 21  1  0  0  0  0
 15 14  2  0  0  0  0
 16 15  1  0  0  0  0
 17 16  2  0  0  0  0
 17 18  1  0  0  0  0
 18 19  2  0  0  0  0
 19 14  1  0  0  0  0
 22 16  1  0  0  0  0
M  END
>  <minimizedAffinity>
-3.59584785

>  <minimizedRMSD>
0.588634908

$$$$
