
 OpenBabel03272504223D

 36 38  0  0  1  0  0  0  0  0999 V2000
   36.8330   31.5840   48.6930 O   0  0  0  0  0  0  0  0  0  0  0  0
   38.8460   32.4000   47.8440 C   0  0  2  0  0  0  0  0  0  0  0  0
   38.1950   31.3860   48.7580 C   0  0  1  0  0  0  0  0  0  0  0  0
   38.7290   31.9210   50.0900 C   0  0  0  0  0  0  0  0  0  0  0  0
   38.3940   33.2680   49.9820 O   0  0  0  0  0  0  0  0  0  0  0  0
   38.6530   33.6570   48.6910 C   0  0  0  0  0  0  0  0  0  0  0  0
   39.9040   32.1590   47.7090 H   0  0  0  0  0  0  0  0  0  0  0  0
   38.5210   30.3480   48.5800 H   0  0  0  0  0  0  0  0  0  0  0  0
   39.8060   31.7400   50.1560 H   0  0  0  0  0  0  0  0  0  0  0  0
   38.1300   31.4420   50.8730 H   0  0  0  0  0  0  0  0  0  0  0  0
   39.5840   34.2670   48.6070 H   0  0  0  0  0  0  0  0  0  0  0  0
   37.8420   34.3010   48.2680 H   0  0  0  0  0  0  0  0  0  0  0  0
   38.1150   32.4390   46.6610 O   0  0  0  0  0  0  0  0  0  0  0  0
   38.7990   31.9860   45.5070 C   0  0  0  0  0  0  0  0  0  0  0  0
   39.0570   30.6530   45.1720 C   0  0  0  0  0  0  0  0  0  0  0  0
   38.7160   29.8740   45.8340 H   0  0  0  0  0  0  0  0  0  0  0  0
   39.7310   30.3760   44.0210 C   0  0  0  0  0  3  0  0  0  0  0  0
   40.1550   31.4740   43.1870 C   0  0  0  0  0  3  0  0  0  0  0  0
   39.5910   32.9100   44.0460 S   0  0  0  0  0  0  0  0  0  0  0  0
   35.9220   29.8530   46.9810 O   0  0  0  0  0  0  0  0  0  0  0  0
   35.9690   30.1650   48.4580 P   0  0  1  0  0  0  0  0  0  0  0  0
   36.7500   28.8670   49.2450 O   0  0  0  0  0  0  0  0  0  0  0  0
   37.4410   29.1710   49.8830 H   0  0  0  0  0  0  0  0  0  0  0  0
   34.3930   30.3310   49.0740 O   0  0  0  0  0  0  0  0  0  0  0  0
   34.1240   29.1870   49.7990 C   0  0  0  0  0  0  0  0  0  0  0  0
   33.6110   29.4530   50.7680 H   0  0  0  0  0  0  0  0  0  0  0  0
   35.0330   28.6440   50.1200 H   0  0  0  0  0  0  0  0  0  0  0  0
   33.2620   28.2200   49.0850 C   0  0  0  0  0  0  0  0  0  0  0  0
   33.8920   27.3310   48.2480 C   0  0  0  0  0  0  0  0  0  0  0  0
   33.1350   26.3920   47.5450 C   0  0  0  0  0  0  0  0  0  0  0  0
   31.7850   26.4180   47.7350 N   0  0  0  0  0  0  0  0  0  0  0  0
   31.1910   27.2990   48.5610 C   0  0  0  0  0  0  0  0  0  0  0  0
   31.9260   28.2080   49.2420 N   0  0  0  0  0  0  0  0  0  0  0  0
   34.9420   27.2330   48.0330 H   0  0  0  0  0  0  0  0  0  0  0  0
   33.5300   25.6610   46.8730 H   0  0  0  0  0  0  0  0  0  0  0  0
   30.1170   27.2320   48.6390 H   0  0  0  0  0  0  0  0  0  0  0  0
  1  3  1  0  0  0  0
  2  7  1  6  0  0  0
  2  6  1  0  0  0  0
  2  3  1  0  0  0  0
  3  8  1  6  0  0  0
  3  4  1  0  0  0  0
  4  9  1  0  0  0  0
  4 10  1  0  0  0  0
  5  4  1  0  0  0  0
  6  5  1  0  0  0  0
 11  6  1  0  0  0  0
 12  6  1  0  0  0  0
 13  2  1  0  0  0  0
 14 13  1  0  0  0  0
 15 14  2  0  0  0  0
 15 16  1  0  0  0  0
 17 15  1  0  0  0  0
 18 17  2  0  0  0  0
 18 19  1  0  0  0  0
 19 14  1  0  0  0  0
 21 20  2  6  0  0  0
 21  1  1  0  0  0  0
 21 24  1  0  0  0  0
 21 22  1  0  0  0  0
 22 23  1  0  0  0  0
 24 25  1  0  0  0  0
 25 27  1  0  0  0  0
 25 26  1  0  0  0  0
 28 33  1  0  0  0  0
 28 25  1  0  0  0  0
 29 28  2  0  0  0  0
 30 31  2  0  0  0  0
 30 29  1  0  0  0  0
 31 32  1  0  0  0  0
 32 36  1  0  0  0  0
 32 33  2  0  0  0  0
 34 29  1  0  0  0  0
 35 30  1  0  0  0  0
M  END
>  <minimizedAffinity>
-4.5991087

>  <minimizedRMSD>
0.225528136

$$$$
