
 OpenBabel03272500183D

 31 33  0  0  0  0  0  0  0  0999 V2000
   35.1990   29.3470   50.4490 C   0  0  0  0  0  0  0  0  0  0  0  0
   36.2180   30.1140   49.8010 C   0  0  0  0  0  0  0  0  0  0  0  0
   36.2170   30.1830   48.4200 C   0  0  0  0  0  0  0  0  0  0  0  0
   35.2230   29.4990   47.7650 N   0  0  0  0  0  0  0  0  0  0  0  0
   34.2910   28.7980   48.3660 C   0  0  0  0  0  0  0  0  0  0  0  0
   34.2790   28.7220   49.6890 N   0  0  0  0  0  0  0  0  0  0  0  0
   35.2530   29.3320   51.5270 H   0  0  0  0  0  0  0  0  0  0  0  0
   32.7520   30.5700   46.4390 Cl  0  0  0  0  0  0  0  0  0  0  0  0
   32.4940   28.8350   46.6450 C   0  0  0  0  0  0  0  0  0  0  0  0
   33.2740   28.1150   47.5710 C   0  0  0  0  0  0  0  0  0  0  0  0
   33.1040   26.7540   47.7630 C   0  0  0  0  0  0  0  0  0  0  0  0
   32.1180   26.1310   46.9900 C   0  0  0  0  0  0  0  0  0  0  0  0
   31.3460   26.8080   46.0830 C   0  0  0  0  0  0  0  0  0  0  0  0
   30.1490   25.9190   45.1770 Cl  0  0  0  0  0  0  0  0  0  0  0  0
   31.5450   28.1740   45.9170 C   0  0  0  0  0  0  0  0  0  0  0  0
   33.7060   26.2160   48.4740 H   0  0  0  0  0  0  0  0  0  0  0  0
   31.9780   25.0660   47.1350 H   0  0  0  0  0  0  0  0  0  0  0  0
   30.7190   28.9160   44.9420 C   0  0  0  0  0  0  0  0  0  0  0  0
   29.6680   28.1190   44.4790 F   0  0  0  0  0  0  0  0  0  0  0  0
   31.4360   29.4340   43.9200 F   0  0  0  0  0  0  0  0  0  0  0  0
   30.0960   29.9820   45.5860 F   0  0  0  0  0  0  0  0  0  0  0  0
   37.1340   30.9580   47.6320 C   0  0  0  0  0  0  0  0  0  0  0  0
   38.0990   31.8920   47.6650 C   0  0  0  0  0  0  0  0  0  0  0  0
   38.3930   32.2880   48.5970 H   0  0  0  0  0  0  0  0  0  0  0  0
   38.7220   32.4030   46.5960 C   0  0  0  0  0  0  0  0  0  0  0  0
   38.3730   31.9570   45.2860 C   0  0  0  0  0  0  0  0  0  0  0  0
   37.0500   30.7250   45.8040 S   0  0  0  0  0  0  0  0  0  0  0  0
   37.2540   30.7920   50.6340 C   0  0  0  0  0  0  0  0  0  0  0  0
   38.5390   30.4730   50.2140 F   0  0  0  0  0  0  0  0  0  0  0  0
   37.0310   32.1350   50.5990 F   0  0  0  0  0  0  0  0  0  0  0  0
   37.1690   30.4090   51.9750 F   0  0  0  0  0  0  0  0  0  0  0  0
  1  7  1  0  0  0  0
  2  1  1  0  0  0  0
  2 28  1  0  0  0  0
  3  2  2  0  0  0  0
  4  5  2  0  0  0  0
  4  3  1  0  0  0  0
  5  6  1  0  0  0  0
  6  1  2  0  0  0  0
  8  9  1  0  0  0  0
  9 10  1  0  0  0  0
 10 11  2  0  0  0  0
 10  5  1  0  0  0  0
 11 16  1  0  0  0  0
 12 17  1  0  0  0  0
 12 11  1  0  0  0  0
 13 12  2  0  0  0  0
 14 13  1  0  0  0  0
 15 13  1  0  0  0  0
 15  9  2  0  0  0  0
 18 21  1  0  0  0  0
 18 15  1  0  0  0  0
 19 18  1  0  0  0  0
 20 18  1  0  0  0  0
 22 23  2  0  0  0  0
 22  3  1  0  0  0  0
 23 24  1  0  0  0  0
 25 23  1  0  0  0  0
 26 27  1  0  0  0  0
 26 25  2  0  0  0  0
 27 22  1  0  0  0  0
 28 31  1  0  0  0  0
 29 28  1  0  0  0  0
 30 28  1  0  0  0  0
M  END
>  <minimizedAffinity>
-6.30477571

>  <minimizedRMSD>
0.851357341

$$$$
