
     RDKit          3D

 44 48  0  0  0  0  0  0  0  0999 V2000
   36.2344   30.1815   46.8556 C   0  0  0  0  0  0  0  0  0  0  0  0
   37.0709   30.7298   47.7970 C   0  0  0  0  0  0  0  0  0  0  0  0
   38.0693   31.6496   47.4366 C   0  0  0  0  0  0  0  0  0  0  0  0
   38.1483   31.9607   46.0781 C   0  0  0  0  0  0  0  0  0  0  0  0
   39.0299   32.8280   45.4776 N   0  0  0  0  0  0  0  0  0  0  0  0
   38.7334   32.8116   44.1689 C   0  0  0  0  0  0  0  0  0  0  0  0
   37.7283   31.9862   43.9529 N   0  0  0  0  0  0  0  0  0  0  0  0
   37.3348   31.4366   45.1129 C   0  0  0  0  0  0  0  0  0  0  0  0
   36.3553   30.5242   45.5204 C   0  0  0  0  0  0  0  0  0  0  0  0
   37.4940   30.1605   51.4970 C   0  0  0  0  0  0  0  0  0  0  0  0
   37.8111   30.5909   50.2100 C   0  0  0  0  0  0  0  0  0  0  0  0
   36.9234   30.3593   49.1932 C   0  0  0  0  0  0  0  0  0  0  0  0
   35.7531   29.7030   49.5189 N   0  0  0  0  0  0  0  0  0  0  0  0
   35.4550   29.2903   50.7673 C   0  0  0  0  0  0  0  0  0  0  0  0
   36.3137   29.5179   51.7340 N   0  0  0  0  0  0  0  0  0  0  0  0
   39.4281   33.5810   43.2349 O   0  0  0  0  0  0  0  0  0  0  0  0
   39.5739   31.8467   41.7208 N   0  0  0  0  0  0  0  0  0  0  0  0
   39.2053   33.2453   41.8746 C   0  0  1  0  0  0  0  0  0  0  0  0
   37.8114   33.4464   41.5118 C   0  0  0  0  0  0  0  0  0  0  0  0
   37.6410   33.1275   40.1551 O   0  0  0  0  0  0  0  0  0  0  0  0
   38.0627   31.8798   39.7955 C   0  0  0  0  0  0  0  0  0  0  0  0
   39.4478   31.5799   40.2969 C   0  0  1  0  0  0  0  0  0  0  0  0
   35.4602   29.4692   47.1283 H   0  0  0  0  0  0  0  0  0  0  0  0
   38.7444   32.0991   48.1556 H   0  0  0  0  0  0  0  0  0  0  0  0
   39.7785   33.3851   45.9527 H   0  0  0  0  0  0  0  0  0  0  0  0
   35.7048   30.1028   44.7603 H   0  0  0  0  0  0  0  0  0  0  0  0
   38.2220   30.3620   52.2760 H   0  0  0  0  0  0  0  0  0  0  0  0
   38.7216   31.1055   49.9376 H   0  0  0  0  0  0  0  0  0  0  0  0
   34.5074   28.7839   50.9123 H   0  0  0  0  0  0  0  0  0  0  0  0
   39.0060   31.1519   42.1726 H   0  0  0  0  0  0  0  0  0  0  0  0
   39.8748   33.7983   41.1950 H   0  0  0  0  0  0  0  0  0  0  0  0
   36.9822   32.9882   41.9803 H   0  0  0  0  0  0  0  0  0  0  0  0
   37.6166   34.5628   41.5396 H   0  0  0  0  0  0  0  0  0  0  0  0
   37.4006   31.0935   40.2067 H   0  0  0  0  0  0  0  0  0  0  0  0
   38.0882   31.8521   38.6868 H   0  0  0  0  0  0  0  0  0  0  0  0
   39.6316   30.5066   40.0676 H   0  0  0  0  0  0  0  0  0  0  0  0
   40.3892   32.4733   39.5918 C   0  0  0  0  0  0  0  0  0  0  0  0
   41.6590   32.7716   39.8491 C   0  0  0  0  0  0  0  0  0  0  0  0
   42.1403   32.3058   40.7184 H   0  0  0  0  0  0  0  0  0  0  0  0
   42.3766   33.6373   39.0652 C   0  0  0  0  0  0  0  0  0  0  0  0
   41.6205   34.1735   37.9604 C   0  0  0  0  0  0  0  0  0  0  0  0
   39.9881   33.4218   38.1205 S   0  0  0  0  0  0  0  0  0  0  0  0
   43.4081   33.9263   39.2120 H   0  0  0  0  0  0  0  0  0  0  0  0
   42.1134   34.9110   37.2315 H   0  0  0  0  0  0  0  0  0  0  0  0
  1  2  2  0
  2 12  1  0
  3  2  1  0
  4  3  2  0
  5  4  1  0
  6  5  1  0
  7  6  2  0
  7  8  1  0
  8  9  2  0
  8  4  1  0
  9  1  1  0
 10 15  2  0
 11 10  1  0
 12 13  1  0
 12 11  2  0
 13 14  2  0
 14 15  1  0
 16  6  1  0
 17 18  1  0
 18 16  1  0
 19 18  1  0
 20 19  1  0
 21 20  1  0
 21 22  1  0
 22 17  1  0
  1 23  1  0
  3 24  1  0
  5 25  1  0
  9 26  1  0
 10 27  1  0
 11 28  1  0
 14 29  1  0
 17 30  1  0
 18 31  1  6
 19 32  1  0
 19 33  1  0
 21 34  1  0
 21 35  1  0
 22 36  1  1
 37 38  2  0
 38 39  1  0
 38 40  1  0
 40 41  2  0
 41 42  1  0
 42 37  1  0
 40 43  1  0
 41 44  1  0
 22 37  1  0
M  ISO  8  23  14  24  14  25   9  26  14  27  14  28  14  29  14  30   5
M  ISO  7  31  13  32  13  33  13  34  13  35  13  36  13  39  15
M  END
>  <DihAtoms>  (1) 
20,21,36,37

>  <DihDeg>  (1) 
165.78554107898105

$$$$
