
 OpenBabel03262523233D

 30 32  0  0  1  0  0  0  0  0999 V2000
   37.0250   27.0790   34.4540 C   0  0  0  0  0  0  0  0  0  0  0  0
   38.0000   27.3550   33.4860 C   0  0  0  0  0  0  0  0  0  0  0  0
   39.1070   26.5200   33.4200 C   0  0  0  0  0  0  0  0  0  0  0  0
   39.1860   25.4800   34.2940 N   0  0  0  0  0  0  0  0  0  0  0  0
   38.2260   25.2370   35.2200 C   0  0  0  0  0  0  0  0  0  0  0  0
   37.1520   26.0340   35.2970 N   0  0  0  0  0  0  0  0  0  0  0  0
   38.3740   24.1190   36.1130 N   0  0  0  0  0  0  0  0  0  0  0  0
   38.0810   24.2880   37.5240 C   0  0  0  0  0  0  0  0  0  0  0  0
   38.8970   23.3840   38.4090 C   0  0  0  0  0  0  0  0  0  0  0  0
   40.1270   22.9570   37.6360 C   0  0  0  0  0  0  0  0  0  0  0  0
   39.6360   22.0510   36.5480 C   0  0  0  0  0  0  0  0  0  0  0  0
   38.8140   22.8460   35.5710 C   0  0  1  0  0  0  0  0  0  0  0  0
   36.1690   27.7490   34.4850 H   0  0  0  0  0  0  0  0  0  0  0  0
   37.9580   28.1730   32.7850 H   0  0  0  0  0  0  0  0  0  0  0  0
   39.9240   26.6400   32.7090 H   0  0  0  0  0  0  0  0  0  0  0  0
   38.4240   25.3330   37.7710 H   0  0  0  0  0  0  0  0  0  0  0  0
   36.9970   24.2480   37.7510 H   0  0  0  0  0  0  0  0  0  0  0  0
   38.3210   22.4980   38.6630 H   0  0  0  0  0  0  0  0  0  0  0  0
   39.2980   23.9310   39.3100 H   0  0  0  0  0  0  0  0  0  0  0  0
   40.7290   23.8020   37.2700 H   0  0  0  0  0  0  0  0  0  0  0  0
   40.7510   22.3860   38.3620 H   0  0  0  0  0  0  0  0  0  0  0  0
   38.9610   21.3020   37.0520 H   0  0  0  0  0  0  0  0  0  0  0  0
   40.4620   21.4730   36.0790 H   0  0  0  0  0  0  0  0  0  0  0  0
   39.4940   23.0940   34.7270 H   0  0  0  0  0  0  0  0  0  0  0  0
   37.6910   22.0750   35.0010 C   0  0  0  0  0  0  0  0  0  0  0  0
   36.6650   21.4310   35.7120 C   0  0  0  0  0  0  0  0  0  0  0  0
   36.6520   21.4770   36.7890 H   0  0  0  0  0  0  0  0  0  0  0  0
   35.7090   20.7590   35.0070 C   0  0  0  0  0  3  0  0  0  0  0  0
   35.8230   20.7590   33.5480 C   0  0  0  0  0  3  0  0  0  0  0  0
   37.4000   21.7960   33.3320 S   0  0  0  0  0  0  0  0  0  0  0  0
  1 13  1  0  0  0  0
  1  6  1  0  0  0  0
  2  1  2  0  0  0  0
  3  2  1  0  0  0  0
  3  4  2  0  0  0  0
  4  5  1  0  0  0  0
  5  6  2  0  0  0  0
  5  7  1  0  0  0  0
  7  8  1  0  0  0  0
  8 17  1  0  0  0  0
  8 16  1  0  0  0  0
  8  9  1  0  0  0  0
  9 18  1  0  0  0  0
  9 19  1  0  0  0  0
 10 21  1  0  0  0  0
 10  9  1  0  0  0  0
 11 22  1  0  0  0  0
 11 10  1  0  0  0  0
 12 24  1  6  0  0  0
 12  7  1  0  0  0  0
 12 11  1  0  0  0  0
 14  2  1  0  0  0  0
 15  3  1  0  0  0  0
 20 10  1  0  0  0  0
 23 11  1  0  0  0  0
 25 12  1  0  0  0  0
 25 26  2  0  0  0  0
 26 27  1  0  0  0  0
 28 26  1  0  0  0  0
 29 28  2  0  0  0  0
 30 29  1  0  0  0  0
 30 25  1  0  0  0  0
M  END
>  <minimizedAffinity>
-5.00394106

$$$$

 OpenBabel03262523233D

 30 32  0  0  1  0  0  0  0  0999 V2000
   38.2650   23.0050   36.8670 C   0  0  0  0  0  0  0  0  0  0  0  0
   39.6520   22.9510   36.6800 C   0  0  0  0  0  0  0  0  0  0  0  0
   40.1300   22.4240   35.4870 C   0  0  0  0  0  0  0  0  0  0  0  0
   39.2270   21.9910   34.5650 N   0  0  0  0  0  0  0  0  0  0  0  0
   37.8900   22.0560   34.7730 C   0  0  0  0  0  0  0  0  0  0  0  0
   37.4140   22.5610   35.9190 N   0  0  0  0  0  0  0  0  0  0  0  0
   36.9930   21.5790   33.7540 N   0  0  0  0  0  0  0  0  0  0  0  0
   35.8560   20.7600   34.1290 C   0  0  0  0  0  0  0  0  0  0  0  0
   35.4510   19.7850   33.0560 C   0  0  0  0  0  0  0  0  0  0  0  0
   36.6380   19.5770   32.1390 C   0  0  0  0  0  0  0  0  0  0  0  0
   36.8220   20.8700   31.4040 C   0  0  0  0  0  0  0  0  0  0  0  0
   37.2560   21.9360   32.3710 C   0  0  1  0  0  0  0  0  0  0  0  0
   37.9180   23.4210   37.8090 H   0  0  0  0  0  0  0  0  0  0  0  0
   40.3830   23.2880   37.3970 H   0  0  0  0  0  0  0  0  0  0  0  0
   41.1850   22.3350   35.2360 H   0  0  0  0  0  0  0  0  0  0  0  0
   36.2230   20.1230   34.9840 H   0  0  0  0  0  0  0  0  0  0  0  0
   35.0030   21.3520   34.5170 H   0  0  0  0  0  0  0  0  0  0  0  0
   34.6300   20.1980   32.4740 H   0  0  0  0  0  0  0  0  0  0  0  0
   35.2300   18.7640   33.4800 H   0  0  0  0  0  0  0  0  0  0  0  0
   37.5410   19.2340   32.6650 H   0  0  0  0  0  0  0  0  0  0  0  0
   36.3300   18.7710   31.4340 H   0  0  0  0  0  0  0  0  0  0  0  0
   35.8040   21.1450   31.0050 H   0  0  0  0  0  0  0  0  0  0  0  0
   37.4910   20.7590   30.5230 H   0  0  0  0  0  0  0  0  0  0  0  0
   38.3610   22.0050   32.2800 H   0  0  0  0  0  0  0  0  0  0  0  0
   36.7170   23.2700   32.0380 C   0  0  0  0  0  0  0  0  0  0  0  0
   35.5250   23.5490   31.3470 C   0  0  0  0  0  0  0  0  0  0  0  0
   34.9030   22.7370   31.0060 H   0  0  0  0  0  0  0  0  0  0  0  0
   35.1920   24.8540   31.1290 C   0  0  0  0  0  3  0  0  0  0  0  0
   36.1080   25.8780   31.6340 C   0  0  0  0  0  3  0  0  0  0  0  0
   37.4410   24.7780   32.4230 S   0  0  0  0  0  0  0  0  0  0  0  0
  1 13  1  0  0  0  0
  2  1  1  0  0  0  0
  2 14  1  0  0  0  0
  3  2  2  0  0  0  0
  4  5  2  0  0  0  0
  4  3  1  0  0  0  0
  5  6  1  0  0  0  0
  6  1  2  0  0  0  0
  7  8  1  0  0  0  0
  7  5  1  0  0  0  0
  8 17  1  0  0  0  0
  8 16  1  0  0  0  0
  9 19  1  0  0  0  0
  9  8  1  0  0  0  0
 10 20  1  0  0  0  0
 10  9  1  0  0  0  0
 11 10  1  0  0  0  0
 11 12  1  0  0  0  0
 12 24  1  6  0  0  0
 12  7  1  0  0  0  0
 15  3  1  0  0  0  0
 18  9  1  0  0  0  0
 21 10  1  0  0  0  0
 22 11  1  0  0  0  0
 23 11  1  0  0  0  0
 25 12  1  0  0  0  0
 25 30  1  0  0  0  0
 26 25  2  0  0  0  0
 27 26  1  0  0  0  0
 28 26  1  0  0  0  0
 28 29  2  0  0  0  0
 29 30  1  0  0  0  0
M  END
>  <minimizedAffinity>
-4.96092272

$$$$

 OpenBabel03262523233D

 30 32  0  0  1  0  0  0  0  0999 V2000
   38.8150   20.7180   32.4870 C   0  0  0  0  0  0  0  0  0  0  0  0
   37.4510   20.4450   32.3170 C   0  0  0  0  0  0  0  0  0  0  0  0
   36.5590   20.9860   33.2330 C   0  0  0  0  0  0  0  0  0  0  0  0
   37.0540   21.7500   34.2440 N   0  0  0  0  0  0  0  0  0  0  0  0
   38.3790   21.9970   34.3840 C   0  0  0  0  0  0  0  0  0  0  0  0
   39.2530   21.4830   33.5090 N   0  0  0  0  0  0  0  0  0  0  0  0
   38.8330   22.8150   35.4770 N   0  0  0  0  0  0  0  0  0  0  0  0
   39.9960   22.4040   36.2420 C   0  0  0  0  0  0  0  0  0  0  0  0
   39.9520   22.8620   37.6750 C   0  0  0  0  0  0  0  0  0  0  0  0
   38.5080   23.1490   38.0320 C   0  0  0  0  0  0  0  0  0  0  0  0
   38.1250   24.3680   37.2490 C   0  0  0  0  0  0  0  0  0  0  0  0
   38.1090   24.0350   35.7830 C   0  0  1  0  0  0  0  0  0  0  0  0
   39.4920   20.2820   31.7570 H   0  0  0  0  0  0  0  0  0  0  0  0
   37.0390   19.8420   31.5240 H   0  0  0  0  0  0  0  0  0  0  0  0
   35.4810   20.8400   33.1970 H   0  0  0  0  0  0  0  0  0  0  0  0
   39.9330   21.2800   36.2890 H   0  0  0  0  0  0  0  0  0  0  0  0
   40.9540   22.6490   35.7410 H   0  0  0  0  0  0  0  0  0  0  0  0
   40.5270   23.7790   37.7870 H   0  0  0  0  0  0  0  0  0  0  0  0
   40.2690   22.0460   38.3860 H   0  0  0  0  0  0  0  0  0  0  0  0
   37.8400   22.2910   37.8700 H   0  0  0  0  0  0  0  0  0  0  0  0
   38.5120   23.3750   39.1230 H   0  0  0  0  0  0  0  0  0  0  0  0
   38.9440   25.1220   37.4330 H   0  0  0  0  0  0  0  0  0  0  0  0
   37.1820   24.8250   37.6210 H   0  0  0  0  0  0  0  0  0  0  0  0
   37.0470   23.8310   35.5250 H   0  0  0  0  0  0  0  0  0  0  0  0
   38.5450   25.1600   34.9320 C   0  0  0  0  0  0  0  0  0  0  0  0
   39.6290   26.0240   35.1670 C   0  0  0  0  0  0  0  0  0  0  0  0
   40.2370   25.8900   36.0470 H   0  0  0  0  0  0  0  0  0  0  0  0
   39.8770   27.0150   34.2620 C   0  0  0  0  0  3  0  0  0  0  0  0
   38.9890   27.1070   33.1020 C   0  0  0  0  0  3  0  0  0  0  0  0
   37.8120   25.6600   33.4620 S   0  0  0  0  0  0  0  0  0  0  0  0
  1  6  1  0  0  0  0
  2  1  2  0  0  0  0
  2  3  1  0  0  0  0
  3  4  2  0  0  0  0
  4  5  1  0  0  0  0
  5  7  1  0  0  0  0
  6  5  2  0  0  0  0
  7 12  1  0  0  0  0
  7  8  1  0  0  0  0
  8 16  1  0  0  0  0
  8  9  1  0  0  0  0
  9 18  1  0  0  0  0
  9 10  1  0  0  0  0
  9 19  1  0  0  0  0
 10 21  1  0  0  0  0
 11 22  1  0  0  0  0
 11 23  1  0  0  0  0
 11 10  1  0  0  0  0
 12 24  1  6  0  0  0
 12 11  1  0  0  0  0
 13  1  1  0  0  0  0
 14  2  1  0  0  0  0
 15  3  1  0  0  0  0
 17  8  1  0  0  0  0
 20 10  1  0  0  0  0
 25 26  2  0  0  0  0
 25 12  1  0  0  0  0
 26 27  1  0  0  0  0
 28 26  1  0  0  0  0
 29 30  1  0  0  0  0
 29 28  2  0  0  0  0
 30 25  1  0  0  0  0
M  END
>  <minimizedAffinity>
-4.72098541

$$$$

 OpenBabel03262523233D

 30 32  0  0  1  0  0  0  0  0999 V2000
   42.3930   22.1880   35.7980 C   0  0  0  0  0  0  0  0  0  0  0  0
   41.9560   21.5410   36.9610 C   0  0  0  0  0  0  0  0  0  0  0  0
   40.7740   21.9770   37.5450 C   0  0  0  0  0  0  0  0  0  0  0  0
   40.1050   23.0070   36.9580 N   0  0  0  0  0  0  0  0  0  0  0  0
   40.5530   23.6140   35.8320 C   0  0  0  0  0  0  0  0  0  0  0  0
   41.6910   23.2050   35.2570 N   0  0  0  0  0  0  0  0  0  0  0  0
   39.7940   24.6970   35.2650 N   0  0  0  0  0  0  0  0  0  0  0  0
   40.4830   25.8890   34.8090 C   0  0  0  0  0  0  0  0  0  0  0  0
   39.6440   27.1340   34.9200 C   0  0  0  0  0  0  0  0  0  0  0  0
   38.5530   26.8760   35.9390 C   0  0  0  0  0  0  0  0  0  0  0  0
   37.6330   25.8730   35.3130 C   0  0  0  0  0  0  0  0  0  0  0  0
   38.3510   24.5610   35.1650 C   0  0  1  0  0  0  0  0  0  0  0  0
   43.3220   21.8270   35.3620 H   0  0  0  0  0  0  0  0  0  0  0  0
   42.4700   20.7250   37.4420 H   0  0  0  0  0  0  0  0  0  0  0  0
   40.3410   21.5480   38.4470 H   0  0  0  0  0  0  0  0  0  0  0  0
   41.3280   26.0370   35.5390 H   0  0  0  0  0  0  0  0  0  0  0  0
   40.9440   25.7690   33.8080 H   0  0  0  0  0  0  0  0  0  0  0  0
   39.1780   27.3530   33.9610 H   0  0  0  0  0  0  0  0  0  0  0  0
   40.2320   28.0000   35.3390 H   0  0  0  0  0  0  0  0  0  0  0  0
   38.9390   26.5690   36.9220 H   0  0  0  0  0  0  0  0  0  0  0  0
   38.0320   27.8520   36.0690 H   0  0  0  0  0  0  0  0  0  0  0  0
   37.4010   26.2700   34.2830 H   0  0  0  0  0  0  0  0  0  0  0  0
   36.6630   25.8010   35.8520 H   0  0  0  0  0  0  0  0  0  0  0  0
   38.0440   23.9410   36.0350 H   0  0  0  0  0  0  0  0  0  0  0  0
   37.9530   23.8200   33.9520 C   0  0  0  0  0  0  0  0  0  0  0  0
   37.6480   24.3650   32.6930 C   0  0  0  0  0  0  0  0  0  0  0  0
   37.6980   25.4310   32.5480 H   0  0  0  0  0  0  0  0  0  0  0  0
   37.2950   23.5140   31.6860 C   0  0  0  0  0  3  0  0  0  0  0  0
   37.2590   22.0840   31.9920 C   0  0  0  0  0  3  0  0  0  0  0  0
   37.7720   22.1170   33.8210 S   0  0  0  0  0  0  0  0  0  0  0  0
  1  2  1  0  0  0  0
  2 14  1  0  0  0  0
  2  3  2  0  0  0  0
  3 15  1  0  0  0  0
  4  3  1  0  0  0  0
  5  4  2  0  0  0  0
  6  1  2  0  0  0  0
  6  5  1  0  0  0  0
  7  5  1  0  0  0  0
  8  9  1  0  0  0  0
  8  7  1  0  0  0  0
  8 16  1  0  0  0  0
  9 19  1  0  0  0  0
  9 10  1  0  0  0  0
 10 21  1  0  0  0  0
 10 20  1  0  0  0  0
 11 23  1  0  0  0  0
 11 10  1  0  0  0  0
 12  7  1  0  0  0  0
 12 11  1  0  0  0  0
 12 24  1  1  0  0  0
 13  1  1  0  0  0  0
 17  8  1  0  0  0  0
 18  9  1  0  0  0  0
 22 11  1  0  0  0  0
 25 12  1  0  0  0  0
 26 25  2  0  0  0  0
 27 26  1  0  0  0  0
 28 29  2  0  0  0  0
 28 26  1  0  0  0  0
 29 30  1  0  0  0  0
 30 25  1  0  0  0  0
M  END
>  <minimizedAffinity>
-4.61162138

$$$$

 OpenBabel03262523233D

 30 32  0  0  1  0  0  0  0  0999 V2000
   36.7170   21.2680   32.0340 C   0  0  0  0  0  0  0  0  0  0  0  0
   35.6220   20.7200   32.7150 C   0  0  0  0  0  0  0  0  0  0  0  0
   35.6340   20.7540   34.1040 C   0  0  0  0  0  0  0  0  0  0  0  0
   36.7050   21.3170   34.7270 N   0  0  0  0  0  0  0  0  0  0  0  0
   37.7500   21.8400   34.0420 C   0  0  0  0  0  0  0  0  0  0  0  0
   37.7540   21.8150   32.7020 N   0  0  0  0  0  0  0  0  0  0  0  0
   38.8490   22.4210   34.7660 N   0  0  0  0  0  0  0  0  0  0  0  0
   40.2100   22.1240   34.3590 C   0  0  0  0  0  0  0  0  0  0  0  0
   41.1880   22.1540   35.5020 C   0  0  0  0  0  0  0  0  0  0  0  0
   40.4130   21.9640   36.7890 C   0  0  0  0  0  0  0  0  0  0  0  0
   39.6040   23.2130   36.9700 C   0  0  0  0  0  0  0  0  0  0  0  0
   38.5610   23.2930   35.8910 C   0  0  1  0  0  0  0  0  0  0  0  0
   36.6830   21.2280   30.9480 H   0  0  0  0  0  0  0  0  0  0  0  0
   34.7660   20.2690   32.2410 H   0  0  0  0  0  0  0  0  0  0  0  0
   34.8390   20.3580   34.7330 H   0  0  0  0  0  0  0  0  0  0  0  0
   40.1860   21.0490   34.0180 H   0  0  0  0  0  0  0  0  0  0  0  0
   40.5450   22.7250   33.4900 H   0  0  0  0  0  0  0  0  0  0  0  0
   41.6870   23.1200   35.5360 H   0  0  0  0  0  0  0  0  0  0  0  0
   41.9040   21.2830   35.4650 H   0  0  0  0  0  0  0  0  0  0  0  0
   39.8130   21.0430   36.8050 H   0  0  0  0  0  0  0  0  0  0  0  0
   41.1820   21.8820   37.5900 H   0  0  0  0  0  0  0  0  0  0  0  0
   40.3250   24.0690   36.8320 H   0  0  0  0  0  0  0  0  0  0  0  0
   39.1970   23.3020   38.0010 H   0  0  0  0  0  0  0  0  0  0  0  0
   37.6210   22.9070   36.3410 H   0  0  0  0  0  0  0  0  0  0  0  0
   38.2880   24.6770   35.4550 C   0  0  0  0  0  0  0  0  0  0  0  0
   38.2620   25.8260   36.2640 C   0  0  0  0  0  0  0  0  0  0  0  0
   38.4580   25.7390   37.3200 H   0  0  0  0  0  0  0  0  0  0  0  0
   37.9860   27.0270   35.6770 C   0  0  0  0  0  3  0  0  0  0  0  0
   37.7350   27.0310   34.2350 C   0  0  0  0  0  3  0  0  0  0  0  0
   37.9360   25.1820   33.8520 S   0  0  0  0  0  0  0  0  0  0  0  0
  1  6  2  0  0  0  0
  1  2  1  0  0  0  0
  2  3  2  0  0  0  0
  3  4  1  0  0  0  0
  3 15  1  0  0  0  0
  5  4  2  0  0  0  0
  5  7  1  0  0  0  0
  6  5  1  0  0  0  0
  7 12  1  0  0  0  0
  8  7  1  0  0  0  0
  8  9  1  0  0  0  0
  9 18  1  0  0  0  0
  9 10  1  0  0  0  0
 10 20  1  0  0  0  0
 10 11  1  0  0  0  0
 10 21  1  0  0  0  0
 11 23  1  0  0  0  0
 12 24  1  1  0  0  0
 12 11  1  0  0  0  0
 13  1  1  0  0  0  0
 14  2  1  0  0  0  0
 16  8  1  0  0  0  0
 17  8  1  0  0  0  0
 19  9  1  0  0  0  0
 22 11  1  0  0  0  0
 25 12  1  0  0  0  0
 25 26  2  0  0  0  0
 26 27  1  0  0  0  0
 28 26  1  0  0  0  0
 29 28  2  0  0  0  0
 30 29  1  0  0  0  0
 30 25  1  0  0  0  0
M  END
>  <minimizedAffinity>
-4.61077166

$$$$

 OpenBabel03262523233D

 30 32  0  0  1  0  0  0  0  0999 V2000
   35.5890   23.1050   31.6250 C   0  0  0  0  0  0  0  0  0  0  0  0
   36.5660   22.1820   31.2280 C   0  0  0  0  0  0  0  0  0  0  0  0
   37.7920   22.6740   30.7990 C   0  0  0  0  0  0  0  0  0  0  0  0
   37.9790   24.0210   30.7880 N   0  0  0  0  0  0  0  0  0  0  0  0
   37.0160   24.8910   31.1770 C   0  0  0  0  0  0  0  0  0  0  0  0
   35.8280   24.4330   31.5940 N   0  0  0  0  0  0  0  0  0  0  0  0
   37.2830   26.3040   31.1400 N   0  0  0  0  0  0  0  0  0  0  0  0
   36.2790   27.2070   30.6100 C   0  0  0  0  0  0  0  0  0  0  0  0
   36.8690   28.4380   29.9750 C   0  0  0  0  0  0  0  0  0  0  0  0
   38.3070   28.1350   29.6090 C   0  0  0  0  0  0  0  0  0  0  0  0
   39.0440   28.0070   30.9070 C   0  0  0  0  0  0  0  0  0  0  0  0
   38.5590   26.7860   31.6380 C   0  0  1  0  0  0  0  0  0  0  0  0
   34.6390   22.6940   31.9560 H   0  0  0  0  0  0  0  0  0  0  0  0
   36.4380   21.1120   31.2290 H   0  0  0  0  0  0  0  0  0  0  0  0
   38.6200   22.0490   30.4690 H   0  0  0  0  0  0  0  0  0  0  0  0
   35.7940   26.6420   29.7640 H   0  0  0  0  0  0  0  0  0  0  0  0
   35.4770   27.4400   31.3380 H   0  0  0  0  0  0  0  0  0  0  0  0
   36.8570   29.2610   30.6870 H   0  0  0  0  0  0  0  0  0  0  0  0
   36.3670   28.6870   28.9970 H   0  0  0  0  0  0  0  0  0  0  0  0
   38.4140   27.2600   28.9510 H   0  0  0  0  0  0  0  0  0  0  0  0
   38.6640   29.0280   29.0470 H   0  0  0  0  0  0  0  0  0  0  0  0
   38.7640   28.9180   31.5110 H   0  0  0  0  0  0  0  0  0  0  0  0
   40.1470   28.0430   30.7670 H   0  0  0  0  0  0  0  0  0  0  0  0
   39.2950   25.9820   31.4180 H   0  0  0  0  0  0  0  0  0  0  0  0
   38.5450   26.9610   33.1040 C   0  0  0  0  0  0  0  0  0  0  0  0
   37.4590   27.3800   33.8920 C   0  0  0  0  0  0  0  0  0  0  0  0
   36.5170   27.6090   33.4230 H   0  0  0  0  0  0  0  0  0  0  0  0
   37.6390   27.4860   35.2410 C   0  0  0  0  0  3  0  0  0  0  0  0
   38.9610   27.1510   35.7730 C   0  0  0  0  0  3  0  0  0  0  0  0
   39.8650   26.6890   34.1680 S   0  0  0  0  0  0  0  0  0  0  0  0
  1 13  1  0  0  0  0
  2 14  1  0  0  0  0
  2  1  2  0  0  0  0
  3  2  1  0  0  0  0
  4  3  2  0  0  0  0
  4  5  1  0  0  0  0
  5  6  2  0  0  0  0
  6  1  1  0  0  0  0
  7  5  1  0  0  0  0
  7 12  1  0  0  0  0
  8  7  1  0  0  0  0
  8 17  1  0  0  0  0
  9  8  1  0  0  0  0
  9 18  1  0  0  0  0
 10  9  1  0  0  0  0
 10 11  1  0  0  0  0
 11 22  1  0  0  0  0
 11 12  1  0  0  0  0
 12 24  1  6  0  0  0
 12 25  1  0  0  0  0
 15  3  1  0  0  0  0
 16  8  1  0  0  0  0
 19  9  1  0  0  0  0
 20 10  1  0  0  0  0
 21 10  1  0  0  0  0
 23 11  1  0  0  0  0
 25 26  2  0  0  0  0
 25 30  1  0  0  0  0
 26 28  1  0  0  0  0
 27 26  1  0  0  0  0
 28 29  2  0  0  0  0
 30 29  1  0  0  0  0
M  END
>  <minimizedAffinity>
-4.48453474

$$$$

 OpenBabel03262523233D

 30 32  0  0  1  0  0  0  0  0999 V2000
   38.4260   23.7410   30.4860 C   0  0  0  0  0  0  0  0  0  0  0  0
   37.3770   22.8640   30.7940 C   0  0  0  0  0  0  0  0  0  0  0  0
   36.6260   23.1190   31.9340 C   0  0  0  0  0  0  0  0  0  0  0  0
   36.9470   24.2050   32.6890 N   0  0  0  0  0  0  0  0  0  0  0  0
   37.9670   25.0370   32.3660 C   0  0  0  0  0  0  0  0  0  0  0  0
   38.7010   24.8040   31.2700 N   0  0  0  0  0  0  0  0  0  0  0  0
   38.2500   26.1670   33.2100 N   0  0  0  0  0  0  0  0  0  0  0  0
   39.6250   26.4730   33.5570 C   0  0  0  0  0  0  0  0  0  0  0  0
   39.7620   27.1340   34.9030 C   0  0  0  0  0  0  0  0  0  0  0  0
   38.5220   26.8140   35.7110 C   0  0  0  0  0  0  0  0  0  0  0  0
   37.3980   27.5570   35.0540 C   0  0  0  0  0  0  0  0  0  0  0  0
   37.1420   26.9720   33.6930 C   0  0  1  0  0  0  0  0  0  0  0  0
   38.9980   23.5180   29.5890 H   0  0  0  0  0  0  0  0  0  0  0  0
   37.1070   21.9990   30.2100 H   0  0  0  0  0  0  0  0  0  0  0  0
   35.7910   22.5060   32.2670 H   0  0  0  0  0  0  0  0  0  0  0  0
   40.1300   25.4710   33.6670 H   0  0  0  0  0  0  0  0  0  0  0  0
   40.1650   27.0150   32.7550 H   0  0  0  0  0  0  0  0  0  0  0  0
   39.8270   28.2130   34.7790 H   0  0  0  0  0  0  0  0  0  0  0  0
   40.6150   26.7000   35.4980 H   0  0  0  0  0  0  0  0  0  0  0  0
   38.3360   25.7350   35.8170 H   0  0  0  0  0  0  0  0  0  0  0  0
   38.7160   27.2260   36.7280 H   0  0  0  0  0  0  0  0  0  0  0  0
   37.7650   28.6160   34.9230 H   0  0  0  0  0  0  0  0  0  0  0  0
   36.4960   27.6100   35.7020 H   0  0  0  0  0  0  0  0  0  0  0  0
   36.2870   26.2720   33.8140 H   0  0  0  0  0  0  0  0  0  0  0  0
   36.7270   27.9830   32.7010 C   0  0  0  0  0  0  0  0  0  0  0  0
   37.3810   28.3040   31.4990 C   0  0  0  0  0  0  0  0  0  0  0  0
   38.2840   27.7820   31.2280 H   0  0  0  0  0  0  0  0  0  0  0  0
   36.8440   29.2760   30.7060 C   0  0  0  0  0  3  0  0  0  0  0  0
   35.6150   29.9220   31.1700 C   0  0  0  0  0  3  0  0  0  0  0  0
   35.3440   28.9970   32.8070 S   0  0  0  0  0  0  0  0  0  0  0  0
  1  2  2  0  0  0  0
  1  6  1  0  0  0  0
  2  3  1  0  0  0  0
  3 15  1  0  0  0  0
  3  4  2  0  0  0  0
  5  4  1  0  0  0  0
  5  7  1  0  0  0  0
  6  5  2  0  0  0  0
  7  8  1  0  0  0  0
  7 12  1  0  0  0  0
  8 16  1  0  0  0  0
  8  9  1  0  0  0  0
  9 19  1  0  0  0  0
  9 10  1  0  0  0  0
 10 20  1  0  0  0  0
 10 21  1  0  0  0  0
 11 23  1  0  0  0  0
 11 10  1  0  0  0  0
 12 24  1  1  0  0  0
 12 11  1  0  0  0  0
 13  1  1  0  0  0  0
 14  2  1  0  0  0  0
 17  8  1  0  0  0  0
 18  9  1  0  0  0  0
 22 11  1  0  0  0  0
 25 30  1  0  0  0  0
 25 12  1  0  0  0  0
 26 25  2  0  0  0  0
 27 26  1  0  0  0  0
 28 29  2  0  0  0  0
 28 26  1  0  0  0  0
 29 30  1  0  0  0  0
M  END
>  <minimizedAffinity>
-4.41611671

$$$$

 OpenBabel03262523233D

 30 32  0  0  1  0  0  0  0  0999 V2000
   35.5380   21.8720   31.3880 C   0  0  0  0  0  0  0  0  0  0  0  0
   36.5140   21.0480   30.8120 C   0  0  0  0  0  0  0  0  0  0  0  0
   37.8330   21.4830   30.8400 C   0  0  0  0  0  0  0  0  0  0  0  0
   38.1070   22.6810   31.4250 N   0  0  0  0  0  0  0  0  0  0  0  0
   37.1410   23.4560   31.9740 C   0  0  0  0  0  0  0  0  0  0  0  0
   35.8640   23.0510   31.9560 N   0  0  0  0  0  0  0  0  0  0  0  0
   37.5020   24.7120   32.5770 N   0  0  0  0  0  0  0  0  0  0  0  0
   36.6950   25.8890   32.3120 C   0  0  0  0  0  0  0  0  0  0  0  0
   37.4860   27.1690   32.3590 C   0  0  0  0  0  0  0  0  0  0  0  0
   38.9460   26.8270   32.1470 C   0  0  0  0  0  0  0  0  0  0  0  0
   39.3790   26.0870   33.3760 C   0  0  0  0  0  0  0  0  0  0  0  0
   38.6710   24.7630   33.4370 C   0  0  1  0  0  0  0  0  0  0  0  0
   34.5140   21.5080   31.3520 H   0  0  0  0  0  0  0  0  0  0  0  0
   36.3190   20.0970   30.3440 H   0  0  0  0  0  0  0  0  0  0  0  0
   38.6710   20.9250   30.4240 H   0  0  0  0  0  0  0  0  0  0  0  0
   36.3670   25.7840   31.2390 H   0  0  0  0  0  0  0  0  0  0  0  0
   35.7730   25.9300   32.9250 H   0  0  0  0  0  0  0  0  0  0  0  0
   37.3770   27.6340   33.3370 H   0  0  0  0  0  0  0  0  0  0  0  0
   37.2230   27.8560   31.5050 H   0  0  0  0  0  0  0  0  0  0  0  0
   39.1340   26.2800   31.2120 H   0  0  0  0  0  0  0  0  0  0  0  0
   39.4730   27.8060   32.0780 H   0  0  0  0  0  0  0  0  0  0  0  0
   39.0370   26.7140   34.2490 H   0  0  0  0  0  0  0  0  0  0  0  0
   40.4860   26.0130   33.4510 H   0  0  0  0  0  0  0  0  0  0  0  0
   39.3820   24.0130   33.0280 H   0  0  0  0  0  0  0  0  0  0  0  0
   38.3540   24.3420   34.8160 C   0  0  0  0  0  0  0  0  0  0  0  0
   38.1220   25.1790   35.9210 C   0  0  0  0  0  0  0  0  0  0  0  0
   38.1660   26.2490   35.7980 H   0  0  0  0  0  0  0  0  0  0  0  0
   37.8450   24.6020   37.1260 C   0  0  0  0  0  3  0  0  0  0  0  0
   37.8100   23.1400   37.1820 C   0  0  0  0  0  3  0  0  0  0  0  0
   38.2060   22.7240   35.3710 S   0  0  0  0  0  0  0  0  0  0  0  0
  1  6  1  0  0  0  0
  2  3  1  0  0  0  0
  2  1  2  0  0  0  0
  3  4  2  0  0  0  0
  4  5  1  0  0  0  0
  5  7  1  0  0  0  0
  6  5  2  0  0  0  0
  7 12  1  0  0  0  0
  8  9  1  0  0  0  0
  8  7  1  0  0  0  0
  8 17  1  0  0  0  0
  9 18  1  0  0  0  0
 10  9  1  0  0  0  0
 10 11  1  0  0  0  0
 11 12  1  0  0  0  0
 11 23  1  0  0  0  0
 11 22  1  0  0  0  0
 12 24  1  6  0  0  0
 12 25  1  0  0  0  0
 13  1  1  0  0  0  0
 14  2  1  0  0  0  0
 15  3  1  0  0  0  0
 16  8  1  0  0  0  0
 19  9  1  0  0  0  0
 20 10  1  0  0  0  0
 21 10  1  0  0  0  0
 25 30  1  0  0  0  0
 25 26  2  0  0  0  0
 26 28  1  0  0  0  0
 27 26  1  0  0  0  0
 28 29  2  0  0  0  0
 30 29  1  0  0  0  0
M  END
>  <minimizedAffinity>
-4.38819075

$$$$

 OpenBabel03262523233D

 30 32  0  0  1  0  0  0  0  0999 V2000
   37.7500   28.7020   28.9340 C   0  0  0  0  0  0  0  0  0  0  0  0
   39.1310   28.5780   28.7290 C   0  0  0  0  0  0  0  0  0  0  0  0
   39.9000   28.0620   29.7630 C   0  0  0  0  0  0  0  0  0  0  0  0
   39.2740   27.7040   30.9180 N   0  0  0  0  0  0  0  0  0  0  0  0
   37.9360   27.8360   31.0880 C   0  0  0  0  0  0  0  0  0  0  0  0
   37.1800   28.3320   30.0990 N   0  0  0  0  0  0  0  0  0  0  0  0
   37.3410   27.4370   32.3350 N   0  0  0  0  0  0  0  0  0  0  0  0
   36.3490   28.2930   32.9590 C   0  0  0  0  0  0  0  0  0  0  0  0
   36.3390   28.1880   34.4610 C   0  0  0  0  0  0  0  0  0  0  0  0
   37.6810   27.6410   34.9020 C   0  0  0  0  0  0  0  0  0  0  0  0
   37.7180   26.2170   34.4390 C   0  0  0  0  0  0  0  0  0  0  0  0
   37.7550   26.1810   32.9360 C   0  0  1  0  0  0  0  0  0  0  0  0
   37.1710   29.1100   28.1090 H   0  0  0  0  0  0  0  0  0  0  0  0
   39.6460   28.8550   27.8230 H   0  0  0  0  0  0  0  0  0  0  0  0
   40.9790   27.9210   29.7130 H   0  0  0  0  0  0  0  0  0  0  0  0
   36.6890   29.3450   32.7390 H   0  0  0  0  0  0  0  0  0  0  0  0
   35.3400   28.1850   32.5140 H   0  0  0  0  0  0  0  0  0  0  0  0
   35.5610   27.4960   34.7770 H   0  0  0  0  0  0  0  0  0  0  0  0
   36.2640   29.2000   34.9520 H   0  0  0  0  0  0  0  0  0  0  0  0
   38.5330   28.2420   34.5530 H   0  0  0  0  0  0  0  0  0  0  0  0
   37.6680   27.6860   36.0150 H   0  0  0  0  0  0  0  0  0  0  0  0
   36.7470   25.7560   34.7820 H   0  0  0  0  0  0  0  0  0  0  0  0
   38.5340   25.6390   34.9250 H   0  0  0  0  0  0  0  0  0  0  0  0
   38.8220   26.0480   32.6560 H   0  0  0  0  0  0  0  0  0  0  0  0
   37.0180   25.0340   32.3690 C   0  0  0  0  0  0  0  0  0  0  0  0
   35.8460   25.0840   31.5950 C   0  0  0  0  0  0  0  0  0  0  0  0
   35.4010   26.0380   31.3620 H   0  0  0  0  0  0  0  0  0  0  0  0
   35.3050   23.9100   31.1590 C   0  0  0  0  0  3  0  0  0  0  0  0
   35.9910   22.6720   31.5330 C   0  0  0  0  0  3  0  0  0  0  0  0
   37.4390   23.3780   32.5390 S   0  0  0  0  0  0  0  0  0  0  0  0
  1  6  1  0  0  0  0
  2  1  2  0  0  0  0
  2  3  1  0  0  0  0
  3  4  2  0  0  0  0
  4  5  1  0  0  0  0
  5  7  1  0  0  0  0
  6  5  2  0  0  0  0
  7 12  1  0  0  0  0
  7  8  1  0  0  0  0
  8  9  1  0  0  0  0
  9 18  1  0  0  0  0
  9 10  1  0  0  0  0
  9 19  1  0  0  0  0
 10 21  1  0  0  0  0
 11 22  1  0  0  0  0
 11 10  1  0  0  0  0
 11 23  1  0  0  0  0
 12 24  1  6  0  0  0
 12 11  1  0  0  0  0
 13  1  1  0  0  0  0
 14  2  1  0  0  0  0
 15  3  1  0  0  0  0
 16  8  1  0  0  0  0
 17  8  1  0  0  0  0
 20 10  1  0  0  0  0
 25 30  1  0  0  0  0
 25 12  1  0  0  0  0
 26 25  2  0  0  0  0
 27 26  1  0  0  0  0
 28 29  2  0  0  0  0
 28 26  1  0  0  0  0
 29 30  1  0  0  0  0
M  END
>  <minimizedAffinity>
-4.37850666

$$$$
