
 OpenBabel03272501393D

 42 46  0  0  1  0  0  0  0  0999 V2000
   39.0230   32.1250   47.4490 C   0  0  1  0  0  0  0  0  0  0  0  0
   40.0090   31.7930   47.9760 H   0  0  0  0  0  0  0  0  0  0  0  0
   37.7050   30.8620   50.6620 C   0  0  0  0  0  0  0  0  0  0  0  0
   38.4410   31.5160   49.6940 C   0  0  0  0  0  0  0  0  0  0  0  0
   38.0970   31.4790   48.3360 C   0  0  0  0  0  0  0  0  0  0  0  0
   37.0320   30.7970   48.0070 N   0  0  0  0  0  0  0  0  0  0  0  0
   36.3090   30.1510   48.9810 C   0  0  0  0  0  0  0  0  0  0  0  0
   36.6340   30.1820   50.2600 N   0  0  0  0  0  0  0  0  0  0  0  0
   37.9700   30.8890   51.7070 H   0  0  0  0  0  0  0  0  0  0  0  0
   39.3130   32.0650   50.0610 H   0  0  0  0  0  0  0  0  0  0  0  0
   35.1110   29.3890   48.6300 C   0  0  0  0  0  0  0  0  0  0  0  0
   34.5760   28.2370   49.1830 C   0  0  0  0  0  0  0  0  0  0  0  0
   33.4480   27.7240   48.6640 C   0  0  0  0  0  0  0  0  0  0  0  0
   32.8800   28.3900   47.5890 C   0  0  0  0  0  0  0  0  0  0  0  0
   34.0100   29.8100   47.3130 S   0  0  0  0  0  0  0  0  0  0  0  0
   35.1230   27.8210   50.0190 H   0  0  0  0  0  0  0  0  0  0  0  0
   32.9760   26.8290   49.0430 H   0  0  0  0  0  0  0  0  0  0  0  0
   31.6970   28.1670   46.7660 C   0  0  0  0  0  0  0  0  0  0  0  0
   30.9810   27.1330   46.4790 C   0  0  0  0  0  0  0  0  0  0  0  0
   31.2670   26.1850   46.9130 H   0  0  0  0  0  0  0  0  0  0  0  0
   29.9120   27.3200   45.6420 C   0  0  0  0  0  0  0  0  0  0  0  0
   29.6410   28.5710   45.1460 C   0  0  0  0  0  0  0  0  0  0  0  0
   31.0400   29.5720   45.9470 S   0  0  0  0  0  0  0  0  0  0  0  0
   39.1150   31.5760   46.0430 C   0  0  2  0  0  0  0  0  0  0  0  0
   40.5810   31.2130   45.8070 C   0  0  0  0  0  0  0  0  0  0  0  0
   39.8770   32.2670   45.0330 C   0  0  1  0  0  0  0  0  0  0  0  0
   38.3650   30.7750   45.8590 H   0  0  0  0  0  0  0  0  0  0  0  0
   41.4040   31.5360   46.4340 H   0  0  0  0  0  0  0  0  0  0  0  0
   40.7390   30.2170   45.3460 H   0  0  0  0  0  0  0  0  0  0  0  0
   40.0610   33.3410   45.2470 H   0  0  0  0  0  0  0  0  0  0  0  0
   39.8190   32.0060   43.5910 C   0  0  0  0  0  0  0  0  0  0  0  0
   39.1220   32.8900   42.8070 C   0  0  0  0  0  0  0  0  0  0  0  0
   39.1060   32.6360   41.4580 C   0  0  0  0  0  0  0  0  0  0  0  0
   39.7430   31.5630   40.8800 C   0  0  0  0  0  0  0  0  0  0  0  0
   40.4410   30.6880   41.7050 C   0  0  0  0  0  0  0  0  0  0  0  0
   40.4640   30.9260   43.0280 N   0  0  0  0  0  0  0  0  0  0  0  0
   38.5920   33.7560   43.1590 H   0  0  0  0  0  0  0  0  0  0  0  0
   38.5900   33.2590   40.7270 H   0  0  0  0  0  0  0  0  0  0  0  0
   39.7770   31.3000   39.8420 H   0  0  0  0  0  0  0  0  0  0  0  0
   40.9670   29.8230   41.3310 H   0  0  0  0  0  0  0  0  0  0  0  0
   39.2790   33.4040   47.5300 O   0  0  0  0  0  0  0  0  0  0  0  0
   39.6380   33.8280   48.3250 H   0  0  0  0  0  0  0  0  0  0  0  0
  1 41  1  0  0  0  0
  1  2  1  1  0  0  0
  1  5  1  0  0  0  0
  3  9  1  0  0  0  0
  4 10  1  0  0  0  0
  4  3  2  0  0  0  0
  5  4  1  0  0  0  0
  6  5  2  0  0  0  0
  6  7  1  0  0  0  0
  7  8  2  0  0  0  0
  8  3  1  0  0  0  0
 11  7  1  0  0  0  0
 11 12  2  0  0  0  0
 12 16  1  0  0  0  0
 13 17  1  0  0  0  0
 13 12  1  0  0  0  0
 14 13  2  0  0  0  0
 15 14  1  0  0  0  0
 15 11  1  0  0  0  0
 18 14  1  0  0  0  0
 19 18  2  0  0  0  0
 19 20  1  0  0  0  0
 21 19  1  0  0  0  0
 22 21  2  0  0  0  0
 22 23  1  0  0  0  0
 23 18  1  0  0  0  0
 24 27  1  6  0  0  0
 24  1  1  0  0  0  0
 25 24  1  0  0  0  0
 25 28  1  0  0  0  0
 26 30  1  1  0  0  0
 26 25  1  0  0  0  0
 26 24  1  0  0  0  0
 29 25  1  0  0  0  0
 31 26  1  0  0  0  0
 32 37  1  0  0  0  0
 32 31  2  0  0  0  0
 33 32  1  0  0  0  0
 34 33  2  0  0  0  0
 34 35  1  0  0  0  0
 35 36  2  0  0  0  0
 36 31  1  0  0  0  0
 38 33  1  0  0  0  0
 39 34  1  0  0  0  0
 40 35  1  0  0  0  0
 41 42  1  0  0  0  0
M  END
>  <minimizedAffinity>
-6.59133148

>  <minimizedRMSD>
0.310849339

$$$$
