
 OpenBabel03272507583D

 29 31  0  0  0  0  0  0  0  0999 V2000
   36.9990   31.3110   48.6100 C   0  0  0  0  0  0  0  0  0  0  0  0
   37.1680   32.2660   49.6060 C   0  0  0  0  0  0  0  0  0  0  0  0
   38.1050   33.2670   49.4360 C   0  0  0  0  0  0  0  0  0  0  0  0
   38.8710   33.3370   48.3060 C   0  0  0  0  0  0  0  0  0  0  0  0
   38.6810   32.3810   47.3420 C   0  0  0  0  0  0  0  0  0  0  0  0
   37.7660   31.3920   47.4940 N   0  0  0  0  0  0  0  0  0  0  0  0
   36.6470   32.3540   50.5520 H   0  0  0  0  0  0  0  0  0  0  0  0
   38.3030   34.0470   50.1530 H   0  0  0  0  0  0  0  0  0  0  0  0
   39.6330   34.0320   48.0090 H   0  0  0  0  0  0  0  0  0  0  0  0
   35.1510   28.5230   50.2940 C   0  0  0  0  0  0  0  0  0  0  0  0
   36.1690   29.4790   50.0030 C   0  0  0  0  0  0  0  0  0  0  0  0
   35.9840   30.3290   48.9300 C   0  0  0  0  0  0  0  0  0  0  0  0
   34.8390   30.2130   48.2020 N   0  0  0  0  0  0  0  0  0  0  0  0
   33.8890   29.2850   48.5140 C   0  0  0  0  0  0  0  0  0  0  0  0
   34.0360   28.4530   49.5400 N   0  0  0  0  0  0  0  0  0  0  0  0
   32.7830   29.3620   47.6010 N   0  0  0  0  0  0  0  0  0  0  0  0
   35.2510   27.8390   51.1230 H   0  0  0  0  0  0  0  0  0  0  0  0
   32.9430   28.9290   46.6520 H   0  0  0  0  0  0  0  0  0  0  0  0
   32.0530   29.8600   48.1400 H   0  0  0  0  0  0  0  0  0  0  0  0
   37.3810   29.5090   50.8740 C   0  0  0  0  0  0  0  0  0  0  0  0
   38.5190   29.8050   50.1310 F   0  0  0  0  0  0  0  0  0  0  0  0
   37.2040   30.4780   51.8200 F   0  0  0  0  0  0  0  0  0  0  0  0
   37.6110   28.3120   51.5190 F   0  0  0  0  0  0  0  0  0  0  0  0
   39.3430   32.1800   46.0210 C   0  0  0  0  0  0  0  0  0  0  0  0
   39.6380   33.2550   45.3070 C   0  0  0  0  0  0  0  0  0  0  0  0
   39.4980   34.3360   45.4780 H   0  0  0  0  0  0  0  0  0  0  0  0
   40.2330   33.3100   44.0960 C   0  0  0  0  0  3  0  0  0  0  0  0
   40.5220   31.9430   43.6550 C   0  0  0  0  0  3  0  0  0  0  0  0
   39.8700   30.8410   45.0930 S   0  0  0  0  0  0  0  0  0  0  0  0
  1 12  1  0  0  0  0
  1  2  1  0  0  0  0
  2  7  1  0  0  0  0
  3  2  2  0  0  0  0
  3  8  1  0  0  0  0
  4  3  1  0  0  0  0
  5  6  1  0  0  0  0
  5  4  2  0  0  0  0
  6  1  2  0  0  0  0
  9  4  1  0  0  0  0
 10 17  1  0  0  0  0
 11 10  1  0  0  0  0
 11 20  1  0  0  0  0
 12 11  2  0  0  0  0
 13 14  2  0  0  0  0
 13 12  1  0  0  0  0
 14 15  1  0  0  0  0
 15 10  2  0  0  0  0
 16 19  1  0  0  0  0
 16 14  1  0  0  0  0
 18 16  1  0  0  0  0
 20 23  1  0  0  0  0
 20 22  1  0  0  0  0
 21 20  1  0  0  0  0
 24  5  1  0  0  0  0
 25 26  1  0  0  0  0
 25 24  2  0  0  0  0
 27 25  1  0  0  0  0
 28 27  2  0  0  0  0
 28 29  1  0  0  0  0
 29 24  1  0  0  0  0
M  END
>  <minimizedAffinity>
-6.8773737

>  <minimizedRMSD>
0.749307096

$$$$
