
 OpenBabel03272506563D

 17 18  0  0  0  0  0  0  0  0999 V2000
   40.1840   23.3790   36.0020 C   0  0  0  0  0  0  0  0  0  0  0  0
   39.6970   22.8710   37.2070 C   0  0  0  0  0  0  0  0  0  0  0  0
   38.4830   23.4100   37.6580 C   0  0  0  0  0  0  0  0  0  0  0  0
   37.8400   24.3750   36.9300 N   0  0  0  0  0  0  0  0  0  0  0  0
   38.3630   24.8180   35.7790 C   0  0  0  0  0  0  0  0  0  0  0  0
   39.5310   24.3430   35.2860 N   0  0  0  0  0  0  0  0  0  0  0  0
   41.1120   22.9740   35.6490 H   0  0  0  0  0  0  0  0  0  0  0  0
   38.0830   23.0410   38.5800 H   0  0  0  0  0  0  0  0  0  0  0  0
   37.7730   25.8340   34.9270 C   0  0  0  0  0  0  0  0  0  0  0  0
   37.3780   27.0920   35.1970 C   0  0  0  0  0  0  0  0  0  0  0  0
   37.5050   27.4570   36.2290 H   0  0  0  0  0  0  0  0  0  0  0  0
   36.8460   27.8690   34.2230 C   0  0  0  0  0  3  0  0  0  0  0  0
   36.7440   27.2930   32.9750 C   0  0  0  0  0  3  0  0  0  0  0  0
   37.4040   25.6400   33.1840 S   0  0  0  0  0  0  0  0  0  0  0  0
   40.4090   21.8720   37.9150 N   0  0  0  0  0  0  0  0  0  0  0  0
   40.9420   21.1460   37.3980 H   0  0  0  0  0  0  0  0  0  0  0  0
   40.3460   21.9350   38.9560 H   0  0  0  0  0  0  0  0  0  0  0  0
  1  2  1  0  0  0  0
  2  3  2  0  0  0  0
  2 15  1  0  0  0  0
  3  8  1  0  0  0  0
  4  3  1  0  0  0  0
  5  4  2  0  0  0  0
  6  5  1  0  0  0  0
  6  1  2  0  0  0  0
  7  1  1  0  0  0  0
  9 10  2  0  0  0  0
  9  5  1  0  0  0  0
 10 11  1  0  0  0  0
 12 10  1  0  0  0  0
 13 14  1  0  0  0  0
 13 12  2  0  0  0  0
 14  9  1  0  0  0  0
 15 17  1  0  0  0  0
 16 15  1  0  0  0  0
M  END
>  <minimizedAffinity>
-4.22165442

$$$$

 OpenBabel03272506563D

 17 18  0  0  0  0  0  0  0  0999 V2000
   38.1440   24.6030   37.4600 C   0  0  0  0  0  0  0  0  0  0  0  0
   38.6720   23.3110   37.4560 C   0  0  0  0  0  0  0  0  0  0  0  0
   38.8940   22.7390   36.1940 C   0  0  0  0  0  0  0  0  0  0  0  0
   38.6000   23.4390   35.0550 N   0  0  0  0  0  0  0  0  0  0  0  0
   38.0950   24.6780   35.1300 C   0  0  0  0  0  0  0  0  0  0  0  0
   37.8550   25.2900   36.3140 N   0  0  0  0  0  0  0  0  0  0  0  0
   37.9700   25.0490   38.4200 H   0  0  0  0  0  0  0  0  0  0  0  0
   39.2980   21.7480   36.1580 H   0  0  0  0  0  0  0  0  0  0  0  0
   37.7460   25.5110   33.9940 C   0  0  0  0  0  0  0  0  0  0  0  0
   37.4340   26.8170   33.9200 C   0  0  0  0  0  0  0  0  0  0  0  0
   37.4310   27.3960   34.8590 H   0  0  0  0  0  0  0  0  0  0  0  0
   37.1390   27.3870   32.7270 C   0  0  0  0  0  3  0  0  0  0  0  0
   37.1800   26.5540   31.6290 C   0  0  0  0  0  3  0  0  0  0  0  0
   37.6400   24.9540   32.2940 S   0  0  0  0  0  0  0  0  0  0  0  0
   38.9550   22.6380   38.6690 N   0  0  0  0  0  0  0  0  0  0  0  0
   39.2920   23.1710   39.4950 H   0  0  0  0  0  0  0  0  0  0  0  0
   38.8000   21.6050   38.6510 H   0  0  0  0  0  0  0  0  0  0  0  0
  1  7  1  0  0  0  0
  2  1  1  0  0  0  0
  2 15  1  0  0  0  0
  3  2  2  0  0  0  0
  4  5  2  0  0  0  0
  4  3  1  0  0  0  0
  5  6  1  0  0  0  0
  6  1  2  0  0  0  0
  8  3  1  0  0  0  0
  9  5  1  0  0  0  0
 10  9  2  0  0  0  0
 10 11  1  0  0  0  0
 12 10  1  0  0  0  0
 13 14  1  0  0  0  0
 13 12  2  0  0  0  0
 14  9  1  0  0  0  0
 15 16  1  0  0  0  0
 17 15  1  0  0  0  0
M  END
>  <minimizedAffinity>
-3.78785682

$$$$

 OpenBabel03272506563D

 17 18  0  0  0  0  0  0  0  0999 V2000
   37.3350   27.5650   34.8890 C   0  0  0  0  0  0  0  0  0  0  0  0
   36.9950   27.2800   33.5660 C   0  0  0  0  0  0  0  0  0  0  0  0
   37.2050   25.9580   33.1450 C   0  0  0  0  0  0  0  0  0  0  0  0
   37.7140   25.0280   34.0120 N   0  0  0  0  0  0  0  0  0  0  0  0
   38.0190   25.3690   35.2710 C   0  0  0  0  0  0  0  0  0  0  0  0
   37.8420   26.6260   35.7430 N   0  0  0  0  0  0  0  0  0  0  0  0
   37.1790   28.5730   35.2190 H   0  0  0  0  0  0  0  0  0  0  0  0
   36.9530   25.7070   32.1350 H   0  0  0  0  0  0  0  0  0  0  0  0
   38.5640   24.4710   36.2740 C   0  0  0  0  0  0  0  0  0  0  0  0
   38.1590   24.1990   37.5280 C   0  0  0  0  0  0  0  0  0  0  0  0
   37.2650   24.7240   37.9020 H   0  0  0  0  0  0  0  0  0  0  0  0
   38.8380   23.3080   38.2910 C   0  0  0  0  0  3  0  0  0  0  0  0
   39.9380   22.7200   37.7040 C   0  0  0  0  0  3  0  0  0  0  0  0
   40.0100   23.4350   36.0620 S   0  0  0  0  0  0  0  0  0  0  0  0
   36.4710   28.2860   32.7170 N   0  0  0  0  0  0  0  0  0  0  0  0
   35.8550   29.0260   33.1050 H   0  0  0  0  0  0  0  0  0  0  0  0
   36.7530   28.2110   31.7140 H   0  0  0  0  0  0  0  0  0  0  0  0
  1  7  1  0  0  0  0
  1  6  1  0  0  0  0
  2  1  2  0  0  0  0
  3  2  1  0  0  0  0
  3  4  2  0  0  0  0
  4  5  1  0  0  0  0
  5  6  2  0  0  0  0
  5  9  1  0  0  0  0
  8  3  1  0  0  0  0
  9 10  2  0  0  0  0
 10 11  1  0  0  0  0
 10 12  1  0  0  0  0
 13 12  2  0  0  0  0
 14  9  1  0  0  0  0
 14 13  1  0  0  0  0
 15 16  1  0  0  0  0
 15  2  1  0  0  0  0
 17 15  1  0  0  0  0
M  END
>  <minimizedAffinity>
-3.77590251

$$$$

 OpenBabel03272506563D

 17 18  0  0  0  0  0  0  0  0999 V2000
   35.8480   29.8920   31.0820 C   0  0  0  0  0  0  0  0  0  0  0  0
   36.2660   28.5640   30.9900 C   0  0  0  0  0  0  0  0  0  0  0  0
   36.3160   27.8470   32.1950 C   0  0  0  0  0  0  0  0  0  0  0  0
   35.9650   28.4490   33.3730 N   0  0  0  0  0  0  0  0  0  0  0  0
   35.5710   29.7290   33.3910 C   0  0  0  0  0  0  0  0  0  0  0  0
   35.5000   30.4790   32.2660 N   0  0  0  0  0  0  0  0  0  0  0  0
   35.8070   30.4480   30.1660 H   0  0  0  0  0  0  0  0  0  0  0  0
   36.6330   26.8250   32.1570 H   0  0  0  0  0  0  0  0  0  0  0  0
   35.1780   30.4690   34.5770 C   0  0  0  0  0  0  0  0  0  0  0  0
   35.9040   31.1980   35.4430 C   0  0  0  0  0  0  0  0  0  0  0  0
   36.9890   31.2760   35.2620 H   0  0  0  0  0  0  0  0  0  0  0  0
   35.3080   31.8090   36.4960 C   0  0  0  0  0  3  0  0  0  0  0  0
   33.9450   31.6330   36.6080 C   0  0  0  0  0  3  0  0  0  0  0  0
   33.5070   30.5940   35.2140 S   0  0  0  0  0  0  0  0  0  0  0  0
   36.6170   27.9970   29.7400 N   0  0  0  0  0  0  0  0  0  0  0  0
   36.1160   28.2860   28.8780 H   0  0  0  0  0  0  0  0  0  0  0  0
   37.3900   27.2950   29.7710 H   0  0  0  0  0  0  0  0  0  0  0  0
  1  6  1  0  0  0  0
  2  1  2  0  0  0  0
  2  3  1  0  0  0  0
  3  4  2  0  0  0  0
  4  5  1  0  0  0  0
  5  9  1  0  0  0  0
  6  5  2  0  0  0  0
  7  1  1  0  0  0  0
  8  3  1  0  0  0  0
  9 14  1  0  0  0  0
  9 10  2  0  0  0  0
 10 12  1  0  0  0  0
 11 10  1  0  0  0  0
 12 13  2  0  0  0  0
 14 13  1  0  0  0  0
 15 17  1  0  0  0  0
 15  2  1  0  0  0  0
 16 15  1  0  0  0  0
M  END
>  <minimizedAffinity>
-3.76664138

$$$$

 OpenBabel03272506563D

 17 18  0  0  0  0  0  0  0  0999 V2000
   39.5570   22.9910   37.1140 C   0  0  0  0  0  0  0  0  0  0  0  0
   38.5940   23.3550   38.0550 C   0  0  0  0  0  0  0  0  0  0  0  0
   37.8890   24.5390   37.7920 C   0  0  0  0  0  0  0  0  0  0  0  0
   38.1570   25.2680   36.6650 N   0  0  0  0  0  0  0  0  0  0  0  0
   39.0960   24.8610   35.8000 C   0  0  0  0  0  0  0  0  0  0  0  0
   39.8140   23.7300   35.9930 N   0  0  0  0  0  0  0  0  0  0  0  0
   40.1020   22.0880   37.3070 H   0  0  0  0  0  0  0  0  0  0  0  0
   37.1420   24.8450   38.4960 H   0  0  0  0  0  0  0  0  0  0  0  0
   39.4640   25.5510   34.5770 C   0  0  0  0  0  0  0  0  0  0  0  0
   40.1220   26.7080   34.3810 C   0  0  0  0  0  0  0  0  0  0  0  0
   40.4600   27.2630   35.2720 H   0  0  0  0  0  0  0  0  0  0  0  0
   40.3560   27.1610   33.1250 C   0  0  0  0  0  3  0  0  0  0  0  0
   39.8830   26.3730   32.0980 C   0  0  0  0  0  3  0  0  0  0  0  0
   39.1030   24.9820   32.9170 S   0  0  0  0  0  0  0  0  0  0  0  0
   38.3620   22.5580   39.2040 N   0  0  0  0  0  0  0  0  0  0  0  0
   38.4510   21.5250   39.1480 H   0  0  0  0  0  0  0  0  0  0  0  0
   38.1060   23.0870   40.0670 H   0  0  0  0  0  0  0  0  0  0  0  0
  1  7  1  0  0  0  0
  1  2  1  0  0  0  0
  2 15  1  0  0  0  0
  3  2  2  0  0  0  0
  3  8  1  0  0  0  0
  4  3  1  0  0  0  0
  5  6  1  0  0  0  0
  5  4  2  0  0  0  0
  6  1  2  0  0  0  0
  9  5  1  0  0  0  0
 10  9  2  0  0  0  0
 10 11  1  0  0  0  0
 12 10  1  0  0  0  0
 13 14  1  0  0  0  0
 13 12  2  0  0  0  0
 14  9  1  0  0  0  0
 15 17  1  0  0  0  0
 16 15  1  0  0  0  0
M  END
>  <minimizedAffinity>
-3.72020221

$$$$

 OpenBabel03272506563D

 17 18  0  0  0  0  0  0  0  0999 V2000
   37.1730   25.9880   33.0150 C   0  0  0  0  0  0  0  0  0  0  0  0
   36.7910   27.3030   33.2850 C   0  0  0  0  0  0  0  0  0  0  0  0
   36.9700   27.7380   34.6070 C   0  0  0  0  0  0  0  0  0  0  0  0
   37.4930   26.8930   35.5490 N   0  0  0  0  0  0  0  0  0  0  0  0
   37.8400   25.6420   35.2220 C   0  0  0  0  0  0  0  0  0  0  0  0
   37.6940   25.1570   33.9660 N   0  0  0  0  0  0  0  0  0  0  0  0
   37.0390   25.6460   32.0070 H   0  0  0  0  0  0  0  0  0  0  0  0
   36.6860   28.7420   34.8470 H   0  0  0  0  0  0  0  0  0  0  0  0
   38.4010   24.6620   36.1340 C   0  0  0  0  0  0  0  0  0  0  0  0
   38.0600   24.3300   37.3920 C   0  0  0  0  0  0  0  0  0  0  0  0
   37.2140   24.8680   37.8510 H   0  0  0  0  0  0  0  0  0  0  0  0
   38.7400   23.3650   38.0570 C   0  0  0  0  0  3  0  0  0  0  0  0
   39.7760   22.7690   37.3700 C   0  0  0  0  0  3  0  0  0  0  0  0
   39.7840   23.5810   35.7710 S   0  0  0  0  0  0  0  0  0  0  0  0
   36.2560   28.1290   32.2670 N   0  0  0  0  0  0  0  0  0  0  0  0
   36.5940   28.0370   31.2900 H   0  0  0  0  0  0  0  0  0  0  0  0
   35.5240   28.8040   32.5820 H   0  0  0  0  0  0  0  0  0  0  0  0
  1  2  2  0  0  0  0
  1  6  1  0  0  0  0
  2  3  1  0  0  0  0
  3  8  1  0  0  0  0
  3  4  2  0  0  0  0
  5  4  1  0  0  0  0
  5  9  1  0  0  0  0
  6  5  2  0  0  0  0
  7  1  1  0  0  0  0
  9 10  2  0  0  0  0
 10 11  1  0  0  0  0
 10 12  1  0  0  0  0
 13 12  2  0  0  0  0
 14  9  1  0  0  0  0
 14 13  1  0  0  0  0
 15 17  1  0  0  0  0
 15  2  1  0  0  0  0
 16 15  1  0  0  0  0
M  END
>  <minimizedAffinity>
-3.661587

$$$$

 OpenBabel03272506563D

 17 18  0  0  0  0  0  0  0  0999 V2000
   39.3430   22.2380   36.0560 C   0  0  0  0  0  0  0  0  0  0  0  0
   39.0470   23.0770   37.1300 C   0  0  0  0  0  0  0  0  0  0  0  0
   38.3500   24.2540   36.8210 C   0  0  0  0  0  0  0  0  0  0  0  0
   37.9960   24.5290   35.5270 N   0  0  0  0  0  0  0  0  0  0  0  0
   38.3110   23.6790   34.5410 C   0  0  0  0  0  0  0  0  0  0  0  0
   38.9830   22.5260   34.7690 N   0  0  0  0  0  0  0  0  0  0  0  0
   39.8770   21.3350   36.2820 H   0  0  0  0  0  0  0  0  0  0  0  0
   38.1080   24.9190   37.6240 H   0  0  0  0  0  0  0  0  0  0  0  0
   37.9890   23.8660   33.1380 C   0  0  0  0  0  0  0  0  0  0  0  0
   37.1390   24.7150   32.5330 C   0  0  0  0  0  0  0  0  0  0  0  0
   36.5660   25.4080   33.1730 H   0  0  0  0  0  0  0  0  0  0  0  0
   37.0040   24.7090   31.1850 C   0  0  0  0  0  3  0  0  0  0  0  0
   37.7780   23.7960   30.5020 C   0  0  0  0  0  3  0  0  0  0  0  0
   38.7020   22.9420   31.7790 S   0  0  0  0  0  0  0  0  0  0  0  0
   39.4410   22.7370   38.4480 N   0  0  0  0  0  0  0  0  0  0  0  0
   39.4530   21.7430   38.7480 H   0  0  0  0  0  0  0  0  0  0  0  0
   39.7050   23.5450   39.0550 H   0  0  0  0  0  0  0  0  0  0  0  0
  1  7  1  0  0  0  0
  1  2  1  0  0  0  0
  2 15  1  0  0  0  0
  3  2  2  0  0  0  0
  3  8  1  0  0  0  0
  4  3  1  0  0  0  0
  5  6  1  0  0  0  0
  5  4  2  0  0  0  0
  6  1  2  0  0  0  0
  9  5  1  0  0  0  0
 10  9  2  0  0  0  0
 10 11  1  0  0  0  0
 12 10  1  0  0  0  0
 13 12  2  0  0  0  0
 13 14  1  0  0  0  0
 14  9  1  0  0  0  0
 15 16  1  0  0  0  0
 15 17  1  0  0  0  0
M  END
>  <minimizedAffinity>
-3.5631361

$$$$

 OpenBabel03272506563D

 17 18  0  0  0  0  0  0  0  0999 V2000
   37.4600   24.8010   32.6770 C   0  0  0  0  0  0  0  0  0  0  0  0
   36.7410   25.8170   32.0470 C   0  0  0  0  0  0  0  0  0  0  0  0
   35.6630   25.4070   31.2470 C   0  0  0  0  0  0  0  0  0  0  0  0
   35.3640   24.0770   31.1180 N   0  0  0  0  0  0  0  0  0  0  0  0
   36.0960   23.1520   31.7520 C   0  0  0  0  0  0  0  0  0  0  0  0
   37.1490   23.4780   32.5390 N   0  0  0  0  0  0  0  0  0  0  0  0
   38.2860   25.1060   33.2890 H   0  0  0  0  0  0  0  0  0  0  0  0
   35.0910   26.1630   30.7500 H   0  0  0  0  0  0  0  0  0  0  0  0
   35.8730   21.7190   31.6890 C   0  0  0  0  0  0  0  0  0  0  0  0
   34.9130   20.9500   32.2340 C   0  0  0  0  0  0  0  0  0  0  0  0
   34.1400   21.4510   32.8410 H   0  0  0  0  0  0  0  0  0  0  0  0
   34.9080   19.6100   32.0330 C   0  0  0  0  0  3  0  0  0  0  0  0
   35.9290   19.1100   31.2540 C   0  0  0  0  0  3  0  0  0  0  0  0
   36.9000   20.5480   30.8040 S   0  0  0  0  0  0  0  0  0  0  0  0
   37.1000   27.1770   32.2190 N   0  0  0  0  0  0  0  0  0  0  0  0
   37.4810   27.5040   33.1270 H   0  0  0  0  0  0  0  0  0  0  0  0
   36.9500   27.7850   31.3830 H   0  0  0  0  0  0  0  0  0  0  0  0
  1  7  1  0  0  0  0
  2 15  1  0  0  0  0
  2  1  2  0  0  0  0
  3  2  1  0  0  0  0
  4  3  2  0  0  0  0
  4  5  1  0  0  0  0
  5  6  2  0  0  0  0
  6  1  1  0  0  0  0
  8  3  1  0  0  0  0
  9  5  1  0  0  0  0
  9 10  2  0  0  0  0
 10 11  1  0  0  0  0
 12 10  1  0  0  0  0
 13 12  2  0  0  0  0
 14 13  1  0  0  0  0
 14  9  1  0  0  0  0
 15 16  1  0  0  0  0
 17 15  1  0  0  0  0
M  END
>  <minimizedAffinity>
-3.56201982

$$$$

 OpenBabel03272506563D

 17 18  0  0  0  0  0  0  0  0999 V2000
   37.5370   23.2810   32.4140 C   0  0  0  0  0  0  0  0  0  0  0  0
   37.5010   24.5270   31.7880 C   0  0  0  0  0  0  0  0  0  0  0  0
   37.7700   25.6370   32.6030 C   0  0  0  0  0  0  0  0  0  0  0  0
   38.0490   25.4670   33.9330 N   0  0  0  0  0  0  0  0  0  0  0  0
   38.0670   24.2400   34.4720 C   0  0  0  0  0  0  0  0  0  0  0  0
   37.8170   23.1270   33.7430 N   0  0  0  0  0  0  0  0  0  0  0  0
   37.3320   22.4270   31.7990 H   0  0  0  0  0  0  0  0  0  0  0  0
   37.7500   26.6070   32.1520 H   0  0  0  0  0  0  0  0  0  0  0  0
   38.3490   23.9410   35.8640 C   0  0  0  0  0  0  0  0  0  0  0  0
   37.7080   24.3010   36.9910 C   0  0  0  0  0  0  0  0  0  0  0  0
   36.8090   24.9310   36.8890 H   0  0  0  0  0  0  0  0  0  0  0  0
   38.1630   23.8930   38.2010 C   0  0  0  0  0  3  0  0  0  0  0  0
   39.2960   23.1080   38.1900 C   0  0  0  0  0  3  0  0  0  0  0  0
   39.7180   22.9470   36.4550 S   0  0  0  0  0  0  0  0  0  0  0  0
   37.2060   24.6380   30.4070 N   0  0  0  0  0  0  0  0  0  0  0  0
   37.5210   23.9020   29.7460 H   0  0  0  0  0  0  0  0  0  0  0  0
   36.6680   25.4910   30.1350 H   0  0  0  0  0  0  0  0  0  0  0  0
  1  6  1  0  0  0  0
  2  1  2  0  0  0  0
  2  3  1  0  0  0  0
  3  4  2  0  0  0  0
  4  5  1  0  0  0  0
  5  9  1  0  0  0  0
  6  5  2  0  0  0  0
  7  1  1  0  0  0  0
  8  3  1  0  0  0  0
  9 14  1  0  0  0  0
  9 10  2  0  0  0  0
 10 12  1  0  0  0  0
 11 10  1  0  0  0  0
 13 12  2  0  0  0  0
 14 13  1  0  0  0  0
 15  2  1  0  0  0  0
 16 15  1  0  0  0  0
 17 15  1  0  0  0  0
M  END
>  <minimizedAffinity>
-3.53907251

$$$$
