
 OpenBabel03262522023D

 36 39  0  0  1  0  0  0  0  0999 V2000
   34.4710   29.1720   48.8260 C   0  0  2  0  0  0  0  0  0  0  0  0
   35.1460   28.4320   49.9340 C   0  0  0  0  0  0  0  0  0  0  0  0
   36.3290   29.1720   50.3440 N   0  0  0  0  0  0  0  0  0  0  0  0
   37.3280   29.8750   51.0970 C   0  0  0  0  0  0  0  0  0  0  0  0
   37.6130   30.0550   52.2990 O   0  0  0  0  0  0  0  0  0  0  0  0
   38.0070   30.3910   49.9090 C   0  0  1  0  0  0  0  0  0  0  0  0
   37.1380   29.4050   49.1750 C   0  0  2  0  0  0  0  0  0  0  0  0
   35.8540   30.1450   48.1240 S   0  0  0  0  0  0  0  0  0  0  0  0
   35.3760   27.3980   49.6380 H   0  0  0  0  0  0  0  0  0  0  0  0
   34.4520   28.3620   50.7930 H   0  0  0  0  0  0  0  0  0  0  0  0
   39.0660   30.1470   49.7170 H   0  0  0  0  0  0  0  0  0  0  0  0
   37.6460   28.5310   48.7510 H   0  0  0  0  0  0  0  0  0  0  0  0
   33.3040   30.0080   49.2370 C   0  0  0  0  0  0  0  0  0  0  0  0
   33.4310   31.0820   49.1000 H   0  0  0  0  0  0  0  0  0  0  0  0
   32.3680   29.6670   48.7720 H   0  0  0  0  0  0  0  0  0  0  0  0
   33.1520   29.8750   50.3490 H   0  0  0  0  0  0  0  0  0  0  0  0
   34.0960   28.1690   47.7330 C   0  0  0  0  0  0  0  0  0  0  0  0
   34.4600   28.6190   46.7830 H   0  0  0  0  0  0  0  0  0  0  0  0
   34.7970   27.3040   47.9140 H   0  0  0  0  0  0  0  0  0  0  0  0
   32.7740   27.7610   47.6470 C   0  0  0  0  0  0  0  0  0  0  0  0
   31.8940   26.9670   48.3150 C   0  0  0  0  0  0  0  0  0  0  0  0
   32.3390   26.5000   49.1830 H   0  0  0  0  0  0  0  0  0  0  0  0
   30.5920   26.7740   47.9400 C   0  0  0  0  0  0  0  0  0  0  0  0
   30.1900   27.4880   46.7530 C   0  0  0  0  0  0  0  0  0  0  0  0
   31.7960   28.3900   46.2930 S   0  0  0  0  0  0  0  0  0  0  0  0
   37.7870   31.8230   49.6160 C   0  0  0  0  0  0  0  0  0  0  0  0
   36.8080   32.3310   50.2330 O   0  0  0  0  0  0  0  0  0  0  0  0
   38.6200   32.5720   48.7090 C   0  0  0  0  0  0  0  0  0  0  0  0
   39.1410   33.7720   49.1670 C   0  0  0  0  0  0  0  0  0  0  0  0
   39.9610   34.5140   48.2790 C   0  0  0  0  0  0  0  0  0  0  0  0
   40.1840   34.0000   47.0290 N   0  0  0  0  0  0  0  0  0  0  0  0
   39.6640   32.8460   46.6370 C   0  0  0  0  0  0  0  0  0  0  0  0
   38.8820   32.1260   47.4690 N   0  0  0  0  0  0  0  0  0  0  0  0
   38.9510   34.1630   50.1630 H   0  0  0  0  0  0  0  0  0  0  0  0
   40.3890   35.4610   48.5980 H   0  0  0  0  0  0  0  0  0  0  0  0
   39.8720   32.4820   45.6350 H   0  0  0  0  0  0  0  0  0  0  0  0
  1 17  1  6  0  0  0
  1 13  1  0  0  0  0
  1  2  1  0  0  0  0
  2  3  1  0  0  0  0
  2 10  1  0  0  0  0
  3  4  1  0  0  0  0
  4  5  2  0  0  0  0
  6 11  1  6  0  0  0
  6  4  1  0  0  0  0
  7 12  1  6  0  0  0
  7  6  1  0  0  0  0
  7  3  1  0  0  0  0
  8  1  1  0  0  0  0
  8  7  1  0  0  0  0
  9  2  1  0  0  0  0
 13 16  1  0  0  0  0
 14 13  1  0  0  0  0
 15 13  1  0  0  0  0
 17 19  1  0  0  0  0
 18 17  1  0  0  0  0
 20 17  1  0  0  0  0
 20 21  2  0  0  0  0
 21 22  1  0  0  0  0
 23 21  1  0  0  0  0
 24 23  2  0  0  0  0
 25 24  1  0  0  0  0
 25 20  1  0  0  0  0
 26  6  1  0  0  0  0
 26 27  2  0  0  0  0
 28 29  1  0  0  0  0
 28 26  1  0  0  0  0
 29 34  1  0  0  0  0
 30 35  1  0  0  0  0
 30 29  2  0  0  0  0
 31 30  1  0  0  0  0
 32 31  2  0  0  0  0
 32 33  1  0  0  0  0
 33 28  2  0  0  0  0
 36 32  1  0  0  0  0
M  END
>  <minimizedAffinity>
-5.04729748

>  <minimizedRMSD>
1.63072228

$$$$
