
 OpenBabel03272508453D

 24 26  0  0  0  0  0  0  0  0999 V2000
   35.8820   30.1670   49.9030 C   0  0  0  0  0  0  0  0  0  0  0  0
   36.7480   29.9080   50.9370 C   0  0  0  0  0  0  0  0  0  0  0  0
   37.8660   30.6710   50.6280 C   0  0  0  0  0  0  0  0  0  0  0  0
   37.6290   31.3380   49.4520 C   0  0  0  0  0  0  0  0  0  0  0  0
   36.4380   31.0110   49.0530 O   0  0  0  0  0  0  0  0  0  0  0  0
   36.6520   29.2860   51.7960 H   0  0  0  0  0  0  0  0  0  0  0  0
   38.8090   30.7940   51.1470 H   0  0  0  0  0  0  0  0  0  0  0  0
   38.4630   32.2430   48.7200 C   0  0  0  0  0  0  0  0  0  0  0  0
   38.9340   32.1260   47.4380 C   0  0  0  0  0  0  0  0  0  0  0  0
   38.6710   31.2550   46.8550 H   0  0  0  0  0  0  0  0  0  0  0  0
   39.7260   33.0750   46.8680 C   0  0  0  0  0  3  0  0  0  0  0  0
   40.0450   34.2370   47.7210 C   0  0  0  0  0  3  0  0  0  0  0  0
   39.1340   33.8220   49.3130 S   0  0  0  0  0  0  0  0  0  0  0  0
   34.5360   29.5860   49.7670 C   0  0  0  0  0  0  0  0  0  0  0  0
   33.7460   29.7250   50.7290 O   0  0  0  0  0  0  0  0  0  0  0  0
   33.8290   26.8500   47.4930 C   0  0  0  0  0  0  0  0  0  0  0  0
   33.4930   27.4880   46.2970 C   0  0  0  0  0  0  0  0  0  0  0  0
   33.5060   28.8720   46.2650 C   0  0  0  0  0  0  0  0  0  0  0  0
   33.8470   29.5390   47.3990 N   0  0  0  0  0  0  0  0  0  0  0  0
   34.1680   28.8830   48.5430 C   0  0  0  0  0  0  0  0  0  0  0  0
   34.1580   27.5350   48.5870 N   0  0  0  0  0  0  0  0  0  0  0  0
   33.8150   25.7740   47.5040 H   0  0  0  0  0  0  0  0  0  0  0  0
   33.2210   26.9460   45.3910 H   0  0  0  0  0  0  0  0  0  0  0  0
   33.2590   29.4560   45.3790 H   0  0  0  0  0  0  0  0  0  0  0  0
  1  2  2  0  0  0  0
  2  6  1  0  0  0  0
  3  2  1  0  0  0  0
  3  7  1  0  0  0  0
  4  3  2  0  0  0  0
  5  4  1  0  0  0  0
  5  1  1  0  0  0  0
  8 13  1  0  0  0  0
  8  4  1  0  0  0  0
  9  8  2  0  0  0  0
 10  9  1  0  0  0  0
 11  9  1  0  0  0  0
 11 12  2  0  0  0  0
 12 13  1  0  0  0  0
 14  1  1  0  0  0  0
 14 15  2  0  0  0  0
 16 22  1  0  0  0  0
 16 21  1  0  0  0  0
 17 16  2  0  0  0  0
 18 17  1  0  0  0  0
 18 19  2  0  0  0  0
 19 20  1  0  0  0  0
 20 21  2  0  0  0  0
 20 14  1  0  0  0  0
 23 17  1  0  0  0  0
 24 18  1  0  0  0  0
M  END
>  <minimizedAffinity>
-5.07955217

>  <minimizedRMSD>
2.0044601

$$$$
