
 OpenBabel03272504223D

 36 38  0  0  1  0  0  0  0  0999 V2000
   36.8340   31.5880   48.6710 O   0  0  0  0  0  0  0  0  0  0  0  0
   38.8500   32.4170   47.8410 C   0  0  2  0  0  0  0  0  0  0  0  0
   38.1960   31.3930   48.7420 C   0  0  1  0  0  0  0  0  0  0  0  0
   38.7210   31.9160   50.0810 C   0  0  0  0  0  0  0  0  0  0  0  0
   38.3830   33.2630   49.9850 O   0  0  0  0  0  0  0  0  0  0  0  0
   38.6490   33.6660   48.6990 C   0  0  0  0  0  0  0  0  0  0  0  0
   39.9090   32.1800   47.7090 H   0  0  0  0  0  0  0  0  0  0  0  0
   38.5260   30.3580   48.5550 H   0  0  0  0  0  0  0  0  0  0  0  0
   39.7980   31.7370   50.1520 H   0  0  0  0  0  0  0  0  0  0  0  0
   38.1200   31.4280   50.8570 H   0  0  0  0  0  0  0  0  0  0  0  0
   39.5790   34.2790   48.6270 H   0  0  0  0  0  0  0  0  0  0  0  0
   37.8380   34.3110   48.2780 H   0  0  0  0  0  0  0  0  0  0  0  0
   38.1250   32.4670   46.6540 O   0  0  0  0  0  0  0  0  0  0  0  0
   38.8060   31.9980   45.5050 C   0  0  0  0  0  0  0  0  0  0  0  0
   39.4330   32.7900   44.5390 C   0  0  0  0  0  0  0  0  0  0  0  0
   39.4140   33.8610   44.6490 H   0  0  0  0  0  0  0  0  0  0  0  0
   40.0510   32.1870   43.4830 C   0  0  0  0  0  3  0  0  0  0  0  0
   40.0330   30.7460   43.4050 C   0  0  0  0  0  3  0  0  0  0  0  0
   39.1330   30.2470   44.8400 S   0  0  0  0  0  0  0  0  0  0  0  0
   35.9330   29.8480   46.9640 O   0  0  0  0  0  0  0  0  0  0  0  0
   35.9740   30.1670   48.4390 P   0  0  1  0  0  0  0  0  0  0  0  0
   36.7540   28.8740   49.2360 O   0  0  0  0  0  0  0  0  0  0  0  0
   37.4420   29.1820   49.8740 H   0  0  0  0  0  0  0  0  0  0  0  0
   34.3950   30.3320   49.0490 O   0  0  0  0  0  0  0  0  0  0  0  0
   34.1270   29.1940   49.7830 C   0  0  0  0  0  0  0  0  0  0  0  0
   33.6130   29.4660   50.7490 H   0  0  0  0  0  0  0  0  0  0  0  0
   35.0370   28.6540   50.1080 H   0  0  0  0  0  0  0  0  0  0  0  0
   33.2670   28.2210   49.0760 C   0  0  0  0  0  0  0  0  0  0  0  0
   33.8980   27.3310   48.2390 C   0  0  0  0  0  0  0  0  0  0  0  0
   33.1420   26.3860   47.5420 C   0  0  0  0  0  0  0  0  0  0  0  0
   31.7920   26.4060   47.7380 N   0  0  0  0  0  0  0  0  0  0  0  0
   31.1970   27.2890   48.5630 C   0  0  0  0  0  0  0  0  0  0  0  0
   31.9320   28.2030   49.2380 N   0  0  0  0  0  0  0  0  0  0  0  0
   34.9470   27.2370   48.0200 H   0  0  0  0  0  0  0  0  0  0  0  0
   33.5370   25.6540   46.8720 H   0  0  0  0  0  0  0  0  0  0  0  0
   30.1240   27.2170   48.6450 H   0  0  0  0  0  0  0  0  0  0  0  0
  1  3  1  0  0  0  0
  2  7  1  6  0  0  0
  2  6  1  0  0  0  0
  2  3  1  0  0  0  0
  3  8  1  6  0  0  0
  3  4  1  0  0  0  0
  4  9  1  0  0  0  0
  4 10  1  0  0  0  0
  5  4  1  0  0  0  0
  6  5  1  0  0  0  0
 11  6  1  0  0  0  0
 12  6  1  0  0  0  0
 13  2  1  0  0  0  0
 14 13  1  0  0  0  0
 15 16  1  0  0  0  0
 15 14  2  0  0  0  0
 17 15  1  0  0  0  0
 18 17  2  0  0  0  0
 18 19  1  0  0  0  0
 19 14  1  0  0  0  0
 21 20  2  6  0  0  0
 21  1  1  0  0  0  0
 21 24  1  0  0  0  0
 21 22  1  0  0  0  0
 22 23  1  0  0  0  0
 24 25  1  0  0  0  0
 25 27  1  0  0  0  0
 25 26  1  0  0  0  0
 28 33  1  0  0  0  0
 28 25  1  0  0  0  0
 29 28  2  0  0  0  0
 30 31  2  0  0  0  0
 30 29  1  0  0  0  0
 31 32  1  0  0  0  0
 32 36  1  0  0  0  0
 32 33  2  0  0  0  0
 34 29  1  0  0  0  0
 35 30  1  0  0  0  0
M  END
>  <minimizedAffinity>
-4.59183931

>  <minimizedRMSD>
0.262782961

$$$$
