
 OpenBabel03272503313D

 31 33  0  0  1  0  0  0  0  0999 V2000
   38.5500   23.7730   34.3090 N   0  0  0  0  0  0  0  0  0  0  0  0
   38.7730   24.6170   35.4470 C   0  0  0  0  0  0  0  0  0  0  0  0
   39.1760   23.6160   36.5220 C   0  0  2  0  0  0  0  0  0  0  0  0
   39.0120   22.2360   35.8950 C   0  0  0  0  0  0  0  0  0  0  0  0
   39.3980   22.6050   34.4720 C   0  0  0  0  0  0  0  0  0  0  0  0
   39.6100   25.3190   35.1920 H   0  0  0  0  0  0  0  0  0  0  0  0
   37.9010   25.1700   35.7980 H   0  0  0  0  0  0  0  0  0  0  0  0
   40.2410   23.7540   36.7500 H   0  0  0  0  0  0  0  0  0  0  0  0
   37.9380   21.9890   35.9260 H   0  0  0  0  0  0  0  0  0  0  0  0
   39.6830   21.4910   36.3320 H   0  0  0  0  0  0  0  0  0  0  0  0
   40.4740   22.8330   34.4130 H   0  0  0  0  0  0  0  0  0  0  0  0
   39.1320   21.8020   33.7630 H   0  0  0  0  0  0  0  0  0  0  0  0
   37.6560   24.0260   33.2090 C   0  0  0  0  0  0  0  0  0  0  0  0
   37.0890   22.9150   32.5870 C   0  0  0  0  0  0  0  0  0  0  0  0
   36.2210   23.1570   31.5200 C   0  0  0  0  0  0  0  0  0  0  0  0
   35.9960   24.4730   31.1700 N   0  0  0  0  0  0  0  0  0  0  0  0
   36.5610   25.4990   31.7930 C   0  0  0  0  0  0  0  0  0  0  0  0
   37.3970   25.2810   32.8200 N   0  0  0  0  0  0  0  0  0  0  0  0
   37.2950   21.8880   32.8980 H   0  0  0  0  0  0  0  0  0  0  0  0
   35.7380   22.3540   30.9830 H   0  0  0  0  0  0  0  0  0  0  0  0
   36.2120   27.1670   31.2790 S   0  0  0  0  0  0  0  0  0  0  0  0
   35.9420   28.3240   32.4600 C   0  0  0  0  0  0  0  0  0  0  0  0
   36.0800   28.5380   33.8110 C   0  0  0  0  0  0  0  0  0  0  0  0
   36.5080   27.6530   34.2500 H   0  0  0  0  0  0  0  0  0  0  0  0
   35.7320   29.6760   34.4740 C   0  0  0  0  0  3  0  0  0  0  0  0
   35.1530   30.7360   33.5480 C   0  0  0  0  0  3  0  0  0  0  0  0
   35.1890   29.9570   31.8790 S   0  0  0  0  0  0  0  0  0  0  0  0
   38.3570   23.7670   37.7780 C   0  0  0  0  0  0  0  0  0  0  0  0
   38.0280   25.1020   37.8800 F   0  0  0  0  0  0  0  0  0  0  0  0
   39.1840   23.4870   38.8360 F   0  0  0  0  0  0  0  0  0  0  0  0
   37.2520   22.9620   37.8010 F   0  0  0  0  0  0  0  0  0  0  0  0
  1  5  1  0  0  0  0
  1  2  1  0  0  0  0
  2  7  1  0  0  0  0
  2  3  1  0  0  0  0
  3  8  1  1  0  0  0
  3 28  1  0  0  0  0
  4  9  1  0  0  0  0
  4 10  1  0  0  0  0
  4  3  1  0  0  0  0
  5  4  1  0  0  0  0
  6  2  1  0  0  0  0
 11  5  1  0  0  0  0
 12  5  1  0  0  0  0
 13  1  1  0  0  0  0
 14 19  1  0  0  0  0
 14 13  2  0  0  0  0
 15 14  1  0  0  0  0
 16 15  2  0  0  0  0
 16 17  1  0  0  0  0
 17 18  2  0  0  0  0
 18 13  1  0  0  0  0
 20 15  1  0  0  0  0
 21 17  1  0  0  0  0
 21 22  1  0  0  0  0
 22 23  2  0  0  0  0
 23 24  1  0  0  0  0
 23 25  1  0  0  0  0
 26 25  2  0  0  0  0
 27 22  1  0  0  0  0
 27 26  1  0  0  0  0
 28 31  1  0  0  0  0
 28 29  1  0  0  0  0
 28 30  1  0  0  0  0
M  END
>  <minimizedAffinity>
-5.35833406

$$$$

 OpenBabel03272503313D

 31 33  0  0  1  0  0  0  0  0999 V2000
   34.8270   30.2140   34.4840 N   0  0  0  0  0  0  0  0  0  0  0  0
   33.3980   30.2170   34.6050 C   0  0  0  0  0  0  0  0  0  0  0  0
   33.1650   31.2560   35.6950 C   0  0  2  0  0  0  0  0  0  0  0  0
   34.5470   31.6630   36.1910 C   0  0  0  0  0  0  0  0  0  0  0  0
   35.2900   31.5350   34.8700 C   0  0  0  0  0  0  0  0  0  0  0  0
   32.9720   30.5410   33.6180 H   0  0  0  0  0  0  0  0  0  0  0  0
   32.9530   29.2740   34.9240 H   0  0  0  0  0  0  0  0  0  0  0  0
   32.6990   32.1410   35.2430 H   0  0  0  0  0  0  0  0  0  0  0  0
   34.8930   30.8730   36.8780 H   0  0  0  0  0  0  0  0  0  0  0  0
   34.5700   32.6810   36.5890 H   0  0  0  0  0  0  0  0  0  0  0  0
   34.9770   32.3310   34.1760 H   0  0  0  0  0  0  0  0  0  0  0  0
   36.3840   31.5600   35.0220 H   0  0  0  0  0  0  0  0  0  0  0  0
   35.6550   29.1150   34.0610 C   0  0  0  0  0  0  0  0  0  0  0  0
   35.4760   28.6530   32.7580 C   0  0  0  0  0  0  0  0  0  0  0  0
   36.2770   27.5870   32.3450 C   0  0  0  0  0  0  0  0  0  0  0  0
   37.1790   27.0790   33.2560 N   0  0  0  0  0  0  0  0  0  0  0  0
   37.3140   27.5520   34.4890 C   0  0  0  0  0  0  0  0  0  0  0  0
   36.5500   28.5770   34.8990 N   0  0  0  0  0  0  0  0  0  0  0  0
   34.7470   29.0860   32.0680 H   0  0  0  0  0  0  0  0  0  0  0  0
   36.2030   27.1680   31.3510 H   0  0  0  0  0  0  0  0  0  0  0  0
   38.5070   26.8410   35.6010 S   0  0  0  0  0  0  0  0  0  0  0  0
   38.2580   25.2740   36.1400 C   0  0  0  0  0  0  0  0  0  0  0  0
   37.9330   24.5610   37.2700 C   0  0  0  0  0  0  0  0  0  0  0  0
   37.7940   25.2570   38.0790 H   0  0  0  0  0  0  0  0  0  0  0  0
   37.8120   23.2060   37.3460 C   0  0  0  0  0  3  0  0  0  0  0  0
   38.0760   22.5220   36.0120 C   0  0  0  0  0  3  0  0  0  0  0  0
   38.4590   23.9020   34.8540 S   0  0  0  0  0  0  0  0  0  0  0  0
   32.2970   30.7290   36.8080 C   0  0  0  0  0  0  0  0  0  0  0  0
   32.9670   30.9780   37.9860 F   0  0  0  0  0  0  0  0  0  0  0  0
   32.2460   29.3650   36.6690 F   0  0  0  0  0  0  0  0  0  0  0  0
   31.0370   31.2620   36.8090 F   0  0  0  0  0  0  0  0  0  0  0  0
  1  2  1  0  0  0  0
  1  5  1  0  0  0  0
  2  7  1  0  0  0  0
  2  3  1  0  0  0  0
  3  8  1  6  0  0  0
  3  4  1  0  0  0  0
  3 28  1  0  0  0  0
  4 10  1  0  0  0  0
  4  9  1  0  0  0  0
  5 12  1  0  0  0  0
  5  4  1  0  0  0  0
  6  2  1  0  0  0  0
 11  5  1  0  0  0  0
 13  1  1  0  0  0  0
 13 18  1  0  0  0  0
 14 13  2  0  0  0  0
 15 14  1  0  0  0  0
 15 16  2  0  0  0  0
 16 17  1  0  0  0  0
 17 18  2  0  0  0  0
 17 21  1  0  0  0  0
 19 14  1  0  0  0  0
 20 15  1  0  0  0  0
 21 22  1  0  0  0  0
 22 23  2  0  0  0  0
 23 25  1  0  0  0  0
 23 24  1  0  0  0  0
 26 25  2  0  0  0  0
 27 26  1  0  0  0  0
 27 22  1  0  0  0  0
 28 31  1  0  0  0  0
 28 29  1  0  0  0  0
 30 28  1  0  0  0  0
M  END
>  <minimizedAffinity>
-5.16449213

$$$$

 OpenBabel03272503313D

 31 33  0  0  1  0  0  0  0  0999 V2000
   38.6700   25.3600   34.9170 N   0  0  0  0  0  0  0  0  0  0  0  0
   38.2800   25.6460   36.2680 C   0  0  0  0  0  0  0  0  0  0  0  0
   38.9470   24.5180   37.0450 C   0  0  2  0  0  0  0  0  0  0  0  0
   39.5690   23.5970   36.0020 C   0  0  0  0  0  0  0  0  0  0  0  0
   39.9400   24.6600   34.9790 C   0  0  0  0  0  0  0  0  0  0  0  0
   38.7010   26.6490   36.5390 H   0  0  0  0  0  0  0  0  0  0  0  0
   37.2070   25.6130   36.4630 H   0  0  0  0  0  0  0  0  0  0  0  0
   39.7640   24.9400   37.6460 H   0  0  0  0  0  0  0  0  0  0  0  0
   38.7580   22.9710   35.5940 H   0  0  0  0  0  0  0  0  0  0  0  0
   40.4400   23.0570   36.3800 H   0  0  0  0  0  0  0  0  0  0  0  0
   40.7670   25.2820   35.3560 H   0  0  0  0  0  0  0  0  0  0  0  0
   40.2080   24.2060   34.0090 H   0  0  0  0  0  0  0  0  0  0  0  0
   37.9440   25.6980   33.7200 C   0  0  0  0  0  0  0  0  0  0  0  0
   38.0290   27.0180   33.2810 C   0  0  0  0  0  0  0  0  0  0  0  0
   37.3270   27.3500   32.1210 C   0  0  0  0  0  0  0  0  0  0  0  0
   36.6090   26.3460   31.5040 N   0  0  0  0  0  0  0  0  0  0  0  0
   36.5570   25.1010   31.9610 C   0  0  0  0  0  0  0  0  0  0  0  0
   37.2270   24.7690   33.0750 N   0  0  0  0  0  0  0  0  0  0  0  0
   38.6120   27.7830   33.8010 H   0  0  0  0  0  0  0  0  0  0  0  0
   37.3390   28.3500   31.7110 H   0  0  0  0  0  0  0  0  0  0  0  0
   35.6080   23.8660   31.1010 S   0  0  0  0  0  0  0  0  0  0  0  0
   35.7210   22.2750   31.6140 C   0  0  0  0  0  0  0  0  0  0  0  0
   35.0480   21.3290   32.3510 C   0  0  0  0  0  0  0  0  0  0  0  0
   34.1380   21.7730   32.7180 H   0  0  0  0  0  0  0  0  0  0  0  0
   35.4650   20.0510   32.5740 C   0  0  0  0  0  3  0  0  0  0  0  0
   36.8000   19.7500   31.9070 C   0  0  0  0  0  3  0  0  0  0  0  0
   37.2600   21.3230   31.0670 S   0  0  0  0  0  0  0  0  0  0  0  0
   37.9760   23.7880   37.9370 C   0  0  0  0  0  0  0  0  0  0  0  0
   37.5080   24.7070   38.8510 F   0  0  0  0  0  0  0  0  0  0  0  0
   38.6980   22.8640   38.6480 F   0  0  0  0  0  0  0  0  0  0  0  0
   36.9620   23.1830   37.2480 F   0  0  0  0  0  0  0  0  0  0  0  0
  1  5  1  0  0  0  0
  1  2  1  0  0  0  0
  2  7  1  0  0  0  0
  2  6  1  0  0  0  0
  2  3  1  0  0  0  0
  3  8  1  1  0  0  0
  3 28  1  0  0  0  0
  4 10  1  0  0  0  0
  4  3  1  0  0  0  0
  5 11  1  0  0  0  0
  5  4  1  0  0  0  0
  9  4  1  0  0  0  0
 12  5  1  0  0  0  0
 13  1  1  0  0  0  0
 14 13  1  0  0  0  0
 14 19  1  0  0  0  0
 15 14  2  0  0  0  0
 16 17  2  0  0  0  0
 16 15  1  0  0  0  0
 17 18  1  0  0  0  0
 18 13  2  0  0  0  0
 20 15  1  0  0  0  0
 21 22  1  0  0  0  0
 21 17  1  0  0  0  0
 22 23  2  0  0  0  0
 23 25  1  0  0  0  0
 23 24  1  0  0  0  0
 26 25  2  0  0  0  0
 27 22  1  0  0  0  0
 27 26  1  0  0  0  0
 28 30  1  0  0  0  0
 28 29  1  0  0  0  0
 31 28  1  0  0  0  0
M  END
>  <minimizedAffinity>
-5.14581299

$$$$

 OpenBabel03272503313D

 31 33  0  0  1  0  0  0  0  0999 V2000
   38.5310   23.8660   36.1190 N   0  0  0  0  0  0  0  0  0  0  0  0
   39.3710   22.8270   35.5960 C   0  0  0  0  0  0  0  0  0  0  0  0
   39.9170   22.1810   36.8630 C   0  0  2  0  0  0  0  0  0  0  0  0
   39.4110   23.0310   38.0220 C   0  0  0  0  0  0  0  0  0  0  0  0
   38.0690   23.4250   37.4240 C   0  0  0  0  0  0  0  0  0  0  0  0
   38.7200   22.1240   35.0130 H   0  0  0  0  0  0  0  0  0  0  0  0
   40.2110   23.1660   34.9900 H   0  0  0  0  0  0  0  0  0  0  0  0
   39.4750   21.1810   36.9660 H   0  0  0  0  0  0  0  0  0  0  0  0
   40.0570   23.9230   38.0790 H   0  0  0  0  0  0  0  0  0  0  0  0
   39.3050   22.4620   38.9500 H   0  0  0  0  0  0  0  0  0  0  0  0
   37.3980   22.5530   37.3800 H   0  0  0  0  0  0  0  0  0  0  0  0
   37.6010   24.2460   37.9940 H   0  0  0  0  0  0  0  0  0  0  0  0
   38.2020   25.1140   35.4800 C   0  0  0  0  0  0  0  0  0  0  0  0
   38.4390   26.2790   36.2070 C   0  0  0  0  0  0  0  0  0  0  0  0
   38.1220   27.4900   35.5900 C   0  0  0  0  0  0  0  0  0  0  0  0
   37.6020   27.4360   34.3130 N   0  0  0  0  0  0  0  0  0  0  0  0
   37.3920   26.3000   33.6600 C   0  0  0  0  0  0  0  0  0  0  0  0
   37.6920   25.1280   34.2420 N   0  0  0  0  0  0  0  0  0  0  0  0
   38.8550   26.2760   37.2180 H   0  0  0  0  0  0  0  0  0  0  0  0
   38.2750   28.4400   36.0830 H   0  0  0  0  0  0  0  0  0  0  0  0
   36.7190   26.3200   32.0130 S   0  0  0  0  0  0  0  0  0  0  0  0
   36.8090   27.7440   31.1330 C   0  0  0  0  0  0  0  0  0  0  0  0
   37.4420   28.3020   30.0480 C   0  0  0  0  0  0  0  0  0  0  0  0
   38.1010   27.5630   29.6260 H   0  0  0  0  0  0  0  0  0  0  0  0
   37.2600   29.5720   29.5900 C   0  0  0  0  0  3  0  0  0  0  0  0
   36.2520   30.3520   30.4210 C   0  0  0  0  0  3  0  0  0  0  0  0
   35.7160   29.1670   31.7260 S   0  0  0  0  0  0  0  0  0  0  0  0
   41.4200   22.0800   36.8490 C   0  0  0  0  0  0  0  0  0  0  0  0
   41.7690   21.4940   35.6520 F   0  0  0  0  0  0  0  0  0  0  0  0
   41.7750   21.1950   37.8350 F   0  0  0  0  0  0  0  0  0  0  0  0
   42.0430   23.2840   37.0340 F   0  0  0  0  0  0  0  0  0  0  0  0
  1  5  1  0  0  0  0
  2  1  1  0  0  0  0
  2  3  1  0  0  0  0
  3  8  1  1  0  0  0
  3  4  1  0  0  0  0
  4  9  1  0  0  0  0
  4 10  1  0  0  0  0
  5 12  1  0  0  0  0
  5  4  1  0  0  0  0
  6  2  1  0  0  0  0
  7  2  1  0  0  0  0
 11  5  1  0  0  0  0
 13  1  1  0  0  0  0
 13 14  1  0  0  0  0
 14 19  1  0  0  0  0
 15 20  1  0  0  0  0
 15 14  2  0  0  0  0
 16 15  1  0  0  0  0
 17 18  1  0  0  0  0
 17 16  2  0  0  0  0
 18 13  2  0  0  0  0
 21 17  1  0  0  0  0
 22 27  1  0  0  0  0
 22 21  1  0  0  0  0
 23 22  2  0  0  0  0
 24 23  1  0  0  0  0
 25 23  1  0  0  0  0
 25 26  2  0  0  0  0
 26 27  1  0  0  0  0
 28  3  1  0  0  0  0
 28 31  1  0  0  0  0
 28 30  1  0  0  0  0
 29 28  1  0  0  0  0
M  END
>  <minimizedAffinity>
-5.13949919

$$$$

 OpenBabel03272503313D

 31 33  0  0  1  0  0  0  0  0999 V2000
   37.1120   24.5410   32.5080 N   0  0  0  0  0  0  0  0  0  0  0  0
   37.6640   23.2360   32.7330 C   0  0  0  0  0  0  0  0  0  0  0  0
   36.7210   22.3420   31.9380 C   0  0  2  0  0  0  0  0  0  0  0  0
   35.6110   23.2520   31.4250 C   0  0  0  0  0  0  0  0  0  0  0  0
   36.4460   24.5060   31.2190 C   0  0  0  0  0  0  0  0  0  0  0  0
   38.7040   23.2290   32.3130 H   0  0  0  0  0  0  0  0  0  0  0  0
   37.6670   22.9010   33.7710 H   0  0  0  0  0  0  0  0  0  0  0  0
   37.2600   21.9500   31.0660 H   0  0  0  0  0  0  0  0  0  0  0  0
   34.9110   23.4170   32.2600 H   0  0  0  0  0  0  0  0  0  0  0  0
   35.1630   22.8890   30.4960 H   0  0  0  0  0  0  0  0  0  0  0  0
   37.1360   24.3720   30.3710 H   0  0  0  0  0  0  0  0  0  0  0  0
   35.8060   25.3920   31.0620 H   0  0  0  0  0  0  0  0  0  0  0  0
   37.1970   25.6770   33.3890 C   0  0  0  0  0  0  0  0  0  0  0  0
   37.9620   25.5260   34.5440 C   0  0  0  0  0  0  0  0  0  0  0  0
   38.0470   26.6250   35.4010 C   0  0  0  0  0  0  0  0  0  0  0  0
   37.3680   27.7690   35.0350 N   0  0  0  0  0  0  0  0  0  0  0  0
   36.6500   27.8660   33.9230 C   0  0  0  0  0  0  0  0  0  0  0  0
   36.5600   26.8170   33.0910 N   0  0  0  0  0  0  0  0  0  0  0  0
   38.4840   24.5990   34.7960 H   0  0  0  0  0  0  0  0  0  0  0  0
   38.6190   26.5930   36.3170 H   0  0  0  0  0  0  0  0  0  0  0  0
   35.8090   29.3830   33.5240 S   0  0  0  0  0  0  0  0  0  0  0  0
   35.3720   30.4050   34.7780 C   0  0  0  0  0  0  0  0  0  0  0  0
   35.9100   31.2730   35.6980 C   0  0  0  0  0  0  0  0  0  0  0  0
   36.9770   31.2970   35.5550 H   0  0  0  0  0  0  0  0  0  0  0  0
   35.2090   31.9790   36.6290 C   0  0  0  0  0  3  0  0  0  0  0  0
   33.7120   31.7090   36.5570 C   0  0  0  0  0  3  0  0  0  0  0  0
   33.5280   30.4970   35.1830 S   0  0  0  0  0  0  0  0  0  0  0  0
   36.1820   21.2040   32.7650 C   0  0  0  0  0  0  0  0  0  0  0  0
   36.4980   21.4810   34.0780 F   0  0  0  0  0  0  0  0  0  0  0  0
   36.8940   20.0830   32.4220 F   0  0  0  0  0  0  0  0  0  0  0  0
   34.8410   20.9970   32.5900 F   0  0  0  0  0  0  0  0  0  0  0  0
  1  2  1  0  0  0  0
  1 13  1  0  0  0  0
  2  7  1  0  0  0  0
  3  8  1  6  0  0  0
  3  2  1  0  0  0  0
  3 28  1  0  0  0  0
  4  3  1  0  0  0  0
  4  9  1  0  0  0  0
  5  4  1  0  0  0  0
  5  1  1  0  0  0  0
  6  2  1  0  0  0  0
 10  4  1  0  0  0  0
 11  5  1  0  0  0  0
 12  5  1  0  0  0  0
 13 14  1  0  0  0  0
 14 19  1  0  0  0  0
 14 15  2  0  0  0  0
 15 20  1  0  0  0  0
 16 15  1  0  0  0  0
 17 16  2  0  0  0  0
 18 13  2  0  0  0  0
 18 17  1  0  0  0  0
 21 17  1  0  0  0  0
 21 22  1  0  0  0  0
 22 27  1  0  0  0  0
 22 23  2  0  0  0  0
 23 25  1  0  0  0  0
 24 23  1  0  0  0  0
 26 25  2  0  0  0  0
 27 26  1  0  0  0  0
 28 29  1  0  0  0  0
 30 28  1  0  0  0  0
 31 28  1  0  0  0  0
M  END
>  <minimizedAffinity>
-5.13662243

$$$$

 OpenBabel03272503313D

 31 33  0  0  1  0  0  0  0  0999 V2000
   36.8210   25.8420   31.3750 N   0  0  0  0  0  0  0  0  0  0  0  0
   35.7490   26.7940   31.3040 C   0  0  0  0  0  0  0  0  0  0  0  0
   36.4820   28.1210   31.4520 C   0  0  2  0  0  0  0  0  0  0  0  0
   37.9390   27.7700   31.7300 C   0  0  0  0  0  0  0  0  0  0  0  0
   38.0150   26.5080   30.8850 C   0  0  0  0  0  0  0  0  0  0  0  0
   35.2680   26.6900   30.2960 H   0  0  0  0  0  0  0  0  0  0  0  0
   35.0040   26.7190   32.0960 H   0  0  0  0  0  0  0  0  0  0  0  0
   36.4450   28.6530   30.4920 H   0  0  0  0  0  0  0  0  0  0  0  0
   38.0120   27.4970   32.7960 H   0  0  0  0  0  0  0  0  0  0  0  0
   38.6320   28.5440   31.3910 H   0  0  0  0  0  0  0  0  0  0  0  0
   37.9690   26.7600   29.8140 H   0  0  0  0  0  0  0  0  0  0  0  0
   38.9290   25.9300   31.1090 H   0  0  0  0  0  0  0  0  0  0  0  0
   36.7380   24.4830   31.8430 C   0  0  0  0  0  0  0  0  0  0  0  0
   35.7390   23.6840   31.2890 C   0  0  0  0  0  0  0  0  0  0  0  0
   35.6560   22.3650   31.7410 C   0  0  0  0  0  0  0  0  0  0  0  0
   36.5670   21.9610   32.6950 N   0  0  0  0  0  0  0  0  0  0  0  0
   37.5010   22.7610   33.1940 C   0  0  0  0  0  0  0  0  0  0  0  0
   37.5930   24.0310   32.7690 N   0  0  0  0  0  0  0  0  0  0  0  0
   35.0370   24.0460   30.5340 H   0  0  0  0  0  0  0  0  0  0  0  0
   34.9120   21.6780   31.3640 H   0  0  0  0  0  0  0  0  0  0  0  0
   38.6400   22.1570   34.4210 S   0  0  0  0  0  0  0  0  0  0  0  0
   38.5010   22.7320   35.9880 C   0  0  0  0  0  0  0  0  0  0  0  0
   37.6180   23.3680   36.8280 C   0  0  0  0  0  0  0  0  0  0  0  0
   36.7090   23.5570   36.2830 H   0  0  0  0  0  0  0  0  0  0  0  0
   37.8580   23.7010   38.1280 C   0  0  0  0  0  3  0  0  0  0  0  0
   39.2490   23.2880   38.5870 C   0  0  0  0  0  3  0  0  0  0  0  0
   40.0050   22.4920   37.1080 S   0  0  0  0  0  0  0  0  0  0  0  0
   35.8900   28.9810   32.5390 C   0  0  0  0  0  0  0  0  0  0  0  0
   36.3090   28.4480   33.7390 F   0  0  0  0  0  0  0  0  0  0  0  0
   34.5300   28.8130   32.4910 F   0  0  0  0  0  0  0  0  0  0  0  0
   36.2190   30.3030   32.4200 F   0  0  0  0  0  0  0  0  0  0  0  0
  1 13  1  0  0  0  0
  2  1  1  0  0  0  0
  2  3  1  0  0  0  0
  2  7  1  0  0  0  0
  3  8  1  6  0  0  0
  3  4  1  0  0  0  0
  3 28  1  0  0  0  0
  4  9  1  0  0  0  0
  5 12  1  0  0  0  0
  5  1  1  0  0  0  0
  5  4  1  0  0  0  0
  6  2  1  0  0  0  0
 10  4  1  0  0  0  0
 11  5  1  0  0  0  0
 13 18  1  0  0  0  0
 14 15  1  0  0  0  0
 14 13  2  0  0  0  0
 15 16  2  0  0  0  0
 16 17  1  0  0  0  0
 17 21  1  0  0  0  0
 18 17  2  0  0  0  0
 19 14  1  0  0  0  0
 20 15  1  0  0  0  0
 21 22  1  0  0  0  0
 22 23  2  0  0  0  0
 22 27  1  0  0  0  0
 23 25  1  0  0  0  0
 24 23  1  0  0  0  0
 25 26  2  0  0  0  0
 27 26  1  0  0  0  0
 28 29  1  0  0  0  0
 30 28  1  0  0  0  0
 31 28  1  0  0  0  0
M  END
>  <minimizedAffinity>
-5.10452795

$$$$

 OpenBabel03272503313D

 31 33  0  0  1  0  0  0  0  0999 V2000
   37.7610   22.0980   34.3020 N   0  0  0  0  0  0  0  0  0  0  0  0
   36.6150   21.2660   34.0700 C   0  0  0  0  0  0  0  0  0  0  0  0
   36.7320   20.9560   32.5830 C   0  0  2  0  0  0  0  0  0  0  0  0
   37.9090   21.7800   32.0730 C   0  0  0  0  0  0  0  0  0  0  0  0
   38.7680   21.7180   33.3260 C   0  0  0  0  0  0  0  0  0  0  0  0
   36.7300   20.3450   34.7010 H   0  0  0  0  0  0  0  0  0  0  0  0
   35.6490   21.7380   34.2510 H   0  0  0  0  0  0  0  0  0  0  0  0
   36.9910   19.8960   32.4630 H   0  0  0  0  0  0  0  0  0  0  0  0
   37.5480   22.8130   31.9320 H   0  0  0  0  0  0  0  0  0  0  0  0
   38.3980   21.3260   31.2060 H   0  0  0  0  0  0  0  0  0  0  0  0
   39.1590   20.6990   33.4730 H   0  0  0  0  0  0  0  0  0  0  0  0
   39.5940   22.4490   33.2820 H   0  0  0  0  0  0  0  0  0  0  0  0
   37.8960   23.1190   35.3080 C   0  0  0  0  0  0  0  0  0  0  0  0
   37.8650   22.7040   36.6380 C   0  0  0  0  0  0  0  0  0  0  0  0
   37.9960   23.6920   37.6160 C   0  0  0  0  0  0  0  0  0  0  0  0
   38.1460   24.9940   37.1880 N   0  0  0  0  0  0  0  0  0  0  0  0
   38.1690   25.3420   35.9070 C   0  0  0  0  0  0  0  0  0  0  0  0
   38.0440   24.4020   34.9560 N   0  0  0  0  0  0  0  0  0  0  0  0
   37.7440   21.6590   36.9330 H   0  0  0  0  0  0  0  0  0  0  0  0
   37.9830   23.4570   38.6710 H   0  0  0  0  0  0  0  0  0  0  0  0
   38.3710   27.0470   35.4400 S   0  0  0  0  0  0  0  0  0  0  0  0
   37.2440   27.7280   34.4030 C   0  0  0  0  0  0  0  0  0  0  0  0
   36.1690   28.5850   34.3920 C   0  0  0  0  0  0  0  0  0  0  0  0
   36.0030   28.9310   35.3980 H   0  0  0  0  0  0  0  0  0  0  0  0
   35.4420   28.9320   33.2930 C   0  0  0  0  0  3  0  0  0  0  0  0
   35.9480   28.2590   32.0250 C   0  0  0  0  0  3  0  0  0  0  0  0
   37.3750   27.2370   32.5830 S   0  0  0  0  0  0  0  0  0  0  0  0
   35.4600   21.2640   31.8350 C   0  0  0  0  0  0  0  0  0  0  0  0
   35.1260   22.5660   32.1380 F   0  0  0  0  0  0  0  0  0  0  0  0
   34.4760   20.4740   32.3720 F   0  0  0  0  0  0  0  0  0  0  0  0
   35.5640   21.0580   30.4870 F   0  0  0  0  0  0  0  0  0  0  0  0
  1 13  1  0  0  0  0
  2  7  1  0  0  0  0
  2  1  1  0  0  0  0
  2  6  1  0  0  0  0
  3  8  1  6  0  0  0
  3  2  1  0  0  0  0
  4  3  1  0  0  0  0
  4  5  1  0  0  0  0
  5 11  1  0  0  0  0
  5  1  1  0  0  0  0
  9  4  1  0  0  0  0
 10  4  1  0  0  0  0
 12  5  1  0  0  0  0
 13 14  1  0  0  0  0
 14 19  1  0  0  0  0
 14 15  2  0  0  0  0
 15 20  1  0  0  0  0
 16 15  1  0  0  0  0
 17 16  2  0  0  0  0
 18 13  2  0  0  0  0
 18 17  1  0  0  0  0
 21 17  1  0  0  0  0
 22 21  1  0  0  0  0
 23 22  2  0  0  0  0
 23 24  1  0  0  0  0
 25 23  1  0  0  0  0
 26 27  1  0  0  0  0
 26 25  2  0  0  0  0
 27 22  1  0  0  0  0
 28 29  1  0  0  0  0
 28 30  1  0  0  0  0
 28  3  1  0  0  0  0
 31 28  1  0  0  0  0
M  END
>  <minimizedAffinity>
-5.10447121

$$$$

 OpenBabel03272503313D

 31 33  0  0  1  0  0  0  0  0999 V2000
   35.2770   30.1970   32.8870 N   0  0  0  0  0  0  0  0  0  0  0  0
   35.0040   30.0540   34.2890 C   0  0  0  0  0  0  0  0  0  0  0  0
   34.9630   31.5020   34.7630 C   0  0  2  0  0  0  0  0  0  0  0  0
   35.3580   32.3500   33.5600 C   0  0  0  0  0  0  0  0  0  0  0  0
   34.7360   31.4810   32.4770 C   0  0  0  0  0  0  0  0  0  0  0  0
   34.0070   29.5510   34.3920 H   0  0  0  0  0  0  0  0  0  0  0  0
   35.7640   29.5230   34.8620 H   0  0  0  0  0  0  0  0  0  0  0  0
   33.9280   31.7570   35.0250 H   0  0  0  0  0  0  0  0  0  0  0  0
   36.4570   32.3040   33.4730 H   0  0  0  0  0  0  0  0  0  0  0  0
   34.9270   33.3540   33.5910 H   0  0  0  0  0  0  0  0  0  0  0  0
   33.6380   31.5320   32.5290 H   0  0  0  0  0  0  0  0  0  0  0  0
   35.0920   31.7760   31.4740 H   0  0  0  0  0  0  0  0  0  0  0  0
   35.9570   29.2530   32.0400 C   0  0  0  0  0  0  0  0  0  0  0  0
   36.2310   29.6570   30.7350 C   0  0  0  0  0  0  0  0  0  0  0  0
   36.8910   28.7430   29.9110 C   0  0  0  0  0  0  0  0  0  0  0  0
   37.2190   27.5180   30.4540 N   0  0  0  0  0  0  0  0  0  0  0  0
   36.9360   27.1780   31.7050 C   0  0  0  0  0  0  0  0  0  0  0  0
   36.3010   28.0470   32.5090 N   0  0  0  0  0  0  0  0  0  0  0  0
   35.9530   30.6390   30.3450 H   0  0  0  0  0  0  0  0  0  0  0  0
   37.1420   28.9760   28.8860 H   0  0  0  0  0  0  0  0  0  0  0  0
   37.3980   25.5760   32.3290 S   0  0  0  0  0  0  0  0  0  0  0  0
   37.7450   25.4270   33.9620 C   0  0  0  0  0  0  0  0  0  0  0  0
   37.7130   26.1360   35.1390 C   0  0  0  0  0  0  0  0  0  0  0  0
   37.3350   27.1220   34.9290 H   0  0  0  0  0  0  0  0  0  0  0  0
   38.0960   25.6650   36.3590 C   0  0  0  0  0  3  0  0  0  0  0  0
   38.5820   24.2240   36.3010 C   0  0  0  0  0  3  0  0  0  0  0  0
   38.4230   23.7560   34.5260 S   0  0  0  0  0  0  0  0  0  0  0  0
   35.8680   31.7400   35.9440 C   0  0  0  0  0  0  0  0  0  0  0  0
   36.6900   30.6380   36.0440 F   0  0  0  0  0  0  0  0  0  0  0  0
   35.0770   31.7390   37.0650 F   0  0  0  0  0  0  0  0  0  0  0  0
   36.5770   32.9060   35.8530 F   0  0  0  0  0  0  0  0  0  0  0  0
  1  2  1  0  0  0  0
  2  6  1  0  0  0  0
  2  3  1  0  0  0  0
  2  7  1  0  0  0  0
  3  8  1  1  0  0  0
  3 28  1  0  0  0  0
  4 10  1  0  0  0  0
  4  3  1  0  0  0  0
  5 11  1  0  0  0  0
  5  1  1  0  0  0  0
  5  4  1  0  0  0  0
  9  4  1  0  0  0  0
 12  5  1  0  0  0  0
 13 18  1  0  0  0  0
 13  1  1  0  0  0  0
 14 13  2  0  0  0  0
 15 16  2  0  0  0  0
 15 14  1  0  0  0  0
 16 17  1  0  0  0  0
 17 21  1  0  0  0  0
 17 18  2  0  0  0  0
 19 14  1  0  0  0  0
 20 15  1  0  0  0  0
 21 22  1  0  0  0  0
 22 27  1  0  0  0  0
 22 23  2  0  0  0  0
 23 25  1  0  0  0  0
 24 23  1  0  0  0  0
 26 25  2  0  0  0  0
 27 26  1  0  0  0  0
 28 29  1  0  0  0  0
 28 30  1  0  0  0  0
 31 28  1  0  0  0  0
M  END
>  <minimizedAffinity>
-5.07572317

$$$$

 OpenBabel03272503313D

 31 33  0  0  1  0  0  0  0  0999 V2000
   38.5800   23.9570   34.4930 N   0  0  0  0  0  0  0  0  0  0  0  0
   38.9260   24.6750   35.6850 C   0  0  0  0  0  0  0  0  0  0  0  0
   39.1690   23.5510   36.6850 C   0  0  2  0  0  0  0  0  0  0  0  0
   38.7980   22.2600   35.9640 C   0  0  0  0  0  0  0  0  0  0  0  0
   39.2390   22.6650   34.5670 C   0  0  0  0  0  0  0  0  0  0  0  0
   39.8620   25.2570   35.4730 H   0  0  0  0  0  0  0  0  0  0  0  0
   38.1490   25.3290   36.0810 H   0  0  0  0  0  0  0  0  0  0  0  0
   40.2420   23.5090   36.9130 H   0  0  0  0  0  0  0  0  0  0  0  0
   37.6980   22.1780   35.9860 H   0  0  0  0  0  0  0  0  0  0  0  0
   39.3460   21.3930   36.3430 H   0  0  0  0  0  0  0  0  0  0  0  0
   40.3380   22.7290   34.5150 H   0  0  0  0  0  0  0  0  0  0  0  0
   38.8550   21.9630   33.8060 H   0  0  0  0  0  0  0  0  0  0  0  0
   37.7380   24.4200   33.4210 C   0  0  0  0  0  0  0  0  0  0  0  0
   37.3230   23.4710   32.4870 C   0  0  0  0  0  0  0  0  0  0  0  0
   36.5070   23.9170   31.4460 C   0  0  0  0  0  0  0  0  0  0  0  0
   36.1760   25.2560   31.4260 N   0  0  0  0  0  0  0  0  0  0  0  0
   36.5970   26.1240   32.3390 C   0  0  0  0  0  0  0  0  0  0  0  0
   37.3830   25.7090   33.3450 N   0  0  0  0  0  0  0  0  0  0  0  0
   37.6090   22.4180   32.5410 H   0  0  0  0  0  0  0  0  0  0  0  0
   36.1400   23.2480   30.6810 H   0  0  0  0  0  0  0  0  0  0  0  0
   36.1200   27.8350   32.2410 S   0  0  0  0  0  0  0  0  0  0  0  0
   36.7580   28.7700   31.0040 C   0  0  0  0  0  0  0  0  0  0  0  0
   36.5400   29.9400   30.3150 C   0  0  0  0  0  0  0  0  0  0  0  0
   35.6560   30.4070   30.7150 H   0  0  0  0  0  0  0  0  0  0  0  0
   37.3140   30.4190   29.3010 C   0  0  0  0  0  3  0  0  0  0  0  0
   38.4910   29.5080   28.9860 C   0  0  0  0  0  3  0  0  0  0  0  0
   38.3210   28.1090   30.1730 S   0  0  0  0  0  0  0  0  0  0  0  0
   38.3790   23.7380   37.9540 C   0  0  0  0  0  0  0  0  0  0  0  0
   38.0210   25.0670   38.0080 F   0  0  0  0  0  0  0  0  0  0  0  0
   39.2400   23.5230   39.0000 F   0  0  0  0  0  0  0  0  0  0  0  0
   37.2950   22.9080   38.0420 F   0  0  0  0  0  0  0  0  0  0  0  0
  1  5  1  0  0  0  0
  1  2  1  0  0  0  0
  2  7  1  0  0  0  0
  2  3  1  0  0  0  0
  3  8  1  1  0  0  0
  3 28  1  0  0  0  0
  4  9  1  0  0  0  0
  4 10  1  0  0  0  0
  4  3  1  0  0  0  0
  5  4  1  0  0  0  0
  6  2  1  0  0  0  0
 11  5  1  0  0  0  0
 12  5  1  0  0  0  0
 13  1  1  0  0  0  0
 14 19  1  0  0  0  0
 14 13  2  0  0  0  0
 15 14  1  0  0  0  0
 16 15  2  0  0  0  0
 16 17  1  0  0  0  0
 17 18  2  0  0  0  0
 18 13  1  0  0  0  0
 20 15  1  0  0  0  0
 21 17  1  0  0  0  0
 22 21  1  0  0  0  0
 23 24  1  0  0  0  0
 23 22  2  0  0  0  0
 25 23  1  0  0  0  0
 26 25  2  0  0  0  0
 26 27  1  0  0  0  0
 27 22  1  0  0  0  0
 28 29  1  0  0  0  0
 28 31  1  0  0  0  0
 28 30  1  0  0  0  0
M  END
>  <minimizedAffinity>
-5.07066584

$$$$
