
 OpenBabel03272510143D

 38 41  0  0  0  0  0  0  0  0999 V2000
   37.0000   27.0850   31.4820 O   0  0  0  0  0  0  0  0  0  0  0  0
   36.1390   22.9810   31.8540 C   0  0  0  0  0  0  0  0  0  0  0  0
   35.3390   23.8090   31.1210 C   0  0  0  0  0  0  0  0  0  0  0  0
   35.5580   25.1500   30.9580 C   0  0  0  0  0  0  0  0  0  0  0  0
   36.6330   25.7500   31.5440 C   0  0  0  0  0  0  0  0  0  0  0  0
   37.4610   24.9150   32.2980 C   0  0  0  0  0  0  0  0  0  0  0  0
   37.2160   23.5990   32.4380 N   0  0  0  0  0  0  0  0  0  0  0  0
   34.4680   23.4050   30.6260 H   0  0  0  0  0  0  0  0  0  0  0  0
   34.9170   25.8000   30.3740 H   0  0  0  0  0  0  0  0  0  0  0  0
   38.3370   25.3100   32.7970 H   0  0  0  0  0  0  0  0  0  0  0  0
   35.6550   21.0040   33.2890 C   0  0  0  0  0  0  0  0  0  0  0  0
   35.9250   21.5800   32.0370 C   0  0  0  0  0  0  0  0  0  0  0  0
   35.9810   20.7300   30.9630 C   0  0  0  0  0  0  0  0  0  0  0  0
   35.7790   19.3890   31.1400 N   0  0  0  0  0  0  0  0  0  0  0  0
   35.5190   18.8840   32.3840 C   0  0  0  0  0  0  0  0  0  0  0  0
   35.4550   19.6850   33.4650 N   0  0  0  0  0  0  0  0  0  0  0  0
   35.6000   21.6290   34.1620 H   0  0  0  0  0  0  0  0  0  0  0  0
   36.1890   21.1410   29.9790 H   0  0  0  0  0  0  0  0  0  0  0  0
   35.3560   17.8240   32.5400 H   0  0  0  0  0  0  0  0  0  0  0  0
   36.0960   28.1100   31.6300 C   0  0  0  0  0  0  0  0  0  0  0  0
   36.3790   29.2280   30.8780 C   0  0  0  0  0  0  0  0  0  0  0  0
   35.3790   30.1710   31.1340 C   0  0  0  0  0  0  0  0  0  0  0  0
   34.5460   29.6150   32.0060 N   0  0  0  0  0  0  0  0  0  0  0  0
   34.9690   28.4220   32.2870 N   0  0  0  0  0  0  0  0  0  0  0  0
   37.1540   29.5340   30.1720 H   0  0  0  0  0  0  0  0  0  0  0  0
   35.2330   31.1740   30.7480 H   0  0  0  0  0  0  0  0  0  0  0  0
   33.3510   30.2100   32.5670 C   0  0  0  0  0  0  0  0  0  0  0  0
   33.3810   31.3090   32.4810 H   0  0  0  0  0  0  0  0  0  0  0  0
   32.4770   29.8030   31.9990 H   0  0  0  0  0  0  0  0  0  0  0  0
   33.2810   29.8850   34.0230 C   0  0  0  0  0  0  0  0  0  0  0  0
   32.1960   29.9910   34.3300 H   0  0  0  0  0  0  0  0  0  0  0  0
   33.4480   28.7730   34.1310 H   0  0  0  0  0  0  0  0  0  0  0  0
   34.1520   30.6480   34.8990 C   0  0  0  0  0  0  0  0  0  0  0  0
   35.5780   31.0090   35.1260 C   0  0  0  0  0  0  0  0  0  0  0  0
   36.1850   30.5380   34.3870 H   0  0  0  0  0  0  0  0  0  0  0  0
   35.7760   31.8370   36.1900 C   0  0  0  0  0  3  0  0  0  0  0  0
   34.7600   32.3100   36.9990 C   0  0  0  0  0  3  0  0  0  0  0  0
   33.2720   31.5810   36.2940 S   0  0  0  0  0  0  0  0  0  0  0  0
  1  5  1  0  0  0  0
  1 20  1  0  0  0  0
  2 12  1  0  0  0  0
  2  7  1  0  0  0  0
  3  2  2  0  0  0  0
  4  3  1  0  0  0  0
  4  5  2  0  0  0  0
  5  6  1  0  0  0  0
  6  7  2  0  0  0  0
  6 10  1  0  0  0  0
  8  3  1  0  0  0  0
  9  4  1  0  0  0  0
 11 16  1  0  0  0  0
 11 17  1  0  0  0  0
 12 11  2  0  0  0  0
 13 14  2  0  0  0  0
 13 12  1  0  0  0  0
 14 15  1  0  0  0  0
 15 19  1  0  0  0  0
 15 16  2  0  0  0  0
 18 13  1  0  0  0  0
 20 24  2  0  0  0  0
 21 22  2  0  0  0  0
 21 20  1  0  0  0  0
 22 23  1  0  0  0  0
 23 24  1  0  0  0  0
 23 27  1  0  0  0  0
 25 21  1  0  0  0  0
 26 22  1  0  0  0  0
 27 30  1  0  0  0  0
 28 27  1  0  0  0  0
 29 27  1  0  0  0  0
 30 32  1  0  0  0  0
 30 31  1  0  0  0  0
 30 33  1  0  0  0  0
 33 34  2  0  0  0  0
 33 38  1  0  0  0  0
 34 36  1  0  0  0  0
 35 34  1  0  0  0  0
 36 37  2  0  0  0  0
 38 37  1  0  0  0  0
M  END
>  <minimizedAffinity>
-5.57429647

$$$$

 OpenBabel03272510143D

 38 41  0  0  0  0  0  0  0  0999 V2000
   36.8220   26.3190   31.5380 O   0  0  0  0  0  0  0  0  0  0  0  0
   35.5490   29.3690   34.1460 C   0  0  0  0  0  0  0  0  0  0  0  0
   36.4880   28.4570   34.5290 C   0  0  0  0  0  0  0  0  0  0  0  0
   36.9480   27.4410   33.7350 C   0  0  0  0  0  0  0  0  0  0  0  0
   36.4690   27.2850   32.4680 C   0  0  0  0  0  0  0  0  0  0  0  0
   35.5060   28.2120   32.0620 C   0  0  0  0  0  0  0  0  0  0  0  0
   35.0760   29.1990   32.8690 N   0  0  0  0  0  0  0  0  0  0  0  0
   36.9140   28.5170   35.5190 H   0  0  0  0  0  0  0  0  0  0  0  0
   37.6940   26.7210   34.0480 H   0  0  0  0  0  0  0  0  0  0  0  0
   35.0730   28.1600   31.0700 H   0  0  0  0  0  0  0  0  0  0  0  0
   35.8930   31.2700   35.7180 C   0  0  0  0  0  0  0  0  0  0  0  0
   35.0560   30.4350   34.9610 C   0  0  0  0  0  0  0  0  0  0  0  0
   33.7090   30.6810   35.0300 C   0  0  0  0  0  0  0  0  0  0  0  0
   33.2390   31.7000   35.8120 N   0  0  0  0  0  0  0  0  0  0  0  0
   34.1020   32.4810   36.5280 C   0  0  0  0  0  0  0  0  0  0  0  0
   35.4330   32.2740   36.4870 N   0  0  0  0  0  0  0  0  0  0  0  0
   36.9570   31.1180   35.6960 H   0  0  0  0  0  0  0  0  0  0  0  0
   33.0310   30.0540   34.4580 H   0  0  0  0  0  0  0  0  0  0  0  0
   33.7450   33.2920   37.1520 H   0  0  0  0  0  0  0  0  0  0  0  0
   36.9490   24.9900   31.8640 C   0  0  0  0  0  0  0  0  0  0  0  0
   36.0970   24.1550   31.1760 C   0  0  0  0  0  0  0  0  0  0  0  0
   36.3430   22.8500   31.6120 C   0  0  0  0  0  0  0  0  0  0  0  0
   37.3070   22.9280   32.5220 N   0  0  0  0  0  0  0  0  0  0  0  0
   37.6510   24.1710   32.6610 N   0  0  0  0  0  0  0  0  0  0  0  0
   35.3190   24.2650   30.4160 H   0  0  0  0  0  0  0  0  0  0  0  0
   35.8910   21.9070   31.3240 H   0  0  0  0  0  0  0  0  0  0  0  0
   37.9030   21.8300   33.2540 C   0  0  0  0  0  0  0  0  0  0  0  0
   37.6370   20.8620   32.7960 H   0  0  0  0  0  0  0  0  0  0  0  0
   39.0120   21.9760   33.2310 H   0  0  0  0  0  0  0  0  0  0  0  0
   37.3610   21.8210   34.6460 C   0  0  0  0  0  0  0  0  0  0  0  0
   36.4430   22.4840   34.6430 H   0  0  0  0  0  0  0  0  0  0  0  0
   36.9130   20.8000   34.8290 H   0  0  0  0  0  0  0  0  0  0  0  0
   38.2830   22.2030   35.7010 C   0  0  0  0  0  0  0  0  0  0  0  0
   39.7200   22.1670   36.0860 C   0  0  0  0  0  0  0  0  0  0  0  0
   40.2800   21.6840   35.3170 H   0  0  0  0  0  0  0  0  0  0  0  0
   39.9850   22.7440   37.2910 C   0  0  0  0  0  3  0  0  0  0  0  0
   39.0220   23.3170   38.1000 C   0  0  0  0  0  3  0  0  0  0  0  0
   37.4920   23.0920   37.1760 S   0  0  0  0  0  0  0  0  0  0  0  0
  1 20  1  0  0  0  0
  1  5  1  0  0  0  0
  2  3  1  0  0  0  0
  2 12  1  0  0  0  0
  3  8  1  0  0  0  0
  4  9  1  0  0  0  0
  4  3  2  0  0  0  0
  5  4  1  0  0  0  0
  6  5  2  0  0  0  0
  6  7  1  0  0  0  0
  7  2  2  0  0  0  0
 10  6  1  0  0  0  0
 11 16  1  0  0  0  0
 12 13  1  0  0  0  0
 12 11  2  0  0  0  0
 13 14  2  0  0  0  0
 14 15  1  0  0  0  0
 15 19  1  0  0  0  0
 16 15  2  0  0  0  0
 17 11  1  0  0  0  0
 18 13  1  0  0  0  0
 20 24  2  0  0  0  0
 21 22  2  0  0  0  0
 21 20  1  0  0  0  0
 22 23  1  0  0  0  0
 23 24  1  0  0  0  0
 23 27  1  0  0  0  0
 25 21  1  0  0  0  0
 26 22  1  0  0  0  0
 27 30  1  0  0  0  0
 28 27  1  0  0  0  0
 29 27  1  0  0  0  0
 30 32  1  0  0  0  0
 30 33  1  0  0  0  0
 31 30  1  0  0  0  0
 33 34  2  0  0  0  0
 33 38  1  0  0  0  0
 34 36  1  0  0  0  0
 35 34  1  0  0  0  0
 36 37  2  0  0  0  0
 38 37  1  0  0  0  0
M  END
>  <minimizedAffinity>
-5.52674675

$$$$

 OpenBabel03272510143D

 38 41  0  0  0  0  0  0  0  0999 V2000
   37.1960   26.6920   31.6440 O   0  0  0  0  0  0  0  0  0  0  0  0
   36.3050   22.5800   31.7980 C   0  0  0  0  0  0  0  0  0  0  0  0
   35.3620   23.4950   31.4320 C   0  0  0  0  0  0  0  0  0  0  0  0
   35.5810   24.8440   31.3600 C   0  0  0  0  0  0  0  0  0  0  0  0
   36.8060   25.3620   31.6630 C   0  0  0  0  0  0  0  0  0  0  0  0
   37.7820   24.4360   32.0400 C   0  0  0  0  0  0  0  0  0  0  0  0
   37.5320   23.1160   32.1000 N   0  0  0  0  0  0  0  0  0  0  0  0
   34.3680   23.1600   31.1760 H   0  0  0  0  0  0  0  0  0  0  0  0
   34.8260   25.5650   31.0680 H   0  0  0  0  0  0  0  0  0  0  0  0
   38.7820   24.7620   32.2980 H   0  0  0  0  0  0  0  0  0  0  0  0
   36.3180   20.2980   30.8000 C   0  0  0  0  0  0  0  0  0  0  0  0
   36.0950   21.1690   31.8790 C   0  0  0  0  0  0  0  0  0  0  0  0
   35.6550   20.6050   33.0490 C   0  0  0  0  0  0  0  0  0  0  0  0
   35.4520   19.2550   33.1250 N   0  0  0  0  0  0  0  0  0  0  0  0
   35.6860   18.4560   32.0410 C   0  0  0  0  0  0  0  0  0  0  0  0
   36.1190   18.9690   30.8730 N   0  0  0  0  0  0  0  0  0  0  0  0
   36.6640   20.6910   29.8610 H   0  0  0  0  0  0  0  0  0  0  0  0
   35.4720   21.2500   33.9050 H   0  0  0  0  0  0  0  0  0  0  0  0
   35.5300   17.3840   32.0860 H   0  0  0  0  0  0  0  0  0  0  0  0
   36.7600   27.6060   32.5740 C   0  0  0  0  0  0  0  0  0  0  0  0
   37.0350   27.2610   33.8780 C   0  0  0  0  0  0  0  0  0  0  0  0
   36.5360   28.2780   34.6960 C   0  0  0  0  0  0  0  0  0  0  0  0
   35.9890   29.1810   33.8900 N   0  0  0  0  0  0  0  0  0  0  0  0
   36.1240   28.7830   32.6630 N   0  0  0  0  0  0  0  0  0  0  0  0
   37.5220   26.4290   34.3940 H   0  0  0  0  0  0  0  0  0  0  0  0
   36.5460   28.3920   35.7750 H   0  0  0  0  0  0  0  0  0  0  0  0
   35.3460   30.4180   34.2810 C   0  0  0  0  0  0  0  0  0  0  0  0
   35.5230   31.2070   33.5300 H   0  0  0  0  0  0  0  0  0  0  0  0
   34.2500   30.2110   34.3730 H   0  0  0  0  0  0  0  0  0  0  0  0
   35.9430   30.8940   35.5660 C   0  0  0  0  0  0  0  0  0  0  0  0
   36.0180   29.9900   36.2440 H   0  0  0  0  0  0  0  0  0  0  0  0
   37.0290   31.1310   35.3680 H   0  0  0  0  0  0  0  0  0  0  0  0
   35.2620   31.9930   36.2260 C   0  0  0  0  0  0  0  0  0  0  0  0
   34.2220   32.2980   37.2460 C   0  0  0  0  0  0  0  0  0  0  0  0
   33.8260   31.3850   37.6310 H   0  0  0  0  0  0  0  0  0  0  0  0
   34.0220   33.6300   37.4510 C   0  0  0  0  0  3  0  0  0  0  0  0
   34.7110   34.6250   36.7840 C   0  0  0  0  0  3  0  0  0  0  0  0
   35.8220   33.7220   35.6910 S   0  0  0  0  0  0  0  0  0  0  0  0
  1  5  1  0  0  0  0
  1 20  1  0  0  0  0
  2 12  1  0  0  0  0
  2  7  1  0  0  0  0
  3  2  2  0  0  0  0
  4  3  1  0  0  0  0
  4  5  2  0  0  0  0
  5  6  1  0  0  0  0
  6  7  2  0  0  0  0
  6 10  1  0  0  0  0
  8  3  1  0  0  0  0
  9  4  1  0  0  0  0
 11 16  2  0  0  0  0
 11 12  1  0  0  0  0
 12 13  2  0  0  0  0
 13 14  1  0  0  0  0
 13 18  1  0  0  0  0
 15 19  1  0  0  0  0
 15 14  2  0  0  0  0
 16 15  1  0  0  0  0
 17 11  1  0  0  0  0
 20 24  2  0  0  0  0
 20 21  1  0  0  0  0
 21 25  1  0  0  0  0
 21 22  2  0  0  0  0
 22 26  1  0  0  0  0
 23 27  1  0  0  0  0
 23 22  1  0  0  0  0
 24 23  1  0  0  0  0
 27 29  1  0  0  0  0
 27 30  1  0  0  0  0
 28 27  1  0  0  0  0
 30 33  1  0  0  0  0
 30 31  1  0  0  0  0
 32 30  1  0  0  0  0
 33 34  2  0  0  0  0
 34 36  1  0  0  0  0
 34 35  1  0  0  0  0
 37 36  2  0  0  0  0
 38 33  1  0  0  0  0
 38 37  1  0  0  0  0
M  END
>  <minimizedAffinity>
-5.49084806

$$$$

 OpenBabel03272510143D

 38 41  0  0  0  0  0  0  0  0999 V2000
   36.4870   27.3690   31.7500 O   0  0  0  0  0  0  0  0  0  0  0  0
   38.0930   25.2150   34.9910 C   0  0  0  0  0  0  0  0  0  0  0  0
   37.6720   26.5040   35.1370 C   0  0  0  0  0  0  0  0  0  0  0  0
   37.1400   27.2630   34.1300 C   0  0  0  0  0  0  0  0  0  0  0  0
   37.0010   26.7450   32.8760 C   0  0  0  0  0  0  0  0  0  0  0  0
   37.4290   25.4250   32.7110 C   0  0  0  0  0  0  0  0  0  0  0  0
   37.9470   24.7080   33.7240 N   0  0  0  0  0  0  0  0  0  0  0  0
   37.7500   26.9820   36.1020 H   0  0  0  0  0  0  0  0  0  0  0  0
   36.8080   28.2870   34.2550 H   0  0  0  0  0  0  0  0  0  0  0  0
   37.3530   24.9370   31.7470 H   0  0  0  0  0  0  0  0  0  0  0  0
   38.0670   24.2860   37.3020 C   0  0  0  0  0  0  0  0  0  0  0  0
   38.6510   24.4080   36.0300 C   0  0  0  0  0  0  0  0  0  0  0  0
   39.8100   23.7080   35.8110 C   0  0  0  0  0  0  0  0  0  0  0  0
   40.3430   22.9380   36.8070 N   0  0  0  0  0  0  0  0  0  0  0  0
   39.7300   22.8580   38.0260 C   0  0  0  0  0  0  0  0  0  0  0  0
   38.5900   23.5280   38.2830 N   0  0  0  0  0  0  0  0  0  0  0  0
   37.1580   24.8150   37.5230 H   0  0  0  0  0  0  0  0  0  0  0  0
   40.2890   23.7800   34.8380 H   0  0  0  0  0  0  0  0  0  0  0  0
   40.1410   22.2510   38.8250 H   0  0  0  0  0  0  0  0  0  0  0  0
   35.6640   28.4680   31.8230 C   0  0  0  0  0  0  0  0  0  0  0  0
   36.0860   29.5410   31.0710 C   0  0  0  0  0  0  0  0  0  0  0  0
   35.1550   30.5700   31.2470 C   0  0  0  0  0  0  0  0  0  0  0  0
   34.2260   30.1050   32.0740 N   0  0  0  0  0  0  0  0  0  0  0  0
   34.5300   28.8870   32.4030 N   0  0  0  0  0  0  0  0  0  0  0  0
   36.9260   29.7670   30.4090 H   0  0  0  0  0  0  0  0  0  0  0  0
   35.1170   31.5720   30.8350 H   0  0  0  0  0  0  0  0  0  0  0  0
   33.0540   30.8100   32.5490 C   0  0  0  0  0  0  0  0  0  0  0  0
   33.0870   31.8720   32.2550 H   0  0  0  0  0  0  0  0  0  0  0  0
   32.1590   30.3120   32.0960 H   0  0  0  0  0  0  0  0  0  0  0  0
   33.0300   30.7680   34.0420 C   0  0  0  0  0  0  0  0  0  0  0  0
   32.0820   31.2950   34.3680 H   0  0  0  0  0  0  0  0  0  0  0  0
   32.8230   29.7000   34.3480 H   0  0  0  0  0  0  0  0  0  0  0  0
   34.1930   31.3080   34.7220 C   0  0  0  0  0  0  0  0  0  0  0  0
   35.5310   30.9340   35.2550 C   0  0  0  0  0  0  0  0  0  0  0  0
   35.7030   29.8960   35.0820 H   0  0  0  0  0  0  0  0  0  0  0  0
   36.2120   31.9710   35.8190 C   0  0  0  0  0  3  0  0  0  0  0  0
   35.7230   33.2610   35.9010 C   0  0  0  0  0  3  0  0  0  0  0  0
   34.1020   33.1590   35.1230 S   0  0  0  0  0  0  0  0  0  0  0  0
  1 20  1  0  0  0  0
  1  5  1  0  0  0  0
  2  3  1  0  0  0  0
  2 12  1  0  0  0  0
  3  8  1  0  0  0  0
  4  9  1  0  0  0  0
  4  3  2  0  0  0  0
  5  4  1  0  0  0  0
  6  5  2  0  0  0  0
  6  7  1  0  0  0  0
  7  2  2  0  0  0  0
 10  6  1  0  0  0  0
 11 17  1  0  0  0  0
 11 16  1  0  0  0  0
 12 11  2  0  0  0  0
 13 12  1  0  0  0  0
 13 14  2  0  0  0  0
 14 15  1  0  0  0  0
 15 16  2  0  0  0  0
 15 19  1  0  0  0  0
 18 13  1  0  0  0  0
 20 24  2  0  0  0  0
 21 22  2  0  0  0  0
 21 20  1  0  0  0  0
 22 23  1  0  0  0  0
 23 24  1  0  0  0  0
 23 27  1  0  0  0  0
 25 21  1  0  0  0  0
 26 22  1  0  0  0  0
 27 30  1  0  0  0  0
 28 27  1  0  0  0  0
 29 27  1  0  0  0  0
 30 32  1  0  0  0  0
 30 31  1  0  0  0  0
 30 33  1  0  0  0  0
 33 38  1  0  0  0  0
 33 34  2  0  0  0  0
 34 36  1  0  0  0  0
 35 34  1  0  0  0  0
 36 37  2  0  0  0  0
 38 37  1  0  0  0  0
M  END
>  <minimizedAffinity>
-5.41757917

$$$$

 OpenBabel03272510143D

 38 41  0  0  0  0  0  0  0  0999 V2000
   36.3050   27.6710   31.0570 O   0  0  0  0  0  0  0  0  0  0  0  0
   35.0350   30.0570   34.2840 C   0  0  0  0  0  0  0  0  0  0  0  0
   35.9490   29.0600   34.4580 C   0  0  0  0  0  0  0  0  0  0  0  0
   36.4060   28.2470   33.4570 C   0  0  0  0  0  0  0  0  0  0  0  0
   35.9510   28.4010   32.1810 C   0  0  0  0  0  0  0  0  0  0  0  0
   35.0140   29.4190   31.9870 C   0  0  0  0  0  0  0  0  0  0  0  0
   34.5860   30.2000   32.9950 N   0  0  0  0  0  0  0  0  0  0  0  0
   36.3560   28.8780   35.4420 H   0  0  0  0  0  0  0  0  0  0  0  0
   37.1330   27.4560   33.6040 H   0  0  0  0  0  0  0  0  0  0  0  0
   34.6010   29.6100   31.0040 H   0  0  0  0  0  0  0  0  0  0  0  0
   33.1790   31.0650   35.6040 C   0  0  0  0  0  0  0  0  0  0  0  0
   34.5460   30.9150   35.3180 C   0  0  0  0  0  0  0  0  0  0  0  0
   35.4220   31.6400   36.0820 C   0  0  0  0  0  0  0  0  0  0  0  0
   34.9510   32.4620   37.0690 N   0  0  0  0  0  0  0  0  0  0  0  0
   33.6090   32.5680   37.3030 C   0  0  0  0  0  0  0  0  0  0  0  0
   32.7140   31.8720   36.5750 N   0  0  0  0  0  0  0  0  0  0  0  0
   32.4520   30.5160   35.0330 H   0  0  0  0  0  0  0  0  0  0  0  0
   36.4870   31.5490   35.8880 H   0  0  0  0  0  0  0  0  0  0  0  0
   33.2210   33.2140   38.0820 H   0  0  0  0  0  0  0  0  0  0  0  0
   36.3390   26.2960   31.0470 C   0  0  0  0  0  0  0  0  0  0  0  0
   37.6020   25.7620   30.9320 C   0  0  0  0  0  0  0  0  0  0  0  0
   37.4720   24.3700   30.9370 C   0  0  0  0  0  0  0  0  0  0  0  0
   36.1750   24.1090   31.0520 N   0  0  0  0  0  0  0  0  0  0  0  0
   35.5270   25.2310   31.1150 N   0  0  0  0  0  0  0  0  0  0  0  0
   38.6220   26.1460   30.8420 H   0  0  0  0  0  0  0  0  0  0  0  0
   38.2190   23.5870   30.8670 H   0  0  0  0  0  0  0  0  0  0  0  0
   35.5530   22.8030   31.1070 C   0  0  0  0  0  0  0  0  0  0  0  0
   34.4560   22.8920   31.1680 H   0  0  0  0  0  0  0  0  0  0  0  0
   35.8450   22.2550   30.1750 H   0  0  0  0  0  0  0  0  0  0  0  0
   36.0060   22.0980   32.3440 C   0  0  0  0  0  0  0  0  0  0  0  0
   37.0560   22.4620   32.5610 H   0  0  0  0  0  0  0  0  0  0  0  0
   35.4250   22.5290   33.2120 H   0  0  0  0  0  0  0  0  0  0  0  0
   35.9450   20.6480   32.3210 C   0  0  0  0  0  0  0  0  0  0  0  0
   35.4760   19.4720   33.1010 C   0  0  0  0  0  0  0  0  0  0  0  0
   35.0240   19.8060   34.0080 H   0  0  0  0  0  0  0  0  0  0  0  0
   35.7180   18.2740   32.4980 C   0  0  0  0  0  3  0  0  0  0  0  0
   36.3420   18.1410   31.2720 C   0  0  0  0  0  3  0  0  0  0  0  0
   36.6930   19.8380   30.7790 S   0  0  0  0  0  0  0  0  0  0  0  0
  1  5  1  0  0  0  0
  2  3  1  0  0  0  0
  2 12  1  0  0  0  0
  3  8  1  0  0  0  0
  4  9  1  0  0  0  0
  4  3  2  0  0  0  0
  5  4  1  0  0  0  0
  6  5  2  0  0  0  0
  6  7  1  0  0  0  0
  7  2  2  0  0  0  0
 10  6  1  0  0  0  0
 11 16  1  0  0  0  0
 12 11  2  0  0  0  0
 12 13  1  0  0  0  0
 13 14  2  0  0  0  0
 14 15  1  0  0  0  0
 15 19  1  0  0  0  0
 16 15  2  0  0  0  0
 17 11  1  0  0  0  0
 18 13  1  0  0  0  0
 20  1  1  0  0  0  0
 20 24  2  0  0  0  0
 21 22  2  0  0  0  0
 21 20  1  0  0  0  0
 22 23  1  0  0  0  0
 23 27  1  0  0  0  0
 23 24  1  0  0  0  0
 25 21  1  0  0  0  0
 26 22  1  0  0  0  0
 27 28  1  0  0  0  0
 27 30  1  0  0  0  0
 29 27  1  0  0  0  0
 30 31  1  0  0  0  0
 30 32  1  0  0  0  0
 33 30  1  0  0  0  0
 33 34  2  0  0  0  0
 34 35  1  0  0  0  0
 36 34  1  0  0  0  0
 37 36  2  0  0  0  0
 38 37  1  0  0  0  0
 38 33  1  0  0  0  0
M  END
>  <minimizedAffinity>
-5.3681426

$$$$

 OpenBabel03272510143D

 38 41  0  0  0  0  0  0  0  0999 V2000
   36.5170   27.2440   31.7430 O   0  0  0  0  0  0  0  0  0  0  0  0
   36.0370   23.0640   31.8600 C   0  0  0  0  0  0  0  0  0  0  0  0
   35.1580   23.8580   31.1850 C   0  0  0  0  0  0  0  0  0  0  0  0
   35.2520   25.2210   31.1040 C   0  0  0  0  0  0  0  0  0  0  0  0
   36.2740   25.8800   31.7230 C   0  0  0  0  0  0  0  0  0  0  0  0
   37.1820   25.0780   32.4180 C   0  0  0  0  0  0  0  0  0  0  0  0
   37.0590   23.7400   32.4770 N   0  0  0  0  0  0  0  0  0  0  0  0
   34.3230   23.4080   30.6690 H   0  0  0  0  0  0  0  0  0  0  0  0
   34.5490   25.8450   30.5660 H   0  0  0  0  0  0  0  0  0  0  0  0
   38.0240   25.5210   32.9380 H   0  0  0  0  0  0  0  0  0  0  0  0
   35.5730   20.9720   33.1310 C   0  0  0  0  0  0  0  0  0  0  0  0
   35.9540   21.6400   31.9550 C   0  0  0  0  0  0  0  0  0  0  0  0
   36.2540   20.8590   30.8690 C   0  0  0  0  0  0  0  0  0  0  0  0
   36.1760   19.4970   30.9630 N   0  0  0  0  0  0  0  0  0  0  0  0
   35.8000   18.9020   32.1340 C   0  0  0  0  0  0  0  0  0  0  0  0
   35.4950   19.6320   33.2250 N   0  0  0  0  0  0  0  0  0  0  0  0
   35.3270   21.5400   34.0100 H   0  0  0  0  0  0  0  0  0  0  0  0
   36.5530   21.3420   29.9430 H   0  0  0  0  0  0  0  0  0  0  0  0
   35.7330   17.8240   32.2240 H   0  0  0  0  0  0  0  0  0  0  0  0
   35.7480   28.1230   32.4680 C   0  0  0  0  0  0  0  0  0  0  0  0
   36.2580   28.4320   33.7080 C   0  0  0  0  0  0  0  0  0  0  0  0
   35.3730   29.3270   34.3160 C   0  0  0  0  0  0  0  0  0  0  0  0
   34.3830   29.5280   33.4540 N   0  0  0  0  0  0  0  0  0  0  0  0
   34.6090   28.8260   32.3870 N   0  0  0  0  0  0  0  0  0  0  0  0
   37.1390   28.1600   34.2950 H   0  0  0  0  0  0  0  0  0  0  0  0
   35.4050   29.8090   35.2870 H   0  0  0  0  0  0  0  0  0  0  0  0
   33.2300   30.3830   33.6390 C   0  0  0  0  0  0  0  0  0  0  0  0
   33.2240   30.8230   34.6510 H   0  0  0  0  0  0  0  0  0  0  0  0
   33.2870   31.1920   32.8670 H   0  0  0  0  0  0  0  0  0  0  0  0
   31.9870   29.5630   33.5090 C   0  0  0  0  0  0  0  0  0  0  0  0
   31.1860   30.2490   33.0960 H   0  0  0  0  0  0  0  0  0  0  0  0
   32.1450   28.8430   32.6530 H   0  0  0  0  0  0  0  0  0  0  0  0
   31.5330   28.8840   34.7090 C   0  0  0  0  0  0  0  0  0  0  0  0
   30.7910   27.6830   35.1790 C   0  0  0  0  0  0  0  0  0  0  0  0
   30.4720   27.1120   34.3370 H   0  0  0  0  0  0  0  0  0  0  0  0
   30.6960   27.5860   36.5350 C   0  0  0  0  0  3  0  0  0  0  0  0
   31.2310   28.5090   37.4130 C   0  0  0  0  0  3  0  0  0  0  0  0
   32.0020   29.7320   36.3380 S   0  0  0  0  0  0  0  0  0  0  0  0
  1 20  1  0  0  0  0
  2 12  1  0  0  0  0
  2  7  1  0  0  0  0
  3  2  2  0  0  0  0
  4  3  1  0  0  0  0
  4  5  2  0  0  0  0
  5  1  1  0  0  0  0
  5  6  1  0  0  0  0
  6  7  2  0  0  0  0
  6 10  1  0  0  0  0
  8  3  1  0  0  0  0
  9  4  1  0  0  0  0
 11 16  1  0  0  0  0
 11 17  1  0  0  0  0
 12 11  2  0  0  0  0
 13 14  2  0  0  0  0
 13 12  1  0  0  0  0
 14 15  1  0  0  0  0
 15 19  1  0  0  0  0
 15 16  2  0  0  0  0
 18 13  1  0  0  0  0
 20 21  1  0  0  0  0
 21 25  1  0  0  0  0
 21 22  2  0  0  0  0
 22 26  1  0  0  0  0
 23 27  1  0  0  0  0
 23 22  1  0  0  0  0
 24 20  2  0  0  0  0
 24 23  1  0  0  0  0
 27 28  1  0  0  0  0
 29 27  1  0  0  0  0
 30 27  1  0  0  0  0
 30 33  1  0  0  0  0
 31 30  1  0  0  0  0
 32 30  1  0  0  0  0
 33 34  2  0  0  0  0
 33 38  1  0  0  0  0
 34 36  1  0  0  0  0
 35 34  1  0  0  0  0
 36 37  2  0  0  0  0
 38 37  1  0  0  0  0
M  END
>  <minimizedAffinity>
-5.33841801

$$$$

 OpenBabel03272510143D

 38 41  0  0  0  0  0  0  0  0999 V2000
   36.3330   28.1220   32.7650 O   0  0  0  0  0  0  0  0  0  0  0  0
   38.2810   25.4190   35.3380 C   0  0  0  0  0  0  0  0  0  0  0  0
   38.0450   26.7090   35.7140 C   0  0  0  0  0  0  0  0  0  0  0  0
   37.4180   27.6400   34.9310 C   0  0  0  0  0  0  0  0  0  0  0  0
   36.9810   27.3090   33.6820 C   0  0  0  0  0  0  0  0  0  0  0  0
   37.2170   25.9920   33.2830 C   0  0  0  0  0  0  0  0  0  0  0  0
   37.8360   25.1010   34.0790 N   0  0  0  0  0  0  0  0  0  0  0  0
   38.3620   27.0440   36.6900 H   0  0  0  0  0  0  0  0  0  0  0  0
   37.2340   28.6630   35.2380 H   0  0  0  0  0  0  0  0  0  0  0  0
   36.9020   25.6450   32.3060 H   0  0  0  0  0  0  0  0  0  0  0  0
   38.4390   24.0080   37.3840 C   0  0  0  0  0  0  0  0  0  0  0  0
   38.9350   24.4340   36.1410 C   0  0  0  0  0  0  0  0  0  0  0  0
   40.1020   23.8580   35.7100 C   0  0  0  0  0  0  0  0  0  0  0  0
   40.7260   22.9160   36.4800 N   0  0  0  0  0  0  0  0  0  0  0  0
   40.1970   22.5410   37.6830 C   0  0  0  0  0  0  0  0  0  0  0  0
   39.0520   23.0810   38.1440 N   0  0  0  0  0  0  0  0  0  0  0  0
   37.5260   24.4290   37.7660 H   0  0  0  0  0  0  0  0  0  0  0  0
   40.5150   24.1640   34.7520 H   0  0  0  0  0  0  0  0  0  0  0  0
   40.6800   21.7960   38.3050 H   0  0  0  0  0  0  0  0  0  0  0  0
   35.4000   29.0610   33.1370 C   0  0  0  0  0  0  0  0  0  0  0  0
   34.9020   29.8080   32.0930 C   0  0  0  0  0  0  0  0  0  0  0  0
   33.9740   30.7080   32.6250 C   0  0  0  0  0  0  0  0  0  0  0  0
   33.9380   30.4880   33.9340 N   0  0  0  0  0  0  0  0  0  0  0  0
   34.7670   29.5320   34.2200 N   0  0  0  0  0  0  0  0  0  0  0  0
   35.0520   29.8610   31.0110 H   0  0  0  0  0  0  0  0  0  0  0  0
   33.3640   31.4650   32.1450 H   0  0  0  0  0  0  0  0  0  0  0  0
   33.1180   31.1760   34.9080 C   0  0  0  0  0  0  0  0  0  0  0  0
   33.3880   30.8750   35.9340 H   0  0  0  0  0  0  0  0  0  0  0  0
   33.2870   32.2740   34.7710 H   0  0  0  0  0  0  0  0  0  0  0  0
   31.6880   30.7940   34.7010 C   0  0  0  0  0  0  0  0  0  0  0  0
   31.0610   31.5920   35.2020 H   0  0  0  0  0  0  0  0  0  0  0  0
   31.4490   30.9570   33.6090 H   0  0  0  0  0  0  0  0  0  0  0  0
   31.3040   29.4660   35.1450 C   0  0  0  0  0  0  0  0  0  0  0  0
   30.7170   28.1840   34.6700 C   0  0  0  0  0  0  0  0  0  0  0  0
   30.4920   28.2610   33.6300 H   0  0  0  0  0  0  0  0  0  0  0  0
   30.6100   27.2320   35.6390 C   0  0  0  0  0  3  0  0  0  0  0  0
   31.0020   27.4180   36.9510 C   0  0  0  0  0  3  0  0  0  0  0  0
   31.6270   29.1080   36.9780 S   0  0  0  0  0  0  0  0  0  0  0  0
  1 20  1  0  0  0  0
  1  5  1  0  0  0  0
  2  3  1  0  0  0  0
  2 12  1  0  0  0  0
  3  8  1  0  0  0  0
  4  9  1  0  0  0  0
  4  3  2  0  0  0  0
  5  4  1  0  0  0  0
  6  5  2  0  0  0  0
  6  7  1  0  0  0  0
  7  2  2  0  0  0  0
 10  6  1  0  0  0  0
 11 17  1  0  0  0  0
 11 16  1  0  0  0  0
 12 11  2  0  0  0  0
 13 12  1  0  0  0  0
 13 14  2  0  0  0  0
 14 15  1  0  0  0  0
 15 16  2  0  0  0  0
 15 19  1  0  0  0  0
 18 13  1  0  0  0  0
 20 24  2  0  0  0  0
 21 22  2  0  0  0  0
 21 20  1  0  0  0  0
 22 23  1  0  0  0  0
 23 24  1  0  0  0  0
 23 27  1  0  0  0  0
 25 21  1  0  0  0  0
 26 22  1  0  0  0  0
 27 28  1  0  0  0  0
 29 27  1  0  0  0  0
 30 27  1  0  0  0  0
 30 33  1  0  0  0  0
 30 31  1  0  0  0  0
 32 30  1  0  0  0  0
 33 38  1  0  0  0  0
 34 33  2  0  0  0  0
 34 36  1  0  0  0  0
 35 34  1  0  0  0  0
 36 37  2  0  0  0  0
 37 38  1  0  0  0  0
M  END
>  <minimizedAffinity>
-5.33695126

$$$$

 OpenBabel03272510143D

 38 41  0  0  0  0  0  0  0  0999 V2000
   36.9750   26.6850   31.6250 O   0  0  0  0  0  0  0  0  0  0  0  0
   35.3300   29.6160   34.1610 C   0  0  0  0  0  0  0  0  0  0  0  0
   34.9520   29.5170   32.8540 C   0  0  0  0  0  0  0  0  0  0  0  0
   35.4430   28.5910   31.9750 C   0  0  0  0  0  0  0  0  0  0  0  0
   36.3760   27.6820   32.3790 C   0  0  0  0  0  0  0  0  0  0  0  0
   36.7740   27.7710   33.7150 C   0  0  0  0  0  0  0  0  0  0  0  0
   36.2690   28.6950   34.5530 N   0  0  0  0  0  0  0  0  0  0  0  0
   34.2160   30.2030   32.4610 H   0  0  0  0  0  0  0  0  0  0  0  0
   35.1360   28.5200   30.9370 H   0  0  0  0  0  0  0  0  0  0  0  0
   37.5110   27.0880   34.1190 H   0  0  0  0  0  0  0  0  0  0  0  0
   35.6630   31.3600   35.9070 C   0  0  0  0  0  0  0  0  0  0  0  0
   34.8290   30.5760   35.0930 C   0  0  0  0  0  0  0  0  0  0  0  0
   33.4780   30.7660   35.2260 C   0  0  0  0  0  0  0  0  0  0  0  0
   33.0000   31.6840   36.1200 N   0  0  0  0  0  0  0  0  0  0  0  0
   33.8600   32.4190   36.8870 C   0  0  0  0  0  0  0  0  0  0  0  0
   35.1950   32.2640   36.7870 N   0  0  0  0  0  0  0  0  0  0  0  0
   36.7300   31.2490   35.8400 H   0  0  0  0  0  0  0  0  0  0  0  0
   32.8030   30.1760   34.6120 H   0  0  0  0  0  0  0  0  0  0  0  0
   33.4970   33.1500   37.6000 H   0  0  0  0  0  0  0  0  0  0  0  0
   37.7850   25.7230   32.1790 C   0  0  0  0  0  0  0  0  0  0  0  0
   39.1170   25.8480   31.8520 C   0  0  0  0  0  0  0  0  0  0  0  0
   39.8050   24.8090   32.4850 C   0  0  0  0  0  0  0  0  0  0  0  0
   38.9000   24.1070   33.1570 N   0  0  0  0  0  0  0  0  0  0  0  0
   37.7340   24.6440   32.9740 N   0  0  0  0  0  0  0  0  0  0  0  0
   39.7270   26.5260   31.2490 H   0  0  0  0  0  0  0  0  0  0  0  0
   40.8590   24.5510   32.4850 H   0  0  0  0  0  0  0  0  0  0  0  0
   39.1400   22.9350   33.9720 C   0  0  0  0  0  0  0  0  0  0  0  0
   38.2150   22.6120   34.4790 H   0  0  0  0  0  0  0  0  0  0  0  0
   39.5110   22.1260   33.2930 H   0  0  0  0  0  0  0  0  0  0  0  0
   40.1290   23.2760   35.0380 C   0  0  0  0  0  0  0  0  0  0  0  0
   40.9740   22.5270   34.9520 H   0  0  0  0  0  0  0  0  0  0  0  0
   40.6370   24.2390   34.7350 H   0  0  0  0  0  0  0  0  0  0  0  0
   39.6190   23.3400   36.3960 C   0  0  0  0  0  0  0  0  0  0  0  0
   39.8370   22.8050   37.7670 C   0  0  0  0  0  0  0  0  0  0  0  0
   40.6600   22.1270   37.7560 H   0  0  0  0  0  0  0  0  0  0  0  0
   38.9680   23.2920   38.6960 C   0  0  0  0  0  3  0  0  0  0  0  0
   37.9650   24.2010   38.4130 C   0  0  0  0  0  3  0  0  0  0  0  0
   38.1450   24.5050   36.6460 S   0  0  0  0  0  0  0  0  0  0  0  0
  1 20  1  0  0  0  0
  1  5  1  0  0  0  0
  2  7  1  0  0  0  0
  2 12  1  0  0  0  0
  3  2  2  0  0  0  0
  4  5  2  0  0  0  0
  4  3  1  0  0  0  0
  5  6  1  0  0  0  0
  6 10  1  0  0  0  0
  6  7  2  0  0  0  0
  8  3  1  0  0  0  0
  9  4  1  0  0  0  0
 11 16  1  0  0  0  0
 12 13  1  0  0  0  0
 12 11  2  0  0  0  0
 13 14  2  0  0  0  0
 14 15  1  0  0  0  0
 15 19  1  0  0  0  0
 16 15  2  0  0  0  0
 17 11  1  0  0  0  0
 18 13  1  0  0  0  0
 20 24  2  0  0  0  0
 21 20  1  0  0  0  0
 21 22  2  0  0  0  0
 22 23  1  0  0  0  0
 23 27  1  0  0  0  0
 24 23  1  0  0  0  0
 25 21  1  0  0  0  0
 26 22  1  0  0  0  0
 27 28  1  0  0  0  0
 27 30  1  0  0  0  0
 29 27  1  0  0  0  0
 30 33  1  0  0  0  0
 31 30  1  0  0  0  0
 32 30  1  0  0  0  0
 33 38  1  0  0  0  0
 33 34  2  0  0  0  0
 34 36  1  0  0  0  0
 35 34  1  0  0  0  0
 37 36  2  0  0  0  0
 38 37  1  0  0  0  0
M  END
>  <minimizedAffinity>
-5.24636126

$$$$

 OpenBabel03272510143D

 38 41  0  0  0  0  0  0  0  0999 V2000
   37.1950   26.6630   31.9160 O   0  0  0  0  0  0  0  0  0  0  0  0
   36.2980   22.5500   31.9500 C   0  0  0  0  0  0  0  0  0  0  0  0
   35.5090   23.4410   31.2840 C   0  0  0  0  0  0  0  0  0  0  0  0
   35.7400   24.7890   31.2300 C   0  0  0  0  0  0  0  0  0  0  0  0
   36.8170   25.3300   31.8680 C   0  0  0  0  0  0  0  0  0  0  0  0
   37.6340   24.4300   32.5550 C   0  0  0  0  0  0  0  0  0  0  0  0
   37.3780   23.1090   32.5870 N   0  0  0  0  0  0  0  0  0  0  0  0
   34.6380   23.0860   30.7540 H   0  0  0  0  0  0  0  0  0  0  0  0
   35.1070   25.4900   30.6980 H   0  0  0  0  0  0  0  0  0  0  0  0
   38.5110   24.7760   33.0890 H   0  0  0  0  0  0  0  0  0  0  0  0
   36.2810   20.2780   30.9280 C   0  0  0  0  0  0  0  0  0  0  0  0
   36.0730   21.1400   32.0170 C   0  0  0  0  0  0  0  0  0  0  0  0
   35.6330   20.5690   33.1830 C   0  0  0  0  0  0  0  0  0  0  0  0
   35.4160   19.2200   33.2450 N   0  0  0  0  0  0  0  0  0  0  0  0
   35.6350   18.4300   32.1510 C   0  0  0  0  0  0  0  0  0  0  0  0
   36.0690   18.9510   30.9870 N   0  0  0  0  0  0  0  0  0  0  0  0
   36.6270   20.6780   29.9910 H   0  0  0  0  0  0  0  0  0  0  0  0
   35.4610   21.2060   34.0470 H   0  0  0  0  0  0  0  0  0  0  0  0
   35.4680   17.3600   32.1860 H   0  0  0  0  0  0  0  0  0  0  0  0
   36.4520   27.6200   32.5660 C   0  0  0  0  0  0  0  0  0  0  0  0
   36.8140   27.8240   33.8780 C   0  0  0  0  0  0  0  0  0  0  0  0
   35.9770   28.8160   34.3970 C   0  0  0  0  0  0  0  0  0  0  0  0
   35.1580   29.1740   33.4150 N   0  0  0  0  0  0  0  0  0  0  0  0
   35.4410   28.4760   32.3590 N   0  0  0  0  0  0  0  0  0  0  0  0
   37.5570   27.4170   34.5700 H   0  0  0  0  0  0  0  0  0  0  0  0
   35.9320   29.2640   35.3840 H   0  0  0  0  0  0  0  0  0  0  0  0
   34.1150   30.1760   33.4760 C   0  0  0  0  0  0  0  0  0  0  0  0
   34.4980   31.1630   33.1660 H   0  0  0  0  0  0  0  0  0  0  0  0
   33.2950   29.8470   32.7880 H   0  0  0  0  0  0  0  0  0  0  0  0
   33.6490   30.3100   34.8890 C   0  0  0  0  0  0  0  0  0  0  0  0
   34.5540   30.1380   35.5480 H   0  0  0  0  0  0  0  0  0  0  0  0
   33.4300   31.4030   35.0710 H   0  0  0  0  0  0  0  0  0  0  0  0
   32.5390   29.4640   35.2870 C   0  0  0  0  0  0  0  0  0  0  0  0
   32.1530   28.3920   36.2450 C   0  0  0  0  0  0  0  0  0  0  0  0
   32.9890   28.1510   36.8620 H   0  0  0  0  0  0  0  0  0  0  0  0
   30.8600   27.9800   36.1230 C   0  0  0  0  0  3  0  0  0  0  0  0
   29.9700   28.4960   35.2000 C   0  0  0  0  0  3  0  0  0  0  0  0
   30.9340   29.7340   34.3150 S   0  0  0  0  0  0  0  0  0  0  0  0
  1 20  1  0  0  0  0
  2 12  1  0  0  0  0
  2  7  1  0  0  0  0
  3  2  2  0  0  0  0
  4  3  1  0  0  0  0
  4  5  2  0  0  0  0
  5  1  1  0  0  0  0
  5  6  1  0  0  0  0
  6  7  2  0  0  0  0
  6 10  1  0  0  0  0
  8  3  1  0  0  0  0
  9  4  1  0  0  0  0
 11 16  2  0  0  0  0
 11 12  1  0  0  0  0
 12 13  2  0  0  0  0
 13 14  1  0  0  0  0
 13 18  1  0  0  0  0
 15 19  1  0  0  0  0
 15 14  2  0  0  0  0
 16 15  1  0  0  0  0
 17 11  1  0  0  0  0
 20 21  1  0  0  0  0
 21 22  2  0  0  0  0
 21 25  1  0  0  0  0
 22 26  1  0  0  0  0
 23 27  1  0  0  0  0
 23 22  1  0  0  0  0
 24 20  2  0  0  0  0
 24 23  1  0  0  0  0
 27 30  1  0  0  0  0
 28 27  1  0  0  0  0
 29 27  1  0  0  0  0
 30 32  1  0  0  0  0
 30 33  1  0  0  0  0
 30 31  1  0  0  0  0
 33 34  2  0  0  0  0
 34 35  1  0  0  0  0
 36 34  1  0  0  0  0
 37 36  2  0  0  0  0
 38 37  1  0  0  0  0
 38 33  1  0  0  0  0
M  END
>  <minimizedAffinity>
-5.2043438

$$$$
