REMARK  Name = 
REMARK  4 active torsions:
REMARK  status: ('A' for Active; 'I' for Inactive)
REMARK    1  A    between atoms: C_1  and  C_8
REMARK    2  A    between atoms: C_4  and  O_13
REMARK    3  A    between atoms: O_13  and  C_14
REMARK    4  A    between atoms: N_17  and  C_27
REMARK                            x       y       z     vdW  Elec       q    Type
REMARK                         _______ _______ _______ _____ _____    ______ ____
ROOT
ATOM      1  C   UNL     1      33.839  28.782  48.280  0.00  0.00    +0.000 A 
ATOM      2  C   UNL     1      34.432  28.420  49.440  0.00  0.00    +0.000 A 
ATOM      3  C   UNL     1      35.711  28.790  49.819  0.00  0.00    +0.000 A 
ATOM      4  C   UNL     1      36.461  29.574  48.996  0.00  0.00    +0.000 A 
ATOM      5  C   UNL     1      35.853  29.954  47.792  0.00  0.00    +0.000 A 
ATOM      6  N   UNL     1      34.604  29.565  47.472  0.00  0.00    +0.000 NA
ATOM      7  H   UNL     1      33.914  27.797  50.157  0.00  0.00    +0.000 HD
ATOM      8  H   UNL     1      36.185  28.500  50.746  0.00  0.00    +0.000 HD
ATOM      9  H   UNL     1      36.347  30.579  47.051  0.00  0.00    +0.000 HD
ENDROOT
BRANCH   1  11
ATOM     10  C   UNL     1      31.642  27.649  48.708  0.00  0.00    +0.000 A 
ATOM     11  C   UNL     1      32.512  28.394  47.893  0.00  0.00    +0.000 A 
ATOM     12  C   UNL     1      32.029  28.762  46.645  0.00  0.00    +0.000 A 
ATOM     13  N   UNL     1      30.778  28.403  46.264  0.00  0.00    +0.000 NA
ATOM     14  C   UNL     1      29.983  27.683  47.094  0.00  0.00    +0.000 A 
ATOM     15  N   UNL     1      30.406  27.308  48.303  0.00  0.00    +0.000 NA
ATOM     16  H   UNL     1      31.983  27.349  49.676  0.00  0.00    +0.000 HD
ATOM     17  H   UNL     1      32.664  29.347  45.961  0.00  0.00    +0.000 HD
ATOM     18  H   UNL     1      28.989  27.428  46.727  0.00  0.00    +0.000 HD
ENDBRANCH   1  11
BRANCH   4  19
ATOM     19  O   UNL     1      37.760  30.044  49.210  0.00  0.00    +0.000 OA
BRANCH  19  20
ATOM     20  C   UNL     1      38.166  31.292  48.767  0.00  0.00    +0.000 A 
ATOM     21  C   UNL     1      37.878  32.339  49.652  0.00  0.00    +0.000 A 
ATOM     22  C   UNL     1      38.323  33.529  49.115  0.00  0.00    +0.000 A 
ATOM     23  N   UNL     1      38.859  33.177  47.939  0.00  0.00    +0.000 N 
ATOM     24  N   UNL     1      38.772  31.884  47.730  0.00  0.00    +0.000 NA
ATOM     25  H   UNL     1      37.391  32.394  50.641  0.00  0.00    +0.000 HD
ATOM     26  H   UNL     1      38.287  34.549  49.488  0.00  0.00    +0.000 HD
BRANCH  23  27
ATOM     27  C   UNL     1      39.482  33.996  46.927  0.00  0.00    +0.000 A 
ATOM     28  C   UNL     1      39.356  35.355  46.986  0.00  0.00    +0.000 A 
ATOM     29  H   UNL     1      38.837  35.970  47.707  0.00  0.00    +0.000 HD
ATOM     30  C   UNL     1      39.881  36.225  46.117  0.00  0.00    +0.000 A 
ATOM     31  C   UNL     1      40.641  35.609  45.036  0.00  0.00    +0.000 A 
ATOM     32  S   UNL     1      40.508  33.725  45.412  0.00  0.00    +0.000 S 
ENDBRANCH  23  27
ENDBRANCH  19  20
ENDBRANCH   4  19
TORSDOF 4
