
 OpenBabel03272507493D

 43 47  0  0  1  0  0  0  0  0999 V2000
   37.1170   27.6800   31.8180 N   0  0  0  0  0  0  0  0  0  0  0  0
   36.6090   26.3960   31.4770 C   0  0  0  0  0  0  0  0  0  0  0  0
   36.8380   25.3020   32.4470 C   0  0  0  0  0  0  0  0  0  0  0  0
   38.1210   25.3010   33.1490 C   0  0  1  0  0  0  0  0  0  0  0  0
   38.6450   26.7220   33.4190 C   0  0  0  0  0  0  0  0  0  0  0  0
   38.5140   27.5160   32.1130 C   0  0  0  0  0  0  0  0  0  0  0  0
   35.5110   26.5150   31.2820 H   0  0  0  0  0  0  0  0  0  0  0  0
   37.0240   26.0680   30.4830 H   0  0  0  0  0  0  0  0  0  0  0  0
   36.0400   25.5140   33.2340 H   0  0  0  0  0  0  0  0  0  0  0  0
   36.5890   24.3340   31.9840 H   0  0  0  0  0  0  0  0  0  0  0  0
   38.9410   24.8010   32.5610 H   0  0  0  0  0  0  0  0  0  0  0  0
   37.9920   27.2140   34.1420 H   0  0  0  0  0  0  0  0  0  0  0  0
   39.6970   26.6490   33.7200 H   0  0  0  0  0  0  0  0  0  0  0  0
   39.0880   27.0350   31.2980 H   0  0  0  0  0  0  0  0  0  0  0  0
   38.9220   28.5170   32.3140 H   0  0  0  0  0  0  0  0  0  0  0  0
   38.1080   23.2530   34.5040 C   0  0  0  0  0  0  0  0  0  0  0  0
   38.1100   24.6410   34.4780 C   0  0  0  0  0  0  0  0  0  0  0  0
   38.0760   25.4240   35.6010 C   0  0  0  0  0  0  0  0  0  0  0  0
   38.0370   24.7820   36.8410 C   0  0  0  0  0  0  0  0  0  0  0  0
   38.0350   23.4110   36.8660 C   0  0  0  0  0  0  0  0  0  0  0  0
   38.0700   22.6120   35.7260 C   0  0  0  0  0  0  0  0  0  0  0  0
   37.9920   22.9510   38.1920 O   0  0  0  0  0  0  0  0  0  0  0  0
   38.3240   24.0930   38.9750 C   0  0  0  0  0  0  0  0  0  0  0  0
   37.9980   25.2010   38.1710 O   0  0  0  0  0  0  0  0  0  0  0  0
   38.1450   22.5370   33.6960 H   0  0  0  0  0  0  0  0  0  0  0  0
   38.0790   26.4830   35.5480 H   0  0  0  0  0  0  0  0  0  0  0  0
   38.0650   21.5180   35.8260 H   0  0  0  0  0  0  0  0  0  0  0  0
   37.6780   24.0920   39.8750 H   0  0  0  0  0  0  0  0  0  0  0  0
   39.3820   24.1080   39.2630 H   0  0  0  0  0  0  0  0  0  0  0  0
   36.4070   28.9180   31.8630 C   0  0  0  0  0  0  0  0  0  0  0  0
   36.0630   29.7010   30.7680 C   0  0  0  0  0  0  0  0  0  0  0  0
   35.3670   30.8790   31.0110 C   0  0  0  0  0  0  0  0  0  0  0  0
   35.0560   31.2090   32.2970 N   0  0  0  0  0  0  0  0  0  0  0  0
   35.4050   30.4320   33.3140 C   0  0  0  0  0  0  0  0  0  0  0  0
   36.0680   29.3040   33.1130 N   0  0  0  0  0  0  0  0  0  0  0  0
   36.3760   29.3120   29.8150 H   0  0  0  0  0  0  0  0  0  0  0  0
   35.1310   31.4380   30.1190 H   0  0  0  0  0  0  0  0  0  0  0  0
   35.0000   30.9200   34.6450 C   0  0  0  0  0  0  0  0  0  0  0  0
   35.6530   31.5500   35.6230 C   0  0  0  0  0  0  0  0  0  0  0  0
   36.7160   31.7600   35.4150 H   0  0  0  0  0  0  0  0  0  0  0  0
   35.0410   31.8980   36.7720 C   0  0  0  0  0  3  0  0  0  0  0  0
   33.6970   31.5540   36.8620 C   0  0  0  0  0  3  0  0  0  0  0  0
   33.3520   30.7160   35.2340 S   0  0  0  0  0  0  0  0  0  0  0  0
  1 30  1  0  0  0  0
  1  6  1  0  0  0  0
  2  1  1  0  0  0  0
  2  3  1  0  0  0  0
  3  4  1  0  0  0  0
  3  9  1  0  0  0  0
  4 11  1  6  0  0  0
  4  5  1  0  0  0  0
  4 17  1  0  0  0  0
  5 13  1  0  0  0  0
  5 12  1  0  0  0  0
  6 15  1  0  0  0  0
  6  5  1  0  0  0  0
  7  2  1  0  0  0  0
  8  2  1  0  0  0  0
 10  3  1  0  0  0  0
 14  6  1  0  0  0  0
 16 21  1  0  0  0  0
 17 16  2  0  0  0  0
 17 18  1  0  0  0  0
 18 19  2  0  0  0  0
 19 20  1  0  0  0  0
 19 24  1  0  0  0  0
 20 22  1  0  0  0  0
 21 27  1  0  0  0  0
 21 20  2  0  0  0  0
 22 23  1  0  0  0  0
 23 29  1  0  0  0  0
 23 28  1  0  0  0  0
 24 23  1  0  0  0  0
 25 16  1  0  0  0  0
 26 18  1  0  0  0  0
 30 35  1  0  0  0  0
 31 32  1  0  0  0  0
 31 30  2  0  0  0  0
 32 33  2  0  0  0  0
 33 34  1  0  0  0  0
 34 38  1  0  0  0  0
 35 34  2  0  0  0  0
 36 31  1  0  0  0  0
 37 32  1  0  0  0  0
 38 43  1  0  0  0  0
 38 39  2  0  0  0  0
 39 41  1  0  0  0  0
 40 39  1  0  0  0  0
 41 42  2  0  0  0  0
 43 42  1  0  0  0  0
M  END
>  <minimizedAffinity>
-6.19839621

$$$$

 OpenBabel03272507493D

 43 47  0  0  1  0  0  0  0  0999 V2000
   37.6910   25.1010   31.7160 N   0  0  0  0  0  0  0  0  0  0  0  0
   38.6480   26.1030   31.3920 C   0  0  0  0  0  0  0  0  0  0  0  0
   38.2730   27.5070   31.6780 C   0  0  0  0  0  0  0  0  0  0  0  0
   36.8770   27.8770   31.4500 C   0  0  1  0  0  0  0  0  0  0  0  0
   35.9060   26.7210   31.7500 C   0  0  0  0  0  0  0  0  0  0  0  0
   36.4620   25.4660   31.0680 C   0  0  0  0  0  0  0  0  0  0  0  0
   39.5970   25.8400   31.9270 H   0  0  0  0  0  0  0  0  0  0  0  0
   38.9250   26.0350   30.3040 H   0  0  0  0  0  0  0  0  0  0  0  0
   38.4460   27.5710   32.8040 H   0  0  0  0  0  0  0  0  0  0  0  0
   38.9930   28.1890   31.1990 H   0  0  0  0  0  0  0  0  0  0  0  0
   36.6670   28.1550   30.3800 H   0  0  0  0  0  0  0  0  0  0  0  0
   35.9140   26.5160   32.8220 H   0  0  0  0  0  0  0  0  0  0  0  0
   34.9250   26.9810   31.3360 H   0  0  0  0  0  0  0  0  0  0  0  0
   36.5620   25.6200   29.9770 H   0  0  0  0  0  0  0  0  0  0  0  0
   35.7410   24.6590   31.2640 H   0  0  0  0  0  0  0  0  0  0  0  0
   36.0440   28.7440   33.5910 C   0  0  0  0  0  0  0  0  0  0  0  0
   36.3850   29.0100   32.2720 C   0  0  0  0  0  0  0  0  0  0  0  0
   36.2690   30.2440   31.6890 C   0  0  0  0  0  0  0  0  0  0  0  0
   35.7770   31.2900   32.4720 C   0  0  0  0  0  0  0  0  0  0  0  0
   35.4390   31.0270   33.7750 C   0  0  0  0  0  0  0  0  0  0  0  0
   35.5570   29.7740   34.3700 C   0  0  0  0  0  0  0  0  0  0  0  0
   34.9660   32.1930   34.3980 O   0  0  0  0  0  0  0  0  0  0  0  0
   35.3630   33.2470   33.5260 C   0  0  0  0  0  0  0  0  0  0  0  0
   35.5180   32.6450   32.2630 O   0  0  0  0  0  0  0  0  0  0  0  0
   36.1020   27.8270   34.1580 H   0  0  0  0  0  0  0  0  0  0  0  0
   36.5390   30.4150   30.6780 H   0  0  0  0  0  0  0  0  0  0  0  0
   35.2650   29.6400   35.4210 H   0  0  0  0  0  0  0  0  0  0  0  0
   34.5360   33.9840   33.4800 H   0  0  0  0  0  0  0  0  0  0  0  0
   36.2900   33.7320   33.8520 H   0  0  0  0  0  0  0  0  0  0  0  0
   37.8820   23.9380   32.5220 C   0  0  0  0  0  0  0  0  0  0  0  0
   37.9600   22.6290   32.0610 C   0  0  0  0  0  0  0  0  0  0  0  0
   38.1510   21.6250   33.0010 C   0  0  0  0  0  0  0  0  0  0  0  0
   38.2530   21.9630   34.3180 N   0  0  0  0  0  0  0  0  0  0  0  0
   38.1720   23.2260   34.7160 C   0  0  0  0  0  0  0  0  0  0  0  0
   37.9910   24.2040   33.8420 N   0  0  0  0  0  0  0  0  0  0  0  0
   37.8620   22.5170   30.9950 H   0  0  0  0  0  0  0  0  0  0  0  0
   38.2030   20.6340   32.5770 H   0  0  0  0  0  0  0  0  0  0  0  0
   38.2990   23.4360   36.1690 C   0  0  0  0  0  0  0  0  0  0  0  0
   37.5630   24.0990   37.0630 C   0  0  0  0  0  0  0  0  0  0  0  0
   36.6710   24.6000   36.6530 H   0  0  0  0  0  0  0  0  0  0  0  0
   37.9010   24.1400   38.3670 C   0  0  0  0  0  3  0  0  0  0  0  0
   39.0600   23.4500   38.7060 C   0  0  0  0  0  3  0  0  0  0  0  0
   39.6380   22.7440   37.0820 S   0  0  0  0  0  0  0  0  0  0  0  0
  1 30  1  0  0  0  0
  2  3  1  0  0  0  0
  2  1  1  0  0  0  0
  2  7  1  0  0  0  0
  3  9  1  0  0  0  0
  4 11  1  6  0  0  0
  4  3  1  0  0  0  0
  4  5  1  0  0  0  0
  4 17  1  0  0  0  0
  5 12  1  0  0  0  0
  6 15  1  0  0  0  0
  6  1  1  0  0  0  0
  6  5  1  0  0  0  0
  8  2  1  0  0  0  0
 10  3  1  0  0  0  0
 13  5  1  0  0  0  0
 14  6  1  0  0  0  0
 16 25  1  0  0  0  0
 16 21  1  0  0  0  0
 17 16  2  0  0  0  0
 18 17  1  0  0  0  0
 18 19  2  0  0  0  0
 19 20  1  0  0  0  0
 20 21  2  0  0  0  0
 20 22  1  0  0  0  0
 21 27  1  0  0  0  0
 23 29  1  0  0  0  0
 23 22  1  0  0  0  0
 24 19  1  0  0  0  0
 24 23  1  0  0  0  0
 26 18  1  0  0  0  0
 28 23  1  0  0  0  0
 30 35  1  0  0  0  0
 31 30  2  0  0  0  0
 31 32  1  0  0  0  0
 32 33  2  0  0  0  0
 33 34  1  0  0  0  0
 34 38  1  0  0  0  0
 35 34  2  0  0  0  0
 36 31  1  0  0  0  0
 37 32  1  0  0  0  0
 38 39  2  0  0  0  0
 38 43  1  0  0  0  0
 39 41  1  0  0  0  0
 40 39  1  0  0  0  0
 41 42  2  0  0  0  0
 43 42  1  0  0  0  0
M  END
>  <minimizedAffinity>
-5.95704937

$$$$

 OpenBabel03272507493D

 43 47  0  0  1  0  0  0  0  0999 V2000
   37.1050   27.7990   31.6180 N   0  0  0  0  0  0  0  0  0  0  0  0
   36.4610   26.5340   31.5190 C   0  0  0  0  0  0  0  0  0  0  0  0
   36.8480   25.5030   32.5070 C   0  0  0  0  0  0  0  0  0  0  0  0
   38.2570   25.4590   32.8980 C   0  0  1  0  0  0  0  0  0  0  0  0
   38.9070   26.8530   32.9120 C   0  0  0  0  0  0  0  0  0  0  0  0
   38.5200   27.5530   31.6030 C   0  0  0  0  0  0  0  0  0  0  0  0
   35.3560   26.7200   31.5680 H   0  0  0  0  0  0  0  0  0  0  0  0
   36.6150   26.1020   30.4910 H   0  0  0  0  0  0  0  0  0  0  0  0
   36.2670   25.8330   33.4320 H   0  0  0  0  0  0  0  0  0  0  0  0
   36.4460   24.5240   32.2030 H   0  0  0  0  0  0  0  0  0  0  0  0
   38.8890   24.8560   32.1870 H   0  0  0  0  0  0  0  0  0  0  0  0
   38.4680   27.4460   33.7160 H   0  0  0  0  0  0  0  0  0  0  0  0
   39.9940   26.7250   32.9730 H   0  0  0  0  0  0  0  0  0  0  0  0
   38.8620   26.9710   30.7270 H   0  0  0  0  0  0  0  0  0  0  0  0
   39.0190   28.5340   31.6140 H   0  0  0  0  0  0  0  0  0  0  0  0
   37.6560   25.2760   35.2720 C   0  0  0  0  0  0  0  0  0  0  0  0
   38.5180   24.9040   34.2490 C   0  0  0  0  0  0  0  0  0  0  0  0
   39.5990   24.0810   34.4250 C   0  0  0  0  0  0  0  0  0  0  0  0
   39.8430   23.5930   35.7100 C   0  0  0  0  0  0  0  0  0  0  0  0
   38.9920   23.9620   36.7200 C   0  0  0  0  0  0  0  0  0  0  0  0
   37.8920   24.7970   36.5450 C   0  0  0  0  0  0  0  0  0  0  0  0
   39.3960   23.3780   37.9320 O   0  0  0  0  0  0  0  0  0  0  0  0
   40.3160   22.3610   37.5460 C   0  0  0  0  0  0  0  0  0  0  0  0
   40.8010   22.7600   36.2860 O   0  0  0  0  0  0  0  0  0  0  0  0
   36.7750   25.9010   35.2530 H   0  0  0  0  0  0  0  0  0  0  0  0
   40.2380   23.8150   33.6220 H   0  0  0  0  0  0  0  0  0  0  0  0
   37.2550   25.0490   37.4040 H   0  0  0  0  0  0  0  0  0  0  0  0
   41.1510   22.3590   38.2750 H   0  0  0  0  0  0  0  0  0  0  0  0
   39.8480   21.3710   37.4970 H   0  0  0  0  0  0  0  0  0  0  0  0
   36.4940   29.0870   31.7100 C   0  0  0  0  0  0  0  0  0  0  0  0
   36.3250   29.9850   30.6640 C   0  0  0  0  0  0  0  0  0  0  0  0
   35.7040   31.1950   30.9480 C   0  0  0  0  0  0  0  0  0  0  0  0
   35.2930   31.4440   32.2240 N   0  0  0  0  0  0  0  0  0  0  0  0
   35.4750   30.5570   33.1940 C   0  0  0  0  0  0  0  0  0  0  0  0
   36.0630   29.3950   32.9530 N   0  0  0  0  0  0  0  0  0  0  0  0
   36.7000   29.6510   29.7120 H   0  0  0  0  0  0  0  0  0  0  0  0
   35.6040   31.8450   30.0930 H   0  0  0  0  0  0  0  0  0  0  0  0
   34.9800   30.9660   34.5200 C   0  0  0  0  0  0  0  0  0  0  0  0
   33.8110   30.8110   35.1460 C   0  0  0  0  0  0  0  0  0  0  0  0
   33.0440   30.2650   34.5720 H   0  0  0  0  0  0  0  0  0  0  0  0
   33.6050   31.2890   36.3890 C   0  0  0  0  0  3  0  0  0  0  0  0
   34.6860   31.9500   36.9620 C   0  0  0  0  0  3  0  0  0  0  0  0
   36.0030   31.8530   35.6470 S   0  0  0  0  0  0  0  0  0  0  0  0
  1 30  1  0  0  0  0
  2  7  1  0  0  0  0
  2  1  1  0  0  0  0
  2  3  1  0  0  0  0
  3  4  1  0  0  0  0
  3  9  1  0  0  0  0
  4 11  1  6  0  0  0
  4  5  1  0  0  0  0
  4 17  1  0  0  0  0
  5 13  1  0  0  0  0
  5 12  1  0  0  0  0
  6 15  1  0  0  0  0
  6  1  1  0  0  0  0
  6  5  1  0  0  0  0
  8  2  1  0  0  0  0
 10  3  1  0  0  0  0
 14  6  1  0  0  0  0
 16 21  1  0  0  0  0
 17 18  1  0  0  0  0
 17 16  2  0  0  0  0
 18 19  2  0  0  0  0
 19 24  1  0  0  0  0
 19 20  1  0  0  0  0
 20 22  1  0  0  0  0
 21 20  2  0  0  0  0
 21 27  1  0  0  0  0
 23 22  1  0  0  0  0
 23 28  1  0  0  0  0
 24 23  1  0  0  0  0
 25 16  1  0  0  0  0
 26 18  1  0  0  0  0
 29 23  1  0  0  0  0
 30 35  1  0  0  0  0
 31 32  1  0  0  0  0
 31 30  2  0  0  0  0
 32 33  2  0  0  0  0
 33 34  1  0  0  0  0
 34 38  1  0  0  0  0
 35 34  2  0  0  0  0
 36 31  1  0  0  0  0
 37 32  1  0  0  0  0
 38 39  2  0  0  0  0
 38 43  1  0  0  0  0
 39 41  1  0  0  0  0
 40 39  1  0  0  0  0
 41 42  2  0  0  0  0
 43 42  1  0  0  0  0
M  END
>  <minimizedAffinity>
-5.90074778

$$$$

 OpenBabel03272507493D

 43 47  0  0  1  0  0  0  0  0999 V2000
   37.0560   27.3160   31.5220 N   0  0  0  0  0  0  0  0  0  0  0  0
   36.6450   25.9860   31.2270 C   0  0  0  0  0  0  0  0  0  0  0  0
   36.9060   24.9570   32.2580 C   0  0  0  0  0  0  0  0  0  0  0  0
   38.1580   25.0730   33.0050 C   0  0  1  0  0  0  0  0  0  0  0  0
   38.5790   26.5370   33.2220 C   0  0  0  0  0  0  0  0  0  0  0  0
   38.4480   27.2580   31.8750 C   0  0  0  0  0  0  0  0  0  0  0  0
   35.5500   26.0240   30.9880 H   0  0  0  0  0  0  0  0  0  0  0  0
   37.1180   25.6410   30.2670 H   0  0  0  0  0  0  0  0  0  0  0  0
   36.0660   25.1530   33.0040 H   0  0  0  0  0  0  0  0  0  0  0  0
   36.7380   23.9540   31.8350 H   0  0  0  0  0  0  0  0  0  0  0  0
   39.0310   24.6020   32.4720 H   0  0  0  0  0  0  0  0  0  0  0  0
   37.8680   27.0180   33.8960 H   0  0  0  0  0  0  0  0  0  0  0  0
   39.6210   26.5480   33.5640 H   0  0  0  0  0  0  0  0  0  0  0  0
   39.0830   26.7790   31.1060 H   0  0  0  0  0  0  0  0  0  0  0  0
   38.7830   28.2930   32.0400 H   0  0  0  0  0  0  0  0  0  0  0  0
   38.1590   23.0930   34.4550 C   0  0  0  0  0  0  0  0  0  0  0  0
   38.1380   24.4770   34.3630 C   0  0  0  0  0  0  0  0  0  0  0  0
   38.0740   25.3120   35.4470 C   0  0  0  0  0  0  0  0  0  0  0  0
   38.0270   24.7300   36.7150 C   0  0  0  0  0  0  0  0  0  0  0  0
   38.0470   23.3620   36.8060 C   0  0  0  0  0  0  0  0  0  0  0  0
   38.1130   22.5100   35.7060 C   0  0  0  0  0  0  0  0  0  0  0  0
   37.9920   22.9640   38.1520 O   0  0  0  0  0  0  0  0  0  0  0  0
   38.2930   24.1480   38.8840 C   0  0  0  0  0  0  0  0  0  0  0  0
   37.9610   25.2110   38.0230 O   0  0  0  0  0  0  0  0  0  0  0  0
   38.2200   22.3400   33.6830 H   0  0  0  0  0  0  0  0  0  0  0  0
   38.0600   26.3670   35.3440 H   0  0  0  0  0  0  0  0  0  0  0  0
   38.1250   21.4220   35.8580 H   0  0  0  0  0  0  0  0  0  0  0  0
   37.6340   24.1790   39.7740 H   0  0  0  0  0  0  0  0  0  0  0  0
   39.3460   24.1950   39.1860 H   0  0  0  0  0  0  0  0  0  0  0  0
   36.2670   28.5050   31.4810 C   0  0  0  0  0  0  0  0  0  0  0  0
   36.5230   29.6270   30.7020 C   0  0  0  0  0  0  0  0  0  0  0  0
   35.6360   30.6930   30.7950 C   0  0  0  0  0  0  0  0  0  0  0  0
   34.5680   30.5920   31.6370 N   0  0  0  0  0  0  0  0  0  0  0  0
   34.3620   29.5010   32.3650 C   0  0  0  0  0  0  0  0  0  0  0  0
   35.1890   28.4700   32.2950 N   0  0  0  0  0  0  0  0  0  0  0  0
   37.4030   29.5620   30.0860 H   0  0  0  0  0  0  0  0  0  0  0  0
   35.8920   31.5300   30.1650 H   0  0  0  0  0  0  0  0  0  0  0  0
   33.1680   29.5390   33.2280 C   0  0  0  0  0  0  0  0  0  0  0  0
   31.9470   29.0110   33.1210 C   0  0  0  0  0  0  0  0  0  0  0  0
   31.7730   28.4190   32.2060 H   0  0  0  0  0  0  0  0  0  0  0  0
   31.0100   29.1960   34.0710 C   0  0  0  0  0  3  0  0  0  0  0  0
   31.4040   29.9700   35.1570 C   0  0  0  0  0  3  0  0  0  0  0  0
   33.1690   30.4160   34.7560 S   0  0  0  0  0  0  0  0  0  0  0  0
  1  6  1  0  0  0  0
  2  1  1  0  0  0  0
  2  3  1  0  0  0  0
  3  9  1  0  0  0  0
  3  4  1  0  0  0  0
  4 11  1  6  0  0  0
  4  5  1  0  0  0  0
  4 17  1  0  0  0  0
  5 13  1  0  0  0  0
  5 12  1  0  0  0  0
  6 15  1  0  0  0  0
  6  5  1  0  0  0  0
  7  2  1  0  0  0  0
  8  2  1  0  0  0  0
 10  3  1  0  0  0  0
 14  6  1  0  0  0  0
 16 21  1  0  0  0  0
 17 16  2  0  0  0  0
 17 18  1  0  0  0  0
 18 19  2  0  0  0  0
 19 20  1  0  0  0  0
 19 24  1  0  0  0  0
 20 22  1  0  0  0  0
 21 27  1  0  0  0  0
 21 20  2  0  0  0  0
 22 23  1  0  0  0  0
 23 29  1  0  0  0  0
 23 28  1  0  0  0  0
 24 23  1  0  0  0  0
 25 16  1  0  0  0  0
 26 18  1  0  0  0  0
 30  1  1  0  0  0  0
 30 35  1  0  0  0  0
 31 32  1  0  0  0  0
 31 30  2  0  0  0  0
 32 33  2  0  0  0  0
 33 34  1  0  0  0  0
 34 38  1  0  0  0  0
 35 34  2  0  0  0  0
 36 31  1  0  0  0  0
 37 32  1  0  0  0  0
 38 43  1  0  0  0  0
 39 38  2  0  0  0  0
 39 41  1  0  0  0  0
 40 39  1  0  0  0  0
 41 42  2  0  0  0  0
 43 42  1  0  0  0  0
M  END
>  <minimizedAffinity>
-5.86783123

$$$$

 OpenBabel03272507493D

 43 47  0  0  1  0  0  0  0  0999 V2000
   38.4070   26.7340   33.5710 N   0  0  0  0  0  0  0  0  0  0  0  0
   37.8430   27.1760   32.3420 C   0  0  0  0  0  0  0  0  0  0  0  0
   36.9930   28.3870   32.3880 C   0  0  0  0  0  0  0  0  0  0  0  0
   36.1370   28.5470   33.5630 C   0  0  1  0  0  0  0  0  0  0  0  0
   36.7790   27.9800   34.8410 C   0  0  0  0  0  0  0  0  0  0  0  0
   37.3230   26.5870   34.5030 C   0  0  0  0  0  0  0  0  0  0  0  0
   38.6910   27.3270   31.6240 H   0  0  0  0  0  0  0  0  0  0  0  0
   37.2400   26.3490   31.8750 H   0  0  0  0  0  0  0  0  0  0  0  0
   37.7720   29.2190   32.4400 H   0  0  0  0  0  0  0  0  0  0  0  0
   36.4560   28.5020   31.4330 H   0  0  0  0  0  0  0  0  0  0  0  0
   35.1580   27.9980   33.4690 H   0  0  0  0  0  0  0  0  0  0  0  0
   37.6450   28.5890   35.1070 H   0  0  0  0  0  0  0  0  0  0  0  0
   36.0050   27.9140   35.6140 H   0  0  0  0  0  0  0  0  0  0  0  0
   36.5140   25.9230   34.1440 H   0  0  0  0  0  0  0  0  0  0  0  0
   37.7490   26.1840   35.4330 H   0  0  0  0  0  0  0  0  0  0  0  0
   35.5240   30.8150   32.8490 C   0  0  0  0  0  0  0  0  0  0  0  0
   35.7890   29.9490   33.9010 C   0  0  0  0  0  0  0  0  0  0  0  0
   35.7730   30.3230   35.2180 C   0  0  0  0  0  0  0  0  0  0  0  0
   35.4710   31.6550   35.5130 C   0  0  0  0  0  0  0  0  0  0  0  0
   35.2100   32.5100   34.4730 C   0  0  0  0  0  0  0  0  0  0  0  0
   35.2250   32.1320   33.1330 C   0  0  0  0  0  0  0  0  0  0  0  0
   34.9310   33.7970   34.9620 O   0  0  0  0  0  0  0  0  0  0  0  0
   34.6890   33.6030   36.3520 C   0  0  0  0  0  0  0  0  0  0  0  0
   35.3550   32.4070   36.6810 O   0  0  0  0  0  0  0  0  0  0  0  0
   35.4950   30.6350   31.7840 H   0  0  0  0  0  0  0  0  0  0  0  0
   35.9800   29.6380   36.0000 H   0  0  0  0  0  0  0  0  0  0  0  0
   35.0060   32.8750   32.3540 H   0  0  0  0  0  0  0  0  0  0  0  0
   35.1550   34.4440   36.9030 H   0  0  0  0  0  0  0  0  0  0  0  0
   33.6190   33.5390   36.5840 H   0  0  0  0  0  0  0  0  0  0  0  0
   39.7810   26.4710   33.8590 C   0  0  0  0  0  0  0  0  0  0  0  0
   40.8580   27.2630   33.4820 C   0  0  0  0  0  0  0  0  0  0  0  0
   42.1290   26.8440   33.8560 C   0  0  0  0  0  0  0  0  0  0  0  0
   42.2600   25.6880   34.5680 N   0  0  0  0  0  0  0  0  0  0  0  0
   41.2030   24.9610   34.9070 C   0  0  0  0  0  0  0  0  0  0  0  0
   39.9810   25.3360   34.5640 N   0  0  0  0  0  0  0  0  0  0  0  0
   40.6000   28.1460   32.9230 H   0  0  0  0  0  0  0  0  0  0  0  0
   42.9190   27.5030   33.5330 H   0  0  0  0  0  0  0  0  0  0  0  0
   41.5020   23.7380   35.6740 C   0  0  0  0  0  0  0  0  0  0  0  0
   42.6360   23.1040   35.9760 C   0  0  0  0  0  0  0  0  0  0  0  0
   43.5520   23.5750   35.5810 H   0  0  0  0  0  0  0  0  0  0  0  0
   42.6420   21.9750   36.7120 C   0  0  0  0  0  3  0  0  0  0  0  0
   41.3940   21.5260   37.1260 C   0  0  0  0  0  3  0  0  0  0  0  0
   40.2190   22.7870   36.4180 S   0  0  0  0  0  0  0  0  0  0  0  0
  1 30  1  0  0  0  0
  1  6  1  0  0  0  0
  2  3  1  0  0  0  0
  2  1  1  0  0  0  0
  3  9  1  0  0  0  0
  3  4  1  0  0  0  0
  4 11  1  6  0  0  0
  4 17  1  0  0  0  0
  4  5  1  0  0  0  0
  5 12  1  0  0  0  0
  5 13  1  0  0  0  0
  6  5  1  0  0  0  0
  6 15  1  0  0  0  0
  7  2  1  0  0  0  0
  8  2  1  0  0  0  0
 10  3  1  0  0  0  0
 14  6  1  0  0  0  0
 16 21  2  0  0  0  0
 16 17  1  0  0  0  0
 17 18  2  0  0  0  0
 18 19  1  0  0  0  0
 18 26  1  0  0  0  0
 19 24  1  0  0  0  0
 20 22  1  0  0  0  0
 20 19  2  0  0  0  0
 21 20  1  0  0  0  0
 22 23  1  0  0  0  0
 23 29  1  0  0  0  0
 23 24  1  0  0  0  0
 23 28  1  0  0  0  0
 25 16  1  0  0  0  0
 27 21  1  0  0  0  0
 30 35  1  0  0  0  0
 31 32  1  0  0  0  0
 31 30  2  0  0  0  0
 32 33  2  0  0  0  0
 33 34  1  0  0  0  0
 34 38  1  0  0  0  0
 35 34  2  0  0  0  0
 36 31  1  0  0  0  0
 37 32  1  0  0  0  0
 38 39  2  0  0  0  0
 38 43  1  0  0  0  0
 39 41  1  0  0  0  0
 40 39  1  0  0  0  0
 41 42  2  0  0  0  0
 43 42  1  0  0  0  0
M  END
>  <minimizedAffinity>
-5.84826803

$$$$

 OpenBabel03272507493D

 43 47  0  0  1  0  0  0  0  0999 V2000
   36.9500   27.3140   33.3420 N   0  0  0  0  0  0  0  0  0  0  0  0
   36.9130   28.1950   34.4590 C   0  0  0  0  0  0  0  0  0  0  0  0
   35.6840   29.0010   34.6400 C   0  0  0  0  0  0  0  0  0  0  0  0
   35.0370   29.5000   33.4280 C   0  0  1  0  0  0  0  0  0  0  0  0
   35.1810   28.5300   32.2420 C   0  0  0  0  0  0  0  0  0  0  0  0
   36.6510   28.0990   32.1770 C   0  0  0  0  0  0  0  0  0  0  0  0
   37.1090   27.5790   35.3740 H   0  0  0  0  0  0  0  0  0  0  0  0
   37.7860   28.9030   34.4200 H   0  0  0  0  0  0  0  0  0  0  0  0
   34.9690   28.2390   35.0970 H   0  0  0  0  0  0  0  0  0  0  0  0
   35.8570   29.7800   35.3990 H   0  0  0  0  0  0  0  0  0  0  0  0
   35.4830   30.4670   33.0600 H   0  0  0  0  0  0  0  0  0  0  0  0
   34.6070   27.6250   32.4490 H   0  0  0  0  0  0  0  0  0  0  0  0
   34.8940   29.0600   31.3270 H   0  0  0  0  0  0  0  0  0  0  0  0
   37.3150   28.9750   32.0470 H   0  0  0  0  0  0  0  0  0  0  0  0
   36.7430   27.4330   31.3060 H   0  0  0  0  0  0  0  0  0  0  0  0
   32.9200   30.2490   32.4350 C   0  0  0  0  0  0  0  0  0  0  0  0
   33.5780   29.7420   33.5470 C   0  0  0  0  0  0  0  0  0  0  0  0
   32.9640   29.4810   34.7430 C   0  0  0  0  0  0  0  0  0  0  0  0
   31.5960   29.7420   34.8430 C   0  0  0  0  0  0  0  0  0  0  0  0
   30.9460   30.2440   33.7440 C   0  0  0  0  0  0  0  0  0  0  0  0
   31.5680   30.5100   32.5270 C   0  0  0  0  0  0  0  0  0  0  0  0
   29.5860   30.4430   34.0340 O   0  0  0  0  0  0  0  0  0  0  0  0
   29.3700   29.7120   35.2380 C   0  0  0  0  0  0  0  0  0  0  0  0
   30.6360   29.6170   35.8460 O   0  0  0  0  0  0  0  0  0  0  0  0
   33.2900   30.4810   31.4470 H   0  0  0  0  0  0  0  0  0  0  0  0
   33.4950   29.0930   35.5750 H   0  0  0  0  0  0  0  0  0  0  0  0
   30.9800   30.9130   31.6910 H   0  0  0  0  0  0  0  0  0  0  0  0
   28.6970   30.3080   35.8850 H   0  0  0  0  0  0  0  0  0  0  0  0
   28.9430   28.7190   35.0520 H   0  0  0  0  0  0  0  0  0  0  0  0
   37.2310   25.9140   33.3420 C   0  0  0  0  0  0  0  0  0  0  0  0
   36.9240   25.0220   32.3220 C   0  0  0  0  0  0  0  0  0  0  0  0
   37.2790   23.6910   32.5020 C   0  0  0  0  0  0  0  0  0  0  0  0
   37.9040   23.3240   33.6570 N   0  0  0  0  0  0  0  0  0  0  0  0
   38.1780   24.2100   34.6070 C   0  0  0  0  0  0  0  0  0  0  0  0
   37.8520   25.4850   34.4620 N   0  0  0  0  0  0  0  0  0  0  0  0
   36.4300   25.4570   31.4710 H   0  0  0  0  0  0  0  0  0  0  0  0
   37.0130   23.0520   31.6740 H   0  0  0  0  0  0  0  0  0  0  0  0
   38.8550   23.6650   35.7970 C   0  0  0  0  0  0  0  0  0  0  0  0
   38.5800   23.7040   37.1020 C   0  0  0  0  0  0  0  0  0  0  0  0
   37.6590   24.2500   37.3680 H   0  0  0  0  0  0  0  0  0  0  0  0
   39.3780   23.1120   38.0120 C   0  0  0  0  0  3  0  0  0  0  0  0
   40.4970   22.4670   37.4960 C   0  0  0  0  0  3  0  0  0  0  0  0
   40.3520   22.7460   35.6590 S   0  0  0  0  0  0  0  0  0  0  0  0
  1 30  1  0  0  0  0
  1  2  1  0  0  0  0
  2  3  1  0  0  0  0
  2  7  1  0  0  0  0
  3  9  1  0  0  0  0
  3 10  1  0  0  0  0
  4 11  1  6  0  0  0
  4 17  1  0  0  0  0
  4  3  1  0  0  0  0
  5 12  1  0  0  0  0
  5  4  1  0  0  0  0
  6  5  1  0  0  0  0
  6  1  1  0  0  0  0
  8  2  1  0  0  0  0
 13  5  1  0  0  0  0
 14  6  1  0  0  0  0
 15  6  1  0  0  0  0
 16 21  2  0  0  0  0
 16 17  1  0  0  0  0
 17 18  2  0  0  0  0
 18 19  1  0  0  0  0
 18 26  1  0  0  0  0
 19 24  1  0  0  0  0
 20 22  1  0  0  0  0
 20 19  2  0  0  0  0
 21 20  1  0  0  0  0
 22 23  1  0  0  0  0
 23 24  1  0  0  0  0
 23 28  1  0  0  0  0
 25 16  1  0  0  0  0
 27 21  1  0  0  0  0
 29 23  1  0  0  0  0
 30 35  1  0  0  0  0
 31 32  1  0  0  0  0
 31 30  2  0  0  0  0
 32 33  2  0  0  0  0
 33 34  1  0  0  0  0
 34 38  1  0  0  0  0
 35 34  2  0  0  0  0
 36 31  1  0  0  0  0
 37 32  1  0  0  0  0
 38 39  2  0  0  0  0
 39 40  1  0  0  0  0
 39 41  1  0  0  0  0
 42 41  2  0  0  0  0
 43 38  1  0  0  0  0
 43 42  1  0  0  0  0
M  END
>  <minimizedAffinity>
-5.78872156

$$$$

 OpenBabel03272507493D

 43 47  0  0  1  0  0  0  0  0999 V2000
   37.0400   26.9330   31.2810 N   0  0  0  0  0  0  0  0  0  0  0  0
   37.4620   28.0400   30.4920 C   0  0  0  0  0  0  0  0  0  0  0  0
   37.1630   29.3920   31.0150 C   0  0  0  0  0  0  0  0  0  0  0  0
   35.8850   29.5660   31.7050 C   0  0  1  0  0  0  0  0  0  0  0  0
   35.4570   28.3050   32.4760 C   0  0  0  0  0  0  0  0  0  0  0  0
   35.6370   27.1070   31.5360 C   0  0  0  0  0  0  0  0  0  0  0  0
   38.5640   27.9250   30.3230 H   0  0  0  0  0  0  0  0  0  0  0  0
   37.0230   27.9650   29.4590 H   0  0  0  0  0  0  0  0  0  0  0  0
   37.9760   29.5230   31.8040 H   0  0  0  0  0  0  0  0  0  0  0  0
   37.3460   30.1440   30.2310 H   0  0  0  0  0  0  0  0  0  0  0  0
   35.0320   29.7710   30.9990 H   0  0  0  0  0  0  0  0  0  0  0  0
   36.1440   28.1450   33.3100 H   0  0  0  0  0  0  0  0  0  0  0  0
   34.4040   28.4170   32.7600 H   0  0  0  0  0  0  0  0  0  0  0  0
   35.0300   27.2300   30.6190 H   0  0  0  0  0  0  0  0  0  0  0  0
   35.2960   26.2210   32.0910 H   0  0  0  0  0  0  0  0  0  0  0  0
   36.1740   31.9360   32.2770 C   0  0  0  0  0  0  0  0  0  0  0  0
   35.8570   30.6560   32.7110 C   0  0  0  0  0  0  0  0  0  0  0  0
   35.5480   30.3460   34.0080 C   0  0  0  0  0  0  0  0  0  0  0  0
   35.5540   31.3820   34.9450 C   0  0  0  0  0  0  0  0  0  0  0  0
   35.8690   32.6460   34.5160 C   0  0  0  0  0  0  0  0  0  0  0  0
   36.1830   32.9640   33.1980 C   0  0  0  0  0  0  0  0  0  0  0  0
   35.8250   33.5470   35.5920 O   0  0  0  0  0  0  0  0  0  0  0  0
   35.1300   32.8430   36.6170 C   0  0  0  0  0  0  0  0  0  0  0  0
   35.3040   31.4800   36.3130 O   0  0  0  0  0  0  0  0  0  0  0  0
   36.4200   32.3000   31.2910 H   0  0  0  0  0  0  0  0  0  0  0  0
   35.3090   29.3570   34.3080 H   0  0  0  0  0  0  0  0  0  0  0  0
   36.4250   34.0020   32.9300 H   0  0  0  0  0  0  0  0  0  0  0  0
   35.6220   33.0680   37.5830 H   0  0  0  0  0  0  0  0  0  0  0  0
   34.0670   33.1080   36.6580 H   0  0  0  0  0  0  0  0  0  0  0  0
   37.8310   25.8390   31.7460 C   0  0  0  0  0  0  0  0  0  0  0  0
   38.6500   25.0350   30.9620 C   0  0  0  0  0  0  0  0  0  0  0  0
   39.3480   24.0140   31.5960 C   0  0  0  0  0  0  0  0  0  0  0  0
   39.1990   23.8480   32.9410 N   0  0  0  0  0  0  0  0  0  0  0  0
   38.4050   24.6390   33.6520 C   0  0  0  0  0  0  0  0  0  0  0  0
   37.7290   25.6200   33.0750 N   0  0  0  0  0  0  0  0  0  0  0  0
   38.6660   25.2850   29.9160 H   0  0  0  0  0  0  0  0  0  0  0  0
   39.9640   23.4290   30.9310 H   0  0  0  0  0  0  0  0  0  0  0  0
   38.3460   24.3380   35.0930 C   0  0  0  0  0  0  0  0  0  0  0  0
   37.9930   25.0550   36.1620 C   0  0  0  0  0  0  0  0  0  0  0  0
   37.6750   26.0880   35.9450 H   0  0  0  0  0  0  0  0  0  0  0  0
   38.0260   24.5360   37.4050 C   0  0  0  0  0  3  0  0  0  0  0  0
   38.4520   23.2150   37.4900 C   0  0  0  0  0  3  0  0  0  0  0  0
   38.7990   22.7540   35.7180 S   0  0  0  0  0  0  0  0  0  0  0  0
  1  6  1  0  0  0  0
  1 30  1  0  0  0  0
  2  3  1  0  0  0  0
  2  1  1  0  0  0  0
  3  4  1  0  0  0  0
  3  9  1  0  0  0  0
  4 11  1  6  0  0  0
  4  5  1  0  0  0  0
  4 17  1  0  0  0  0
  5 13  1  0  0  0  0
  5 12  1  0  0  0  0
  6 15  1  0  0  0  0
  6  5  1  0  0  0  0
  7  2  1  0  0  0  0
  8  2  1  0  0  0  0
 10  3  1  0  0  0  0
 14  6  1  0  0  0  0
 16 17  2  0  0  0  0
 16 21  1  0  0  0  0
 17 18  1  0  0  0  0
 18 26  1  0  0  0  0
 18 19  2  0  0  0  0
 19 24  1  0  0  0  0
 20 19  1  0  0  0  0
 20 22  1  0  0  0  0
 21 20  2  0  0  0  0
 22 23  1  0  0  0  0
 23 29  1  0  0  0  0
 23 28  1  0  0  0  0
 24 23  1  0  0  0  0
 25 16  1  0  0  0  0
 27 21  1  0  0  0  0
 30 35  1  0  0  0  0
 31 32  1  0  0  0  0
 31 30  2  0  0  0  0
 32 33  2  0  0  0  0
 33 34  1  0  0  0  0
 34 38  1  0  0  0  0
 35 34  2  0  0  0  0
 36 31  1  0  0  0  0
 37 32  1  0  0  0  0
 38 43  1  0  0  0  0
 38 39  2  0  0  0  0
 39 41  1  0  0  0  0
 40 39  1  0  0  0  0
 41 42  2  0  0  0  0
 43 42  1  0  0  0  0
M  END
>  <minimizedAffinity>
-5.77685022

$$$$

 OpenBabel03272507493D

 43 47  0  0  1  0  0  0  0  0999 V2000
   37.6910   27.0470   32.2650 N   0  0  0  0  0  0  0  0  0  0  0  0
   37.7230   27.2820   33.6680 C   0  0  0  0  0  0  0  0  0  0  0  0
   36.5690   27.9980   34.2560 C   0  0  0  0  0  0  0  0  0  0  0  0
   35.9780   29.0690   33.4550 C   0  0  1  0  0  0  0  0  0  0  0  0
   36.0450   28.7790   31.9450 C   0  0  0  0  0  0  0  0  0  0  0  0
   37.4720   28.3160   31.6290 C   0  0  0  0  0  0  0  0  0  0  0  0
   37.8570   26.2880   34.1680 H   0  0  0  0  0  0  0  0  0  0  0  0
   38.6570   27.8480   33.9420 H   0  0  0  0  0  0  0  0  0  0  0  0
   35.7860   27.1700   34.3170 H   0  0  0  0  0  0  0  0  0  0  0  0
   36.8050   28.3000   35.2890 H   0  0  0  0  0  0  0  0  0  0  0  0
   36.5100   30.0530   33.5800 H   0  0  0  0  0  0  0  0  0  0  0  0
   35.3920   27.9370   31.7130 H   0  0  0  0  0  0  0  0  0  0  0  0
   35.8130   29.7060   31.4070 H   0  0  0  0  0  0  0  0  0  0  0  0
   38.2110   29.0890   31.9120 H   0  0  0  0  0  0  0  0  0  0  0  0
   37.5120   28.1450   30.5430 H   0  0  0  0  0  0  0  0  0  0  0  0
   33.6430   29.1100   32.6990 C   0  0  0  0  0  0  0  0  0  0  0  0
   34.5450   29.3410   33.7280 C   0  0  0  0  0  0  0  0  0  0  0  0
   34.1900   29.8250   34.9590 C   0  0  0  0  0  0  0  0  0  0  0  0
   32.8400   30.1010   35.1850 C   0  0  0  0  0  0  0  0  0  0  0  0
   31.9490   29.8740   34.1680 C   0  0  0  0  0  0  0  0  0  0  0  0
   32.3070   29.3810   32.9160 C   0  0  0  0  0  0  0  0  0  0  0  0
   30.6480   30.2090   34.5790 O   0  0  0  0  0  0  0  0  0  0  0  0
   30.7410   30.3140   35.9960 C   0  0  0  0  0  0  0  0  0  0  0  0
   32.0960   30.5860   36.2600 O   0  0  0  0  0  0  0  0  0  0  0  0
   33.8000   28.7240   31.7030 H   0  0  0  0  0  0  0  0  0  0  0  0
   34.9040   29.9900   35.7250 H   0  0  0  0  0  0  0  0  0  0  0  0
   31.5350   29.2260   32.1500 H   0  0  0  0  0  0  0  0  0  0  0  0
   30.1260   31.1780   36.3180 H   0  0  0  0  0  0  0  0  0  0  0  0
   30.4120   29.4000   36.5040 H   0  0  0  0  0  0  0  0  0  0  0  0
   37.8480   25.8010   31.5840 C   0  0  0  0  0  0  0  0  0  0  0  0
   38.6250   25.5840   30.4520 C   0  0  0  0  0  0  0  0  0  0  0  0
   38.6550   24.2970   29.9290 C   0  0  0  0  0  0  0  0  0  0  0  0
   37.9300   23.3170   30.5420 N   0  0  0  0  0  0  0  0  0  0  0  0
   37.2000   23.5690   31.6210 C   0  0  0  0  0  0  0  0  0  0  0  0
   37.1540   24.7860   32.1420 N   0  0  0  0  0  0  0  0  0  0  0  0
   39.1410   26.4520   30.0810 H   0  0  0  0  0  0  0  0  0  0  0  0
   39.2770   24.1960   29.0530 H   0  0  0  0  0  0  0  0  0  0  0  0
   36.4720   22.4120   32.1700 C   0  0  0  0  0  0  0  0  0  0  0  0
   35.3800   21.7510   31.7790 C   0  0  0  0  0  0  0  0  0  0  0  0
   34.9110   22.1310   30.8560 H   0  0  0  0  0  0  0  0  0  0  0  0
   34.9040   20.6990   32.4730 C   0  0  0  0  0  3  0  0  0  0  0  0
   35.6240   20.3580   33.6130 C   0  0  0  0  0  3  0  0  0  0  0  0
   37.0070   21.6080   33.6430 S   0  0  0  0  0  0  0  0  0  0  0  0
  1  2  1  0  0  0  0
  2  8  1  0  0  0  0
  2  7  1  0  0  0  0
  2  3  1  0  0  0  0
  3  9  1  0  0  0  0
  3 10  1  0  0  0  0
  4 11  1  1  0  0  0
  4 17  1  0  0  0  0
  4  3  1  0  0  0  0
  5  4  1  0  0  0  0
  6 14  1  0  0  0  0
  6  5  1  0  0  0  0
  6  1  1  0  0  0  0
 12  5  1  0  0  0  0
 13  5  1  0  0  0  0
 15  6  1  0  0  0  0
 16 21  2  0  0  0  0
 16 17  1  0  0  0  0
 17 18  2  0  0  0  0
 18 19  1  0  0  0  0
 18 26  1  0  0  0  0
 19 24  1  0  0  0  0
 20 22  1  0  0  0  0
 20 19  2  0  0  0  0
 21 20  1  0  0  0  0
 22 23  1  0  0  0  0
 23 24  1  0  0  0  0
 23 28  1  0  0  0  0
 23 29  1  0  0  0  0
 25 16  1  0  0  0  0
 27 21  1  0  0  0  0
 30 35  1  0  0  0  0
 30  1  1  0  0  0  0
 31 30  2  0  0  0  0
 32 31  1  0  0  0  0
 32 33  2  0  0  0  0
 33 34  1  0  0  0  0
 34 35  2  0  0  0  0
 34 38  1  0  0  0  0
 36 31  1  0  0  0  0
 37 32  1  0  0  0  0
 38 43  1  0  0  0  0
 39 38  2  0  0  0  0
 39 41  1  0  0  0  0
 40 39  1  0  0  0  0
 41 42  2  0  0  0  0
 42 43  1  0  0  0  0
M  END
>  <minimizedAffinity>
-5.77500057

$$$$

 OpenBabel03272507493D

 43 47  0  0  1  0  0  0  0  0999 V2000
   37.4080   27.8550   32.3370 N   0  0  0  0  0  0  0  0  0  0  0  0
   38.2230   27.3750   31.2740 C   0  0  0  0  0  0  0  0  0  0  0  0
   38.1680   25.9240   30.9850 C   0  0  0  0  0  0  0  0  0  0  0  0
   38.0440   25.0270   32.1340 C   0  0  1  0  0  0  0  0  0  0  0  0
   37.2120   25.6410   33.2730 C   0  0  0  0  0  0  0  0  0  0  0  0
   37.7230   27.0690   33.4970 C   0  0  0  0  0  0  0  0  0  0  0  0
   37.9530   27.9620   30.3580 H   0  0  0  0  0  0  0  0  0  0  0  0
   39.2990   27.6480   31.4600 H   0  0  0  0  0  0  0  0  0  0  0  0
   37.1910   25.8380   30.4020 H   0  0  0  0  0  0  0  0  0  0  0  0
   38.9830   25.6490   30.2980 H   0  0  0  0  0  0  0  0  0  0  0  0
   39.0360   24.7820   32.6060 H   0  0  0  0  0  0  0  0  0  0  0  0
   36.1740   25.7360   32.9470 H   0  0  0  0  0  0  0  0  0  0  0  0
   37.3600   25.0330   34.1730 H   0  0  0  0  0  0  0  0  0  0  0  0
   38.7990   27.0680   33.7560 H   0  0  0  0  0  0  0  0  0  0  0  0
   37.1410   27.4810   34.3350 H   0  0  0  0  0  0  0  0  0  0  0  0
   36.0680   23.7460   31.4390 C   0  0  0  0  0  0  0  0  0  0  0  0
   37.3950   23.7240   31.8460 C   0  0  0  0  0  0  0  0  0  0  0  0
   38.1200   22.5750   32.0210 C   0  0  0  0  0  0  0  0  0  0  0  0
   37.4810   21.3590   31.7730 C   0  0  0  0  0  0  0  0  0  0  0  0
   36.1700   21.3810   31.3710 C   0  0  0  0  0  0  0  0  0  0  0  0
   35.4300   22.5470   31.1920 C   0  0  0  0  0  0  0  0  0  0  0  0
   35.7010   20.0710   31.1730 O   0  0  0  0  0  0  0  0  0  0  0  0
   36.8820   19.2750   31.1310 C   0  0  0  0  0  0  0  0  0  0  0  0
   37.8530   20.0160   31.8290 O   0  0  0  0  0  0  0  0  0  0  0  0
   35.4050   24.5790   31.2570 H   0  0  0  0  0  0  0  0  0  0  0  0
   39.1330   22.5920   32.3330 H   0  0  0  0  0  0  0  0  0  0  0  0
   34.3830   22.4840   30.8680 H   0  0  0  0  0  0  0  0  0  0  0  0
   36.6800   18.3320   31.6760 H   0  0  0  0  0  0  0  0  0  0  0  0
   37.2050   19.0630   30.1050 H   0  0  0  0  0  0  0  0  0  0  0  0
   36.4520   28.9150   32.2950 C   0  0  0  0  0  0  0  0  0  0  0  0
   35.8990   29.4690   31.1470 C   0  0  0  0  0  0  0  0  0  0  0  0
   34.9790   30.4980   31.3070 C   0  0  0  0  0  0  0  0  0  0  0  0
   34.6640   30.9130   32.5680 N   0  0  0  0  0  0  0  0  0  0  0  0
   35.2170   30.3550   33.6380 C   0  0  0  0  0  0  0  0  0  0  0  0
   36.0950   29.3730   33.5150 N   0  0  0  0  0  0  0  0  0  0  0  0
   36.2440   29.0400   30.2230 H   0  0  0  0  0  0  0  0  0  0  0  0
   34.5890   30.8830   30.3780 H   0  0  0  0  0  0  0  0  0  0  0  0
   34.7780   30.9080   34.9310 C   0  0  0  0  0  0  0  0  0  0  0  0
   35.3980   31.6120   35.8800 C   0  0  0  0  0  0  0  0  0  0  0  0
   36.4580   31.8400   35.6750 H   0  0  0  0  0  0  0  0  0  0  0  0
   34.7590   32.0090   36.9980 C   0  0  0  0  0  3  0  0  0  0  0  0
   33.4240   31.6340   37.0890 C   0  0  0  0  0  3  0  0  0  0  0  0
   33.1270   30.6930   35.5080 S   0  0  0  0  0  0  0  0  0  0  0  0
  1  6  1  0  0  0  0
  2  8  1  0  0  0  0
  2  1  1  0  0  0  0
  3  2  1  0  0  0  0
  3  4  1  0  0  0  0
  4 11  1  1  0  0  0
  4  5  1  0  0  0  0
  5  6  1  0  0  0  0
  5 13  1  0  0  0  0
  6 14  1  0  0  0  0
  6 15  1  0  0  0  0
  7  2  1  0  0  0  0
  9  3  1  0  0  0  0
 10  3  1  0  0  0  0
 12  5  1  0  0  0  0
 16 17  1  0  0  0  0
 17 18  2  0  0  0  0
 17  4  1  0  0  0  0
 18 26  1  0  0  0  0
 19 24  1  0  0  0  0
 19 18  1  0  0  0  0
 20 19  2  0  0  0  0
 21 20  1  0  0  0  0
 21 16  2  0  0  0  0
 22 20  1  0  0  0  0
 23 22  1  0  0  0  0
 23 28  1  0  0  0  0
 23 24  1  0  0  0  0
 25 16  1  0  0  0  0
 27 21  1  0  0  0  0
 29 23  1  0  0  0  0
 30  1  1  0  0  0  0
 30 35  1  0  0  0  0
 31 32  1  0  0  0  0
 31 30  2  0  0  0  0
 32 33  2  0  0  0  0
 33 34  1  0  0  0  0
 34 38  1  0  0  0  0
 35 34  2  0  0  0  0
 36 31  1  0  0  0  0
 37 32  1  0  0  0  0
 38 43  1  0  0  0  0
 38 39  2  0  0  0  0
 39 41  1  0  0  0  0
 40 39  1  0  0  0  0
 41 42  2  0  0  0  0
 43 42  1  0  0  0  0
M  END
>  <minimizedAffinity>
-5.73224258

$$$$
