
     RDKit          3D

 33 35  0  0  0  0  0  0  0  0999 V2000
   34.7589   29.4268   48.7972 C   0  0  0  0  0  0  0  0  0  0  0  0
   34.2210   30.0653   47.6634 C   0  0  0  0  0  0  0  0  0  0  0  0
   33.4869   29.2407   46.7862 C   0  0  0  0  0  0  0  0  0  0  0  0
   33.3341   27.9171   47.0587 N   0  0  0  0  0  0  0  0  0  0  0  0
   33.8779   27.3572   48.1711 C   0  0  0  0  0  0  0  0  0  0  0  0
   34.5785   28.1032   49.0244 N   0  0  0  0  0  0  0  0  0  0  0  0
   35.5248   30.3067   49.7330 C   0  0  0  0  0  0  0  0  0  0  0  0
   36.4799   31.1786   48.9513 C   0  0  0  0  0  0  0  0  0  0  0  0
   37.9161   30.8036   49.1658 C   0  0  0  0  0  0  0  0  0  0  0  0
   38.3237   30.7547   50.6109 C   0  0  0  0  0  0  0  0  0  0  0  0
   37.2823   30.1500   51.5028 C   0  0  0  0  0  0  0  0  0  0  0  0
   36.2010   29.4252   50.7262 C   0  0  0  0  0  0  0  0  0  0  0  0
   34.3059   31.0891   47.3993 H   0  0  0  0  0  0  0  0  0  0  0  0
   33.7562   26.3220   48.3807 H   0  0  0  0  0  0  0  0  0  0  0  0
   34.7773   30.9428   50.2461 H   0  0  0  0  0  0  0  0  0  0  0  0
   36.2829   31.1483   47.8734 H   0  0  0  0  0  0  0  0  0  0  0  0
   36.3817   32.2329   49.3318 H   0  0  0  0  0  0  0  0  0  0  0  0
   38.5358   31.5604   48.6609 H   0  0  0  0  0  0  0  0  0  0  0  0
   38.0911   29.8206   48.6799 H   0  0  0  0  0  0  0  0  0  0  0  0
   39.2321   30.0923   50.6677 H   0  0  0  0  0  0  0  0  0  0  0  0
   38.6730   31.7266   51.0017 H   0  0  0  0  0  0  0  0  0  0  0  0
   37.7155   29.4042   52.1980 H   0  0  0  0  0  0  0  0  0  0  0  0
   36.8484   30.9540   52.1021 H   0  0  0  0  0  0  0  0  0  0  0  0
   36.7297   28.6235   50.1552 H   0  0  0  0  0  0  0  0  0  0  0  0
   35.5009   29.0107   51.4484 H   0  0  0  0  0  0  0  0  0  0  0  0
   32.9010   29.7726   45.6158 C   0  0  0  0  0  0  0  0  0  0  0  0
   31.5798   30.0616   45.3477 C   0  0  0  0  0  0  0  0  0  0  0  0
   30.8412   29.8708   46.1157 H   0  0  0  0  0  0  0  0  0  0  0  0
   31.2372   30.5766   44.1320 C   0  0  0  0  0  0  0  0  0  0  0  0
   32.3004   30.7794   43.2137 C   0  0  0  0  0  0  0  0  0  0  0  0
   33.7660   30.2184   44.1374 S   0  0  0  0  0  0  0  0  0  0  0  0
   30.2296   30.8323   43.8357 H   0  0  0  0  0  0  0  0  0  0  0  0
   32.1620   31.1932   42.1868 H   0  0  0  0  0  0  0  0  0  0  0  0
  1  6  1  0
  1  7  1  0
  2  1  2  0
  3  4  2  0
  3  2  1  0
  4  5  1  0
  5  6  2  0
  7 12  1  0
  8  9  1  0
  8  7  1  0
  9 10  1  0
 10 11  1  0
 12 11  1  0
  2 13  1  0
  5 14  1  0
  7 15  1  0
  8 16  1  0
  8 17  1  0
  9 18  1  0
  9 19  1  0
 10 20  1  0
 10 21  1  0
 11 22  1  0
 11 23  1  0
 12 24  1  0
 12 25  1  0
 26 27  2  0
 27 28  1  0
 27 29  1  0
 29 30  2  0
 30 31  1  0
 31 26  1  0
 29 32  1  0
 30 33  1  0
  3 26  1  0
M  ISO  8  13  14  14  14  15  13  16  13  17  13  18  13  19  13  20  13
M  ISO  6  21  13  22  13  23  13  24  13  25  13  28  15
M  END
>  <DihAtoms>  (1) 
3,2,25,26

>  <DihDeg>  (1) 
179.99759046454508

$$$$
