
 OpenBabel03272507453D

 30 32  0  0  0  0  0  0  0  0999 V2000
   33.5820   29.4980   46.5890 N   0  0  0  0  0  0  0  0  0  0  0  0
   33.8040   29.1170   47.9560 C   0  0  0  0  0  0  0  0  0  0  0  0
   35.0040   29.6440   48.6320 C   0  0  0  0  0  0  0  0  0  0  0  0
   36.1880   29.9600   47.7780 C   0  0  0  0  0  0  0  0  0  0  0  0
   35.8520   30.3030   46.3570 C   0  0  0  0  0  0  0  0  0  0  0  0
   34.8070   29.2790   45.8610 C   0  0  0  0  0  0  0  0  0  0  0  0
   33.8220   27.9980   47.9700 H   0  0  0  0  0  0  0  0  0  0  0  0
   32.8870   29.4100   48.5240 H   0  0  0  0  0  0  0  0  0  0  0  0
   34.7100   30.5600   49.2110 H   0  0  0  0  0  0  0  0  0  0  0  0
   35.3370   28.9240   49.4100 H   0  0  0  0  0  0  0  0  0  0  0  0
   36.8940   29.1070   47.7670 H   0  0  0  0  0  0  0  0  0  0  0  0
   35.4090   31.2980   46.2470 H   0  0  0  0  0  0  0  0  0  0  0  0
   36.7580   30.1390   45.7450 H   0  0  0  0  0  0  0  0  0  0  0  0
   34.6560   29.3910   44.7690 H   0  0  0  0  0  0  0  0  0  0  0  0
   35.2470   28.2770   46.0150 H   0  0  0  0  0  0  0  0  0  0  0  0
   32.3650   30.0070   46.0460 C   0  0  0  0  0  0  0  0  0  0  0  0
   32.2570   31.1610   45.2720 C   0  0  0  0  0  0  0  0  0  0  0  0
   30.9950   31.5160   44.8210 C   0  0  0  0  0  0  0  0  0  0  0  0
   29.9230   30.7420   45.1420 N   0  0  0  0  0  0  0  0  0  0  0  0
   30.0700   29.6330   45.8930 C   0  0  0  0  0  0  0  0  0  0  0  0
   31.2800   29.2840   46.3320 N   0  0  0  0  0  0  0  0  0  0  0  0
   33.1750   31.6950   45.0800 H   0  0  0  0  0  0  0  0  0  0  0  0
   30.9330   32.4030   44.2290 H   0  0  0  0  0  0  0  0  0  0  0  0
   29.2050   29.0180   46.1460 H   0  0  0  0  0  0  0  0  0  0  0  0
   36.8960   31.1140   48.3600 C   0  0  0  0  0  0  0  0  0  0  0  0
   36.7020   31.7370   49.5420 C   0  0  0  0  0  0  0  0  0  0  0  0
   35.9100   31.3730   50.2160 H   0  0  0  0  0  0  0  0  0  0  0  0
   37.4990   32.8080   49.8720 C   0  0  0  0  0  0  0  0  0  0  0  0
   38.4500   33.1840   48.9760 C   0  0  0  0  0  0  0  0  0  0  0  0
   38.2450   32.0000   47.5930 S   0  0  0  0  0  0  0  0  0  0  0  0
  1  2  1  0  0  0  0
  2  7  1  0  0  0  0
  2  8  1  0  0  0  0
  2  3  1  0  0  0  0
  3  9  1  0  0  0  0
  3 10  1  0  0  0  0
  4 25  1  0  0  0  0
  4  3  1  0  0  0  0
  5  4  1  0  0  0  0
  6 15  1  0  0  0  0
  6  5  1  0  0  0  0
  6  1  1  0  0  0  0
 11  4  1  0  0  0  0
 12  5  1  0  0  0  0
 13  5  1  0  0  0  0
 14  6  1  0  0  0  0
 16 21  1  0  0  0  0
 16  1  1  0  0  0  0
 17 16  2  0  0  0  0
 18 19  2  0  0  0  0
 18 17  1  0  0  0  0
 19 20  1  0  0  0  0
 20 24  1  0  0  0  0
 20 21  2  0  0  0  0
 22 17  1  0  0  0  0
 23 18  1  0  0  0  0
 25 26  2  0  0  0  0
 26 28  1  0  0  0  0
 26 27  1  0  0  0  0
 29 28  2  0  0  0  0
 30 25  1  0  0  0  0
 30 29  1  0  0  0  0
M  END
>  <minimizedAffinity>
-4.39833641

>  <minimizedRMSD>
3.72832274

$$$$
