
 OpenBabel03272501213D

 37 40  0  0  0  0  0  0  0  0999 V2000
   38.3270   32.2300   47.4210 C   0  0  0  0  0  0  0  0  0  0  0  0
   38.1590   32.1070   48.7940 C   0  0  0  0  0  0  0  0  0  0  0  0
   38.8650   33.0340   49.5570 C   0  0  0  0  0  0  0  0  0  0  0  0
   39.6760   34.0030   48.9580 C   0  0  0  0  0  0  0  0  0  0  0  0
   39.7960   34.0670   47.5830 C   0  0  0  0  0  0  0  0  0  0  0  0
   39.1130   33.1680   46.8030 C   0  0  0  0  0  0  0  0  0  0  0  0
   38.8020   33.0230   50.6390 H   0  0  0  0  0  0  0  0  0  0  0  0
   40.2260   34.7230   49.5450 H   0  0  0  0  0  0  0  0  0  0  0  0
   40.4270   34.8220   47.1310 H   0  0  0  0  0  0  0  0  0  0  0  0
   35.9340   31.2150   49.3370 C   0  0  0  0  0  0  0  0  0  0  0  0
   37.3280   31.1130   49.3900 C   0  0  0  0  0  0  0  0  0  0  0  0
   37.8630   30.0000   50.0500 C   0  0  0  0  0  0  0  0  0  0  0  0
   37.0100   29.0850   50.5990 N   0  0  0  0  0  0  0  0  0  0  0  0
   35.6700   29.2310   50.5200 C   0  0  0  0  0  0  0  0  0  0  0  0
   35.1260   30.2960   49.8890 N   0  0  0  0  0  0  0  0  0  0  0  0
   35.5390   32.0830   48.8220 H   0  0  0  0  0  0  0  0  0  0  0  0
   38.9410   29.8710   50.1210 H   0  0  0  0  0  0  0  0  0  0  0  0
   35.1230   28.4250   51.0040 H   0  0  0  0  0  0  0  0  0  0  0  0
   37.6540   31.3390   46.5590 O   0  0  0  0  0  0  0  0  0  0  0  0
   37.8530   30.3620   46.6680 H   0  0  0  0  0  0  0  0  0  0  0  0
   39.2330   33.2300   45.4210 O   0  0  0  0  0  0  0  0  0  0  0  0
   37.0140   32.5130   43.5070 Cl  0  0  0  0  0  0  0  0  0  0  0  0
   38.5160   31.6520   43.6310 C   0  0  0  0  0  0  0  0  0  0  0  0
   39.4060   32.1460   44.5790 C   0  0  0  0  0  0  0  0  0  0  0  0
   40.6220   31.4780   44.7070 C   0  0  0  0  0  0  0  0  0  0  0  0
   40.9660   30.3850   43.9550 C   0  0  0  0  0  0  0  0  0  0  0  0
   40.0600   29.9040   43.0100 C   0  0  0  0  0  0  0  0  0  0  0  0
   38.8690   30.5590   42.8850 C   0  0  0  0  0  0  0  0  0  0  0  0
   41.3810   31.7900   45.4210 H   0  0  0  0  0  0  0  0  0  0  0  0
   41.9110   29.8790   44.0660 H   0  0  0  0  0  0  0  0  0  0  0  0
   40.2800   29.0510   42.3960 H   0  0  0  0  0  0  0  0  0  0  0  0
   37.9360   30.0720   41.9170 C   0  0  0  0  0  0  0  0  0  0  0  0
   36.9220   29.0700   41.9720 C   0  0  0  0  0  0  0  0  0  0  0  0
   36.8490   28.5890   42.9340 H   0  0  0  0  0  0  0  0  0  0  0  0
   36.2180   28.8860   40.8100 C   0  0  0  0  0  0  0  0  0  0  0  0
   36.4970   29.6180   39.7240 C   0  0  0  0  0  0  0  0  0  0  0  0
   37.8530   30.7340   40.1750 S   0  0  0  0  0  0  0  0  0  0  0  0
  1  2  1  0  0  0  0
  2 11  1  0  0  0  0
  2  3  2  0  0  0  0
  3  7  1  0  0  0  0
  4  8  1  0  0  0  0
  4  3  1  0  0  0  0
  5  4  2  0  0  0  0
  6  1  2  0  0  0  0
  6  5  1  0  0  0  0
  9  5  1  0  0  0  0
 10 11  2  0  0  0  0
 10 15  1  0  0  0  0
 11 12  1  0  0  0  0
 12 17  1  0  0  0  0
 12 13  2  0  0  0  0
 14 13  1  0  0  0  0
 14 18  1  0  0  0  0
 15 14  2  0  0  0  0
 16 10  1  0  0  0  0
 19 20  1  0  0  0  0
 19  1  1  0  0  0  0
 21  6  1  0  0  0  0
 22 23  1  0  0  0  0
 23 24  1  0  0  0  0
 24 25  2  0  0  0  0
 24 21  1  0  0  0  0
 25 29  1  0  0  0  0
 26 30  1  0  0  0  0
 26 25  1  0  0  0  0
 27 26  2  0  0  0  0
 28 27  1  0  0  0  0
 28 23  2  0  0  0  0
 31 27  1  0  0  0  0
 32 33  2  0  0  0  0
 32 28  1  0  0  0  0
 33 34  1  0  0  0  0
 35 33  1  0  0  0  0
 36 37  1  0  0  0  0
 36 35  2  0  0  0  0
 37 32  1  0  0  0  0
M  END
>  <minimizedAffinity>
-5.33187008

>  <minimizedRMSD>
0.0539292619

$$$$
