REMARK  Name = 
REMARK  2 active torsions:
REMARK  status: ('A' for Active; 'I' for Inactive)
REMARK    1  A    between atoms: C_2  and  C_7
REMARK    2  A    between atoms: C_12  and  C_26
REMARK                            x       y       z     vdW  Elec       q    Type
REMARK                         _______ _______ _______ _____ _____    ______ ____
ROOT
ATOM      1  C   UNL     1      34.476  30.180  49.044  0.00  0.00    +0.000 C 
ATOM      2  C   UNL     1      34.241  30.331  47.611  0.00  0.00    +0.000 C 
ATOM      3  C   UNL     1      34.398  29.121  46.756  0.00  0.00    +0.000 C 
ATOM      4  C   UNL     1      34.026  27.824  47.359  0.00  0.00    +0.000 C 
ATOM      5  C   UNL     1      34.241  27.674  48.811  0.00  0.00    +0.000 C 
ATOM      6  C   UNL     1      33.947  28.892  49.608  0.00  0.00    +0.000 C 
ATOM      7  H   UNL     1      33.883  30.978  49.594  0.00  0.00    +0.000 HD
ATOM      8  H   UNL     1      34.747  31.149  47.099  0.00  0.00    +0.000 HD
ATOM      9  H   UNL     1      33.143  30.606  47.504  0.00  0.00    +0.000 HD
ATOM     10  H   UNL     1      35.476  29.102  46.431  0.00  0.00    +0.000 HD
ATOM     11  H   UNL     1      33.824  29.268  45.816  0.00  0.00    +0.000 HD
ATOM     12  H   UNL     1      32.980  27.578  47.094  0.00  0.00    +0.000 HD
ATOM     13  H   UNL     1      34.665  27.039  46.850  0.00  0.00    +0.000 HD
ATOM     14  H   UNL     1      33.548  26.872  49.180  0.00  0.00    +0.000 HD
ATOM     15  H   UNL     1      35.301  27.349  48.992  0.00  0.00    +0.000 HD
ATOM     16  H   UNL     1      34.129  28.763  50.670  0.00  0.00    +0.000 HD
ENDROOT
BRANCH   1  18
ATOM     17  C   UNL     1      36.776  31.213  48.727  0.00  0.00    +0.000 A 
ATOM     18  C   UNL     1      35.857  30.466  49.504  0.00  0.00    +0.000 A 
ATOM     19  C   UNL     1      36.331  30.026  50.725  0.00  0.00    +0.000 A 
ATOM     20  N   UNL     1      37.602  30.313  51.115  0.00  0.00    +0.000 NA
ATOM     21  C   UNL     1      38.438  31.031  50.335  0.00  0.00    +0.000 A 
ATOM     22  N   UNL     1      38.011  31.478  49.137  0.00  0.00    +0.000 NA
ATOM     23  H   UNL     1      36.537  31.616  47.758  0.00  0.00    +0.000 HD
ATOM     24  H   UNL     1      35.780  29.451  51.447  0.00  0.00    +0.000 HD
ATOM     25  H   UNL     1      39.432  31.217  50.717  0.00  0.00    +0.000 HD
ENDBRANCH   1  18
BRANCH   6  26
ATOM     26  C   UNL     1      32.404  29.027  49.560  0.00  0.00    +0.000 A 
ATOM     27  C   UNL     1      31.705  29.646  50.452  0.00  0.00    +0.000 A 
ATOM     28  H   UNL     1      32.027  30.178  51.368  0.00  0.00    +0.000 HD
ATOM     29  C   UNL     1      30.340  29.747  50.395  0.00  0.00    +0.000 A 
ATOM     30  C   UNL     1      29.751  29.156  49.339  0.00  0.00    +0.000 A 
ATOM     31  S   UNL     1      31.228  28.442  48.418  0.00  0.00    +0.000 S 
ENDBRANCH   6  26
TORSDOF 2
