
 OpenBabel03272507193D

 27 29  0  0  1  0  0  0  0  0999 V2000
   37.4580   31.3160   49.4020 C   0  0  0  0  0  0  0  0  0  0  0  0
   38.4230   32.3030   49.5680 C   0  0  0  0  0  0  0  0  0  0  0  0
   38.9200   32.8530   48.3920 C   0  0  0  0  0  0  0  0  0  0  0  0
   38.4750   32.4360   47.1740 N   0  0  0  0  0  0  0  0  0  0  0  0
   37.5300   31.4680   47.0530 C   0  0  0  0  0  0  0  0  0  0  0  0
   37.0150   30.9010   48.1790 N   0  0  0  0  0  0  0  0  0  0  0  0
   38.7650   32.6240   50.5230 H   0  0  0  0  0  0  0  0  0  0  0  0
   39.6760   33.6300   48.4000 H   0  0  0  0  0  0  0  0  0  0  0  0
   36.8960   30.7120   50.6500 C   0  0  1  0  0  0  0  0  0  0  0  0
   36.1010   29.4860   50.6220 C   0  0  2  0  0  0  0  0  0  0  0  0
   37.5530   29.3520   50.9710 C   0  0  0  0  0  0  0  0  0  0  0  0
   36.9050   31.4310   51.5160 H   0  0  0  0  0  0  0  0  0  0  0  0
   35.2960   29.4710   51.4020 H   0  0  0  0  0  0  0  0  0  0  0  0
   37.7250   29.1480   52.0650 H   0  0  0  0  0  0  0  0  0  0  0  0
   38.2590   28.9170   50.2630 H   0  0  0  0  0  0  0  0  0  0  0  0
   35.6640   29.0430   49.3810 O   0  0  0  0  0  0  0  0  0  0  0  0
   34.4710   28.5140   49.0170 C   0  0  0  0  0  0  0  0  0  0  0  0
   34.3710   27.6090   48.1640 O   0  0  0  0  0  0  0  0  0  0  0  0
   33.4690   29.1550   49.7490 N   0  0  0  0  0  0  0  0  0  0  0  0
   33.0720   30.0310   49.3960 H   0  0  0  0  0  0  0  0  0  0  0  0
   33.3380   28.5200   50.5860 H   0  0  0  0  0  0  0  0  0  0  0  0
   37.1530   31.1270   45.7240 C   0  0  0  0  0  0  0  0  0  0  0  0
   36.2790   30.2480   45.1830 C   0  0  0  0  0  0  0  0  0  0  0  0
   35.7190   29.6480   45.9190 H   0  0  0  0  0  0  0  0  0  0  0  0
   36.1190   30.1260   43.8420 C   0  0  0  0  0  3  0  0  0  0  0  0
   36.9010   30.9550   43.0570 C   0  0  0  0  0  3  0  0  0  0  0  0
   37.8810   31.9170   44.3660 S   0  0  0  0  0  0  0  0  0  0  0  0
  1  2  1  0  0  0  0
  1  9  1  0  0  0  0
  2  7  1  0  0  0  0
  3  8  1  0  0  0  0
  3  2  2  0  0  0  0
  4  3  1  0  0  0  0
  5  4  2  0  0  0  0
  5  6  1  0  0  0  0
  6  1  2  0  0  0  0
  9 11  1  0  0  0  0
  9 12  1  1  0  0  0
 10  9  1  0  0  0  0
 10 11  1  0  0  0  0
 10 13  1  1  0  0  0
 11 14  1  0  0  0  0
 15 11  1  0  0  0  0
 16 10  1  0  0  0  0
 17 16  1  0  0  0  0
 17 19  1  0  0  0  0
 18 17  2  0  0  0  0
 19 21  1  0  0  0  0
 20 19  1  0  0  0  0
 22  5  1  0  0  0  0
 23 22  2  0  0  0  0
 23 24  1  0  0  0  0
 25 23  1  0  0  0  0
 26 25  2  0  0  0  0
 26 27  1  0  0  0  0
 27 22  1  0  0  0  0
M  END
>  <minimizedAffinity>
-5.15837955

>  <minimizedRMSD>
0.580082953

$$$$
