
 OpenBabel03262523003D

 35 39  0  0  0  0  0  0  0  0999 V2000
   37.2300   27.4700   33.4870 C   0  0  0  0  0  0  0  0  0  0  0  0
   38.3120   27.4440   32.6070 C   0  0  0  0  0  0  0  0  0  0  0  0
   39.1760   26.4690   33.0260 C   0  0  0  0  0  0  0  0  0  0  0  0
   38.6130   25.9090   34.1560 N   0  0  0  0  0  0  0  0  0  0  0  0
   37.4650   26.5380   34.3840 N   0  0  0  0  0  0  0  0  0  0  0  0
   40.2090   24.0570   34.3530 N   0  0  0  0  0  0  0  0  0  0  0  0
   39.2450   24.8590   34.8610 C   0  0  0  0  0  0  0  0  0  0  0  0
   39.0390   24.4420   36.1300 N   0  0  0  0  0  0  0  0  0  0  0  0
   39.8420   23.4090   36.4310 C   0  0  0  0  0  0  0  0  0  0  0  0
   40.0900   22.5940   37.5030 C   0  0  0  0  0  0  0  0  0  0  0  0
   41.0150   21.6270   37.4070 N   0  0  0  0  0  0  0  0  0  0  0  0
   41.7240   21.4160   36.2810 C   0  0  0  0  0  0  0  0  0  0  0  0
   41.5190   22.1920   35.1920 N   0  0  0  0  0  0  0  0  0  0  0  0
   40.5850   23.1640   35.2980 C   0  0  0  0  0  0  0  0  0  0  0  0
   38.4030   28.1100   31.7460 H   0  0  0  0  0  0  0  0  0  0  0  0
   40.0960   26.2600   32.4950 H   0  0  0  0  0  0  0  0  0  0  0  0
   40.6080   24.1140   33.3690 H   0  0  0  0  0  0  0  0  0  0  0  0
   42.4690   20.6350   36.2090 H   0  0  0  0  0  0  0  0  0  0  0  0
   34.2550   29.1790   32.1960 C   0  0  0  0  0  0  0  0  0  0  0  0
   33.9500   30.1000   33.2330 C   0  0  0  0  0  0  0  0  0  0  0  0
   34.7820   30.0950   34.3360 C   0  0  0  0  0  0  0  0  0  0  0  0
   35.8230   29.2480   34.3970 N   0  0  0  0  0  0  0  0  0  0  0  0
   36.0970   28.3680   33.3840 C   0  0  0  0  0  0  0  0  0  0  0  0
   35.3080   28.3510   32.3040 N   0  0  0  0  0  0  0  0  0  0  0  0
   33.6180   29.1600   31.3180 H   0  0  0  0  0  0  0  0  0  0  0  0
   33.0960   30.7360   33.0920 H   0  0  0  0  0  0  0  0  0  0  0  0
   34.5120   30.9970   35.3910 C   0  0  0  0  0  0  0  0  0  0  0  0
   35.3360   31.7670   36.2100 C   0  0  0  0  0  0  0  0  0  0  0  0
   36.3930   31.6690   36.0200 H   0  0  0  0  0  0  0  0  0  0  0  0
   34.7780   32.5650   37.1670 C   0  0  0  0  0  3  0  0  0  0  0  0
   33.3460   32.5390   37.2430 C   0  0  0  0  0  3  0  0  0  0  0  0
   32.8660   31.3690   35.9390 S   0  0  0  0  0  0  0  0  0  0  0  0
   39.3360   22.8280   38.6780 N   0  0  0  0  0  0  0  0  0  0  0  0
   39.7400   23.6090   39.2700 H   0  0  0  0  0  0  0  0  0  0  0  0
   38.5020   22.2360   38.8300 H   0  0  0  0  0  0  0  0  0  0  0  0
  1  5  2  0  0  0  0
  2  3  2  0  0  0  0
  2  1  1  0  0  0  0
  3  4  1  0  0  0  0
  4  5  1  0  0  0  0
  4  7  1  0  0  0  0
  6  7  1  0  0  0  0
  6 14  1  0  0  0  0
  7  8  2  0  0  0  0
  8  9  1  0  0  0  0
  9 10  1  0  0  0  0
 10 33  1  0  0  0  0
 11 10  2  0  0  0  0
 12 11  1  0  0  0  0
 13 14  1  0  0  0  0
 13 12  2  0  0  0  0
 14  9  2  0  0  0  0
 15  2  1  0  0  0  0
 16  3  1  0  0  0  0
 17  6  1  0  0  0  0
 18 12  1  0  0  0  0
 19 24  2  0  0  0  0
 19 20  1  0  0  0  0
 20 21  2  0  0  0  0
 21 22  1  0  0  0  0
 21 27  1  0  0  0  0
 23  1  1  0  0  0  0
 23 22  2  0  0  0  0
 24 23  1  0  0  0  0
 25 19  1  0  0  0  0
 26 20  1  0  0  0  0
 27 32  1  0  0  0  0
 27 28  2  0  0  0  0
 28 30  1  0  0  0  0
 29 28  1  0  0  0  0
 30 31  2  0  0  0  0
 32 31  1  0  0  0  0
 33 35  1  0  0  0  0
 33 34  1  0  0  0  0
M  END
>  <minimizedAffinity>
-6.58003807

$$$$

 OpenBabel03262523003D

 35 39  0  0  0  0  0  0  0  0999 V2000
   36.6900   26.9650   32.9080 C   0  0  0  0  0  0  0  0  0  0  0  0
   36.2130   27.4590   31.6940 C   0  0  0  0  0  0  0  0  0  0  0  0
   35.7770   28.7400   31.9000 C   0  0  0  0  0  0  0  0  0  0  0  0
   35.9920   29.0140   33.2360 N   0  0  0  0  0  0  0  0  0  0  0  0
   36.5330   27.9320   33.7840 N   0  0  0  0  0  0  0  0  0  0  0  0
   35.4510   31.4030   33.1020 N   0  0  0  0  0  0  0  0  0  0  0  0
   35.6520   30.2640   33.8040 C   0  0  0  0  0  0  0  0  0  0  0  0
   35.4620   30.5840   35.1030 N   0  0  0  0  0  0  0  0  0  0  0  0
   35.1500   31.8830   35.2360 C   0  0  0  0  0  0  0  0  0  0  0  0
   34.8570   32.7590   36.2460 C   0  0  0  0  0  0  0  0  0  0  0  0
   34.5860   34.0410   35.9610 N   0  0  0  0  0  0  0  0  0  0  0  0
   34.5890   34.5160   34.7000 C   0  0  0  0  0  0  0  0  0  0  0  0
   34.8720   33.6940   33.6640 N   0  0  0  0  0  0  0  0  0  0  0  0
   35.1440   32.4030   33.9610 C   0  0  0  0  0  0  0  0  0  0  0  0
   36.2120   26.8800   30.7670 H   0  0  0  0  0  0  0  0  0  0  0  0
   35.3600   29.3330   31.0960 H   0  0  0  0  0  0  0  0  0  0  0  0
   35.5230   31.5020   32.0460 H   0  0  0  0  0  0  0  0  0  0  0  0
   34.3690   35.5520   34.4750 H   0  0  0  0  0  0  0  0  0  0  0  0
   37.8100   23.5340   32.2620 C   0  0  0  0  0  0  0  0  0  0  0  0
   38.2980   23.1220   33.5300 C   0  0  0  0  0  0  0  0  0  0  0  0
   38.2220   24.0430   34.5580 C   0  0  0  0  0  0  0  0  0  0  0  0
   37.7050   25.2640   34.3370 N   0  0  0  0  0  0  0  0  0  0  0  0
   37.2410   25.6390   33.1050 C   0  0  0  0  0  0  0  0  0  0  0  0
   37.3030   24.7670   32.0920 N   0  0  0  0  0  0  0  0  0  0  0  0
   37.8580   22.8320   31.4360 H   0  0  0  0  0  0  0  0  0  0  0  0
   38.6930   22.1260   33.6060 H   0  0  0  0  0  0  0  0  0  0  0  0
   38.6980   23.6710   35.8360 C   0  0  0  0  0  0  0  0  0  0  0  0
   38.2150   23.8920   37.1240 C   0  0  0  0  0  0  0  0  0  0  0  0
   37.3000   24.4580   37.1810 H   0  0  0  0  0  0  0  0  0  0  0  0
   38.9050   23.4000   38.1950 C   0  0  0  0  0  3  0  0  0  0  0  0
   40.1020   22.6740   37.8850 C   0  0  0  0  0  3  0  0  0  0  0  0
   40.1850   22.7320   36.0720 S   0  0  0  0  0  0  0  0  0  0  0  0
   34.8580   32.2440   37.5660 N   0  0  0  0  0  0  0  0  0  0  0  0
   33.9460   31.7650   37.8150 H   0  0  0  0  0  0  0  0  0  0  0  0
   35.7160   32.3850   38.1260 H   0  0  0  0  0  0  0  0  0  0  0  0
  1 23  1  0  0  0  0
  1  5  2  0  0  0  0
  2  3  2  0  0  0  0
  2  1  1  0  0  0  0
  3  4  1  0  0  0  0
  4  5  1  0  0  0  0
  4  7  1  0  0  0  0
  6  7  1  0  0  0  0
  6 14  1  0  0  0  0
  7  8  2  0  0  0  0
  8  9  1  0  0  0  0
  9 10  1  0  0  0  0
 10 33  1  0  0  0  0
 11 10  2  0  0  0  0
 12 11  1  0  0  0  0
 13 14  1  0  0  0  0
 13 12  2  0  0  0  0
 14  9  2  0  0  0  0
 15  2  1  0  0  0  0
 16  3  1  0  0  0  0
 17  6  1  0  0  0  0
 18 12  1  0  0  0  0
 19 20  1  0  0  0  0
 20 26  1  0  0  0  0
 20 21  2  0  0  0  0
 21 27  1  0  0  0  0
 22 21  1  0  0  0  0
 23 22  2  0  0  0  0
 24 19  2  0  0  0  0
 24 23  1  0  0  0  0
 25 19  1  0  0  0  0
 27 32  1  0  0  0  0
 27 28  2  0  0  0  0
 28 29  1  0  0  0  0
 28 30  1  0  0  0  0
 31 30  2  0  0  0  0
 32 31  1  0  0  0  0
 33 34  1  0  0  0  0
 33 35  1  0  0  0  0
M  END
>  <minimizedAffinity>
-6.20572901

$$$$

 OpenBabel03262523003D

 35 39  0  0  0  0  0  0  0  0999 V2000
   38.9120   26.8570   32.3700 C   0  0  0  0  0  0  0  0  0  0  0  0
   40.1900   26.7590   31.8180 C   0  0  0  0  0  0  0  0  0  0  0  0
   40.8920   25.8280   32.5350 C   0  0  0  0  0  0  0  0  0  0  0  0
   40.0360   25.3670   33.5160 N   0  0  0  0  0  0  0  0  0  0  0  0
   38.8810   26.0080   33.3730 N   0  0  0  0  0  0  0  0  0  0  0  0
   41.4860   23.5460   34.2920 N   0  0  0  0  0  0  0  0  0  0  0  0
   40.4360   24.3850   34.4520 C   0  0  0  0  0  0  0  0  0  0  0  0
   39.8910   24.0800   35.6510 N   0  0  0  0  0  0  0  0  0  0  0  0
   40.5640   23.0810   36.2430 C   0  0  0  0  0  0  0  0  0  0  0  0
   40.5000   22.3650   37.4080 C   0  0  0  0  0  0  0  0  0  0  0  0
   41.3980   21.3970   37.6460 N   0  0  0  0  0  0  0  0  0  0  0  0
   42.3790   21.0920   36.7750 C   0  0  0  0  0  0  0  0  0  0  0  0
   42.4870   21.7690   35.6080 N   0  0  0  0  0  0  0  0  0  0  0  0
   41.5780   22.7420   35.3760 C   0  0  0  0  0  0  0  0  0  0  0  0
   40.5210   27.3480   30.9590 H   0  0  0  0  0  0  0  0  0  0  0  0
   41.9160   25.5780   32.2910 H   0  0  0  0  0  0  0  0  0  0  0  0
   42.1350   23.5190   33.4500 H   0  0  0  0  0  0  0  0  0  0  0  0
   43.1010   20.3110   36.9730 H   0  0  0  0  0  0  0  0  0  0  0  0
   36.8280   28.8850   30.1390 C   0  0  0  0  0  0  0  0  0  0  0  0
   35.8540   29.4190   31.0230 C   0  0  0  0  0  0  0  0  0  0  0  0
   35.9540   29.0590   32.3540 C   0  0  0  0  0  0  0  0  0  0  0  0
   36.9380   28.2400   32.7620 N   0  0  0  0  0  0  0  0  0  0  0  0
   37.8660   27.7370   31.8900 C   0  0  0  0  0  0  0  0  0  0  0  0
   37.7930   28.0690   30.5970 N   0  0  0  0  0  0  0  0  0  0  0  0
   36.7740   29.1510   29.0890 H   0  0  0  0  0  0  0  0  0  0  0  0
   35.1060   30.0650   30.6010 H   0  0  0  0  0  0  0  0  0  0  0  0
   35.0020   29.5700   33.2660 C   0  0  0  0  0  0  0  0  0  0  0  0
   35.1250   30.2430   34.4800 C   0  0  0  0  0  0  0  0  0  0  0  0
   36.1370   30.4180   34.8080 H   0  0  0  0  0  0  0  0  0  0  0  0
   34.0000   30.6230   35.1550 C   0  0  0  0  0  3  0  0  0  0  0  0
   32.7540   30.2850   34.5310 C   0  0  0  0  0  3  0  0  0  0  0  0
   33.2530   29.4360   33.0050 S   0  0  0  0  0  0  0  0  0  0  0  0
   39.4640   22.6980   38.3130 N   0  0  0  0  0  0  0  0  0  0  0  0
   39.7090   23.5290   38.9230 H   0  0  0  0  0  0  0  0  0  0  0  0
   38.6090   22.1170   38.2860 H   0  0  0  0  0  0  0  0  0  0  0  0
  1  5  2  0  0  0  0
  2  1  1  0  0  0  0
  2  3  2  0  0  0  0
  3  4  1  0  0  0  0
  4  7  1  0  0  0  0
  5  4  1  0  0  0  0
  6  7  1  0  0  0  0
  6 14  1  0  0  0  0
  7  8  2  0  0  0  0
  8  9  1  0  0  0  0
  9 10  1  0  0  0  0
 10 11  2  0  0  0  0
 10 33  1  0  0  0  0
 12 18  1  0  0  0  0
 12 11  1  0  0  0  0
 13 12  2  0  0  0  0
 14 13  1  0  0  0  0
 14  9  2  0  0  0  0
 15  2  1  0  0  0  0
 16  3  1  0  0  0  0
 17  6  1  0  0  0  0
 19 24  2  0  0  0  0
 19 20  1  0  0  0  0
 20 21  2  0  0  0  0
 21 22  1  0  0  0  0
 21 27  1  0  0  0  0
 23  1  1  0  0  0  0
 23 22  2  0  0  0  0
 24 23  1  0  0  0  0
 25 19  1  0  0  0  0
 26 20  1  0  0  0  0
 27 28  2  0  0  0  0
 28 29  1  0  0  0  0
 28 30  1  0  0  0  0
 31 30  2  0  0  0  0
 32 27  1  0  0  0  0
 32 31  1  0  0  0  0
 33 34  1  0  0  0  0
 35 33  1  0  0  0  0
M  END
>  <minimizedAffinity>
-6.00898361

$$$$

 OpenBabel03262523003D

 35 39  0  0  0  0  0  0  0  0999 V2000
   36.5180   28.2360   32.6420 C   0  0  0  0  0  0  0  0  0  0  0  0
   37.6330   27.9420   31.8560 C   0  0  0  0  0  0  0  0  0  0  0  0
   38.3590   26.9740   32.4960 C   0  0  0  0  0  0  0  0  0  0  0  0
   37.6810   26.6870   33.6650 N   0  0  0  0  0  0  0  0  0  0  0  0
   36.6020   27.4610   33.7000 N   0  0  0  0  0  0  0  0  0  0  0  0
   39.0460   24.7460   34.2880 N   0  0  0  0  0  0  0  0  0  0  0  0
   38.1540   25.7210   34.5820 C   0  0  0  0  0  0  0  0  0  0  0  0
   37.8400   25.5620   35.8880 N   0  0  0  0  0  0  0  0  0  0  0  0
   38.5050   24.5230   36.4170 C   0  0  0  0  0  0  0  0  0  0  0  0
   38.6060   23.8930   37.6280 C   0  0  0  0  0  0  0  0  0  0  0  0
   39.4180   22.8350   37.7650 N   0  0  0  0  0  0  0  0  0  0  0  0
   40.1550   22.3540   36.7450 C   0  0  0  0  0  0  0  0  0  0  0  0
   40.0930   22.9390   35.5260 N   0  0  0  0  0  0  0  0  0  0  0  0
   39.2710   24.0040   35.3970 C   0  0  0  0  0  0  0  0  0  0  0  0
   37.8420   28.4300   30.9010 H   0  0  0  0  0  0  0  0  0  0  0  0
   39.2750   26.5810   32.0750 H   0  0  0  0  0  0  0  0  0  0  0  0
   39.4980   24.5850   33.3390 H   0  0  0  0  0  0  0  0  0  0  0  0
   40.8100   21.5000   36.8600 H   0  0  0  0  0  0  0  0  0  0  0  0
   34.7990   31.0620   31.0620 C   0  0  0  0  0  0  0  0  0  0  0  0
   33.5310   31.0520   31.7030 C   0  0  0  0  0  0  0  0  0  0  0  0
   33.3200   30.0720   32.6540 C   0  0  0  0  0  0  0  0  0  0  0  0
   34.2860   29.1830   32.9380 N   0  0  0  0  0  0  0  0  0  0  0  0
   35.5010   29.2120   32.3070 C   0  0  0  0  0  0  0  0  0  0  0  0
   35.7330   30.1500   31.3820 N   0  0  0  0  0  0  0  0  0  0  0  0
   34.9930   31.8200   30.3120 H   0  0  0  0  0  0  0  0  0  0  0  0
   32.8240   31.8050   31.4070 H   0  0  0  0  0  0  0  0  0  0  0  0
   32.0700   30.0290   33.3140 C   0  0  0  0  0  0  0  0  0  0  0  0
   30.8070   30.5110   32.9760 C   0  0  0  0  0  0  0  0  0  0  0  0
   30.7480   31.0230   32.0290 H   0  0  0  0  0  0  0  0  0  0  0  0
   29.7610   30.3150   33.8330 C   0  0  0  0  0  3  0  0  0  0  0  0
   30.0680   29.6060   35.0400 C   0  0  0  0  0  3  0  0  0  0  0  0
   31.8440   29.2540   34.8930 S   0  0  0  0  0  0  0  0  0  0  0  0
   37.8250   24.4100   38.6910 N   0  0  0  0  0  0  0  0  0  0  0  0
   38.2850   25.2390   39.1650 H   0  0  0  0  0  0  0  0  0  0  0  0
   36.9230   23.9430   38.8840 H   0  0  0  0  0  0  0  0  0  0  0  0
  1  5  2  0  0  0  0
  2  3  2  0  0  0  0
  2  1  1  0  0  0  0
  3  4  1  0  0  0  0
  4  5  1  0  0  0  0
  4  7  1  0  0  0  0
  6  7  1  0  0  0  0
  6 14  1  0  0  0  0
  7  8  2  0  0  0  0
  8  9  1  0  0  0  0
  9 10  1  0  0  0  0
 10 11  2  0  0  0  0
 10 33  1  0  0  0  0
 12 18  1  0  0  0  0
 12 11  1  0  0  0  0
 13 12  2  0  0  0  0
 14 13  1  0  0  0  0
 14  9  2  0  0  0  0
 15  2  1  0  0  0  0
 16  3  1  0  0  0  0
 17  6  1  0  0  0  0
 19 24  2  0  0  0  0
 19 20  1  0  0  0  0
 20 21  2  0  0  0  0
 21 22  1  0  0  0  0
 21 27  1  0  0  0  0
 23  1  1  0  0  0  0
 23 22  2  0  0  0  0
 24 23  1  0  0  0  0
 25 19  1  0  0  0  0
 26 20  1  0  0  0  0
 27 32  1  0  0  0  0
 28 27  2  0  0  0  0
 28 30  1  0  0  0  0
 29 28  1  0  0  0  0
 30 31  2  0  0  0  0
 32 31  1  0  0  0  0
 33 35  1  0  0  0  0
 33 34  1  0  0  0  0
M  END
>  <minimizedAffinity>
-5.99662113

$$$$

 OpenBabel03262523003D

 35 39  0  0  0  0  0  0  0  0999 V2000
   37.4570   26.8910   33.2910 C   0  0  0  0  0  0  0  0  0  0  0  0
   37.1320   25.5980   32.8780 C   0  0  0  0  0  0  0  0  0  0  0  0
   38.1330   24.7590   33.2860 C   0  0  0  0  0  0  0  0  0  0  0  0
   39.0580   25.5470   33.9430 N   0  0  0  0  0  0  0  0  0  0  0  0
   38.6090   26.7970   33.9160 N   0  0  0  0  0  0  0  0  0  0  0  0
   40.4230   23.6940   34.7920 N   0  0  0  0  0  0  0  0  0  0  0  0
   40.2380   25.0030   34.5010 C   0  0  0  0  0  0  0  0  0  0  0  0
   41.3820   25.6310   34.8510 N   0  0  0  0  0  0  0  0  0  0  0  0
   42.2740   24.7610   35.3490 C   0  0  0  0  0  0  0  0  0  0  0  0
   43.5480   24.7870   35.8500 C   0  0  0  0  0  0  0  0  0  0  0  0
   44.1250   23.6500   36.2670 N   0  0  0  0  0  0  0  0  0  0  0  0
   43.4960   22.4600   36.2150 C   0  0  0  0  0  0  0  0  0  0  0  0
   42.2350   22.3770   35.7290 N   0  0  0  0  0  0  0  0  0  0  0  0
   41.6620   23.5280   35.3110 C   0  0  0  0  0  0  0  0  0  0  0  0
   36.2210   25.3540   32.3270 H   0  0  0  0  0  0  0  0  0  0  0  0
   38.1030   23.6970   33.0790 H   0  0  0  0  0  0  0  0  0  0  0  0
   39.7120   22.9180   34.6390 H   0  0  0  0  0  0  0  0  0  0  0  0
   43.9660   21.5460   36.5530 H   0  0  0  0  0  0  0  0  0  0  0  0
   35.5460   29.5030   31.5680 C   0  0  0  0  0  0  0  0  0  0  0  0
   35.0980   30.3190   32.6400 C   0  0  0  0  0  0  0  0  0  0  0  0
   35.4720   29.9370   33.9150 C   0  0  0  0  0  0  0  0  0  0  0  0
   36.2250   28.8400   34.1000 N   0  0  0  0  0  0  0  0  0  0  0  0
   36.6460   28.0680   33.0500 C   0  0  0  0  0  0  0  0  0  0  0  0
   36.2970   28.4140   31.8060 N   0  0  0  0  0  0  0  0  0  0  0  0
   35.2670   29.7790   30.5570 H   0  0  0  0  0  0  0  0  0  0  0  0
   34.5000   31.1760   32.3910 H   0  0  0  0  0  0  0  0  0  0  0  0
   35.0460   30.7230   35.0090 C   0  0  0  0  0  0  0  0  0  0  0  0
   35.7210   31.5800   35.8770 C   0  0  0  0  0  0  0  0  0  0  0  0
   36.7800   31.6760   35.6960 H   0  0  0  0  0  0  0  0  0  0  0  0
   35.0290   32.2200   36.8650 C   0  0  0  0  0  3  0  0  0  0  0  0
   33.6240   31.9440   36.9210 C   0  0  0  0  0  3  0  0  0  0  0  0
   33.3590   30.7770   35.5540 S   0  0  0  0  0  0  0  0  0  0  0  0
   44.1960   26.0450   35.8980 N   0  0  0  0  0  0  0  0  0  0  0  0
   44.6330   26.3120   34.9700 H   0  0  0  0  0  0  0  0  0  0  0  0
   44.1750   26.5520   36.7990 H   0  0  0  0  0  0  0  0  0  0  0  0
  1  5  2  0  0  0  0
  2  3  2  0  0  0  0
  2  1  1  0  0  0  0
  3  4  1  0  0  0  0
  4  7  1  0  0  0  0
  5  4  1  0  0  0  0
  6 14  1  0  0  0  0
  7  6  1  0  0  0  0
  7  8  2  0  0  0  0
  8  9  1  0  0  0  0
  9 10  1  0  0  0  0
 10 33  1  0  0  0  0
 10 11  2  0  0  0  0
 12 11  1  0  0  0  0
 12 18  1  0  0  0  0
 13 12  2  0  0  0  0
 14  9  2  0  0  0  0
 14 13  1  0  0  0  0
 15  2  1  0  0  0  0
 16  3  1  0  0  0  0
 17  6  1  0  0  0  0
 19 24  2  0  0  0  0
 19 20  1  0  0  0  0
 20 21  2  0  0  0  0
 21 22  1  0  0  0  0
 21 27  1  0  0  0  0
 23  1  1  0  0  0  0
 23 22  2  0  0  0  0
 24 23  1  0  0  0  0
 25 19  1  0  0  0  0
 26 20  1  0  0  0  0
 27 32  1  0  0  0  0
 27 28  2  0  0  0  0
 28 30  1  0  0  0  0
 29 28  1  0  0  0  0
 30 31  2  0  0  0  0
 32 31  1  0  0  0  0
 33 35  1  0  0  0  0
 34 33  1  0  0  0  0
M  END
>  <minimizedAffinity>
-5.98791933

$$$$

 OpenBabel03262523003D

 35 39  0  0  0  0  0  0  0  0999 V2000
   37.0320   26.9810   32.5250 C   0  0  0  0  0  0  0  0  0  0  0  0
   38.3610   26.7600   32.8870 C   0  0  0  0  0  0  0  0  0  0  0  0
   38.5990   25.4140   32.8250 C   0  0  0  0  0  0  0  0  0  0  0  0
   37.4140   24.8270   32.4270 N   0  0  0  0  0  0  0  0  0  0  0  0
   36.5220   25.7980   32.2640 N   0  0  0  0  0  0  0  0  0  0  0  0
   38.3360   22.5780   32.0960 N   0  0  0  0  0  0  0  0  0  0  0  0
   37.2960   23.4280   32.2590 C   0  0  0  0  0  0  0  0  0  0  0  0
   36.1790   22.6670   32.2250 N   0  0  0  0  0  0  0  0  0  0  0  0
   36.4870   21.3730   32.0470 C   0  0  0  0  0  0  0  0  0  0  0  0
   35.8270   20.1780   31.9330 C   0  0  0  0  0  0  0  0  0  0  0  0
   36.5230   19.0450   31.7540 N   0  0  0  0  0  0  0  0  0  0  0  0
   37.8680   19.0280   31.6790 C   0  0  0  0  0  0  0  0  0  0  0  0
   38.5690   20.1810   31.7840 N   0  0  0  0  0  0  0  0  0  0  0  0
   37.8600   21.3170   31.9640 C   0  0  0  0  0  0  0  0  0  0  0  0
   39.0510   27.5620   33.1620 H   0  0  0  0  0  0  0  0  0  0  0  0
   39.5690   24.9980   33.0640 H   0  0  0  0  0  0  0  0  0  0  0  0
   39.3630   22.8510   32.0740 H   0  0  0  0  0  0  0  0  0  0  0  0
   38.4240   18.1120   31.5340 H   0  0  0  0  0  0  0  0  0  0  0  0
   35.5840   30.0870   31.2230 C   0  0  0  0  0  0  0  0  0  0  0  0
   35.1710   30.7570   32.4050 C   0  0  0  0  0  0  0  0  0  0  0  0
   35.4070   30.1120   33.6040 C   0  0  0  0  0  0  0  0  0  0  0  0
   36.0030   28.9070   33.6200 N   0  0  0  0  0  0  0  0  0  0  0  0
   36.3930   28.2800   32.4660 C   0  0  0  0  0  0  0  0  0  0  0  0
   36.1750   28.8820   31.2920 N   0  0  0  0  0  0  0  0  0  0  0  0
   35.4110   30.5700   30.2670 H   0  0  0  0  0  0  0  0  0  0  0  0
   34.7030   31.7170   32.2890 H   0  0  0  0  0  0  0  0  0  0  0  0
   35.0100   30.7460   34.8030 C   0  0  0  0  0  0  0  0  0  0  0  0
   35.6910   31.5480   35.7170 C   0  0  0  0  0  0  0  0  0  0  0  0
   36.7270   31.7330   35.4850 H   0  0  0  0  0  0  0  0  0  0  0  0
   35.0300   32.0310   36.8110 C   0  0  0  0  0  3  0  0  0  0  0  0
   33.6510   31.6580   36.9220 C   0  0  0  0  0  3  0  0  0  0  0  0
   33.3630   30.6300   35.4520 S   0  0  0  0  0  0  0  0  0  0  0  0
   34.4140   20.2120   32.0150 N   0  0  0  0  0  0  0  0  0  0  0  0
   34.0660   20.2270   33.0160 H   0  0  0  0  0  0  0  0  0  0  0  0
   33.8900   20.2190   31.1240 H   0  0  0  0  0  0  0  0  0  0  0  0
  1  2  1  0  0  0  0
  2 15  1  0  0  0  0
  3  2  2  0  0  0  0
  3 16  1  0  0  0  0
  4  3  1  0  0  0  0
  5  4  1  0  0  0  0
  5  1  2  0  0  0  0
  6  7  1  0  0  0  0
  7  4  1  0  0  0  0
  8  7  2  0  0  0  0
  9  8  1  0  0  0  0
 10 33  1  0  0  0  0
 10  9  2  0  0  0  0
 11 10  1  0  0  0  0
 12 11  2  0  0  0  0
 12 13  1  0  0  0  0
 13 14  2  0  0  0  0
 14  9  1  0  0  0  0
 14  6  1  0  0  0  0
 17  6  1  0  0  0  0
 18 12  1  0  0  0  0
 19 24  2  0  0  0  0
 19 20  1  0  0  0  0
 20 21  2  0  0  0  0
 21 22  1  0  0  0  0
 21 27  1  0  0  0  0
 23  1  1  0  0  0  0
 23 22  2  0  0  0  0
 24 23  1  0  0  0  0
 25 19  1  0  0  0  0
 26 20  1  0  0  0  0
 27 32  1  0  0  0  0
 27 28  2  0  0  0  0
 28 30  1  0  0  0  0
 29 28  1  0  0  0  0
 30 31  2  0  0  0  0
 32 31  1  0  0  0  0
 33 34  1  0  0  0  0
 35 33  1  0  0  0  0
M  END
>  <minimizedAffinity>
-5.95772696

$$$$

 OpenBabel03262523003D

 35 39  0  0  0  0  0  0  0  0999 V2000
   38.1750   25.8320   35.0290 C   0  0  0  0  0  0  0  0  0  0  0  0
   37.1810   26.8010   35.1690 C   0  0  0  0  0  0  0  0  0  0  0  0
   37.1390   27.5350   34.0150 C   0  0  0  0  0  0  0  0  0  0  0  0
   38.1070   27.0080   33.1830 N   0  0  0  0  0  0  0  0  0  0  0  0
   38.6890   26.0050   33.8320 N   0  0  0  0  0  0  0  0  0  0  0  0
   37.4740   28.2970   31.1950 N   0  0  0  0  0  0  0  0  0  0  0  0
   38.3450   27.5310   31.8910 C   0  0  0  0  0  0  0  0  0  0  0  0
   39.4350   27.3920   31.1040 N   0  0  0  0  0  0  0  0  0  0  0  0
   39.2740   28.0450   29.9430 C   0  0  0  0  0  0  0  0  0  0  0  0
   39.9870   28.2670   28.7950 C   0  0  0  0  0  0  0  0  0  0  0  0
   39.4560   29.0100   27.8120 N   0  0  0  0  0  0  0  0  0  0  0  0
   38.2290   29.5580   27.9040 C   0  0  0  0  0  0  0  0  0  0  0  0
   37.4820   29.3700   29.0160 N   0  0  0  0  0  0  0  0  0  0  0  0
   38.0240   28.6200   30.0010 C   0  0  0  0  0  0  0  0  0  0  0  0
   36.5690   26.9100   36.0680 H   0  0  0  0  0  0  0  0  0  0  0  0
   36.4400   28.3510   33.8870 H   0  0  0  0  0  0  0  0  0  0  0  0
   36.5100   28.5990   31.5280 H   0  0  0  0  0  0  0  0  0  0  0  0
   37.8060   30.1570   27.1080 H   0  0  0  0  0  0  0  0  0  0  0  0
   38.1670   23.8820   38.1340 C   0  0  0  0  0  0  0  0  0  0  0  0
   39.2380   22.9720   37.9320 C   0  0  0  0  0  0  0  0  0  0  0  0
   39.9210   23.0670   36.7350 C   0  0  0  0  0  0  0  0  0  0  0  0
   39.5660   23.9870   35.8220 N   0  0  0  0  0  0  0  0  0  0  0  0
   38.5280   24.8540   36.0390 C   0  0  0  0  0  0  0  0  0  0  0  0
   37.8500   24.7840   37.1890 N   0  0  0  0  0  0  0  0  0  0  0  0
   37.6140   23.8310   39.0650 H   0  0  0  0  0  0  0  0  0  0  0  0
   39.4470   22.2740   38.7210 H   0  0  0  0  0  0  0  0  0  0  0  0
   40.9950   22.1780   36.4960 C   0  0  0  0  0  0  0  0  0  0  0  0
   41.7610   21.3750   37.3380 C   0  0  0  0  0  0  0  0  0  0  0  0
   41.5030   21.4280   38.3840 H   0  0  0  0  0  0  0  0  0  0  0  0
   42.7550   20.6020   36.8100 C   0  0  0  0  0  3  0  0  0  0  0  0
   42.9240   20.6880   35.3890 C   0  0  0  0  0  3  0  0  0  0  0  0
   41.6500   21.8760   34.8750 S   0  0  0  0  0  0  0  0  0  0  0  0
   41.2750   27.6830   28.7130 N   0  0  0  0  0  0  0  0  0  0  0  0
   42.0150   28.2660   29.2000 H   0  0  0  0  0  0  0  0  0  0  0  0
   41.3550   26.7850   28.2080 H   0  0  0  0  0  0  0  0  0  0  0  0
  1  2  1  0  0  0  0
  1 23  1  0  0  0  0
  2 15  1  0  0  0  0
  3  2  2  0  0  0  0
  4  5  1  0  0  0  0
  4  3  1  0  0  0  0
  5  1  2  0  0  0  0
  6 17  1  0  0  0  0
  6  7  1  0  0  0  0
  7  4  1  0  0  0  0
  8  7  2  0  0  0  0
  9 14  1  0  0  0  0
  9  8  1  0  0  0  0
 10  9  2  0  0  0  0
 11 12  2  0  0  0  0
 11 10  1  0  0  0  0
 12 13  1  0  0  0  0
 13 14  2  0  0  0  0
 14  6  1  0  0  0  0
 16  3  1  0  0  0  0
 18 12  1  0  0  0  0
 19 25  1  0  0  0  0
 20 19  1  0  0  0  0
 20 26  1  0  0  0  0
 21 20  2  0  0  0  0
 22 23  2  0  0  0  0
 22 21  1  0  0  0  0
 23 24  1  0  0  0  0
 24 19  2  0  0  0  0
 27 21  1  0  0  0  0
 27 28  2  0  0  0  0
 28 29  1  0  0  0  0
 30 28  1  0  0  0  0
 31 30  2  0  0  0  0
 32 31  1  0  0  0  0
 32 27  1  0  0  0  0
 33 10  1  0  0  0  0
 33 34  1  0  0  0  0
 35 33  1  0  0  0  0
M  END
>  <minimizedAffinity>
-5.93692923

$$$$

 OpenBabel03262523003D

 35 39  0  0  0  0  0  0  0  0999 V2000
   37.9140   25.1870   34.7660 C   0  0  0  0  0  0  0  0  0  0  0  0
   37.7000   24.7310   33.4650 C   0  0  0  0  0  0  0  0  0  0  0  0
   37.1450   25.7530   32.7430 C   0  0  0  0  0  0  0  0  0  0  0  0
   37.0270   26.8220   33.6100 N   0  0  0  0  0  0  0  0  0  0  0  0
   37.4950   26.4330   34.7910 N   0  0  0  0  0  0  0  0  0  0  0  0
   36.3770   28.4670   31.9100 N   0  0  0  0  0  0  0  0  0  0  0  0
   36.4840   28.0600   33.1960 C   0  0  0  0  0  0  0  0  0  0  0  0
   35.9770   29.0620   33.9500 N   0  0  0  0  0  0  0  0  0  0  0  0
   35.5580   30.0770   33.1790 C   0  0  0  0  0  0  0  0  0  0  0  0
   34.9830   31.3080   33.3450 C   0  0  0  0  0  0  0  0  0  0  0  0
   34.7020   32.0640   32.2730 N   0  0  0  0  0  0  0  0  0  0  0  0
   34.9660   31.6600   31.0150 C   0  0  0  0  0  0  0  0  0  0  0  0
   35.5350   30.4520   30.7940 N   0  0  0  0  0  0  0  0  0  0  0  0
   35.8140   29.6970   31.8800 C   0  0  0  0  0  0  0  0  0  0  0  0
   37.9520   23.7210   33.1320 H   0  0  0  0  0  0  0  0  0  0  0  0
   36.8890   25.6360   31.6980 H   0  0  0  0  0  0  0  0  0  0  0  0
   36.6850   27.9120   31.0570 H   0  0  0  0  0  0  0  0  0  0  0  0
   34.7380   32.2740   30.1540 H   0  0  0  0  0  0  0  0  0  0  0  0
   38.3520   23.4990   37.9900 C   0  0  0  0  0  0  0  0  0  0  0  0
   39.6260   22.8870   37.8500 C   0  0  0  0  0  0  0  0  0  0  0  0
   40.2840   23.0800   36.6510 C   0  0  0  0  0  0  0  0  0  0  0  0
   39.7190   23.8180   35.6790 N   0  0  0  0  0  0  0  0  0  0  0  0
   38.4890   24.3980   35.8370 C   0  0  0  0  0  0  0  0  0  0  0  0
   37.8300   24.2270   36.9880 N   0  0  0  0  0  0  0  0  0  0  0  0
   37.8130   23.3640   38.9210 H   0  0  0  0  0  0  0  0  0  0  0  0
   39.9930   22.3170   38.6840 H   0  0  0  0  0  0  0  0  0  0  0  0
   41.5540   22.4870   36.4720 C   0  0  0  0  0  0  0  0  0  0  0  0
   41.9920   21.1640   36.5060 C   0  0  0  0  0  0  0  0  0  0  0  0
   41.2270   20.4320   36.7080 H   0  0  0  0  0  0  0  0  0  0  0  0
   43.3120   20.8870   36.2920 C   0  0  0  0  0  3  0  0  0  0  0  0
   44.1550   22.0190   36.0420 C   0  0  0  0  0  3  0  0  0  0  0  0
   43.0160   23.4310   36.1270 S   0  0  0  0  0  0  0  0  0  0  0  0
   34.7120   31.7190   34.6730 N   0  0  0  0  0  0  0  0  0  0  0  0
   33.8000   31.3230   35.0410 H   0  0  0  0  0  0  0  0  0  0  0  0
   35.4050   32.3370   35.1260 H   0  0  0  0  0  0  0  0  0  0  0  0
  1  5  2  0  0  0  0
  1 23  1  0  0  0  0
  2  1  1  0  0  0  0
  3  2  2  0  0  0  0
  3  4  1  0  0  0  0
  4  5  1  0  0  0  0
  6  7  1  0  0  0  0
  7  4  1  0  0  0  0
  7  8  2  0  0  0  0
  9 10  1  0  0  0  0
  9  8  1  0  0  0  0
 10 33  1  0  0  0  0
 11 10  2  0  0  0  0
 12 11  1  0  0  0  0
 13 12  2  0  0  0  0
 13 14  1  0  0  0  0
 14  6  1  0  0  0  0
 14  9  2  0  0  0  0
 15  2  1  0  0  0  0
 16  3  1  0  0  0  0
 17  6  1  0  0  0  0
 18 12  1  0  0  0  0
 19 25  1  0  0  0  0
 20 19  1  0  0  0  0
 20 26  1  0  0  0  0
 21 20  2  0  0  0  0
 22 23  2  0  0  0  0
 22 21  1  0  0  0  0
 23 24  1  0  0  0  0
 24 19  2  0  0  0  0
 27 28  2  0  0  0  0
 27 21  1  0  0  0  0
 28 29  1  0  0  0  0
 30 28  1  0  0  0  0
 31 32  1  0  0  0  0
 31 30  2  0  0  0  0
 32 27  1  0  0  0  0
 33 34  1  0  0  0  0
 33 35  1  0  0  0  0
M  END
>  <minimizedAffinity>
-5.865798

$$$$

 OpenBabel03262523003D

 35 39  0  0  0  0  0  0  0  0999 V2000
   36.1790   28.7190   33.0210 C   0  0  0  0  0  0  0  0  0  0  0  0
   37.0400   28.2770   32.0170 C   0  0  0  0  0  0  0  0  0  0  0  0
   37.7150   27.1830   32.4880 C   0  0  0  0  0  0  0  0  0  0  0  0
   37.2590   26.9690   33.7740 N   0  0  0  0  0  0  0  0  0  0  0  0
   36.3530   27.9040   34.0380 N   0  0  0  0  0  0  0  0  0  0  0  0
   38.3850   24.8130   34.0940 N   0  0  0  0  0  0  0  0  0  0  0  0
   37.7480   25.9070   34.5700 C   0  0  0  0  0  0  0  0  0  0  0  0
   37.6930   25.7550   35.9120 N   0  0  0  0  0  0  0  0  0  0  0  0
   38.2730   24.6050   36.2880 C   0  0  0  0  0  0  0  0  0  0  0  0
   38.5200   23.9250   37.4510 C   0  0  0  0  0  0  0  0  0  0  0  0
   39.1580   22.7460   37.4120 N   0  0  0  0  0  0  0  0  0  0  0  0
   39.5740   22.1880   36.2580 C   0  0  0  0  0  0  0  0  0  0  0  0
   39.3550   22.8180   35.0810 N   0  0  0  0  0  0  0  0  0  0  0  0
   38.7120   24.0060   35.1290 C   0  0  0  0  0  0  0  0  0  0  0  0
   37.1220   28.7580   31.0390 H   0  0  0  0  0  0  0  0  0  0  0  0
   38.4450   26.6620   31.8820 H   0  0  0  0  0  0  0  0  0  0  0  0
   38.5950   24.6140   33.0700 H   0  0  0  0  0  0  0  0  0  0  0  0
   40.0890   21.2360   36.2320 H   0  0  0  0  0  0  0  0  0  0  0  0
   33.9410   31.2570   31.6120 C   0  0  0  0  0  0  0  0  0  0  0  0
   33.5990   32.0360   32.7480 C   0  0  0  0  0  0  0  0  0  0  0  0
   34.1530   31.6560   33.9560 C   0  0  0  0  0  0  0  0  0  0  0  0
   34.9740   30.5950   34.0210 N   0  0  0  0  0  0  0  0  0  0  0  0
   35.2900   29.8580   32.9100 C   0  0  0  0  0  0  0  0  0  0  0  0
   34.7670   30.2030   31.7290 N   0  0  0  0  0  0  0  0  0  0  0  0
   33.5200   31.5320   30.6510 H   0  0  0  0  0  0  0  0  0  0  0  0
   32.9350   32.8670   32.5950 H   0  0  0  0  0  0  0  0  0  0  0  0
   33.8370   32.4070   35.1110 C   0  0  0  0  0  0  0  0  0  0  0  0
   32.8230   33.3190   35.3960 C   0  0  0  0  0  0  0  0  0  0  0  0
   32.1320   33.5050   34.5900 H   0  0  0  0  0  0  0  0  0  0  0  0
   32.7680   33.9000   36.6310 C   0  0  0  0  0  3  0  0  0  0  0  0
   33.7920   33.5040   37.5530 C   0  0  0  0  0  3  0  0  0  0  0  0
   34.7890   32.3170   36.6050 S   0  0  0  0  0  0  0  0  0  0  0  0
   38.0760   24.5240   38.6550 N   0  0  0  0  0  0  0  0  0  0  0  0
   38.7550   25.2510   39.0200 H   0  0  0  0  0  0  0  0  0  0  0  0
   37.1700   24.2020   39.0360 H   0  0  0  0  0  0  0  0  0  0  0  0
  1  5  2  0  0  0  0
  2  3  2  0  0  0  0
  2  1  1  0  0  0  0
  3  4  1  0  0  0  0
  4  5  1  0  0  0  0
  4  7  1  0  0  0  0
  6  7  1  0  0  0  0
  6 14  1  0  0  0  0
  7  8  2  0  0  0  0
  8  9  1  0  0  0  0
  9 10  1  0  0  0  0
 10 33  1  0  0  0  0
 11 10  2  0  0  0  0
 12 11  1  0  0  0  0
 13 14  1  0  0  0  0
 13 12  2  0  0  0  0
 14  9  2  0  0  0  0
 15  2  1  0  0  0  0
 16  3  1  0  0  0  0
 17  6  1  0  0  0  0
 18 12  1  0  0  0  0
 19 24  2  0  0  0  0
 19 20  1  0  0  0  0
 20 21  2  0  0  0  0
 21 22  1  0  0  0  0
 21 27  1  0  0  0  0
 23  1  1  0  0  0  0
 23 22  2  0  0  0  0
 24 23  1  0  0  0  0
 25 19  1  0  0  0  0
 26 20  1  0  0  0  0
 27 28  2  0  0  0  0
 27 32  1  0  0  0  0
 28 30  1  0  0  0  0
 29 28  1  0  0  0  0
 30 31  2  0  0  0  0
 32 31  1  0  0  0  0
 33 34  1  0  0  0  0
 33 35  1  0  0  0  0
M  END
>  <minimizedAffinity>
-5.84673548

$$$$
