
 OpenBabel03272507193D

 27 29  0  0  1  0  0  0  0  0999 V2000
   37.4750   31.3270   49.4430 C   0  0  0  0  0  0  0  0  0  0  0  0
   38.4070   32.3390   49.6410 C   0  0  0  0  0  0  0  0  0  0  0  0
   38.9060   32.9220   48.4810 C   0  0  0  0  0  0  0  0  0  0  0  0
   38.4940   32.5110   47.2500 N   0  0  0  0  0  0  0  0  0  0  0  0
   37.5810   31.5170   47.0980 C   0  0  0  0  0  0  0  0  0  0  0  0
   37.0650   30.9170   48.2070 N   0  0  0  0  0  0  0  0  0  0  0  0
   38.7230   32.6550   50.6060 H   0  0  0  0  0  0  0  0  0  0  0  0
   39.6380   33.7210   48.5140 H   0  0  0  0  0  0  0  0  0  0  0  0
   36.9100   30.6870   50.6720 C   0  0  1  0  0  0  0  0  0  0  0  0
   36.1040   29.4700   50.6060 C   0  0  2  0  0  0  0  0  0  0  0  0
   37.5550   29.3110   50.9460 C   0  0  0  0  0  0  0  0  0  0  0  0
   36.9290   31.3770   51.5610 H   0  0  0  0  0  0  0  0  0  0  0  0
   35.3000   29.4370   51.3880 H   0  0  0  0  0  0  0  0  0  0  0  0
   37.7270   29.0690   52.0310 H   0  0  0  0  0  0  0  0  0  0  0  0
   38.2540   28.8930   50.2220 H   0  0  0  0  0  0  0  0  0  0  0  0
   35.6580   29.0730   49.3530 O   0  0  0  0  0  0  0  0  0  0  0  0
   34.4700   28.5400   48.9800 C   0  0  0  0  0  0  0  0  0  0  0  0
   34.3770   27.6480   48.1130 O   0  0  0  0  0  0  0  0  0  0  0  0
   33.4620   29.1630   49.7210 N   0  0  0  0  0  0  0  0  0  0  0  0
   33.0590   30.0410   49.3800 H   0  0  0  0  0  0  0  0  0  0  0  0
   33.3360   28.5150   50.5490 H   0  0  0  0  0  0  0  0  0  0  0  0
   37.2370   31.1850   45.7580 C   0  0  0  0  0  0  0  0  0  0  0  0
   36.4220   30.2690   45.1870 C   0  0  0  0  0  0  0  0  0  0  0  0
   35.8910   29.6190   45.9040 H   0  0  0  0  0  0  0  0  0  0  0  0
   36.2810   30.1700   43.8430 C   0  0  0  0  0  3  0  0  0  0  0  0
   37.0180   31.0620   43.0850 C   0  0  0  0  0  3  0  0  0  0  0  0
   37.9280   32.0490   44.4260 S   0  0  0  0  0  0  0  0  0  0  0  0
  1  2  1  0  0  0  0
  1  9  1  0  0  0  0
  2  7  1  0  0  0  0
  3  8  1  0  0  0  0
  3  2  2  0  0  0  0
  4  3  1  0  0  0  0
  5  4  2  0  0  0  0
  5  6  1  0  0  0  0
  6  1  2  0  0  0  0
  9 11  1  0  0  0  0
  9 12  1  1  0  0  0
 10  9  1  0  0  0  0
 10 11  1  0  0  0  0
 10 13  1  1  0  0  0
 11 14  1  0  0  0  0
 15 11  1  0  0  0  0
 16 10  1  0  0  0  0
 17 16  1  0  0  0  0
 17 19  1  0  0  0  0
 18 17  2  0  0  0  0
 19 21  1  0  0  0  0
 20 19  1  0  0  0  0
 22  5  1  0  0  0  0
 23 22  2  0  0  0  0
 23 24  1  0  0  0  0
 25 23  1  0  0  0  0
 26 25  2  0  0  0  0
 26 27  1  0  0  0  0
 27 22  1  0  0  0  0
M  END
>  <minimizedAffinity>
-5.16796923

>  <minimizedRMSD>
0.518412292

$$$$
