
 OpenBabel03262522593D

 35 39  0  0  0  0  0  0  0  0999 V2000
   34.7980   28.9930   48.9150 C   0  0  0  0  0  0  0  0  0  0  0  0
   34.7470   28.3850   47.6600 C   0  0  0  0  0  0  0  0  0  0  0  0
   33.4860   27.8830   47.4830 C   0  0  0  0  0  0  0  0  0  0  0  0
   32.7810   28.1900   48.6300 N   0  0  0  0  0  0  0  0  0  0  0  0
   33.6030   28.8450   49.4420 N   0  0  0  0  0  0  0  0  0  0  0  0
   30.5890   27.4830   47.7840 N   0  0  0  0  0  0  0  0  0  0  0  0
   31.4270   27.8160   48.7930 C   0  0  0  0  0  0  0  0  0  0  0  0
   30.7040   27.7140   49.9310 N   0  0  0  0  0  0  0  0  0  0  0  0
   29.4460   27.3280   49.6660 C   0  0  0  0  0  0  0  0  0  0  0  0
   28.2970   27.0630   50.3620 C   0  0  0  0  0  0  0  0  0  0  0  0
   27.1910   26.6840   49.7050 N   0  0  0  0  0  0  0  0  0  0  0  0
   27.1560   26.5510   48.3650 C   0  0  0  0  0  0  0  0  0  0  0  0
   28.2640   26.8020   47.6290 N   0  0  0  0  0  0  0  0  0  0  0  0
   29.3740   27.1820   48.2990 C   0  0  0  0  0  0  0  0  0  0  0  0
   35.5980   28.3460   46.9760 H   0  0  0  0  0  0  0  0  0  0  0  0
   33.2050   27.3630   46.5760 H   0  0  0  0  0  0  0  0  0  0  0  0
   30.8410   27.4610   46.7510 H   0  0  0  0  0  0  0  0  0  0  0  0
   26.2610   26.2460   47.8400 H   0  0  0  0  0  0  0  0  0  0  0  0
   37.4090   30.0200   51.2750 C   0  0  0  0  0  0  0  0  0  0  0  0
   38.1980   30.9090   50.4990 C   0  0  0  0  0  0  0  0  0  0  0  0
   37.7990   31.1200   49.1930 C   0  0  0  0  0  0  0  0  0  0  0  0
   36.7100   30.4990   48.7070 N   0  0  0  0  0  0  0  0  0  0  0  0
   35.9650   29.6440   49.4750 C   0  0  0  0  0  0  0  0  0  0  0  0
   36.3290   29.4220   50.7430 N   0  0  0  0  0  0  0  0  0  0  0  0
   37.6980   29.8350   52.3040 H   0  0  0  0  0  0  0  0  0  0  0  0
   39.0490   31.3580   50.9760 H   0  0  0  0  0  0  0  0  0  0  0  0
   38.5580   31.9990   48.3870 C   0  0  0  0  0  0  0  0  0  0  0  0
   39.0760   33.2740   48.6080 C   0  0  0  0  0  0  0  0  0  0  0  0
   38.8660   33.6930   49.5790 H   0  0  0  0  0  0  0  0  0  0  0  0
   39.7880   33.8920   47.6200 C   0  0  0  0  0  0  0  0  0  0  0  0
   39.9440   33.1480   46.4050 C   0  0  0  0  0  0  0  0  0  0  0  0
   39.0610   31.5950   46.7350 S   0  0  0  0  0  0  0  0  0  0  0  0
   28.3490   27.2070   51.7700 N   0  0  0  0  0  0  0  0  0  0  0  0
   28.7520   26.3520   52.2500 H   0  0  0  0  0  0  0  0  0  0  0  0
   28.0020   28.0970   52.1660 H   0  0  0  0  0  0  0  0  0  0  0  0
  1  5  2  0  0  0  0
  1 23  1  0  0  0  0
  2  1  1  0  0  0  0
  3  2  2  0  0  0  0
  3  4  1  0  0  0  0
  4  7  1  0  0  0  0
  4  5  1  0  0  0  0
  6 14  1  0  0  0  0
  6  7  1  0  0  0  0
  7  8  2  0  0  0  0
  9  8  1  0  0  0  0
  9 10  1  0  0  0  0
 10 33  1  0  0  0  0
 11 10  2  0  0  0  0
 12 11  1  0  0  0  0
 13 14  1  0  0  0  0
 13 12  2  0  0  0  0
 14  9  2  0  0  0  0
 15  2  1  0  0  0  0
 16  3  1  0  0  0  0
 17  6  1  0  0  0  0
 18 12  1  0  0  0  0
 19 25  1  0  0  0  0
 20 26  1  0  0  0  0
 20 19  2  0  0  0  0
 21 20  1  0  0  0  0
 22 21  2  0  0  0  0
 22 23  1  0  0  0  0
 23 24  2  0  0  0  0
 24 19  1  0  0  0  0
 27 28  2  0  0  0  0
 27 21  1  0  0  0  0
 28 29  1  0  0  0  0
 30 28  1  0  0  0  0
 31 32  1  0  0  0  0
 31 30  2  0  0  0  0
 32 27  1  0  0  0  0
 33 35  1  0  0  0  0
 33 34  1  0  0  0  0
M  END
>  <minimizedAffinity>
-7.46315145

>  <minimizedRMSD>
0.852881074

$$$$
