
 OpenBabel03272502363D

 33 35  0  0  1  0  0  0  0  0999 V2000
   34.8260   30.7560   34.3970 C   0  0  2  0  0  0  0  0  0  0  0  0
   34.6380   31.3970   33.5200 H   0  0  0  0  0  0  0  0  0  0  0  0
   33.5960   30.3640   35.1020 C   0  0  0  0  0  0  0  0  0  0  0  0
   33.3480   31.1400   36.2650 C   0  0  0  0  0  0  0  0  0  0  0  0
   32.2570   30.9520   37.0810 C   0  0  0  0  0  0  0  0  0  0  0  0
   31.3100   29.9600   36.7990 C   0  0  0  0  0  0  0  0  0  0  0  0
   31.6280   29.2490   35.6480 C   0  0  0  0  0  0  0  0  0  0  0  0
   32.6820   29.4080   34.8330 N   0  0  0  0  0  0  0  0  0  0  0  0
   33.9310   31.9690   36.6940 H   0  0  0  0  0  0  0  0  0  0  0  0
   32.0130   31.5090   37.9780 H   0  0  0  0  0  0  0  0  0  0  0  0
   30.4250   29.6800   37.3090 H   0  0  0  0  0  0  0  0  0  0  0  0
   30.9840   28.4400   35.2970 H   0  0  0  0  0  0  0  0  0  0  0  0
   36.2620   28.8720   34.7620 C   0  0  0  0  0  3  0  0  0  0  0  0
   35.5420   29.5300   33.9120 C   0  0  0  0  0  3  0  0  0  0  0  0
   37.9760   26.3000   32.6730 C   0  0  0  0  0  0  0  0  0  0  0  0
   37.2910   27.4370   33.0920 C   0  0  0  0  0  0  0  0  0  0  0  0
   36.9790   27.6820   34.4030 C   0  0  0  0  0  0  0  0  0  0  0  0
   37.3780   26.7440   35.2900 N   0  0  0  0  0  0  0  0  0  0  0  0
   38.0360   25.6500   34.8970 C   0  0  0  0  0  0  0  0  0  0  0  0
   38.3340   25.4240   33.6090 N   0  0  0  0  0  0  0  0  0  0  0  0
   38.2310   26.0880   31.6450 H   0  0  0  0  0  0  0  0  0  0  0  0
   37.0510   28.0770   32.2540 H   0  0  0  0  0  0  0  0  0  0  0  0
   38.3700   24.7660   36.0590 C   0  0  0  0  0  0  0  0  0  0  0  0
   37.8400   24.6460   37.2660 C   0  0  0  0  0  0  0  0  0  0  0  0
   37.0060   25.2950   37.4910 H   0  0  0  0  0  0  0  0  0  0  0  0
   38.3240   23.7560   38.1660 C   0  0  0  0  0  3  0  0  0  0  0  0
   39.4630   22.9690   37.6610 C   0  0  0  0  0  3  0  0  0  0  0  0
   39.6600   23.6640   35.9090 S   0  0  0  0  0  0  0  0  0  0  0  0
   35.8970   31.5440   35.6480 S   0  0  0  0  0  0  0  0  0  0  0  0
   36.4370   33.1550   35.1070 C   0  0  0  0  0  0  0  0  0  0  0  0
   35.4800   34.1400   35.2910 F   0  0  0  0  0  0  0  0  0  0  0  0
   37.6460   33.5080   35.6690 F   0  0  0  0  0  0  0  0  0  0  0  0
   36.6790   33.0500   33.7200 F   0  0  0  0  0  0  0  0  0  0  0  0
  1  2  1  6  0  0  0
  1  3  1  0  0  0  0
  1 29  1  0  0  0  0
  3  4  1  0  0  0  0
  4  9  1  0  0  0  0
  4  5  2  0  0  0  0
  5 10  1  0  0  0  0
  6  5  1  0  0  0  0
  6 11  1  0  0  0  0
  7  6  2  0  0  0  0
  8  3  2  0  0  0  0
  8  7  1  0  0  0  0
 12  7  1  0  0  0  0
 14  1  1  0  0  0  0
 14 13  2  0  0  0  0
 15 16  2  0  0  0  0
 15 20  1  0  0  0  0
 16 17  1  0  0  0  0
 17 13  1  0  0  0  0
 17 18  2  0  0  0  0
 19 18  1  0  0  0  0
 19 23  1  0  0  0  0
 20 19  2  0  0  0  0
 21 15  1  0  0  0  0
 22 16  1  0  0  0  0
 23 24  2  0  0  0  0
 24 25  1  0  0  0  0
 24 26  1  0  0  0  0
 27 26  2  0  0  0  0
 28 23  1  0  0  0  0
 28 27  1  0  0  0  0
 30 31  1  0  0  0  0
 30 29  1  0  0  0  0
 30 32  1  0  0  0  0
 33 30  1  0  0  0  0
M  END
>  <minimizedAffinity>
-5.68383169

$$$$

 OpenBabel03272502363D

 33 35  0  0  1  0  0  0  0  0999 V2000
   39.3100   23.1420   35.7180 C   0  0  2  0  0  0  0  0  0  0  0  0
   39.9280   22.4520   36.3150 H   0  0  0  0  0  0  0  0  0  0  0  0
   40.0520   24.3190   35.2410 C   0  0  0  0  0  0  0  0  0  0  0  0
   39.2880   25.5150   35.2840 C   0  0  0  0  0  0  0  0  0  0  0  0
   39.7740   26.7390   34.8860 C   0  0  0  0  0  0  0  0  0  0  0  0
   41.0840   26.8710   34.4080 C   0  0  0  0  0  0  0  0  0  0  0  0
   41.7590   25.6570   34.3990 C   0  0  0  0  0  0  0  0  0  0  0  0
   41.3130   24.4500   34.7780 N   0  0  0  0  0  0  0  0  0  0  0  0
   38.2510   25.6750   35.6160 H   0  0  0  0  0  0  0  0  0  0  0  0
   39.2440   27.6830   34.8950 H   0  0  0  0  0  0  0  0  0  0  0  0
   41.6150   27.7200   34.0650 H   0  0  0  0  0  0  0  0  0  0  0  0
   42.7930   25.5970   34.0510 H   0  0  0  0  0  0  0  0  0  0  0  0
   37.5470   21.9840   34.5790 C   0  0  0  0  0  3  0  0  0  0  0  0
   38.7810   22.3700   34.5440 C   0  0  0  0  0  3  0  0  0  0  0  0
   35.0490   19.9760   32.6690 C   0  0  0  0  0  0  0  0  0  0  0  0
   35.6920   20.7080   33.6640 C   0  0  0  0  0  0  0  0  0  0  0  0
   36.9410   21.2490   33.5060 C   0  0  0  0  0  0  0  0  0  0  0  0
   37.5310   21.0330   32.3100 N   0  0  0  0  0  0  0  0  0  0  0  0
   36.9210   20.3320   31.3500 C   0  0  0  0  0  0  0  0  0  0  0  0
   35.6980   19.8080   31.5200 N   0  0  0  0  0  0  0  0  0  0  0  0
   34.0650   19.5420   32.7740 H   0  0  0  0  0  0  0  0  0  0  0  0
   35.0770   20.7830   34.5510 H   0  0  0  0  0  0  0  0  0  0  0  0
   37.7730   20.2310   30.1220 C   0  0  0  0  0  0  0  0  0  0  0  0
   38.8370   20.9090   29.7200 C   0  0  0  0  0  0  0  0  0  0  0  0
   39.1840   21.6930   30.3790 H   0  0  0  0  0  0  0  0  0  0  0  0
   39.4510   20.6300   28.5460 C   0  0  0  0  0  3  0  0  0  0  0  0
   38.8210   19.5260   27.7990 C   0  0  0  0  0  3  0  0  0  0  0  0
   37.3930   19.0530   28.9530 S   0  0  0  0  0  0  0  0  0  0  0  0
   37.8670   23.7880   36.6300 S   0  0  0  0  0  0  0  0  0  0  0  0
   38.1410   23.7230   38.3910 C   0  0  0  0  0  0  0  0  0  0  0  0
   38.0230   24.9580   39.0070 F   0  0  0  0  0  0  0  0  0  0  0  0
   37.3460   22.7730   39.0000 F   0  0  0  0  0  0  0  0  0  0  0  0
   39.4680   23.2810   38.5720 F   0  0  0  0  0  0  0  0  0  0  0  0
  1  2  1  1  0  0  0
  1 29  1  0  0  0  0
  3  4  1  0  0  0  0
  3  1  1  0  0  0  0
  4  9  1  0  0  0  0
  5 10  1  0  0  0  0
  5  4  2  0  0  0  0
  6  5  1  0  0  0  0
  7  6  2  0  0  0  0
  7  8  1  0  0  0  0
  8  3  2  0  0  0  0
 11  6  1  0  0  0  0
 12  7  1  0  0  0  0
 14 13  2  0  0  0  0
 14  1  1  0  0  0  0
 15 21  1  0  0  0  0
 15 16  1  0  0  0  0
 16 22  1  0  0  0  0
 17 16  2  0  0  0  0
 17 13  1  0  0  0  0
 18 17  1  0  0  0  0
 19 20  1  0  0  0  0
 19 18  2  0  0  0  0
 20 15  2  0  0  0  0
 23 19  1  0  0  0  0
 24 23  2  0  0  0  0
 24 25  1  0  0  0  0
 26 24  1  0  0  0  0
 27 26  2  0  0  0  0
 27 28  1  0  0  0  0
 28 23  1  0  0  0  0
 29 30  1  0  0  0  0
 30 33  1  0  0  0  0
 30 32  1  0  0  0  0
 30 31  1  0  0  0  0
M  END
>  <minimizedAffinity>
-5.61657

$$$$

 OpenBabel03272502363D

 33 35  0  0  1  0  0  0  0  0999 V2000
   38.6450   24.8420   34.5850 C   0  0  2  0  0  0  0  0  0  0  0  0
   39.5780   25.3740   34.3380 H   0  0  0  0  0  0  0  0  0  0  0  0
   38.5640   24.4400   35.9970 C   0  0  0  0  0  0  0  0  0  0  0  0
   39.5180   23.4500   36.3520 C   0  0  0  0  0  0  0  0  0  0  0  0
   39.6280   22.9240   37.6180 C   0  0  0  0  0  0  0  0  0  0  0  0
   38.7820   23.3490   38.6500 C   0  0  0  0  0  0  0  0  0  0  0  0
   37.8810   24.3160   38.2180 C   0  0  0  0  0  0  0  0  0  0  0  0
   37.7500   24.8470   36.9940 N   0  0  0  0  0  0  0  0  0  0  0  0
   40.2850   22.9610   35.7330 H   0  0  0  0  0  0  0  0  0  0  0  0
   40.3320   22.1700   37.9490 H   0  0  0  0  0  0  0  0  0  0  0  0
   38.7260   23.0580   39.6660 H   0  0  0  0  0  0  0  0  0  0  0  0
   37.1540   24.7470   38.9100 H   0  0  0  0  0  0  0  0  0  0  0  0
   37.7830   26.9720   33.9040 C   0  0  0  0  0  3  0  0  0  0  0  0
   37.5040   25.7590   34.2550 C   0  0  0  0  0  3  0  0  0  0  0  0
   35.2780   28.8610   31.8850 C   0  0  0  0  0  0  0  0  0  0  0  0
   36.2570   27.9580   32.2900 C   0  0  0  0  0  0  0  0  0  0  0  0
   36.7670   27.9260   33.5600 C   0  0  0  0  0  0  0  0  0  0  0  0
   36.2620   28.8360   34.4220 N   0  0  0  0  0  0  0  0  0  0  0  0
   35.3230   29.7060   34.0430 C   0  0  0  0  0  0  0  0  0  0  0  0
   34.8330   29.7250   32.7940 N   0  0  0  0  0  0  0  0  0  0  0  0
   34.8620   28.9020   30.8890 H   0  0  0  0  0  0  0  0  0  0  0  0
   36.5440   27.3060   31.4760 H   0  0  0  0  0  0  0  0  0  0  0  0
   34.9250   30.6070   35.1720 C   0  0  0  0  0  0  0  0  0  0  0  0
   35.6170   31.4490   35.9230 C   0  0  0  0  0  0  0  0  0  0  0  0
   36.6730   31.5260   35.7100 H   0  0  0  0  0  0  0  0  0  0  0  0
   35.0250   32.1720   36.9050 C   0  0  0  0  0  3  0  0  0  0  0  0
   33.5780   31.9190   37.0310 C   0  0  0  0  0  3  0  0  0  0  0  0
   33.2950   30.6350   35.6650 S   0  0  0  0  0  0  0  0  0  0  0  0
   38.4080   23.3170   33.6100 S   0  0  0  0  0  0  0  0  0  0  0  0
   37.6480   23.6740   32.0370 C   0  0  0  0  0  0  0  0  0  0  0  0
   36.3000   23.9770   32.1380 F   0  0  0  0  0  0  0  0  0  0  0  0
   38.3380   24.6460   31.3420 F   0  0  0  0  0  0  0  0  0  0  0  0
   37.7630   22.5000   31.2620 F   0  0  0  0  0  0  0  0  0  0  0  0
  1  2  1  6  0  0  0
  1  3  1  0  0  0  0
  3  4  2  0  0  0  0
  3  8  1  0  0  0  0
  4  5  1  0  0  0  0
  5 10  1  0  0  0  0
  5  6  2  0  0  0  0
  6 11  1  0  0  0  0
  7  6  1  0  0  0  0
  7 12  1  0  0  0  0
  8  7  2  0  0  0  0
  9  4  1  0  0  0  0
 13 14  2  0  0  0  0
 14  1  1  0  0  0  0
 15 16  2  0  0  0  0
 15 20  1  0  0  0  0
 16 17  1  0  0  0  0
 17 13  1  0  0  0  0
 17 18  2  0  0  0  0
 19 18  1  0  0  0  0
 19 23  1  0  0  0  0
 20 19  2  0  0  0  0
 21 15  1  0  0  0  0
 22 16  1  0  0  0  0
 23 28  1  0  0  0  0
 23 24  2  0  0  0  0
 24 26  1  0  0  0  0
 25 24  1  0  0  0  0
 26 27  2  0  0  0  0
 28 27  1  0  0  0  0
 29  1  1  0  0  0  0
 30 31  1  0  0  0  0
 30 29  1  0  0  0  0
 32 30  1  0  0  0  0
 33 30  1  0  0  0  0
M  END
>  <minimizedAffinity>
-5.57910585

$$$$

 OpenBabel03272502363D

 33 35  0  0  1  0  0  0  0  0999 V2000
   34.8480   30.6900   34.4090 C   0  0  2  0  0  0  0  0  0  0  0  0
   34.6440   30.5460   35.4820 H   0  0  0  0  0  0  0  0  0  0  0  0
   35.7230   31.8400   34.1350 C   0  0  0  0  0  0  0  0  0  0  0  0
   36.2120   32.4620   35.3130 C   0  0  0  0  0  0  0  0  0  0  0  0
   37.0460   33.5560   35.3020 C   0  0  0  0  0  0  0  0  0  0  0  0
   37.4690   34.1250   34.0940 C   0  0  0  0  0  0  0  0  0  0  0  0
   36.9460   33.4570   32.9930 C   0  0  0  0  0  0  0  0  0  0  0  0
   36.1320   32.3920   32.9720 N   0  0  0  0  0  0  0  0  0  0  0  0
   36.0310   32.2080   36.3690 H   0  0  0  0  0  0  0  0  0  0  0  0
   37.4520   34.0730   36.1620 H   0  0  0  0  0  0  0  0  0  0  0  0
   38.0990   34.9530   33.9000 H   0  0  0  0  0  0  0  0  0  0  0  0
   37.1850   33.7830   31.9790 H   0  0  0  0  0  0  0  0  0  0  0  0
   36.2100   28.7440   34.7290 C   0  0  0  0  0  3  0  0  0  0  0  0
   35.4930   29.4330   33.9020 C   0  0  0  0  0  3  0  0  0  0  0  0
   37.6590   26.0570   32.5840 C   0  0  0  0  0  0  0  0  0  0  0  0
   37.0430   27.2250   33.0240 C   0  0  0  0  0  0  0  0  0  0  0  0
   36.8630   27.5230   34.3490 C   0  0  0  0  0  0  0  0  0  0  0  0
   37.3240   26.6070   35.2280 N   0  0  0  0  0  0  0  0  0  0  0  0
   37.9160   25.4830   34.8150 C   0  0  0  0  0  0  0  0  0  0  0  0
   38.0840   25.2050   33.5140 N   0  0  0  0  0  0  0  0  0  0  0  0
   37.8100   25.8030   31.5450 H   0  0  0  0  0  0  0  0  0  0  0  0
   36.7380   27.8410   32.1890 H   0  0  0  0  0  0  0  0  0  0  0  0
   38.3400   24.6320   35.9730 C   0  0  0  0  0  0  0  0  0  0  0  0
   37.8360   24.4660   37.1850 C   0  0  0  0  0  0  0  0  0  0  0  0
   36.9510   25.0400   37.4200 H   0  0  0  0  0  0  0  0  0  0  0  0
   38.4060   23.6210   38.0780 C   0  0  0  0  0  3  0  0  0  0  0  0
   39.6050   22.9370   37.5600 C   0  0  0  0  0  3  0  0  0  0  0  0
   39.7200   23.6480   35.8060 S   0  0  0  0  0  0  0  0  0  0  0  0
   33.3380   30.9550   33.4180 S   0  0  0  0  0  0  0  0  0  0  0  0
   32.2230   29.5720   33.5670 C   0  0  0  0  0  0  0  0  0  0  0  0
   30.8880   29.9360   33.4860 F   0  0  0  0  0  0  0  0  0  0  0  0
   32.5310   28.5650   32.6750 F   0  0  0  0  0  0  0  0  0  0  0  0
   32.4370   29.0230   34.8490 F   0  0  0  0  0  0  0  0  0  0  0  0
  1  2  1  1  0  0  0
  3  1  1  0  0  0  0
  3  4  1  0  0  0  0
  4  9  1  0  0  0  0
  5  4  2  0  0  0  0
  5 10  1  0  0  0  0
  6  5  1  0  0  0  0
  7  6  2  0  0  0  0
  8  7  1  0  0  0  0
  8  3  2  0  0  0  0
 11  6  1  0  0  0  0
 12  7  1  0  0  0  0
 14  1  1  0  0  0  0
 14 13  2  0  0  0  0
 15 16  2  0  0  0  0
 15 20  1  0  0  0  0
 16 17  1  0  0  0  0
 17 13  1  0  0  0  0
 17 18  2  0  0  0  0
 19 18  1  0  0  0  0
 19 23  1  0  0  0  0
 20 19  2  0  0  0  0
 21 15  1  0  0  0  0
 22 16  1  0  0  0  0
 23 24  2  0  0  0  0
 24 25  1  0  0  0  0
 24 26  1  0  0  0  0
 27 26  2  0  0  0  0
 28 23  1  0  0  0  0
 28 27  1  0  0  0  0
 29 30  1  0  0  0  0
 29  1  1  0  0  0  0
 30 33  1  0  0  0  0
 31 30  1  0  0  0  0
 32 30  1  0  0  0  0
M  END
>  <minimizedAffinity>
-5.50987339

$$$$

 OpenBabel03272502363D

 33 35  0  0  1  0  0  0  0  0999 V2000
   38.5920   24.7410   34.7860 C   0  0  2  0  0  0  0  0  0  0  0  0
   38.1890   23.8610   34.2580 H   0  0  0  0  0  0  0  0  0  0  0  0
   40.0620   24.7840   34.8010 C   0  0  0  0  0  0  0  0  0  0  0  0
   40.5850   26.0780   34.5410 C   0  0  0  0  0  0  0  0  0  0  0  0
   41.9310   26.3570   34.5040 C   0  0  0  0  0  0  0  0  0  0  0  0
   42.8810   25.3530   34.7290 C   0  0  0  0  0  0  0  0  0  0  0  0
   42.2860   24.1210   34.9740 C   0  0  0  0  0  0  0  0  0  0  0  0
   40.9800   23.8180   35.0160 N   0  0  0  0  0  0  0  0  0  0  0  0
   40.0560   27.0220   34.3390 H   0  0  0  0  0  0  0  0  0  0  0  0
   42.3900   27.3200   34.3130 H   0  0  0  0  0  0  0  0  0  0  0  0
   43.9380   25.3870   34.7390 H   0  0  0  0  0  0  0  0  0  0  0  0
   42.8970   23.2360   35.1680 H   0  0  0  0  0  0  0  0  0  0  0  0
   37.2300   26.7130   34.7460 C   0  0  0  0  0  3  0  0  0  0  0  0
   38.0590   25.9620   34.0960 C   0  0  0  0  0  3  0  0  0  0  0  0
   36.1840   29.2450   32.2140 C   0  0  0  0  0  0  0  0  0  0  0  0
   36.7000   28.1070   32.8280 C   0  0  0  0  0  0  0  0  0  0  0  0
   36.6680   27.9070   34.1820 C   0  0  0  0  0  0  0  0  0  0  0  0
   36.0970   28.8900   34.9110 N   0  0  0  0  0  0  0  0  0  0  0  0
   35.5980   29.9860   34.3310 C   0  0  0  0  0  0  0  0  0  0  0  0
   35.6380   30.1680   33.0030 N   0  0  0  0  0  0  0  0  0  0  0  0
   36.1990   29.4220   31.1490 H   0  0  0  0  0  0  0  0  0  0  0  0
   37.1170   27.4270   32.0970 H   0  0  0  0  0  0  0  0  0  0  0  0
   35.0200   30.9250   35.3450 C   0  0  0  0  0  0  0  0  0  0  0  0
   35.5740   31.8240   36.1420 C   0  0  0  0  0  0  0  0  0  0  0  0
   36.6480   31.9260   36.0770 H   0  0  0  0  0  0  0  0  0  0  0  0
   34.8290   32.5720   36.9910 C   0  0  0  0  0  3  0  0  0  0  0  0
   33.3860   32.2770   36.9240 C   0  0  0  0  0  3  0  0  0  0  0  0
   33.3360   30.9210   35.6000 S   0  0  0  0  0  0  0  0  0  0  0  0
   38.0650   24.8370   36.5310 S   0  0  0  0  0  0  0  0  0  0  0  0
   38.3620   23.2940   37.3760 C   0  0  0  0  0  0  0  0  0  0  0  0
   39.6220   23.2190   37.9470 F   0  0  0  0  0  0  0  0  0  0  0  0
   37.3690   23.0110   38.2910 F   0  0  0  0  0  0  0  0  0  0  0  0
   38.2760   22.2810   36.3970 F   0  0  0  0  0  0  0  0  0  0  0  0
  1  2  1  6  0  0  0
  1  3  1  0  0  0  0
  1 29  1  0  0  0  0
  3  8  1  0  0  0  0
  4  3  2  0  0  0  0
  5  4  1  0  0  0  0
  5  6  2  0  0  0  0
  6 11  1  0  0  0  0
  6  7  1  0  0  0  0
  7  8  2  0  0  0  0
  7 12  1  0  0  0  0
  9  4  1  0  0  0  0
 10  5  1  0  0  0  0
 14 13  2  0  0  0  0
 14  1  1  0  0  0  0
 15 16  2  0  0  0  0
 15 20  1  0  0  0  0
 16 17  1  0  0  0  0
 17 13  1  0  0  0  0
 17 18  2  0  0  0  0
 19 18  1  0  0  0  0
 19 23  1  0  0  0  0
 20 19  2  0  0  0  0
 21 15  1  0  0  0  0
 22 16  1  0  0  0  0
 23 28  1  0  0  0  0
 23 24  2  0  0  0  0
 24 26  1  0  0  0  0
 25 24  1  0  0  0  0
 27 26  2  0  0  0  0
 28 27  1  0  0  0  0
 29 30  1  0  0  0  0
 30 31  1  0  0  0  0
 30 32  1  0  0  0  0
 33 30  1  0  0  0  0
M  END
>  <minimizedAffinity>
-5.4621911

$$$$

 OpenBabel03272502363D

 33 35  0  0  1  0  0  0  0  0999 V2000
   34.9450   30.5560   34.4820 C   0  0  2  0  0  0  0  0  0  0  0  0
   34.8000   31.0930   33.5310 H   0  0  0  0  0  0  0  0  0  0  0  0
   33.6830   30.2430   35.1700 C   0  0  0  0  0  0  0  0  0  0  0  0
   33.4100   31.1140   36.2580 C   0  0  0  0  0  0  0  0  0  0  0  0
   32.2870   31.0110   37.0460 C   0  0  0  0  0  0  0  0  0  0  0  0
   31.3290   30.0180   36.8070 C   0  0  0  0  0  0  0  0  0  0  0  0
   31.6730   29.2120   35.7280 C   0  0  0  0  0  0  0  0  0  0  0  0
   32.7580   29.2860   34.9430 N   0  0  0  0  0  0  0  0  0  0  0  0
   33.9950   31.9630   36.6420 H   0  0  0  0  0  0  0  0  0  0  0  0
   32.0230   31.6420   37.8860 H   0  0  0  0  0  0  0  0  0  0  0  0
   30.4210   29.7960   37.3040 H   0  0  0  0  0  0  0  0  0  0  0  0
   31.0240   28.3900   35.4180 H   0  0  0  0  0  0  0  0  0  0  0  0
   36.5590   28.8690   35.0240 C   0  0  0  0  0  3  0  0  0  0  0  0
   35.6780   29.2830   34.1720 C   0  0  0  0  0  3  0  0  0  0  0  0
   39.2260   26.2890   35.4110 C   0  0  0  0  0  0  0  0  0  0  0  0
   38.4470   27.4330   35.5550 C   0  0  0  0  0  0  0  0  0  0  0  0
   37.3080   27.6600   34.8280 C   0  0  0  0  0  0  0  0  0  0  0  0
   36.9710   26.6970   33.9430 N   0  0  0  0  0  0  0  0  0  0  0  0
   37.7130   25.5960   33.7980 C   0  0  0  0  0  0  0  0  0  0  0  0
   38.8260   25.3880   34.5170 N   0  0  0  0  0  0  0  0  0  0  0  0
   40.1270   26.0910   35.9740 H   0  0  0  0  0  0  0  0  0  0  0  0
   38.8620   28.0940   36.3040 H   0  0  0  0  0  0  0  0  0  0  0  0
   37.1350   24.6810   32.7610 C   0  0  0  0  0  0  0  0  0  0  0  0
   36.2180   24.8650   31.8250 C   0  0  0  0  0  0  0  0  0  0  0  0
   35.7810   25.8520   31.7690 H   0  0  0  0  0  0  0  0  0  0  0  0
   35.8530   23.8660   30.9860 C   0  0  0  0  0  3  0  0  0  0  0  0
   36.5700   22.6010   31.2310 C   0  0  0  0  0  3  0  0  0  0  0  0
   37.6940   23.0740   32.6820 S   0  0  0  0  0  0  0  0  0  0  0  0
   35.9600   31.4820   35.6840 S   0  0  0  0  0  0  0  0  0  0  0  0
   36.5150   33.0310   34.9950 C   0  0  0  0  0  0  0  0  0  0  0  0
   37.6180   33.5550   35.6500 F   0  0  0  0  0  0  0  0  0  0  0  0
   36.7250   32.9420   33.6340 F   0  0  0  0  0  0  0  0  0  0  0  0
   35.4500   33.9430   35.1570 F   0  0  0  0  0  0  0  0  0  0  0  0
  1  2  1  6  0  0  0
  1  3  1  0  0  0  0
  1 29  1  0  0  0  0
  3  4  1  0  0  0  0
  4  9  1  0  0  0  0
  4  5  2  0  0  0  0
  5 10  1  0  0  0  0
  6  5  1  0  0  0  0
  6 11  1  0  0  0  0
  7  6  2  0  0  0  0
  8  3  2  0  0  0  0
  8  7  1  0  0  0  0
 12  7  1  0  0  0  0
 14  1  1  0  0  0  0
 14 13  2  0  0  0  0
 15 16  1  0  0  0  0
 15 21  1  0  0  0  0
 16 22  1  0  0  0  0
 17 13  1  0  0  0  0
 17 16  2  0  0  0  0
 18 17  1  0  0  0  0
 19 18  2  0  0  0  0
 19 20  1  0  0  0  0
 20 15  2  0  0  0  0
 23 19  1  0  0  0  0
 24 23  2  0  0  0  0
 25 24  1  0  0  0  0
 26 27  2  0  0  0  0
 26 24  1  0  0  0  0
 27 28  1  0  0  0  0
 28 23  1  0  0  0  0
 30 33  1  0  0  0  0
 30 31  1  0  0  0  0
 30 29  1  0  0  0  0
 32 30  1  0  0  0  0
M  END
>  <minimizedAffinity>
-5.41790152

$$$$

 OpenBabel03272502363D

 33 35  0  0  1  0  0  0  0  0999 V2000
   40.0190   22.9310   35.6110 C   0  0  2  0  0  0  0  0  0  0  0  0
   40.1440   21.9000   35.2430 H   0  0  0  0  0  0  0  0  0  0  0  0
   41.2720   23.7020   35.6090 C   0  0  0  0  0  0  0  0  0  0  0  0
   42.2760   23.1380   36.4390 C   0  0  0  0  0  0  0  0  0  0  0  0
   43.5270   23.6870   36.5930 C   0  0  0  0  0  0  0  0  0  0  0  0
   43.8850   24.8620   35.9200 C   0  0  0  0  0  0  0  0  0  0  0  0
   42.8480   25.3460   35.1330 C   0  0  0  0  0  0  0  0  0  0  0  0
   41.6200   24.8360   34.9630 N   0  0  0  0  0  0  0  0  0  0  0  0
   42.2450   22.2300   37.0610 H   0  0  0  0  0  0  0  0  0  0  0  0
   44.3330   23.3050   37.2080 H   0  0  0  0  0  0  0  0  0  0  0  0
   44.7880   25.4140   35.9210 H   0  0  0  0  0  0  0  0  0  0  0  0
   42.9740   26.2590   34.5460 H   0  0  0  0  0  0  0  0  0  0  0  0
   38.6030   22.9680   33.6780 C   0  0  0  0  0  3  0  0  0  0  0  0
   39.0110   23.6050   34.7270 C   0  0  0  0  0  3  0  0  0  0  0  0
   35.6970   23.1820   31.3480 C   0  0  0  0  0  0  0  0  0  0  0  0
   36.6600   22.7180   32.2390 C   0  0  0  0  0  0  0  0  0  0  0  0
   37.6350   23.5180   32.7710 C   0  0  0  0  0  0  0  0  0  0  0  0
   37.6160   24.8120   32.3820 N   0  0  0  0  0  0  0  0  0  0  0  0
   36.6950   25.2660   31.5270 C   0  0  0  0  0  0  0  0  0  0  0  0
   35.7460   24.4690   31.0140 N   0  0  0  0  0  0  0  0  0  0  0  0
   34.9200   22.5670   30.9170 H   0  0  0  0  0  0  0  0  0  0  0  0
   36.5270   21.6630   32.4410 H   0  0  0  0  0  0  0  0  0  0  0  0
   36.8800   26.7270   31.2510 C   0  0  0  0  0  0  0  0  0  0  0  0
   37.7870   27.3910   30.5510 C   0  0  0  0  0  0  0  0  0  0  0  0
   38.5550   26.7990   30.0770 H   0  0  0  0  0  0  0  0  0  0  0  0
   37.7460   28.7410   30.4430 C   0  0  0  0  0  3  0  0  0  0  0  0
   36.6180   29.3570   31.1660 C   0  0  0  0  0  3  0  0  0  0  0  0
   35.7680   27.8350   31.9120 S   0  0  0  0  0  0  0  0  0  0  0  0
   39.3760   23.0140   37.3180 S   0  0  0  0  0  0  0  0  0  0  0  0
   38.1520   24.3000   37.4790 C   0  0  0  0  0  0  0  0  0  0  0  0
   38.5220   25.4860   36.8660 F   0  0  0  0  0  0  0  0  0  0  0  0
   36.9060   23.8790   37.0630 F   0  0  0  0  0  0  0  0  0  0  0  0
   38.0240   24.5570   38.8610 F   0  0  0  0  0  0  0  0  0  0  0  0
  1  2  1  6  0  0  0
  1 29  1  0  0  0  0
  3  1  1  0  0  0  0
  3  4  1  0  0  0  0
  4  5  2  0  0  0  0
  4  9  1  0  0  0  0
  5 10  1  0  0  0  0
  6 11  1  0  0  0  0
  6  5  1  0  0  0  0
  7  6  2  0  0  0  0
  8  7  1  0  0  0  0
  8  3  2  0  0  0  0
 12  7  1  0  0  0  0
 13 14  2  0  0  0  0
 14  1  1  0  0  0  0
 15 16  1  0  0  0  0
 16 22  1  0  0  0  0
 16 17  2  0  0  0  0
 17 13  1  0  0  0  0
 18 17  1  0  0  0  0
 19 18  2  0  0  0  0
 20 15  2  0  0  0  0
 20 19  1  0  0  0  0
 21 15  1  0  0  0  0
 23 19  1  0  0  0  0
 23 28  1  0  0  0  0
 24 23  2  0  0  0  0
 25 24  1  0  0  0  0
 26 24  1  0  0  0  0
 26 27  2  0  0  0  0
 27 28  1  0  0  0  0
 29 30  1  0  0  0  0
 30 33  1  0  0  0  0
 31 30  1  0  0  0  0
 32 30  1  0  0  0  0
M  END
>  <minimizedAffinity>
-5.37811852

$$$$

 OpenBabel03272502363D

 33 35  0  0  1  0  0  0  0  0999 V2000
   39.0170   26.1450   35.4670 C   0  0  2  0  0  0  0  0  0  0  0  0
   39.6610   26.5500   36.2640 H   0  0  0  0  0  0  0  0  0  0  0  0
   38.4670   24.8180   35.7850 C   0  0  0  0  0  0  0  0  0  0  0  0
   38.6370   23.8770   34.7360 C   0  0  0  0  0  0  0  0  0  0  0  0
   38.2020   22.5740   34.8100 C   0  0  0  0  0  0  0  0  0  0  0  0
   37.5530   22.0960   35.9560 C   0  0  0  0  0  0  0  0  0  0  0  0
   37.4280   23.0790   36.9300 C   0  0  0  0  0  0  0  0  0  0  0  0
   37.8400   24.3550   36.8870 N   0  0  0  0  0  0  0  0  0  0  0  0
   39.1110   24.0020   33.7510 H   0  0  0  0  0  0  0  0  0  0  0  0
   38.3020   21.8110   34.0480 H   0  0  0  0  0  0  0  0  0  0  0  0
   37.1580   21.1410   36.1820 H   0  0  0  0  0  0  0  0  0  0  0  0
   36.9410   22.8590   37.8830 H   0  0  0  0  0  0  0  0  0  0  0  0
   37.5470   27.3910   34.0420 C   0  0  0  0  0  3  0  0  0  0  0  0
   37.8940   27.1180   35.2580 C   0  0  0  0  0  3  0  0  0  0  0  0
   34.8770   29.1490   32.1170 C   0  0  0  0  0  0  0  0  0  0  0  0
   35.9080   28.2900   32.4880 C   0  0  0  0  0  0  0  0  0  0  0  0
   36.4810   28.3010   33.7320 C   0  0  0  0  0  0  0  0  0  0  0  0
   35.9850   29.2080   34.6020 N   0  0  0  0  0  0  0  0  0  0  0  0
   34.9960   30.0370   34.2550 C   0  0  0  0  0  0  0  0  0  0  0  0
   34.4460   30.0130   33.0320 N   0  0  0  0  0  0  0  0  0  0  0  0
   34.4120   29.1560   31.1420 H   0  0  0  0  0  0  0  0  0  0  0  0
   36.1790   27.6330   31.6730 H   0  0  0  0  0  0  0  0  0  0  0  0
   34.6210   30.9440   35.3860 C   0  0  0  0  0  0  0  0  0  0  0  0
   35.3330   31.7700   36.1370 C   0  0  0  0  0  0  0  0  0  0  0  0
   36.3900   31.8250   35.9210 H   0  0  0  0  0  0  0  0  0  0  0  0
   34.7590   32.5030   37.1210 C   0  0  0  0  0  3  0  0  0  0  0  0
   33.3080   32.2810   37.2520 C   0  0  0  0  0  3  0  0  0  0  0  0
   32.9940   31.0050   35.8840 S   0  0  0  0  0  0  0  0  0  0  0  0
   39.8770   25.9650   33.8670 S   0  0  0  0  0  0  0  0  0  0  0  0
   41.6320   26.2240   34.0500 C   0  0  0  0  0  0  0  0  0  0  0  0
   42.1200   25.7980   35.2750 F   0  0  0  0  0  0  0  0  0  0  0  0
   42.3440   25.6800   33.0010 F   0  0  0  0  0  0  0  0  0  0  0  0
   41.8400   27.6170   33.9700 F   0  0  0  0  0  0  0  0  0  0  0  0
  1  3  1  0  0  0  0
  1  2  1  1  0  0  0
  3  8  1  0  0  0  0
  4  5  1  0  0  0  0
  4  3  2  0  0  0  0
  5  6  2  0  0  0  0
  6 11  1  0  0  0  0
  6  7  1  0  0  0  0
  7 12  1  0  0  0  0
  8  7  2  0  0  0  0
  9  4  1  0  0  0  0
 10  5  1  0  0  0  0
 13 14  2  0  0  0  0
 14  1  1  0  0  0  0
 15 16  2  0  0  0  0
 15 20  1  0  0  0  0
 16 17  1  0  0  0  0
 17 13  1  0  0  0  0
 17 18  2  0  0  0  0
 19 18  1  0  0  0  0
 19 23  1  0  0  0  0
 20 19  2  0  0  0  0
 21 15  1  0  0  0  0
 22 16  1  0  0  0  0
 23 28  1  0  0  0  0
 23 24  2  0  0  0  0
 24 26  1  0  0  0  0
 25 24  1  0  0  0  0
 26 27  2  0  0  0  0
 28 27  1  0  0  0  0
 29 30  1  0  0  0  0
 29  1  1  0  0  0  0
 30 31  1  0  0  0  0
 32 30  1  0  0  0  0
 33 30  1  0  0  0  0
M  END
>  <minimizedAffinity>
-5.33754921

$$$$

 OpenBabel03272502363D

 33 35  0  0  1  0  0  0  0  0999 V2000
   35.0220   31.7760   36.2640 C   0  0  2  0  0  0  0  0  0  0  0  0
   35.1000   31.4160   37.3030 H   0  0  0  0  0  0  0  0  0  0  0  0
   35.5800   33.1240   36.0750 C   0  0  0  0  0  0  0  0  0  0  0  0
   36.8120   33.1240   35.3690 C   0  0  0  0  0  0  0  0  0  0  0  0
   37.5170   34.2680   35.0760 C   0  0  0  0  0  0  0  0  0  0  0  0
   37.0420   35.5260   35.4690 C   0  0  0  0  0  0  0  0  0  0  0  0
   35.8350   35.4360   36.1520 C   0  0  0  0  0  0  0  0  0  0  0  0
   35.1250   34.3380   36.4520 N   0  0  0  0  0  0  0  0  0  0  0  0
   37.3850   32.2790   34.9570 H   0  0  0  0  0  0  0  0  0  0  0  0
   38.4570   34.3330   34.5430 H   0  0  0  0  0  0  0  0  0  0  0  0
   37.4460   36.4940   35.3300 H   0  0  0  0  0  0  0  0  0  0  0  0
   35.3370   36.3340   36.5230 H   0  0  0  0  0  0  0  0  0  0  0  0
   35.0580   29.9680   34.6910 C   0  0  0  0  0  3  0  0  0  0  0  0
   35.7570   30.8000   35.3930 C   0  0  0  0  0  3  0  0  0  0  0  0
   35.6860   27.8720   31.6690 C   0  0  0  0  0  0  0  0  0  0  0  0
   35.1560   28.7990   32.5630 C   0  0  0  0  0  0  0  0  0  0  0  0
   35.6610   29.0010   33.8200 C   0  0  0  0  0  0  0  0  0  0  0  0
   36.7230   28.2380   34.1590 N   0  0  0  0  0  0  0  0  0  0  0  0
   37.2380   27.3450   33.3080 C   0  0  0  0  0  0  0  0  0  0  0  0
   36.7320   27.1590   32.0800 N   0  0  0  0  0  0  0  0  0  0  0  0
   35.3020   27.6980   30.6740 H   0  0  0  0  0  0  0  0  0  0  0  0
   34.3140   29.3200   32.1280 H   0  0  0  0  0  0  0  0  0  0  0  0
   38.4060   26.6270   33.9110 C   0  0  0  0  0  0  0  0  0  0  0  0
   39.4870   27.0590   34.5400 C   0  0  0  0  0  0  0  0  0  0  0  0
   39.5780   28.1290   34.6590 H   0  0  0  0  0  0  0  0  0  0  0  0
   40.4250   26.2000   35.0070 C   0  0  0  0  0  3  0  0  0  0  0  0
   40.1110   24.7840   34.7420 C   0  0  0  0  0  3  0  0  0  0  0  0
   38.4550   24.9260   33.8300 S   0  0  0  0  0  0  0  0  0  0  0  0
   33.3020   31.8500   35.6560 S   0  0  0  0  0  0  0  0  0  0  0  0
   32.2010   30.9560   36.7370 C   0  0  0  0  0  0  0  0  0  0  0  0
   30.9740   31.5790   36.9020 F   0  0  0  0  0  0  0  0  0  0  0  0
   32.0560   29.6400   36.3490 F   0  0  0  0  0  0  0  0  0  0  0  0
   32.8300   30.9130   37.9990 F   0  0  0  0  0  0  0  0  0  0  0  0
  1  2  1  1  0  0  0
  3  1  1  0  0  0  0
  3  8  1  0  0  0  0
  4  3  2  0  0  0  0
  5  4  1  0  0  0  0
  5  6  2  0  0  0  0
  6  7  1  0  0  0  0
  7  8  2  0  0  0  0
  7 12  1  0  0  0  0
  9  4  1  0  0  0  0
 10  5  1  0  0  0  0
 11  6  1  0  0  0  0
 13 14  2  0  0  0  0
 14  1  1  0  0  0  0
 15 20  2  0  0  0  0
 15 16  1  0  0  0  0
 16 17  2  0  0  0  0
 17 18  1  0  0  0  0
 17 13  1  0  0  0  0
 19 23  1  0  0  0  0
 19 18  2  0  0  0  0
 20 19  1  0  0  0  0
 21 15  1  0  0  0  0
 22 16  1  0  0  0  0
 23 24  2  0  0  0  0
 24 25  1  0  0  0  0
 24 26  1  0  0  0  0
 27 26  2  0  0  0  0
 28 23  1  0  0  0  0
 28 27  1  0  0  0  0
 29  1  1  0  0  0  0
 29 30  1  0  0  0  0
 30 31  1  0  0  0  0
 30 33  1  0  0  0  0
 32 30  1  0  0  0  0
M  END
>  <minimizedAffinity>
-5.32208014

$$$$
