
 OpenBabel03262522073D

 37 40  0  0  1  0  0  0  0  0999 V2000
   38.7330   23.2310   36.1000 C   0  0  2  0  0  0  0  0  0  0  0  0
   38.1070   24.4030   36.7790 C   0  0  0  0  0  0  0  0  0  0  0  0
   37.9860   25.5020   35.8200 N   0  0  0  0  0  0  0  0  0  0  0  0
   37.5150   26.5690   34.9790 C   0  0  0  0  0  0  0  0  0  0  0  0
   36.4860   27.2470   34.8790 O   0  0  0  0  0  0  0  0  0  0  0  0
   38.7170   26.6350   34.1930 C   0  0  1  0  0  0  0  0  0  0  0  0
   39.2910   25.7240   35.2790 C   0  0  2  0  0  0  0  0  0  0  0  0
   39.6940   24.0430   34.7510 S   0  0  0  0  0  0  0  0  0  0  0  0
   37.0700   24.1180   37.0570 H   0  0  0  0  0  0  0  0  0  0  0  0
   38.6130   24.7140   37.7060 H   0  0  0  0  0  0  0  0  0  0  0  0
   39.2720   27.5910   34.2430 H   0  0  0  0  0  0  0  0  0  0  0  0
   40.0180   26.1900   35.9600 H   0  0  0  0  0  0  0  0  0  0  0  0
   37.8090   22.1710   35.6090 C   0  0  0  0  0  0  0  0  0  0  0  0
   37.5450   22.2420   34.5370 H   0  0  0  0  0  0  0  0  0  0  0  0
   36.9030   22.0850   36.2240 H   0  0  0  0  0  0  0  0  0  0  0  0
   38.3560   21.1940   35.6990 H   0  0  0  0  0  0  0  0  0  0  0  0
   39.8120   22.6570   37.0350 C   0  0  0  0  0  0  0  0  0  0  0  0
   40.1400   21.6610   36.6900 H   0  0  0  0  0  0  0  0  0  0  0  0
   40.6500   23.3630   37.0340 H   0  0  0  0  0  0  0  0  0  0  0  0
   39.2950   22.6240   38.3340 O   0  0  0  0  0  0  0  0  0  0  0  0
   39.5350   21.7400   38.7320 H   0  0  0  0  0  0  0  0  0  0  0  0
   38.6800   26.0740   32.8370 C   0  0  0  0  0  0  0  0  0  0  0  0
   39.7960   26.1730   32.2320 O   0  0  0  0  0  0  0  0  0  0  0  0
   37.5280   25.4710   32.2410 C   0  0  0  0  0  0  0  0  0  0  0  0
   36.5950   26.2930   31.6550 C   0  0  0  0  0  0  0  0  0  0  0  0
   35.4590   25.6850   31.0620 C   0  0  0  0  0  0  0  0  0  0  0  0
   35.3620   24.3300   31.1100 N   0  0  0  0  0  0  0  0  0  0  0  0
   36.2890   23.5510   31.6900 C   0  0  0  0  0  0  0  0  0  0  0  0
   37.3700   24.1310   32.2530 N   0  0  0  0  0  0  0  0  0  0  0  0
   36.6680   27.3720   31.6150 H   0  0  0  0  0  0  0  0  0  0  0  0
   34.7180   26.3240   30.5980 H   0  0  0  0  0  0  0  0  0  0  0  0
   36.0870   22.0820   31.6880 C   0  0  0  0  0  0  0  0  0  0  0  0
   35.0100   21.4500   32.3640 C   0  0  0  0  0  0  0  0  0  0  0  0
   34.2820   22.0270   32.9170 H   0  0  0  0  0  0  0  0  0  0  0  0
   34.9340   20.0860   32.2850 C   0  0  0  0  0  3  0  0  0  0  0  0
   35.9110   19.3920   31.5500 C   0  0  0  0  0  3  0  0  0  0  0  0
   37.0220   20.7970   30.9250 S   0  0  0  0  0  0  0  0  0  0  0  0
  1 13  1  6  0  0  0
  1  2  1  0  0  0  0
  1 17  1  0  0  0  0
  2  9  1  0  0  0  0
  2 10  1  0  0  0  0
  3  2  1  0  0  0  0
  4  3  1  0  0  0  0
  5  4  2  0  0  0  0
  6 11  1  1  0  0  0
  6  4  1  0  0  0  0
  6  7  1  0  0  0  0
  7  3  1  0  0  0  0
  7 12  1  1  0  0  0
  8  7  1  0  0  0  0
  8  1  1  0  0  0  0
 13 16  1  0  0  0  0
 13 15  1  0  0  0  0
 14 13  1  0  0  0  0
 17 20  1  0  0  0  0
 18 17  1  0  0  0  0
 19 17  1  0  0  0  0
 20 21  1  0  0  0  0
 22  6  1  0  0  0  0
 23 22  2  0  0  0  0
 24 29  1  0  0  0  0
 24 22  1  0  0  0  0
 25 24  2  0  0  0  0
 26 27  2  0  0  0  0
 26 25  1  0  0  0  0
 27 28  1  0  0  0  0
 28 29  2  0  0  0  0
 30 25  1  0  0  0  0
 31 26  1  0  0  0  0
 32 28  1  0  0  0  0
 32 33  2  0  0  0  0
 33 34  1  0  0  0  0
 35 33  1  0  0  0  0
 36 35  2  0  0  0  0
 37 36  1  0  0  0  0
 37 32  1  0  0  0  0
M  END
>  <minimizedAffinity>
-6.12216282

$$$$

 OpenBabel03262522073D

 37 40  0  0  1  0  0  0  0  0999 V2000
   41.4920   25.5360   33.5220 C   0  0  2  0  0  0  0  0  0  0  0  0
   41.2350   24.9510   34.8710 C   0  0  0  0  0  0  0  0  0  0  0  0
   39.8460   25.2160   35.2490 N   0  0  0  0  0  0  0  0  0  0  0  0
   38.4740   25.1130   35.6640 C   0  0  0  0  0  0  0  0  0  0  0  0
   37.7490   24.2460   36.1660 O   0  0  0  0  0  0  0  0  0  0  0  0
   38.1390   26.4600   35.2890 C   0  0  1  0  0  0  0  0  0  0  0  0
   39.6510   26.6280   35.1410 C   0  0  2  0  0  0  0  0  0  0  0  0
   40.2420   26.8900   33.4520 S   0  0  0  0  0  0  0  0  0  0  0  0
   41.3260   23.8470   34.7820 H   0  0  0  0  0  0  0  0  0  0  0  0
   41.9460   25.2700   35.6480 H   0  0  0  0  0  0  0  0  0  0  0  0
   37.8170   27.1230   36.1140 H   0  0  0  0  0  0  0  0  0  0  0  0
   40.1430   27.2400   35.9100 H   0  0  0  0  0  0  0  0  0  0  0  0
   41.4180   24.6040   32.3630 C   0  0  0  0  0  0  0  0  0  0  0  0
   40.4510   24.6070   31.8240 H   0  0  0  0  0  0  0  0  0  0  0  0
   41.7080   23.5790   32.6290 H   0  0  0  0  0  0  0  0  0  0  0  0
   42.1630   24.9660   31.6050 H   0  0  0  0  0  0  0  0  0  0  0  0
   42.8410   26.2740   33.5730 C   0  0  0  0  0  0  0  0  0  0  0  0
   43.5950   25.6780   34.1170 H   0  0  0  0  0  0  0  0  0  0  0  0
   43.1570   26.4430   32.5370 H   0  0  0  0  0  0  0  0  0  0  0  0
   42.6350   27.5280   34.1570 O   0  0  0  0  0  0  0  0  0  0  0  0
   43.3710   27.6810   34.8140 H   0  0  0  0  0  0  0  0  0  0  0  0
   37.3470   26.6530   34.0680 C   0  0  0  0  0  0  0  0  0  0  0  0
   37.2410   25.5890   33.3760 O   0  0  0  0  0  0  0  0  0  0  0  0
   36.7450   27.8910   33.6800 C   0  0  0  0  0  0  0  0  0  0  0  0
   36.7740   28.2390   32.3510 C   0  0  0  0  0  0  0  0  0  0  0  0
   36.1690   29.4660   31.9760 C   0  0  0  0  0  0  0  0  0  0  0  0
   35.6000   30.2220   32.9520 N   0  0  0  0  0  0  0  0  0  0  0  0
   35.5870   29.8570   34.2440 C   0  0  0  0  0  0  0  0  0  0  0  0
   36.1620   28.6890   34.5990 N   0  0  0  0  0  0  0  0  0  0  0  0
   37.2260   27.6410   31.5700 H   0  0  0  0  0  0  0  0  0  0  0  0
   36.1870   29.7490   30.9310 H   0  0  0  0  0  0  0  0  0  0  0  0
   34.9390   30.7560   35.2310 C   0  0  0  0  0  0  0  0  0  0  0  0
   35.6710   31.6440   36.0620 C   0  0  0  0  0  0  0  0  0  0  0  0
   36.7490   31.7010   36.0070 H   0  0  0  0  0  0  0  0  0  0  0  0
   34.9560   32.4220   36.9310 C   0  0  0  0  0  3  0  0  0  0  0  0
   33.5550   32.3020   36.9560 C   0  0  0  0  0  3  0  0  0  0  0  0
   33.2380   30.9770   35.6350 S   0  0  0  0  0  0  0  0  0  0  0  0
  1 13  1  6  0  0  0
  1 17  1  0  0  0  0
  1  2  1  0  0  0  0
  2  3  1  0  0  0  0
  2 10  1  0  0  0  0
  3  4  1  0  0  0  0
  4  5  2  0  0  0  0
  6  4  1  0  0  0  0
  6 11  1  1  0  0  0
  7  3  1  0  0  0  0
  7  6  1  0  0  0  0
  7 12  1  1  0  0  0
  8  1  1  0  0  0  0
  8  7  1  0  0  0  0
  9  2  1  0  0  0  0
 13 15  1  0  0  0  0
 14 13  1  0  0  0  0
 16 13  1  0  0  0  0
 17 18  1  0  0  0  0
 17 20  1  0  0  0  0
 19 17  1  0  0  0  0
 20 21  1  0  0  0  0
 22  6  1  0  0  0  0
 23 22  2  0  0  0  0
 24 22  1  0  0  0  0
 24 29  1  0  0  0  0
 25 24  2  0  0  0  0
 26 25  1  0  0  0  0
 26 27  2  0  0  0  0
 27 28  1  0  0  0  0
 28 29  2  0  0  0  0
 28 32  1  0  0  0  0
 30 25  1  0  0  0  0
 31 26  1  0  0  0  0
 32 37  1  0  0  0  0
 32 33  2  0  0  0  0
 33 35  1  0  0  0  0
 34 33  1  0  0  0  0
 35 36  2  0  0  0  0
 37 36  1  0  0  0  0
M  END
>  <minimizedAffinity>
-5.61708117

$$$$

 OpenBabel03262522073D

 37 40  0  0  1  0  0  0  0  0999 V2000
   39.1300   26.3340   31.2660 C   0  0  2  0  0  0  0  0  0  0  0  0
   37.8130   27.0300   31.3570 C   0  0  0  0  0  0  0  0  0  0  0  0
   37.3830   27.0550   32.7560 N   0  0  0  0  0  0  0  0  0  0  0  0
   36.9380   27.4400   34.0670 C   0  0  0  0  0  0  0  0  0  0  0  0
   36.4710   28.4550   34.5960 O   0  0  0  0  0  0  0  0  0  0  0  0
   37.2230   26.1630   34.6640 C   0  0  1  0  0  0  0  0  0  0  0  0
   37.4010   25.7020   33.2170 C   0  0  2  0  0  0  0  0  0  0  0  0
   39.0850   25.2420   32.7510 S   0  0  0  0  0  0  0  0  0  0  0  0
   37.9710   28.0890   31.0620 H   0  0  0  0  0  0  0  0  0  0  0  0
   37.0380   26.6230   30.6900 H   0  0  0  0  0  0  0  0  0  0  0  0
   36.3510   25.6190   35.0740 H   0  0  0  0  0  0  0  0  0  0  0  0
   36.6090   25.0510   32.8220 H   0  0  0  0  0  0  0  0  0  0  0  0
   40.3410   27.1990   31.2060 C   0  0  0  0  0  0  0  0  0  0  0  0
   40.8530   27.3510   32.1750 H   0  0  0  0  0  0  0  0  0  0  0  0
   40.1450   28.1630   30.7180 H   0  0  0  0  0  0  0  0  0  0  0  0
   41.0960   26.6610   30.5710 H   0  0  0  0  0  0  0  0  0  0  0  0
   39.0720   25.3560   30.0790 C   0  0  0  0  0  0  0  0  0  0  0  0
   39.3520   25.8630   29.1380 H   0  0  0  0  0  0  0  0  0  0  0  0
   39.7670   24.5380   30.3000 H   0  0  0  0  0  0  0  0  0  0  0  0
   37.7860   24.8090   30.0230 O   0  0  0  0  0  0  0  0  0  0  0  0
   37.4930   24.8200   29.0690 H   0  0  0  0  0  0  0  0  0  0  0  0
   38.4090   26.0590   35.5240 C   0  0  0  0  0  0  0  0  0  0  0  0
   39.1520   27.0910   35.4650 O   0  0  0  0  0  0  0  0  0  0  0  0
   38.7140   24.9320   36.3500 C   0  0  0  0  0  0  0  0  0  0  0  0
   37.9570   24.7330   37.4800 C   0  0  0  0  0  0  0  0  0  0  0  0
   38.2650   23.6100   38.2900 C   0  0  0  0  0  0  0  0  0  0  0  0
   39.2860   22.8020   37.9010 N   0  0  0  0  0  0  0  0  0  0  0  0
   40.0100   23.0210   36.7910 C   0  0  0  0  0  0  0  0  0  0  0  0
   39.7160   24.0900   36.0210 N   0  0  0  0  0  0  0  0  0  0  0  0
   37.1430   25.3730   37.7940 H   0  0  0  0  0  0  0  0  0  0  0  0
   37.6740   23.4440   39.1830 H   0  0  0  0  0  0  0  0  0  0  0  0
   41.1040   22.0780   36.4570 C   0  0  0  0  0  0  0  0  0  0  0  0
   41.7350   21.2550   37.4270 C   0  0  0  0  0  0  0  0  0  0  0  0
   41.4360   21.2830   38.4650 H   0  0  0  0  0  0  0  0  0  0  0  0
   42.7330   20.4260   36.9910 C   0  0  0  0  0  3  0  0  0  0  0  0
   43.0760   20.4330   35.6270 C   0  0  0  0  0  3  0  0  0  0  0  0
   41.8810   21.7240   34.9160 S   0  0  0  0  0  0  0  0  0  0  0  0
  1 17  1  6  0  0  0
  1  2  1  0  0  0  0
  1  8  1  0  0  0  0
  2  3  1  0  0  0  0
  3  7  1  0  0  0  0
  3  4  1  0  0  0  0
  4  5  2  0  0  0  0
  4  6  1  0  0  0  0
  6 11  1  1  0  0  0
  6 22  1  0  0  0  0
  7 12  1  6  0  0  0
  7  6  1  0  0  0  0
  8  7  1  0  0  0  0
  9  2  1  0  0  0  0
 10  2  1  0  0  0  0
 13  1  1  0  0  0  0
 13 14  1  0  0  0  0
 15 13  1  0  0  0  0
 16 13  1  0  0  0  0
 17 19  1  0  0  0  0
 18 17  1  0  0  0  0
 20 17  1  0  0  0  0
 21 20  1  0  0  0  0
 22 24  1  0  0  0  0
 23 22  2  0  0  0  0
 24 25  1  0  0  0  0
 25 30  1  0  0  0  0
 25 26  2  0  0  0  0
 26 31  1  0  0  0  0
 27 26  1  0  0  0  0
 28 27  2  0  0  0  0
 29 24  2  0  0  0  0
 29 28  1  0  0  0  0
 32 28  1  0  0  0  0
 32 33  2  0  0  0  0
 33 34  1  0  0  0  0
 35 33  1  0  0  0  0
 36 35  2  0  0  0  0
 37 36  1  0  0  0  0
 37 32  1  0  0  0  0
M  END
>  <minimizedAffinity>
-5.44664431

$$$$

 OpenBabel03262522073D

 37 40  0  0  1  0  0  0  0  0999 V2000
   36.8050   26.3680   31.5230 C   0  0  2  0  0  0  0  0  0  0  0  0
   38.1990   26.3820   30.9900 C   0  0  0  0  0  0  0  0  0  0  0  0
   39.1370   26.2240   32.1030 N   0  0  0  0  0  0  0  0  0  0  0  0
   40.1800   25.7900   32.9920 C   0  0  0  0  0  0  0  0  0  0  0  0
   41.1490   25.0240   32.9360 O   0  0  0  0  0  0  0  0  0  0  0  0
   39.7280   26.5900   34.0980 C   0  0  1  0  0  0  0  0  0  0  0  0
   38.8280   27.2480   33.0520 C   0  0  2  0  0  0  0  0  0  0  0  0
   37.0560   26.9530   33.2550 S   0  0  0  0  0  0  0  0  0  0  0  0
   38.3240   25.4820   30.3500 H   0  0  0  0  0  0  0  0  0  0  0  0
   38.4380   27.2560   30.3650 H   0  0  0  0  0  0  0  0  0  0  0  0
   40.4350   27.3640   34.4520 H   0  0  0  0  0  0  0  0  0  0  0  0
   39.1030   28.2710   32.7590 H   0  0  0  0  0  0  0  0  0  0  0  0
   36.0690   25.0770   31.4380 C   0  0  0  0  0  0  0  0  0  0  0  0
   36.0840   24.4700   32.3630 H   0  0  0  0  0  0  0  0  0  0  0  0
   36.3790   24.4730   30.5750 H   0  0  0  0  0  0  0  0  0  0  0  0
   34.9840   25.3290   31.2860 H   0  0  0  0  0  0  0  0  0  0  0  0
   36.0260   27.5130   30.8510 C   0  0  0  0  0  0  0  0  0  0  0  0
   34.9470   27.2830   30.8120 H   0  0  0  0  0  0  0  0  0  0  0  0
   36.2080   28.4180   31.4410 H   0  0  0  0  0  0  0  0  0  0  0  0
   36.5680   27.7260   29.5800 O   0  0  0  0  0  0  0  0  0  0  0  0
   35.8090   27.8290   28.9400 H   0  0  0  0  0  0  0  0  0  0  0  0
   39.0400   25.9070   35.2010 C   0  0  0  0  0  0  0  0  0  0  0  0
   38.5690   26.7170   36.0640 O   0  0  0  0  0  0  0  0  0  0  0  0
   38.8970   24.4890   35.3120 C   0  0  0  0  0  0  0  0  0  0  0  0
   39.5680   23.8460   36.3250 C   0  0  0  0  0  0  0  0  0  0  0  0
   39.4150   22.4400   36.4290 C   0  0  0  0  0  0  0  0  0  0  0  0
   38.6170   21.8150   35.5230 N   0  0  0  0  0  0  0  0  0  0  0  0
   37.9730   22.4690   34.5430 C   0  0  0  0  0  0  0  0  0  0  0  0
   38.1190   23.8070   34.4450 N   0  0  0  0  0  0  0  0  0  0  0  0
   40.2040   24.3390   37.0480 H   0  0  0  0  0  0  0  0  0  0  0  0
   39.9390   21.9240   37.2230 H   0  0  0  0  0  0  0  0  0  0  0  0
   37.1260   21.6920   33.6060 C   0  0  0  0  0  0  0  0  0  0  0  0
   35.9940   20.9460   34.0280 C   0  0  0  0  0  0  0  0  0  0  0  0
   35.7000   20.9150   35.0670 H   0  0  0  0  0  0  0  0  0  0  0  0
   35.2940   20.2710   33.0650 C   0  0  0  0  0  3  0  0  0  0  0  0
   35.7260   20.3500   31.7290 C   0  0  0  0  0  3  0  0  0  0  0  0
   37.2480   21.4740   31.8610 S   0  0  0  0  0  0  0  0  0  0  0  0
  1 17  1  6  0  0  0
  1  8  1  0  0  0  0
  2  1  1  0  0  0  0
  2  3  1  0  0  0  0
  3  4  1  0  0  0  0
  3  7  1  0  0  0  0
  4  6  1  0  0  0  0
  5  4  2  0  0  0  0
  6 11  1  1  0  0  0
  6 22  1  0  0  0  0
  7 12  1  6  0  0  0
  7  8  1  0  0  0  0
  7  6  1  0  0  0  0
  9  2  1  0  0  0  0
 10  2  1  0  0  0  0
 13  1  1  0  0  0  0
 13 14  1  0  0  0  0
 15 13  1  0  0  0  0
 16 13  1  0  0  0  0
 17 19  1  0  0  0  0
 18 17  1  0  0  0  0
 20 17  1  0  0  0  0
 21 20  1  0  0  0  0
 22 24  1  0  0  0  0
 22 23  2  0  0  0  0
 24 25  1  0  0  0  0
 25 26  2  0  0  0  0
 25 30  1  0  0  0  0
 26 31  1  0  0  0  0
 27 26  1  0  0  0  0
 28 27  2  0  0  0  0
 29 28  1  0  0  0  0
 29 24  2  0  0  0  0
 32 33  2  0  0  0  0
 32 28  1  0  0  0  0
 33 34  1  0  0  0  0
 35 33  1  0  0  0  0
 36 37  1  0  0  0  0
 36 35  2  0  0  0  0
 37 32  1  0  0  0  0
M  END
>  <minimizedAffinity>
-5.37246799

$$$$

 OpenBabel03262522073D

 37 40  0  0  1  0  0  0  0  0999 V2000
   37.1230   21.6540   32.4100 C   0  0  2  0  0  0  0  0  0  0  0  0
   38.3980   21.9630   31.6990 C   0  0  0  0  0  0  0  0  0  0  0  0
   38.4500   23.3990   31.4170 N   0  0  0  0  0  0  0  0  0  0  0  0
   38.8210   24.7840   31.3170 C   0  0  0  0  0  0  0  0  0  0  0  0
   39.8400   25.4580   31.5100 O   0  0  0  0  0  0  0  0  0  0  0  0
   37.5230   25.2190   30.8790 C   0  0  1  0  0  0  0  0  0  0  0  0
   37.2520   23.7240   30.7090 C   0  0  2  0  0  0  0  0  0  0  0  0
   36.0280   23.0230   31.8390 S   0  0  0  0  0  0  0  0  0  0  0  0
   39.2340   21.7550   32.4000 H   0  0  0  0  0  0  0  0  0  0  0  0
   38.5750   21.3560   30.7990 H   0  0  0  0  0  0  0  0  0  0  0  0
   37.4830   25.6740   29.8710 H   0  0  0  0  0  0  0  0  0  0  0  0
   37.1950   23.3630   29.6720 H   0  0  0  0  0  0  0  0  0  0  0  0
   37.1960   21.5360   33.8930 C   0  0  0  0  0  0  0  0  0  0  0  0
   36.9070   22.4490   34.4470 H   0  0  0  0  0  0  0  0  0  0  0  0
   38.1720   21.1680   34.2380 H   0  0  0  0  0  0  0  0  0  0  0  0
   36.4330   20.7690   34.1980 H   0  0  0  0  0  0  0  0  0  0  0  0
   36.5130   20.3940   31.7700 C   0  0  0  0  0  0  0  0  0  0  0  0
   35.8250   20.6650   30.9500 H   0  0  0  0  0  0  0  0  0  0  0  0
   37.3450   19.7880   31.3920 H   0  0  0  0  0  0  0  0  0  0  0  0
   35.8780   19.6550   32.7720 O   0  0  0  0  0  0  0  0  0  0  0  0
   34.9930   19.3600   32.4160 H   0  0  0  0  0  0  0  0  0  0  0  0
   36.6730   25.9210   31.8490 C   0  0  0  0  0  0  0  0  0  0  0  0
   35.5210   26.1990   31.3840 O   0  0  0  0  0  0  0  0  0  0  0  0
   37.0720   26.2610   33.1800 C   0  0  0  0  0  0  0  0  0  0  0  0
   36.9080   27.5610   33.5950 C   0  0  0  0  0  0  0  0  0  0  0  0
   37.3020   27.8850   34.9180 C   0  0  0  0  0  0  0  0  0  0  0  0
   37.8180   26.8950   35.6920 N   0  0  0  0  0  0  0  0  0  0  0  0
   37.9680   25.6320   35.2600 C   0  0  0  0  0  0  0  0  0  0  0  0
   37.5920   25.3240   34.0010 N   0  0  0  0  0  0  0  0  0  0  0  0
   36.4980   28.3530   32.9830 H   0  0  0  0  0  0  0  0  0  0  0  0
   37.1770   28.9070   35.2550 H   0  0  0  0  0  0  0  0  0  0  0  0
   38.5420   24.6260   36.1860 C   0  0  0  0  0  0  0  0  0  0  0  0
   38.0270   24.3950   37.4890 C   0  0  0  0  0  0  0  0  0  0  0  0
   37.1810   24.9540   37.8630 H   0  0  0  0  0  0  0  0  0  0  0  0
   38.6460   23.4380   38.2470 C   0  0  0  0  0  3  0  0  0  0  0  0
   39.7420   22.7450   37.7040 C   0  0  0  0  0  3  0  0  0  0  0  0
   39.8990   23.5210   35.9800 S   0  0  0  0  0  0  0  0  0  0  0  0
  1 17  1  6  0  0  0
  1 13  1  0  0  0  0
  2  9  1  0  0  0  0
  2  1  1  0  0  0  0
  3  2  1  0  0  0  0
  4  3  1  0  0  0  0
  4  5  2  0  0  0  0
  6 11  1  6  0  0  0
  6  4  1  0  0  0  0
  6 22  1  0  0  0  0
  7 12  1  6  0  0  0
  7  6  1  0  0  0  0
  7  3  1  0  0  0  0
  7  8  1  0  0  0  0
  8  1  1  0  0  0  0
 10  2  1  0  0  0  0
 13 16  1  0  0  0  0
 13 15  1  0  0  0  0
 13 14  1  0  0  0  0
 17 20  1  0  0  0  0
 18 17  1  0  0  0  0
 19 17  1  0  0  0  0
 21 20  1  0  0  0  0
 22 24  1  0  0  0  0
 23 22  2  0  0  0  0
 24 25  2  0  0  0  0
 24 29  1  0  0  0  0
 25 26  1  0  0  0  0
 26 31  1  0  0  0  0
 26 27  2  0  0  0  0
 28 27  1  0  0  0  0
 28 32  1  0  0  0  0
 29 28  2  0  0  0  0
 30 25  1  0  0  0  0
 32 33  2  0  0  0  0
 33 34  1  0  0  0  0
 33 35  1  0  0  0  0
 36 35  2  0  0  0  0
 37 32  1  0  0  0  0
 37 36  1  0  0  0  0
M  END
>  <minimizedAffinity>
-5.30039406

$$$$

 OpenBabel03262522073D

 37 40  0  0  1  0  0  0  0  0999 V2000
   36.8110   25.9330   31.5610 C   0  0  2  0  0  0  0  0  0  0  0  0
   38.1110   25.8890   30.8300 C   0  0  0  0  0  0  0  0  0  0  0  0
   39.2060   25.9710   31.7980 N   0  0  0  0  0  0  0  0  0  0  0  0
   40.3880   25.7430   32.5830 C   0  0  0  0  0  0  0  0  0  0  0  0
   41.3820   25.0100   32.5200 O   0  0  0  0  0  0  0  0  0  0  0  0
   40.0530   26.7220   33.5820 C   0  0  1  0  0  0  0  0  0  0  0  0
   38.9760   27.1440   32.5830 C   0  0  2  0  0  0  0  0  0  0  0  0
   37.2720   26.8370   33.1010 S   0  0  0  0  0  0  0  0  0  0  0  0
   38.1950   24.8910   30.3510 H   0  0  0  0  0  0  0  0  0  0  0  0
   38.2060   26.6380   30.0290 H   0  0  0  0  0  0  0  0  0  0  0  0
   40.7570   27.5690   33.6800 H   0  0  0  0  0  0  0  0  0  0  0  0
   39.1470   28.1030   32.0720 H   0  0  0  0  0  0  0  0  0  0  0  0
   36.1460   24.6260   31.8220 C   0  0  0  0  0  0  0  0  0  0  0  0
   36.3290   24.2030   32.8280 H   0  0  0  0  0  0  0  0  0  0  0  0
   36.3640   23.8810   31.0450 H   0  0  0  0  0  0  0  0  0  0  0  0
   35.0380   24.8110   31.7920 H   0  0  0  0  0  0  0  0  0  0  0  0
   35.8780   26.9070   30.8200 C   0  0  0  0  0  0  0  0  0  0  0  0
   34.9920   26.3780   30.4260 H   0  0  0  0  0  0  0  0  0  0  0  0
   35.5820   27.6800   31.5370 H   0  0  0  0  0  0  0  0  0  0  0  0
   36.6130   27.5340   29.8090 O   0  0  0  0  0  0  0  0  0  0  0  0
   36.0500   27.5370   28.9830 H   0  0  0  0  0  0  0  0  0  0  0  0
   39.5710   26.2350   34.8810 C   0  0  0  0  0  0  0  0  0  0  0  0
   39.3150   27.1800   35.6960 O   0  0  0  0  0  0  0  0  0  0  0  0
   39.3940   24.8560   35.2160 C   0  0  0  0  0  0  0  0  0  0  0  0
   38.1130   24.3640   35.2860 C   0  0  0  0  0  0  0  0  0  0  0  0
   37.9490   22.9940   35.6130 C   0  0  0  0  0  0  0  0  0  0  0  0
   39.0660   22.2530   35.8380 N   0  0  0  0  0  0  0  0  0  0  0  0
   40.3070   22.7600   35.7630 C   0  0  0  0  0  0  0  0  0  0  0  0
   40.4620   24.0650   35.4510 N   0  0  0  0  0  0  0  0  0  0  0  0
   37.2210   24.9500   35.1080 H   0  0  0  0  0  0  0  0  0  0  0  0
   36.9440   22.5970   35.6710 H   0  0  0  0  0  0  0  0  0  0  0  0
   41.4600   21.8650   36.0270 C   0  0  0  0  0  0  0  0  0  0  0  0
   41.6990   21.2700   37.2940 C   0  0  0  0  0  0  0  0  0  0  0  0
   41.0380   21.4490   38.1300 H   0  0  0  0  0  0  0  0  0  0  0  0
   42.7970   20.4620   37.4090 C   0  0  0  0  0  3  0  0  0  0  0  0
   43.6190   20.2670   36.2840 C   0  0  0  0  0  3  0  0  0  0  0  0
   42.7540   21.3190   34.9640 S   0  0  0  0  0  0  0  0  0  0  0  0
  1 17  1  6  0  0  0
  1 13  1  0  0  0  0
  1  8  1  0  0  0  0
  2  1  1  0  0  0  0
  2  3  1  0  0  0  0
  3  7  1  0  0  0  0
  3  4  1  0  0  0  0
  4  6  1  0  0  0  0
  5  4  2  0  0  0  0
  6 11  1  1  0  0  0
  6 22  1  0  0  0  0
  7 12  1  6  0  0  0
  7  8  1  0  0  0  0
  7  6  1  0  0  0  0
  9  2  1  0  0  0  0
 10  2  1  0  0  0  0
 13 14  1  0  0  0  0
 15 13  1  0  0  0  0
 16 13  1  0  0  0  0
 17 19  1  0  0  0  0
 18 17  1  0  0  0  0
 20 17  1  0  0  0  0
 21 20  1  0  0  0  0
 22 24  1  0  0  0  0
 22 23  2  0  0  0  0
 24 25  2  0  0  0  0
 24 29  1  0  0  0  0
 25 26  1  0  0  0  0
 26 31  1  0  0  0  0
 26 27  2  0  0  0  0
 28 27  1  0  0  0  0
 28 32  1  0  0  0  0
 29 28  2  0  0  0  0
 30 25  1  0  0  0  0
 32 33  2  0  0  0  0
 33 35  1  0  0  0  0
 33 34  1  0  0  0  0
 36 35  2  0  0  0  0
 37 32  1  0  0  0  0
 37 36  1  0  0  0  0
M  END
>  <minimizedAffinity>
-5.06412029

$$$$

 OpenBabel03262522073D

 37 40  0  0  1  0  0  0  0  0999 V2000
   40.0830   26.4050   33.2190 C   0  0  2  0  0  0  0  0  0  0  0  0
   38.8430   27.1030   32.7700 C   0  0  0  0  0  0  0  0  0  0  0  0
   38.0230   26.1680   31.9970 N   0  0  0  0  0  0  0  0  0  0  0  0
   36.9630   25.3460   31.4810 C   0  0  0  0  0  0  0  0  0  0  0  0
   35.7410   25.2460   31.6470 O   0  0  0  0  0  0  0  0  0  0  0  0
   37.8200   24.5810   30.6170 C   0  0  1  0  0  0  0  0  0  0  0  0
   38.8560   25.6540   30.9540 C   0  0  2  0  0  0  0  0  0  0  0  0
   40.2650   25.0920   31.9370 S   0  0  0  0  0  0  0  0  0  0  0  0
   38.2520   27.3570   33.6750 H   0  0  0  0  0  0  0  0  0  0  0  0
   39.0220   28.0450   32.2290 H   0  0  0  0  0  0  0  0  0  0  0  0
   37.6080   24.6620   29.5340 H   0  0  0  0  0  0  0  0  0  0  0  0
   39.0980   26.3570   30.1450 H   0  0  0  0  0  0  0  0  0  0  0  0
   40.0850   25.8750   34.6110 C   0  0  0  0  0  0  0  0  0  0  0  0
   39.8350   24.8010   34.7010 H   0  0  0  0  0  0  0  0  0  0  0  0
   39.4630   26.4740   35.2900 H   0  0  0  0  0  0  0  0  0  0  0  0
   41.1410   25.9500   34.9880 H   0  0  0  0  0  0  0  0  0  0  0  0
   41.2760   27.3430   32.9660 C   0  0  0  0  0  0  0  0  0  0  0  0
   41.9010   26.9680   32.1370 H   0  0  0  0  0  0  0  0  0  0  0  0
   40.8660   28.3310   32.7260 H   0  0  0  0  0  0  0  0  0  0  0  0
   41.9970   27.4680   34.1580 O   0  0  0  0  0  0  0  0  0  0  0  0
   42.9670   27.3880   33.9340 H   0  0  0  0  0  0  0  0  0  0  0  0
   38.1560   23.2110   31.0250 C   0  0  0  0  0  0  0  0  0  0  0  0
   38.9360   22.6300   30.2020 O   0  0  0  0  0  0  0  0  0  0  0  0
   37.6770   22.5790   32.2150 C   0  0  0  0  0  0  0  0  0  0  0  0
   36.6590   21.6630   32.0990 C   0  0  0  0  0  0  0  0  0  0  0  0
   36.1960   21.0380   33.2840 C   0  0  0  0  0  0  0  0  0  0  0  0
   36.7830   21.3840   34.4600 N   0  0  0  0  0  0  0  0  0  0  0  0
   37.7760   22.2840   34.5450 C   0  0  0  0  0  0  0  0  0  0  0  0
   38.2170   22.8770   33.4160 N   0  0  0  0  0  0  0  0  0  0  0  0
   36.1890   21.3850   31.1650 H   0  0  0  0  0  0  0  0  0  0  0  0
   35.3940   20.3150   33.2030 H   0  0  0  0  0  0  0  0  0  0  0  0
   38.3480   22.5890   35.8780 C   0  0  0  0  0  0  0  0  0  0  0  0
   39.6850   22.2720   36.2350 C   0  0  0  0  0  0  0  0  0  0  0  0
   40.3510   21.7860   35.5350 H   0  0  0  0  0  0  0  0  0  0  0  0
   40.0940   22.6060   37.4970 C   0  0  0  0  0  3  0  0  0  0  0  0
   39.1820   23.2370   38.3620 C   0  0  0  0  0  3  0  0  0  0  0  0
   37.6230   23.3600   37.2870 S   0  0  0  0  0  0  0  0  0  0  0  0
  1 17  1  6  0  0  0
  1 13  1  0  0  0  0
  2  1  1  0  0  0  0
  2  9  1  0  0  0  0
  3  2  1  0  0  0  0
  4  5  2  0  0  0  0
  4  3  1  0  0  0  0
  6 11  1  6  0  0  0
  6  7  1  0  0  0  0
  6 22  1  0  0  0  0
  6  4  1  0  0  0  0
  7 12  1  6  0  0  0
  7  8  1  0  0  0  0
  7  3  1  0  0  0  0
  8  1  1  0  0  0  0
 10  2  1  0  0  0  0
 13 14  1  0  0  0  0
 13 16  1  0  0  0  0
 13 15  1  0  0  0  0
 17 20  1  0  0  0  0
 18 17  1  0  0  0  0
 19 17  1  0  0  0  0
 21 20  1  0  0  0  0
 22 24  1  0  0  0  0
 23 22  2  0  0  0  0
 24 29  1  0  0  0  0
 25 24  2  0  0  0  0
 25 26  1  0  0  0  0
 26 27  2  0  0  0  0
 27 28  1  0  0  0  0
 28 32  1  0  0  0  0
 29 28  2  0  0  0  0
 30 25  1  0  0  0  0
 31 26  1  0  0  0  0
 32 33  2  0  0  0  0
 32 37  1  0  0  0  0
 33 35  1  0  0  0  0
 34 33  1  0  0  0  0
 35 36  2  0  0  0  0
 37 36  1  0  0  0  0
M  END
>  <minimizedAffinity>
-5.04706287

$$$$

 OpenBabel03262522073D

 37 40  0  0  1  0  0  0  0  0999 V2000
   31.6980   31.5940   33.6840 C   0  0  2  0  0  0  0  0  0  0  0  0
   32.1530   31.5220   35.1030 C   0  0  0  0  0  0  0  0  0  0  0  0
   33.5670   31.1440   35.1310 N   0  0  0  0  0  0  0  0  0  0  0  0
   34.9850   31.0800   35.3580 C   0  0  0  0  0  0  0  0  0  0  0  0
   35.8060   31.6470   36.0890 O   0  0  0  0  0  0  0  0  0  0  0  0
   35.2110   30.0480   34.3820 C   0  0  1  0  0  0  0  0  0  0  0  0
   33.6860   29.9330   34.3810 C   0  0  2  0  0  0  0  0  0  0  0  0
   32.8690   30.4390   32.8500 S   0  0  0  0  0  0  0  0  0  0  0  0
   32.0980   32.5470   35.5270 H   0  0  0  0  0  0  0  0  0  0  0  0
   31.5370   30.8750   35.7460 H   0  0  0  0  0  0  0  0  0  0  0  0
   35.6100   29.0930   34.7740 H   0  0  0  0  0  0  0  0  0  0  0  0
   33.2740   29.0320   34.8580 H   0  0  0  0  0  0  0  0  0  0  0  0
   31.6590   32.9460   33.0610 C   0  0  0  0  0  0  0  0  0  0  0  0
   32.5460   33.2030   32.4510 H   0  0  0  0  0  0  0  0  0  0  0  0
   31.4500   33.7390   33.7910 H   0  0  0  0  0  0  0  0  0  0  0  0
   30.8060   32.9450   32.3300 H   0  0  0  0  0  0  0  0  0  0  0  0
   30.3360   30.8820   33.5830 C   0  0  0  0  0  0  0  0  0  0  0  0
   30.0130   30.5130   34.5730 H   0  0  0  0  0  0  0  0  0  0  0  0
   29.6190   31.6110   33.1880 H   0  0  0  0  0  0  0  0  0  0  0  0
   30.4470   29.8520   32.6440 O   0  0  0  0  0  0  0  0  0  0  0  0
   30.0040   29.0440   33.0280 H   0  0  0  0  0  0  0  0  0  0  0  0
   35.8280   30.4360   33.1070 C   0  0  0  0  0  0  0  0  0  0  0  0
   36.0140   31.6920   33.0130 O   0  0  0  0  0  0  0  0  0  0  0  0
   36.1930   29.5200   32.0720 C   0  0  0  0  0  0  0  0  0  0  0  0
   36.6040   30.0330   30.8650 C   0  0  0  0  0  0  0  0  0  0  0  0
   36.9690   29.1160   29.8470 C   0  0  0  0  0  0  0  0  0  0  0  0
   36.8890   27.7880   30.1260 N   0  0  0  0  0  0  0  0  0  0  0  0
   36.4830   27.3130   31.3140 C   0  0  0  0  0  0  0  0  0  0  0  0
   36.1370   28.1880   32.2830 N   0  0  0  0  0  0  0  0  0  0  0  0
   36.6690   31.0890   30.6390 H   0  0  0  0  0  0  0  0  0  0  0  0
   37.2940   29.5110   28.8930 H   0  0  0  0  0  0  0  0  0  0  0  0
   36.4320   25.8450   31.5150 C   0  0  0  0  0  0  0  0  0  0  0  0
   35.4030   25.0280   30.9750 C   0  0  0  0  0  0  0  0  0  0  0  0
   34.6040   25.4530   30.3850 H   0  0  0  0  0  0  0  0  0  0  0  0
   35.4700   23.6860   31.2310 C   0  0  0  0  0  3  0  0  0  0  0  0
   36.5360   23.1930   32.0040 C   0  0  0  0  0  3  0  0  0  0  0  0
   37.5170   24.7690   32.3930 S   0  0  0  0  0  0  0  0  0  0  0  0
  1 13  1  6  0  0  0
  1  2  1  0  0  0  0
  2  3  1  0  0  0  0
  2  9  1  0  0  0  0
  2 10  1  0  0  0  0
  3  4  1  0  0  0  0
  4  5  2  0  0  0  0
  6 11  1  1  0  0  0
  6  4  1  0  0  0  0
  7  6  1  0  0  0  0
  7 12  1  1  0  0  0
  7  3  1  0  0  0  0
  8  1  1  0  0  0  0
  8  7  1  0  0  0  0
 13 15  1  0  0  0  0
 14 13  1  0  0  0  0
 16 13  1  0  0  0  0
 17  1  1  0  0  0  0
 17 18  1  0  0  0  0
 19 17  1  0  0  0  0
 20 21  1  0  0  0  0
 20 17  1  0  0  0  0
 22  6  1  0  0  0  0
 23 22  2  0  0  0  0
 24 29  1  0  0  0  0
 24 22  1  0  0  0  0
 25 24  2  0  0  0  0
 26 27  2  0  0  0  0
 26 25  1  0  0  0  0
 27 28  1  0  0  0  0
 28 32  1  0  0  0  0
 28 29  2  0  0  0  0
 30 25  1  0  0  0  0
 31 26  1  0  0  0  0
 32 37  1  0  0  0  0
 33 35  1  0  0  0  0
 33 32  2  0  0  0  0
 34 33  1  0  0  0  0
 35 36  2  0  0  0  0
 36 37  1  0  0  0  0
M  END
>  <minimizedAffinity>
-4.95863867

$$$$

 OpenBabel03262522073D

 37 40  0  0  1  0  0  0  0  0999 V2000
   38.5800   26.4460   34.8060 C   0  0  2  0  0  0  0  0  0  0  0  0
   39.7600   26.6090   33.9080 C   0  0  0  0  0  0  0  0  0  0  0  0
   39.2910   26.8890   32.5500 N   0  0  0  0  0  0  0  0  0  0  0  0
   39.0480   27.4560   31.2510 C   0  0  0  0  0  0  0  0  0  0  0  0
   39.5510   28.3390   30.5470 O   0  0  0  0  0  0  0  0  0  0  0  0
   37.9230   26.6070   30.9640 C   0  0  1  0  0  0  0  0  0  0  0  0
   38.3890   25.8370   32.2000 C   0  0  2  0  0  0  0  0  0  0  0  0
   37.2750   25.9030   33.6220 S   0  0  0  0  0  0  0  0  0  0  0  0
   40.3120   27.5150   34.2370 H   0  0  0  0  0  0  0  0  0  0  0  0
   40.4730   25.7710   33.9370 H   0  0  0  0  0  0  0  0  0  0  0  0
   38.0400   25.9310   30.0960 H   0  0  0  0  0  0  0  0  0  0  0  0
   38.8470   24.8560   32.0080 H   0  0  0  0  0  0  0  0  0  0  0  0
   38.1860   27.6320   35.6150 C   0  0  0  0  0  0  0  0  0  0  0  0
   37.3680   28.2390   35.1850 H   0  0  0  0  0  0  0  0  0  0  0  0
   39.0430   28.2690   35.8730 H   0  0  0  0  0  0  0  0  0  0  0  0
   37.7680   27.2430   36.5830 H   0  0  0  0  0  0  0  0  0  0  0  0
   38.8210   25.2090   35.6900 C   0  0  0  0  0  0  0  0  0  0  0  0
   39.0130   25.5060   36.7360 H   0  0  0  0  0  0  0  0  0  0  0  0
   37.9240   24.5840   35.6230 H   0  0  0  0  0  0  0  0  0  0  0  0
   39.8820   24.4790   35.1440 O   0  0  0  0  0  0  0  0  0  0  0  0
   40.4830   24.2120   35.8950 H   0  0  0  0  0  0  0  0  0  0  0  0
   36.5820   27.2000   31.0420 C   0  0  0  0  0  0  0  0  0  0  0  0
   35.6560   26.3490   30.8420 O   0  0  0  0  0  0  0  0  0  0  0  0
   36.3200   28.5780   31.3170 C   0  0  0  0  0  0  0  0  0  0  0  0
   36.5120   29.4900   30.3060 C   0  0  0  0  0  0  0  0  0  0  0  0
   36.2440   30.8530   30.5880 C   0  0  0  0  0  0  0  0  0  0  0  0
   35.8160   31.1760   31.8370 N   0  0  0  0  0  0  0  0  0  0  0  0
   35.6380   30.2640   32.8060 C   0  0  0  0  0  0  0  0  0  0  0  0
   35.8920   28.9660   32.5370 N   0  0  0  0  0  0  0  0  0  0  0  0
   36.8520   29.2380   29.3100 H   0  0  0  0  0  0  0  0  0  0  0  0
   36.3920   31.5790   29.7980 H   0  0  0  0  0  0  0  0  0  0  0  0
   35.1670   30.7220   34.1360 C   0  0  0  0  0  0  0  0  0  0  0  0
   36.0260   31.3270   35.0920 C   0  0  0  0  0  0  0  0  0  0  0  0
   37.0750   31.4800   34.8830 H   0  0  0  0  0  0  0  0  0  0  0  0
   35.4690   31.7060   36.2830 C   0  0  0  0  0  3  0  0  0  0  0  0
   34.0980   31.4800   36.4950 C   0  0  0  0  0  3  0  0  0  0  0  0
   33.5650   30.6630   34.8670 S   0  0  0  0  0  0  0  0  0  0  0  0
  1 13  1  1  0  0  0
  1 17  1  0  0  0  0
  2 10  1  0  0  0  0
  2  9  1  0  0  0  0
  2  1  1  0  0  0  0
  3  2  1  0  0  0  0
  4  3  1  0  0  0  0
  5  4  2  0  0  0  0
  6 11  1  6  0  0  0
  6 22  1  0  0  0  0
  6  4  1  0  0  0  0
  6  7  1  0  0  0  0
  7 12  1  6  0  0  0
  7  3  1  0  0  0  0
  7  8  1  0  0  0  0
  8  1  1  0  0  0  0
 13 15  1  0  0  0  0
 13 16  1  0  0  0  0
 14 13  1  0  0  0  0
 17 18  1  0  0  0  0
 19 17  1  0  0  0  0
 20 17  1  0  0  0  0
 20 21  1  0  0  0  0
 22 24  1  0  0  0  0
 23 22  2  0  0  0  0
 24 29  1  0  0  0  0
 25 26  1  0  0  0  0
 25 24  2  0  0  0  0
 26 27  2  0  0  0  0
 27 28  1  0  0  0  0
 28 32  1  0  0  0  0
 29 28  2  0  0  0  0
 30 25  1  0  0  0  0
 31 26  1  0  0  0  0
 32 37  1  0  0  0  0
 32 33  2  0  0  0  0
 33 35  1  0  0  0  0
 34 33  1  0  0  0  0
 35 36  2  0  0  0  0
 37 36  1  0  0  0  0
M  END
>  <minimizedAffinity>
-4.95060539

$$$$
