
 OpenBabel03272507453D

 30 32  0  0  0  0  0  0  0  0999 V2000
   39.0960   24.8790   34.7630 N   0  0  0  0  0  0  0  0  0  0  0  0
   39.8950   26.0100   34.3800 C   0  0  0  0  0  0  0  0  0  0  0  0
   39.2640   27.0480   33.5450 C   0  0  0  0  0  0  0  0  0  0  0  0
   38.1530   26.6210   32.6420 C   0  0  0  0  0  0  0  0  0  0  0  0
   37.4090   25.4050   33.1110 C   0  0  0  0  0  0  0  0  0  0  0  0
   38.4530   24.3660   33.5800 C   0  0  0  0  0  0  0  0  0  0  0  0
   40.7920   25.5960   33.8550 H   0  0  0  0  0  0  0  0  0  0  0  0
   40.2830   26.4630   35.3250 H   0  0  0  0  0  0  0  0  0  0  0  0
   38.8970   27.8690   34.2190 H   0  0  0  0  0  0  0  0  0  0  0  0
   40.0370   27.5370   32.9140 H   0  0  0  0  0  0  0  0  0  0  0  0
   38.5410   26.4140   31.6260 H   0  0  0  0  0  0  0  0  0  0  0  0
   36.7460   25.6050   33.9590 H   0  0  0  0  0  0  0  0  0  0  0  0
   36.9030   24.9590   32.2350 H   0  0  0  0  0  0  0  0  0  0  0  0
   37.9580   23.3950   33.7740 H   0  0  0  0  0  0  0  0  0  0  0  0
   39.1410   24.2030   32.7300 H   0  0  0  0  0  0  0  0  0  0  0  0
   38.9600   24.3560   36.0840 C   0  0  0  0  0  0  0  0  0  0  0  0
   37.9920   24.7550   37.0040 C   0  0  0  0  0  0  0  0  0  0  0  0
   37.9990   24.1430   38.2480 C   0  0  0  0  0  0  0  0  0  0  0  0
   38.9320   23.1910   38.5260 N   0  0  0  0  0  0  0  0  0  0  0  0
   39.8500   22.8350   37.6070 C   0  0  0  0  0  0  0  0  0  0  0  0
   39.8520   23.4170   36.4080 N   0  0  0  0  0  0  0  0  0  0  0  0
   37.3040   25.5170   36.6740 H   0  0  0  0  0  0  0  0  0  0  0  0
   37.2500   24.4620   38.9400 H   0  0  0  0  0  0  0  0  0  0  0  0
   40.5940   22.0700   37.8380 H   0  0  0  0  0  0  0  0  0  0  0  0
   37.1820   27.7230   32.5320 C   0  0  0  0  0  0  0  0  0  0  0  0
   36.4050   28.2850   33.4820 C   0  0  0  0  0  0  0  0  0  0  0  0
   36.4610   27.9040   34.5140 H   0  0  0  0  0  0  0  0  0  0  0  0
   35.5650   29.3160   33.1350 C   0  0  0  0  0  3  0  0  0  0  0  0
   35.5650   29.7170   31.8350 C   0  0  0  0  0  3  0  0  0  0  0  0
   36.7910   28.6160   31.0340 S   0  0  0  0  0  0  0  0  0  0  0  0
  1 16  1  0  0  0  0
  2  1  1  0  0  0  0
  2  8  1  0  0  0  0
  3  9  1  0  0  0  0
  3  2  1  0  0  0  0
  4  5  1  0  0  0  0
  4  3  1  0  0  0  0
  5  6  1  0  0  0  0
  5 12  1  0  0  0  0
  6 14  1  0  0  0  0
  6  1  1  0  0  0  0
  7  2  1  0  0  0  0
 10  3  1  0  0  0  0
 11  4  1  0  0  0  0
 13  5  1  0  0  0  0
 15  6  1  0  0  0  0
 16 21  2  0  0  0  0
 16 17  1  0  0  0  0
 17 18  2  0  0  0  0
 18 19  1  0  0  0  0
 18 23  1  0  0  0  0
 20 24  1  0  0  0  0
 20 19  2  0  0  0  0
 21 20  1  0  0  0  0
 22 17  1  0  0  0  0
 25  4  1  0  0  0  0
 25 26  2  0  0  0  0
 26 27  1  0  0  0  0
 28 26  1  0  0  0  0
 29 28  2  0  0  0  0
 30 29  1  0  0  0  0
 30 25  1  0  0  0  0
M  END
>  <minimizedAffinity>
-4.70985508

$$$$

 OpenBabel03272507453D

 30 32  0  0  0  0  0  0  0  0999 V2000
   38.1090   26.8050   32.8050 N   0  0  0  0  0  0  0  0  0  0  0  0
   37.9190   25.3920   32.6220 C   0  0  0  0  0  0  0  0  0  0  0  0
   38.2440   24.5030   33.7520 C   0  0  0  0  0  0  0  0  0  0  0  0
   39.2940   24.9640   34.7090 C   0  0  0  0  0  0  0  0  0  0  0  0
   39.4410   26.4550   34.7930 C   0  0  0  0  0  0  0  0  0  0  0  0
   39.4260   27.0110   33.3520 C   0  0  0  0  0  0  0  0  0  0  0  0
   38.5300   25.1070   31.7290 H   0  0  0  0  0  0  0  0  0  0  0  0
   36.8540   25.2480   32.3160 H   0  0  0  0  0  0  0  0  0  0  0  0
   37.2960   24.2900   34.3170 H   0  0  0  0  0  0  0  0  0  0  0  0
   38.5590   23.5100   33.3640 H   0  0  0  0  0  0  0  0  0  0  0  0
   40.2790   24.5380   34.4360 H   0  0  0  0  0  0  0  0  0  0  0  0
   38.6230   26.9400   35.3360 H   0  0  0  0  0  0  0  0  0  0  0  0
   40.4460   26.6740   35.1970 H   0  0  0  0  0  0  0  0  0  0  0  0
   39.7000   28.0840   33.3570 H   0  0  0  0  0  0  0  0  0  0  0  0
   40.2280   26.4860   32.8010 H   0  0  0  0  0  0  0  0  0  0  0  0
   37.1590   27.8250   32.4990 C   0  0  0  0  0  0  0  0  0  0  0  0
   36.2690   28.3860   33.4140 C   0  0  0  0  0  0  0  0  0  0  0  0
   35.4110   29.3710   32.9530 C   0  0  0  0  0  0  0  0  0  0  0  0
   35.4610   29.7520   31.6470 N   0  0  0  0  0  0  0  0  0  0  0  0
   36.3370   29.1840   30.7950 C   0  0  0  0  0  0  0  0  0  0  0  0
   37.1670   28.2360   31.2300 N   0  0  0  0  0  0  0  0  0  0  0  0
   36.3180   28.0070   34.4230 H   0  0  0  0  0  0  0  0  0  0  0  0
   34.7360   29.7890   33.6680 H   0  0  0  0  0  0  0  0  0  0  0  0
   36.3720   29.4960   29.7490 H   0  0  0  0  0  0  0  0  0  0  0  0
   38.9550   24.4730   36.0570 C   0  0  0  0  0  0  0  0  0  0  0  0
   38.0870   24.9700   36.9620 C   0  0  0  0  0  0  0  0  0  0  0  0
   37.5150   25.8790   36.7130 H   0  0  0  0  0  0  0  0  0  0  0  0
   37.9380   24.3300   38.1690 C   0  0  0  0  0  3  0  0  0  0  0  0
   38.6870   23.2150   38.3850 C   0  0  0  0  0  3  0  0  0  0  0  0
   39.6560   23.0280   36.8410 S   0  0  0  0  0  0  0  0  0  0  0  0
  1  6  1  0  0  0  0
  2  1  1  0  0  0  0
  2  3  1  0  0  0  0
  3  9  1  0  0  0  0
  3  4  1  0  0  0  0
  4  5  1  0  0  0  0
  4 25  1  0  0  0  0
  5 13  1  0  0  0  0
  5 12  1  0  0  0  0
  6 14  1  0  0  0  0
  6  5  1  0  0  0  0
  7  2  1  0  0  0  0
  8  2  1  0  0  0  0
 10  3  1  0  0  0  0
 11  4  1  0  0  0  0
 15  6  1  0  0  0  0
 16  1  1  0  0  0  0
 16 17  1  0  0  0  0
 17 22  1  0  0  0  0
 18 17  2  0  0  0  0
 18 23  1  0  0  0  0
 19 18  1  0  0  0  0
 20 21  1  0  0  0  0
 20 19  2  0  0  0  0
 21 16  2  0  0  0  0
 24 20  1  0  0  0  0
 25 30  1  0  0  0  0
 25 26  2  0  0  0  0
 26 28  1  0  0  0  0
 27 26  1  0  0  0  0
 28 29  2  0  0  0  0
 30 29  1  0  0  0  0
M  END
>  <minimizedAffinity>
-4.60708475

$$$$

 OpenBabel03272507453D

 30 32  0  0  0  0  0  0  0  0999 V2000
   37.5580   25.1990   32.3000 N   0  0  0  0  0  0  0  0  0  0  0  0
   36.2080   25.0710   31.8250 C   0  0  0  0  0  0  0  0  0  0  0  0
   35.6990   23.7140   31.5550 C   0  0  0  0  0  0  0  0  0  0  0  0
   36.6960   22.6730   31.1620 C   0  0  0  0  0  0  0  0  0  0  0  0
   38.0840   22.9230   31.6730 C   0  0  0  0  0  0  0  0  0  0  0  0
   38.4090   24.4160   31.4410 C   0  0  0  0  0  0  0  0  0  0  0  0
   36.1430   25.6910   30.8950 H   0  0  0  0  0  0  0  0  0  0  0  0
   35.5540   25.5830   32.5730 H   0  0  0  0  0  0  0  0  0  0  0  0
   35.1340   23.3620   32.4600 H   0  0  0  0  0  0  0  0  0  0  0  0
   34.9300   23.7590   30.7530 H   0  0  0  0  0  0  0  0  0  0  0  0
   36.7470   22.5860   30.0590 H   0  0  0  0  0  0  0  0  0  0  0  0
   38.1900   22.7300   32.7450 H   0  0  0  0  0  0  0  0  0  0  0  0
   38.7870   22.3530   31.0370 H   0  0  0  0  0  0  0  0  0  0  0  0
   39.4810   24.6060   31.6470 H   0  0  0  0  0  0  0  0  0  0  0  0
   38.2590   24.6090   30.3630 H   0  0  0  0  0  0  0  0  0  0  0  0
   37.9820   25.9660   33.4260 C   0  0  0  0  0  0  0  0  0  0  0  0
   39.2650   25.9410   33.9700 C   0  0  0  0  0  0  0  0  0  0  0  0
   39.5130   26.7500   35.0680 C   0  0  0  0  0  0  0  0  0  0  0  0
   38.5150   27.5280   35.5700 N   0  0  0  0  0  0  0  0  0  0  0  0
   37.2880   27.5230   35.0130 C   0  0  0  0  0  0  0  0  0  0  0  0
   37.0400   26.7480   33.9570 N   0  0  0  0  0  0  0  0  0  0  0  0
   39.9760   25.2860   33.4900 H   0  0  0  0  0  0  0  0  0  0  0  0
   40.5010   26.7170   35.4710 H   0  0  0  0  0  0  0  0  0  0  0  0
   36.4940   28.1510   35.4220 H   0  0  0  0  0  0  0  0  0  0  0  0
   36.2530   21.3700   31.6900 C   0  0  0  0  0  0  0  0  0  0  0  0
   35.7570   21.0580   32.9060 C   0  0  0  0  0  0  0  0  0  0  0  0
   35.6420   21.8540   33.6580 H   0  0  0  0  0  0  0  0  0  0  0  0
   35.4080   19.7550   33.1710 C   0  0  0  0  0  3  0  0  0  0  0  0
   35.5870   18.8420   32.1790 C   0  0  0  0  0  3  0  0  0  0  0  0
   36.2750   19.8250   30.7940 S   0  0  0  0  0  0  0  0  0  0  0  0
  1 16  1  0  0  0  0
  2  1  1  0  0  0  0
  2  8  1  0  0  0  0
  3  2  1  0  0  0  0
  3  9  1  0  0  0  0
  4  3  1  0  0  0  0
  4  5  1  0  0  0  0
  4 25  1  0  0  0  0
  5 12  1  0  0  0  0
  6 14  1  0  0  0  0
  6  5  1  0  0  0  0
  6  1  1  0  0  0  0
  7  2  1  0  0  0  0
 10  3  1  0  0  0  0
 11  4  1  0  0  0  0
 13  5  1  0  0  0  0
 15  6  1  0  0  0  0
 16 21  2  0  0  0  0
 16 17  1  0  0  0  0
 17 18  2  0  0  0  0
 18 23  1  0  0  0  0
 18 19  1  0  0  0  0
 20 24  1  0  0  0  0
 20 19  2  0  0  0  0
 21 20  1  0  0  0  0
 22 17  1  0  0  0  0
 25 26  2  0  0  0  0
 26 28  1  0  0  0  0
 26 27  1  0  0  0  0
 29 28  2  0  0  0  0
 30 25  1  0  0  0  0
 30 29  1  0  0  0  0
M  END
>  <minimizedAffinity>
-4.515172

$$$$

 OpenBabel03272507453D

 30 32  0  0  0  0  0  0  0  0999 V2000
   36.4670   26.2520   31.7430 N   0  0  0  0  0  0  0  0  0  0  0  0
   35.4170   25.7020   30.9320 C   0  0  0  0  0  0  0  0  0  0  0  0
   35.2560   24.2360   30.9130 C   0  0  0  0  0  0  0  0  0  0  0  0
   36.4760   23.4100   31.1580 C   0  0  0  0  0  0  0  0  0  0  0  0
   37.5300   24.0910   31.9800 C   0  0  0  0  0  0  0  0  0  0  0  0
   37.6810   25.5340   31.4470 C   0  0  0  0  0  0  0  0  0  0  0  0
   35.5960   26.0760   29.8920 H   0  0  0  0  0  0  0  0  0  0  0  0
   34.4660   26.1860   31.2650 H   0  0  0  0  0  0  0  0  0  0  0  0
   34.4650   23.9590   31.6610 H   0  0  0  0  0  0  0  0  0  0  0  0
   34.8310   23.9220   29.9360 H   0  0  0  0  0  0  0  0  0  0  0  0
   36.9350   23.1060   30.1970 H   0  0  0  0  0  0  0  0  0  0  0  0
   37.2710   24.1630   33.0410 H   0  0  0  0  0  0  0  0  0  0  0  0
   38.4940   23.5880   31.7810 H   0  0  0  0  0  0  0  0  0  0  0  0
   38.5630   26.0180   31.9110 H   0  0  0  0  0  0  0  0  0  0  0  0
   37.9020   25.4520   30.3670 H   0  0  0  0  0  0  0  0  0  0  0  0
   36.3320   27.3200   32.6800 C   0  0  0  0  0  0  0  0  0  0  0  0
   35.6410   28.5060   32.4420 C   0  0  0  0  0  0  0  0  0  0  0  0
   35.6060   29.4440   33.4630 C   0  0  0  0  0  0  0  0  0  0  0  0
   36.2350   29.1820   34.6410 N   0  0  0  0  0  0  0  0  0  0  0  0
   36.8920   28.0210   34.8300 C   0  0  0  0  0  0  0  0  0  0  0  0
   36.9310   27.1130   33.8540 N   0  0  0  0  0  0  0  0  0  0  0  0
   35.1810   28.6060   31.4710 H   0  0  0  0  0  0  0  0  0  0  0  0
   35.0720   30.3470   33.2620 H   0  0  0  0  0  0  0  0  0  0  0  0
   37.3930   27.8180   35.7780 H   0  0  0  0  0  0  0  0  0  0  0  0
   36.0810   22.1810   31.8700 C   0  0  0  0  0  0  0  0  0  0  0  0
   35.1420   21.2650   31.5510 C   0  0  0  0  0  0  0  0  0  0  0  0
   34.5520   21.4010   30.6310 H   0  0  0  0  0  0  0  0  0  0  0  0
   34.9510   20.1860   32.3810 C   0  0  0  0  0  3  0  0  0  0  0  0
   35.7280   20.1040   33.4940 C   0  0  0  0  0  3  0  0  0  0  0  0
   36.7910   21.5940   33.4010 S   0  0  0  0  0  0  0  0  0  0  0  0
  1 16  1  0  0  0  0
  2  8  1  0  0  0  0
  2  1  1  0  0  0  0
  3  2  1  0  0  0  0
  3  4  1  0  0  0  0
  3  9  1  0  0  0  0
  4 25  1  0  0  0  0
  4  5  1  0  0  0  0
  5 12  1  0  0  0  0
  6  1  1  0  0  0  0
  6 14  1  0  0  0  0
  6  5  1  0  0  0  0
  7  2  1  0  0  0  0
 10  3  1  0  0  0  0
 11  4  1  0  0  0  0
 13  5  1  0  0  0  0
 15  6  1  0  0  0  0
 16 21  1  0  0  0  0
 17 16  2  0  0  0  0
 17 18  1  0  0  0  0
 18 19  2  0  0  0  0
 19 20  1  0  0  0  0
 20 24  1  0  0  0  0
 21 20  2  0  0  0  0
 22 17  1  0  0  0  0
 23 18  1  0  0  0  0
 25 30  1  0  0  0  0
 26 25  2  0  0  0  0
 26 28  1  0  0  0  0
 27 26  1  0  0  0  0
 28 29  2  0  0  0  0
 30 29  1  0  0  0  0
M  END
>  <minimizedAffinity>
-4.40425968

$$$$

 OpenBabel03272507453D

 30 32  0  0  0  0  0  0  0  0999 V2000
   38.6690   26.7090   32.7570 N   0  0  0  0  0  0  0  0  0  0  0  0
   38.6450   25.3060   32.4470 C   0  0  0  0  0  0  0  0  0  0  0  0
   39.0050   24.3580   33.5170 C   0  0  0  0  0  0  0  0  0  0  0  0
   39.9460   24.8400   34.5730 C   0  0  0  0  0  0  0  0  0  0  0  0
   39.9250   26.3240   34.7890 C   0  0  0  0  0  0  0  0  0  0  0  0
   39.9260   27.0020   33.4000 C   0  0  0  0  0  0  0  0  0  0  0  0
   39.3300   25.1670   31.5730 H   0  0  0  0  0  0  0  0  0  0  0  0
   37.6200   25.0800   32.0640 H   0  0  0  0  0  0  0  0  0  0  0  0
   38.0580   23.9990   34.0030 H   0  0  0  0  0  0  0  0  0  0  0  0
   39.4470   23.4430   33.0690 H   0  0  0  0  0  0  0  0  0  0  0  0
   40.9850   24.5440   34.3260 H   0  0  0  0  0  0  0  0  0  0  0  0
   39.0320   26.6710   35.3180 H   0  0  0  0  0  0  0  0  0  0  0  0
   40.8780   26.6100   35.2710 H   0  0  0  0  0  0  0  0  0  0  0  0
   40.0810   28.0930   33.5110 H   0  0  0  0  0  0  0  0  0  0  0  0
   40.8080   26.6140   32.8590 H   0  0  0  0  0  0  0  0  0  0  0  0
   37.6320   27.6480   32.4790 C   0  0  0  0  0  0  0  0  0  0  0  0
   36.6190   28.0040   33.3690 C   0  0  0  0  0  0  0  0  0  0  0  0
   35.6860   28.9350   32.9400 C   0  0  0  0  0  0  0  0  0  0  0  0
   35.7860   29.4620   31.6890 N   0  0  0  0  0  0  0  0  0  0  0  0
   36.7810   29.0910   30.8600 C   0  0  0  0  0  0  0  0  0  0  0  0
   37.6830   28.1950   31.2630 N   0  0  0  0  0  0  0  0  0  0  0  0
   36.6390   27.5220   34.3340 H   0  0  0  0  0  0  0  0  0  0  0  0
   34.9180   29.1950   33.6350 H   0  0  0  0  0  0  0  0  0  0  0  0
   36.8550   29.5190   29.8580 H   0  0  0  0  0  0  0  0  0  0  0  0
   39.5930   24.1980   35.8510 C   0  0  0  0  0  0  0  0  0  0  0  0
   40.2720   23.2790   36.5700 C   0  0  0  0  0  0  0  0  0  0  0  0
   41.2430   22.9170   36.1960 H   0  0  0  0  0  0  0  0  0  0  0  0
   39.7340   22.8220   37.7500 C   0  0  0  0  0  3  0  0  0  0  0  0
   38.5300   23.3280   38.1300 C   0  0  0  0  0  3  0  0  0  0  0  0
   38.1050   24.5050   36.7910 S   0  0  0  0  0  0  0  0  0  0  0  0
  1  6  1  0  0  0  0
  2  1  1  0  0  0  0
  2  3  1  0  0  0  0
  3  9  1  0  0  0  0
  3  4  1  0  0  0  0
  4  5  1  0  0  0  0
  4 25  1  0  0  0  0
  5 13  1  0  0  0  0
  5 12  1  0  0  0  0
  6 14  1  0  0  0  0
  6  5  1  0  0  0  0
  7  2  1  0  0  0  0
  8  2  1  0  0  0  0
 10  3  1  0  0  0  0
 11  4  1  0  0  0  0
 15  6  1  0  0  0  0
 16  1  1  0  0  0  0
 16 17  1  0  0  0  0
 17 22  1  0  0  0  0
 18 17  2  0  0  0  0
 18 23  1  0  0  0  0
 19 18  1  0  0  0  0
 20 21  1  0  0  0  0
 20 19  2  0  0  0  0
 21 16  2  0  0  0  0
 24 20  1  0  0  0  0
 25 26  2  0  0  0  0
 25 30  1  0  0  0  0
 26 28  1  0  0  0  0
 27 26  1  0  0  0  0
 28 29  2  0  0  0  0
 30 29  1  0  0  0  0
M  END
>  <minimizedAffinity>
-4.33819103

$$$$

 OpenBabel03272507453D

 30 32  0  0  0  0  0  0  0  0999 V2000
   37.1290   27.3040   33.9990 N   0  0  0  0  0  0  0  0  0  0  0  0
   37.6950   27.5680   35.2920 C   0  0  0  0  0  0  0  0  0  0  0  0
   39.0820   27.1340   35.5380 C   0  0  0  0  0  0  0  0  0  0  0  0
   39.5780   25.9530   34.7700 C   0  0  0  0  0  0  0  0  0  0  0  0
   38.8930   25.7400   33.4530 C   0  0  0  0  0  0  0  0  0  0  0  0
   37.3740   25.9200   33.6790 C   0  0  0  0  0  0  0  0  0  0  0  0
   37.0110   27.0880   36.0370 H   0  0  0  0  0  0  0  0  0  0  0  0
   37.6020   28.6680   35.4650 H   0  0  0  0  0  0  0  0  0  0  0  0
   39.7630   28.0080   35.3530 H   0  0  0  0  0  0  0  0  0  0  0  0
   39.2140   26.9090   36.6190 H   0  0  0  0  0  0  0  0  0  0  0  0
   39.4640   25.0280   35.3690 H   0  0  0  0  0  0  0  0  0  0  0  0
   39.1940   26.4620   32.6880 H   0  0  0  0  0  0  0  0  0  0  0  0
   39.0370   24.6830   33.1620 H   0  0  0  0  0  0  0  0  0  0  0  0
   36.8180   25.6070   32.7740 H   0  0  0  0  0  0  0  0  0  0  0  0
   37.0880   25.2160   34.4810 H   0  0  0  0  0  0  0  0  0  0  0  0
   36.4450   28.2450   33.1730 C   0  0  0  0  0  0  0  0  0  0  0  0
   36.6820   28.4340   31.8130 C   0  0  0  0  0  0  0  0  0  0  0  0
   35.9270   29.3930   31.1570 C   0  0  0  0  0  0  0  0  0  0  0  0
   34.9960   30.1060   31.8470 N   0  0  0  0  0  0  0  0  0  0  0  0
   34.7970   29.8920   33.1620 C   0  0  0  0  0  0  0  0  0  0  0  0
   35.5190   28.9720   33.8030 N   0  0  0  0  0  0  0  0  0  0  0  0
   37.4440   27.8120   31.3700 H   0  0  0  0  0  0  0  0  0  0  0  0
   36.1230   29.5240   30.1150 H   0  0  0  0  0  0  0  0  0  0  0  0
   34.0480   30.4690   33.7090 H   0  0  0  0  0  0  0  0  0  0  0  0
   41.0160   26.1330   34.5010 C   0  0  0  0  0  0  0  0  0  0  0  0
   41.6510   27.1250   33.8410 C   0  0  0  0  0  0  0  0  0  0  0  0
   41.0580   27.9520   33.4180 H   0  0  0  0  0  0  0  0  0  0  0  0
   43.0190   27.0760   33.7150 C   0  0  0  0  0  3  0  0  0  0  0  0
   43.6640   26.0150   34.2710 C   0  0  0  0  0  3  0  0  0  0  0  0
   42.3160   25.0190   35.0140 S   0  0  0  0  0  0  0  0  0  0  0  0
  1  2  1  0  0  0  0
  2  8  1  0  0  0  0
  2  3  1  0  0  0  0
  2  7  1  0  0  0  0
  3 10  1  0  0  0  0
  4 11  1  0  0  0  0
  4  3  1  0  0  0  0
  5  6  1  0  0  0  0
  5  4  1  0  0  0  0
  6  1  1  0  0  0  0
  6 15  1  0  0  0  0
  9  3  1  0  0  0  0
 12  5  1  0  0  0  0
 13  5  1  0  0  0  0
 14  6  1  0  0  0  0
 16 21  1  0  0  0  0
 16  1  1  0  0  0  0
 17 16  2  0  0  0  0
 18 17  1  0  0  0  0
 18 19  2  0  0  0  0
 19 20  1  0  0  0  0
 20 24  1  0  0  0  0
 20 21  2  0  0  0  0
 22 17  1  0  0  0  0
 23 18  1  0  0  0  0
 25  4  1  0  0  0  0
 25 30  1  0  0  0  0
 26 25  2  0  0  0  0
 27 26  1  0  0  0  0
 28 26  1  0  0  0  0
 28 29  2  0  0  0  0
 29 30  1  0  0  0  0
M  END
>  <minimizedAffinity>
-4.26628542

$$$$

 OpenBabel03272507453D

 30 32  0  0  0  0  0  0  0  0999 V2000
   37.5230   25.4990   32.2510 N   0  0  0  0  0  0  0  0  0  0  0  0
   37.2920   24.8970   30.9670 C   0  0  0  0  0  0  0  0  0  0  0  0
   37.0450   23.4440   30.9220 C   0  0  0  0  0  0  0  0  0  0  0  0
   37.6540   22.6110   32.0020 C   0  0  0  0  0  0  0  0  0  0  0  0
   37.8940   23.3440   33.2880 C   0  0  0  0  0  0  0  0  0  0  0  0
   38.5180   24.7150   32.9390 C   0  0  0  0  0  0  0  0  0  0  0  0
   38.1840   25.1490   30.3390 H   0  0  0  0  0  0  0  0  0  0  0  0
   36.4350   25.4450   30.5050 H   0  0  0  0  0  0  0  0  0  0  0  0
   35.9340   23.2750   30.9070 H   0  0  0  0  0  0  0  0  0  0  0  0
   37.3960   23.0380   29.9490 H   0  0  0  0  0  0  0  0  0  0  0  0
   38.6210   22.1890   31.6630 H   0  0  0  0  0  0  0  0  0  0  0  0
   36.9750   23.5400   33.8510 H   0  0  0  0  0  0  0  0  0  0  0  0
   38.6650   22.7910   33.8560 H   0  0  0  0  0  0  0  0  0  0  0  0
   38.8650   25.2180   33.8620 H   0  0  0  0  0  0  0  0  0  0  0  0
   39.4210   24.5070   32.3370 H   0  0  0  0  0  0  0  0  0  0  0  0
   36.8790   26.6670   32.7590 C   0  0  0  0  0  0  0  0  0  0  0  0
   37.0540   27.1800   34.0430 C   0  0  0  0  0  0  0  0  0  0  0  0
   36.3520   28.3270   34.3770 C   0  0  0  0  0  0  0  0  0  0  0  0
   35.5290   28.9050   33.4590 N   0  0  0  0  0  0  0  0  0  0  0  0
   35.3890   28.3760   32.2280 C   0  0  0  0  0  0  0  0  0  0  0  0
   36.0600   27.2730   31.8970 N   0  0  0  0  0  0  0  0  0  0  0  0
   37.7320   26.6390   34.6850 H   0  0  0  0  0  0  0  0  0  0  0  0
   36.4990   28.7060   35.3650 H   0  0  0  0  0  0  0  0  0  0  0  0
   34.7270   28.8460   31.4970 H   0  0  0  0  0  0  0  0  0  0  0  0
   36.7540   21.4810   32.2930 C   0  0  0  0  0  0  0  0  0  0  0  0
   36.2500   21.0640   33.4740 C   0  0  0  0  0  0  0  0  0  0  0  0
   36.5170   21.6100   34.3930 H   0  0  0  0  0  0  0  0  0  0  0  0
   35.4190   19.9690   33.4970 C   0  0  0  0  0  3  0  0  0  0  0  0
   35.1470   19.3610   32.3120 C   0  0  0  0  0  3  0  0  0  0  0  0
   36.0870   20.3460   31.0850 S   0  0  0  0  0  0  0  0  0  0  0  0
  1 16  1  0  0  0  0
  1  6  1  0  0  0  0
  2  1  1  0  0  0  0
  3  2  1  0  0  0  0
  3  4  1  0  0  0  0
  4 25  1  0  0  0  0
  4  5  1  0  0  0  0
  5 12  1  0  0  0  0
  5 13  1  0  0  0  0
  6  5  1  0  0  0  0
  6 14  1  0  0  0  0
  7  2  1  0  0  0  0
  8  2  1  0  0  0  0
  9  3  1  0  0  0  0
 10  3  1  0  0  0  0
 11  4  1  0  0  0  0
 15  6  1  0  0  0  0
 16 17  1  0  0  0  0
 17 18  2  0  0  0  0
 17 22  1  0  0  0  0
 18 23  1  0  0  0  0
 19 18  1  0  0  0  0
 20 19  2  0  0  0  0
 21 20  1  0  0  0  0
 21 16  2  0  0  0  0
 24 20  1  0  0  0  0
 25 26  2  0  0  0  0
 26 28  1  0  0  0  0
 26 27  1  0  0  0  0
 29 28  2  0  0  0  0
 30 25  1  0  0  0  0
 30 29  1  0  0  0  0
M  END
>  <minimizedAffinity>
-4.24374723

$$$$

 OpenBabel03272507453D

 30 32  0  0  0  0  0  0  0  0999 V2000
   36.9180   26.7850   32.7370 N   0  0  0  0  0  0  0  0  0  0  0  0
   37.1810   27.3690   34.0230 C   0  0  0  0  0  0  0  0  0  0  0  0
   36.2950   28.4560   34.4790 C   0  0  0  0  0  0  0  0  0  0  0  0
   35.6490   29.3010   33.4300 C   0  0  0  0  0  0  0  0  0  0  0  0
   35.4600   28.6110   32.1120 C   0  0  0  0  0  0  0  0  0  0  0  0
   36.7670   27.8560   31.7840 C   0  0  0  0  0  0  0  0  0  0  0  0
   38.2390   27.7320   33.9930 H   0  0  0  0  0  0  0  0  0  0  0  0
   37.1710   26.5320   34.7640 H   0  0  0  0  0  0  0  0  0  0  0  0
   35.5000   28.0110   35.1370 H   0  0  0  0  0  0  0  0  0  0  0  0
   36.8590   29.1350   35.1540 H   0  0  0  0  0  0  0  0  0  0  0  0
   36.2440   30.2180   33.2550 H   0  0  0  0  0  0  0  0  0  0  0  0
   34.6520   27.8720   32.1230 H   0  0  0  0  0  0  0  0  0  0  0  0
   35.3510   29.3900   31.3340 H   0  0  0  0  0  0  0  0  0  0  0  0
   36.7330   27.4730   30.7450 H   0  0  0  0  0  0  0  0  0  0  0  0
   37.5810   28.6030   31.8150 H   0  0  0  0  0  0  0  0  0  0  0  0
   36.8220   25.3900   32.4520 C   0  0  0  0  0  0  0  0  0  0  0  0
   37.6490   24.4070   32.9930 C   0  0  0  0  0  0  0  0  0  0  0  0
   37.4200   23.0950   32.6110 C   0  0  0  0  0  0  0  0  0  0  0  0
   36.4150   22.8130   31.7370 N   0  0  0  0  0  0  0  0  0  0  0  0
   35.6390   23.7940   31.2370 C   0  0  0  0  0  0  0  0  0  0  0  0
   35.8510   25.0590   31.5990 N   0  0  0  0  0  0  0  0  0  0  0  0
   38.4120   24.7470   33.6760 H   0  0  0  0  0  0  0  0  0  0  0  0
   38.0630   22.3550   33.0360 H   0  0  0  0  0  0  0  0  0  0  0  0
   34.8350   23.5590   30.5370 H   0  0  0  0  0  0  0  0  0  0  0  0
   34.3200   29.7190   33.9110 C   0  0  0  0  0  0  0  0  0  0  0  0
   33.9790   30.3740   35.0410 C   0  0  0  0  0  0  0  0  0  0  0  0
   34.7700   30.6660   35.7490 H   0  0  0  0  0  0  0  0  0  0  0  0
   32.6550   30.6570   35.2760 C   0  0  0  0  0  3  0  0  0  0  0  0
   31.7510   30.2550   34.3430 C   0  0  0  0  0  3  0  0  0  0  0  0
   32.7730   29.4370   33.0610 S   0  0  0  0  0  0  0  0  0  0  0  0
  1  2  1  0  0  0  0
  2  3  1  0  0  0  0
  2  8  1  0  0  0  0
  3  9  1  0  0  0  0
  3 10  1  0  0  0  0
  4 25  1  0  0  0  0
  4  3  1  0  0  0  0
  5 12  1  0  0  0  0
  5  4  1  0  0  0  0
  6 15  1  0  0  0  0
  6  5  1  0  0  0  0
  6  1  1  0  0  0  0
  7  2  1  0  0  0  0
 11  4  1  0  0  0  0
 13  5  1  0  0  0  0
 14  6  1  0  0  0  0
 16  1  1  0  0  0  0
 16 17  1  0  0  0  0
 17 22  1  0  0  0  0
 18 17  2  0  0  0  0
 18 23  1  0  0  0  0
 19 18  1  0  0  0  0
 20 21  1  0  0  0  0
 20 19  2  0  0  0  0
 21 16  2  0  0  0  0
 24 20  1  0  0  0  0
 25 26  2  0  0  0  0
 26 28  1  0  0  0  0
 26 27  1  0  0  0  0
 29 28  2  0  0  0  0
 30 25  1  0  0  0  0
 30 29  1  0  0  0  0
M  END
>  <minimizedAffinity>
-4.22199726

$$$$

 OpenBabel03272507453D

 30 32  0  0  0  0  0  0  0  0999 V2000
   38.8700   23.9820   34.5830 N   0  0  0  0  0  0  0  0  0  0  0  0
   37.8920   24.6300   33.7530 C   0  0  0  0  0  0  0  0  0  0  0  0
   37.4150   23.9070   32.5600 C   0  0  0  0  0  0  0  0  0  0  0  0
   38.3520   22.9300   31.9290 C   0  0  0  0  0  0  0  0  0  0  0  0
   39.3610   22.3440   32.8730 C   0  0  0  0  0  0  0  0  0  0  0  0
   39.9270   23.4970   33.7320 C   0  0  0  0  0  0  0  0  0  0  0  0
   38.3400   25.6090   33.4480 H   0  0  0  0  0  0  0  0  0  0  0  0
   37.0290   24.8880   34.4140 H   0  0  0  0  0  0  0  0  0  0  0  0
   36.4570   23.3830   32.8250 H   0  0  0  0  0  0  0  0  0  0  0  0
   37.1190   24.6380   31.7770 H   0  0  0  0  0  0  0  0  0  0  0  0
   38.9020   23.4070   31.0940 H   0  0  0  0  0  0  0  0  0  0  0  0
   38.9320   21.6070   33.5600 H   0  0  0  0  0  0  0  0  0  0  0  0
   40.2080   21.9640   32.2710 H   0  0  0  0  0  0  0  0  0  0  0  0
   40.7920   23.1390   34.3230 H   0  0  0  0  0  0  0  0  0  0  0  0
   40.3200   24.2530   33.0280 H   0  0  0  0  0  0  0  0  0  0  0  0
   38.8060   23.8420   36.0020 C   0  0  0  0  0  0  0  0  0  0  0  0
   37.8460   24.4360   36.8190 C   0  0  0  0  0  0  0  0  0  0  0  0
   37.9260   24.1970   38.1820 C   0  0  0  0  0  0  0  0  0  0  0  0
   38.9210   23.4060   38.6700 N   0  0  0  0  0  0  0  0  0  0  0  0
   39.8290   22.8500   37.8440 C   0  0  0  0  0  0  0  0  0  0  0  0
   39.7600   23.0750   36.5320 N   0  0  0  0  0  0  0  0  0  0  0  0
   37.1040   25.0430   36.3230 H   0  0  0  0  0  0  0  0  0  0  0  0
   37.1820   24.6600   38.7920 H   0  0  0  0  0  0  0  0  0  0  0  0
   40.6240   22.2170   38.2440 H   0  0  0  0  0  0  0  0  0  0  0  0
   37.5680   21.8160   31.3670 C   0  0  0  0  0  0  0  0  0  0  0  0
   36.2650   21.5070   31.5400 C   0  0  0  0  0  0  0  0  0  0  0  0
   35.6450   22.1460   32.1880 H   0  0  0  0  0  0  0  0  0  0  0  0
   35.7500   20.4030   30.9030 C   0  0  0  0  0  3  0  0  0  0  0  0
   36.5940   19.6750   30.1240 C   0  0  0  0  0  3  0  0  0  0  0  0
   38.1960   20.5540   30.2690 S   0  0  0  0  0  0  0  0  0  0  0  0
  1 16  1  0  0  0  0
  2  8  1  0  0  0  0
  2  1  1  0  0  0  0
  3  9  1  0  0  0  0
  3  2  1  0  0  0  0
  4  3  1  0  0  0  0
  4  5  1  0  0  0  0
  5 12  1  0  0  0  0
  5  6  1  0  0  0  0
  6 14  1  0  0  0  0
  6  1  1  0  0  0  0
  7  2  1  0  0  0  0
 10  3  1  0  0  0  0
 11  4  1  0  0  0  0
 13  5  1  0  0  0  0
 15  6  1  0  0  0  0
 16 21  2  0  0  0  0
 16 17  1  0  0  0  0
 17 18  2  0  0  0  0
 18 19  1  0  0  0  0
 18 23  1  0  0  0  0
 20 24  1  0  0  0  0
 20 19  2  0  0  0  0
 21 20  1  0  0  0  0
 22 17  1  0  0  0  0
 25 26  2  0  0  0  0
 25  4  1  0  0  0  0
 26 27  1  0  0  0  0
 28 26  1  0  0  0  0
 29 30  1  0  0  0  0
 29 28  2  0  0  0  0
 30 25  1  0  0  0  0
M  END
>  <minimizedAffinity>
-4.21405363

$$$$
