
 OpenBabel03272509113D

 25 27  0  0  0  0  0  0  0  0999 V2000
   35.4100   30.5710   48.7000 C   0  0  0  0  0  0  0  0  0  0  0  0
   36.7540   31.0130   48.5490 C   0  0  0  0  0  0  0  0  0  0  0  0
   37.2350   31.2370   47.2760 C   0  0  0  0  0  0  0  0  0  0  0  0
   36.4050   31.0280   46.2050 N   0  0  0  0  0  0  0  0  0  0  0  0
   35.1220   30.6050   46.3920 C   0  0  0  0  0  0  0  0  0  0  0  0
   34.6360   30.3810   47.6130 N   0  0  0  0  0  0  0  0  0  0  0  0
   34.9840   30.3810   49.6680 H   0  0  0  0  0  0  0  0  0  0  0  0
   34.5840   30.4820   45.4600 H   0  0  0  0  0  0  0  0  0  0  0  0
   38.5910   31.6830   47.0120 C   0  0  0  0  0  0  0  0  0  0  0  0
   38.7590   32.9970   46.6600 C   0  0  0  0  0  0  0  0  0  0  0  0
   40.0430   33.5020   46.3930 C   0  0  0  0  0  0  0  0  0  0  0  0
   41.1230   32.6320   46.4960 C   0  0  0  0  0  0  0  0  0  0  0  0
   40.9890   31.3080   46.8470 C   0  0  0  0  0  0  0  0  0  0  0  0
   39.6930   30.8550   47.1020 C   0  0  0  0  0  0  0  0  0  0  0  0
   38.0450   33.7840   46.5270 H   0  0  0  0  0  0  0  0  0  0  0  0
   40.2720   34.5190   46.1100 H   0  0  0  0  0  0  0  0  0  0  0  0
   42.1400   32.9760   46.2990 H   0  0  0  0  0  0  0  0  0  0  0  0
   41.8530   30.6740   46.9130 H   0  0  0  0  0  0  0  0  0  0  0  0
   39.5640   29.8160   47.3800 H   0  0  0  0  0  0  0  0  0  0  0  0
   37.4900   31.1760   49.7630 C   0  0  0  0  0  0  0  0  0  0  0  0
   38.7940   31.8090   49.8840 C   0  0  0  0  0  0  0  0  0  0  0  0
   39.2550   32.1930   48.9950 H   0  0  0  0  0  0  0  0  0  0  0  0
   39.3380   31.8670   51.1260 C   0  0  0  0  0  3  0  0  0  0  0  0
   38.6360   31.3180   52.2710 C   0  0  0  0  0  3  0  0  0  0  0  0
   37.0890   30.6710   51.5240 S   0  0  0  0  0  0  0  0  0  0  0  0
  1  7  1  0  0  0  0
  2  1  1  0  0  0  0
  2 20  1  0  0  0  0
  3  2  2  0  0  0  0
  4  5  2  0  0  0  0
  4  3  1  0  0  0  0
  5  6  1  0  0  0  0
  6  1  2  0  0  0  0
  8  5  1  0  0  0  0
  9 14  1  0  0  0  0
  9  3  1  0  0  0  0
 10  9  2  0  0  0  0
 11 12  2  0  0  0  0
 11 10  1  0  0  0  0
 12 13  1  0  0  0  0
 13 18  1  0  0  0  0
 13 14  2  0  0  0  0
 14 19  1  0  0  0  0
 15 10  1  0  0  0  0
 16 11  1  0  0  0  0
 17 12  1  0  0  0  0
 20 21  2  0  0  0  0
 20 25  1  0  0  0  0
 21 23  1  0  0  0  0
 22 21  1  0  0  0  0
 23 24  2  0  0  0  0
 25 24  1  0  0  0  0
M  END
>  <minimizedAffinity>
5.54597473

>  <minimizedRMSD>
2.60618734

$$$$
