
 OpenBabel03272502343D

 33 35  0  0  1  0  0  0  0  0999 V2000
   37.7760   30.6970   48.7090 C   0  0  2  0  0  0  0  0  0  0  0  0
   38.3770   29.7740   48.7530 H   0  0  0  0  0  0  0  0  0  0  0  0
   38.5570   31.8780   48.3090 C   0  0  0  0  0  0  0  0  0  0  0  0
   38.6500   32.8570   49.3320 C   0  0  0  0  0  0  0  0  0  0  0  0
   39.3300   34.0440   49.1840 C   0  0  0  0  0  0  0  0  0  0  0  0
   39.9840   34.3530   47.9850 C   0  0  0  0  0  0  0  0  0  0  0  0
   39.8430   33.3440   47.0410 C   0  0  0  0  0  0  0  0  0  0  0  0
   39.1880   32.1800   47.1540 N   0  0  0  0  0  0  0  0  0  0  0  0
   38.2320   32.8520   50.3500 H   0  0  0  0  0  0  0  0  0  0  0  0
   39.4370   34.8280   49.9240 H   0  0  0  0  0  0  0  0  0  0  0  0
   40.5450   35.2050   47.7010 H   0  0  0  0  0  0  0  0  0  0  0  0
   40.2990   33.4390   46.0520 H   0  0  0  0  0  0  0  0  0  0  0  0
   35.6370   29.7940   48.1130 C   0  0  0  0  0  0  0  0  0  0  0  0
   36.6710   30.4660   47.7200 C   0  0  0  0  0  0  0  0  0  0  0  0
   33.5340   29.6420   45.0350 C   0  0  0  0  0  0  0  0  0  0  0  0
   34.5810   29.8650   45.9250 C   0  0  0  0  0  0  0  0  0  0  0  0
   34.5220   29.5250   47.2510 C   0  0  0  0  0  0  0  0  0  0  0  0
   33.3710   28.9480   47.6620 N   0  0  0  0  0  0  0  0  0  0  0  0
   32.3620   28.7300   46.8140 C   0  0  0  0  0  0  0  0  0  0  0  0
   32.4350   29.0700   45.5190 N   0  0  0  0  0  0  0  0  0  0  0  0
   33.5610   29.9030   43.9870 H   0  0  0  0  0  0  0  0  0  0  0  0
   35.4200   30.3330   45.4290 H   0  0  0  0  0  0  0  0  0  0  0  0
   31.2000   28.0810   47.5040 C   0  0  0  0  0  0  0  0  0  0  0  0
   31.0510   27.5940   48.7250 C   0  0  0  0  0  0  0  0  0  0  0  0
   31.9110   27.6590   49.3760 H   0  0  0  0  0  0  0  0  0  0  0  0
   29.8800   27.0440   49.1290 C   0  0  0  0  0  0  0  0  0  0  0  0
   28.8360   27.0540   48.0890 C   0  0  0  0  0  0  0  0  0  0  0  0
   29.7430   27.8830   46.6460 S   0  0  0  0  0  0  0  0  0  0  0  0
   36.9930   31.1230   50.3010 S   0  0  0  0  0  0  0  0  0  0  0  0
   36.9700   29.7180   51.4000 C   0  0  0  0  0  0  0  0  0  0  0  0
   37.6370   29.9490   52.5930 F   0  0  0  0  0  0  0  0  0  0  0  0
   35.6890   29.2540   51.6140 F   0  0  0  0  0  0  0  0  0  0  0  0
   37.6450   28.6770   50.7290 F   0  0  0  0  0  0  0  0  0  0  0  0
  1  2  1  1  0  0  0
  1 29  1  0  0  0  0
  3  1  1  0  0  0  0
  3  4  1  0  0  0  0
  4  9  1  0  0  0  0
  5  4  2  0  0  0  0
  5 10  1  0  0  0  0
  6  5  1  0  0  0  0
  7  8  1  0  0  0  0
  7  6  2  0  0  0  0
  8  3  2  0  0  0  0
 11  6  1  0  0  0  0
 12  7  1  0  0  0  0
 14 13  2  0  0  0  0
 14  1  1  0  0  0  0
 15 20  2  0  0  0  0
 15 16  1  0  0  0  0
 16 17  2  0  0  0  0
 17 18  1  0  0  0  0
 17 13  1  0  0  0  0
 19 23  1  0  0  0  0
 19 18  2  0  0  0  0
 20 19  1  0  0  0  0
 21 15  1  0  0  0  0
 22 16  1  0  0  0  0
 23 24  2  0  0  0  0
 24 26  1  0  0  0  0
 24 25  1  0  0  0  0
 27 26  2  0  0  0  0
 28 23  1  0  0  0  0
 28 27  1  0  0  0  0
 29 30  1  0  0  0  0
 30 32  1  0  0  0  0
 30 31  1  0  0  0  0
 33 30  1  0  0  0  0
M  END
>  <minimizedAffinity>
-6.54658079

>  <minimizedRMSD>
0.619543314

$$$$
