
     RDKit          3D

 45 48  0  0  0  0  0  0  0  0999 V2000
   35.2409   30.3183   49.5772 C   0  0  2  0  0  0  0  0  0  0  0  0
   36.2509   30.9866   48.7120 C   0  0  0  0  0  0  0  0  0  0  0  0
   37.6410   30.4003   48.8834 C   0  0  2  0  0  0  0  0  0  0  0  0
   38.1113   30.4466   50.2905 C   0  0  0  0  0  0  0  0  0  0  0  0
   37.0333   30.0957   51.2930 C   0  0  0  0  0  0  0  0  0  0  0  0
   35.8584   29.4228   50.6274 C   0  0  0  0  0  0  0  0  0  0  0  0
   34.2861   29.4856   48.8080 C   0  0  0  0  0  0  0  0  0  0  0  0
   34.1456   29.8569   47.4685 C   0  0  0  0  0  0  0  0  0  0  0  0
   33.2624   29.0899   46.6866 C   0  0  0  0  0  0  0  0  0  0  0  0
   32.5932   28.0306   47.2746 N   0  0  0  0  0  0  0  0  0  0  0  0
   32.7659   27.7116   48.5861 C   0  0  0  0  0  0  0  0  0  0  0  0
   33.5972   28.4368   49.3121 N   0  0  0  0  0  0  0  0  0  0  0  0
   38.5906   31.0341   48.0246 N   0  0  0  0  0  0  0  0  0  0  0  0
   38.4593   30.6351   46.6339 C   0  0  0  0  0  0  0  0  0  0  0  0
   39.6294   31.4117   46.0271 C   0  0  0  0  0  0  0  0  0  0  0  0
   39.5181   32.7170   46.7606 C   0  0  0  0  0  0  0  0  0  0  0  0
   38.6794   32.4255   48.0374 C   0  0  2  0  0  0  0  0  0  0  0  0
   34.6007   31.0322   50.1728 H   0  0  0  0  0  0  0  0  0  0  0  0
   36.3490   32.0388   49.1377 H   0  0  0  0  0  0  0  0  0  0  0  0
   36.0928   31.0126   47.6437 H   0  0  0  0  0  0  0  0  0  0  0  0
   37.5631   29.3347   48.5797 H   0  0  0  0  0  0  0  0  0  0  0  0
   38.8757   29.6215   50.3962 H   0  0  0  0  0  0  0  0  0  0  0  0
   38.5776   31.3453   50.6571 H   0  0  0  0  0  0  0  0  0  0  0  0
   37.4044   29.5366   52.1507 H   0  0  0  0  0  0  0  0  0  0  0  0
   36.6165   31.0482   51.7095 H   0  0  0  0  0  0  0  0  0  0  0  0
   36.1674   28.4450   50.1567 H   0  0  0  0  0  0  0  0  0  0  0  0
   35.1012   29.2012   51.3900 H   0  0  0  0  0  0  0  0  0  0  0  0
   34.5089   30.5985   46.7872 H   0  0  0  0  0  0  0  0  0  0  0  0
   32.9835   29.1642   45.6569 H   0  0  0  0  0  0  0  0  0  0  0  0
   32.2342   26.8848   49.0182 H   0  0  0  0  0  0  0  0  0  0  0  0
   38.5861   29.5691   46.4551 H   0  0  0  0  0  0  0  0  0  0  0  0
   37.5244   31.0579   46.1800 H   0  0  0  0  0  0  0  0  0  0  0  0
   39.3691   31.6085   44.9572 H   0  0  0  0  0  0  0  0  0  0  0  0
   40.5735   30.8777   46.1539 H   0  0  0  0  0  0  0  0  0  0  0  0
   39.0601   33.5170   46.1571 H   0  0  0  0  0  0  0  0  0  0  0  0
   40.5434   33.0427   47.0238 H   0  0  0  0  0  0  0  0  0  0  0  0
   37.6925   32.8792   47.8196 H   0  0  0  0  0  0  0  0  0  0  0  0
   39.3346   33.1518   49.0609 C   0  0  0  0  0  0  0  0  0  0  0  0
   40.3494   34.0993   49.0577 C   0  0  0  0  0  0  0  0  0  0  0  0
   40.7518   34.3677   48.0942 H   0  0  0  0  0  0  0  0  0  0  0  0
   40.7858   34.6387   50.2405 C   0  0  0  0  0  0  0  0  0  0  0  0
   40.1604   34.1885   51.4425 C   0  0  0  0  0  0  0  0  0  0  0  0
   38.9265   32.9721   50.8698 S   0  0  0  0  0  0  0  0  0  0  0  0
   41.5704   35.3781   50.2997 H   0  0  0  0  0  0  0  0  0  0  0  0
   40.3608   34.4818   52.3950 H   0  0  0  0  0  0  0  0  0  0  0  0
  1  6  1  0
  2  3  1  0
  2  1  1  0
  3  4  1  0
  4  5  1  0
  6  5  1  0
  7 12  1  0
  7  1  1  0
  8  7  2  0
  9 10  2  0
  9  8  1  0
 10 11  1  0
 11 12  2  0
 13 14  1  0
 13 17  1  0
 13  3  1  0
 15 14  1  0
 15 16  1  0
 16 17  1  0
  1 18  1  1
  2 19  1  0
  2 20  1  0
  3 21  1  6
  4 22  1  0
  4 23  1  0
  5 24  1  0
  5 25  1  0
  6 26  1  0
  6 27  1  0
  8 28  1  0
  9 29  1  0
 11 30  1  0
 14 31  1  0
 14 32  1  0
 15 33  1  0
 15 34  1  0
 16 35  1  0
 16 36  1  0
 17 37  1  6
 38 39  2  0
 39 40  1  0
 39 41  1  0
 41 42  2  0
 42 43  1  0
 43 38  1  0
 41 44  1  0
 42 45  1  0
 17 38  1  0
M  ISO  8  18  13  19  13  20  13  21  13  22  13  23  13  24  13  25  13
M  ISO  8  26  13  27  13  28  14  29  14  30  14  31  13  32  13  33  13
M  ISO  5  34  13  35  13  36  13  37  13  40  15
M  END
>  <DihAtoms>  (1) 
12,16,37,38

>  <DihDeg>  (1) 
50.28062681793511

$$$$
