
 OpenBabel03272509383D

 27 29  0  0  1  0  0  0  0  0999 V2000
   36.3860   30.6750   48.5280 C   0  0  0  0  0  0  0  0  0  0  0  0
   36.3770   31.2860   49.8080 C   0  0  0  0  0  0  0  0  0  0  0  0
   37.2060   32.3890   50.0710 C   0  0  0  0  0  0  0  0  0  0  0  0
   38.0310   32.8830   49.0830 C   0  0  0  0  0  0  0  0  0  0  0  0
   38.0000   32.2580   47.8690 C   0  0  0  0  0  0  0  0  0  0  0  0
   37.1980   31.1600   47.5630 C   0  0  0  0  0  0  0  0  0  0  0  0
   35.7110   30.8550   50.5420 H   0  0  0  0  0  0  0  0  0  0  0  0
   37.0790   32.7280   51.0720 H   0  0  0  0  0  0  0  0  0  0  0  0
   38.6350   33.7320   49.3590 H   0  0  0  0  0  0  0  0  0  0  0  0
   38.7060   32.7620   47.1850 H   0  0  0  0  0  0  0  0  0  0  0  0
   37.3810   30.7750   46.1930 C   0  0  0  0  0  0  0  0  0  0  0  0
   38.7880   30.4300   45.8180 C   0  0  0  0  0  0  0  0  0  0  0  0
   39.6950   30.5300   46.4500 H   0  0  0  0  0  0  0  0  0  0  0  0
   39.1360   29.9320   44.6250 C   0  0  0  0  0  3  0  0  0  0  0  0
   38.0550   29.7550   43.7300 C   0  0  0  0  0  3  0  0  0  0  0  0
   36.6760   30.2760   44.5830 S   0  0  0  0  0  0  0  0  0  0  0  0
   35.5030   29.5260   48.3300 C   0  0  1  0  0  3  0  0  0  0  0  0
   35.7240   28.5460   49.1520 O   0  0  0  0  0  1  0  0  0  0  0  0
   32.7790   30.6400   46.2170 C   0  0  0  0  0  0  0  0  0  0  0  0
   32.4460   29.5180   45.4750 C   0  0  0  0  0  0  0  0  0  0  0  0
   33.1640   28.3400   45.7020 C   0  0  0  0  0  0  0  0  0  0  0  0
   34.1730   28.3200   46.6440 N   0  0  0  0  0  0  0  0  0  0  0  0
   34.4550   29.4230   47.3280 C   0  0  0  0  0  0  0  0  0  0  0  0
   33.7570   30.5630   47.1080 N   0  0  0  0  0  0  0  0  0  0  0  0
   32.1760   31.5020   45.9780 H   0  0  0  0  0  0  0  0  0  0  0  0
   31.6950   29.4090   44.7260 H   0  0  0  0  0  0  0  0  0  0  0  0
   32.9660   27.4100   45.1620 H   0  0  0  0  0  0  0  0  0  0  0  0
  1  2  1  0  0  0  0
  2  3  2  0  0  0  0
  2  7  1  0  0  0  0
  3  8  1  0  0  0  0
  4  9  1  0  0  0  0
  4  3  1  0  0  0  0
  5  4  2  0  0  0  0
  6  5  1  0  0  0  0
  6  1  2  0  0  0  0
 10  5  1  0  0  0  0
 11  6  1  0  0  0  0
 12 11  2  0  0  0  0
 12 13  1  0  0  0  0
 14 12  1  0  0  0  0
 15 16  1  0  0  0  0
 15 14  2  0  0  0  0
 16 11  1  0  0  0  0
 17  1  1  0  0  0  0
 17 18  1  1  0  0  0
 19 24  1  0  0  0  0
 20 21  1  0  0  0  0
 20 19  2  0  0  0  0
 21 22  2  0  0  0  0
 22 23  1  0  0  0  0
 23 17  1  0  0  0  0
 24 23  2  0  0  0  0
 25 19  1  0  0  0  0
 26 20  1  0  0  0  0
 27 21  1  0  0  0  0
M  END
>  <minimizedAffinity>
-5.21743298

>  <minimizedRMSD>
1.50668979

$$$$
