
     RDKit          3D

 33 35  0  0  0  0  0  0  0  0999 V2000
   36.7757   31.2129   48.7271 C   0  0  0  0  0  0  0  0  0  0  0  0
   35.8574   30.4656   49.5040 C   0  0  0  0  0  0  0  0  0  0  0  0
   36.3315   30.0256   50.7247 C   0  0  0  0  0  0  0  0  0  0  0  0
   37.6024   30.3134   51.1154 N   0  0  0  0  0  0  0  0  0  0  0  0
   38.4383   31.0308   50.3353 C   0  0  0  0  0  0  0  0  0  0  0  0
   38.0115   31.4776   49.1369 N   0  0  0  0  0  0  0  0  0  0  0  0
   34.4761   30.1799   49.0440 C   0  0  1  0  0  0  0  0  0  0  0  0
   34.2412   30.3312   47.6113 C   0  0  0  0  0  0  0  0  0  0  0  0
   34.3978   29.1211   46.7558 C   0  0  0  0  0  0  0  0  0  0  0  0
   34.0264   27.8237   47.3589 C   0  0  0  0  0  0  0  0  0  0  0  0
   34.2408   27.6738   48.8108 C   0  0  0  0  0  0  0  0  0  0  0  0
   33.9469   28.8923   49.6077 C   0  0  2  0  0  0  0  0  0  0  0  0
   36.5373   31.6161   47.7578 H   0  0  0  0  0  0  0  0  0  0  0  0
   35.7802   29.4508   51.4466 H   0  0  0  0  0  0  0  0  0  0  0  0
   39.4323   31.2172   50.7171 H   0  0  0  0  0  0  0  0  0  0  0  0
   33.8831   30.9780   49.5938 H   0  0  0  0  0  0  0  0  0  0  0  0
   34.7472   31.1493   47.0990 H   0  0  0  0  0  0  0  0  0  0  0  0
   33.1433   30.6063   47.5036 H   0  0  0  0  0  0  0  0  0  0  0  0
   35.4759   29.1016   46.4308 H   0  0  0  0  0  0  0  0  0  0  0  0
   33.8241   29.2684   45.8155 H   0  0  0  0  0  0  0  0  0  0  0  0
   32.9800   27.5779   47.0945 H   0  0  0  0  0  0  0  0  0  0  0  0
   34.6650   27.0392   46.8500 H   0  0  0  0  0  0  0  0  0  0  0  0
   33.5483   26.8723   49.1804 H   0  0  0  0  0  0  0  0  0  0  0  0
   35.3014   27.3489   48.9916 H   0  0  0  0  0  0  0  0  0  0  0  0
   34.1288   28.7632   50.6705 H   0  0  0  0  0  0  0  0  0  0  0  0
   32.4036   29.0274   49.5603 C   0  0  0  0  0  0  0  0  0  0  0  0
   31.7583   29.6002   48.6003 C   0  0  0  0  0  0  0  0  0  0  0  0
   32.1316   30.0756   47.6734 H   0  0  0  0  0  0  0  0  0  0  0  0
   30.3924   29.7154   48.5822 C   0  0  0  0  0  0  0  0  0  0  0  0
   29.7447   29.1899   49.6386 C   0  0  0  0  0  0  0  0  0  0  0  0
   31.1656   28.5173   50.6719 S   0  0  0  0  0  0  0  0  0  0  0  0
   29.6088   30.1145   47.9605 H   0  0  0  0  0  0  0  0  0  0  0  0
   28.7379   29.0081   50.1148 H   0  0  0  0  0  0  0  0  0  0  0  0
  1  6  2  0
  1  2  1  0
  2  3  2  0
  3  4  1  0
  5  4  2  0
  6  5  1  0
  7  2  1  0
  7 12  1  0
  8  7  1  0
  9 10  1  0
  9  8  1  0
 10 11  1  0
 11 12  1  0
  1 13  1  0
  3 14  1  0
  5 15  1  0
  7 16  1  1
  8 17  1  0
  8 18  1  0
  9 19  1  0
  9 20  1  0
 10 21  1  0
 10 22  1  0
 11 23  1  0
 11 24  1  0
 12 25  1  1
 26 27  2  0
 27 28  1  0
 27 29  1  0
 29 30  2  0
 30 31  1  0
 31 26  1  0
 29 32  1  0
 30 33  1  0
 12 26  1  0
M  ISO  8  13  14  14  14  15  14  16  13  17  13  18  13  19  13  20  13
M  ISO  6  21  13  22  13  23  13  24  13  25  13  28  15
M  END
>  <DihAtoms>  (1) 
6,11,25,26

>  <DihDeg>  (1) 
-112.1672487237119

$$$$
