REMARK  Name = 
REMARK  2 active torsions:
REMARK  status: ('A' for Active; 'I' for Inactive)
REMARK    1  A    between atoms: C_1  and  C_7
REMARK    2  A    between atoms: C_3  and  C_26
REMARK                            x       y       z     vdW  Elec       q    Type
REMARK                         _______ _______ _______ _____ _____    ______ ____
ROOT
ATOM      1  C   UNL     1      35.525  30.307  49.733  0.00  0.00    +0.000 C 
ATOM      2  C   UNL     1      36.480  31.179  48.951  0.00  0.00    +0.000 C 
ATOM      3  C   UNL     1      37.916  30.804  49.166  0.00  0.00    +0.000 C 
ATOM      4  C   UNL     1      38.324  30.755  50.611  0.00  0.00    +0.000 C 
ATOM      5  C   UNL     1      37.282  30.150  51.503  0.00  0.00    +0.000 C 
ATOM      6  C   UNL     1      36.201  29.425  50.726  0.00  0.00    +0.000 C 
ATOM      7  H   UNL     1      34.777  30.943  50.246  0.00  0.00    +0.000 HD
ATOM      8  H   UNL     1      36.283  31.148  47.873  0.00  0.00    +0.000 HD
ATOM      9  H   UNL     1      36.382  32.233  49.332  0.00  0.00    +0.000 HD
ATOM     10  H   UNL     1      38.536  31.560  48.661  0.00  0.00    +0.000 HD
ATOM     11  H   UNL     1      38.091  29.821  48.680  0.00  0.00    +0.000 HD
ATOM     12  H   UNL     1      39.232  30.092  50.668  0.00  0.00    +0.000 HD
ATOM     13  H   UNL     1      38.673  31.727  51.002  0.00  0.00    +0.000 HD
ATOM     14  H   UNL     1      37.715  29.404  52.198  0.00  0.00    +0.000 HD
ATOM     15  H   UNL     1      36.848  30.954  52.102  0.00  0.00    +0.000 HD
ATOM     16  H   UNL     1      36.730  28.623  50.155  0.00  0.00    +0.000 HD
ATOM     17  H   UNL     1      35.501  29.011  51.448  0.00  0.00    +0.000 HD
ENDROOT
BRANCH   1  18
ATOM     18  C   UNL     1      34.759  29.427  48.797  0.00  0.00    +0.000 A 
ATOM     19  C   UNL     1      34.221  30.065  47.663  0.00  0.00    +0.000 A 
ATOM     20  C   UNL     1      33.487  29.241  46.786  0.00  0.00    +0.000 A 
ATOM     21  N   UNL     1      33.334  27.917  47.059  0.00  0.00    +0.000 NA
ATOM     22  C   UNL     1      33.878  27.357  48.171  0.00  0.00    +0.000 A 
ATOM     23  N   UNL     1      34.578  28.103  49.024  0.00  0.00    +0.000 NA
ATOM     24  H   UNL     1      34.306  31.089  47.399  0.00  0.00    +0.000 HD
ATOM     25  H   UNL     1      33.756  26.322  48.381  0.00  0.00    +0.000 HD
BRANCH  20  26
ATOM     26  C   UNL     1      32.901  29.773  45.616  0.00  0.00    +0.000 A 
ATOM     27  C   UNL     1      32.423  31.043  45.371  0.00  0.00    +0.000 A 
ATOM     28  H   UNL     1      32.482  31.780  46.162  0.00  0.00    +0.000 HD
ATOM     29  C   UNL     1      31.891  31.338  44.150  0.00  0.00    +0.000 A 
ATOM     30  C   UNL     1      31.873  30.282  43.202  0.00  0.00    +0.000 A 
ATOM     31  S   UNL     1      32.626  28.892  44.105  0.00  0.00    +0.000 S 
ENDBRANCH  20  26
ENDBRANCH   1  18
TORSDOF 2
