
 OpenBabel03272507203D

 27 29  0  0  1  0  0  0  0  0999 V2000
   37.5370   31.2930   49.4620 C   0  0  0  0  0  0  0  0  0  0  0  0
   38.2990   32.4450   49.6160 C   0  0  0  0  0  0  0  0  0  0  0  0
   38.8380   32.9630   48.4430 C   0  0  0  0  0  0  0  0  0  0  0  0
   38.6180   32.3640   47.2400 N   0  0  0  0  0  0  0  0  0  0  0  0
   37.8660   31.2380   47.1310 C   0  0  0  0  0  0  0  0  0  0  0  0
   37.3190   30.6950   48.2540 N   0  0  0  0  0  0  0  0  0  0  0  0
   38.4660   32.9080   50.5600 H   0  0  0  0  0  0  0  0  0  0  0  0
   39.4490   33.8580   48.4430 H   0  0  0  0  0  0  0  0  0  0  0  0
   36.9340   30.7170   50.7040 C   0  0  1  0  0  0  0  0  0  0  0  0
   36.1010   29.5170   50.6720 C   0  0  2  0  0  0  0  0  0  0  0  0
   37.5420   29.3390   51.0470 C   0  0  0  0  0  0  0  0  0  0  0  0
   36.9520   31.4420   51.5650 H   0  0  0  0  0  0  0  0  0  0  0  0
   35.2830   29.5340   51.4390 H   0  0  0  0  0  0  0  0  0  0  0  0
   37.6880   29.1380   52.1450 H   0  0  0  0  0  0  0  0  0  0  0  0
   38.2440   28.8760   50.3540 H   0  0  0  0  0  0  0  0  0  0  0  0
   35.6690   29.0790   49.4280 O   0  0  0  0  0  0  0  0  0  0  0  0
   34.4800   28.5480   49.0560 C   0  0  0  0  0  0  0  0  0  0  0  0
   34.3880   27.6340   48.2120 O   0  0  0  0  0  0  0  0  0  0  0  0
   33.4710   29.1990   49.7690 N   0  0  0  0  0  0  0  0  0  0  0  0
   33.0800   30.0710   49.4020 H   0  0  0  0  0  0  0  0  0  0  0  0
   33.3290   28.5740   50.6120 H   0  0  0  0  0  0  0  0  0  0  0  0
   37.7140   30.7140   45.8170 C   0  0  0  0  0  0  0  0  0  0  0  0
   36.6550   30.4660   45.0120 C   0  0  0  0  0  0  0  0  0  0  0  0
   35.6760   30.7160   45.4520 H   0  0  0  0  0  0  0  0  0  0  0  0
   36.8030   29.9500   43.7670 C   0  0  0  0  0  3  0  0  0  0  0  0
   38.1020   29.6910   43.3660 C   0  0  0  0  0  3  0  0  0  0  0  0
   39.0950   30.2360   44.8880 S   0  0  0  0  0  0  0  0  0  0  0  0
  1  2  1  0  0  0  0
  1  9  1  0  0  0  0
  2  7  1  0  0  0  0
  3  8  1  0  0  0  0
  3  2  2  0  0  0  0
  4  3  1  0  0  0  0
  5  4  2  0  0  0  0
  5  6  1  0  0  0  0
  6  1  2  0  0  0  0
  9 11  1  0  0  0  0
  9 12  1  1  0  0  0
 10  9  1  0  0  0  0
 10 11  1  0  0  0  0
 10 13  1  1  0  0  0
 11 14  1  0  0  0  0
 15 11  1  0  0  0  0
 16 10  1  0  0  0  0
 17 16  1  0  0  0  0
 17 19  1  0  0  0  0
 18 17  2  0  0  0  0
 19 21  1  0  0  0  0
 20 19  1  0  0  0  0
 22  5  1  0  0  0  0
 23 24  1  0  0  0  0
 23 22  2  0  0  0  0
 25 23  1  0  0  0  0
 26 25  2  0  0  0  0
 26 27  1  0  0  0  0
 27 22  1  0  0  0  0
M  END
>  <minimizedAffinity>
-5.35556746

>  <minimizedRMSD>
0.696336806

$$$$
