
 OpenBabel03272509383D

 27 29  0  0  1  0  0  0  0  0999 V2000
   36.0440   29.5730   48.9490 C   0  0  0  0  0  0  0  0  0  0  0  0
   36.1130   29.4600   50.3600 C   0  0  0  0  0  0  0  0  0  0  0  0
   37.1010   30.1530   51.0780 C   0  0  0  0  0  0  0  0  0  0  0  0
   38.0080   30.9480   50.4110 C   0  0  0  0  0  0  0  0  0  0  0  0
   37.8980   31.0220   49.0510 C   0  0  0  0  0  0  0  0  0  0  0  0
   36.9370   30.3500   48.2970 C   0  0  0  0  0  0  0  0  0  0  0  0
   35.3760   28.8230   50.8280 H   0  0  0  0  0  0  0  0  0  0  0  0
   37.0140   29.9640   52.1220 H   0  0  0  0  0  0  0  0  0  0  0  0
   38.7350   31.4500   51.0280 H   0  0  0  0  0  0  0  0  0  0  0  0
   38.6840   31.6920   48.6600 H   0  0  0  0  0  0  0  0  0  0  0  0
   37.0770   30.6760   46.9060 C   0  0  0  0  0  0  0  0  0  0  0  0
   37.8890   31.8990   46.6240 C   0  0  0  0  0  0  0  0  0  0  0  0
   38.3050   32.6160   47.3630 H   0  0  0  0  0  0  0  0  0  0  0  0
   38.2340   32.2930   45.3910 C   0  0  0  0  0  3  0  0  0  0  0  0
   37.7590   31.4500   44.3580 C   0  0  0  0  0  3  0  0  0  0  0  0
   36.8990   30.2100   45.1480 S   0  0  0  0  0  0  0  0  0  0  0  0
   34.9940   28.8150   48.2680 C   0  0  1  0  0  3  0  0  0  0  0  0
   34.7940   27.6320   48.7630 O   0  0  0  0  0  1  0  0  0  0  0  0
   32.8960   31.0730   46.3610 C   0  0  0  0  0  0  0  0  0  0  0  0
   32.6940   30.4130   45.1600 C   0  0  0  0  0  0  0  0  0  0  0  0
   33.2820   29.1560   44.9910 C   0  0  0  0  0  0  0  0  0  0  0  0
   34.0410   28.6080   46.0060 N   0  0  0  0  0  0  0  0  0  0  0  0
   34.2060   29.2820   47.1390 C   0  0  0  0  0  0  0  0  0  0  0  0
   33.6340   30.5000   47.3020 N   0  0  0  0  0  0  0  0  0  0  0  0
   32.4080   32.0340   46.4070 H   0  0  0  0  0  0  0  0  0  0  0  0
   32.1360   30.7280   44.3090 H   0  0  0  0  0  0  0  0  0  0  0  0
   33.1730   28.5670   44.0750 H   0  0  0  0  0  0  0  0  0  0  0  0
  1  2  1  0  0  0  0
  2  7  1  0  0  0  0
  2  3  2  0  0  0  0
  3  8  1  0  0  0  0
  4  9  1  0  0  0  0
  4  3  1  0  0  0  0
  5  4  2  0  0  0  0
  6  1  2  0  0  0  0
  6  5  1  0  0  0  0
 10  5  1  0  0  0  0
 11  6  1  0  0  0  0
 12 11  2  0  0  0  0
 12 13  1  0  0  0  0
 14 12  1  0  0  0  0
 15 16  1  0  0  0  0
 15 14  2  0  0  0  0
 16 11  1  0  0  0  0
 17 18  1  1  0  0  0
 17  1  1  0  0  0  0
 19 25  1  0  0  0  0
 19 24  1  0  0  0  0
 20 19  2  0  0  0  0
 21 20  1  0  0  0  0
 21 22  2  0  0  0  0
 22 23  1  0  0  0  0
 23 24  2  0  0  0  0
 23 17  1  0  0  0  0
 26 20  1  0  0  0  0
 27 21  1  0  0  0  0
M  END
>  <minimizedAffinity>
-5.06001091

>  <minimizedRMSD>
0.597548902

$$$$
