
     RDKit          3D

 29 31  0  0  0  0  0  0  0  0999 V2000
   34.9522   28.7851   48.6702 C   0  0  0  0  0  0  0  0  0  0  0  0
   34.6140   27.8323   49.4836 O   0  0  0  0  0  0  0  0  0  0  0  0
   33.0012   30.5828   46.2019 C   0  0  0  0  0  0  0  0  0  0  0  0
   32.8061   29.6597   45.1871 C   0  0  0  0  0  0  0  0  0  0  0  0
   33.3482   28.3806   45.3460 C   0  0  0  0  0  0  0  0  0  0  0  0
   34.0546   28.0701   46.4901 N   0  0  0  0  0  0  0  0  0  0  0  0
   34.2151   28.9908   47.4344 C   0  0  0  0  0  0  0  0  0  0  0  0
   33.6881   30.2297   47.2793 N   0  0  0  0  0  0  0  0  0  0  0  0
   36.0939   29.5768   49.1266 C   0  0  0  0  0  0  0  0  0  0  0  0
   36.2579   29.7286   50.5270 C   0  0  0  0  0  0  0  0  0  0  0  0
   37.3368   30.4700   51.0357 C   0  0  0  0  0  0  0  0  0  0  0  0
   38.2406   31.0542   50.1740 C   0  0  0  0  0  0  0  0  0  0  0  0
   38.0360   30.8758   48.8346 C   0  0  0  0  0  0  0  0  0  0  0  0
   36.9833   30.1485   48.2845 C   0  0  0  0  0  0  0  0  0  0  0  0
   32.5501   31.5420   45.9982 H   0  0  0  0  0  0  0  0  0  0  0  0
   32.2846   29.7789   44.2648 H   0  0  0  0  0  0  0  0  0  0  0  0
   33.2408   27.5930   44.5953 H   0  0  0  0  0  0  0  0  0  0  0  0
   35.5189   29.2494   51.1530 H   0  0  0  0  0  0  0  0  0  0  0  0
   37.3146   30.4889   52.1000 H   0  0  0  0  0  0  0  0  0  0  0  0
   39.0404   31.6085   50.6381 H   0  0  0  0  0  0  0  0  0  0  0  0
   38.8319   31.3987   48.2748 H   0  0  0  0  0  0  0  0  0  0  0  0
   37.0409   30.1922   46.8511 C   0  0  0  0  0  0  0  0  0  0  0  0
   35.9371   29.4610   46.1544 C   0  0  0  0  0  0  0  0  0  0  0  0
   35.1533   28.8266   46.6175 H   0  0  0  0  0  0  0  0  0  0  0  0
   35.7504   29.4895   44.8284 C   0  0  0  0  0  0  0  0  0  0  0  0
   36.6944   30.2758   44.1254 C   0  0  0  0  0  0  0  0  0  0  0  0
   37.7383   30.8989   45.3178 S   0  0  0  0  0  0  0  0  0  0  0  0
   35.0519   29.0641   44.1488 H   0  0  0  0  0  0  0  0  0  0  0  0
   36.8623   30.5342   43.0545 H   0  0  0  0  0  0  0  0  0  0  0  0
  1  9  1  0
  1  2  2  0
  3  8  2  0
  4  5  2  0
  4  3  1  0
  5  6  1  0
  6  7  2  0
  7  1  1  0
  8  7  1  0
  9 10  2  0
 10 11  1  0
 12 11  2  0
 13 12  1  0
 14 13  2  0
 14  9  1  0
  3 15  1  0
  4 16  1  0
  5 17  1  0
 10 18  1  0
 11 19  1  0
 12 20  1  0
 13 21  1  0
 22 23  2  0
 23 24  1  0
 23 25  1  0
 25 26  2  0
 26 27  1  0
 27 22  1  0
 25 28  1  0
 26 29  1  0
 14 22  1  0
M  ISO  8  15  14  16  14  17  14  18  14  19  14  20  14  21  14  24  15
M  END
>  <DihAtoms>  (1) 
12,13,21,22

>  <DihDeg>  (1) 
46.07881245582562

$$$$
