
 OpenBabel03262522063D

 37 40  0  0  1  0  0  0  0  0999 V2000
   34.5000   29.0820   48.7290 C   0  0  2  0  0  0  0  0  0  0  0  0
   35.1350   28.3650   49.8730 C   0  0  0  0  0  0  0  0  0  0  0  0
   36.2760   29.1460   50.3530 N   0  0  0  0  0  0  0  0  0  0  0  0
   37.2200   29.8860   51.1440 C   0  0  0  0  0  0  0  0  0  0  0  0
   37.4290   30.0800   52.3470 O   0  0  0  0  0  0  0  0  0  0  0  0
   37.9410   30.4010   50.0110 C   0  0  1  0  0  0  0  0  0  0  0  0
   37.1210   29.3790   49.2230 C   0  0  2  0  0  0  0  0  0  0  0  0
   35.9110   30.0730   48.0730 S   0  0  0  0  0  0  0  0  0  0  0  0
   34.4010   28.3440   50.7060 H   0  0  0  0  0  0  0  0  0  0  0  0
   35.4070   27.3200   49.6590 H   0  0  0  0  0  0  0  0  0  0  0  0
   39.0020   30.0950   49.9360 H   0  0  0  0  0  0  0  0  0  0  0  0
   37.6750   28.5050   48.8520 H   0  0  0  0  0  0  0  0  0  0  0  0
   33.2970   29.9030   49.0390 C   0  0  0  0  0  0  0  0  0  0  0  0
   33.4950   30.9820   49.1870 H   0  0  0  0  0  0  0  0  0  0  0  0
   32.7170   29.4990   49.8790 H   0  0  0  0  0  0  0  0  0  0  0  0
   32.6310   29.8610   48.1350 H   0  0  0  0  0  0  0  0  0  0  0  0
   34.2170   28.0550   47.6190 C   0  0  0  0  0  0  0  0  0  0  0  0
   34.9460   27.2260   47.6560 H   0  0  0  0  0  0  0  0  0  0  0  0
   33.1990   27.6820   47.7760 H   0  0  0  0  0  0  0  0  0  0  0  0
   34.2340   28.7200   46.3890 O   0  0  0  0  0  0  0  0  0  0  0  0
   34.7560   28.1590   45.7490 H   0  0  0  0  0  0  0  0  0  0  0  0
   37.7330   31.8090   49.6500 C   0  0  0  0  0  0  0  0  0  0  0  0
   36.7390   32.3300   50.2520 O   0  0  0  0  0  0  0  0  0  0  0  0
   38.5480   32.5390   48.7290 C   0  0  0  0  0  0  0  0  0  0  0  0
   39.1290   33.7070   49.1610 C   0  0  0  0  0  0  0  0  0  0  0  0
   39.9400   34.4200   48.2410 C   0  0  0  0  0  0  0  0  0  0  0  0
   40.0920   33.9060   46.9920 N   0  0  0  0  0  0  0  0  0  0  0  0
   39.5120   32.7620   46.5970 C   0  0  0  0  0  0  0  0  0  0  0  0
   38.7410   32.0840   47.4730 N   0  0  0  0  0  0  0  0  0  0  0  0
   39.0110   34.1200   50.1540 H   0  0  0  0  0  0  0  0  0  0  0  0
   40.4020   35.3410   48.5720 H   0  0  0  0  0  0  0  0  0  0  0  0
   39.7430   32.2880   45.2100 C   0  0  0  0  0  0  0  0  0  0  0  0
   40.5720   31.1770   44.9030 C   0  0  0  0  0  0  0  0  0  0  0  0
   41.0770   30.6230   45.6820 H   0  0  0  0  0  0  0  0  0  0  0  0
   40.7040   30.8400   43.5830 C   0  0  0  0  0  0  0  0  0  0  0  0
   40.0220   31.5990   42.6160 C   0  0  0  0  0  0  0  0  0  0  0  0
   39.1250   32.8930   43.6750 S   0  0  0  0  0  0  0  0  0  0  0  0
  1 17  1  6  0  0  0
  1 13  1  0  0  0  0
  1  2  1  0  0  0  0
  2  3  1  0  0  0  0
  2  9  1  0  0  0  0
  3  4  1  0  0  0  0
  4  5  2  0  0  0  0
  6 11  1  1  0  0  0
  6  4  1  0  0  0  0
  7 12  1  6  0  0  0
  7  6  1  0  0  0  0
  7  3  1  0  0  0  0
  8  1  1  0  0  0  0
  8  7  1  0  0  0  0
 10  2  1  0  0  0  0
 13 14  1  0  0  0  0
 13 15  1  0  0  0  0
 16 13  1  0  0  0  0
 17 18  1  0  0  0  0
 17 19  1  0  0  0  0
 20 17  1  0  0  0  0
 21 20  1  0  0  0  0
 22  6  1  0  0  0  0
 22 23  2  0  0  0  0
 24 25  1  0  0  0  0
 24 22  1  0  0  0  0
 25 30  1  0  0  0  0
 26 31  1  0  0  0  0
 26 25  2  0  0  0  0
 27 26  1  0  0  0  0
 28 27  2  0  0  0  0
 28 29  1  0  0  0  0
 29 24  2  0  0  0  0
 32 28  1  0  0  0  0
 33 32  2  0  0  0  0
 33 34  1  0  0  0  0
 35 33  1  0  0  0  0
 36 35  2  0  0  0  0
 36 37  1  0  0  0  0
 37 32  1  0  0  0  0
M  END
>  <minimizedAffinity>
-5.66666269

>  <minimizedRMSD>
0.44805786

$$$$
