
 OpenBabel03272509113D

 25 27  0  0  0  0  0  0  0  0999 V2000
   35.9690   30.6130   48.1090 C   0  0  0  0  0  0  0  0  0  0  0  0
   34.9440   29.6990   47.7360 C   0  0  0  0  0  0  0  0  0  0  0  0
   34.6500   28.6540   48.5880 C   0  0  0  0  0  0  0  0  0  0  0  0
   35.3510   28.5340   49.7600 N   0  0  0  0  0  0  0  0  0  0  0  0
   36.3260   29.4320   50.0820 C   0  0  0  0  0  0  0  0  0  0  0  0
   36.6270   30.4480   49.2730 N   0  0  0  0  0  0  0  0  0  0  0  0
   36.2390   31.4430   47.4840 H   0  0  0  0  0  0  0  0  0  0  0  0
   36.7950   29.2130   51.0340 H   0  0  0  0  0  0  0  0  0  0  0  0
   33.6270   27.6650   48.3000 C   0  0  0  0  0  0  0  0  0  0  0  0
   32.3670   27.9100   48.7820 C   0  0  0  0  0  0  0  0  0  0  0  0
   31.3250   26.9980   48.5390 C   0  0  0  0  0  0  0  0  0  0  0  0
   31.6140   25.8550   47.8030 C   0  0  0  0  0  0  0  0  0  0  0  0
   32.8660   25.5790   47.3050 C   0  0  0  0  0  0  0  0  0  0  0  0
   33.8670   26.5150   47.5730 C   0  0  0  0  0  0  0  0  0  0  0  0
   31.9850   28.7220   49.3660 H   0  0  0  0  0  0  0  0  0  0  0  0
   30.3050   27.1070   48.8780 H   0  0  0  0  0  0  0  0  0  0  0  0
   30.8380   25.1170   47.5880 H   0  0  0  0  0  0  0  0  0  0  0  0
   33.0420   24.6820   46.7420 H   0  0  0  0  0  0  0  0  0  0  0  0
   34.8620   26.3190   47.1910 H   0  0  0  0  0  0  0  0  0  0  0  0
   34.3130   29.9580   46.4810 C   0  0  0  0  0  0  0  0  0  0  0  0
   32.9950   30.5500   46.3030 C   0  0  0  0  0  0  0  0  0  0  0  0
   32.4390   30.8200   47.1780 H   0  0  0  0  0  0  0  0  0  0  0  0
   32.5630   30.7150   45.0260 C   0  0  0  0  0  3  0  0  0  0  0  0
   33.3890   30.3150   43.9040 C   0  0  0  0  0  3  0  0  0  0  0  0
   34.8930   29.6550   44.7250 S   0  0  0  0  0  0  0  0  0  0  0  0
  1  6  1  0  0  0  0
  2  1  2  0  0  0  0
  2  3  1  0  0  0  0
  3  4  2  0  0  0  0
  4  5  1  0  0  0  0
  5  8  1  0  0  0  0
  6  5  2  0  0  0  0
  7  1  1  0  0  0  0
  9  3  1  0  0  0  0
  9 10  1  0  0  0  0
 10 15  1  0  0  0  0
 11 10  2  0  0  0  0
 11 16  1  0  0  0  0
 12 11  1  0  0  0  0
 13 14  1  0  0  0  0
 13 12  2  0  0  0  0
 14  9  2  0  0  0  0
 17 12  1  0  0  0  0
 18 13  1  0  0  0  0
 19 14  1  0  0  0  0
 20  2  1  0  0  0  0
 21 20  2  0  0  0  0
 21 22  1  0  0  0  0
 23 21  1  0  0  0  0
 24 25  1  0  0  0  0
 24 23  2  0  0  0  0
 25 20  1  0  0  0  0
M  END
>  <minimizedAffinity>
-4.46087742

>  <minimizedRMSD>
7.4171977

$$$$
