
 OpenBabel03272509113D

 25 27  0  0  0  0  0  0  0  0999 V2000
   35.1670   30.0080   46.7410 C   0  0  0  0  0  0  0  0  0  0  0  0
   36.4780   30.5600   46.7240 C   0  0  0  0  0  0  0  0  0  0  0  0
   37.0460   30.8740   45.5070 C   0  0  0  0  0  0  0  0  0  0  0  0
   36.3290   30.6450   44.3600 N   0  0  0  0  0  0  0  0  0  0  0  0
   35.0740   30.1140   44.4200 C   0  0  0  0  0  0  0  0  0  0  0  0
   34.5070   29.8030   45.5850 N   0  0  0  0  0  0  0  0  0  0  0  0
   34.6770   29.7450   47.6610 H   0  0  0  0  0  0  0  0  0  0  0  0
   34.6290   29.9870   43.4400 H   0  0  0  0  0  0  0  0  0  0  0  0
   38.3780   31.4360   45.3780 C   0  0  0  0  0  0  0  0  0  0  0  0
   39.4350   30.6000   45.6300 C   0  0  0  0  0  0  0  0  0  0  0  0
   40.7540   31.0730   45.5210 C   0  0  0  0  0  0  0  0  0  0  0  0
   40.9470   32.4000   45.1550 C   0  0  0  0  0  0  0  0  0  0  0  0
   39.9080   33.2640   44.8960 C   0  0  0  0  0  0  0  0  0  0  0  0
   38.6170   32.7470   45.0170 C   0  0  0  0  0  0  0  0  0  0  0  0
   39.4610   29.5720   45.9280 H   0  0  0  0  0  0  0  0  0  0  0  0
   41.6460   30.4900   45.6990 H   0  0  0  0  0  0  0  0  0  0  0  0
   41.9520   32.8140   45.0580 H   0  0  0  0  0  0  0  0  0  0  0  0
   40.1050   34.2820   44.6160 H   0  0  0  0  0  0  0  0  0  0  0  0
   37.7830   33.4100   44.8180 H   0  0  0  0  0  0  0  0  0  0  0  0
   37.0930   30.7310   48.0030 C   0  0  0  0  0  0  0  0  0  0  0  0
   37.1580   29.7240   49.0510 C   0  0  0  0  0  0  0  0  0  0  0  0
   36.7140   28.7680   48.8640 H   0  0  0  0  0  0  0  0  0  0  0  0
   37.7850   30.0780   50.2040 C   0  0  0  0  0  3  0  0  0  0  0  0
   38.3580   31.4000   50.3630 C   0  0  0  0  0  3  0  0  0  0  0  0
   37.9760   32.2020   48.7570 S   0  0  0  0  0  0  0  0  0  0  0  0
  1  7  1  0  0  0  0
  2  1  1  0  0  0  0
  2 20  1  0  0  0  0
  3  2  2  0  0  0  0
  4  5  2  0  0  0  0
  4  3  1  0  0  0  0
  5  6  1  0  0  0  0
  6  1  2  0  0  0  0
  8  5  1  0  0  0  0
  9  3  1  0  0  0  0
  9 10  1  0  0  0  0
 10 15  1  0  0  0  0
 11 10  2  0  0  0  0
 11 16  1  0  0  0  0
 12 11  1  0  0  0  0
 13 14  1  0  0  0  0
 13 12  2  0  0  0  0
 14  9  2  0  0  0  0
 17 12  1  0  0  0  0
 18 13  1  0  0  0  0
 19 14  1  0  0  0  0
 20 25  1  0  0  0  0
 20 21  2  0  0  0  0
 21 23  1  0  0  0  0
 22 21  1  0  0  0  0
 23 24  2  0  0  0  0
 25 24  1  0  0  0  0
M  END
>  <minimizedAffinity>
-5.45830345

>  <minimizedRMSD>
3.91087937

$$$$
