
 OpenBabel03272505063D

 30 32  0  0  1  0  0  0  0  0999 V2000
   36.6880   29.2220   49.8760 C   0  0  0  0  0  0  0  0  0  0  0  0
   37.4590   30.3810   49.7350 C   0  0  0  0  0  0  0  0  0  0  0  0
   37.2540   31.1530   48.6100 C   0  0  0  0  0  0  0  0  0  0  0  0
   36.3160   30.7480   47.7000 N   0  0  0  0  0  0  0  0  0  0  0  0
   35.5930   29.6320   47.8620 C   0  0  0  0  0  0  0  0  0  0  0  0
   35.7740   28.8530   48.9620 N   0  0  0  0  0  0  0  0  0  0  0  0
   37.9130   32.3620   48.2550 N   0  0  0  0  0  0  0  0  0  0  0  0
   38.1460   33.4310   49.1910 C   0  0  0  0  0  0  0  0  0  0  0  0
   39.4680   34.0760   49.1550 C   0  0  0  0  0  0  0  0  0  0  0  0
   40.1290   34.1910   47.8240 C   0  0  0  0  0  0  0  0  0  0  0  0
   39.9710   32.8780   47.0920 C   0  0  0  0  0  0  0  0  0  0  0  0
   38.4300   32.7120   46.9670 C   0  0  1  0  0  0  0  0  0  0  0  0
   36.8670   28.6310   50.7710 H   0  0  0  0  0  0  0  0  0  0  0  0
   38.1920   30.7410   50.4020 H   0  0  0  0  0  0  0  0  0  0  0  0
   34.8670   29.3680   47.1050 H   0  0  0  0  0  0  0  0  0  0  0  0
   37.2990   34.1470   49.1250 H   0  0  0  0  0  0  0  0  0  0  0  0
   38.0400   32.9620   50.2120 H   0  0  0  0  0  0  0  0  0  0  0  0
   40.1860   33.5710   49.8520 H   0  0  0  0  0  0  0  0  0  0  0  0
   39.3620   35.1040   49.5740 H   0  0  0  0  0  0  0  0  0  0  0  0
   41.2330   34.3360   48.0010 H   0  0  0  0  0  0  0  0  0  0  0  0
   39.7700   35.0040   47.1860 H   0  0  0  0  0  0  0  0  0  0  0  0
   40.4050   32.0300   47.6240 H   0  0  0  0  0  0  0  0  0  0  0  0
   40.3830   33.0270   46.0700 H   0  0  0  0  0  0  0  0  0  0  0  0
   38.0630   33.7010   46.6340 H   0  0  0  0  0  0  0  0  0  0  0  0
   38.1430   31.7340   45.8980 C   0  0  0  0  0  0  0  0  0  0  0  0
   37.0980   31.7590   44.9970 C   0  0  0  0  0  0  0  0  0  0  0  0
   36.3630   32.5480   45.0320 H   0  0  0  0  0  0  0  0  0  0  0  0
   37.0030   30.7790   44.0630 C   0  0  0  0  0  0  0  0  0  0  0  0
   38.0650   29.7580   44.1160 C   0  0  0  0  0  0  0  0  0  0  0  0
   39.1260   30.3400   45.5570 S   0  0  0  0  0  0  0  0  0  0  0  0
  1 13  1  0  0  0  0
  2  1  1  0  0  0  0
  2 14  1  0  0  0  0
  3  2  2  0  0  0  0
  4  5  2  0  0  0  0
  4  3  1  0  0  0  0
  5  6  1  0  0  0  0
  6  1  2  0  0  0  0
  7  3  1  0  0  0  0
  7  8  1  0  0  0  0
  8 17  1  0  0  0  0
  9  8  1  0  0  0  0
  9 19  1  0  0  0  0
  9 18  1  0  0  0  0
 10 20  1  0  0  0  0
 10  9  1  0  0  0  0
 11 22  1  0  0  0  0
 11 10  1  0  0  0  0
 12 24  1  6  0  0  0
 12 11  1  0  0  0  0
 12  7  1  0  0  0  0
 15  5  1  0  0  0  0
 16  8  1  0  0  0  0
 21 10  1  0  0  0  0
 23 11  1  0  0  0  0
 25 12  1  0  0  0  0
 26 27  1  0  0  0  0
 26 25  2  0  0  0  0
 28 29  2  0  0  0  0
 28 26  1  0  0  0  0
 29 30  1  0  0  0  0
 30 25  1  0  0  0  0
M  END
>  <minimizedAffinity>
-4.68606091

>  <minimizedRMSD>
2.35521841

$$$$
