
 OpenBabel03272507453D

 30 32  0  0  0  0  0  0  0  0999 V2000
   34.5240   30.0780   45.6120 N   0  0  0  0  0  0  0  0  0  0  0  0
   34.4980   29.6720   46.9900 C   0  0  0  0  0  0  0  0  0  0  0  0
   35.5990   30.1200   47.8610 C   0  0  0  0  0  0  0  0  0  0  0  0
   36.9230   30.3740   47.2170 C   0  0  0  0  0  0  0  0  0  0  0  0
   36.8430   30.7490   45.7670 C   0  0  0  0  0  0  0  0  0  0  0  0
   35.8370   29.7920   45.0890 C   0  0  0  0  0  0  0  0  0  0  0  0
   34.4500   28.5540   46.9870 H   0  0  0  0  0  0  0  0  0  0  0  0
   33.5180   30.0130   47.4070 H   0  0  0  0  0  0  0  0  0  0  0  0
   35.2680   31.0480   48.4010 H   0  0  0  0  0  0  0  0  0  0  0  0
   35.7600   29.3750   48.6700 H   0  0  0  0  0  0  0  0  0  0  0  0
   37.5720   29.4800   47.3050 H   0  0  0  0  0  0  0  0  0  0  0  0
   36.4820   31.7690   45.6040 H   0  0  0  0  0  0  0  0  0  0  0  0
   37.8260   30.5370   45.3070 H   0  0  0  0  0  0  0  0  0  0  0  0
   35.8730   29.9220   43.9900 H   0  0  0  0  0  0  0  0  0  0  0  0
   36.1880   28.7650   45.2940 H   0  0  0  0  0  0  0  0  0  0  0  0
   33.4420   30.6620   44.8880 C   0  0  0  0  0  0  0  0  0  0  0  0
   33.5140   31.1070   43.5690 C   0  0  0  0  0  0  0  0  0  0  0  0
   32.3670   31.6510   43.0130 C   0  0  0  0  0  0  0  0  0  0  0  0
   31.2300   31.7320   43.7570 N   0  0  0  0  0  0  0  0  0  0  0  0
   31.2040   31.2900   45.0290 C   0  0  0  0  0  0  0  0  0  0  0  0
   32.3020   30.7650   45.5730 N   0  0  0  0  0  0  0  0  0  0  0  0
   34.4670   30.9920   43.0770 H   0  0  0  0  0  0  0  0  0  0  0  0
   32.4410   31.9860   42.0010 H   0  0  0  0  0  0  0  0  0  0  0  0
   30.2870   31.3580   45.6190 H   0  0  0  0  0  0  0  0  0  0  0  0
   37.5920   31.4790   47.9280 C   0  0  0  0  0  0  0  0  0  0  0  0
   38.5610   32.3160   47.5000 C   0  0  0  0  0  0  0  0  0  0  0  0
   38.9510   32.2060   46.4760 H   0  0  0  0  0  0  0  0  0  0  0  0
   39.0340   33.2830   48.3540 C   0  0  0  0  0  3  0  0  0  0  0  0
   38.4910   33.3420   49.6000 C   0  0  0  0  0  3  0  0  0  0  0  0
   37.2540   31.9890   49.6060 S   0  0  0  0  0  0  0  0  0  0  0  0
  1  2  1  0  0  0  0
  2  8  1  0  0  0  0
  2  3  1  0  0  0  0
  3  9  1  0  0  0  0
  3 10  1  0  0  0  0
  4 11  1  0  0  0  0
  4  3  1  0  0  0  0
  4 25  1  0  0  0  0
  5  4  1  0  0  0  0
  6 15  1  0  0  0  0
  6  1  1  0  0  0  0
  6  5  1  0  0  0  0
  7  2  1  0  0  0  0
 12  5  1  0  0  0  0
 13  5  1  0  0  0  0
 14  6  1  0  0  0  0
 16 21  1  0  0  0  0
 16  1  1  0  0  0  0
 17 16  2  0  0  0  0
 18 17  1  0  0  0  0
 18 19  2  0  0  0  0
 19 20  1  0  0  0  0
 20 21  2  0  0  0  0
 20 24  1  0  0  0  0
 22 17  1  0  0  0  0
 23 18  1  0  0  0  0
 25 30  1  0  0  0  0
 26 25  2  0  0  0  0
 26 28  1  0  0  0  0
 27 26  1  0  0  0  0
 28 29  2  0  0  0  0
 29 30  1  0  0  0  0
M  END
>  <minimizedAffinity>
-4.07854605

>  <minimizedRMSD>
4.01562977

$$$$
