REMARK  Name = 
REMARK  2 active torsions:
REMARK  status: ('A' for Active; 'I' for Inactive)
REMARK    1  A    between atoms: C_2  and  C_20
REMARK    2  A    between atoms: C_3  and  C_7
REMARK                            x       y       z     vdW  Elec       q    Type
REMARK                         _______ _______ _______ _____ _____    ______ ____
ROOT
ATOM      1  C   UNL     1      37.259  30.068  51.498  0.00  0.00    +0.000 A 
ATOM      2  C   UNL     1      37.999  30.781  50.514  0.00  0.00    +0.000 A 
ATOM      3  C   UNL     1      37.652  30.628  49.188  0.00  0.00    +0.000 A 
ATOM      4  N   UNL     1      36.609  29.798  48.865  0.00  0.00    +0.000 NA
ATOM      5  C   UNL     1      35.924  29.132  49.839  0.00  0.00    +0.000 A 
ATOM      6  N   UNL     1      36.243  29.265  51.126  0.00  0.00    +0.000 NA
ATOM      7  H   UNL     1      37.487  30.150  52.545  0.00  0.00    +0.000 HD
ATOM      8  H   UNL     1      35.129  28.514  49.439  0.00  0.00    +0.000 HD
ENDROOT
BRANCH   3   9
ATOM      9  C   UNL     1      38.345  31.305  48.107  0.00  0.00    +0.000 A 
ATOM     10  C   UNL     1      38.797  32.576  48.354  0.00  0.00    +0.000 A 
ATOM     11  C   UNL     1      39.480  33.292  47.356  0.00  0.00    +0.000 A 
ATOM     12  C   UNL     1      39.678  32.675  46.126  0.00  0.00    +0.000 A 
ATOM     13  C   UNL     1      39.238  31.402  45.846  0.00  0.00    +0.000 A 
ATOM     14  C   UNL     1      38.565  30.732  46.870  0.00  0.00    +0.000 A 
ATOM     15  H   UNL     1      38.719  33.191  49.227  0.00  0.00    +0.000 HD
ATOM     16  H   UNL     1      39.871  34.294  47.459  0.00  0.00    +0.000 HD
ATOM     17  H   UNL     1      40.203  33.190  45.319  0.00  0.00    +0.000 HD
ATOM     18  H   UNL     1      39.414  30.966  44.881  0.00  0.00    +0.000 HD
ATOM     19  H   UNL     1      38.209  29.728  46.672  0.00  0.00    +0.000 HD
ENDBRANCH   3   9
BRANCH   2  20
ATOM     20  C   UNL     1      39.060  31.599  51.012  0.00  0.00    +0.000 A 
ATOM     21  C   UNL     1      39.893  31.295  52.166  0.00  0.00    +0.000 A 
ATOM     22  H   UNL     1      39.709  30.383  52.697  0.00  0.00    +0.000 HD
ATOM     23  C   UNL     1      40.852  32.201  52.487  0.00  0.00    +0.000 A 
ATOM     24  C   UNL     1      41.025  33.410  51.705  0.00  0.00    +0.000 A 
ATOM     25  S   UNL     1      39.727  33.247  50.417  0.00  0.00    +0.000 S 
ENDBRANCH   2  20
TORSDOF 2
