REMARK  Name = 
REMARK  3 active torsions:
REMARK  status: ('A' for Active; 'I' for Inactive)
REMARK    1  A    between atoms: C_1  and  C_7
REMARK    2  A    between atoms: C_1  and  C_9
REMARK    3  A    between atoms: C_14  and  C_22
REMARK                            x       y       z     vdW  Elec       q    Type
REMARK                         _______ _______ _______ _____ _____    ______ ____
ROOT
ATOM      1  C   UNL     1      36.094  29.577  49.127  0.00  0.00    +0.000 A 
ATOM      2  C   UNL     1      36.258  29.729  50.527  0.00  0.00    +0.000 A 
ATOM      3  C   UNL     1      37.337  30.470  51.036  0.00  0.00    +0.000 A 
ATOM      4  C   UNL     1      38.241  31.054  50.174  0.00  0.00    +0.000 A 
ATOM      5  C   UNL     1      38.036  30.876  48.835  0.00  0.00    +0.000 A 
ATOM      6  C   UNL     1      36.983  30.148  48.285  0.00  0.00    +0.000 A 
ATOM      7  H   UNL     1      35.519  29.249  51.153  0.00  0.00    +0.000 HD
ATOM      8  H   UNL     1      37.315  30.489  52.100  0.00  0.00    +0.000 HD
ATOM      9  H   UNL     1      39.040  31.608  50.638  0.00  0.00    +0.000 HD
ATOM     10  H   UNL     1      38.832  31.399  48.275  0.00  0.00    +0.000 HD
ENDROOT
BRANCH   6  11
ATOM     11  C   UNL     1      37.041  30.192  46.851  0.00  0.00    +0.000 A 
ATOM     12  C   UNL     1      36.633  31.497  46.244  0.00  0.00    +0.000 A 
ATOM     13  H   UNL     1      36.211  32.380  46.768  0.00  0.00    +0.000 HD
ATOM     14  C   UNL     1      36.736  31.772  44.938  0.00  0.00    +0.000 A 
ATOM     15  C   UNL     1      37.268  30.714  44.162  0.00  0.00    +0.000 A 
ATOM     16  S   UNL     1      37.577  29.457  45.267  0.00  0.00    +0.000 S 
ENDBRANCH   6  11
BRANCH   1  17
ATOM     17  C   UNL     1      34.952  28.785  48.670  0.00  0.00    +0.000 C 
ATOM     18  O   UNL     1      34.614  27.832  49.484  0.00  0.00    +0.000 OA
BRANCH  17  23
ATOM     19  C   UNL     1      33.001  30.583  46.202  0.00  0.00    +0.000 A 
ATOM     20  C   UNL     1      32.806  29.660  45.187  0.00  0.00    +0.000 A 
ATOM     21  C   UNL     1      33.348  28.381  45.346  0.00  0.00    +0.000 A 
ATOM     22  N   UNL     1      34.055  28.070  46.490  0.00  0.00    +0.000 NA
ATOM     23  C   UNL     1      34.215  28.991  47.434  0.00  0.00    +0.000 A 
ATOM     24  N   UNL     1      33.688  30.230  47.279  0.00  0.00    +0.000 NA
ATOM     25  H   UNL     1      32.550  31.542  45.998  0.00  0.00    +0.000 HD
ATOM     26  H   UNL     1      32.285  29.779  44.265  0.00  0.00    +0.000 HD
ATOM     27  H   UNL     1      33.241  27.593  44.595  0.00  0.00    +0.000 HD
ENDBRANCH  17  23
ENDBRANCH   1  17
TORSDOF 3
