
 OpenBabel03272507203D

 27 29  0  0  1  0  0  0  0  0999 V2000
   39.3260   24.4720   34.7100 C   0  0  0  0  0  0  0  0  0  0  0  0
   40.5580   25.0690   34.9520 C   0  0  0  0  0  0  0  0  0  0  0  0
   40.5980   26.4470   34.7680 C   0  0  0  0  0  0  0  0  0  0  0  0
   39.4920   27.1400   34.3790 N   0  0  0  0  0  0  0  0  0  0  0  0
   38.3040   26.5200   34.1530 C   0  0  0  0  0  0  0  0  0  0  0  0
   38.2200   25.1710   34.3200 N   0  0  0  0  0  0  0  0  0  0  0  0
   41.4180   24.5210   35.2560 H   0  0  0  0  0  0  0  0  0  0  0  0
   41.5060   27.0170   34.9270 H   0  0  0  0  0  0  0  0  0  0  0  0
   39.2480   22.9920   34.9100 C   0  0  1  0  0  0  0  0  0  0  0  0
   38.4140   22.3980   35.9540 C   0  0  2  0  0  0  0  0  0  0  0  0
   37.8450   22.4440   34.5680 C   0  0  0  0  0  0  0  0  0  0  0  0
   40.0820   22.4450   34.3900 H   0  0  0  0  0  0  0  0  0  0  0  0
   38.8580   21.4640   36.3860 H   0  0  0  0  0  0  0  0  0  0  0  0
   37.8320   21.4370   34.0660 H   0  0  0  0  0  0  0  0  0  0  0  0
   37.0440   23.1400   34.3180 H   0  0  0  0  0  0  0  0  0  0  0  0
   37.9050   23.2540   36.9210 O   0  0  0  0  0  0  0  0  0  0  0  0
   38.4000   23.5880   38.1360 C   0  0  0  0  0  0  0  0  0  0  0  0
   37.9990   24.5820   38.7740 O   0  0  0  0  0  0  0  0  0  0  0  0
   39.3760   22.6500   38.4810 N   0  0  0  0  0  0  0  0  0  0  0  0
   40.3400   22.7880   38.1640 H   0  0  0  0  0  0  0  0  0  0  0  0
   38.8360   21.9390   39.0500 H   0  0  0  0  0  0  0  0  0  0  0  0
   37.2290   27.3600   33.7520 C   0  0  0  0  0  0  0  0  0  0  0  0
   36.4720   28.2930   34.3740 C   0  0  0  0  0  0  0  0  0  0  0  0
   36.7290   28.4590   35.4330 H   0  0  0  0  0  0  0  0  0  0  0  0
   35.4820   28.9610   33.7320 C   0  0  0  0  0  3  0  0  0  0  0  0
   35.2890   28.6340   32.4020 C   0  0  0  0  0  3  0  0  0  0  0  0
   36.6180   27.3060   32.1320 S   0  0  0  0  0  0  0  0  0  0  0  0
  1  9  1  0  0  0  0
  1  2  1  0  0  0  0
  2  7  1  0  0  0  0
  3  8  1  0  0  0  0
  3  2  2  0  0  0  0
  4  3  1  0  0  0  0
  5  6  1  0  0  0  0
  5  4  2  0  0  0  0
  6  1  2  0  0  0  0
  9 12  1  6  0  0  0
  9 10  1  0  0  0  0
 10 13  1  1  0  0  0
 10 16  1  0  0  0  0
 11  9  1  0  0  0  0
 11 10  1  0  0  0  0
 14 11  1  0  0  0  0
 15 11  1  0  0  0  0
 16 17  1  0  0  0  0
 17 19  1  0  0  0  0
 17 18  2  0  0  0  0
 19 21  1  0  0  0  0
 20 19  1  0  0  0  0
 22  5  1  0  0  0  0
 22 23  2  0  0  0  0
 23 24  1  0  0  0  0
 25 23  1  0  0  0  0
 26 25  2  0  0  0  0
 27 26  1  0  0  0  0
 27 22  1  0  0  0  0
M  END
>  <minimizedAffinity>
-4.86716032

$$$$

 OpenBabel03272507203D

 27 29  0  0  1  0  0  0  0  0999 V2000
   37.3420   27.1000   33.8520 C   0  0  0  0  0  0  0  0  0  0  0  0
   36.6540   28.0710   33.1330 C   0  0  0  0  0  0  0  0  0  0  0  0
   35.9790   27.6100   32.0080 C   0  0  0  0  0  0  0  0  0  0  0  0
   36.0050   26.2940   31.6580 N   0  0  0  0  0  0  0  0  0  0  0  0
   36.6890   25.3750   32.3880 C   0  0  0  0  0  0  0  0  0  0  0  0
   37.3660   25.7820   33.4980 N   0  0  0  0  0  0  0  0  0  0  0  0
   36.6370   29.0970   33.4130 H   0  0  0  0  0  0  0  0  0  0  0  0
   35.4090   28.2770   31.3720 H   0  0  0  0  0  0  0  0  0  0  0  0
   38.0690   27.5630   35.0750 C   0  0  1  0  0  0  0  0  0  0  0  0
   38.3350   26.6660   36.1980 C   0  0  2  0  0  0  0  0  0  0  0  0
   39.4450   26.8760   35.2130 C   0  0  0  0  0  0  0  0  0  0  0  0
   38.1190   28.6850   35.1450 H   0  0  0  0  0  0  0  0  0  0  0  0
   38.3100   27.1910   37.1890 H   0  0  0  0  0  0  0  0  0  0  0  0
   40.2700   27.5280   35.6130 H   0  0  0  0  0  0  0  0  0  0  0  0
   39.7240   26.0880   34.5120 H   0  0  0  0  0  0  0  0  0  0  0  0
   37.6660   25.4510   36.2110 O   0  0  0  0  0  0  0  0  0  0  0  0
   38.0960   24.2240   36.5910 C   0  0  0  0  0  0  0  0  0  0  0  0
   38.3330   23.9360   37.7820 O   0  0  0  0  0  0  0  0  0  0  0  0
   38.2040   23.4270   35.4490 N   0  0  0  0  0  0  0  0  0  0  0  0
   39.0700   23.4480   34.9030 H   0  0  0  0  0  0  0  0  0  0  0  0
   37.2680   22.9340   35.4100 H   0  0  0  0  0  0  0  0  0  0  0  0
   36.6350   24.0350   31.9130 C   0  0  0  0  0  0  0  0  0  0  0  0
   35.6350   23.1960   31.5590 C   0  0  0  0  0  0  0  0  0  0  0  0
   34.6230   23.6250   31.6490 H   0  0  0  0  0  0  0  0  0  0  0  0
   35.8750   21.9320   31.1300 C   0  0  0  0  0  3  0  0  0  0  0  0
   37.2030   21.5490   31.0750 C   0  0  0  0  0  3  0  0  0  0  0  0
   38.0840   23.1180   31.6780 S   0  0  0  0  0  0  0  0  0  0  0  0
  1  9  1  0  0  0  0
  2  7  1  0  0  0  0
  2  1  2  0  0  0  0
  3  2  1  0  0  0  0
  4  3  2  0  0  0  0
  4  5  1  0  0  0  0
  5  6  2  0  0  0  0
  6  1  1  0  0  0  0
  8  3  1  0  0  0  0
  9 12  1  1  0  0  0
  9 11  1  0  0  0  0
  9 10  1  0  0  0  0
 10 16  1  0  0  0  0
 10 13  1  1  0  0  0
 11 14  1  0  0  0  0
 11 10  1  0  0  0  0
 15 11  1  0  0  0  0
 16 17  1  0  0  0  0
 17 18  2  0  0  0  0
 19 17  1  0  0  0  0
 20 19  1  0  0  0  0
 21 19  1  0  0  0  0
 22  5  1  0  0  0  0
 23 24  1  0  0  0  0
 23 22  2  0  0  0  0
 25 23  1  0  0  0  0
 26 25  2  0  0  0  0
 26 27  1  0  0  0  0
 27 22  1  0  0  0  0
M  END
>  <minimizedAffinity>
-4.74916124

$$$$

 OpenBabel03272507203D

 27 29  0  0  1  0  0  0  0  0999 V2000
   36.5450   22.2420   32.4820 C   0  0  0  0  0  0  0  0  0  0  0  0
   35.7300   22.7740   31.4880 C   0  0  0  0  0  0  0  0  0  0  0  0
   35.8210   24.1520   31.3200 C   0  0  0  0  0  0  0  0  0  0  0  0
   36.6580   24.9040   32.0870 N   0  0  0  0  0  0  0  0  0  0  0  0
   37.4390   24.3460   33.0480 C   0  0  0  0  0  0  0  0  0  0  0  0
   37.3820   23.0000   33.2490 N   0  0  0  0  0  0  0  0  0  0  0  0
   35.0800   22.1800   30.8930 H   0  0  0  0  0  0  0  0  0  0  0  0
   35.2320   24.6750   30.5750 H   0  0  0  0  0  0  0  0  0  0  0  0
   36.4790   20.7610   32.6800 C   0  0  1  0  0  0  0  0  0  0  0  0
   35.7590   20.1660   33.8050 C   0  0  2  0  0  0  0  0  0  0  0  0
   35.0440   20.2240   32.4890 C   0  0  0  0  0  0  0  0  0  0  0  0
   37.2480   20.2120   32.0700 H   0  0  0  0  0  0  0  0  0  0  0  0
   36.2410   19.2260   34.1810 H   0  0  0  0  0  0  0  0  0  0  0  0
   34.9690   19.2210   31.9840 H   0  0  0  0  0  0  0  0  0  0  0  0
   34.2250   20.9270   32.3310 H   0  0  0  0  0  0  0  0  0  0  0  0
   35.3630   21.0180   34.8260 O   0  0  0  0  0  0  0  0  0  0  0  0
   35.7990   21.1060   36.1050 C   0  0  0  0  0  0  0  0  0  0  0  0
   35.0830   20.8000   37.0800 O   0  0  0  0  0  0  0  0  0  0  0  0
   37.1140   21.5750   36.0850 N   0  0  0  0  0  0  0  0  0  0  0  0
   37.2870   22.5840   36.0660 H   0  0  0  0  0  0  0  0  0  0  0  0
   37.6880   20.6850   36.0970 H   0  0  0  0  0  0  0  0  0  0  0  0
   38.2670   25.2440   33.7770 C   0  0  0  0  0  0  0  0  0  0  0  0
   38.0370   26.2230   34.6820 C   0  0  0  0  0  0  0  0  0  0  0  0
   36.9740   26.3780   34.9280 H   0  0  0  0  0  0  0  0  0  0  0  0
   39.0450   26.9440   35.2320 C   0  0  0  0  0  3  0  0  0  0  0  0
   40.3230   26.6230   34.8150 C   0  0  0  0  0  3  0  0  0  0  0  0
   39.9870   25.2190   33.5830 S   0  0  0  0  0  0  0  0  0  0  0  0
  1  9  1  0  0  0  0
  1  6  1  0  0  0  0
  2  1  2  0  0  0  0
  3  2  1  0  0  0  0
  3  4  2  0  0  0  0
  4  5  1  0  0  0  0
  5  6  2  0  0  0  0
  5 22  1  0  0  0  0
  7  2  1  0  0  0  0
  8  3  1  0  0  0  0
  9 12  1  6  0  0  0
  9 10  1  0  0  0  0
 10 13  1  1  0  0  0
 10 16  1  0  0  0  0
 11  9  1  0  0  0  0
 11 10  1  0  0  0  0
 14 11  1  0  0  0  0
 15 11  1  0  0  0  0
 16 17  1  0  0  0  0
 17 18  2  0  0  0  0
 19 21  1  0  0  0  0
 19 17  1  0  0  0  0
 20 19  1  0  0  0  0
 22 23  2  0  0  0  0
 23 24  1  0  0  0  0
 23 25  1  0  0  0  0
 26 25  2  0  0  0  0
 27 22  1  0  0  0  0
 27 26  1  0  0  0  0
M  END
>  <minimizedAffinity>
-4.72686386

$$$$

 OpenBabel03272507203D

 27 29  0  0  1  0  0  0  0  0999 V2000
   37.1020   25.9100   32.8030 C   0  0  0  0  0  0  0  0  0  0  0  0
   36.7470   27.2050   33.1650 C   0  0  0  0  0  0  0  0  0  0  0  0
   36.9660   27.5300   34.4990 C   0  0  0  0  0  0  0  0  0  0  0  0
   37.4930   26.6260   35.3700 N   0  0  0  0  0  0  0  0  0  0  0  0
   37.8280   25.3690   34.9780 C   0  0  0  0  0  0  0  0  0  0  0  0
   37.6300   25.0060   33.6800 N   0  0  0  0  0  0  0  0  0  0  0  0
   36.3360   27.9060   32.4780 H   0  0  0  0  0  0  0  0  0  0  0  0
   36.7260   28.5110   34.8930 H   0  0  0  0  0  0  0  0  0  0  0  0
   36.8900   25.5320   31.3720 C   0  0  1  0  0  0  0  0  0  0  0  0
   36.0990   24.3620   30.9930 C   0  0  2  0  0  0  0  0  0  0  0  0
   35.4120   25.6940   30.9540 C   0  0  0  0  0  0  0  0  0  0  0  0
   37.6110   26.0490   30.6800 H   0  0  0  0  0  0  0  0  0  0  0  0
   36.4820   23.8610   30.0660 H   0  0  0  0  0  0  0  0  0  0  0  0
   35.2480   26.0730   29.9070 H   0  0  0  0  0  0  0  0  0  0  0  0
   34.6680   25.9590   31.7050 H   0  0  0  0  0  0  0  0  0  0  0  0
   35.7730   23.4650   32.0000 O   0  0  0  0  0  0  0  0  0  0  0  0
   36.0500   22.1440   32.1130 C   0  0  0  0  0  0  0  0  0  0  0  0
   35.5150   21.2830   31.3860 O   0  0  0  0  0  0  0  0  0  0  0  0
   36.9860   21.9820   33.1370 N   0  0  0  0  0  0  0  0  0  0  0  0
   36.6610   21.8910   34.1040 H   0  0  0  0  0  0  0  0  0  0  0  0
   37.9110   21.9900   32.6220 H   0  0  0  0  0  0  0  0  0  0  0  0
   38.3700   24.5250   35.9860 C   0  0  0  0  0  0  0  0  0  0  0  0
   38.0350   24.2420   37.2660 C   0  0  0  0  0  0  0  0  0  0  0  0
   37.1420   24.7740   37.6340 H   0  0  0  0  0  0  0  0  0  0  0  0
   38.7500   23.3730   38.0210 C   0  0  0  0  0  3  0  0  0  0  0  0
   39.8440   22.7900   37.4080 C   0  0  0  0  0  3  0  0  0  0  0  0
   39.7800   23.5690   35.6790 S   0  0  0  0  0  0  0  0  0  0  0  0
  1  2  2  0  0  0  0
  1  6  1  0  0  0  0
  2  3  1  0  0  0  0
  3  8  1  0  0  0  0
  3  4  2  0  0  0  0
  5  4  1  0  0  0  0
  5 22  1  0  0  0  0
  6  5  2  0  0  0  0
  7  2  1  0  0  0  0
  9 12  1  6  0  0  0
  9  1  1  0  0  0  0
 10 13  1  6  0  0  0
 10  9  1  0  0  0  0
 10 16  1  0  0  0  0
 11 10  1  0  0  0  0
 11  9  1  0  0  0  0
 11 15  1  0  0  0  0
 14 11  1  0  0  0  0
 16 17  1  0  0  0  0
 17 19  1  0  0  0  0
 18 17  2  0  0  0  0
 19 20  1  0  0  0  0
 21 19  1  0  0  0  0
 22 23  2  0  0  0  0
 23 24  1  0  0  0  0
 23 25  1  0  0  0  0
 26 25  2  0  0  0  0
 27 22  1  0  0  0  0
 27 26  1  0  0  0  0
M  END
>  <minimizedAffinity>
-4.64605904

$$$$

 OpenBabel03272507203D

 27 29  0  0  1  0  0  0  0  0999 V2000
   34.4740   29.8920   33.2220 C   0  0  0  0  0  0  0  0  0  0  0  0
   34.7950   30.1130   31.8870 C   0  0  0  0  0  0  0  0  0  0  0  0
   35.9210   29.4390   31.4280 C   0  0  0  0  0  0  0  0  0  0  0  0
   36.6420   28.6240   32.2480 N   0  0  0  0  0  0  0  0  0  0  0  0
   36.2950   28.4340   33.5480 C   0  0  0  0  0  0  0  0  0  0  0  0
   35.1990   29.0750   34.0410 N   0  0  0  0  0  0  0  0  0  0  0  0
   34.2270   30.7500   31.2520 H   0  0  0  0  0  0  0  0  0  0  0  0
   36.2650   29.5360   30.4040 H   0  0  0  0  0  0  0  0  0  0  0  0
   33.2610   30.5940   33.7440 C   0  0  1  0  0  0  0  0  0  0  0  0
   33.2490   31.2410   35.0540 C   0  0  2  0  0  0  0  0  0  0  0  0
   33.4900   32.1170   33.8610 C   0  0  0  0  0  0  0  0  0  0  0  0
   32.3300   30.3240   33.1720 H   0  0  0  0  0  0  0  0  0  0  0  0
   32.2500   31.1830   35.5590 H   0  0  0  0  0  0  0  0  0  0  0  0
   32.6030   32.7580   33.6010 H   0  0  0  0  0  0  0  0  0  0  0  0
   34.4810   32.5260   33.6620 H   0  0  0  0  0  0  0  0  0  0  0  0
   34.3060   30.9610   35.9090 O   0  0  0  0  0  0  0  0  0  0  0  0
   35.2690   31.7770   36.4000 C   0  0  0  0  0  0  0  0  0  0  0  0
   36.3770   31.9160   35.8440 O   0  0  0  0  0  0  0  0  0  0  0  0
   34.7810   32.3730   37.5650 N   0  0  0  0  0  0  0  0  0  0  0  0
   34.8840   31.8840   38.4590 H   0  0  0  0  0  0  0  0  0  0  0  0
   34.3770   33.2880   37.2180 H   0  0  0  0  0  0  0  0  0  0  0  0
   37.1310   27.5590   34.2940 C   0  0  0  0  0  0  0  0  0  0  0  0
   37.8000   27.6570   35.4660 C   0  0  0  0  0  0  0  0  0  0  0  0
   37.6860   28.6270   35.9780 H   0  0  0  0  0  0  0  0  0  0  0  0
   38.5460   26.6370   35.9560 C   0  0  0  0  0  3  0  0  0  0  0  0
   38.5850   25.4870   35.1890 C   0  0  0  0  0  3  0  0  0  0  0  0
   37.4830   25.9640   33.7190 S   0  0  0  0  0  0  0  0  0  0  0  0
  1  9  1  0  0  0  0
  1  6  1  0  0  0  0
  2  1  2  0  0  0  0
  3  2  1  0  0  0  0
  3  4  2  0  0  0  0
  4  5  1  0  0  0  0
  5  6  2  0  0  0  0
  5 22  1  0  0  0  0
  7  2  1  0  0  0  0
  8  3  1  0  0  0  0
  9 12  1  6  0  0  0
  9 11  1  0  0  0  0
  9 10  1  0  0  0  0
 10 13  1  1  0  0  0
 10 16  1  0  0  0  0
 11 10  1  0  0  0  0
 14 11  1  0  0  0  0
 15 11  1  0  0  0  0
 16 17  1  0  0  0  0
 17 19  1  0  0  0  0
 18 17  2  0  0  0  0
 19 20  1  0  0  0  0
 21 19  1  0  0  0  0
 22 23  2  0  0  0  0
 23 25  1  0  0  0  0
 23 24  1  0  0  0  0
 26 25  2  0  0  0  0
 27 22  1  0  0  0  0
 27 26  1  0  0  0  0
M  END
>  <minimizedAffinity>
-4.58009911

$$$$

 OpenBabel03272507203D

 27 29  0  0  1  0  0  0  0  0999 V2000
   37.9250   24.2770   33.4380 C   0  0  0  0  0  0  0  0  0  0  0  0
   37.2530   25.1950   32.6380 C   0  0  0  0  0  0  0  0  0  0  0  0
   36.2730   24.6570   31.8110 C   0  0  0  0  0  0  0  0  0  0  0  0
   36.0090   23.3210   31.8040 N   0  0  0  0  0  0  0  0  0  0  0  0
   36.6880   22.4560   32.6010 C   0  0  0  0  0  0  0  0  0  0  0  0
   37.6580   22.9390   33.4280 N   0  0  0  0  0  0  0  0  0  0  0  0
   37.4640   26.2380   32.6490 H   0  0  0  0  0  0  0  0  0  0  0  0
   35.6850   25.2780   31.1450 H   0  0  0  0  0  0  0  0  0  0  0  0
   38.9780   24.8270   34.3470 C   0  0  1  0  0  0  0  0  0  0  0  0
   38.9270   24.6260   35.7940 C   0  0  2  0  0  0  0  0  0  0  0  0
   39.8050   23.7010   35.0060 C   0  0  0  0  0  0  0  0  0  0  0  0
   39.6090   25.6130   33.8470 H   0  0  0  0  0  0  0  0  0  0  0  0
   39.3400   25.4960   36.3690 H   0  0  0  0  0  0  0  0  0  0  0  0
   40.9010   23.9220   35.1330 H   0  0  0  0  0  0  0  0  0  0  0  0
   39.5180   22.6610   34.8470 H   0  0  0  0  0  0  0  0  0  0  0  0
   37.7400   24.1400   36.3250 O   0  0  0  0  0  0  0  0  0  0  0  0
   37.5260   23.1110   37.1790 C   0  0  0  0  0  0  0  0  0  0  0  0
   37.7360   23.2030   38.4060 O   0  0  0  0  0  0  0  0  0  0  0  0
   37.0600   22.0210   36.4400 N   0  0  0  0  0  0  0  0  0  0  0  0
   37.7340   21.3850   36.0050 H   0  0  0  0  0  0  0  0  0  0  0  0
   36.0070   22.1160   36.5090 H   0  0  0  0  0  0  0  0  0  0  0  0
   36.3140   21.0870   32.4980 C   0  0  0  0  0  0  0  0  0  0  0  0
   35.6620   20.2190   33.3040 C   0  0  0  0  0  0  0  0  0  0  0  0
   35.3350   20.6470   34.2670 H   0  0  0  0  0  0  0  0  0  0  0  0
   35.4370   18.9320   32.9430 C   0  0  0  0  0  3  0  0  0  0  0  0
   35.9140   18.5550   31.7010 C   0  0  0  0  0  3  0  0  0  0  0  0
   36.7050   20.1660   31.0840 S   0  0  0  0  0  0  0  0  0  0  0  0
  1  9  1  0  0  0  0
  2  7  1  0  0  0  0
  2  1  2  0  0  0  0
  3  2  1  0  0  0  0
  4  3  2  0  0  0  0
  4  5  1  0  0  0  0
  5  6  2  0  0  0  0
  6  1  1  0  0  0  0
  8  3  1  0  0  0  0
  9 12  1  6  0  0  0
  9 11  1  0  0  0  0
  9 10  1  0  0  0  0
 10 16  1  0  0  0  0
 10 13  1  1  0  0  0
 11 14  1  0  0  0  0
 11 10  1  0  0  0  0
 15 11  1  0  0  0  0
 16 17  1  0  0  0  0
 17 18  2  0  0  0  0
 19 21  1  0  0  0  0
 19 17  1  0  0  0  0
 20 19  1  0  0  0  0
 22  5  1  0  0  0  0
 22 23  2  0  0  0  0
 23 24  1  0  0  0  0
 25 23  1  0  0  0  0
 26 25  2  0  0  0  0
 27 26  1  0  0  0  0
 27 22  1  0  0  0  0
M  END
>  <minimizedAffinity>
-4.52785444

$$$$

 OpenBabel03272507203D

 27 29  0  0  1  0  0  0  0  0999 V2000
   37.5370   25.8150   31.6730 C   0  0  0  0  0  0  0  0  0  0  0  0
   36.4610   26.5670   31.2150 C   0  0  0  0  0  0  0  0  0  0  0  0
   35.2870   25.8540   30.9980 C   0  0  0  0  0  0  0  0  0  0  0  0
   35.2220   24.5140   31.2290 N   0  0  0  0  0  0  0  0  0  0  0  0
   36.2960   23.8140   31.6780 C   0  0  0  0  0  0  0  0  0  0  0  0
   37.4680   24.4710   31.9020 N   0  0  0  0  0  0  0  0  0  0  0  0
   36.5200   27.6150   31.0380 H   0  0  0  0  0  0  0  0  0  0  0  0
   34.3850   26.3370   30.6410 H   0  0  0  0  0  0  0  0  0  0  0  0
   38.8120   26.5550   31.9260 C   0  0  1  0  0  0  0  0  0  0  0  0
   39.1290   27.1200   33.2370 C   0  0  2  0  0  0  0  0  0  0  0  0
   39.7320   25.7890   32.9020 C   0  0  0  0  0  0  0  0  0  0  0  0
   39.3260   26.8620   30.9730 H   0  0  0  0  0  0  0  0  0  0  0  0
   39.7130   28.0740   33.1700 H   0  0  0  0  0  0  0  0  0  0  0  0
   40.8320   25.8510   32.6740 H   0  0  0  0  0  0  0  0  0  0  0  0
   39.3680   24.8780   33.3770 H   0  0  0  0  0  0  0  0  0  0  0  0
   38.0990   27.1790   34.1660 O   0  0  0  0  0  0  0  0  0  0  0  0
   38.0420   26.7030   35.4330 C   0  0  0  0  0  0  0  0  0  0  0  0
   37.5260   25.6020   35.7130 O   0  0  0  0  0  0  0  0  0  0  0  0
   38.6380   27.6420   36.2780 N   0  0  0  0  0  0  0  0  0  0  0  0
   38.0740   28.4110   36.6510 H   0  0  0  0  0  0  0  0  0  0  0  0
   39.6400   27.3050   36.3440 H   0  0  0  0  0  0  0  0  0  0  0  0
   36.0930   22.4200   31.8770 C   0  0  0  0  0  0  0  0  0  0  0  0
   35.3770   21.4660   31.2400 C   0  0  0  0  0  0  0  0  0  0  0  0
   34.8160   21.8250   30.3620 H   0  0  0  0  0  0  0  0  0  0  0  0
   35.3630   20.1770   31.6600 C   0  0  0  0  0  3  0  0  0  0  0  0
   36.1220   19.8920   32.7800 C   0  0  0  0  0  3  0  0  0  0  0  0
   36.8590   21.5920   33.1910 S   0  0  0  0  0  0  0  0  0  0  0  0
  1  6  1  0  0  0  0
  1  9  1  0  0  0  0
  2  1  2  0  0  0  0
  3  2  1  0  0  0  0
  3  4  2  0  0  0  0
  4  5  1  0  0  0  0
  5 22  1  0  0  0  0
  5  6  2  0  0  0  0
  7  2  1  0  0  0  0
  8  3  1  0  0  0  0
  9 12  1  6  0  0  0
  9 11  1  0  0  0  0
  9 10  1  0  0  0  0
 10 13  1  6  0  0  0
 10 16  1  0  0  0  0
 11 10  1  0  0  0  0
 11 15  1  0  0  0  0
 14 11  1  0  0  0  0
 16 17  1  0  0  0  0
 17 18  2  0  0  0  0
 17 19  1  0  0  0  0
 19 21  1  0  0  0  0
 19 20  1  0  0  0  0
 22 27  1  0  0  0  0
 23 25  1  0  0  0  0
 23 22  2  0  0  0  0
 24 23  1  0  0  0  0
 25 26  2  0  0  0  0
 26 27  1  0  0  0  0
M  END
>  <minimizedAffinity>
-4.49686861

$$$$

 OpenBabel03272507203D

 27 29  0  0  1  0  0  0  0  0999 V2000
   38.2140   25.0790   35.7430 C   0  0  0  0  0  0  0  0  0  0  0  0
   38.2220   26.3110   36.3880 C   0  0  0  0  0  0  0  0  0  0  0  0
   38.5570   27.3980   35.5870 C   0  0  0  0  0  0  0  0  0  0  0  0
   38.8510   27.2400   34.2670 N   0  0  0  0  0  0  0  0  0  0  0  0
   38.8320   26.0180   33.6730 C   0  0  0  0  0  0  0  0  0  0  0  0
   38.5100   24.9250   34.4190 N   0  0  0  0  0  0  0  0  0  0  0  0
   37.9910   26.4270   37.4190 H   0  0  0  0  0  0  0  0  0  0  0  0
   38.5950   28.4070   35.9830 H   0  0  0  0  0  0  0  0  0  0  0  0
   37.8470   23.8910   36.5750 C   0  0  1  0  0  0  0  0  0  0  0  0
   38.8620   23.0400   37.1920 C   0  0  2  0  0  0  0  0  0  0  0  0
   38.2340   24.0910   38.0560 C   0  0  0  0  0  0  0  0  0  0  0  0
   36.7750   23.5810   36.4290 H   0  0  0  0  0  0  0  0  0  0  0  0
   38.5540   21.9630   37.2430 H   0  0  0  0  0  0  0  0  0  0  0  0
   37.5070   23.6690   38.8040 H   0  0  0  0  0  0  0  0  0  0  0  0
   38.7950   24.9800   38.3490 H   0  0  0  0  0  0  0  0  0  0  0  0
   40.1730   23.2090   36.7690 O   0  0  0  0  0  0  0  0  0  0  0  0
   41.2830   22.4910   37.0650 C   0  0  0  0  0  0  0  0  0  0  0  0
   42.4160   22.8070   36.6510 O   0  0  0  0  0  0  0  0  0  0  0  0
   40.9020   21.4120   37.8660 N   0  0  0  0  0  0  0  0  0  0  0  0
   40.5840   20.5450   37.4220 H   0  0  0  0  0  0  0  0  0  0  0  0
   41.0460   21.7780   38.8480 H   0  0  0  0  0  0  0  0  0  0  0  0
   39.1580   25.9920   32.2890 C   0  0  0  0  0  0  0  0  0  0  0  0
   39.7970   26.8390   31.4500 C   0  0  0  0  0  0  0  0  0  0  0  0
   40.1590   27.7670   31.9240 H   0  0  0  0  0  0  0  0  0  0  0  0
   39.9720   26.5540   30.1360 C   0  0  0  0  0  3  0  0  0  0  0  0
   39.4570   25.3470   29.7010 C   0  0  0  0  0  3  0  0  0  0  0  0
   38.7070   24.6460   31.2970 S   0  0  0  0  0  0  0  0  0  0  0  0
  1  2  1  0  0  0  0
  1  9  1  0  0  0  0
  2  7  1  0  0  0  0
  3  8  1  0  0  0  0
  3  2  2  0  0  0  0
  4  3  1  0  0  0  0
  5  4  2  0  0  0  0
  5  6  1  0  0  0  0
  6  1  2  0  0  0  0
  9 12  1  6  0  0  0
  9 10  1  0  0  0  0
  9 11  1  0  0  0  0
 10 13  1  1  0  0  0
 10 11  1  0  0  0  0
 11 15  1  0  0  0  0
 11 14  1  0  0  0  0
 16 17  1  0  0  0  0
 16 10  1  0  0  0  0
 17 19  1  0  0  0  0
 18 17  2  0  0  0  0
 19 21  1  0  0  0  0
 20 19  1  0  0  0  0
 22  5  1  0  0  0  0
 23 24  1  0  0  0  0
 23 22  2  0  0  0  0
 25 23  1  0  0  0  0
 26 25  2  0  0  0  0
 26 27  1  0  0  0  0
 27 22  1  0  0  0  0
M  END
>  <minimizedAffinity>
-4.45489883

$$$$

 OpenBabel03272507203D

 27 29  0  0  1  0  0  0  0  0999 V2000
   38.6240   23.6120   34.4340 C   0  0  0  0  0  0  0  0  0  0  0  0
   39.2280   24.3510   33.4230 C   0  0  0  0  0  0  0  0  0  0  0  0
   38.8900   23.9730   32.1280 C   0  0  0  0  0  0  0  0  0  0  0  0
   38.0240   22.9490   31.8940 N   0  0  0  0  0  0  0  0  0  0  0  0
   37.4540   22.2500   32.9100 C   0  0  0  0  0  0  0  0  0  0  0  0
   37.7570   22.5850   34.1950 N   0  0  0  0  0  0  0  0  0  0  0  0
   39.9030   25.1510   33.6140 H   0  0  0  0  0  0  0  0  0  0  0  0
   39.3000   24.4790   31.2610 H   0  0  0  0  0  0  0  0  0  0  0  0
   38.9580   24.0010   35.8390 C   0  0  1  0  0  0  0  0  0  0  0  0
   38.2600   25.0860   36.5260 C   0  0  2  0  0  0  0  0  0  0  0  0
   37.7980   23.6890   36.8090 C   0  0  0  0  0  0  0  0  0  0  0  0
   39.9480   23.5840   36.1750 H   0  0  0  0  0  0  0  0  0  0  0  0
   38.9220   25.6510   37.2330 H   0  0  0  0  0  0  0  0  0  0  0  0
   38.1080   23.3220   37.8260 H   0  0  0  0  0  0  0  0  0  0  0  0
   36.8500   23.3240   36.4110 H   0  0  0  0  0  0  0  0  0  0  0  0
   37.4610   25.9160   35.7500 O   0  0  0  0  0  0  0  0  0  0  0  0
   37.6600   27.1970   35.3580 C   0  0  0  0  0  0  0  0  0  0  0  0
   37.0560   27.7030   34.3910 O   0  0  0  0  0  0  0  0  0  0  0  0
   38.6110   27.7690   36.2060 N   0  0  0  0  0  0  0  0  0  0  0  0
   39.6060   27.6570   35.9920 H   0  0  0  0  0  0  0  0  0  0  0  0
   38.0200   28.2350   36.9510 H   0  0  0  0  0  0  0  0  0  0  0  0
   36.5680   21.2050   32.5280 C   0  0  0  0  0  0  0  0  0  0  0  0
   35.2230   21.0590   32.5190 C   0  0  0  0  0  0  0  0  0  0  0  0
   34.6640   21.9370   32.8850 H   0  0  0  0  0  0  0  0  0  0  0  0
   34.6260   19.9190   32.0910 C   0  0  0  0  0  3  0  0  0  0  0  0
   35.4720   18.9120   31.6640 C   0  0  0  0  0  3  0  0  0  0  0  0
   37.1780   19.7050   31.9160 S   0  0  0  0  0  0  0  0  0  0  0  0
  1  9  1  0  0  0  0
  2  7  1  0  0  0  0
  2  1  2  0  0  0  0
  3  2  1  0  0  0  0
  4  3  2  0  0  0  0
  4  5  1  0  0  0  0
  5  6  2  0  0  0  0
  6  1  1  0  0  0  0
  8  3  1  0  0  0  0
  9 12  1  1  0  0  0
  9 10  1  0  0  0  0
  9 11  1  0  0  0  0
 10 11  1  0  0  0  0
 10 13  1  1  0  0  0
 11 14  1  0  0  0  0
 15 11  1  0  0  0  0
 16 10  1  0  0  0  0
 17 16  1  0  0  0  0
 17 19  1  0  0  0  0
 18 17  2  0  0  0  0
 19 21  1  0  0  0  0
 20 19  1  0  0  0  0
 22  5  1  0  0  0  0
 23 22  2  0  0  0  0
 23 24  1  0  0  0  0
 25 23  1  0  0  0  0
 26 27  1  0  0  0  0
 26 25  2  0  0  0  0
 27 22  1  0  0  0  0
M  END
>  <minimizedAffinity>
-4.45424032

$$$$
