
 OpenBabel03272507193D

 27 29  0  0  1  0  0  0  0  0999 V2000
   36.9690   31.3510   49.3140 C   0  0  0  0  0  0  0  0  0  0  0  0
   37.1570   32.5280   50.0300 C   0  0  0  0  0  0  0  0  0  0  0  0
   38.0640   33.4230   49.4730 C   0  0  0  0  0  0  0  0  0  0  0  0
   38.7080   33.1430   48.3060 N   0  0  0  0  0  0  0  0  0  0  0  0
   38.4960   31.9810   47.6350 C   0  0  0  0  0  0  0  0  0  0  0  0
   37.6170   31.0730   48.1450 N   0  0  0  0  0  0  0  0  0  0  0  0
   36.6500   32.7400   50.9400 H   0  0  0  0  0  0  0  0  0  0  0  0
   38.2890   34.3730   49.9440 H   0  0  0  0  0  0  0  0  0  0  0  0
   35.9910   30.3710   49.8820 C   0  0  1  0  0  0  0  0  0  0  0  0
   34.8580   29.8740   49.1030 C   0  0  2  0  0  0  0  0  0  0  0  0
   36.0770   29.0030   49.1690 C   0  0  0  0  0  0  0  0  0  0  0  0
   36.0590   30.2980   51.0030 H   0  0  0  0  0  0  0  0  0  0  0  0
   33.9510   29.6790   49.7320 H   0  0  0  0  0  0  0  0  0  0  0  0
   35.9390   28.1060   49.8350 H   0  0  0  0  0  0  0  0  0  0  0  0
   36.7280   28.8900   48.3020 H   0  0  0  0  0  0  0  0  0  0  0  0
   34.5660   30.5350   47.9180 O   0  0  0  0  0  0  0  0  0  0  0  0
   33.8790   30.1090   46.8310 C   0  0  0  0  0  0  0  0  0  0  0  0
   34.1680   29.0580   46.2240 O   0  0  0  0  0  0  0  0  0  0  0  0
   32.8650   31.0330   46.5670 N   0  0  0  0  0  0  0  0  0  0  0  0
   33.0710   31.8530   45.9890 H   0  0  0  0  0  0  0  0  0  0  0  0
   32.0310   30.6290   47.0800 H   0  0  0  0  0  0  0  0  0  0  0  0
   39.2310   31.8130   46.4290 C   0  0  0  0  0  0  0  0  0  0  0  0
   40.1840   32.5340   45.7930 C   0  0  0  0  0  0  0  0  0  0  0  0
   40.4720   33.4660   46.3060 H   0  0  0  0  0  0  0  0  0  0  0  0
   40.7300   32.1260   44.6210 C   0  0  0  0  0  3  0  0  0  0  0  0
   40.2570   30.9310   44.1110 C   0  0  0  0  0  3  0  0  0  0  0  0
   38.9800   30.4280   45.4220 S   0  0  0  0  0  0  0  0  0  0  0  0
  1  9  1  0  0  0  0
  1  2  1  0  0  0  0
  2  7  1  0  0  0  0
  3  8  1  0  0  0  0
  3  2  2  0  0  0  0
  4  3  1  0  0  0  0
  5  6  1  0  0  0  0
  5  4  2  0  0  0  0
  6  1  2  0  0  0  0
  9 12  1  1  0  0  0
 10 11  1  0  0  0  0
 10 13  1  1  0  0  0
 10  9  1  0  0  0  0
 11 14  1  0  0  0  0
 11  9  1  0  0  0  0
 15 11  1  0  0  0  0
 16 10  1  0  0  0  0
 17 16  1  0  0  0  0
 18 17  2  0  0  0  0
 19 17  1  0  0  0  0
 19 21  1  0  0  0  0
 20 19  1  0  0  0  0
 22  5  1  0  0  0  0
 23 24  1  0  0  0  0
 23 22  2  0  0  0  0
 25 23  1  0  0  0  0
 26 25  2  0  0  0  0
 26 27  1  0  0  0  0
 27 22  1  0  0  0  0
M  END
>  <minimizedAffinity>
-5.74400091

>  <minimizedRMSD>
2.74900317

$$$$
