
 OpenBabel03272500563D

 32 34  0  0  0  0  0  0  0  0999 V2000
   38.1210   31.8790   47.4180 C   0  0  0  0  0  0  0  0  0  0  0  0
   38.6210   32.7550   48.3360 C   0  0  0  0  0  0  0  0  0  0  0  0
   38.1310   32.8290   49.6460 C   0  0  0  0  0  0  0  0  0  0  0  0
   37.0540   31.9210   49.9970 C   0  0  0  0  0  0  0  0  0  0  0  0
   36.6010   31.0760   49.0420 C   0  0  0  0  0  0  0  0  0  0  0  0
   37.0790   31.0160   47.7850 C   0  0  0  0  0  0  0  0  0  0  0  0
   39.4380   33.4510   48.0930 H   0  0  0  0  0  0  0  0  0  0  0  0
   38.5720   33.5470   50.3250 H   0  0  0  0  0  0  0  0  0  0  0  0
   36.7860   32.0890   51.0160 H   0  0  0  0  0  0  0  0  0  0  0  0
   35.8370   30.4930   49.5310 H   0  0  0  0  0  0  0  0  0  0  0  0
   39.9990   31.2550   45.9780 C   0  0  0  0  0  0  0  0  0  0  0  0
   38.7450   31.9110   46.1140 C   0  0  0  0  0  0  0  0  0  0  0  0
   38.2740   32.4960   44.9650 C   0  0  0  0  0  0  0  0  0  0  0  0
   38.9770   32.4300   43.8160 N   0  0  0  0  0  0  0  0  0  0  0  0
   40.1320   31.8190   43.7140 C   0  0  0  0  0  0  0  0  0  0  0  0
   40.6420   31.2320   44.7940 N   0  0  0  0  0  0  0  0  0  0  0  0
   40.4330   30.7660   46.8600 H   0  0  0  0  0  0  0  0  0  0  0  0
   37.3090   32.9870   45.1220 H   0  0  0  0  0  0  0  0  0  0  0  0
   40.6050   31.8320   42.7390 H   0  0  0  0  0  0  0  0  0  0  0  0
   35.1140   30.0080   46.9730 C   0  0  0  0  0  0  0  0  0  0  0  0
   34.5080   30.6440   47.9250 O   0  0  0  0  0  0  0  0  0  0  0  0
   36.5560   30.1490   46.8570 N   0  0  0  0  0  0  0  0  0  0  0  0
   37.1140   29.6380   46.1400 H   0  0  0  0  0  0  0  0  0  0  0  0
   34.3830   29.2270   46.1180 O   0  0  0  0  0  0  0  0  0  0  0  0
   33.0960   29.5230   45.6830 C   0  0  0  0  0  0  0  0  0  0  0  0
   32.8220   30.6180   45.0110 O   0  0  0  0  0  0  0  0  0  0  0  0
   31.9230   28.6570   45.8980 C   0  0  0  0  0  0  0  0  0  0  0  0
   31.0100   28.6550   46.8670 C   0  0  0  0  0  0  0  0  0  0  0  0
   31.0960   29.3890   47.6550 H   0  0  0  0  0  0  0  0  0  0  0  0
   29.9890   27.7420   46.8630 C   0  0  0  0  0  3  0  0  0  0  0  0
   30.0010   26.8270   45.7560 C   0  0  0  0  0  3  0  0  0  0  0  0
   31.5370   27.3910   44.7950 S   0  0  0  0  0  0  0  0  0  0  0  0
  1  6  2  0  0  0  0
  1  2  1  0  0  0  0
  2  3  2  0  0  0  0
  3  4  1  0  0  0  0
  3  8  1  0  0  0  0
  4  9  1  0  0  0  0
  5 10  1  0  0  0  0
  5  4  2  0  0  0  0
  6  5  1  0  0  0  0
  7  2  1  0  0  0  0
 11 12  1  0  0  0  0
 11 17  1  0  0  0  0
 12  1  1  0  0  0  0
 13 18  1  0  0  0  0
 13 12  2  0  0  0  0
 14 13  1  0  0  0  0
 15 14  2  0  0  0  0
 15 16  1  0  0  0  0
 16 11  2  0  0  0  0
 19 15  1  0  0  0  0
 20 21  2  0  0  0  0
 22 20  1  0  0  0  0
 22  6  1  0  0  0  0
 23 22  1  0  0  0  0
 24 20  1  0  0  0  0
 25 27  1  0  0  0  0
 25 24  1  0  0  0  0
 26 25  2  0  0  0  0
 27 28  2  0  0  0  0
 28 29  1  0  0  0  0
 30 28  1  0  0  0  0
 31 30  2  0  0  0  0
 32 31  1  0  0  0  0
 32 27  1  0  0  0  0
M  END
>  <minimizedAffinity>
-5.32994318

>  <minimizedRMSD>
0.580577433

$$$$
