REMARK  Name = 
REMARK  5 active torsions:
REMARK  status: ('A' for Active; 'I' for Inactive)
REMARK    1  A    between atoms: C_1  and  C_8
REMARK    2  A    between atoms: C_6  and  N_15
REMARK    3  A    between atoms: C_13  and  O_16
REMARK    4  A    between atoms: O_16  and  C_17
REMARK    5  A    between atoms: C_17  and  C_27
REMARK                            x       y       z     vdW  Elec       q    Type
REMARK                         _______ _______ _______ _____ _____    ______ ____
ROOT
ATOM      1  C   UNL     1      38.115  31.886  47.416  0.00  0.00    +0.000 A 
ATOM      2  C   UNL     1      38.585  32.789  48.324  0.00  0.00    +0.000 A 
ATOM      3  C   UNL     1      38.084  32.870  49.629  0.00  0.00    +0.000 A 
ATOM      4  C   UNL     1      37.029  31.939  49.987  0.00  0.00    +0.000 A 
ATOM      5  C   UNL     1      36.606  31.068  49.043  0.00  0.00    +0.000 A 
ATOM      6  C   UNL     1      37.094  31.001  47.790  0.00  0.00    +0.000 A 
ATOM      7  H   UNL     1      39.385  33.503  48.075  0.00  0.00    +0.000 HD
ATOM      8  H   UNL     1      38.501  33.610  50.300  0.00  0.00    +0.000 HD
ATOM      9  H   UNL     1      36.750  32.116  51.002  0.00  0.00    +0.000 HD
ATOM     10  H   UNL     1      35.855  30.472  49.536  0.00  0.00    +0.000 HD
ENDROOT
BRANCH   1  12
ATOM     11  C   UNL     1      40.003  31.260  45.990  0.00  0.00    +0.000 A 
ATOM     12  C   UNL     1      38.747  31.914  46.116  0.00  0.00    +0.000 A 
ATOM     13  C   UNL     1      38.282  32.494  44.962  0.00  0.00    +0.000 A 
ATOM     14  N   UNL     1      38.993  32.426  43.818  0.00  0.00    +0.000 NA
ATOM     15  C   UNL     1      40.149  31.817  43.725  0.00  0.00    +0.000 A 
ATOM     16  N   UNL     1      40.654  31.234  44.810  0.00  0.00    +0.000 NA
ATOM     17  H   UNL     1      40.433  30.775  46.877  0.00  0.00    +0.000 HD
ATOM     18  H   UNL     1      37.315  32.984  45.111  0.00  0.00    +0.000 HD
ATOM     19  H   UNL     1      40.628  31.827  42.753  0.00  0.00    +0.000 HD
ENDBRANCH   1  12
BRANCH   6  22
ATOM     20  C   UNL     1      35.156  29.970  46.944  0.00  0.00    +0.000 C 
ATOM     21  O   UNL     1      34.519  30.636  47.854  0.00  0.00    +0.000 OA
ATOM     22  N   UNL     1      36.601  30.106  46.872  0.00  0.00    +0.000 N 
ATOM     23  H   UNL     1      37.182  29.572  46.191  0.00  0.00    +0.000 HD
BRANCH  20  24
ATOM     24  O   UNL     1      34.453  29.163  46.089  0.00  0.00    +0.000 OA
BRANCH  24  25
ATOM     25  C   UNL     1      33.368  29.578  45.325  0.00  0.00    +0.000 C 
ATOM     26  O   UNL     1      33.370  30.720  44.674  0.00  0.00    +0.000 OA
BRANCH  25  27
ATOM     27  C   UNL     1      32.131  28.799  45.139  0.00  0.00    +0.000 A 
ATOM     28  C   UNL     1      31.371  28.150  46.020  0.00  0.00    +0.000 A 
ATOM     29  H   UNL     1      31.665  28.164  47.061  0.00  0.00    +0.000 HD
ATOM     30  C   UNL     1      30.246  27.483  45.614  0.00  0.00    +0.000 A 
ATOM     31  C   UNL     1      29.979  27.549  44.205  0.00  0.00    +0.000 A 
ATOM     32  S   UNL     1      31.428  28.605  43.579  0.00  0.00    +0.000 S 
ENDBRANCH  25  27
ENDBRANCH  24  25
ENDBRANCH  20  24
ENDBRANCH   6  22
TORSDOF 5
