
 OpenBabel03272500563D

 32 34  0  0  0  0  0  0  0  0999 V2000
   38.1140   31.8900   47.4180 C   0  0  0  0  0  0  0  0  0  0  0  0
   38.6020   32.7880   48.3210 C   0  0  0  0  0  0  0  0  0  0  0  0
   38.1140   32.8760   49.6310 C   0  0  0  0  0  0  0  0  0  0  0  0
   37.0520   31.9570   49.9990 C   0  0  0  0  0  0  0  0  0  0  0  0
   36.6100   31.0910   49.0590 C   0  0  0  0  0  0  0  0  0  0  0  0
   37.0860   31.0170   47.8020 C   0  0  0  0  0  0  0  0  0  0  0  0
   39.4080   33.4930   48.0650 H   0  0  0  0  0  0  0  0  0  0  0  0
   38.5460   33.6110   50.2980 H   0  0  0  0  0  0  0  0  0  0  0  0
   36.7840   32.1380   51.0160 H   0  0  0  0  0  0  0  0  0  0  0  0
   35.8570   30.5040   49.5590 H   0  0  0  0  0  0  0  0  0  0  0  0
   39.9820   31.2420   45.9760 C   0  0  0  0  0  0  0  0  0  0  0  0
   38.7350   31.9100   46.1130 C   0  0  0  0  0  0  0  0  0  0  0  0
   38.2660   32.4950   44.9620 C   0  0  0  0  0  0  0  0  0  0  0  0
   38.9660   32.4180   43.8120 N   0  0  0  0  0  0  0  0  0  0  0  0
   40.1140   31.7960   43.7090 C   0  0  0  0  0  0  0  0  0  0  0  0
   40.6220   31.2080   44.7900 N   0  0  0  0  0  0  0  0  0  0  0  0
   40.4140   30.7530   46.8590 H   0  0  0  0  0  0  0  0  0  0  0  0
   37.3060   32.9960   45.1200 H   0  0  0  0  0  0  0  0  0  0  0  0
   40.5850   31.8000   42.7330 H   0  0  0  0  0  0  0  0  0  0  0  0
   35.1290   30.0110   46.9710 C   0  0  0  0  0  0  0  0  0  0  0  0
   34.5070   30.6870   47.8850 O   0  0  0  0  0  0  0  0  0  0  0  0
   36.5750   30.1280   46.8890 N   0  0  0  0  0  0  0  0  0  0  0  0
   37.1440   29.5850   46.2040 H   0  0  0  0  0  0  0  0  0  0  0  0
   34.4090   29.2120   46.1220 O   0  0  0  0  0  0  0  0  0  0  0  0
   33.3260   29.6410   45.3630 C   0  0  0  0  0  0  0  0  0  0  0  0
   33.3480   30.7750   44.6970 O   0  0  0  0  0  0  0  0  0  0  0  0
   32.0710   28.8880   45.1980 C   0  0  0  0  0  0  0  0  0  0  0  0
   31.0880   29.0190   44.3090 C   0  0  0  0  0  0  0  0  0  0  0  0
   31.1750   29.7910   43.5580 H   0  0  0  0  0  0  0  0  0  0  0  0
   29.9970   28.1910   44.3480 C   0  0  0  0  0  3  0  0  0  0  0  0
   30.0180   27.2120   45.3970 C   0  0  0  0  0  3  0  0  0  0  0  0
   31.6660   27.5900   46.2590 S   0  0  0  0  0  0  0  0  0  0  0  0
  1  6  2  0  0  0  0
  1  2  1  0  0  0  0
  2  3  2  0  0  0  0
  3  4  1  0  0  0  0
  3  8  1  0  0  0  0
  4  9  1  0  0  0  0
  5 10  1  0  0  0  0
  5  4  2  0  0  0  0
  6  5  1  0  0  0  0
  7  2  1  0  0  0  0
 11 12  1  0  0  0  0
 11 17  1  0  0  0  0
 12  1  1  0  0  0  0
 13 18  1  0  0  0  0
 13 12  2  0  0  0  0
 14 13  1  0  0  0  0
 15 14  2  0  0  0  0
 15 16  1  0  0  0  0
 16 11  2  0  0  0  0
 19 15  1  0  0  0  0
 20 21  2  0  0  0  0
 22 20  1  0  0  0  0
 22  6  1  0  0  0  0
 23 22  1  0  0  0  0
 24 20  1  0  0  0  0
 25 24  1  0  0  0  0
 26 25  2  0  0  0  0
 27 25  1  0  0  0  0
 27 32  1  0  0  0  0
 28 30  1  0  0  0  0
 28 27  2  0  0  0  0
 29 28  1  0  0  0  0
 30 31  2  0  0  0  0
 31 32  1  0  0  0  0
M  END
>  <minimizedAffinity>
-5.14105463

>  <minimizedRMSD>
0.0834522098

$$$$
