
     RDKit          3D

 34 36  0  0  0  0  0  0  0  0999 V2000
   38.1146   31.8858   47.4156 C   0  0  0  0  0  0  0  0  0  0  0  0
   38.5852   32.7894   48.3235 C   0  0  0  0  0  0  0  0  0  0  0  0
   38.0844   32.8696   49.6293 C   0  0  0  0  0  0  0  0  0  0  0  0
   37.0291   31.9394   49.9867 C   0  0  0  0  0  0  0  0  0  0  0  0
   36.6061   31.0676   49.0428 C   0  0  0  0  0  0  0  0  0  0  0  0
   37.0937   31.0012   47.7902 C   0  0  0  0  0  0  0  0  0  0  0  0
   40.0027   31.2602   45.9899 C   0  0  0  0  0  0  0  0  0  0  0  0
   38.7468   31.9144   46.1161 C   0  0  0  0  0  0  0  0  0  0  0  0
   38.2825   32.4943   44.9616 C   0  0  0  0  0  0  0  0  0  0  0  0
   38.9927   32.4258   43.8184 N   0  0  0  0  0  0  0  0  0  0  0  0
   40.1489   31.8168   43.7250 C   0  0  0  0  0  0  0  0  0  0  0  0
   40.6545   31.2340   44.8101 N   0  0  0  0  0  0  0  0  0  0  0  0
   35.1563   29.9698   46.9445 C   0  0  0  0  0  0  0  0  0  0  0  0
   34.5193   30.6356   47.8537 O   0  0  0  0  0  0  0  0  0  0  0  0
   36.6007   30.1063   46.8723 N   0  0  0  0  0  0  0  0  0  0  0  0
   34.4533   29.1630   46.0887 O   0  0  0  0  0  0  0  0  0  0  0  0
   33.3685   29.5776   45.3252 C   0  0  0  0  0  0  0  0  0  0  0  0
   33.3696   30.7201   44.6744 O   0  0  0  0  0  0  0  0  0  0  0  0
   39.3847   33.5032   48.0746 H   0  0  0  0  0  0  0  0  0  0  0  0
   38.5011   33.6096   50.3000 H   0  0  0  0  0  0  0  0  0  0  0  0
   36.7501   32.1163   51.0021 H   0  0  0  0  0  0  0  0  0  0  0  0
   35.8548   30.4722   49.5357 H   0  0  0  0  0  0  0  0  0  0  0  0
   40.4326   30.7747   46.8775 H   0  0  0  0  0  0  0  0  0  0  0  0
   37.3146   32.9842   45.1107 H   0  0  0  0  0  0  0  0  0  0  0  0
   40.6282   31.8266   42.7528 H   0  0  0  0  0  0  0  0  0  0  0  0
   37.1818   29.5715   46.1907 H   0  0  0  0  0  0  0  0  0  0  0  0
   32.1309   28.7987   45.1395 C   0  0  0  0  0  0  0  0  0  0  0  0
   31.2876   28.7379   44.1102 C   0  0  0  0  0  0  0  0  0  0  0  0
   31.4979   29.3407   43.2379 H   0  0  0  0  0  0  0  0  0  0  0  0
   30.1827   27.9303   44.1600 C   0  0  0  0  0  0  0  0  0  0  0  0
   30.0306   27.1880   45.3794 C   0  0  0  0  0  0  0  0  0  0  0  0
   31.5496   27.7455   46.3729 S   0  0  0  0  0  0  0  0  0  0  0  0
   29.4453   27.8145   43.3803 H   0  0  0  0  0  0  0  0  0  0  0  0
   29.1627   26.4843   45.5515 H   0  0  0  0  0  0  0  0  0  0  0  0
  1  6  1  0
  1  2  2  0
  2  3  1  0
  3  4  2  0
  5  4  1  0
  6  5  2  0
  7  8  2  0
  8  1  1  0
  9  8  1  0
 10  9  2  0
 11 10  1  0
 11 12  2  0
 12  7  1  0
 13 14  2  0
 15 13  1  0
 15  6  1  0
 16 13  1  0
 17 16  1  0
 18 17  2  0
  2 19  1  0
  3 20  1  0
  4 21  1  0
  5 22  1  0
  7 23  1  0
  9 24  1  0
 11 25  1  0
 15 26  1  0
 27 28  2  0
 28 29  1  0
 28 30  1  0
 30 31  2  0
 31 32  1  0
 32 27  1  0
 30 33  1  0
 31 34  1  0
 17 27  1  0
M  ISO  8  19  14  20  14  21  14  22  14  23  14  24  14  25  14  29  15
M  END
>  <DihAtoms>  (1) 
15,16,26,27

>  <DihDeg>  (1) 
0.9873612323638472

$$$$
