
 OpenBabel03272508153D

 27 29  0  0  0  0  0  0  0  0999 V2000
   35.3270   31.5260   43.2720 Cl  0  0  0  0  0  0  0  0  0  0  0  0
   36.2580   30.3490   42.4020 C   0  0  0  0  0  0  0  0  0  0  0  0
   35.5470   29.2390   42.0450 C   0  0  0  0  0  0  0  0  0  0  0  0
   36.2050   28.2330   41.3170 C   0  0  0  0  0  0  0  0  0  0  0  0
   37.5200   28.3450   40.9700 C   0  0  0  0  0  0  0  0  0  0  0  0
   38.2110   29.4830   41.3490 C   0  0  0  0  0  0  0  0  0  0  0  0
   39.8980   29.6550   40.9010 Cl  0  0  0  0  0  0  0  0  0  0  0  0
   37.5690   30.4650   42.0600 C   0  0  0  0  0  0  0  0  0  0  0  0
   35.7350   27.3190   40.9860 H   0  0  0  0  0  0  0  0  0  0  0  0
   38.0640   27.5860   40.4050 H   0  0  0  0  0  0  0  0  0  0  0  0
   33.8980   27.8160   43.2100 C   0  0  0  0  0  0  0  0  0  0  0  0
   34.1450   28.8950   42.3100 C   0  0  0  0  0  0  0  0  0  0  0  0
   33.0570   29.5340   41.7560 C   0  0  0  0  0  0  0  0  0  0  0  0
   31.8120   29.1000   42.0970 N   0  0  0  0  0  0  0  0  0  0  0  0
   31.6110   28.0830   42.9460 C   0  0  0  0  0  0  0  0  0  0  0  0
   32.6520   27.4390   43.5040 N   0  0  0  0  0  0  0  0  0  0  0  0
   34.7720   27.3240   43.6390 H   0  0  0  0  0  0  0  0  0  0  0  0
   33.2520   30.3530   41.0740 H   0  0  0  0  0  0  0  0  0  0  0  0
   30.5780   27.8270   43.1410 H   0  0  0  0  0  0  0  0  0  0  0  0
   38.2790   31.6600   42.4970 C   0  0  0  0  0  0  0  0  0  0  0  0
   38.5220   32.7050   41.8170 O   0  0  0  0  0  0  0  0  0  0  0  0
   38.8110   31.7340   43.8820 C   0  0  0  0  0  0  0  0  0  0  0  0
   38.9770   32.7910   44.6880 C   0  0  0  0  0  0  0  0  0  0  0  0
   38.6850   33.8050   44.3660 H   0  0  0  0  0  0  0  0  0  0  0  0
   39.5060   32.6560   45.9150 C   0  0  0  0  0  3  0  0  0  0  0  0
   39.8650   31.3600   46.2920 C   0  0  0  0  0  3  0  0  0  0  0  0
   39.3980   30.3300   44.7700 S   0  0  0  0  0  0  0  0  0  0  0  0
  2  1  1  0  0  0  0
  3 12  1  0  0  0  0
  3  2  2  0  0  0  0
  4  3  1  0  0  0  0
  5  4  2  0  0  0  0
  5  6  1  0  0  0  0
  6  8  2  0  0  0  0
  7  6  1  0  0  0  0
  8  2  1  0  0  0  0
  8 20  1  0  0  0  0
  9  4  1  0  0  0  0
 10  5  1  0  0  0  0
 11 16  1  0  0  0  0
 11 17  1  0  0  0  0
 12 11  2  0  0  0  0
 13 14  2  0  0  0  0
 13 12  1  0  0  0  0
 14 15  1  0  0  0  0
 15 19  1  0  0  0  0
 15 16  2  0  0  0  0
 18 13  1  0  0  0  0
 20 22  1  0  0  0  0
 21 20  2  0  0  0  0
 22 23  2  0  0  0  0
 22 27  1  0  0  0  0
 23 25  1  0  0  0  0
 24 23  1  0  0  0  0
 25 26  2  0  0  0  0
 27 26  1  0  0  0  0
M  END
>  <minimizedAffinity>
-2.56629109

>  <minimizedRMSD>
6.40771818

$$$$
