
 OpenBabel03272500543D

 29 31  0  0  0  0  0  0  0  0999 V2000
   37.0750   31.5160   43.0760 C   0  0  0  0  0  0  0  0  0  0  0  0
   37.3530   31.2360   41.7410 C   0  0  0  0  0  0  0  0  0  0  0  0
   38.4670   31.7420   41.0930 C   0  0  0  0  0  0  0  0  0  0  0  0
   39.3590   32.5800   41.8100 C   0  0  0  0  0  0  0  0  0  0  0  0
   39.0510   32.8320   43.1200 C   0  0  0  0  0  0  0  0  0  0  0  0
   37.9610   32.3350   43.7640 C   0  0  0  0  0  0  0  0  0  0  0  0
   36.6780   30.5910   41.1640 H   0  0  0  0  0  0  0  0  0  0  0  0
   38.5970   31.4580   40.0370 H   0  0  0  0  0  0  0  0  0  0  0  0
   40.1580   32.8870   41.1790 H   0  0  0  0  0  0  0  0  0  0  0  0
   39.8130   33.5110   43.4410 H   0  0  0  0  0  0  0  0  0  0  0  0
   35.9550   29.7590   44.3080 C   0  0  0  0  0  0  0  0  0  0  0  0
   35.8370   30.9580   43.5860 C   0  0  0  0  0  0  0  0  0  0  0  0
   34.5460   31.4800   43.4360 C   0  0  0  0  0  0  0  0  0  0  0  0
   33.4980   30.8360   43.9710 N   0  0  0  0  0  0  0  0  0  0  0  0
   33.6200   29.6940   44.6560 C   0  0  0  0  0  0  0  0  0  0  0  0
   34.8490   29.1700   44.8160 N   0  0  0  0  0  0  0  0  0  0  0  0
   36.8610   29.2180   44.5210 H   0  0  0  0  0  0  0  0  0  0  0  0
   34.5060   32.4090   42.8700 H   0  0  0  0  0  0  0  0  0  0  0  0
   32.7170   29.2640   45.0400 H   0  0  0  0  0  0  0  0  0  0  0  0
   38.5020   31.7430   45.9590 C   0  0  0  0  0  0  0  0  0  0  0  0
   39.2560   30.8780   45.4360 O   0  0  0  0  0  0  0  0  0  0  0  0
   37.6780   32.5720   45.1140 N   0  0  0  0  0  0  0  0  0  0  0  0
   36.9820   33.2450   45.4540 H   0  0  0  0  0  0  0  0  0  0  0  0
   38.4260   31.9470   47.4260 C   0  0  0  0  0  0  0  0  0  0  0  0
   38.7340   32.8420   48.3120 C   0  0  0  0  0  0  0  0  0  0  0  0
   39.1810   33.7080   47.8450 H   0  0  0  0  0  0  0  0  0  0  0  0
   38.4830   32.6240   49.6380 C   0  0  0  0  0  3  0  0  0  0  0  0
   37.8750   31.3660   49.9540 C   0  0  0  0  0  3  0  0  0  0  0  0
   37.7100   30.5800   48.2540 S   0  0  0  0  0  0  0  0  0  0  0  0
  1 12  1  0  0  0  0
  1  6  1  0  0  0  0
  2  1  2  0  0  0  0
  3  2  1  0  0  0  0
  3  4  2  0  0  0  0
  4  5  1  0  0  0  0
  5 10  1  0  0  0  0
  5  6  2  0  0  0  0
  6 22  1  0  0  0  0
  7  2  1  0  0  0  0
  8  3  1  0  0  0  0
  9  4  1  0  0  0  0
 11 17  1  0  0  0  0
 11 16  1  0  0  0  0
 12 11  2  0  0  0  0
 13 12  1  0  0  0  0
 13 14  2  0  0  0  0
 14 15  1  0  0  0  0
 15 16  2  0  0  0  0
 15 19  1  0  0  0  0
 18 13  1  0  0  0  0
 20 24  1  0  0  0  0
 21 20  2  0  0  0  0
 22 23  1  0  0  0  0
 22 20  1  0  0  0  0
 24 29  1  0  0  0  0
 24 25  2  0  0  0  0
 25 27  1  0  0  0  0
 26 25  1  0  0  0  0
 27 28  2  0  0  0  0
 29 28  1  0  0  0  0
M  END
>  <minimizedAffinity>
-4.65015173

>  <minimizedRMSD>
5.11535215

$$$$
