
     RDKit          3D

 31 33  0  0  0  0  0  0  0  0999 V2000
   38.1120   31.1900   47.8941 C   0  0  0  0  0  0  0  0  0  0  0  0
   38.4054   30.3811   46.7989 C   0  0  0  0  0  0  0  0  0  0  0  0
   39.1906   30.8146   45.7454 C   0  0  0  0  0  0  0  0  0  0  0  0
   39.7174   32.1323   45.7761 C   0  0  0  0  0  0  0  0  0  0  0  0
   39.4068   32.8956   46.8686 C   0  0  0  0  0  0  0  0  0  0  0  0
   38.6392   32.4747   47.9101 C   0  0  0  0  0  0  0  0  0  0  0  0
   37.8499   29.9737   49.9710 C   0  0  0  0  0  0  0  0  0  0  0  0
   37.2264   30.6050   48.8823 C   0  0  0  0  0  0  0  0  0  0  0  0
   35.8246   30.5999   48.8678 C   0  0  0  0  0  0  0  0  0  0  0  0
   35.1480   30.0100   49.8637 N   0  0  0  0  0  0  0  0  0  0  0  0
   35.7512   29.4114   50.8958 C   0  0  0  0  0  0  0  0  0  0  0  0
   37.0956   29.4011   50.9360 N   0  0  0  0  0  0  0  0  0  0  0  0
   39.3665   34.2731   49.2128 C   0  0  0  0  0  0  0  0  0  0  0  0
   40.3750   34.2873   48.4551 O   0  0  0  0  0  0  0  0  0  0  0  0
   38.3604   33.2545   49.0382 N   0  0  0  0  0  0  0  0  0  0  0  0
   38.0087   29.3592   46.7513 H   0  0  0  0  0  0  0  0  0  0  0  0
   39.3638   30.0968   44.9289 H   0  0  0  0  0  0  0  0  0  0  0  0
   40.2944   32.3148   44.9010 H   0  0  0  0  0  0  0  0  0  0  0  0
   39.8551   33.8448   46.6601 H   0  0  0  0  0  0  0  0  0  0  0  0
   38.9085   29.8817   50.1460 H   0  0  0  0  0  0  0  0  0  0  0  0
   35.3882   31.1009   48.0050 H   0  0  0  0  0  0  0  0  0  0  0  0
   35.1145   28.9711   51.6369 H   0  0  0  0  0  0  0  0  0  0  0  0
   37.5498   33.1211   49.6531 H   0  0  0  0  0  0  0  0  0  0  0  0
   39.1693   35.2732   50.2903 C   0  0  0  0  0  0  0  0  0  0  0  0
   38.8290   36.5158   50.4289 C   0  0  0  0  0  0  0  0  0  0  0  0
   38.6240   36.9679   49.4686 H   0  0  0  0  0  0  0  0  0  0  0  0
   38.7673   37.0863   51.6695 C   0  0  0  0  0  0  0  0  0  0  0  0
   39.0990   36.2244   52.7639 C   0  0  0  0  0  0  0  0  0  0  0  0
   39.4844   34.6106   51.8806 S   0  0  0  0  0  0  0  0  0  0  0  0
   38.4710   38.1444   51.7068 H   0  0  0  0  0  0  0  0  0  0  0  0
   38.9985   36.8833   53.8320 H   0  0  0  0  0  0  0  0  0  0  0  0
  1  6  1  0
  1  8  1  0
  2  1  2  0
  3  4  2  0
  3  2  1  0
  4  5  1  0
  5  6  2  0
  6 15  1  0
  7 12  2  0
  8  9  2  0
  8  7  1  0
  9 10  1  0
 10 11  2  0
 11 12  1  0
 14 13  2  0
 15 13  1  0
  2 16  1  0
  3 17  1  0
  4 18  1  0
  5 19  1  0
  7 20  1  0
  9 21  1  0
 11 22  1  0
 15 23  1  0
 24 25  2  0
 25 26  1  0
 25 27  1  0
 27 28  2  0
 28 29  1  0
 29 24  1  0
 27 30  1  0
 28 31  1  0
 13 24  1  0
M  ISO  8  16  14  17  14  18  14  19  14  20  14  21  14  22  14  26  15
M  END
>  <DihAtoms>  (1) 
13,12,23,24

>  <DihDeg>  (1) 
179.95250836784172

$$$$
