REMARK  Name = 
REMARK  3 active torsions:
REMARK  status: ('A' for Active; 'I' for Inactive)
REMARK    1  A    between atoms: C_1  and  C_8
REMARK    2  A    between atoms: C_6  and  N_15
REMARK    3  A    between atoms: C_13  and  C_24
REMARK                            x       y       z     vdW  Elec       q    Type
REMARK                         _______ _______ _______ _____ _____    ______ ____
ROOT
ATOM      1  C   UNL     1      38.112  31.190  47.894  0.00  0.00    +0.000 A 
ATOM      2  C   UNL     1      38.405  30.381  46.799  0.00  0.00    +0.000 A 
ATOM      3  C   UNL     1      39.191  30.815  45.745  0.00  0.00    +0.000 A 
ATOM      4  C   UNL     1      39.717  32.132  45.776  0.00  0.00    +0.000 A 
ATOM      5  C   UNL     1      39.407  32.896  46.869  0.00  0.00    +0.000 A 
ATOM      6  C   UNL     1      38.639  32.475  47.910  0.00  0.00    +0.000 A 
ATOM      7  H   UNL     1      38.009  29.359  46.751  0.00  0.00    +0.000 HD
ATOM      8  H   UNL     1      39.364  30.097  44.929  0.00  0.00    +0.000 HD
ATOM      9  H   UNL     1      40.294  32.315  44.901  0.00  0.00    +0.000 HD
ATOM     10  H   UNL     1      39.855  33.845  46.660  0.00  0.00    +0.000 HD
ENDROOT
BRANCH   1  12
ATOM     11  C   UNL     1      37.850  29.974  49.971  0.00  0.00    +0.000 A 
ATOM     12  C   UNL     1      37.226  30.605  48.882  0.00  0.00    +0.000 A 
ATOM     13  C   UNL     1      35.825  30.600  48.868  0.00  0.00    +0.000 A 
ATOM     14  N   UNL     1      35.148  30.010  49.864  0.00  0.00    +0.000 NA
ATOM     15  C   UNL     1      35.751  29.411  50.896  0.00  0.00    +0.000 A 
ATOM     16  N   UNL     1      37.096  29.401  50.936  0.00  0.00    +0.000 NA
ATOM     17  H   UNL     1      38.908  29.882  50.146  0.00  0.00    +0.000 HD
ATOM     18  H   UNL     1      35.388  31.101  48.005  0.00  0.00    +0.000 HD
ATOM     19  H   UNL     1      35.114  28.971  51.637  0.00  0.00    +0.000 HD
ENDBRANCH   1  12
BRANCH   6  22
ATOM     20  C   UNL     1      39.367  34.273  49.213  0.00  0.00    +0.000 C 
ATOM     21  O   UNL     1      40.375  34.287  48.455  0.00  0.00    +0.000 OA
ATOM     22  N   UNL     1      38.360  33.255  49.038  0.00  0.00    +0.000 N 
ATOM     23  H   UNL     1      37.550  33.121  49.653  0.00  0.00    +0.000 HD
BRANCH  20  24
ATOM     24  C   UNL     1      39.169  35.273  50.290  0.00  0.00    +0.000 A 
ATOM     25  C   UNL     1      39.463  36.508  50.552  0.00  0.00    +0.000 A 
ATOM     26  H   UNL     1      40.022  36.951  49.740  0.00  0.00    +0.000 HD
ATOM     27  C   UNL     1      39.070  37.082  51.729  0.00  0.00    +0.000 A 
ATOM     28  C   UNL     1      38.334  36.233  52.616  0.00  0.00    +0.000 A 
ATOM     29  S   UNL     1      38.268  34.625  51.645  0.00  0.00    +0.000 S 
ENDBRANCH  20  24
ENDBRANCH   6  22
TORSDOF 3
