REMARK  Name = 
REMARK  3 active torsions:
REMARK  status: ('A' for Active; 'I' for Inactive)
REMARK    1  A    between atoms: C_1  and  C_8
REMARK    2  A    between atoms: C_3  and  N_12
REMARK    3  A    between atoms: C_10  and  C_21
REMARK                            x       y       z     vdW  Elec       q    Type
REMARK                         _______ _______ _______ _____ _____    ______ ____
ROOT
ATOM      1  C   UNL     1      38.371  30.585  47.094  0.00  0.00    +0.000 C 
ATOM      2  C   UNL     1      36.978  30.534  47.519  0.00  0.00    +0.000 C 
ATOM      3  C   UNL     1      38.080  31.125  48.416  0.00  0.00    +0.000 C 
ATOM      4  H   UNL     1      39.012  29.652  47.127  0.00  0.00    +0.000 HD
ATOM      5  H   UNL     1      36.222  31.209  47.075  0.00  0.00    +0.000 HD
ATOM      6  H   UNL     1      36.546  29.605  47.888  0.00  0.00    +0.000 HD
ATOM      7  H   UNL     1      37.842  32.174  48.619  0.00  0.00    +0.000 HD
ENDROOT
BRANCH   1  12
ATOM      8  C   UNL     1      40.619  32.683  45.021  0.00  0.00    +0.000 A 
ATOM      9  C   UNL     1      39.722  33.182  44.041  0.00  0.00    +0.000 A 
ATOM     10  C   UNL     1      38.340  32.792  44.101  0.00  0.00    +0.000 A 
ATOM     11  N   UNL     1      37.969  31.954  45.110  0.00  0.00    +0.000 NA
ATOM     12  C   UNL     1      38.870  31.503  46.024  0.00  0.00    +0.000 A 
ATOM     13  N   UNL     1      40.174  31.841  46.010  0.00  0.00    +0.000 NA
ATOM     14  H   UNL     1      41.626  33.029  44.894  0.00  0.00    +0.000 HD
ATOM     15  H   UNL     1      40.051  33.834  43.270  0.00  0.00    +0.000 HD
ATOM     16  H   UNL     1      37.641  33.146  43.385  0.00  0.00    +0.000 HD
ENDBRANCH   1  12
BRANCH   3  19
ATOM     17  C   UNL     1      37.703  30.548  50.787  0.00  0.00    +0.000 C 
ATOM     18  O   UNL     1      36.734  31.343  50.804  0.00  0.00    +0.000 OA
ATOM     19  N   UNL     1      38.413  30.279  49.565  0.00  0.00    +0.000 N 
ATOM     20  H   UNL     1      39.135  29.542  49.436  0.00  0.00    +0.000 HD
BRANCH  17  21
ATOM     21  C   UNL     1      38.279  29.777  51.922  0.00  0.00    +0.000 A 
ATOM     22  C   UNL     1      39.491  30.140  52.521  0.00  0.00    +0.000 A 
ATOM     23  H   UNL     1      40.078  30.990  52.204  0.00  0.00    +0.000 HD
ATOM     24  C   UNL     1      39.991  29.428  53.546  0.00  0.00    +0.000 A 
ATOM     25  C   UNL     1      39.173  28.246  53.986  0.00  0.00    +0.000 A 
ATOM     26  S   UNL     1      37.725  28.374  52.764  0.00  0.00    +0.000 S 
ENDBRANCH  17  21
ENDBRANCH   3  19
TORSDOF 3
