
     RDKit          3D

 40 43  0  0  0  0  0  0  0  0999 V2000
   38.2678   32.2955   47.3945 C   0  0  0  0  0  0  0  0  0  0  0  0
   37.9075   32.7333   48.6568 C   0  0  0  0  0  0  0  0  0  0  0  0
   38.6723   33.6840   49.3043 C   0  0  0  0  0  0  0  0  0  0  0  0
   39.8060   34.1988   48.6810 C   0  0  0  0  0  0  0  0  0  0  0  0
   40.1549   33.7549   47.4233 C   0  0  0  0  0  0  0  0  0  0  0  0
   39.3738   32.8106   46.8093 C   0  0  0  0  0  0  0  0  0  0  0  0
   39.7608   32.3437   45.4592 C   0  0  0  0  0  0  0  0  0  0  0  0
   40.6220   31.3298   45.1019 C   0  0  0  0  0  0  0  0  0  0  0  0
   40.6520   31.2812   43.7077 C   0  0  0  0  0  0  0  0  0  0  0  0
   39.7918   32.2867   43.3022 C   0  0  0  0  0  0  0  0  0  0  0  0
   39.2767   32.9012   44.3552 O   0  0  0  0  0  0  0  0  0  0  0  0
   36.7495   30.5275   46.2933 N   0  0  0  0  0  0  0  0  0  0  0  0
   37.4255   31.3118   46.7935 C   0  0  0  0  0  0  0  0  0  0  0  0
   36.8122   32.3105   49.3911 O   0  0  0  0  0  0  0  0  0  0  0  0
   36.7862   31.1981   50.1684 C   0  0  0  0  0  0  0  0  0  0  0  0
   35.6380   30.4330   49.9416 C   0  0  0  0  0  0  0  0  0  0  0  0
   35.4383   29.2567   50.6476 C   0  0  0  0  0  0  0  0  0  0  0  0
   36.3889   28.8843   51.5542 N   0  0  0  0  0  0  0  0  0  0  0  0
   37.4978   29.6547   51.7507 C   0  0  0  0  0  0  0  0  0  0  0  0
   37.6703   30.7671   51.0721 N   0  0  0  0  0  0  0  0  0  0  0  0
   34.1456   29.7195   48.1629 C   0  0  0  0  0  0  0  0  0  0  0  0
   34.5518   28.5162   47.8626 O   0  0  0  0  0  0  0  0  0  0  0  0
   34.6133   30.7150   49.0487 N   0  0  0  0  0  0  0  0  0  0  0  0
   38.4520   34.0716   50.2885 H   0  0  0  0  0  0  0  0  0  0  0  0
   40.4038   34.9446   49.1918 H   0  0  0  0  0  0  0  0  0  0  0  0
   41.0422   34.1636   46.9458 H   0  0  0  0  0  0  0  0  0  0  0  0
   41.1635   30.7010   45.7910 H   0  0  0  0  0  0  0  0  0  0  0  0
   41.2243   30.6038   43.0853 H   0  0  0  0  0  0  0  0  0  0  0  0
   39.5436   32.5681   42.2716 H   0  0  0  0  0  0  0  0  0  0  0  0
   34.6044   28.6081   50.5493 H   0  0  0  0  0  0  0  0  0  0  0  0
   38.2466   29.3402   52.4800 H   0  0  0  0  0  0  0  0  0  0  0  0
   34.1446   31.6199   48.9704 H   0  0  0  0  0  0  0  0  0  0  0  0
   32.9323   29.9390   47.3141 C   0  0  0  0  0  0  0  0  0  0  0  0
   32.3029   28.9705   46.7038 C   0  0  0  0  0  0  0  0  0  0  0  0
   32.4907   27.8837   46.6699 H   0  0  0  0  0  0  0  0  0  0  0  0
   31.2096   29.0232   45.9161 C   0  0  0  0  0  0  0  0  0  0  0  0
   30.7913   30.4251   45.8316 C   0  0  0  0  0  0  0  0  0  0  0  0
   32.0769   31.3650   46.9151 S   0  0  0  0  0  0  0  0  0  0  0  0
   30.3860   28.8020   45.2816 H   0  0  0  0  0  0  0  0  0  0  0  0
   30.0702   31.3694   45.4547 H   0  0  0  0  0  0  0  0  0  0  0  0
  1  2  2  0
  2  3  1  0
  2 14  1  0
  4  3  2  0
  5  4  1  0
  6  1  1  0
  6  5  2  0
  7  6  1  0
  8  7  2  0
  9  8  1  0
 10  9  2  0
 10 11  1  0
 11  7  1  0
 12 13  3  0
 13  1  1  0
 14 15  1  0
 15 20  2  0
 16 15  1  0
 16 17  2  0
 17 18  1  0
 18 19  2  0
 20 19  1  0
 21 23  1  0
 22 21  2  0
 23 16  1  0
  3 24  1  0
  4 25  1  0
  5 26  1  0
  8 27  1  0
  9 28  1  0
 10 29  1  0
 17 30  1  0
 19 31  1  0
 23 32  1  0
 33 34  2  0
 34 35  1  0
 34 36  1  0
 36 37  2  0
 37 38  1  0
 38 33  1  0
 36 39  1  0
 37 40  1  0
 21 33  1  0
M  ISO  8  24  14  25  14  26  14  27  14  28  14  29  14  30  14  31  14
M  ISO  1  35  15
M  END
>  <DihAtoms>  (1) 
22,20,32,33

>  <DihDeg>  (1) 
-0.004836484513809149

$$$$
