
 OpenBabel03272508503D

 26 28  0  0  1  0  0  0  0  0999 V2000
   37.3180   32.1180   42.9650 C   0  0  2  0  0  0  0  0  0  0  0  0
   36.8470   33.1270   42.0260 C   0  0  0  0  0  0  0  0  0  0  0  0
   35.9040   32.4600   43.0430 C   0  0  1  0  0  0  0  0  0  0  0  0
   37.4990   31.0550   42.6180 H   0  0  0  0  0  0  0  0  0  0  0  0
   37.1140   34.1930   42.1540 H   0  0  0  0  0  0  0  0  0  0  0  0
   36.6470   32.8660   40.9880 H   0  0  0  0  0  0  0  0  0  0  0  0
   35.4880   33.2340   43.6960 H   0  0  0  0  0  0  0  0  0  0  0  0
   38.6530   32.3480   46.4180 C   0  0  0  0  0  0  0  0  0  0  0  0
   39.8840   33.0210   46.2050 C   0  0  0  0  0  0  0  0  0  0  0  0
   40.2480   33.3960   44.8660 C   0  0  0  0  0  0  0  0  0  0  0  0
   39.3770   33.0760   43.8670 N   0  0  0  0  0  0  0  0  0  0  0  0
   38.2100   32.4280   44.1250 C   0  0  0  0  0  0  0  0  0  0  0  0
   37.8240   32.0580   45.3620 N   0  0  0  0  0  0  0  0  0  0  0  0
   38.4690   32.1100   47.4470 H   0  0  0  0  0  0  0  0  0  0  0  0
   40.5350   33.2520   47.0110 H   0  0  0  0  0  0  0  0  0  0  0  0
   41.1610   33.9010   44.6690 H   0  0  0  0  0  0  0  0  0  0  0  0
   34.4470   30.4820   43.2890 C   0  0  0  0  0  0  0  0  0  0  0  0
   34.6660   30.5010   44.5230 O   0  0  0  0  0  0  0  0  0  0  0  0
   34.9600   31.5190   42.4340 N   0  0  0  0  0  0  0  0  0  0  0  0
   34.7170   31.6510   41.4320 H   0  0  0  0  0  0  0  0  0  0  0  0
   33.6790   29.4750   42.5070 C   0  0  0  0  0  0  0  0  0  0  0  0
   33.9150   28.1020   42.6390 C   0  0  0  0  0  0  0  0  0  0  0  0
   34.6580   27.6890   43.3060 H   0  0  0  0  0  0  0  0  0  0  0  0
   33.2070   27.2110   41.9220 C   0  0  0  0  0  3  0  0  0  0  0  0
   32.1740   27.7870   40.9950 C   0  0  0  0  0  3  0  0  0  0  0  0
   32.4160   29.6380   41.3400 S   0  0  0  0  0  0  0  0  0  0  0  0
  1  4  1  6  0  0  0
  1  3  1  0  0  0  0
  1 12  1  0  0  0  0
  2  5  1  0  0  0  0
  2  1  1  0  0  0  0
  2  3  1  0  0  0  0
  3  7  1  1  0  0  0
  6  2  1  0  0  0  0
  8 14  1  0  0  0  0
  9  8  1  0  0  0  0
  9 15  1  0  0  0  0
 10  9  2  0  0  0  0
 11 12  2  0  0  0  0
 11 10  1  0  0  0  0
 12 13  1  0  0  0  0
 13  8  2  0  0  0  0
 16 10  1  0  0  0  0
 17 18  2  0  0  0  0
 19  3  1  0  0  0  0
 19 17  1  0  0  0  0
 20 19  1  0  0  0  0
 21 22  2  0  0  0  0
 21 17  1  0  0  0  0
 22 23  1  0  0  0  0
 24 22  1  0  0  0  0
 25 26  1  0  0  0  0
 25 24  2  0  0  0  0
 26 21  1  0  0  0  0
M  END
>  <minimizedAffinity>
-2.75666046

>  <minimizedRMSD>
8.0841465

$$$$
