
 OpenBabel03272508503D

 26 28  0  0  1  0  0  0  0  0999 V2000
   37.8340   30.6020   45.6750 C   0  0  2  0  0  0  0  0  0  0  0  0
   36.4000   30.4540   45.8920 C   0  0  0  0  0  0  0  0  0  0  0  0
   37.3180   31.1070   46.9410 C   0  0  1  0  0  0  0  0  0  0  0  0
   38.5250   29.7140   45.8000 H   0  0  0  0  0  0  0  0  0  0  0  0
   35.6730   31.0820   45.3440 H   0  0  0  0  0  0  0  0  0  0  0  0
   35.9830   29.4940   46.1930 H   0  0  0  0  0  0  0  0  0  0  0  0
   36.9820   32.1350   47.1090 H   0  0  0  0  0  0  0  0  0  0  0  0
   39.7990   33.3890   44.2170 C   0  0  0  0  0  0  0  0  0  0  0  0
   39.4610   33.2890   42.8430 C   0  0  0  0  0  0  0  0  0  0  0  0
   38.5520   32.2580   42.4230 C   0  0  0  0  0  0  0  0  0  0  0  0
   38.0630   31.4260   43.3860 N   0  0  0  0  0  0  0  0  0  0  0  0
   38.4200   31.5640   44.6910 C   0  0  0  0  0  0  0  0  0  0  0  0
   39.2660   32.5140   45.1320 N   0  0  0  0  0  0  0  0  0  0  0  0
   40.4820   34.1880   44.4330 H   0  0  0  0  0  0  0  0  0  0  0  0
   39.8650   33.9580   42.1230 H   0  0  0  0  0  0  0  0  0  0  0  0
   38.2770   32.1540   41.4040 H   0  0  0  0  0  0  0  0  0  0  0  0
   36.8770   30.6880   49.3340 C   0  0  0  0  0  0  0  0  0  0  0  0
   36.0270   31.6100   49.3170 O   0  0  0  0  0  0  0  0  0  0  0  0
   37.5360   30.2720   48.1250 N   0  0  0  0  0  0  0  0  0  0  0  0
   38.1480   29.4370   48.0280 H   0  0  0  0  0  0  0  0  0  0  0  0
   37.3460   29.8930   50.5010 C   0  0  0  0  0  0  0  0  0  0  0  0
   37.9460   28.6380   50.3460 C   0  0  0  0  0  0  0  0  0  0  0  0
   38.1060   28.1710   49.3850 H   0  0  0  0  0  0  0  0  0  0  0  0
   38.3620   27.9380   51.4170 C   0  0  0  0  0  3  0  0  0  0  0  0
   38.1400   28.5890   52.7540 C   0  0  0  0  0  3  0  0  0  0  0  0
   37.3140   30.2060   52.1990 S   0  0  0  0  0  0  0  0  0  0  0  0
  1  4  1  1  0  0  0
  1  2  1  0  0  0  0
  1  3  1  0  0  0  0
  2  6  1  0  0  0  0
  2  3  1  0  0  0  0
  3  7  1  1  0  0  0
  3 19  1  0  0  0  0
  5  2  1  0  0  0  0
  8 14  1  0  0  0  0
  8 13  1  0  0  0  0
  9  8  2  0  0  0  0
 10  9  1  0  0  0  0
 10 11  2  0  0  0  0
 11 12  1  0  0  0  0
 12 13  2  0  0  0  0
 12  1  1  0  0  0  0
 15  9  1  0  0  0  0
 16 10  1  0  0  0  0
 17 21  1  0  0  0  0
 18 17  2  0  0  0  0
 19 17  1  0  0  0  0
 20 19  1  0  0  0  0
 21 26  1  0  0  0  0
 22 21  2  0  0  0  0
 22 24  1  0  0  0  0
 23 22  1  0  0  0  0
 24 25  2  0  0  0  0
 26 25  1  0  0  0  0
M  END
>  <minimizedAffinity>
-1.1736356

>  <minimizedRMSD>
1.63073969

$$$$
