
 OpenBabel03272508503D

 26 28  0  0  1  0  0  0  0  0999 V2000
   39.7600   32.1190   46.3510 C   0  0  2  0  0  0  0  0  0  0  0  0
   40.2150   33.4570   45.9960 C   0  0  0  0  0  0  0  0  0  0  0  0
   39.2530   32.6610   45.0970 C   0  0  1  0  0  0  0  0  0  0  0  0
   40.4420   31.2270   46.2050 H   0  0  0  0  0  0  0  0  0  0  0  0
   39.8400   34.3480   46.5340 H   0  0  0  0  0  0  0  0  0  0  0  0
   41.2070   33.6090   45.5720 H   0  0  0  0  0  0  0  0  0  0  0  0
   38.3200   33.2250   44.9960 H   0  0  0  0  0  0  0  0  0  0  0  0
   37.3250   30.4070   48.5630 C   0  0  0  0  0  0  0  0  0  0  0  0
   37.0680   31.4080   49.5350 C   0  0  0  0  0  0  0  0  0  0  0  0
   37.7370   32.6750   49.4220 C   0  0  0  0  0  0  0  0  0  0  0  0
   38.5910   32.8400   48.3720 N   0  0  0  0  0  0  0  0  0  0  0  0
   38.8030   31.8460   47.4680 C   0  0  0  0  0  0  0  0  0  0  0  0
   38.1990   30.6440   47.5310 N   0  0  0  0  0  0  0  0  0  0  0  0
   36.7810   29.4980   48.7310 H   0  0  0  0  0  0  0  0  0  0  0  0
   36.3950   31.2400   50.3390 H   0  0  0  0  0  0  0  0  0  0  0  0
   37.5690   33.4470   50.1300 H   0  0  0  0  0  0  0  0  0  0  0  0
   39.2530   31.0380   43.2360 C   0  0  0  0  0  0  0  0  0  0  0  0
   38.1420   30.6150   43.6340 O   0  0  0  0  0  0  0  0  0  0  0  0
   39.8760   32.1720   43.8640 N   0  0  0  0  0  0  0  0  0  0  0  0
   40.7230   32.6650   43.5160 H   0  0  0  0  0  0  0  0  0  0  0  0
   40.0940   30.5090   42.1280 C   0  0  0  0  0  0  0  0  0  0  0  0
   40.9940   29.4560   42.3250 C   0  0  0  0  0  0  0  0  0  0  0  0
   41.1360   28.9650   43.2760 H   0  0  0  0  0  0  0  0  0  0  0  0
   41.7440   28.9940   41.3080 C   0  0  0  0  0  3  0  0  0  0  0  0
   41.5480   29.6780   39.9830 C   0  0  0  0  0  3  0  0  0  0  0  0
   40.2260   30.9540   40.4650 S   0  0  0  0  0  0  0  0  0  0  0  0
  1  4  1  6  0  0  0
  1 12  1  0  0  0  0
  2  1  1  0  0  0  0
  2  5  1  0  0  0  0
  3  7  1  6  0  0  0
  3  2  1  0  0  0  0
  3  1  1  0  0  0  0
  6  2  1  0  0  0  0
  8 14  1  0  0  0  0
  8  9  1  0  0  0  0
  9 15  1  0  0  0  0
 10  9  2  0  0  0  0
 10 16  1  0  0  0  0
 11 10  1  0  0  0  0
 12 13  1  0  0  0  0
 12 11  2  0  0  0  0
 13  8  2  0  0  0  0
 17 18  2  0  0  0  0
 17 19  1  0  0  0  0
 19  3  1  0  0  0  0
 20 19  1  0  0  0  0
 21 22  2  0  0  0  0
 21 17  1  0  0  0  0
 22 23  1  0  0  0  0
 24 22  1  0  0  0  0
 25 26  1  0  0  0  0
 25 24  2  0  0  0  0
 26 21  1  0  0  0  0
M  END
>  <minimizedAffinity>
-4.81893253

>  <minimizedRMSD>
7.86447906

$$$$
