
 OpenBabel03272503243D

 29 31  0  0  1  0  0  0  0  0999 V2000
   36.3330   29.9040   49.2420 N   0  0  0  0  0  0  0  0  0  0  0  0
   36.8480   31.2240   49.1220 C   0  0  1  0  0  0  0  0  0  0  0  0
   37.4540   31.5330   50.4710 C   0  0  0  0  0  0  0  0  0  0  0  0
   37.2730   30.2180   51.2680 C   0  0  0  0  0  0  0  0  0  0  0  0
   37.1740   29.2240   50.1750 C   0  0  0  0  0  0  0  0  0  0  0  0
   35.9290   31.9530   49.0670 H   0  0  0  0  0  0  0  0  0  0  0  0
   38.5170   31.7870   50.3470 H   0  0  0  0  0  0  0  0  0  0  0  0
   36.8660   32.2690   51.0380 H   0  0  0  0  0  0  0  0  0  0  0  0
   38.2470   30.0820   51.7990 H   0  0  0  0  0  0  0  0  0  0  0  0
   36.4130   30.2470   51.9300 H   0  0  0  0  0  0  0  0  0  0  0  0
   38.1500   28.9180   49.7690 H   0  0  0  0  0  0  0  0  0  0  0  0
   36.6830   28.2830   50.5580 H   0  0  0  0  0  0  0  0  0  0  0  0
   35.1940   29.3860   48.5700 C   0  0  0  0  0  0  0  0  0  0  0  0
   34.4910   30.2370   47.6990 C   0  0  0  0  0  0  0  0  0  0  0  0
   33.3720   29.7480   47.0180 C   0  0  0  0  0  0  0  0  0  0  0  0
   33.0370   28.4200   47.2650 N   0  0  0  0  0  0  0  0  0  0  0  0
   33.7360   27.6520   48.1000 C   0  0  0  0  0  0  0  0  0  0  0  0
   34.8360   28.1110   48.7780 N   0  0  0  0  0  0  0  0  0  0  0  0
   34.7430   31.2670   47.5010 H   0  0  0  0  0  0  0  0  0  0  0  0
   32.8170   30.3840   46.3450 H   0  0  0  0  0  0  0  0  0  0  0  0
   33.3860   26.6330   48.2180 H   0  0  0  0  0  0  0  0  0  0  0  0
   37.6300   31.5610   47.9670 C   0  0  0  0  0  0  0  0  0  0  0  0
   38.2710   32.5720   47.9210 O   0  0  0  0  0  0  0  0  0  0  0  0
   37.9970   31.0800   46.5850 C   0  0  0  0  0  0  0  0  0  0  0  0
   37.1630   30.6680   45.6570 C   0  0  0  0  0  0  0  0  0  0  0  0
   36.0940   30.5530   45.5770 H   0  0  0  0  0  0  0  0  0  0  0  0
   37.5290   30.2320   44.4410 C   0  0  0  0  0  3  0  0  0  0  0  0
   38.9490   30.2500   44.2210 C   0  0  0  0  0  3  0  0  0  0  0  0
   39.5670   30.9340   45.9070 S   0  0  0  0  0  0  0  0  0  0  0  0
  1  5  1  0  0  0  0
  2  6  1  6  0  0  0
  2  1  1  0  0  0  0
  2  3  1  0  0  0  0
  3  8  1  0  0  0  0
  3  4  1  0  0  0  0
  4  9  1  0  0  0  0
  4 10  1  0  0  0  0
  5 12  1  0  0  0  0
  5  4  1  0  0  0  0
  7  3  1  0  0  0  0
 11  5  1  0  0  0  0
 13 18  1  0  0  0  0
 13  1  1  0  0  0  0
 14 13  2  0  0  0  0
 15 16  2  0  0  0  0
 15 14  1  0  0  0  0
 16 17  1  0  0  0  0
 17 21  1  0  0  0  0
 17 18  2  0  0  0  0
 19 14  1  0  0  0  0
 20 15  1  0  0  0  0
 22  2  1  0  0  0  0
 23 22  2  0  0  0  0
 24 22  1  0  0  0  0
 25 24  2  0  0  0  0
 26 25  1  0  0  0  0
 27 25  1  0  0  0  0
 28 27  2  0  0  0  0
 28 29  1  0  0  0  0
 29 24  1  0  0  0  0
M  END
>  <minimizedAffinity>
-5.07397127

>  <minimizedRMSD>
0.885723829

$$$$
