REMARK  Name = 
REMARK  3 active torsions:
REMARK  status: ('A' for Active; 'I' for Inactive)
REMARK    1  A    between atoms: N_1  and  C_6
REMARK    2  A    between atoms: C_2  and  C_12
REMARK    3  A    between atoms: C_12  and  C_24
REMARK                            x       y       z     vdW  Elec       q    Type
REMARK                         _______ _______ _______ _____ _____    ______ ____
ROOT
ATOM      1  N   UNL     1      36.533  29.774  49.192  0.00  0.00    +0.000 N 
ATOM      2  C   UNL     1      37.287  30.901  48.764  0.00  0.00    +0.000 C 
ATOM      3  C   UNL     1      37.955  31.424  50.014  0.00  0.00    +0.000 C 
ATOM      4  C   UNL     1      37.537  30.412  51.109  0.00  0.00    +0.000 C 
ATOM      5  C   UNL     1      37.240  29.209  50.297  0.00  0.00    +0.000 C 
ATOM      6  H   UNL     1      36.522  31.749  48.493  0.00  0.00    +0.000 HD
ATOM      7  H   UNL     1      39.045  31.436  49.871  0.00  0.00    +0.000 HD
ATOM      8  H   UNL     1      37.523  32.376  50.356  0.00  0.00    +0.000 HD
ATOM      9  H   UNL     1      38.473  30.236  51.693  0.00  0.00    +0.000 HD
ATOM     10  H   UNL     1      36.705  30.767  51.709  0.00  0.00    +0.000 HD
ATOM     11  H   UNL     1      38.136  28.634  50.019  0.00  0.00    +0.000 HD
ATOM     12  H   UNL     1      36.584  28.504  50.885  0.00  0.00    +0.000 HD
ENDROOT
BRANCH   1  13
ATOM     13  C   UNL     1      35.309  29.323  48.629  0.00  0.00    +0.000 A 
ATOM     14  C   UNL     1      34.716  30.099  47.618  0.00  0.00    +0.000 A 
ATOM     15  C   UNL     1      33.517  29.671  47.040  0.00  0.00    +0.000 A 
ATOM     16  N   UNL     1      32.994  28.478  47.528  0.00  0.00    +0.000 NA
ATOM     17  C   UNL     1      33.594  27.777  48.489  0.00  0.00    +0.000 A 
ATOM     18  N   UNL     1      34.770  28.177  49.069  0.00  0.00    +0.000 NA
ATOM     19  H   UNL     1      35.114  31.025  47.233  0.00  0.00    +0.000 HD
ATOM     20  H   UNL     1      33.044  30.252  46.263  0.00  0.00    +0.000 HD
ATOM     21  H   UNL     1      33.099  26.862  48.793  0.00  0.00    +0.000 HD
ENDBRANCH   1  13
BRANCH   2  22
ATOM     22  C   UNL     1      38.106  30.782  47.592  0.00  0.00    +0.000 C 
ATOM     23  O   UNL     1      39.049  31.500  47.415  0.00  0.00    +0.000 OA
BRANCH  22  24
ATOM     24  C   UNL     1      38.254  30.010  46.305  0.00  0.00    +0.000 A 
ATOM     25  C   UNL     1      37.698  28.853  46.024  0.00  0.00    +0.000 A 
ATOM     26  H   UNL     1      37.045  28.166  46.536  0.00  0.00    +0.000 HD
ATOM     27  C   UNL     1      37.865  28.187  44.869  0.00  0.00    +0.000 A 
ATOM     28  C   UNL     1      38.725  28.856  43.932  0.00  0.00    +0.000 A 
ATOM     29  S   UNL     1      39.184  30.434  44.927  0.00  0.00    +0.000 S 
ENDBRANCH  22  24
ENDBRANCH   2  22
TORSDOF 3
