
 OpenBabel03272503243D

 29 31  0  0  1  0  0  0  0  0999 V2000
   36.4660   29.8580   49.2040 N   0  0  0  0  0  0  0  0  0  0  0  0
   37.1370   31.0890   48.9660 C   0  0  1  0  0  0  0  0  0  0  0  0
   37.7230   31.4810   50.3020 C   0  0  0  0  0  0  0  0  0  0  0  0
   37.3570   30.2970   51.2300 C   0  0  0  0  0  0  0  0  0  0  0  0
   37.1840   29.2000   50.2490 C   0  0  0  0  0  0  0  0  0  0  0  0
   36.3140   31.9050   48.7830 H   0  0  0  0  0  0  0  0  0  0  0  0
   38.8120   31.5970   50.2070 H   0  0  0  0  0  0  0  0  0  0  0  0
   37.2040   32.3400   50.7540 H   0  0  0  0  0  0  0  0  0  0  0  0
   38.2870   30.1130   51.8220 H   0  0  0  0  0  0  0  0  0  0  0  0
   36.4820   30.4990   51.8390 H   0  0  0  0  0  0  0  0  0  0  0  0
   38.1320   28.7410   49.9310 H   0  0  0  0  0  0  0  0  0  0  0  0
   36.5710   28.3710   50.7080 H   0  0  0  0  0  0  0  0  0  0  0  0
   35.3000   29.3970   48.5360 C   0  0  0  0  0  0  0  0  0  0  0  0
   34.6050   30.3000   47.7130 C   0  0  0  0  0  0  0  0  0  0  0  0
   33.4610   29.8680   47.0350 C   0  0  0  0  0  0  0  0  0  0  0  0
   33.0940   28.5420   47.2370 N   0  0  0  0  0  0  0  0  0  0  0  0
   33.7870   27.7230   48.0280 C   0  0  0  0  0  0  0  0  0  0  0  0
   34.9110   28.1250   48.7010 N   0  0  0  0  0  0  0  0  0  0  0  0
   34.8810   31.3300   47.5500 H   0  0  0  0  0  0  0  0  0  0  0  0
   32.9110   30.5450   46.3990 H   0  0  0  0  0  0  0  0  0  0  0  0
   33.4120   26.7100   48.1130 H   0  0  0  0  0  0  0  0  0  0  0  0
   37.9970   31.1990   47.8230 C   0  0  0  0  0  0  0  0  0  0  0  0
   39.0050   31.8460   47.8610 O   0  0  0  0  0  0  0  0  0  0  0  0
   38.1400   30.7740   46.3830 C   0  0  0  0  0  0  0  0  0  0  0  0
   39.2550   30.4330   45.7780 C   0  0  0  0  0  0  0  0  0  0  0  0
   40.2910   30.3500   46.0600 H   0  0  0  0  0  0  0  0  0  0  0  0
   39.3440   30.0730   44.4870 C   0  0  0  0  0  3  0  0  0  0  0  0
   38.0860   30.0900   43.7920 C   0  0  0  0  0  3  0  0  0  0  0  0
   36.9040   30.6560   45.1970 S   0  0  0  0  0  0  0  0  0  0  0  0
  1  5  1  0  0  0  0
  2  6  1  6  0  0  0
  2  1  1  0  0  0  0
  2  3  1  0  0  0  0
  3  8  1  0  0  0  0
  3  4  1  0  0  0  0
  4  9  1  0  0  0  0
  4 10  1  0  0  0  0
  5 12  1  0  0  0  0
  5  4  1  0  0  0  0
  7  3  1  0  0  0  0
 11  5  1  0  0  0  0
 13 18  1  0  0  0  0
 13  1  1  0  0  0  0
 14 13  2  0  0  0  0
 15 16  2  0  0  0  0
 15 14  1  0  0  0  0
 16 17  1  0  0  0  0
 17 21  1  0  0  0  0
 17 18  2  0  0  0  0
 19 14  1  0  0  0  0
 20 15  1  0  0  0  0
 22 23  2  0  0  0  0
 22  2  1  0  0  0  0
 24 22  1  0  0  0  0
 25 26  1  0  0  0  0
 25 24  2  0  0  0  0
 27 25  1  0  0  0  0
 28 27  2  0  0  0  0
 28 29  1  0  0  0  0
 29 24  1  0  0  0  0
M  END
>  <minimizedAffinity>
-5.128479

>  <minimizedRMSD>
0.683414519

$$$$
