
     RDKit          3D

 19 20  0  0  0  0  0  0  0  0999 V2000
   37.3648   30.2304   51.3600 C   0  0  0  0  0  0  0  0  0  0  0  0
   38.0485   30.7390   50.2469 C   0  0  0  0  0  0  0  0  0  0  0  0
   37.5818   30.3917   48.9894 C   0  0  0  0  0  0  0  0  0  0  0  0
   36.4844   29.5753   48.9116 N   0  0  0  0  0  0  0  0  0  0  0  0
   35.8524   29.1051   49.9890 C   0  0  0  0  0  0  0  0  0  0  0  0
   36.2895   29.4303   51.2256 N   0  0  0  0  0  0  0  0  0  0  0  0
   38.2625   30.8970   47.8215 C   0  0  0  0  0  0  0  0  0  0  0  0
   38.9750   31.9421   47.8180 O   0  0  0  0  0  0  0  0  0  0  0  0
   37.6376   30.4335   52.3880 H   0  0  0  0  0  0  0  0  0  0  0  0
   38.8887   31.3642   50.4347 H   0  0  0  0  0  0  0  0  0  0  0  0
   34.9963   28.4681   49.8048 H   0  0  0  0  0  0  0  0  0  0  0  0
   38.1471   30.1885   46.5487 C   0  0  0  0  0  0  0  0  0  0  0  0
   38.4780   28.9484   46.1988 C   0  0  0  0  0  0  0  0  0  0  0  0
   38.9235   28.2899   46.9626 H   0  0  0  0  0  0  0  0  0  0  0  0
   38.2650   28.5170   44.9218 C   0  0  0  0  0  0  0  0  0  0  0  0
   37.7073   29.4091   44.0481 C   0  0  0  0  0  0  0  0  0  0  0  0
   37.4833   30.9036   45.0853 S   0  0  0  0  0  0  0  0  0  0  0  0
   38.5134   27.5048   44.5599 H   0  0  0  0  0  0  0  0  0  0  0  0
   37.4636   29.2230   42.9628 H   0  0  0  0  0  0  0  0  0  0  0  0
  2  1  2  0
  3  2  1  0
  4  3  2  0
  4  5  1  0
  5  6  2  0
  6  1  1  0
  7  3  1  0
  8  7  2  0
  1  9  1  0
  2 10  1  0
  5 11  1  0
 12 13  2  0
 13 14  1  0
 13 15  1  0
 15 16  2  0
 16 17  1  0
 17 12  1  0
 15 18  1  0
 16 19  1  0
  7 12  1  0
M  ISO  4   9  14  10  14  11  14  14  15
M  END
>  <DihAtoms>  (1) 
2,6,11,12

>  <DihDeg>  (1) 
-179.97192725467755

$$$$
