
     RDKit          3D

 28 30  0  0  0  0  0  0  0  0999 V2000
   36.3666   30.4749   46.3968 Cl  0  0  0  0  0  0  0  0  0  0  0  0
   36.7919   30.5360   48.0834 C   0  0  0  0  0  0  0  0  0  0  0  0
   38.0193   31.0867   48.3837 C   0  0  0  0  0  0  0  0  0  0  0  0
   38.3808   31.1462   49.7239 C   0  0  0  0  0  0  0  0  0  0  0  0
   37.5288   30.6676   50.6899 C   0  0  0  0  0  0  0  0  0  0  0  0
   36.3132   30.1294   50.3047 C   0  0  0  0  0  0  0  0  0  0  0  0
   35.8971   30.0415   48.9979 C   0  0  0  0  0  0  0  0  0  0  0  0
   40.0090   33.4197   46.4052 C   0  0  0  0  0  0  0  0  0  0  0  0
   40.5692   32.6162   45.3908 C   0  0  0  0  0  0  0  0  0  0  0  0
   40.2486   31.2551   45.4009 C   0  0  0  0  0  0  0  0  0  0  0  0
   39.4259   30.8181   46.3842 N   0  0  0  0  0  0  0  0  0  0  0  0
   38.9078   31.5895   47.3313 C   0  0  0  0  0  0  0  0  0  0  0  0
   39.2119   32.8834   47.3226 N   0  0  0  0  0  0  0  0  0  0  0  0
   34.3470   29.3568   48.4867 S   0  0  0  0  0  0  0  0  0  0  0  0
   39.3391   31.5740   49.9855 H   0  0  0  0  0  0  0  0  0  0  0  0
   37.8462   30.7314   51.7266 H   0  0  0  0  0  0  0  0  0  0  0  0
   35.6512   29.7547   51.0896 H   0  0  0  0  0  0  0  0  0  0  0  0
   40.2834   34.4515   46.3548 H   0  0  0  0  0  0  0  0  0  0  0  0
   41.2179   33.0335   44.6382 H   0  0  0  0  0  0  0  0  0  0  0  0
   40.6347   30.5905   44.6671 H   0  0  0  0  0  0  0  0  0  0  0  0
   33.4085   28.8018   49.8901 C   0  0  0  0  0  0  0  0  0  0  0  0
   33.6200   29.1101   51.2650 C   0  0  0  0  0  0  0  0  0  0  0  0
   34.4472   29.7584   51.4975 H   0  0  0  0  0  0  0  0  0  0  0  0
   32.7476   28.5501   52.1620 C   0  0  0  0  0  0  0  0  0  0  0  0
   31.7383   27.7421   51.7217 C   0  0  0  0  0  0  0  0  0  0  0  0
   31.9176   27.6784   49.8858 S   0  0  0  0  0  0  0  0  0  0  0  0
   32.8476   28.7400   53.2208 H   0  0  0  0  0  0  0  0  0  0  0  0
   30.9955   27.2389   52.2416 H   0  0  0  0  0  0  0  0  0  0  0  0
  1  2  1  0
  2  3  2  0
  2  7  1  0
  3  4  1  0
  4  5  2  0
  6  5  1  0
  7  6  2  0
  8 13  2  0
  9 10  2  0
  9  8  1  0
 10 11  1  0
 11 12  2  0
 12  3  1  0
 13 12  1  0
 14  7  1  0
  4 15  1  0
  5 16  1  0
  6 17  1  0
  8 18  1  0
  9 19  1  0
 10 20  1  0
 21 22  2  0
 22 23  1  0
 22 24  1  0
 24 25  2  0
 25 26  1  0
 26 21  1  0
 24 27  1  0
 25 28  1  0
 14 21  1  0
M  ISO  7  15  14  16  14  17  14  18  14  19  14  20  14  23  15
M  END
>  <DihAtoms>  (1) 
6,13,20,21

>  <DihDeg>  (1) 
90.0092846942667

$$$$
