REMARK  Name = 
REMARK  3 active torsions:
REMARK  status: ('A' for Active; 'I' for Inactive)
REMARK    1  A    between atoms: C_3  and  C_12
REMARK    2  A    between atoms: C_7  and  S_14
REMARK    3  A    between atoms: S_14  and  C_21
REMARK                            x       y       z     vdW  Elec       q    Type
REMARK                         _______ _______ _______ _____ _____    ______ ____
ROOT
ATOM      1 CL   UNL     1      36.367  30.475  46.397  0.00  0.00    +0.000 Cl
ATOM      2  C   UNL     1      36.792  30.536  48.083  0.00  0.00    +0.000 A 
ATOM      3  C   UNL     1      38.019  31.087  48.384  0.00  0.00    +0.000 A 
ATOM      4  C   UNL     1      38.381  31.146  49.724  0.00  0.00    +0.000 A 
ATOM      5  C   UNL     1      37.529  30.668  50.690  0.00  0.00    +0.000 A 
ATOM      6  C   UNL     1      36.313  30.129  50.305  0.00  0.00    +0.000 A 
ATOM      7  C   UNL     1      35.897  30.041  48.998  0.00  0.00    +0.000 A 
ATOM      8  H   UNL     1      39.339  31.574  49.986  0.00  0.00    +0.000 HD
ATOM      9  H   UNL     1      37.846  30.731  51.727  0.00  0.00    +0.000 HD
ATOM     10  H   UNL     1      35.651  29.755  51.090  0.00  0.00    +0.000 HD
ENDROOT
BRANCH   3  15
ATOM     11  C   UNL     1      40.009  33.420  46.405  0.00  0.00    +0.000 A 
ATOM     12  C   UNL     1      40.569  32.616  45.391  0.00  0.00    +0.000 A 
ATOM     13  C   UNL     1      40.249  31.255  45.401  0.00  0.00    +0.000 A 
ATOM     14  N   UNL     1      39.426  30.818  46.384  0.00  0.00    +0.000 NA
ATOM     15  C   UNL     1      38.908  31.590  47.331  0.00  0.00    +0.000 A 
ATOM     16  N   UNL     1      39.212  32.883  47.323  0.00  0.00    +0.000 NA
ATOM     17  H   UNL     1      40.283  34.452  46.355  0.00  0.00    +0.000 HD
ATOM     18  H   UNL     1      41.218  33.033  44.638  0.00  0.00    +0.000 HD
ATOM     19  H   UNL     1      40.635  30.590  44.667  0.00  0.00    +0.000 HD
ENDBRANCH   3  15
BRANCH   7  20
ATOM     20  S   UNL     1      34.347  29.357  48.487  0.00  0.00    +0.000 S 
BRANCH  20  21
ATOM     21  C   UNL     1      33.408  28.802  49.890  0.00  0.00    +0.000 A 
ATOM     22  C   UNL     1      33.620  29.110  51.265  0.00  0.00    +0.000 A 
ATOM     23  H   UNL     1      34.447  29.758  51.498  0.00  0.00    +0.000 HD
ATOM     24  C   UNL     1      32.748  28.550  52.162  0.00  0.00    +0.000 A 
ATOM     25  C   UNL     1      31.738  27.742  51.722  0.00  0.00    +0.000 A 
ATOM     26  S   UNL     1      31.918  27.678  49.886  0.00  0.00    +0.000 S 
ENDBRANCH  20  21
ENDBRANCH   7  20
TORSDOF 3
