REMARK  Name = 
REMARK  2 active torsions:
REMARK  status: ('A' for Active; 'I' for Inactive)
REMARK    1  A    between atoms: C_3  and  C_7
REMARK    2  A    between atoms: C_7  and  C_12
REMARK                            x       y       z     vdW  Elec       q    Type
REMARK                         _______ _______ _______ _____ _____    ______ ____
ROOT
ATOM      1  C   UNL     1      37.365  30.230  51.360  0.00  0.00    +0.000 A 
ATOM      2  C   UNL     1      38.048  30.739  50.247  0.00  0.00    +0.000 A 
ATOM      3  C   UNL     1      37.582  30.392  48.989  0.00  0.00    +0.000 A 
ATOM      4  N   UNL     1      36.484  29.575  48.912  0.00  0.00    +0.000 NA
ATOM      5  C   UNL     1      35.852  29.105  49.989  0.00  0.00    +0.000 A 
ATOM      6  N   UNL     1      36.289  29.430  51.226  0.00  0.00    +0.000 NA
ATOM      7  H   UNL     1      37.638  30.433  52.388  0.00  0.00    +0.000 HD
ATOM      8  H   UNL     1      38.889  31.364  50.435  0.00  0.00    +0.000 HD
ATOM      9  H   UNL     1      34.996  28.468  49.805  0.00  0.00    +0.000 HD
ENDROOT
BRANCH   3  10
ATOM     10  C   UNL     1      38.263  30.897  47.822  0.00  0.00    +0.000 C 
ATOM     11  O   UNL     1      38.975  31.942  47.818  0.00  0.00    +0.000 OA
BRANCH  10  12
ATOM     12  C   UNL     1      38.147  30.189  46.549  0.00  0.00    +0.000 A 
ATOM     13  C   UNL     1      37.717  28.963  46.260  0.00  0.00    +0.000 A 
ATOM     14  H   UNL     1      37.373  28.320  47.086  0.00  0.00    +0.000 HD
ATOM     15  C   UNL     1      37.707  28.528  44.966  0.00  0.00    +0.000 A 
ATOM     16  C   UNL     1      38.154  29.401  44.012  0.00  0.00    +0.000 A 
ATOM     17  S   UNL     1      38.597  30.882  44.996  0.00  0.00    +0.000 S 
ENDBRANCH  10  12
ENDBRANCH   3  10
TORSDOF 2
