
     RDKit          3D

 19 20  0  0  0  0  0  0  0  0999 V2000
   37.8444   30.7721   50.5773 C   0  0  0  0  0  0  0  0  0  0  0  0
   37.5645   31.5684   49.4477 C   0  0  0  0  0  0  0  0  0  0  0  0
   36.6957   31.0412   48.4760 C   0  0  0  0  0  0  0  0  0  0  0  0
   36.1682   29.8049   48.6601 N   0  0  0  0  0  0  0  0  0  0  0  0
   36.4649   29.0708   49.7644 C   0  0  0  0  0  0  0  0  0  0  0  0
   37.2924   29.5365   50.7209 N   0  0  0  0  0  0  0  0  0  0  0  0
   38.1781   32.8887   49.3303 C   0  0  0  0  0  0  0  0  0  0  0  0
   38.9468   33.0484   48.3904 O   0  0  0  0  0  0  0  0  0  0  0  0
   38.5095   31.1739   51.3227 H   0  0  0  0  0  0  0  0  0  0  0  0
   36.4805   31.6514   47.6094 H   0  0  0  0  0  0  0  0  0  0  0  0
   35.9831   28.1035   49.7958 H   0  0  0  0  0  0  0  0  0  0  0  0
   37.8815   33.9249   50.2755 C   0  0  0  0  0  0  0  0  0  0  0  0
   38.6967   34.8089   50.9318 C   0  0  0  0  0  0  0  0  0  0  0  0
   39.7579   34.7547   50.7356 H   0  0  0  0  0  0  0  0  0  0  0  0
   38.1004   35.6986   51.7914 C   0  0  0  0  0  0  0  0  0  0  0  0
   36.7440   35.6676   51.9548 C   0  0  0  0  0  0  0  0  0  0  0  0
   36.2266   34.3031   50.8376 S   0  0  0  0  0  0  0  0  0  0  0  0
   38.6876   36.4374   52.3532 H   0  0  0  0  0  0  0  0  0  0  0  0
   36.1262   36.2626   52.5605 H   0  0  0  0  0  0  0  0  0  0  0  0
  1  6  2  0
  2  1  1  0
  3  4  1  0
  3  2  2  0
  4  5  2  0
  5  6  1  0
  7  2  1  0
  8  7  2  0
  1  9  1  0
  3 10  1  0
  5 11  1  0
 12 13  2  0
 13 14  1  0
 13 15  1  0
 15 16  2  0
 16 17  1  0
 17 12  1  0
 15 18  1  0
 16 19  1  0
  7 12  1  0
M  ISO  4   9  14  10  14  11  14  14  15
M  END
>  <DihAtoms>  (1) 
1,6,11,12

>  <DihDeg>  (1) 
-179.999574926494

$$$$
