
     RDKit          3D

 19 20  0  0  0  0  0  0  0  0999 V2000
   37.3648   30.2304   51.3600 C   0  0  0  0  0  0  0  0  0  0  0  0
   38.0485   30.7390   50.2469 C   0  0  0  0  0  0  0  0  0  0  0  0
   37.5818   30.3917   48.9894 C   0  0  0  0  0  0  0  0  0  0  0  0
   36.4844   29.5753   48.9116 N   0  0  0  0  0  0  0  0  0  0  0  0
   35.8524   29.1051   49.9890 C   0  0  0  0  0  0  0  0  0  0  0  0
   36.2895   29.4303   51.2256 N   0  0  0  0  0  0  0  0  0  0  0  0
   38.2625   30.8970   47.8215 C   0  0  0  0  0  0  0  0  0  0  0  0
   38.9750   31.9421   47.8180 O   0  0  0  0  0  0  0  0  0  0  0  0
   37.6376   30.4335   52.3880 H   0  0  0  0  0  0  0  0  0  0  0  0
   38.8887   31.3642   50.4347 H   0  0  0  0  0  0  0  0  0  0  0  0
   34.9963   28.4681   49.8048 H   0  0  0  0  0  0  0  0  0  0  0  0
   38.1471   30.1885   46.5487 C   0  0  0  0  0  0  0  0  0  0  0  0
   37.0945   29.6673   45.9240 C   0  0  0  0  0  0  0  0  0  0  0  0
   36.1053   29.7539   46.4032 H   0  0  0  0  0  0  0  0  0  0  0  0
   37.2517   29.0440   44.7203 C   0  0  0  0  0  0  0  0  0  0  0  0
   38.5188   28.9882   44.2088 C   0  0  0  0  0  0  0  0  0  0  0  0
   39.5085   29.8519   45.4871 S   0  0  0  0  0  0  0  0  0  0  0  0
   36.4271   28.5894   44.1454 H   0  0  0  0  0  0  0  0  0  0  0  0
   38.8287   28.5149   43.2332 H   0  0  0  0  0  0  0  0  0  0  0  0
  2  1  2  0
  3  2  1  0
  4  3  2  0
  4  5  1  0
  5  6  2  0
  6  1  1  0
  7  3  1  0
  8  7  2  0
  1  9  1  0
  2 10  1  0
  5 11  1  0
 12 13  2  0
 13 14  1  0
 13 15  1  0
 15 16  2  0
 16 17  1  0
 17 12  1  0
 15 18  1  0
 16 19  1  0
  7 12  1  0
M  ISO  4   9  14  10  14  11  14  14  15
M  END
>  <DihAtoms>  (1) 
2,6,11,12

>  <DihDeg>  (1) 
-179.97192725467755

$$$$
