
 OpenBabel03272504563D

 30 32  0  0  1  0  0  0  0  0999 V2000
   36.3010   29.1700   49.7610 C   0  0  1  0  0  0  0  0  0  0  0  0
   35.3090   29.2560   50.8070 C   0  0  0  0  0  0  0  0  0  0  0  0
   34.8900   29.0730   49.3830 C   0  0  2  0  0  0  0  0  0  0  0  0
   36.9000   28.2150   49.5610 H   0  0  0  0  0  0  0  0  0  0  0  0
   35.5740   28.5440   51.5640 H   0  0  0  0  0  0  0  0  0  0  0  0
   35.1380   30.2660   51.2360 H   0  0  0  0  0  0  0  0  0  0  0  0
   34.1990   29.8490   49.0980 H   0  0  0  0  0  0  0  0  0  0  0  0
   37.0400   30.3940   49.3030 C   0  0  0  0  0  0  0  0  0  0  0  0
   36.7680   31.5790   50.0190 C   0  0  0  0  0  0  0  0  0  0  0  0
   37.4580   32.6850   49.5880 C   0  0  0  0  0  0  0  0  0  0  0  0
   38.3230   32.5960   48.5530 N   0  0  0  0  0  0  0  0  0  0  0  0
   38.5610   31.4320   47.8850 C   0  0  0  0  0  0  0  0  0  0  0  0
   37.8910   30.3020   48.2820 N   0  0  0  0  0  0  0  0  0  0  0  0
   39.4670   31.3060   46.8260 N   0  0  0  0  0  0  0  0  0  0  0  0
   36.0880   31.6610   50.8390 H   0  0  0  0  0  0  0  0  0  0  0  0
   37.3060   33.6350   50.0850 H   0  0  0  0  0  0  0  0  0  0  0  0
   40.2940   30.6650   46.8280 H   0  0  0  0  0  0  0  0  0  0  0  0
   39.1950   31.9480   46.0340 H   0  0  0  0  0  0  0  0  0  0  0  0
   34.4460   27.7910   49.0480 O   0  0  0  0  0  0  0  0  0  0  0  0
   32.4890   26.4770   48.0030 O   0  0  0  0  0  0  0  0  0  0  0  0
   32.9370   27.8620   48.3400 P   0  0  1  0  0  0  0  0  0  0  0  0
   31.7910   28.4070   49.5280 O   0  0  0  0  0  0  0  0  0  0  0  0
   32.1770   28.1580   50.4050 H   0  0  0  0  0  0  0  0  0  0  0  0
   32.9620   28.9170   47.0590 O   0  0  0  0  0  0  0  0  0  0  0  0
   32.2400   29.5500   46.2620 C   0  0  0  0  0  0  0  0  0  0  0  0
   32.4710   30.8720   45.9400 C   0  0  0  0  0  0  0  0  0  0  0  0
   33.2580   31.5640   46.2830 H   0  0  0  0  0  0  0  0  0  0  0  0
   31.8430   31.7450   45.1240 C   0  0  0  0  0  3  0  0  0  0  0  0
   30.6710   31.0510   44.4850 C   0  0  0  0  0  3  0  0  0  0  0  0
   30.6860   29.2570   45.1780 S   0  0  0  0  0  0  0  0  0  0  0  0
  1  4  1  6  0  0  0
  1  2  1  0  0  0  0
  2  6  1  0  0  0  0
  2  5  1  0  0  0  0
  3  7  1  6  0  0  0
  3  1  1  0  0  0  0
  3  2  1  0  0  0  0
  8  1  1  0  0  0  0
  8  9  1  0  0  0  0
  9 15  1  0  0  0  0
 10  9  2  0  0  0  0
 10 16  1  0  0  0  0
 11 10  1  0  0  0  0
 12 13  1  0  0  0  0
 12 11  2  0  0  0  0
 13  8  2  0  0  0  0
 14 17  1  0  0  0  0
 14 12  1  0  0  0  0
 18 14  1  0  0  0  0
 19  3  1  0  0  0  0
 21 20  2  6  0  0  0
 21 19  1  0  0  0  0
 21 22  1  0  0  0  0
 22 23  1  0  0  0  0
 24 21  1  0  0  0  0
 25 24  1  0  0  0  0
 26 25  2  0  0  0  0
 26 27  1  0  0  0  0
 28 26  1  0  0  0  0
 29 28  2  0  0  0  0
 29 30  1  0  0  0  0
 30 25  1  0  0  0  0
M  END
>  <minimizedAffinity>
-5.4582386

>  <minimizedRMSD>
3.42690992

$$$$
