
     RDKit          3D

 32 34  0  0  0  0  0  0  0  0999 V2000
   36.9893   31.5677   48.6741 C   0  0  1  0  0  0  0  0  0  0  0  0
   36.2150   30.9251   47.6389 C   0  0  0  0  0  0  0  0  0  0  0  0
   37.1767   30.1317   48.4643 C   0  0  2  0  0  0  0  0  0  0  0  0
   38.1464   32.4592   48.3236 C   0  0  0  0  0  0  0  0  0  0  0  0
   38.5288   33.3857   49.3181 C   0  0  0  0  0  0  0  0  0  0  0  0
   39.5920   34.1870   48.9804 C   0  0  0  0  0  0  0  0  0  0  0  0
   40.1935   34.0603   47.7764 N   0  0  0  0  0  0  0  0  0  0  0  0
   39.7957   33.1523   46.8413 C   0  0  0  0  0  0  0  0  0  0  0  0
   38.7363   32.3318   47.1367 N   0  0  0  0  0  0  0  0  0  0  0  0
   40.4144   32.9844   45.5974 N   0  0  0  0  0  0  0  0  0  0  0  0
   36.5986   29.3039   49.4312 O   0  0  0  0  0  0  0  0  0  0  0  0
   34.6238   27.6660   49.6856 O   0  0  0  0  0  0  0  0  0  0  0  0
   35.0214   28.9467   49.0257 P   0  0  1  0  0  0  0  0  0  0  0  0
   33.9801   30.1399   49.7441 O   0  0  0  0  0  0  0  0  0  0  0  0
   34.8409   28.9652   47.3764 O   0  0  0  0  0  0  0  0  0  0  0  0
   36.5470   31.8333   49.6964 H   0  0  0  0  0  0  0  0  0  0  0  0
   35.1847   31.1779   47.7996 H   0  0  0  0  0  0  0  0  0  0  0  0
   36.5276   31.1313   46.5936 H   0  0  0  0  0  0  0  0  0  0  0  0
   37.8740   29.6151   47.8262 H   0  0  0  0  0  0  0  0  0  0  0  0
   38.0620   33.4944   50.2717 H   0  0  0  0  0  0  0  0  0  0  0  0
   39.9476   34.9245   49.6871 H   0  0  0  0  0  0  0  0  0  0  0  0
   40.8522   32.0919   45.2699 H   0  0  0  0  0  0  0  0  0  0  0  0
   40.3742   33.8815   45.0453 H   0  0  0  0  0  0  0  0  0  0  0  0
   34.4729   30.4869   50.5292 H   0  0  0  0  0  0  0  0  0  0  0  0
   35.3049   28.5175   46.3084 C   0  0  0  0  0  0  0  0  0  0  0  0
   34.6776   27.5247   45.5837 C   0  0  0  0  0  0  0  0  0  0  0  0
   33.7379   26.9824   45.7805 H   0  0  0  0  0  0  0  0  0  0  0  0
   34.9804   26.8949   44.4287 C   0  0  0  0  0  0  0  0  0  0  0  0
   36.2742   27.4512   43.8994 C   0  0  0  0  0  0  0  0  0  0  0  0
   36.8240   28.7888   45.1691 S   0  0  0  0  0  0  0  0  0  0  0  0
   35.0546   26.3007   43.5487 H   0  0  0  0  0  0  0  0  0  0  0  0
   37.2324   27.6532   43.2226 H   0  0  0  0  0  0  0  0  0  0  0  0
  2  3  1  0
  2  1  1  0
  3  1  1  0
  3 11  1  0
  4  1  1  0
  4  5  2  0
  6  5  1  0
  7  6  2  0
  8  9  2  0
  8  7  1  0
  9  4  1  0
 10  8  1  0
 13 11  1  6
 13 12  2  0
 13 14  1  0
 15 13  1  0
  1 16  1  1
  2 17  1  0
  2 18  1  0
  3 19  1  6
  5 20  1  0
  6 21  1  0
 10 22  1  0
 10 23  1  0
 14 24  1  0
 25 26  2  0
 26 27  1  0
 26 28  1  0
 28 29  2  0
 29 30  1  0
 30 25  1  0
 28 31  1  0
 29 32  1  0
 15 25  1  0
M  ISO  8  16  13  17  13  18  13  19  13  20  14  21  14  24   3  27  15
M  END
>  <DihAtoms>  (1) 
12,14,24,25

>  <DihDeg>  (1) 
0.0075204439468491875

$$$$
