
 OpenBabel03272504563D

 30 32  0  0  1  0  0  0  0  0999 V2000
   36.1170   30.0630   49.7090 C   0  0  1  0  0  0  0  0  0  0  0  0
   34.7280   30.4340   49.8350 C   0  0  0  0  0  0  0  0  0  0  0  0
   35.1630   29.4970   48.7540 C   0  0  2  0  0  0  0  0  0  0  0  0
   36.6090   29.2840   50.3890 H   0  0  0  0  0  0  0  0  0  0  0  0
   34.4350   30.2550   50.8510 H   0  0  0  0  0  0  0  0  0  0  0  0
   34.4640   31.4610   49.5080 H   0  0  0  0  0  0  0  0  0  0  0  0
   34.8490   29.8680   47.7930 H   0  0  0  0  0  0  0  0  0  0  0  0
   37.1240   31.0340   49.1630 C   0  0  0  0  0  0  0  0  0  0  0  0
   37.1570   32.3000   49.7890 C   0  0  0  0  0  0  0  0  0  0  0  0
   38.0870   33.1710   49.2790 C   0  0  0  0  0  0  0  0  0  0  0  0
   38.8890   32.8000   48.2550 N   0  0  0  0  0  0  0  0  0  0  0  0
   38.8290   31.5680   47.6760 C   0  0  0  0  0  0  0  0  0  0  0  0
   37.9110   30.6660   48.1550 N   0  0  0  0  0  0  0  0  0  0  0  0
   39.6600   31.1500   46.6320 N   0  0  0  0  0  0  0  0  0  0  0  0
   36.5290   32.6030   50.5980 H   0  0  0  0  0  0  0  0  0  0  0  0
   38.1760   34.1630   49.7030 H   0  0  0  0  0  0  0  0  0  0  0  0
   40.3080   30.3300   46.6830 H   0  0  0  0  0  0  0  0  0  0  0  0
   39.5390   31.7790   45.7940 H   0  0  0  0  0  0  0  0  0  0  0  0
   34.8380   28.1530   48.9570 O   0  0  0  0  0  0  0  0  0  0  0  0
   33.6010   26.1930   47.8270 O   0  0  0  0  0  0  0  0  0  0  0  0
   33.6180   27.6850   47.9200 P   0  0  1  0  0  0  0  0  0  0  0  0
   32.0900   28.0870   48.6430 O   0  0  0  0  0  0  0  0  0  0  0  0
   32.2520   28.1060   49.6190 H   0  0  0  0  0  0  0  0  0  0  0  0
   33.7760   28.4710   46.4670 O   0  0  0  0  0  0  0  0  0  0  0  0
   33.2120   29.2610   45.6830 C   0  0  0  0  0  0  0  0  0  0  0  0
   32.6630   30.4560   46.1000 C   0  0  0  0  0  0  0  0  0  0  0  0
   32.6160   30.9090   47.1030 H   0  0  0  0  0  0  0  0  0  0  0  0
   32.0170   31.4480   45.4520 C   0  0  0  0  0  3  0  0  0  0  0  0
   31.9250   31.0940   43.9920 C   0  0  0  0  0  3  0  0  0  0  0  0
   32.7890   29.3840   43.8160 S   0  0  0  0  0  0  0  0  0  0  0  0
  1  2  1  0  0  0  0
  1  4  1  1  0  0  0
  2  5  1  0  0  0  0
  3  7  1  6  0  0  0
  3 19  1  0  0  0  0
  3  1  1  0  0  0  0
  3  2  1  0  0  0  0
  6  2  1  0  0  0  0
  8  1  1  0  0  0  0
  8  9  1  0  0  0  0
  9 15  1  0  0  0  0
 10 16  1  0  0  0  0
 10  9  2  0  0  0  0
 11 10  1  0  0  0  0
 12 13  1  0  0  0  0
 12 11  2  0  0  0  0
 13  8  2  0  0  0  0
 14 17  1  0  0  0  0
 14 12  1  0  0  0  0
 18 14  1  0  0  0  0
 21 20  2  6  0  0  0
 21 22  1  0  0  0  0
 21 19  1  0  0  0  0
 22 23  1  0  0  0  0
 24 21  1  0  0  0  0
 25 26  2  0  0  0  0
 25 24  1  0  0  0  0
 26 27  1  0  0  0  0
 28 26  1  0  0  0  0
 29 28  2  0  0  0  0
 30 29  1  0  0  0  0
 30 25  1  0  0  0  0
M  END
>  <minimizedAffinity>
-5.16705132

>  <minimizedRMSD>
3.0007863

$$$$
