REMARK  Name = 
REMARK  6 active torsions:
REMARK  status: ('A' for Active; 'I' for Inactive)
REMARK    1  A    between atoms: C_1  and  C_4
REMARK    2  A    between atoms: C_3  and  O_11
REMARK    3  A    between atoms: O_11  and  P_13
REMARK    4  A    between atoms: P_13  and  O_14
REMARK    5  A    between atoms: P_13  and  O_15
REMARK    6  A    between atoms: O_15  and  C_25
REMARK                            x       y       z     vdW  Elec       q    Type
REMARK                         _______ _______ _______ _____ _____    ______ ____
ROOT
ATOM      1  C   UNL     1      36.989  31.568  48.674  0.00  0.00    +0.000 C 
ATOM      2  C   UNL     1      36.215  30.925  47.639  0.00  0.00    +0.000 C 
ATOM      3  C   UNL     1      37.177  30.132  48.464  0.00  0.00    +0.000 C 
ATOM      4  H   UNL     1      36.547  31.833  49.696  0.00  0.00    +0.000 HD
ATOM      5  H   UNL     1      35.185  31.178  47.800  0.00  0.00    +0.000 HD
ATOM      6  H   UNL     1      36.528  31.131  46.594  0.00  0.00    +0.000 HD
ATOM      7  H   UNL     1      37.874  29.615  47.826  0.00  0.00    +0.000 HD
ENDROOT
BRANCH   1   8
ATOM      8  C   UNL     1      38.146  32.459  48.324  0.00  0.00    +0.000 A 
ATOM      9  C   UNL     1      38.529  33.386  49.318  0.00  0.00    +0.000 A 
ATOM     10  C   UNL     1      39.592  34.187  48.980  0.00  0.00    +0.000 A 
ATOM     11  N   UNL     1      40.194  34.060  47.776  0.00  0.00    +0.000 NA
ATOM     12  C   UNL     1      39.796  33.152  46.841  0.00  0.00    +0.000 A 
ATOM     13  N   UNL     1      38.736  32.332  47.137  0.00  0.00    +0.000 NA
ATOM     14  N   UNL     1      40.414  32.984  45.597  0.00  0.00    +0.000 N 
ATOM     15  H   UNL     1      38.062  33.494  50.272  0.00  0.00    +0.000 HD
ATOM     16  H   UNL     1      39.948  34.925  49.687  0.00  0.00    +0.000 HD
ATOM     17  H   UNL     1      40.852  32.092  45.270  0.00  0.00    +0.000 HD
ATOM     18  H   UNL     1      40.374  33.882  45.045  0.00  0.00    +0.000 HD
ENDBRANCH   1   8
BRANCH   3  19
ATOM     19  O   UNL     1      36.599  29.304  49.431  0.00  0.00    +0.000 OA
BRANCH  19  21
ATOM     20  O   UNL     1      34.624  27.666  49.686  0.00  0.00    +0.000 OA
ATOM     21  P   UNL     1      35.021  28.947  49.026  0.00  0.00    +0.000 P 
BRANCH  21  22
ATOM     22  O   UNL     1      33.980  30.140  49.744  0.00  0.00    +0.000 OA
ATOM     23  H   UNL     1      34.473  30.487  50.529  0.00  0.00    +0.000 HD
ENDBRANCH  21  22
BRANCH  21  24
ATOM     24  O   UNL     1      34.841  28.965  47.376  0.00  0.00    +0.000 OA
BRANCH  24  25
ATOM     25  C   UNL     1      35.305  28.517  46.308  0.00  0.00    +0.000 A 
ATOM     26  C   UNL     1      34.556  27.758  45.433  0.00  0.00    +0.000 A 
ATOM     27  H   UNL     1      33.505  27.428  45.493  0.00  0.00    +0.000 HD
ATOM     28  C   UNL     1      34.833  27.178  44.246  0.00  0.00    +0.000 A 
ATOM     29  C   UNL     1      36.264  27.470  43.887  0.00  0.00    +0.000 A 
ATOM     30  S   UNL     1      36.956  28.535  45.333  0.00  0.00    +0.000 S 
ENDBRANCH  24  25
ENDBRANCH  21  24
ENDBRANCH  19  21
ENDBRANCH   3  19
TORSDOF 6
