
 OpenBabel03272504563D

 30 32  0  0  1  0  0  0  0  0999 V2000
   36.5230   29.2570   49.9540 C   0  0  1  0  0  0  0  0  0  0  0  0
   35.6610   29.3480   51.1090 C   0  0  0  0  0  0  0  0  0  0  0  0
   35.0790   29.1540   49.7460 C   0  0  2  0  0  0  0  0  0  0  0  0
   37.0990   28.3030   49.6920 H   0  0  0  0  0  0  0  0  0  0  0  0
   36.0160   28.6430   51.8340 H   0  0  0  0  0  0  0  0  0  0  0  0
   35.5380   30.3600   51.5490 H   0  0  0  0  0  0  0  0  0  0  0  0
   34.3560   29.9260   49.5380 H   0  0  0  0  0  0  0  0  0  0  0  0
   37.2000   30.4800   49.4040 C   0  0  0  0  0  0  0  0  0  0  0  0
   36.9020   31.6940   50.0620 C   0  0  0  0  0  0  0  0  0  0  0  0
   37.5350   32.7980   49.5470 C   0  0  0  0  0  0  0  0  0  0  0  0
   38.3710   32.6820   48.4900 N   0  0  0  0  0  0  0  0  0  0  0  0
   38.6340   31.4920   47.8810 C   0  0  0  0  0  0  0  0  0  0  0  0
   38.0220   30.3620   48.3630 N   0  0  0  0  0  0  0  0  0  0  0  0
   39.5110   31.3400   46.8020 N   0  0  0  0  0  0  0  0  0  0  0  0
   36.2450   31.7960   50.8970 H   0  0  0  0  0  0  0  0  0  0  0  0
   37.3610   33.7680   49.9940 H   0  0  0  0  0  0  0  0  0  0  0  0
   40.3620   30.7320   46.8120 H   0  0  0  0  0  0  0  0  0  0  0  0
   39.1900   31.9250   45.9850 H   0  0  0  0  0  0  0  0  0  0  0  0
   34.6020   27.8680   49.4740 O   0  0  0  0  0  0  0  0  0  0  0  0
   32.9830   26.5540   47.9580 O   0  0  0  0  0  0  0  0  0  0  0  0
   33.3030   27.9350   48.4300 P   0  0  1  0  0  0  0  0  0  0  0  0
   31.8950   28.4200   49.3260 O   0  0  0  0  0  0  0  0  0  0  0  0
   32.0680   28.1490   50.2620 H   0  0  0  0  0  0  0  0  0  0  0  0
   33.6040   29.0320   47.2200 O   0  0  0  0  0  0  0  0  0  0  0  0
   34.2480   29.2190   46.1690 C   0  0  0  0  0  0  0  0  0  0  0  0
   35.3560   30.0390   46.1120 C   0  0  0  0  0  0  0  0  0  0  0  0
   35.8460   30.6340   46.9020 H   0  0  0  0  0  0  0  0  0  0  0  0
   36.1940   30.3890   45.1130 C   0  0  0  0  0  3  0  0  0  0  0  0
   35.7560   29.6990   43.8500 C   0  0  0  0  0  3  0  0  0  0  0  0
   34.2060   28.6660   44.3330 S   0  0  0  0  0  0  0  0  0  0  0  0
  1  4  1  6  0  0  0
  1  2  1  0  0  0  0
  2  6  1  0  0  0  0
  2  5  1  0  0  0  0
  3  7  1  6  0  0  0
  3  1  1  0  0  0  0
  3  2  1  0  0  0  0
  8  1  1  0  0  0  0
  8  9  1  0  0  0  0
  9 15  1  0  0  0  0
 10 16  1  0  0  0  0
 10  9  2  0  0  0  0
 11 10  1  0  0  0  0
 12 13  1  0  0  0  0
 12 11  2  0  0  0  0
 13  8  2  0  0  0  0
 14 17  1  0  0  0  0
 14 12  1  0  0  0  0
 18 14  1  0  0  0  0
 19  3  1  0  0  0  0
 21 20  2  6  0  0  0
 21 22  1  0  0  0  0
 21 19  1  0  0  0  0
 22 23  1  0  0  0  0
 24 21  1  0  0  0  0
 25 24  1  0  0  0  0
 26 25  2  0  0  0  0
 26 27  1  0  0  0  0
 28 26  1  0  0  0  0
 29 30  1  0  0  0  0
 29 28  2  0  0  0  0
 30 25  1  0  0  0  0
M  END
>  <minimizedAffinity>
-5.4030652

>  <minimizedRMSD>
2.37717605

$$$$
