
 OpenBabel03272503473D

 26 28  0  0  0  0  0  0  0  0999 V2000
   35.5850   30.3310   46.6720 O   0  0  0  0  0  0  0  0  0  0  0  0
   34.3130   30.0630   47.4430 P   0  0  2  0  0  0  0  0  0  0  0  0
   33.1060   30.9930   46.6990 O   0  0  0  0  0  0  0  0  0  0  0  0
   32.4990   30.4240   46.1530 H   0  0  0  0  0  0  0  0  0  0  0  0
   34.4620   30.5270   49.0960 O   0  0  0  0  0  0  0  0  0  0  0  0
   35.6540   30.4250   49.7900 C   0  0  0  0  0  0  0  0  0  0  0  0
   35.9690   29.4310   50.7260 C   0  0  0  0  0  0  0  0  0  0  0  0
   37.2200   29.4690   51.3430 C   0  0  0  0  0  0  0  0  0  0  0  0
   38.0770   30.4720   51.0070 N   0  0  0  0  0  0  0  0  0  0  0  0
   37.7370   31.4190   50.0970 C   0  0  0  0  0  0  0  0  0  0  0  0
   36.5210   31.4060   49.4790 N   0  0  0  0  0  0  0  0  0  0  0  0
   35.2190   28.7000   50.9050 H   0  0  0  0  0  0  0  0  0  0  0  0
   37.4360   28.6940   52.0560 H   0  0  0  0  0  0  0  0  0  0  0  0
   38.4890   32.1800   49.8940 H   0  0  0  0  0  0  0  0  0  0  0  0
   33.9030   28.4230   47.4510 O   0  0  0  0  0  0  0  0  0  0  0  0
   33.8130   27.7460   46.2430 C   0  0  0  0  0  0  0  0  0  0  0  0
   34.1920   28.2020   44.9990 C   0  0  0  0  0  0  0  0  0  0  0  0
   34.6020   29.1940   44.9740 H   0  0  0  0  0  0  0  0  0  0  0  0
   34.0420   27.4130   43.8770 C   0  0  0  0  0  3  0  0  0  0  0  0
   33.5040   26.1240   43.9460 C   0  0  0  0  0  3  0  0  0  0  0  0
   33.1330   25.6900   45.2020 C   0  0  0  0  0  0  0  0  0  0  0  0
   32.5990   24.4000   45.2350 C   0  0  0  0  0  3  0  0  0  0  0  0
   32.2140   23.9280   46.4810 C   0  0  0  0  0  3  0  0  0  0  0  0
   32.3300   24.6540   47.6580 C   0  0  0  0  0  3  0  0  0  0  0  0
   32.8660   25.9200   47.5360 C   0  0  0  0  0  3  0  0  0  0  0  0
   33.2740   26.4630   46.3360 C   0  0  0  0  0  0  0  0  0  0  0  0
  2  1  2  6  0  0  0
  2 15  1  0  0  0  0
  2  5  1  0  0  0  0
  3  2  1  0  0  0  0
  4  3  1  0  0  0  0
  5  6  1  0  0  0  0
  6  7  1  0  0  0  0
  7 12  1  0  0  0  0
  7  8  2  0  0  0  0
  8 13  1  0  0  0  0
  9  8  1  0  0  0  0
 10  9  2  0  0  0  0
 11  6  2  0  0  0  0
 11 10  1  0  0  0  0
 14 10  1  0  0  0  0
 16 26  1  0  0  0  0
 16 15  1  0  0  0  0
 17 16  2  0  0  0  0
 18 17  1  0  0  0  0
 19 20  2  0  0  0  0
 19 17  1  0  0  0  0
 20 21  1  0  0  0  0
 21 22  2  0  0  0  0
 21 26  1  0  0  0  0
 22 23  1  0  0  0  0
 23 24  2  0  0  0  0
 25 24  1  0  0  0  0
 26 25  2  0  0  0  0
M  END
>  <minimizedAffinity>
-4.57184553

>  <minimizedRMSD>
0.389857829

$$$$
