
 OpenBabel03262521393D

 31 34  0  0  0  0  0  0  0  0999 V2000
   38.2860   22.2230   33.2630 F   0  0  0  0  0  0  0  0  0  0  0  0
   37.4070   23.1140   32.6760 C   0  0  0  0  0  0  0  0  0  0  0  0
   36.2870   22.6790   31.9760 C   0  0  0  0  0  0  0  0  0  0  0  0
   35.4340   23.6110   31.4040 C   0  0  0  0  0  0  0  0  0  0  0  0
   35.7000   24.9710   31.5320 C   0  0  0  0  0  0  0  0  0  0  0  0
   36.8280   25.3530   32.2390 C   0  0  0  0  0  0  0  0  0  0  0  0
   37.6850   24.4550   32.8120 C   0  0  0  0  0  0  0  0  0  0  0  0
   34.5700   23.2690   30.8640 H   0  0  0  0  0  0  0  0  0  0  0  0
   35.0490   25.7200   31.0950 H   0  0  0  0  0  0  0  0  0  0  0  0
   37.0740   26.4070   32.3630 H   0  0  0  0  0  0  0  0  0  0  0  0
   35.5490   20.6770   33.0160 C   0  0  0  0  0  0  0  0  0  0  0  0
   36.0980   21.2680   31.8980 C   0  0  0  0  0  0  0  0  0  0  0  0
   36.4060   20.4230   30.8170 C   0  0  0  0  0  0  0  0  0  0  0  0
   36.1400   19.0900   30.9570 N   0  0  0  0  0  0  0  0  0  0  0  0
   35.6080   18.5670   32.0610 C   0  0  0  0  0  0  0  0  0  0  0  0
   35.3020   19.3500   33.1100 N   0  0  0  0  0  0  0  0  0  0  0  0
   35.2750   21.2430   33.9060 H   0  0  0  0  0  0  0  0  0  0  0  0
   36.8270   20.9070   29.9720 H   0  0  0  0  0  0  0  0  0  0  0  0
   35.4040   17.5090   32.1540 H   0  0  0  0  0  0  0  0  0  0  0  0
   39.1400   24.9800   33.7230 S   0  0  0  0  0  0  0  0  0  0  0  0
   39.0990   24.2810   35.3620 C   0  0  0  0  0  0  0  0  0  0  0  0
   38.0330   24.7070   36.1550 C   0  0  0  0  0  0  0  0  0  0  0  0
   37.2860   25.4080   35.8030 H   0  0  0  0  0  0  0  0  0  0  0  0
   37.8450   24.2680   37.4490 C   0  0  0  0  0  3  0  0  0  0  0  0
   38.7570   23.3710   37.9690 C   0  0  0  0  0  3  0  0  0  0  0  0
   39.8080   22.9540   37.1850 C   0  0  0  0  0  0  0  0  0  0  0  0
   40.7480   22.0520   37.6720 C   0  0  0  0  0  3  0  0  0  0  0  0
   41.8060   21.6430   36.8570 C   0  0  0  0  0  3  0  0  0  0  0  0
   41.9540   22.1100   35.5610 C   0  0  0  0  0  3  0  0  0  0  0  0
   41.0260   23.0100   35.0610 C   0  0  0  0  0  3  0  0  0  0  0  0
   40.0090   23.3820   35.8930 C   0  0  0  0  0  0  0  0  0  0  0  0
  2  7  1  0  0  0  0
  2  1  1  0  0  0  0
  3  2  2  0  0  0  0
  4  5  2  0  0  0  0
  4  3  1  0  0  0  0
  5  6  1  0  0  0  0
  6 10  1  0  0  0  0
  6  7  2  0  0  0  0
  7 20  1  0  0  0  0
  8  4  1  0  0  0  0
  9  5  1  0  0  0  0
 11 16  1  0  0  0  0
 11 17  1  0  0  0  0
 12  3  1  0  0  0  0
 12 11  2  0  0  0  0
 13 14  2  0  0  0  0
 13 12  1  0  0  0  0
 14 15  1  0  0  0  0
 15 19  1  0  0  0  0
 15 16  2  0  0  0  0
 18 13  1  0  0  0  0
 20 21  1  0  0  0  0
 21 31  2  0  0  0  0
 21 22  1  0  0  0  0
 22 24  2  0  0  0  0
 23 22  1  0  0  0  0
 24 25  1  0  0  0  0
 26 27  1  0  0  0  0
 26 25  2  0  0  0  0
 28 27  2  0  0  0  0
 29 28  1  0  0  0  0
 30 29  2  0  0  0  0
 30 31  1  0  0  0  0
 31 26  1  0  0  0  0
M  END
>  <minimizedAffinity>
-6.52438164

$$$$

 OpenBabel03262521393D

 31 34  0  0  0  0  0  0  0  0999 V2000
   38.8390   21.7390   33.0570 F   0  0  0  0  0  0  0  0  0  0  0  0
   38.0050   22.7710   32.6690 C   0  0  0  0  0  0  0  0  0  0  0  0
   36.7400   22.5280   32.1430 C   0  0  0  0  0  0  0  0  0  0  0  0
   35.9400   23.5950   31.7670 C   0  0  0  0  0  0  0  0  0  0  0  0
   36.4010   24.9000   31.9160 C   0  0  0  0  0  0  0  0  0  0  0  0
   37.6670   25.0900   32.4450 C   0  0  0  0  0  0  0  0  0  0  0  0
   38.4760   24.0550   32.8230 C   0  0  0  0  0  0  0  0  0  0  0  0
   34.9640   23.4020   31.3610 H   0  0  0  0  0  0  0  0  0  0  0  0
   35.7950   25.7520   31.6310 H   0  0  0  0  0  0  0  0  0  0  0  0
   38.0680   26.0940   32.5790 H   0  0  0  0  0  0  0  0  0  0  0  0
   35.8210   20.5920   33.1650 C   0  0  0  0  0  0  0  0  0  0  0  0
   36.3550   21.1590   32.0270 C   0  0  0  0  0  0  0  0  0  0  0  0
   36.4590   20.3360   30.8920 C   0  0  0  0  0  0  0  0  0  0  0  0
   36.0260   19.0450   31.0040 N   0  0  0  0  0  0  0  0  0  0  0  0
   35.5170   18.5430   32.1280 C   0  0  0  0  0  0  0  0  0  0  0  0
   35.4050   19.3060   33.2280 N   0  0  0  0  0  0  0  0  0  0  0  0
   35.6990   21.1450   34.0960 H   0  0  0  0  0  0  0  0  0  0  0  0
   36.8730   20.8010   30.0340 H   0  0  0  0  0  0  0  0  0  0  0  0
   35.1790   17.5180   32.1970 H   0  0  0  0  0  0  0  0  0  0  0  0
   40.1140   24.3310   33.5050 S   0  0  0  0  0  0  0  0  0  0  0  0
   40.2560   23.4860   35.0690 C   0  0  0  0  0  0  0  0  0  0  0  0
   41.2350   22.4920   35.1100 C   0  0  0  0  0  0  0  0  0  0  0  0
   41.8610   22.2510   34.2600 H   0  0  0  0  0  0  0  0  0  0  0  0
   41.4830   21.7370   36.2390 C   0  0  0  0  0  3  0  0  0  0  0  0
   40.7240   21.9860   37.3640 C   0  0  0  0  0  3  0  0  0  0  0  0
   39.7600   22.9660   37.3200 C   0  0  0  0  0  0  0  0  0  0  0  0
   38.9740   23.2460   38.4330 C   0  0  0  0  0  3  0  0  0  0  0  0
   38.0010   24.2460   38.3630 C   0  0  0  0  0  3  0  0  0  0  0  0
   37.7870   24.9790   37.2070 C   0  0  0  0  0  3  0  0  0  0  0  0
   38.5620   24.7120   36.0890 C   0  0  0  0  0  3  0  0  0  0  0  0
   39.5000   23.7270   36.2030 C   0  0  0  0  0  0  0  0  0  0  0  0
  2  7  1  0  0  0  0
  2  1  1  0  0  0  0
  3  2  2  0  0  0  0
  4  5  2  0  0  0  0
  4  3  1  0  0  0  0
  5  6  1  0  0  0  0
  6 10  1  0  0  0  0
  6  7  2  0  0  0  0
  7 20  1  0  0  0  0
  8  4  1  0  0  0  0
  9  5  1  0  0  0  0
 11 16  1  0  0  0  0
 11 17  1  0  0  0  0
 12  3  1  0  0  0  0
 12 11  2  0  0  0  0
 13 14  2  0  0  0  0
 13 12  1  0  0  0  0
 14 15  1  0  0  0  0
 15 19  1  0  0  0  0
 15 16  2  0  0  0  0
 18 13  1  0  0  0  0
 20 21  1  0  0  0  0
 21 22  2  0  0  0  0
 21 31  1  0  0  0  0
 22 24  1  0  0  0  0
 23 22  1  0  0  0  0
 24 25  2  0  0  0  0
 26 25  1  0  0  0  0
 26 27  1  0  0  0  0
 28 27  2  0  0  0  0
 29 28  1  0  0  0  0
 30 31  1  0  0  0  0
 30 29  2  0  0  0  0
 31 26  2  0  0  0  0
M  END
>  <minimizedAffinity>
-6.23861265

$$$$

 OpenBabel03262521393D

 31 34  0  0  0  0  0  0  0  0999 V2000
   38.1250   25.0180   32.3100 F   0  0  0  0  0  0  0  0  0  0  0  0
   38.1990   25.6370   33.5440 C   0  0  0  0  0  0  0  0  0  0  0  0
   37.8260   26.9660   33.7170 C   0  0  0  0  0  0  0  0  0  0  0  0
   37.9190   27.5440   34.9730 C   0  0  0  0  0  0  0  0  0  0  0  0
   38.3820   26.7960   36.0530 C   0  0  0  0  0  0  0  0  0  0  0  0
   38.7420   25.4780   35.8290 C   0  0  0  0  0  0  0  0  0  0  0  0
   38.6600   24.8840   34.6000 C   0  0  0  0  0  0  0  0  0  0  0  0
   37.6290   28.5710   35.1010 H   0  0  0  0  0  0  0  0  0  0  0  0
   38.4640   27.2250   37.0450 H   0  0  0  0  0  0  0  0  0  0  0  0
   39.1100   24.8570   36.6450 H   0  0  0  0  0  0  0  0  0  0  0  0
   38.3160   27.8880   31.5850 C   0  0  0  0  0  0  0  0  0  0  0  0
   37.3640   27.6500   32.5530 C   0  0  0  0  0  0  0  0  0  0  0  0
   36.0590   28.1020   32.2900 C   0  0  0  0  0  0  0  0  0  0  0  0
   35.8360   28.7390   31.1020 N   0  0  0  0  0  0  0  0  0  0  0  0
   36.7920   28.9460   30.1970 C   0  0  0  0  0  0  0  0  0  0  0  0
   38.0480   28.5250   30.4210 N   0  0  0  0  0  0  0  0  0  0  0  0
   39.3550   27.5790   31.6930 H   0  0  0  0  0  0  0  0  0  0  0  0
   35.3500   27.9040   33.0540 H   0  0  0  0  0  0  0  0  0  0  0  0
   36.5970   29.4520   29.2610 H   0  0  0  0  0  0  0  0  0  0  0  0
   39.1330   23.1720   34.3400 S   0  0  0  0  0  0  0  0  0  0  0  0
   37.6890   22.1330   34.4550 C   0  0  0  0  0  0  0  0  0  0  0  0
   37.2620   21.8660   35.7560 C   0  0  0  0  0  0  0  0  0  0  0  0
   37.7660   22.2590   36.6300 H   0  0  0  0  0  0  0  0  0  0  0  0
   36.1610   21.0800   36.0320 C   0  0  0  0  0  3  0  0  0  0  0  0
   35.4650   20.5420   34.9680 C   0  0  0  0  0  3  0  0  0  0  0  0
   35.8900   20.8070   33.6870 C   0  0  0  0  0  0  0  0  0  0  0  0
   35.2170   20.2830   32.5880 C   0  0  0  0  0  3  0  0  0  0  0  0
   35.6670   20.5660   31.2960 C   0  0  0  0  0  3  0  0  0  0  0  0
   36.7770   21.3620   31.0670 C   0  0  0  0  0  3  0  0  0  0  0  0
   37.4610   21.8910   32.1510 C   0  0  0  0  0  3  0  0  0  0  0  0
   36.9850   21.5880   33.3950 C   0  0  0  0  0  0  0  0  0  0  0  0
  1  2  1  0  0  0  0
  2  3  2  0  0  0  0
  2  7  1  0  0  0  0
  3  4  1  0  0  0  0
  4  8  1  0  0  0  0
  4  5  2  0  0  0  0
  5  9  1  0  0  0  0
  6  5  1  0  0  0  0
  6 10  1  0  0  0  0
  7  6  2  0  0  0  0
 11 17  1  0  0  0  0
 11 12  1  0  0  0  0
 12  3  1  0  0  0  0
 13 12  2  0  0  0  0
 13 18  1  0  0  0  0
 14 13  1  0  0  0  0
 15 16  1  0  0  0  0
 15 14  2  0  0  0  0
 16 11  2  0  0  0  0
 19 15  1  0  0  0  0
 20 21  1  0  0  0  0
 20  7  1  0  0  0  0
 21 22  1  0  0  0  0
 22 24  2  0  0  0  0
 22 23  1  0  0  0  0
 25 24  1  0  0  0  0
 26 25  2  0  0  0  0
 27 26  1  0  0  0  0
 28 27  2  0  0  0  0
 29 28  1  0  0  0  0
 29 30  2  0  0  0  0
 30 31  1  0  0  0  0
 31 26  1  0  0  0  0
 31 21  2  0  0  0  0
M  END
>  <minimizedAffinity>
-6.1636138

$$$$

 OpenBabel03262521393D

 31 34  0  0  0  0  0  0  0  0999 V2000
   35.6860   28.3270   34.4000 F   0  0  0  0  0  0  0  0  0  0  0  0
   36.4180   28.3410   33.2280 C   0  0  0  0  0  0  0  0  0  0  0  0
   37.5170   27.5090   33.0440 C   0  0  0  0  0  0  0  0  0  0  0  0
   38.2210   27.5610   31.8500 C   0  0  0  0  0  0  0  0  0  0  0  0
   37.8270   28.4390   30.8450 C   0  0  0  0  0  0  0  0  0  0  0  0
   36.7260   29.2470   31.0770 C   0  0  0  0  0  0  0  0  0  0  0  0
   36.0150   29.2170   32.2440 C   0  0  0  0  0  0  0  0  0  0  0  0
   39.0690   26.9150   31.7140 H   0  0  0  0  0  0  0  0  0  0  0  0
   38.3600   28.4980   29.9030 H   0  0  0  0  0  0  0  0  0  0  0  0
   36.3840   29.9490   30.3180 H   0  0  0  0  0  0  0  0  0  0  0  0
   37.7930   25.2940   33.8520 C   0  0  0  0  0  0  0  0  0  0  0  0
   37.8450   26.6440   34.1290 C   0  0  0  0  0  0  0  0  0  0  0  0
   38.2100   27.0140   35.4360 C   0  0  0  0  0  0  0  0  0  0  0  0
   38.4840   26.0120   36.3240 N   0  0  0  0  0  0  0  0  0  0  0  0
   38.4200   24.7200   36.0070 C   0  0  0  0  0  0  0  0  0  0  0  0
   38.0740   24.3370   34.7660 N   0  0  0  0  0  0  0  0  0  0  0  0
   37.5200   24.9050   32.8720 H   0  0  0  0  0  0  0  0  0  0  0  0
   38.2410   28.0580   35.6170 H   0  0  0  0  0  0  0  0  0  0  0  0
   38.6410   23.9410   36.7240 H   0  0  0  0  0  0  0  0  0  0  0  0
   34.5920   30.2760   32.5160 S   0  0  0  0  0  0  0  0  0  0  0  0
   34.8320   31.2240   34.0070 C   0  0  0  0  0  0  0  0  0  0  0  0
   35.9170   32.1010   33.9740 C   0  0  0  0  0  0  0  0  0  0  0  0
   36.5640   32.2000   33.1110 H   0  0  0  0  0  0  0  0  0  0  0  0
   36.2510   32.9120   35.0390 C   0  0  0  0  0  3  0  0  0  0  0  0
   35.4730   32.8420   36.1770 C   0  0  0  0  0  3  0  0  0  0  0  0
   34.4040   31.9760   36.2060 C   0  0  0  0  0  0  0  0  0  0  0  0
   33.5960   31.8760   37.3330 C   0  0  0  0  0  3  0  0  0  0  0  0
   32.5160   30.9900   37.3390 C   0  0  0  0  0  3  0  0  0  0  0  0
   32.2180   30.1940   36.2440 C   0  0  0  0  0  3  0  0  0  0  0  0
   33.0140   30.2810   35.1130 C   0  0  0  0  0  3  0  0  0  0  0  0
   34.0580   31.1610   35.1520 C   0  0  0  0  0  0  0  0  0  0  0  0
  2  1  1  0  0  0  0
  3  2  1  0  0  0  0
  3 12  1  0  0  0  0
  4  3  2  0  0  0  0
  5  6  2  0  0  0  0
  5  4  1  0  0  0  0
  6  7  1  0  0  0  0
  7 20  1  0  0  0  0
  7  2  2  0  0  0  0
  8  4  1  0  0  0  0
  9  5  1  0  0  0  0
 10  6  1  0  0  0  0
 11 12  2  0  0  0  0
 11 16  1  0  0  0  0
 12 13  1  0  0  0  0
 13 18  1  0  0  0  0
 13 14  2  0  0  0  0
 15 14  1  0  0  0  0
 15 19  1  0  0  0  0
 16 15  2  0  0  0  0
 17 11  1  0  0  0  0
 20 21  1  0  0  0  0
 21 31  1  0  0  0  0
 22 21  2  0  0  0  0
 22 24  1  0  0  0  0
 23 22  1  0  0  0  0
 24 25  2  0  0  0  0
 25 26  1  0  0  0  0
 26 27  1  0  0  0  0
 27 28  2  0  0  0  0
 29 28  1  0  0  0  0
 30 31  1  0  0  0  0
 30 29  2  0  0  0  0
 31 26  2  0  0  0  0
M  END
>  <minimizedAffinity>
-6.14312601

$$$$

 OpenBabel03262521393D

 31 34  0  0  0  0  0  0  0  0999 V2000
   37.3670   23.6110   33.9730 F   0  0  0  0  0  0  0  0  0  0  0  0
   38.1270   24.7500   33.7840 C   0  0  0  0  0  0  0  0  0  0  0  0
   38.9740   25.2350   34.7760 C   0  0  0  0  0  0  0  0  0  0  0  0
   39.7160   26.3820   34.5400 C   0  0  0  0  0  0  0  0  0  0  0  0
   39.6140   27.0400   33.3180 C   0  0  0  0  0  0  0  0  0  0  0  0
   38.7570   26.5170   32.3630 C   0  0  0  0  0  0  0  0  0  0  0  0
   38.0140   25.3890   32.5700 C   0  0  0  0  0  0  0  0  0  0  0  0
   40.3680   26.7520   35.3100 H   0  0  0  0  0  0  0  0  0  0  0  0
   40.1840   27.9380   33.1080 H   0  0  0  0  0  0  0  0  0  0  0  0
   38.6470   27.0010   31.3930 H   0  0  0  0  0  0  0  0  0  0  0  0
   38.1020   24.8810   36.9550 C   0  0  0  0  0  0  0  0  0  0  0  0
   39.0110   24.4940   35.9940 C   0  0  0  0  0  0  0  0  0  0  0  0
   39.8650   23.4240   36.3160 C   0  0  0  0  0  0  0  0  0  0  0  0
   39.7280   22.8540   37.5510 N   0  0  0  0  0  0  0  0  0  0  0  0
   38.8320   23.2650   38.4470 C   0  0  0  0  0  0  0  0  0  0  0  0
   38.0030   24.2850   38.1660 N   0  0  0  0  0  0  0  0  0  0  0  0
   37.3980   25.6990   36.8040 H   0  0  0  0  0  0  0  0  0  0  0  0
   40.5510   23.1500   35.5560 H   0  0  0  0  0  0  0  0  0  0  0  0
   38.7380   22.8010   39.4200 H   0  0  0  0  0  0  0  0  0  0  0  0
   36.9120   24.7350   31.3130 S   0  0  0  0  0  0  0  0  0  0  0  0
   37.4260   23.0850   30.8730 C   0  0  0  0  0  0  0  0  0  0  0  0
   38.6430   23.0120   30.1940 C   0  0  0  0  0  0  0  0  0  0  0  0
   39.2320   23.8890   29.9530 H   0  0  0  0  0  0  0  0  0  0  0  0
   39.1930   21.8170   29.7770 C   0  0  0  0  0  3  0  0  0  0  0  0
   38.5000   20.6550   30.0490 C   0  0  0  0  0  3  0  0  0  0  0  0
   37.3000   20.7300   30.7170 C   0  0  0  0  0  0  0  0  0  0  0  0
   36.5720   19.5820   31.0090 C   0  0  0  0  0  3  0  0  0  0  0  0
   35.3550   19.6840   31.6900 C   0  0  0  0  0  3  0  0  0  0  0  0
   34.8420   20.9070   32.0900 C   0  0  0  0  0  3  0  0  0  0  0  0
   35.5560   22.0610   31.8060 C   0  0  0  0  0  3  0  0  0  0  0  0
   36.7390   21.9140   31.1400 C   0  0  0  0  0  0  0  0  0  0  0  0
  2  1  1  0  0  0  0
  2  3  1  0  0  0  0
  3 12  1  0  0  0  0
  4  3  2  0  0  0  0
  4  8  1  0  0  0  0
  5  4  1  0  0  0  0
  6  7  1  0  0  0  0
  6  5  2  0  0  0  0
  7  2  2  0  0  0  0
  9  5  1  0  0  0  0
 10  6  1  0  0  0  0
 11 16  1  0  0  0  0
 12 13  1  0  0  0  0
 12 11  2  0  0  0  0
 13 14  2  0  0  0  0
 14 15  1  0  0  0  0
 15 19  1  0  0  0  0
 16 15  2  0  0  0  0
 17 11  1  0  0  0  0
 18 13  1  0  0  0  0
 20  7  1  0  0  0  0
 21 31  1  0  0  0  0
 21 20  1  0  0  0  0
 22 21  2  0  0  0  0
 23 22  1  0  0  0  0
 24 25  2  0  0  0  0
 24 22  1  0  0  0  0
 25 26  1  0  0  0  0
 26 27  2  0  0  0  0
 26 31  1  0  0  0  0
 27 28  1  0  0  0  0
 28 29  2  0  0  0  0
 30 29  1  0  0  0  0
 31 30  2  0  0  0  0
M  END
>  <minimizedAffinity>
-6.06560612

$$$$

 OpenBabel03262521393D

 31 34  0  0  0  0  0  0  0  0999 V2000
   35.9380   28.9890   34.4640 F   0  0  0  0  0  0  0  0  0  0  0  0
   36.3380   28.7150   33.1700 C   0  0  0  0  0  0  0  0  0  0  0  0
   37.2230   27.6810   32.8830 C   0  0  0  0  0  0  0  0  0  0  0  0
   37.5960   27.4440   31.5690 C   0  0  0  0  0  0  0  0  0  0  0  0
   37.0860   28.2380   30.5460 C   0  0  0  0  0  0  0  0  0  0  0  0
   36.2080   29.2550   30.8820 C   0  0  0  0  0  0  0  0  0  0  0  0
   35.8250   29.5090   32.1700 C   0  0  0  0  0  0  0  0  0  0  0  0
   38.2800   26.6440   31.3540 H   0  0  0  0  0  0  0  0  0  0  0  0
   37.3610   28.0740   29.5100 H   0  0  0  0  0  0  0  0  0  0  0  0
   35.7850   29.9000   30.1130 H   0  0  0  0  0  0  0  0  0  0  0  0
   37.6140   25.5530   33.8610 C   0  0  0  0  0  0  0  0  0  0  0  0
   37.6920   26.9230   33.9970 C   0  0  0  0  0  0  0  0  0  0  0  0
   38.2200   27.4150   35.2030 C   0  0  0  0  0  0  0  0  0  0  0  0
   38.6120   26.5030   36.1430 N   0  0  0  0  0  0  0  0  0  0  0  0
   38.5150   25.1860   35.9630 C   0  0  0  0  0  0  0  0  0  0  0  0
   38.0150   24.6870   34.8210 N   0  0  0  0  0  0  0  0  0  0  0  0
   37.2200   25.0720   32.9660 H   0  0  0  0  0  0  0  0  0  0  0  0
   38.2670   28.4720   35.2770 H   0  0  0  0  0  0  0  0  0  0  0  0
   38.8310   24.4790   36.7190 H   0  0  0  0  0  0  0  0  0  0  0  0
   34.6840   30.8350   32.5760 S   0  0  0  0  0  0  0  0  0  0  0  0
   33.3450   30.1870   33.5580 C   0  0  0  0  0  0  0  0  0  0  0  0
   32.5010   29.3010   32.8850 C   0  0  0  0  0  0  0  0  0  0  0  0
   32.6480   29.0270   31.8480 H   0  0  0  0  0  0  0  0  0  0  0  0
   31.4140   28.7040   33.4900 C   0  0  0  0  0  3  0  0  0  0  0  0
   31.1620   29.0040   34.8140 C   0  0  0  0  0  3  0  0  0  0  0  0
   31.9950   29.8780   35.4730 C   0  0  0  0  0  0  0  0  0  0  0  0
   31.7750   30.2070   36.8060 C   0  0  0  0  0  3  0  0  0  0  0  0
   32.6350   31.0970   37.4550 C   0  0  0  0  0  3  0  0  0  0  0  0
   33.7160   31.6720   36.8070 C   0  0  0  0  0  3  0  0  0  0  0  0
   33.9490   31.3560   35.4770 C   0  0  0  0  0  3  0  0  0  0  0  0
   33.0830   30.4810   34.8850 C   0  0  0  0  0  0  0  0  0  0  0  0
  2  1  1  0  0  0  0
  3  2  1  0  0  0  0
  3 12  1  0  0  0  0
  4  3  2  0  0  0  0
  5  6  2  0  0  0  0
  5  4  1  0  0  0  0
  6  7  1  0  0  0  0
  7 20  1  0  0  0  0
  7  2  2  0  0  0  0
  8  4  1  0  0  0  0
  9  5  1  0  0  0  0
 10  6  1  0  0  0  0
 11 12  2  0  0  0  0
 11 16  1  0  0  0  0
 12 13  1  0  0  0  0
 13 18  1  0  0  0  0
 13 14  2  0  0  0  0
 15 14  1  0  0  0  0
 15 19  1  0  0  0  0
 16 15  2  0  0  0  0
 17 11  1  0  0  0  0
 20 21  1  0  0  0  0
 21 31  1  0  0  0  0
 22 24  1  0  0  0  0
 22 21  2  0  0  0  0
 23 22  1  0  0  0  0
 24 25  2  0  0  0  0
 25 26  1  0  0  0  0
 26 27  1  0  0  0  0
 27 28  2  0  0  0  0
 29 28  1  0  0  0  0
 30 29  2  0  0  0  0
 31 26  2  0  0  0  0
 31 30  1  0  0  0  0
M  END
>  <minimizedAffinity>
-6.04735231

$$$$

 OpenBabel03262521393D

 31 34  0  0  0  0  0  0  0  0999 V2000
   38.4630   27.4000   32.6570 F   0  0  0  0  0  0  0  0  0  0  0  0
   37.6240   26.3780   32.2570 C   0  0  0  0  0  0  0  0  0  0  0  0
   36.4090   26.6340   31.6300 C   0  0  0  0  0  0  0  0  0  0  0  0
   35.6000   25.5750   31.2480 C   0  0  0  0  0  0  0  0  0  0  0  0
   36.0050   24.2650   31.4900 C   0  0  0  0  0  0  0  0  0  0  0  0
   37.2230   24.0620   32.1160 C   0  0  0  0  0  0  0  0  0  0  0  0
   38.0390   25.0880   32.5040 C   0  0  0  0  0  0  0  0  0  0  0  0
   34.6620   25.7800   30.7640 H   0  0  0  0  0  0  0  0  0  0  0  0
   35.3910   23.4200   31.2000 H   0  0  0  0  0  0  0  0  0  0  0  0
   37.5780   23.0540   32.3250 H   0  0  0  0  0  0  0  0  0  0  0  0
   35.1850   28.5460   32.3260 C   0  0  0  0  0  0  0  0  0  0  0  0
   36.0800   28.0070   31.4260 C   0  0  0  0  0  0  0  0  0  0  0  0
   36.5630   28.8600   30.4180 C   0  0  0  0  0  0  0  0  0  0  0  0
   36.1110   30.1500   30.4090 N   0  0  0  0  0  0  0  0  0  0  0  0
   35.2440   30.6230   31.3030 C   0  0  0  0  0  0  0  0  0  0  0  0
   34.7660   29.8310   32.2770 N   0  0  0  0  0  0  0  0  0  0  0  0
   34.7520   27.9680   33.1420 H   0  0  0  0  0  0  0  0  0  0  0  0
   37.2490   28.4160   29.7430 H   0  0  0  0  0  0  0  0  0  0  0  0
   34.8980   31.6480   31.2800 H   0  0  0  0  0  0  0  0  0  0  0  0
   39.6130   24.7950   33.3150 S   0  0  0  0  0  0  0  0  0  0  0  0
   39.3280   24.2490   34.9880 C   0  0  0  0  0  0  0  0  0  0  0  0
   38.1940   24.7920   35.5950 C   0  0  0  0  0  0  0  0  0  0  0  0
   37.5380   25.4900   35.0910 H   0  0  0  0  0  0  0  0  0  0  0  0
   37.8210   24.4810   36.8870 C   0  0  0  0  0  3  0  0  0  0  0  0
   38.6100   23.5980   37.5960 C   0  0  0  0  0  3  0  0  0  0  0  0
   39.7270   23.0650   36.9940 C   0  0  0  0  0  0  0  0  0  0  0  0
   40.5470   22.1720   37.6740 C   0  0  0  0  0  3  0  0  0  0  0  0
   41.6760   21.6440   37.0420 C   0  0  0  0  0  3  0  0  0  0  0  0
   42.0110   21.9850   35.7420 C   0  0  0  0  0  3  0  0  0  0  0  0
   41.2050   22.8740   35.0500 C   0  0  0  0  0  3  0  0  0  0  0  0
   40.1120   23.3640   35.7070 C   0  0  0  0  0  0  0  0  0  0  0  0
  2  7  1  0  0  0  0
  2  1  1  0  0  0  0
  3  2  2  0  0  0  0
  4  5  2  0  0  0  0
  4  3  1  0  0  0  0
  5  6  1  0  0  0  0
  6 10  1  0  0  0  0
  6  7  2  0  0  0  0
  7 20  1  0  0  0  0
  8  4  1  0  0  0  0
  9  5  1  0  0  0  0
 11 17  1  0  0  0  0
 12  3  1  0  0  0  0
 12 11  2  0  0  0  0
 13 12  1  0  0  0  0
 14 13  2  0  0  0  0
 14 15  1  0  0  0  0
 15 16  2  0  0  0  0
 16 11  1  0  0  0  0
 18 13  1  0  0  0  0
 19 15  1  0  0  0  0
 20 21  1  0  0  0  0
 21 22  2  0  0  0  0
 21 31  1  0  0  0  0
 22 24  1  0  0  0  0
 23 22  1  0  0  0  0
 24 25  2  0  0  0  0
 26 25  1  0  0  0  0
 26 27  1  0  0  0  0
 28 27  2  0  0  0  0
 29 28  1  0  0  0  0
 30 31  1  0  0  0  0
 30 29  2  0  0  0  0
 31 26  2  0  0  0  0
M  END
>  <minimizedAffinity>
-6.03119898

$$$$

 OpenBabel03262521393D

 31 34  0  0  0  0  0  0  0  0999 V2000
   36.1050   29.5200   35.0450 F   0  0  0  0  0  0  0  0  0  0  0  0
   36.1450   29.2080   33.7000 C   0  0  0  0  0  0  0  0  0  0  0  0
   36.7770   28.0590   33.2360 C   0  0  0  0  0  0  0  0  0  0  0  0
   36.7920   27.7880   31.8770 C   0  0  0  0  0  0  0  0  0  0  0  0
   36.1760   28.6610   30.9840 C   0  0  0  0  0  0  0  0  0  0  0  0
   35.5600   29.7920   31.4960 C   0  0  0  0  0  0  0  0  0  0  0  0
   35.5320   30.0820   32.8310 C   0  0  0  0  0  0  0  0  0  0  0  0
   37.2810   26.8980   31.5240 H   0  0  0  0  0  0  0  0  0  0  0  0
   36.1720   28.4720   29.9170 H   0  0  0  0  0  0  0  0  0  0  0  0
   35.0670   30.5020   30.8330 H   0  0  0  0  0  0  0  0  0  0  0  0
   37.4250   25.8800   33.9230 C   0  0  0  0  0  0  0  0  0  0  0  0
   37.3800   27.2250   34.2250 C   0  0  0  0  0  0  0  0  0  0  0  0
   37.9260   27.6220   35.4580 C   0  0  0  0  0  0  0  0  0  0  0  0
   38.4570   26.6490   36.2580 N   0  0  0  0  0  0  0  0  0  0  0  0
   38.4760   25.3600   35.9210 C   0  0  0  0  0  0  0  0  0  0  0  0
   37.9620   24.9520   34.7480 N   0  0  0  0  0  0  0  0  0  0  0  0
   37.0280   25.4720   32.9940 H   0  0  0  0  0  0  0  0  0  0  0  0
   37.8760   28.6610   35.6600 H   0  0  0  0  0  0  0  0  0  0  0  0
   38.9010   24.6040   36.5670 H   0  0  0  0  0  0  0  0  0  0  0  0
   34.7260   31.5560   33.4650 S   0  0  0  0  0  0  0  0  0  0  0  0
   33.7010   31.1200   34.8570 C   0  0  0  0  0  0  0  0  0  0  0  0
   34.0130   31.7840   36.0440 C   0  0  0  0  0  0  0  0  0  0  0  0
   34.8150   32.5080   36.1170 H   0  0  0  0  0  0  0  0  0  0  0  0
   33.3230   31.5700   37.2200 C   0  0  0  0  0  3  0  0  0  0  0  0
   32.2860   30.6590   37.2070 C   0  0  0  0  0  3  0  0  0  0  0  0
   31.9820   30.0060   36.0350 C   0  0  0  0  0  0  0  0  0  0  0  0
   30.9450   29.0810   35.9820 C   0  0  0  0  0  3  0  0  0  0  0  0
   30.6540   28.4310   34.7800 C   0  0  0  0  0  3  0  0  0  0  0  0
   31.3740   28.6780   33.6220 C   0  0  0  0  0  3  0  0  0  0  0  0
   32.4120   29.5970   33.6590 C   0  0  0  0  0  3  0  0  0  0  0  0
   32.6590   30.2090   34.8550 C   0  0  0  0  0  0  0  0  0  0  0  0
  2  1  1  0  0  0  0
  3  2  1  0  0  0  0
  3 12  1  0  0  0  0
  4  3  2  0  0  0  0
  5  6  2  0  0  0  0
  5  4  1  0  0  0  0
  6  7  1  0  0  0  0
  7 20  1  0  0  0  0
  7  2  2  0  0  0  0
  8  4  1  0  0  0  0
  9  5  1  0  0  0  0
 10  6  1  0  0  0  0
 11 12  2  0  0  0  0
 11 16  1  0  0  0  0
 12 13  1  0  0  0  0
 13 18  1  0  0  0  0
 13 14  2  0  0  0  0
 15 14  1  0  0  0  0
 15 19  1  0  0  0  0
 16 15  2  0  0  0  0
 17 11  1  0  0  0  0
 20 21  1  0  0  0  0
 21 22  1  0  0  0  0
 22 23  1  0  0  0  0
 22 24  2  0  0  0  0
 25 24  1  0  0  0  0
 26 25  2  0  0  0  0
 27 26  1  0  0  0  0
 28 27  2  0  0  0  0
 29 30  2  0  0  0  0
 29 28  1  0  0  0  0
 30 31  1  0  0  0  0
 31 21  2  0  0  0  0
 31 26  1  0  0  0  0
M  END
>  <minimizedAffinity>
-5.97037506

$$$$

 OpenBabel03262521393D

 31 34  0  0  0  0  0  0  0  0999 V2000
   36.3620   27.7430   31.2700 F   0  0  0  0  0  0  0  0  0  0  0  0
   36.7540   27.4830   32.5700 C   0  0  0  0  0  0  0  0  0  0  0  0
   37.5130   26.3630   32.8930 C   0  0  0  0  0  0  0  0  0  0  0  0
   37.8810   26.1450   34.2120 C   0  0  0  0  0  0  0  0  0  0  0  0
   37.4930   27.0420   35.2030 C   0  0  0  0  0  0  0  0  0  0  0  0
   36.7380   28.1420   34.8300 C   0  0  0  0  0  0  0  0  0  0  0  0
   36.3610   28.3800   33.5380 C   0  0  0  0  0  0  0  0  0  0  0  0
   38.4680   25.2780   34.4550 H   0  0  0  0  0  0  0  0  0  0  0  0
   37.7690   26.8950   36.2410 H   0  0  0  0  0  0  0  0  0  0  0  0
   36.4130   28.8690   35.5730 H   0  0  0  0  0  0  0  0  0  0  0  0
   39.0440   25.8020   31.1680 C   0  0  0  0  0  0  0  0  0  0  0  0
   37.8620   25.5010   31.8120 C   0  0  0  0  0  0  0  0  0  0  0  0
   37.1400   24.3920   31.3370 C   0  0  0  0  0  0  0  0  0  0  0  0
   37.6630   23.7010   30.2800 N   0  0  0  0  0  0  0  0  0  0  0  0
   38.8110   24.0320   29.6900 C   0  0  0  0  0  0  0  0  0  0  0  0
   39.5220   25.0870   30.1230 N   0  0  0  0  0  0  0  0  0  0  0  0
   39.6750   26.6400   31.4590 H   0  0  0  0  0  0  0  0  0  0  0  0
   36.2360   24.1880   31.8520 H   0  0  0  0  0  0  0  0  0  0  0  0
   39.2090   23.4730   28.8550 H   0  0  0  0  0  0  0  0  0  0  0  0
   35.3820   29.8150   33.0840 S   0  0  0  0  0  0  0  0  0  0  0  0
   35.0230   30.7750   34.5430 C   0  0  0  0  0  0  0  0  0  0  0  0
   35.9430   31.7870   34.8190 C   0  0  0  0  0  0  0  0  0  0  0  0
   36.8090   31.9770   34.1970 H   0  0  0  0  0  0  0  0  0  0  0  0
   35.8220   32.6270   35.9080 C   0  0  0  0  0  3  0  0  0  0  0  0
   34.7420   32.4460   36.7490 C   0  0  0  0  0  3  0  0  0  0  0  0
   33.8380   31.4470   36.4740 C   0  0  0  0  0  0  0  0  0  0  0  0
   32.7380   31.2320   37.2970 C   0  0  0  0  0  3  0  0  0  0  0  0
   31.8320   30.2110   36.9970 C   0  0  0  0  0  3  0  0  0  0  0  0
   31.9950   29.3920   35.8920 C   0  0  0  0  0  3  0  0  0  0  0  0
   33.0860   29.5920   35.0610 C   0  0  0  0  0  3  0  0  0  0  0  0
   33.9450   30.6020   35.3930 C   0  0  0  0  0  0  0  0  0  0  0  0
  1  2  1  0  0  0  0
  2  3  2  0  0  0  0
  2  7  1  0  0  0  0
  3  4  1  0  0  0  0
  4  8  1  0  0  0  0
  4  5  2  0  0  0  0
  5  9  1  0  0  0  0
  6  5  1  0  0  0  0
  6 10  1  0  0  0  0
  7  6  2  0  0  0  0
 11 17  1  0  0  0  0
 11 12  1  0  0  0  0
 12  3  1  0  0  0  0
 13 12  2  0  0  0  0
 13 18  1  0  0  0  0
 14 13  1  0  0  0  0
 15 16  1  0  0  0  0
 15 14  2  0  0  0  0
 16 11  2  0  0  0  0
 19 15  1  0  0  0  0
 20  7  1  0  0  0  0
 20 21  1  0  0  0  0
 21 22  2  0  0  0  0
 21 31  1  0  0  0  0
 22 24  1  0  0  0  0
 23 22  1  0  0  0  0
 24 25  2  0  0  0  0
 26 25  1  0  0  0  0
 26 27  1  0  0  0  0
 28 27  2  0  0  0  0
 29 28  1  0  0  0  0
 30 31  1  0  0  0  0
 30 29  2  0  0  0  0
 31 26  2  0  0  0  0
M  END
>  <minimizedAffinity>
-5.96086311

$$$$
