
     RDKit          3D

 28 30  0  0  0  0  0  0  0  0999 V2000
   37.3586   30.2259   51.3671 C   0  0  0  0  0  0  0  0  0  0  0  0
   38.0559   30.7485   50.2542 C   0  0  0  0  0  0  0  0  0  0  0  0
   37.5844   30.3976   48.9972 C   0  0  0  0  0  0  0  0  0  0  0  0
   36.4889   29.5790   48.9193 N   0  0  0  0  0  0  0  0  0  0  0  0
   35.8572   29.1054   49.9931 C   0  0  0  0  0  0  0  0  0  0  0  0
   36.2772   29.4178   51.2191 N   0  0  0  0  0  0  0  0  0  0  0  0
   38.2559   30.8996   47.7996 C   0  0  0  0  0  0  0  0  0  0  0  0
   38.9809   31.9371   47.8124 O   0  0  0  0  0  0  0  0  0  0  0  0
   37.7305   30.5028   52.3311 H   0  0  0  0  0  0  0  0  0  0  0  0
   38.9034   31.3819   50.3326 H   0  0  0  0  0  0  0  0  0  0  0  0
   34.9951   28.4611   49.9459 H   0  0  0  0  0  0  0  0  0  0  0  0
   38.0183   30.0979   46.5796 C   0  0  0  0  0  0  0  0  0  0  0  0
   36.7917   29.4239   46.5313 C   0  0  0  0  0  0  0  0  0  0  0  0
   36.0809   29.5185   47.3666 H   0  0  0  0  0  0  0  0  0  0  0  0
   36.3762   28.6271   45.5033 C   0  0  0  0  0  0  0  0  0  0  0  0
   37.2187   28.4685   44.4303 C   0  0  0  0  0  0  0  0  0  0  0  0
   38.4322   29.1223   44.4545 C   0  0  0  0  0  0  0  0  0  0  0  0
   39.3558   29.0256   43.4119 C   0  0  0  0  0  0  0  0  0  0  0  0
   40.5712   29.6788   43.4297 C   0  0  0  0  0  0  0  0  0  0  0  0
   40.9204   30.4716   44.5125 C   0  0  0  0  0  0  0  0  0  0  0  0
   40.0379   30.5966   45.5670 C   0  0  0  0  0  0  0  0  0  0  0  0
   38.8402   29.9235   45.4976 C   0  0  0  0  0  0  0  0  0  0  0  0
   35.4196   28.1293   45.5153 H   0  0  0  0  0  0  0  0  0  0  0  0
   36.9927   27.8624   43.5640 H   0  0  0  0  0  0  0  0  0  0  0  0
   39.1234   28.4158   42.5449 H   0  0  0  0  0  0  0  0  0  0  0  0
   41.2574   29.5817   42.6101 H   0  0  0  0  0  0  0  0  0  0  0  0
   41.8838   30.9599   44.4739 H   0  0  0  0  0  0  0  0  0  0  0  0
   40.3234   31.2088   46.3836 H   0  0  0  0  0  0  0  0  0  0  0  0
  2  1  2  0
  3  2  1  0
  4  3  2  0
  4  5  1  0
  5  6  2  0
  6  1  1  0
  7  3  1  0
  8  7  2  0
  1  9  1  0
  2 10  1  0
  5 11  1  0
 12 13  2  0
 13 14  1  0
 13 15  1  0
 15 16  2  0
 16 17  1  0
 17 18  2  0
 18 19  1  0
 19 20  2  0
 20 21  1  0
 21 22  2  0
 22 12  1  0
 22 17  1  0
 15 23  1  0
 16 24  1  0
 18 25  1  0
 19 26  1  0
 20 27  1  0
 21 28  1  0
  7 12  1  0
M  ISO  4   9  14  10  14  11  14  14  15
M  END
>  <DihAtoms>  (1) 
2,6,11,12

>  <DihDeg>  (1) 
-46.003963928283696

$$$$
