
 OpenBabel03272503493D

 39 42  0  0  1  0  0  0  0  0999 V2000
   33.2000   27.2830   45.8840 C   0  0  1  0  0  0  0  0  0  0  0  0
   33.8770   27.4470   47.2620 C   0  0  2  0  0  0  0  0  0  0  0  0
   33.6800   26.2470   47.8660 O   0  0  0  0  0  0  0  0  0  0  0  0
   34.0080   25.3170   46.8920 C   0  0  0  0  0  0  0  0  0  0  0  0
   33.5820   25.8630   45.5460 C   0  0  2  0  0  0  0  0  0  0  0  0
   33.6300   28.0250   45.1830 H   0  0  0  0  0  0  0  0  0  0  0  0
   34.9350   27.6800   47.0040 H   0  0  0  0  0  0  0  0  0  0  0  0
   35.0680   25.0120   46.9100 H   0  0  0  0  0  0  0  0  0  0  0  0
   33.3990   24.4090   47.0830 H   0  0  0  0  0  0  0  0  0  0  0  0
   32.6950   25.3310   45.1560 H   0  0  0  0  0  0  0  0  0  0  0  0
   31.8420   27.5070   45.9850 O   0  0  0  0  0  0  0  0  0  0  0  0
   31.5390   28.1690   45.3110 H   0  0  0  0  0  0  0  0  0  0  0  0
   33.2460   28.5280   47.8230 O   0  0  0  0  0  0  0  0  0  0  0  0
   35.3330   29.7730   46.7830 O   0  0  0  0  0  0  0  0  0  0  0  0
   34.0700   29.9820   47.6130 P   0  0  1  0  0  0  0  0  0  0  0  0
   33.1260   31.0600   46.7100 O   0  0  0  0  0  0  0  0  0  0  0  0
   32.3970   31.3510   47.3410 H   0  0  0  0  0  0  0  0  0  0  0  0
   34.3760   30.6060   49.1720 O   0  0  0  0  0  0  0  0  0  0  0  0
   35.6210   30.4860   49.7730 C   0  0  0  0  0  0  0  0  0  0  0  0
   35.9790   29.4590   50.6790 C   0  0  0  0  0  0  0  0  0  0  0  0
   37.2650   29.4720   51.2000 C   0  0  0  0  0  0  0  0  0  0  0  0
   38.1210   30.4740   50.8130 N   0  0  0  0  0  0  0  0  0  0  0  0
   37.7490   31.4450   49.9430 C   0  0  0  0  0  0  0  0  0  0  0  0
   36.4950   31.4550   49.4190 N   0  0  0  0  0  0  0  0  0  0  0  0
   35.2300   28.7420   50.8990 H   0  0  0  0  0  0  0  0  0  0  0  0
   37.5310   28.7010   51.8790 H   0  0  0  0  0  0  0  0  0  0  0  0
   38.4340   32.2260   49.6490 H   0  0  0  0  0  0  0  0  0  0  0  0
   34.6330   25.8380   44.6690 O   0  0  0  0  0  0  0  0  0  0  0  0
   34.6470   25.0360   43.5580 C   0  0  0  0  0  0  0  0  0  0  0  0
   33.8300   24.9650   42.4680 C   0  0  0  0  0  0  0  0  0  0  0  0
   33.0120   25.6630   42.4570 H   0  0  0  0  0  0  0  0  0  0  0  0
   34.0050   24.0780   41.4330 C   0  0  0  0  0  3  0  0  0  0  0  0
   35.0510   23.1800   41.4390 C   0  0  0  0  0  3  0  0  0  0  0  0
   35.9050   23.2300   42.5430 C   0  0  0  0  0  0  0  0  0  0  0  0
   36.9340   22.3100   42.4990 C   0  0  0  0  0  3  0  0  0  0  0  0
   37.8300   22.2770   43.5400 C   0  0  0  0  0  3  0  0  0  0  0  0
   37.6850   23.1500   44.5920 C   0  0  0  0  0  3  0  0  0  0  0  0
   36.6460   24.0550   44.6030 C   0  0  0  0  0  3  0  0  0  0  0  0
   35.7160   24.1340   43.5860 C   0  0  0  0  0  0  0  0  0  0  0  0
  1  6  1  6  0  0  0
  1 11  1  0  0  0  0
  1  2  1  0  0  0  0
  2  7  1  6  0  0  0
  2 13  1  0  0  0  0
  2  3  1  0  0  0  0
  4  8  1  0  0  0  0
  4  9  1  0  0  0  0
  4  3  1  0  0  0  0
  5 10  1  6  0  0  0
  5  1  1  0  0  0  0
  5  4  1  0  0  0  0
 12 11  1  0  0  0  0
 15 14  2  6  0  0  0
 15 13  1  0  0  0  0
 15 18  1  0  0  0  0
 16 17  1  0  0  0  0
 16 15  1  0  0  0  0
 18 19  1  0  0  0  0
 19 20  1  0  0  0  0
 20 25  1  0  0  0  0
 20 21  2  0  0  0  0
 21 26  1  0  0  0  0
 22 21  1  0  0  0  0
 23 22  2  0  0  0  0
 24 19  2  0  0  0  0
 24 23  1  0  0  0  0
 27 23  1  0  0  0  0
 28  5  1  0  0  0  0
 29 39  1  0  0  0  0
 29 28  1  0  0  0  0
 30 29  2  0  0  0  0
 31 30  1  0  0  0  0
 32 33  2  0  0  0  0
 32 30  1  0  0  0  0
 33 34  1  0  0  0  0
 34 39  1  0  0  0  0
 35 34  2  0  0  0  0
 35 36  1  0  0  0  0
 36 37  2  0  0  0  0
 37 38  1  0  0  0  0
 39 38  2  0  0  0  0
M  END
>  <minimizedAffinity>
-4.34764194

>  <minimizedRMSD>
0.751282573

$$$$
