
     RDKit          3D

 41 44  0  0  0  0  0  0  0  0999 V2000
   36.9827   31.5705   48.6672 C   0  0  1  0  0  0  0  0  0  0  0  0
   36.2189   30.9148   47.6311 C   0  0  0  0  0  0  0  0  0  0  0  0
   37.1776   30.1310   48.4654 C   0  0  2  0  0  0  0  0  0  0  0  0
   38.1443   32.4600   48.3215 C   0  0  0  0  0  0  0  0  0  0  0  0
   38.5316   33.3768   49.3166 C   0  0  0  0  0  0  0  0  0  0  0  0
   39.5982   34.1812   48.9891 C   0  0  0  0  0  0  0  0  0  0  0  0
   40.1969   34.0579   47.7822 N   0  0  0  0  0  0  0  0  0  0  0  0
   39.7952   33.1580   46.8429 C   0  0  0  0  0  0  0  0  0  0  0  0
   38.7327   32.3362   47.1295 N   0  0  0  0  0  0  0  0  0  0  0  0
   40.4110   32.9919   45.5962 N   0  0  0  0  0  0  0  0  0  0  0  0
   36.5988   29.3060   49.4315 O   0  0  0  0  0  0  0  0  0  0  0  0
   34.6290   27.6672   49.6953 O   0  0  0  0  0  0  0  0  0  0  0  0
   35.0214   28.9502   49.0386 P   0  0  1  0  0  0  0  0  0  0  0  0
   33.9764   30.1454   49.7334 O   0  0  0  0  0  0  0  0  0  0  0  0
   34.8382   28.9599   47.3737 O   0  0  0  0  0  0  0  0  0  0  0  0
   36.5421   31.8371   49.6904 H   0  0  0  0  0  0  0  0  0  0  0  0
   35.1893   31.1713   47.7914 H   0  0  0  0  0  0  0  0  0  0  0  0
   36.5318   31.1114   46.5844 H   0  0  0  0  0  0  0  0  0  0  0  0
   37.8829   29.6182   47.8325 H   0  0  0  0  0  0  0  0  0  0  0  0
   38.0709   33.4848   50.2704 H   0  0  0  0  0  0  0  0  0  0  0  0
   39.9749   34.9204   49.6833 H   0  0  0  0  0  0  0  0  0  0  0  0
   40.8334   33.7051   44.9427 H   0  0  0  0  0  0  0  0  0  0  0  0
   40.4955   32.0132   45.1922 H   0  0  0  0  0  0  0  0  0  0  0  0
   33.2376   30.2942   49.0609 H   0  0  0  0  0  0  0  0  0  0  0  0
   35.4581   28.1772   46.4558 C   0  0  0  0  0  0  0  0  0  0  0  0
   35.6412   26.8173   46.5470 C   0  0  0  0  0  0  0  0  0  0  0  0
   35.2580   26.3090   47.4329 H   0  0  0  0  0  0  0  0  0  0  0  0
   36.2957   26.1537   45.5255 C   0  0  0  0  0  0  0  0  0  0  0  0
   36.7710   26.8239   44.4137 C   0  0  0  0  0  0  0  0  0  0  0  0
   36.5925   28.1828   44.3141 C   0  0  0  0  0  0  0  0  0  0  0  0
   37.0635   28.8602   43.2083 C   0  0  0  0  0  0  0  0  0  0  0  0
   36.9023   30.2234   43.0746 C   0  0  0  0  0  0  0  0  0  0  0  0
   36.2529   30.9110   44.0788 C   0  0  0  0  0  0  0  0  0  0  0  0
   35.7805   30.2379   45.1862 C   0  0  0  0  0  0  0  0  0  0  0  0
   35.9355   28.8578   45.3367 C   0  0  0  0  0  0  0  0  0  0  0  0
   36.4443   25.0737   45.5917 H   0  0  0  0  0  0  0  0  0  0  0  0
   37.2836   26.3147   43.6100 H   0  0  0  0  0  0  0  0  0  0  0  0
   37.5800   28.3834   42.3869 H   0  0  0  0  0  0  0  0  0  0  0  0
   37.2411   30.8172   42.2449 H   0  0  0  0  0  0  0  0  0  0  0  0
   36.0701   31.9944   44.0758 H   0  0  0  0  0  0  0  0  0  0  0  0
   35.2660   30.7783   45.9832 H   0  0  0  0  0  0  0  0  0  0  0  0
  2  3  1  0
  2  1  1  0
  3  1  1  0
  3 11  1  0
  4  1  1  0
  4  5  2  0
  6  5  1  0
  7  6  2  0
  8  9  2  0
  8  7  1  0
  9  4  1  0
 10  8  1  0
 13 11  1  6
 13 12  2  0
 13 14  1  0
 15 13  1  0
  1 16  1  1
  2 17  1  0
  2 18  1  0
  3 19  1  6
  5 20  1  0
  6 21  1  0
 10 22  1  0
 10 23  1  0
 14 24  1  0
 25 26  2  0
 26 27  1  0
 26 28  1  0
 28 29  2  0
 29 30  1  0
 30 31  2  0
 31 32  1  0
 32 33  2  0
 33 34  1  0
 34 35  2  0
 35 25  1  0
 35 30  1  0
 28 36  1  0
 29 37  1  0
 31 38  1  0
 32 39  1  0
 33 40  1  0
 34 41  1  0
 15 25  1  0
M  ISO  8  16  13  17  13  18  13  19  13  20  14  21  14  24   3  27  15
M  END
>  <DihAtoms>  (1) 
12,14,24,25

>  <DihDeg>  (1) 
-0.0007948747310316344

$$$$
