REMARK  Name = 
REMARK  5 active torsions:
REMARK  status: ('A' for Active; 'I' for Inactive)
REMARK    1  A    between atoms: S_1  and  C_6
REMARK    2  A    between atoms: S_1  and  C_9
REMARK    3  A    between atoms: C_8  and  O_13
REMARK    4  A    between atoms: C_12  and  O_14
REMARK    5  A    between atoms: O_14  and  C_24
REMARK                            x       y       z     vdW  Elec       q    Type
REMARK                         _______ _______ _______ _____ _____    ______ ____
ROOT
ATOM      1  C   UNL     1      32.387  28.356  47.473  0.00  0.00    +0.000 C 
ATOM      2  C   UNL     1      33.632  28.403  48.345  0.00  0.00    +0.000 C 
ATOM      3  O   UNL     1      34.189  27.160  48.349  0.00  0.00    +0.000 OA
ATOM      4  C   UNL     1      33.539  26.369  47.427  0.00  0.00    +0.000 C 
ATOM      5  C   UNL     1      32.848  27.330  46.444  0.00  0.00    +0.000 C 
ATOM      6  H   UNL     1      31.519  27.983  48.039  0.00  0.00    +0.000 HD
ATOM      7  H   UNL     1      33.335  28.784  49.340  0.00  0.00    +0.000 HD
ATOM      8  H   UNL     1      34.316  25.812  46.862  0.00  0.00    +0.000 HD
ATOM      9  H   UNL     1      32.794  25.706  47.896  0.00  0.00    +0.000 HD
ATOM     10  H   UNL     1      33.594  27.823  45.820  0.00  0.00    +0.000 HD
ENDROOT
BRANCH   1  11
ATOM     11  O   UNL     1      32.139  29.593  46.884  0.00  0.00    +0.000 OA
ATOM     12  H   UNL     1      31.521  30.107  47.457  0.00  0.00    +0.000 HD
ENDBRANCH   1  11
BRANCH   2  13
ATOM     13  S   UNL     1      34.792  29.542  47.526  0.00  0.00    +0.000 S 
BRANCH  13  18
ATOM     14  C   UNL     1      37.377  29.480  50.523  0.00  0.00    +0.000 A 
ATOM     15  C   UNL     1      37.984  30.729  50.515  0.00  0.00    +0.000 A 
ATOM     16  C   UNL     1      37.577  31.638  49.537  0.00  0.00    +0.000 A 
ATOM     17  N   UNL     1      36.615  31.259  48.648  0.00  0.00    +0.000 NA
ATOM     18  C   UNL     1      36.053  30.025  48.698  0.00  0.00    +0.000 A 
ATOM     19  N   UNL     1      36.424  29.132  49.627  0.00  0.00    +0.000 NA
ATOM     20  H   UNL     1      37.725  28.814  51.297  0.00  0.00    +0.000 HD
ATOM     21  H   UNL     1      38.748  31.026  51.223  0.00  0.00    +0.000 HD
ATOM     22  H   UNL     1      37.993  32.643  49.448  0.00  0.00    +0.000 HD
ENDBRANCH  13  18
ENDBRANCH   2  13
BRANCH   5  23
ATOM     23  O   UNL     1      31.801  26.695  45.831  0.00  0.00    +0.000 OA
BRANCH  23  24
ATOM     24  C   UNL     1      31.651  26.651  44.456  0.00  0.00    +0.000 A 
ATOM     25  C   UNL     1      32.110  25.740  43.531  0.00  0.00    +0.000 A 
ATOM     26  H   UNL     1      32.677  24.936  43.975  0.00  0.00    +0.000 HD
ATOM     27  C   UNL     1      31.842  25.890  42.189  0.00  0.00    +0.000 A 
ATOM     28  C   UNL     1      31.114  26.941  41.714  0.00  0.00    +0.000 A 
ATOM     29  C   UNL     1      30.633  27.883  42.615  0.00  0.00    +0.000 A 
ATOM     30  C   UNL     1      29.913  28.909  42.076  0.00  0.00    +0.000 A 
ATOM     31  C   UNL     1      29.412  29.872  42.926  0.00  0.00    +0.000 A 
ATOM     32  C   UNL     1      29.646  29.778  44.281  0.00  0.00    +0.000 A 
ATOM     33  C   UNL     1      30.380  28.719  44.766  0.00  0.00    +0.000 A 
ATOM     34  C   UNL     1      30.905  27.729  43.972  0.00  0.00    +0.000 A 
ENDBRANCH  23  24
ENDBRANCH   5  23
TORSDOF 5
