
 OpenBabel03272502253D

 32 35  0  0  0  0  0  0  0  0999 V2000
   37.2540   29.8250   50.8880 C   0  0  0  0  0  0  0  0  0  0  0  0
   37.8220   30.3580   49.7210 C   0  0  0  0  0  0  0  0  0  0  0  0
   37.0080   30.4470   48.5970 C   0  0  0  0  0  0  0  0  0  0  0  0
   35.7510   30.0160   48.7270 N   0  0  0  0  0  0  0  0  0  0  0  0
   35.2060   29.5070   49.8390 C   0  0  0  0  0  0  0  0  0  0  0  0
   35.9770   29.4150   50.9320 N   0  0  0  0  0  0  0  0  0  0  0  0
   37.8890   29.7520   51.7780 H   0  0  0  0  0  0  0  0  0  0  0  0
   38.8470   30.6980   49.6520 H   0  0  0  0  0  0  0  0  0  0  0  0
   37.4560   30.9760   47.3270 C   0  0  0  0  0  0  0  0  0  0  0  0
   36.7930   30.6640   46.1480 C   0  0  0  0  0  0  0  0  0  0  0  0
   37.1900   31.1510   44.9150 C   0  0  0  0  0  0  0  0  0  0  0  0
   38.2730   31.9670   44.8470 N   0  0  0  0  0  0  0  0  0  0  0  0
   38.8950   32.2530   46.0010 C   0  0  0  0  0  0  0  0  0  0  0  0
   38.5280   31.7920   47.2070 N   0  0  0  0  0  0  0  0  0  0  0  0
   35.9350   30.0100   46.2400 H   0  0  0  0  0  0  0  0  0  0  0  0
   36.6220   30.8620   44.0410 H   0  0  0  0  0  0  0  0  0  0  0  0
   40.0870   33.1470   45.9550 C   0  0  0  0  0  0  0  0  0  0  0  0
   40.1640   33.8130   47.1900 F   0  0  0  0  0  0  0  0  0  0  0  0
   41.2330   32.4340   45.7050 F   0  0  0  0  0  0  0  0  0  0  0  0
   39.9480   34.1330   45.0050 F   0  0  0  0  0  0  0  0  0  0  0  0
   33.8890   29.1070   49.8070 O   0  0  0  0  0  0  0  0  0  0  0  0
   33.2990   28.1730   49.0200 C   0  0  0  0  0  0  0  0  0  0  0  0
   34.2390   27.5600   48.1810 C   0  0  0  0  0  0  0  0  0  0  0  0
   35.3170   27.7800   48.1360 H   0  0  0  0  0  0  0  0  0  0  0  0
   33.8700   26.5580   47.2740 C   0  0  0  0  0  0  0  0  0  0  0  0
   32.5390   26.2090   47.2510 C   0  0  0  0  0  0  0  0  0  0  0  0
   31.5880   26.7760   48.0460 C   0  0  0  0  0  0  0  0  0  0  0  0
   30.2440   26.4630   48.0510 C   0  0  0  0  0  0  0  0  0  0  0  0
   29.3430   27.1120   48.9030 C   0  0  0  0  0  0  0  0  0  0  0  0
   29.7940   28.0950   49.7700 C   0  0  0  0  0  0  0  0  0  0  0  0
   31.1420   28.4060   49.7620 C   0  0  0  0  0  0  0  0  0  0  0  0
   31.9910   27.7470   48.9150 C   0  0  0  0  0  0  0  0  0  0  0  0
  1  6  1  0  0  0  0
  1  7  1  0  0  0  0
  2  1  2  0  0  0  0
  3  4  2  0  0  0  0
  3  2  1  0  0  0  0
  4  5  1  0  0  0  0
  5  6  2  0  0  0  0
  8  2  1  0  0  0  0
  9  3  1  0  0  0  0
 10 15  1  0  0  0  0
 10  9  2  0  0  0  0
 11 10  1  0  0  0  0
 12 11  2  0  0  0  0
 12 13  1  0  0  0  0
 13 14  2  0  0  0  0
 14  9  1  0  0  0  0
 16 11  1  0  0  0  0
 17 13  1  0  0  0  0
 17 18  1  0  0  0  0
 19 17  1  0  0  0  0
 20 17  1  0  0  0  0
 21  5  1  0  0  0  0
 22 21  1  0  0  0  0
 23 22  2  0  0  0  0
 24 23  1  0  0  0  0
 25 23  1  0  0  0  0
 26 25  2  0  0  0  0
 26 27  1  0  0  0  0
 27 28  2  0  0  0  0
 27 32  1  0  0  0  0
 28 29  1  0  0  0  0
 29 30  2  0  0  0  0
 31 30  1  0  0  0  0
 32 22  1  0  0  0  0
 32 31  2  0  0  0  0
M  END
>  <minimizedAffinity>
-7.1269269

>  <minimizedRMSD>
0.98080194

$$$$
