
     RDKit          3D

 42 45  0  0  0  0  0  0  0  0999 V2000
   36.4664   29.8852   48.6905 N   0  0  0  0  0  0  0  0  0  0  0  0
   37.5958   30.6447   48.2306 C   0  0  0  0  0  0  0  0  0  0  0  0
   38.0994   31.2941   49.5273 C   0  0  2  0  0  0  0  0  0  0  0  0
   37.1093   30.9043   50.5992 C   0  0  0  0  0  0  0  0  0  0  0  0
   36.7297   29.5242   50.0633 C   0  0  0  0  0  0  0  0  0  0  0  0
   35.2928   29.5429   47.9397 C   0  0  0  0  0  0  0  0  0  0  0  0
   35.2205   30.0064   46.6163 C   0  0  0  0  0  0  0  0  0  0  0  0
   34.0909   29.6835   45.8764 C   0  0  0  0  0  0  0  0  0  0  0  0
   33.1269   28.9328   46.4963 N   0  0  0  0  0  0  0  0  0  0  0  0
   33.2257   28.5077   47.7557 C   0  0  0  0  0  0  0  0  0  0  0  0
   34.3069   28.8072   48.4894 N   0  0  0  0  0  0  0  0  0  0  0  0
   31.9360   27.5289   48.5046 S   0  0  0  0  0  0  0  0  0  0  0  0
   38.2668   32.7760   49.3935 C   0  0  0  0  0  0  0  0  0  0  0  0
   37.1017   33.3362   49.8856 F   0  0  0  0  0  0  0  0  0  0  0  0
   38.3054   33.0801   48.0566 F   0  0  0  0  0  0  0  0  0  0  0  0
   39.3748   33.2600   50.0191 F   0  0  0  0  0  0  0  0  0  0  0  0
   37.3709   31.3915   47.4685 H   0  0  0  0  0  0  0  0  0  0  0  0
   38.3487   29.8973   47.8654 H   0  0  0  0  0  0  0  0  0  0  0  0
   39.0595   30.8384   49.8024 H   0  0  0  0  0  0  0  0  0  0  0  0
   36.1972   31.5316   50.5868 H   0  0  0  0  0  0  0  0  0  0  0  0
   37.5502   30.7733   51.5854 H   0  0  0  0  0  0  0  0  0  0  0  0
   37.5408   28.7934   50.1935 H   0  0  0  0  0  0  0  0  0  0  0  0
   35.7839   29.2629   50.5477 H   0  0  0  0  0  0  0  0  0  0  0  0
   35.9953   30.5980   46.1487 H   0  0  0  0  0  0  0  0  0  0  0  0
   33.9548   29.9981   44.8556 H   0  0  0  0  0  0  0  0  0  0  0  0
   30.5924   27.2390   47.3638 C   0  0  0  0  0  0  0  0  0  0  0  0
   29.2760   27.6220   47.5441 C   0  0  0  0  0  0  0  0  0  0  0  0
   29.0625   28.1406   48.4618 H   0  0  0  0  0  0  0  0  0  0  0  0
   28.3420   27.3193   46.5543 C   0  0  0  0  0  0  0  0  0  0  0  0
   28.7068   26.6481   45.4048 C   0  0  0  0  0  0  0  0  0  0  0  0
   30.0254   26.2675   45.2299 C   0  0  0  0  0  0  0  0  0  0  0  0
   30.3853   25.5904   44.0669 C   0  0  0  0  0  0  0  0  0  0  0  0
   31.6936   25.1968   43.8623 C   0  0  0  0  0  0  0  0  0  0  0  0
   32.6317   25.4795   44.8151 C   0  0  0  0  0  0  0  0  0  0  0  0
   32.2343   26.1448   45.9393 C   0  0  0  0  0  0  0  0  0  0  0  0
   30.9553   26.5652   46.2083 C   0  0  0  0  0  0  0  0  0  0  0  0
   27.3242   27.6379   46.7374 H   0  0  0  0  0  0  0  0  0  0  0  0
   27.9643   26.4191   44.6403 H   0  0  0  0  0  0  0  0  0  0  0  0
   29.6263   25.3744   43.3208 H   0  0  0  0  0  0  0  0  0  0  0  0
   31.9733   24.6720   42.9611 H   0  0  0  0  0  0  0  0  0  0  0  0
   33.6546   25.1723   44.6562 H   0  0  0  0  0  0  0  0  0  0  0  0
   32.9982   26.3575   46.6808 H   0  0  0  0  0  0  0  0  0  0  0  0
  1  5  1  0
  2  1  1  0
  2  3  1  0
  3  4  1  0
  5  4  1  0
  6 11  1  0
  6  1  1  0
  7  6  2  0
  8  9  2  0
  8  7  1  0
  9 10  1  0
 10 11  2  0
 10 12  1  0
 13  3  1  0
 13 14  1  0
 13 16  1  0
 15 13  1  0
  2 17  1  0
  2 18  1  0
  3 19  1  1
  4 20  1  0
  4 21  1  0
  5 22  1  0
  5 23  1  0
  7 24  1  0
  8 25  1  0
 26 27  2  0
 27 28  1  0
 27 29  1  0
 29 30  2  0
 30 31  1  0
 31 32  2  0
 32 33  1  0
 33 34  2  0
 34 35  1  0
 35 36  2  0
 36 26  1  0
 36 31  1  0
 29 37  1  0
 30 38  1  0
 32 39  1  0
 33 40  1  0
 34 41  1  0
 35 42  1  0
 12 26  1  0
M  ISO  8  17  13  18  13  19  13  20  13  21  13  22  13  23  13  24  14
M  ISO  2  25  14  28  15
M  END
>  <DihAtoms>  (1) 
9,11,25,26

>  <DihDeg>  (1) 
90.00023859167872

$$$$
