
 OpenBabel03272503513D

 39 42  0  0  1  0  0  0  0  0999 V2000
   38.0530   25.6410   32.0120 C   0  0  1  0  0  0  0  0  0  0  0  0
   37.2480   26.5370   32.9780 C   0  0  2  0  0  0  0  0  0  0  0  0
   36.3070   27.1080   32.1830 O   0  0  0  0  0  0  0  0  0  0  0  0
   35.8120   26.0560   31.4290 C   0  0  0  0  0  0  0  0  0  0  0  0
   36.9500   25.1010   31.1370 C   0  0  2  0  0  0  0  0  0  0  0  0
   38.5660   24.8530   32.5980 H   0  0  0  0  0  0  0  0  0  0  0  0
   36.8570   25.8170   33.7320 H   0  0  0  0  0  0  0  0  0  0  0  0
   34.9430   25.5550   31.8850 H   0  0  0  0  0  0  0  0  0  0  0  0
   35.4800   26.4740   30.4550 H   0  0  0  0  0  0  0  0  0  0  0  0
   37.2640   25.1560   30.0780 H   0  0  0  0  0  0  0  0  0  0  0  0
   39.0060   26.3860   31.3460 O   0  0  0  0  0  0  0  0  0  0  0  0
   39.9020   25.9670   31.4210 H   0  0  0  0  0  0  0  0  0  0  0  0
   38.1850   27.3770   33.5230 O   0  0  0  0  0  0  0  0  0  0  0  0
   40.3280   26.7790   34.9490 O   0  0  0  0  0  0  0  0  0  0  0  0
   38.8040   26.8430   34.9940 P   0  0  1  0  0  0  0  0  0  0  0  0
   38.4500   27.9620   36.2150 O   0  0  0  0  0  0  0  0  0  0  0  0
   37.4620   27.8550   36.3810 H   0  0  0  0  0  0  0  0  0  0  0  0
   38.0700   25.3380   35.3220 O   0  0  0  0  0  0  0  0  0  0  0  0
   38.5610   24.4850   36.3000 C   0  0  0  0  0  0  0  0  0  0  0  0
   38.0490   24.3930   37.6170 C   0  0  0  0  0  0  0  0  0  0  0  0
   38.6470   23.4910   38.4850 C   0  0  0  0  0  0  0  0  0  0  0  0
   39.6990   22.7370   38.0270 N   0  0  0  0  0  0  0  0  0  0  0  0
   40.1680   22.8460   36.7600 C   0  0  0  0  0  0  0  0  0  0  0  0
   39.6000   23.7230   35.8900 N   0  0  0  0  0  0  0  0  0  0  0  0
   37.2330   25.0280   37.8510 H   0  0  0  0  0  0  0  0  0  0  0  0
   38.2600   23.4240   39.4710 H   0  0  0  0  0  0  0  0  0  0  0  0
   40.9970   22.2460   36.4150 H   0  0  0  0  0  0  0  0  0  0  0  0
   36.6100   23.8290   31.5130 O   0  0  0  0  0  0  0  0  0  0  0  0
   37.2370   22.7190   31.0120 C   0  0  0  0  0  0  0  0  0  0  0  0
   38.3970   22.5580   30.3130 C   0  0  0  0  0  0  0  0  0  0  0  0
   38.9390   23.4620   30.1040 H   0  0  0  0  0  0  0  0  0  0  0  0
   38.8760   21.3420   29.8870 C   0  0  0  0  0  3  0  0  0  0  0  0
   38.1860   20.1770   30.1520 C   0  0  0  0  0  3  0  0  0  0  0  0
   36.9950   20.3110   30.8660 C   0  0  0  0  0  0  0  0  0  0  0  0
   36.3450   19.1160   31.1030 C   0  0  0  0  0  3  0  0  0  0  0  0
   35.1620   19.1390   31.8010 C   0  0  0  0  0  3  0  0  0  0  0  0
   34.6540   20.3390   32.2410 C   0  0  0  0  0  3  0  0  0  0  0  0
   35.3290   21.5140   31.9870 C   0  0  0  0  0  3  0  0  0  0  0  0
   36.5200   21.5510   31.2930 C   0  0  0  0  0  0  0  0  0  0  0  0
  1  6  1  1  0  0  0
  1  2  1  0  0  0  0
  2 13  1  0  0  0  0
  2  7  1  1  0  0  0
  3  2  1  0  0  0  0
  4  8  1  0  0  0  0
  4  3  1  0  0  0  0
  5 10  1  6  0  0  0
  5  4  1  0  0  0  0
  5 28  1  0  0  0  0
  5  1  1  0  0  0  0
  9  4  1  0  0  0  0
 11 12  1  0  0  0  0
 11  1  1  0  0  0  0
 13 15  1  0  0  0  0
 15 14  2  6  0  0  0
 15 18  1  0  0  0  0
 15 16  1  0  0  0  0
 16 17  1  0  0  0  0
 18 19  1  0  0  0  0
 19 20  1  0  0  0  0
 20 25  1  0  0  0  0
 20 21  2  0  0  0  0
 21 26  1  0  0  0  0
 22 21  1  0  0  0  0
 23 22  2  0  0  0  0
 24 19  2  0  0  0  0
 24 23  1  0  0  0  0
 27 23  1  0  0  0  0
 29 39  1  0  0  0  0
 29 28  1  0  0  0  0
 30 29  2  0  0  0  0
 31 30  1  0  0  0  0
 32 33  2  0  0  0  0
 32 30  1  0  0  0  0
 33 34  1  0  0  0  0
 34 35  2  0  0  0  0
 34 39  1  0  0  0  0
 35 36  1  0  0  0  0
 36 37  2  0  0  0  0
 38 37  1  0  0  0  0
 39 38  2  0  0  0  0
M  END
>  <minimizedAffinity>
-6.55939293

$$$$

 OpenBabel03272503513D

 39 42  0  0  1  0  0  0  0  0999 V2000
   37.7010   27.1510   35.3660 C   0  0  1  0  0  0  0  0  0  0  0  0
   36.8430   27.4900   34.1270 C   0  0  2  0  0  0  0  0  0  0  0  0
   37.7580   27.6920   33.1450 O   0  0  0  0  0  0  0  0  0  0  0  0
   38.6370   26.6280   33.2720 C   0  0  0  0  0  0  0  0  0  0  0  0
   38.7780   26.2980   34.7430 C   0  0  2  0  0  0  0  0  0  0  0  0
   37.0760   26.5960   36.0930 H   0  0  0  0  0  0  0  0  0  0  0  0
   36.2040   26.5870   34.0010 H   0  0  0  0  0  0  0  0  0  0  0  0
   38.3620   25.7510   32.6640 H   0  0  0  0  0  0  0  0  0  0  0  0
   39.6310   26.9760   32.9200 H   0  0  0  0  0  0  0  0  0  0  0  0
   39.7630   26.6100   35.1360 H   0  0  0  0  0  0  0  0  0  0  0  0
   38.1560   28.3070   35.9670 O   0  0  0  0  0  0  0  0  0  0  0  0
   37.9500   28.3090   36.9370 H   0  0  0  0  0  0  0  0  0  0  0  0
   36.1050   28.5790   34.5130 O   0  0  0  0  0  0  0  0  0  0  0  0
   35.9110   30.5910   32.8090 O   0  0  0  0  0  0  0  0  0  0  0  0
   35.2410   29.2950   33.2580 P   0  0  1  0  0  0  0  0  0  0  0  0
   35.2630   28.2950   31.8920 O   0  0  0  0  0  0  0  0  0  0  0  0
   34.6500   27.5300   32.1250 H   0  0  0  0  0  0  0  0  0  0  0  0
   33.6440   29.5160   33.8200 O   0  0  0  0  0  0  0  0  0  0  0  0
   33.3790   30.0860   35.0570 C   0  0  0  0  0  0  0  0  0  0  0  0
   34.0790   31.1910   35.5980 C   0  0  0  0  0  0  0  0  0  0  0  0
   33.6990   31.6510   36.8510 C   0  0  0  0  0  0  0  0  0  0  0  0
   32.6700   31.0150   37.5000 N   0  0  0  0  0  0  0  0  0  0  0  0
   32.0180   29.9570   36.9560 C   0  0  0  0  0  0  0  0  0  0  0  0
   32.3710   29.4870   35.7300 N   0  0  0  0  0  0  0  0  0  0  0  0
   34.8550   31.5970   35.0000 H   0  0  0  0  0  0  0  0  0  0  0  0
   34.2250   32.4790   37.2530 H   0  0  0  0  0  0  0  0  0  0  0  0
   31.2110   29.4670   37.4800 H   0  0  0  0  0  0  0  0  0  0  0  0
   38.5290   24.9680   34.9560 O   0  0  0  0  0  0  0  0  0  0  0  0
   38.6480   24.3850   36.1900 C   0  0  0  0  0  0  0  0  0  0  0  0
   37.9350   24.5250   37.3440 C   0  0  0  0  0  0  0  0  0  0  0  0
   37.1180   25.2220   37.3000 H   0  0  0  0  0  0  0  0  0  0  0  0
   38.2080   23.8420   38.5050 C   0  0  0  0  0  3  0  0  0  0  0  0
   39.2550   22.9450   38.5690 C   0  0  0  0  0  3  0  0  0  0  0  0
   40.0030   22.7810   37.4030 C   0  0  0  0  0  0  0  0  0  0  0  0
   41.0370   21.8740   37.5220 C   0  0  0  0  0  3  0  0  0  0  0  0
   41.8340   21.6390   36.4280 C   0  0  0  0  0  3  0  0  0  0  0  0
   41.5890   22.3070   35.2510 C   0  0  0  0  0  3  0  0  0  0  0  0
   40.5480   23.2060   35.1660 C   0  0  0  0  0  3  0  0  0  0  0  0
   39.7150   23.4800   36.2310 C   0  0  0  0  0  0  0  0  0  0  0  0
  1 11  1  0  0  0  0
  1  6  1  1  0  0  0
  2  7  1  6  0  0  0
  2 13  1  0  0  0  0
  2  1  1  0  0  0  0
  3  4  1  0  0  0  0
  3  2  1  0  0  0  0
  4  5  1  0  0  0  0
  5 28  1  0  0  0  0
  5 10  1  1  0  0  0
  5  1  1  0  0  0  0
  8  4  1  0  0  0  0
  9  4  1  0  0  0  0
 11 12  1  0  0  0  0
 15 14  2  6  0  0  0
 15 18  1  0  0  0  0
 15 13  1  0  0  0  0
 16 17  1  0  0  0  0
 16 15  1  0  0  0  0
 18 19  1  0  0  0  0
 19 20  2  0  0  0  0
 19 24  1  0  0  0  0
 20 21  1  0  0  0  0
 21 26  1  0  0  0  0
 21 22  2  0  0  0  0
 23 27  1  0  0  0  0
 23 22  1  0  0  0  0
 24 23  2  0  0  0  0
 25 20  1  0  0  0  0
 28 29  1  0  0  0  0
 29 39  2  0  0  0  0
 29 30  1  0  0  0  0
 30 32  2  0  0  0  0
 31 30  1  0  0  0  0
 32 33  1  0  0  0  0
 34 35  1  0  0  0  0
 34 33  2  0  0  0  0
 36 35  2  0  0  0  0
 37 36  1  0  0  0  0
 38 37  2  0  0  0  0
 38 39  1  0  0  0  0
 39 34  1  0  0  0  0
M  END
>  <minimizedAffinity>
-6.43855286

$$$$

 OpenBabel03272503513D

 39 42  0  0  1  0  0  0  0  0999 V2000
   36.4090   27.4700   32.4910 C   0  0  1  0  0  0  0  0  0  0  0  0
   37.9480   27.5650   32.3970 C   0  0  2  0  0  0  0  0  0  0  0  0
   38.1670   28.0330   31.1410 O   0  0  0  0  0  0  0  0  0  0  0  0
   37.2670   29.0780   31.0040 C   0  0  0  0  0  0  0  0  0  0  0  0
   36.0000   28.7190   31.7510 C   0  0  2  0  0  0  0  0  0  0  0  0
   36.1150   27.4840   33.5590 H   0  0  0  0  0  0  0  0  0  0  0  0
   38.2140   28.2680   33.2180 H   0  0  0  0  0  0  0  0  0  0  0  0
   37.6760   30.0570   31.3060 H   0  0  0  0  0  0  0  0  0  0  0  0
   37.0030   29.1480   29.9280 H   0  0  0  0  0  0  0  0  0  0  0  0
   35.1750   28.4760   31.0550 H   0  0  0  0  0  0  0  0  0  0  0  0
   35.9640   26.2920   31.9270 O   0  0  0  0  0  0  0  0  0  0  0  0
   35.3670   25.8030   32.5500 H   0  0  0  0  0  0  0  0  0  0  0  0
   38.3840   26.2920   32.6630 O   0  0  0  0  0  0  0  0  0  0  0  0
   40.4830   26.2620   34.2680 O   0  0  0  0  0  0  0  0  0  0  0  0
   38.9680   26.0860   34.2280 P   0  0  1  0  0  0  0  0  0  0  0  0
   38.3590   27.2990   35.2410 O   0  0  0  0  0  0  0  0  0  0  0  0
   37.3890   27.0600   35.3730 H   0  0  0  0  0  0  0  0  0  0  0  0
   38.4480   24.5460   34.7510 O   0  0  0  0  0  0  0  0  0  0  0  0
   38.6810   24.0980   36.0430 C   0  0  0  0  0  0  0  0  0  0  0  0
   39.6950   23.1780   36.4030 C   0  0  0  0  0  0  0  0  0  0  0  0
   39.8050   22.8230   37.7400 C   0  0  0  0  0  0  0  0  0  0  0  0
   38.9310   23.3790   38.6410 N   0  0  0  0  0  0  0  0  0  0  0  0
   37.9700   24.2590   38.2670 C   0  0  0  0  0  0  0  0  0  0  0  0
   37.8410   24.6220   36.9630 N   0  0  0  0  0  0  0  0  0  0  0  0
   40.3070   22.8190   35.6160 H   0  0  0  0  0  0  0  0  0  0  0  0
   40.5660   22.1330   38.0070 H   0  0  0  0  0  0  0  0  0  0  0  0
   37.2900   24.6870   38.9880 H   0  0  0  0  0  0  0  0  0  0  0  0
   35.6670   29.7170   32.6270 O   0  0  0  0  0  0  0  0  0  0  0  0
   34.4570   29.7600   33.2700 C   0  0  0  0  0  0  0  0  0  0  0  0
   33.2340   29.2440   32.9590 C   0  0  0  0  0  0  0  0  0  0  0  0
   33.1870   28.6930   32.0360 H   0  0  0  0  0  0  0  0  0  0  0  0
   32.1140   29.3930   33.7410 C   0  0  0  0  0  3  0  0  0  0  0  0
   32.1670   30.0980   34.9260 C   0  0  0  0  0  3  0  0  0  0  0  0
   33.4070   30.6380   35.2710 C   0  0  0  0  0  0  0  0  0  0  0  0
   33.4040   31.3340   36.4640 C   0  0  0  0  0  3  0  0  0  0  0  0
   34.5780   31.9050   36.8930 C   0  0  0  0  0  3  0  0  0  0  0  0
   35.7170   31.7750   36.1340 C   0  0  0  0  0  3  0  0  0  0  0  0
   35.6840   31.0740   34.9480 C   0  0  0  0  0  3  0  0  0  0  0  0
   34.5360   30.4800   34.4670 C   0  0  0  0  0  0  0  0  0  0  0  0
  1  6  1  1  0  0  0
  2  1  1  0  0  0  0
  2 13  1  0  0  0  0
  2  7  1  1  0  0  0
  3  2  1  0  0  0  0
  4  3  1  0  0  0  0
  4  8  1  0  0  0  0
  4  5  1  0  0  0  0
  5 10  1  6  0  0  0
  5  1  1  0  0  0  0
  5 28  1  0  0  0  0
  9  4  1  0  0  0  0
 11  1  1  0  0  0  0
 11 12  1  0  0  0  0
 13 15  1  0  0  0  0
 15 14  2  6  0  0  0
 15 18  1  0  0  0  0
 15 16  1  0  0  0  0
 16 17  1  0  0  0  0
 18 19  1  0  0  0  0
 19 20  2  0  0  0  0
 19 24  1  0  0  0  0
 20 21  1  0  0  0  0
 21 26  1  0  0  0  0
 21 22  2  0  0  0  0
 23 22  1  0  0  0  0
 23 27  1  0  0  0  0
 24 23  2  0  0  0  0
 25 20  1  0  0  0  0
 28 29  1  0  0  0  0
 29 39  1  0  0  0  0
 30 29  2  0  0  0  0
 30 32  1  0  0  0  0
 31 30  1  0  0  0  0
 32 33  2  0  0  0  0
 33 34  1  0  0  0  0
 34 35  1  0  0  0  0
 35 36  2  0  0  0  0
 37 36  1  0  0  0  0
 38 37  2  0  0  0  0
 39 38  1  0  0  0  0
 39 34  2  0  0  0  0
M  END
>  <minimizedAffinity>
-6.19682837

$$$$

 OpenBabel03272503513D

 39 42  0  0  1  0  0  0  0  0999 V2000
   35.5780   27.8900   31.7280 C   0  0  1  0  0  0  0  0  0  0  0  0
   36.1500   26.5210   32.1590 C   0  0  2  0  0  0  0  0  0  0  0  0
   37.3510   26.8310   32.7100 O   0  0  0  0  0  0  0  0  0  0  0  0
   37.0800   27.9080   33.5390 C   0  0  0  0  0  0  0  0  0  0  0  0
   36.0090   28.7560   32.8850 C   0  0  2  0  0  0  0  0  0  0  0  0
   34.4770   27.8050   31.6380 H   0  0  0  0  0  0  0  0  0  0  0  0
   35.3860   26.1350   32.8720 H   0  0  0  0  0  0  0  0  0  0  0  0
   36.8210   27.6190   34.5710 H   0  0  0  0  0  0  0  0  0  0  0  0
   38.0000   28.5270   33.5890 H   0  0  0  0  0  0  0  0  0  0  0  0
   36.4260   29.7040   32.4940 H   0  0  0  0  0  0  0  0  0  0  0  0
   36.0930   28.2620   30.5030 O   0  0  0  0  0  0  0  0  0  0  0  0
   35.3680   28.5100   29.8730 H   0  0  0  0  0  0  0  0  0  0  0  0
   36.1760   25.7850   31.0020 O   0  0  0  0  0  0  0  0  0  0  0  0
   38.1010   24.1620   30.1960 O   0  0  0  0  0  0  0  0  0  0  0  0
   36.9280   24.2880   31.1650 P   0  0  1  0  0  0  0  0  0  0  0  0
   37.6170   24.1480   32.7060 O   0  0  0  0  0  0  0  0  0  0  0  0
   36.8330   24.0280   33.3270 H   0  0  0  0  0  0  0  0  0  0  0  0
   35.7240   23.1010   30.9320 O   0  0  0  0  0  0  0  0  0  0  0  0
   35.8660   21.8110   31.4240 C   0  0  0  0  0  0  0  0  0  0  0  0
   34.8130   21.0430   31.9770 C   0  0  0  0  0  0  0  0  0  0  0  0
   35.1100   19.7650   32.4290 C   0  0  0  0  0  0  0  0  0  0  0  0
   36.4020   19.3130   32.3190 N   0  0  0  0  0  0  0  0  0  0  0  0
   37.3900   20.0730   31.7840 C   0  0  0  0  0  0  0  0  0  0  0  0
   37.1250   21.3280   31.3340 N   0  0  0  0  0  0  0  0  0  0  0  0
   33.8590   21.5020   32.0070 H   0  0  0  0  0  0  0  0  0  0  0  0
   34.3200   19.1910   32.8430 H   0  0  0  0  0  0  0  0  0  0  0  0
   38.4010   19.7020   31.7050 H   0  0  0  0  0  0  0  0  0  0  0  0
   34.9710   28.9620   33.7530 O   0  0  0  0  0  0  0  0  0  0  0  0
   34.9720   29.9720   34.6780 C   0  0  0  0  0  0  0  0  0  0  0  0
   35.9460   30.8280   35.1000 C   0  0  0  0  0  0  0  0  0  0  0  0
   36.9050   30.7050   34.6300 H   0  0  0  0  0  0  0  0  0  0  0  0
   35.7580   31.7960   36.0580 C   0  0  0  0  0  3  0  0  0  0  0  0
   34.5300   31.9610   36.6660 C   0  0  0  0  0  3  0  0  0  0  0  0
   33.5140   31.0990   36.2540 C   0  0  0  0  0  0  0  0  0  0  0  0
   32.3080   31.3060   36.8940 C   0  0  0  0  0  3  0  0  0  0  0  0
   31.2410   30.5080   36.5580 C   0  0  0  0  0  3  0  0  0  0  0  0
   31.3950   29.5290   35.6050 C   0  0  0  0  0  3  0  0  0  0  0  0
   32.6130   29.3490   34.9850 C   0  0  0  0  0  3  0  0  0  0  0  0
   33.7180   30.1200   35.2810 C   0  0  0  0  0  0  0  0  0  0  0  0
  1  6  1  6  0  0  0
  1  2  1  0  0  0  0
  1  5  1  0  0  0  0
  2  3  1  0  0  0  0
  2  7  1  1  0  0  0
  3  4  1  0  0  0  0
  4  9  1  0  0  0  0
  4  8  1  0  0  0  0
  5 10  1  6  0  0  0
  5  4  1  0  0  0  0
  5 28  1  0  0  0  0
 11  1  1  0  0  0  0
 12 11  1  0  0  0  0
 13 15  1  0  0  0  0
 13  2  1  0  0  0  0
 15 14  2  6  0  0  0
 15 16  1  0  0  0  0
 16 17  1  0  0  0  0
 18 15  1  0  0  0  0
 18 19  1  0  0  0  0
 19 20  1  0  0  0  0
 20 25  1  0  0  0  0
 20 21  2  0  0  0  0
 21 26  1  0  0  0  0
 22 21  1  0  0  0  0
 23 22  2  0  0  0  0
 24 19  2  0  0  0  0
 24 23  1  0  0  0  0
 27 23  1  0  0  0  0
 28 29  1  0  0  0  0
 29 30  2  0  0  0  0
 29 39  1  0  0  0  0
 30 32  1  0  0  0  0
 31 30  1  0  0  0  0
 32 33  2  0  0  0  0
 34 33  1  0  0  0  0
 34 35  1  0  0  0  0
 36 35  2  0  0  0  0
 37 36  1  0  0  0  0
 38 39  1  0  0  0  0
 38 37  2  0  0  0  0
 39 34  2  0  0  0  0
M  END
>  <minimizedAffinity>
-5.99182415

$$$$

 OpenBabel03272503513D

 39 42  0  0  1  0  0  0  0  0999 V2000
   35.7480   26.6660   31.5130 C   0  0  1  0  0  0  0  0  0  0  0  0
   36.8140   26.1590   32.5090 C   0  0  2  0  0  0  0  0  0  0  0  0
   37.9810   26.6340   32.0030 O   0  0  0  0  0  0  0  0  0  0  0  0
   37.7070   27.9560   31.6920 C   0  0  0  0  0  0  0  0  0  0  0  0
   36.2750   28.0460   31.2080 C   0  0  2  0  0  0  0  0  0  0  0  0
   34.7630   26.6820   32.0210 H   0  0  0  0  0  0  0  0  0  0  0  0
   36.4990   26.6110   33.4770 H   0  0  0  0  0  0  0  0  0  0  0  0
   37.9220   28.6590   32.5150 H   0  0  0  0  0  0  0  0  0  0  0  0
   38.3580   28.2370   30.8380 H   0  0  0  0  0  0  0  0  0  0  0  0
   36.2260   28.2210   30.1170 H   0  0  0  0  0  0  0  0  0  0  0  0
   35.6680   25.8240   30.4230 O   0  0  0  0  0  0  0  0  0  0  0  0
   34.7310   25.5450   30.2560 H   0  0  0  0  0  0  0  0  0  0  0  0
   36.6550   24.7970   32.5130 O   0  0  0  0  0  0  0  0  0  0  0  0
   37.4770   22.5010   33.5310 O   0  0  0  0  0  0  0  0  0  0  0  0
   37.8380   23.9760   33.3850 P   0  0  1  0  0  0  0  0  0  0  0  0
   39.3010   23.9860   32.5330 O   0  0  0  0  0  0  0  0  0  0  0  0
   39.6370   24.9330   32.6120 H   0  0  0  0  0  0  0  0  0  0  0  0
   38.0030   24.7870   34.8780 O   0  0  0  0  0  0  0  0  0  0  0  0
   38.5310   24.1560   35.9950 C   0  0  0  0  0  0  0  0  0  0  0  0
   37.8710   24.0500   37.2440 C   0  0  0  0  0  0  0  0  0  0  0  0
   38.5290   23.3880   38.2710 C   0  0  0  0  0  0  0  0  0  0  0  0
   39.7780   22.8720   38.0280 N   0  0  0  0  0  0  0  0  0  0  0  0
   40.3850   22.9900   36.8200 C   0  0  0  0  0  0  0  0  0  0  0  0
   39.7620   23.6340   35.7980 N   0  0  0  0  0  0  0  0  0  0  0  0
   36.9080   24.4890   37.3080 H   0  0  0  0  0  0  0  0  0  0  0  0
   38.0320   23.3100   39.2050 H   0  0  0  0  0  0  0  0  0  0  0  0
   41.3680   22.5790   36.6450 H   0  0  0  0  0  0  0  0  0  0  0  0
   35.5920   28.9960   31.9190 O   0  0  0  0  0  0  0  0  0  0  0  0
   35.9120   30.3270   31.8670 C   0  0  0  0  0  0  0  0  0  0  0  0
   36.2330   31.1540   30.8320 C   0  0  0  0  0  0  0  0  0  0  0  0
   36.2440   30.6930   29.8600 H   0  0  0  0  0  0  0  0  0  0  0  0
   36.5300   32.4880   30.9760 C   0  0  0  0  0  3  0  0  0  0  0  0
   36.5180   33.0860   32.2190 C   0  0  0  0  0  3  0  0  0  0  0  0
   36.1910   32.2640   33.2990 C   0  0  0  0  0  0  0  0  0  0  0  0
   36.1950   32.9120   34.5180 C   0  0  0  0  0  3  0  0  0  0  0  0
   35.8860   32.1900   35.6460 C   0  0  0  0  0  3  0  0  0  0  0  0
   35.5850   30.8520   35.5370 C   0  0  0  0  0  3  0  0  0  0  0  0
   35.5910   30.2370   34.3040 C   0  0  0  0  0  3  0  0  0  0  0  0
   35.8930   30.9110   33.1390 C   0  0  0  0  0  0  0  0  0  0  0  0
  1  6  1  1  0  0  0
  1  2  1  0  0  0  0
  2 13  1  0  0  0  0
  2  7  1  1  0  0  0
  3  2  1  0  0  0  0
  4  3  1  0  0  0  0
  4  8  1  0  0  0  0
  5 10  1  6  0  0  0
  5  1  1  0  0  0  0
  5  4  1  0  0  0  0
  5 28  1  0  0  0  0
  9  4  1  0  0  0  0
 11  1  1  0  0  0  0
 12 11  1  0  0  0  0
 13 15  1  0  0  0  0
 15 14  2  1  0  0  0
 15 18  1  0  0  0  0
 16 17  1  0  0  0  0
 16 15  1  0  0  0  0
 18 19  1  0  0  0  0
 19 20  1  0  0  0  0
 20 25  1  0  0  0  0
 20 21  2  0  0  0  0
 21 26  1  0  0  0  0
 22 21  1  0  0  0  0
 23 22  2  0  0  0  0
 24 19  2  0  0  0  0
 24 23  1  0  0  0  0
 27 23  1  0  0  0  0
 29 28  1  0  0  0  0
 29 39  1  0  0  0  0
 30 32  1  0  0  0  0
 30 29  2  0  0  0  0
 31 30  1  0  0  0  0
 32 33  2  0  0  0  0
 33 34  1  0  0  0  0
 34 35  1  0  0  0  0
 35 36  2  0  0  0  0
 37 36  1  0  0  0  0
 38 37  2  0  0  0  0
 39 34  2  0  0  0  0
 39 38  1  0  0  0  0
M  END
>  <minimizedAffinity>
-5.99064016

$$$$

 OpenBabel03272503513D

 39 42  0  0  1  0  0  0  0  0999 V2000
   37.5950   27.0950   35.0410 C   0  0  1  0  0  0  0  0  0  0  0  0
   37.0970   27.3380   33.6000 C   0  0  2  0  0  0  0  0  0  0  0  0
   38.2360   27.5670   32.8980 O   0  0  0  0  0  0  0  0  0  0  0  0
   39.1010   26.5680   33.3130 C   0  0  0  0  0  0  0  0  0  0  0  0
   38.8460   26.2950   34.7810 C   0  0  2  0  0  0  0  0  0  0  0  0
   36.8230   26.5250   35.5950 H   0  0  0  0  0  0  0  0  0  0  0  0
   36.5670   26.3910   33.3470 H   0  0  0  0  0  0  0  0  0  0  0  0
   39.0530   25.6550   32.6970 H   0  0  0  0  0  0  0  0  0  0  0  0
   40.1330   26.9680   33.2320 H   0  0  0  0  0  0  0  0  0  0  0  0
   39.6650   26.6830   35.4140 H   0  0  0  0  0  0  0  0  0  0  0  0
   37.8020   28.2980   35.6870 O   0  0  0  0  0  0  0  0  0  0  0  0
   37.3350   28.3170   36.5620 H   0  0  0  0  0  0  0  0  0  0  0  0
   36.2230   28.3890   33.7140 O   0  0  0  0  0  0  0  0  0  0  0  0
   35.3910   27.7060   31.3000 O   0  0  0  0  0  0  0  0  0  0  0  0
   35.5660   28.8900   32.2470 P   0  0  1  0  0  0  0  0  0  0  0  0
   34.0020   29.4940   32.4870 O   0  0  0  0  0  0  0  0  0  0  0  0
   34.1380   30.3830   32.9410 H   0  0  0  0  0  0  0  0  0  0  0  0
   36.5960   30.1050   31.6340 O   0  0  0  0  0  0  0  0  0  0  0  0
   37.0560   30.0780   30.3250 C   0  0  0  0  0  0  0  0  0  0  0  0
   37.7330   28.9840   29.7350 C   0  0  0  0  0  0  0  0  0  0  0  0
   38.1340   29.1050   28.4120 C   0  0  0  0  0  0  0  0  0  0  0  0
   37.8560   30.2720   27.7450 N   0  0  0  0  0  0  0  0  0  0  0  0
   37.2050   31.3050   28.3370 C   0  0  0  0  0  0  0  0  0  0  0  0
   36.8020   31.2110   29.6320 N   0  0  0  0  0  0  0  0  0  0  0  0
   37.8880   28.1360   30.3520 H   0  0  0  0  0  0  0  0  0  0  0  0
   38.6410   28.2830   27.9720 H   0  0  0  0  0  0  0  0  0  0  0  0
   36.9950   32.2170   27.7990 H   0  0  0  0  0  0  0  0  0  0  0  0
   38.6190   24.9590   34.9820 O   0  0  0  0  0  0  0  0  0  0  0  0
   38.7220   24.3720   36.2160 C   0  0  0  0  0  0  0  0  0  0  0  0
   38.0040   24.5210   37.3660 C   0  0  0  0  0  0  0  0  0  0  0  0
   37.1980   25.2320   37.3180 H   0  0  0  0  0  0  0  0  0  0  0  0
   38.2590   23.8330   38.5270 C   0  0  0  0  0  3  0  0  0  0  0  0
   39.2910   22.9200   38.5970 C   0  0  0  0  0  3  0  0  0  0  0  0
   40.0440   22.7450   37.4350 C   0  0  0  0  0  0  0  0  0  0  0  0
   41.0630   21.8220   37.5590 C   0  0  0  0  0  3  0  0  0  0  0  0
   41.8630   21.5770   36.4690 C   0  0  0  0  0  3  0  0  0  0  0  0
   41.6360   22.2500   35.2910 C   0  0  0  0  0  3  0  0  0  0  0  0
   40.6090   23.1650   35.2020 C   0  0  0  0  0  3  0  0  0  0  0  0
   39.7740   23.4510   36.2620 C   0  0  0  0  0  0  0  0  0  0  0  0
  1  6  1  1  0  0  0
  1 11  1  0  0  0  0
  2  7  1  6  0  0  0
  2 13  1  0  0  0  0
  2  1  1  0  0  0  0
  3  4  1  0  0  0  0
  3  2  1  0  0  0  0
  4  5  1  0  0  0  0
  5 28  1  0  0  0  0
  5  1  1  0  0  0  0
  5 10  1  1  0  0  0
  8  4  1  0  0  0  0
  9  4  1  0  0  0  0
 11 12  1  0  0  0  0
 15 14  2  6  0  0  0
 15 16  1  0  0  0  0
 15 13  1  0  0  0  0
 16 17  1  0  0  0  0
 18 15  1  0  0  0  0
 19 18  1  0  0  0  0
 20 19  1  0  0  0  0
 20 25  1  0  0  0  0
 21 20  2  0  0  0  0
 22 23  2  0  0  0  0
 22 21  1  0  0  0  0
 23 24  1  0  0  0  0
 24 19  2  0  0  0  0
 26 21  1  0  0  0  0
 27 23  1  0  0  0  0
 28 29  1  0  0  0  0
 29 39  2  0  0  0  0
 29 30  1  0  0  0  0
 30 32  2  0  0  0  0
 31 30  1  0  0  0  0
 32 33  1  0  0  0  0
 34 35  1  0  0  0  0
 34 33  2  0  0  0  0
 36 35  2  0  0  0  0
 37 36  1  0  0  0  0
 38 37  2  0  0  0  0
 38 39  1  0  0  0  0
 39 34  1  0  0  0  0
M  END
>  <minimizedAffinity>
-5.93706608

$$$$

 OpenBabel03272503513D

 39 42  0  0  1  0  0  0  0  0999 V2000
   38.8280   24.3670   33.9980 C   0  0  1  0  0  0  0  0  0  0  0  0
   38.0600   24.8080   35.2630 C   0  0  2  0  0  0  0  0  0  0  0  0
   37.6880   26.0840   34.9880 O   0  0  0  0  0  0  0  0  0  0  0  0
   37.1850   26.0230   33.6980 C   0  0  0  0  0  0  0  0  0  0  0  0
   37.9910   25.0060   32.9180 C   0  0  2  0  0  0  0  0  0  0  0  0
   38.8280   23.2600   33.9470 H   0  0  0  0  0  0  0  0  0  0  0  0
   37.2250   24.0740   35.3270 H   0  0  0  0  0  0  0  0  0  0  0  0
   36.1000   25.8290   33.6540 H   0  0  0  0  0  0  0  0  0  0  0  0
   37.3630   27.0110   33.2260 H   0  0  0  0  0  0  0  0  0  0  0  0
   38.6570   25.4940   32.1830 H   0  0  0  0  0  0  0  0  0  0  0  0
   40.1350   24.8060   34.0510 O   0  0  0  0  0  0  0  0  0  0  0  0
   40.7680   24.0600   33.8860 H   0  0  0  0  0  0  0  0  0  0  0  0
   38.9600   24.6360   36.2840 O   0  0  0  0  0  0  0  0  0  0  0  0
   37.6530   23.5400   38.3030 O   0  0  0  0  0  0  0  0  0  0  0  0
   38.6830   23.2590   37.2120 P   0  0  1  0  0  0  0  0  0  0  0  0
   37.9890   22.0440   36.2570 O   0  0  0  0  0  0  0  0  0  0  0  0
   38.7400   21.7220   35.6690 H   0  0  0  0  0  0  0  0  0  0  0  0
   40.1980   22.7590   37.8190 O   0  0  0  0  0  0  0  0  0  0  0  0
   41.0740   22.0010   37.0570 C   0  0  0  0  0  0  0  0  0  0  0  0
   41.9750   21.0440   37.5840 C   0  0  0  0  0  0  0  0  0  0  0  0
   42.7920   20.3620   36.6940 C   0  0  0  0  0  0  0  0  0  0  0  0
   42.6870   20.6460   35.3550 N   0  0  0  0  0  0  0  0  0  0  0  0
   41.8140   21.5680   34.8790 C   0  0  0  0  0  0  0  0  0  0  0  0
   41.0030   22.2510   35.7300 N   0  0  0  0  0  0  0  0  0  0  0  0
   41.9620   20.9140   38.6360 H   0  0  0  0  0  0  0  0  0  0  0  0
   43.4660   19.6450   37.0920 H   0  0  0  0  0  0  0  0  0  0  0  0
   41.7440   21.7810   33.8230 H   0  0  0  0  0  0  0  0  0  0  0  0
   37.1600   24.0850   32.3380 O   0  0  0  0  0  0  0  0  0  0  0  0
   37.6210   23.0880   31.5190 C   0  0  0  0  0  0  0  0  0  0  0  0
   38.6820   23.0200   30.6650 C   0  0  0  0  0  0  0  0  0  0  0  0
   39.2870   23.9070   30.6080 H   0  0  0  0  0  0  0  0  0  0  0  0
   38.9930   21.9130   29.9120 C   0  0  0  0  0  3  0  0  0  0  0  0
   38.2230   20.7710   29.9800 C   0  0  0  0  0  3  0  0  0  0  0  0
   37.1300   20.8110   30.8460 C   0  0  0  0  0  0  0  0  0  0  0  0
   36.3930   19.6440   30.8760 C   0  0  0  0  0  3  0  0  0  0  0  0
   35.2950   19.5810   31.6990 C   0  0  0  0  0  3  0  0  0  0  0  0
   34.9550   20.6710   32.4660 C   0  0  0  0  0  3  0  0  0  0  0  0
   35.7120   21.8210   32.4130 C   0  0  0  0  0  3  0  0  0  0  0  0
   36.8250   21.9410   31.6050 C   0  0  0  0  0  0  0  0  0  0  0  0
  1  6  1  6  0  0  0
  1 11  1  0  0  0  0
  1  2  1  0  0  0  0
  2  7  1  1  0  0  0
  2 13  1  0  0  0  0
  3  2  1  0  0  0  0
  4  3  1  0  0  0  0
  5 10  1  6  0  0  0
  5  4  1  0  0  0  0
  5  1  1  0  0  0  0
  8  4  1  0  0  0  0
  9  4  1  0  0  0  0
 12 11  1  0  0  0  0
 13 15  1  0  0  0  0
 15 18  1  0  0  0  0
 15 14  2  1  0  0  0
 16 15  1  0  0  0  0
 17 16  1  0  0  0  0
 19 20  1  0  0  0  0
 19 18  1  0  0  0  0
 20 25  1  0  0  0  0
 21 26  1  0  0  0  0
 21 20  2  0  0  0  0
 22 21  1  0  0  0  0
 23 22  2  0  0  0  0
 23 24  1  0  0  0  0
 24 19  2  0  0  0  0
 27 23  1  0  0  0  0
 28  5  1  0  0  0  0
 29 39  1  0  0  0  0
 29 28  1  0  0  0  0
 30 29  2  0  0  0  0
 31 30  1  0  0  0  0
 32 33  2  0  0  0  0
 32 30  1  0  0  0  0
 33 34  1  0  0  0  0
 34 35  2  0  0  0  0
 34 39  1  0  0  0  0
 35 36  1  0  0  0  0
 36 37  2  0  0  0  0
 38 37  1  0  0  0  0
 39 38  2  0  0  0  0
M  END
>  <minimizedAffinity>
-5.78276873

$$$$

 OpenBabel03272503513D

 39 42  0  0  1  0  0  0  0  0999 V2000
   38.7300   25.6970   32.4050 C   0  0  1  0  0  0  0  0  0  0  0  0
   38.3260   27.1860   32.3450 C   0  0  2  0  0  0  0  0  0  0  0  0
   37.0800   27.2050   32.8840 O   0  0  0  0  0  0  0  0  0  0  0  0
   37.1890   26.4260   34.0250 C   0  0  0  0  0  0  0  0  0  0  0  0
   38.1600   25.2990   33.7430 C   0  0  2  0  0  0  0  0  0  0  0  0
   39.8350   25.6240   32.3660 H   0  0  0  0  0  0  0  0  0  0  0  0
   39.1120   27.6910   32.9510 H   0  0  0  0  0  0  0  0  0  0  0  0
   37.4540   26.9990   34.9300 H   0  0  0  0  0  0  0  0  0  0  0  0
   36.1960   25.9630   34.2060 H   0  0  0  0  0  0  0  0  0  0  0  0
   37.6380   24.3300   33.6430 H   0  0  0  0  0  0  0  0  0  0  0  0
   38.2060   25.0120   31.3270 O   0  0  0  0  0  0  0  0  0  0  0  0
   38.9100   24.4970   30.8550 H   0  0  0  0  0  0  0  0  0  0  0  0
   38.4250   27.5120   31.0170 O   0  0  0  0  0  0  0  0  0  0  0  0
   37.2700   28.6700   28.9400 O   0  0  0  0  0  0  0  0  0  0  0  0
   37.1240   28.4100   30.4370 P   0  0  1  0  0  0  0  0  0  0  0  0
   35.6900   27.5210   30.5890 O   0  0  0  0  0  0  0  0  0  0  0  0
   35.4910   27.5250   31.5770 H   0  0  0  0  0  0  0  0  0  0  0  0
   37.0530   29.8370   31.3710 O   0  0  0  0  0  0  0  0  0  0  0  0
   35.8680   30.2720   31.9480 C   0  0  0  0  0  0  0  0  0  0  0  0
   35.6470   30.3780   33.3420 C   0  0  0  0  0  0  0  0  0  0  0  0
   34.4070   30.8290   33.7710 C   0  0  0  0  0  0  0  0  0  0  0  0
   33.4620   31.1480   32.8270 N   0  0  0  0  0  0  0  0  0  0  0  0
   33.7030   31.0360   31.4970 C   0  0  0  0  0  0  0  0  0  0  0  0
   34.9100   30.5950   31.0520 N   0  0  0  0  0  0  0  0  0  0  0  0
   36.4550   30.1030   33.9710 H   0  0  0  0  0  0  0  0  0  0  0  0
   34.2440   30.9090   34.8160 H   0  0  0  0  0  0  0  0  0  0  0  0
   32.9490   31.2900   30.7670 H   0  0  0  0  0  0  0  0  0  0  0  0
   39.1400   25.2670   34.6990 O   0  0  0  0  0  0  0  0  0  0  0  0
   38.9730   24.6380   35.9050 C   0  0  0  0  0  0  0  0  0  0  0  0
   38.0490   24.7870   36.8960 C   0  0  0  0  0  0  0  0  0  0  0  0
   37.2970   25.5350   36.7180 H   0  0  0  0  0  0  0  0  0  0  0  0
   38.0420   24.0520   38.0580 C   0  0  0  0  0  3  0  0  0  0  0  0
   39.0020   23.0900   38.2930 C   0  0  0  0  0  3  0  0  0  0  0  0
   39.9620   22.9160   37.2950 C   0  0  0  0  0  0  0  0  0  0  0  0
   40.8990   21.9430   37.5810 C   0  0  0  0  0  3  0  0  0  0  0  0
   41.8880   21.6930   36.6610 C   0  0  0  0  0  3  0  0  0  0  0  0
   41.9250   22.4110   35.4890 C   0  0  0  0  0  3  0  0  0  0  0  0
   40.9740   23.3750   35.2350 C   0  0  0  0  0  3  0  0  0  0  0  0
   39.9580   23.6680   36.1210 C   0  0  0  0  0  0  0  0  0  0  0  0
  1  6  1  1  0  0  0
  1  5  1  0  0  0  0
  2  1  1  0  0  0  0
  2  3  1  0  0  0  0
  2  7  1  1  0  0  0
  3  4  1  0  0  0  0
  4  9  1  0  0  0  0
  4  8  1  0  0  0  0
  5 10  1  6  0  0  0
  5  4  1  0  0  0  0
  5 28  1  0  0  0  0
 11  1  1  0  0  0  0
 12 11  1  0  0  0  0
 13  2  1  0  0  0  0
 15 14  2  6  0  0  0
 15 16  1  0  0  0  0
 15 13  1  0  0  0  0
 15 18  1  0  0  0  0
 16 17  1  0  0  0  0
 18 19  1  0  0  0  0
 19 20  1  0  0  0  0
 20 21  2  0  0  0  0
 20 25  1  0  0  0  0
 21 26  1  0  0  0  0
 22 21  1  0  0  0  0
 23 22  2  0  0  0  0
 24 23  1  0  0  0  0
 24 19  2  0  0  0  0
 27 23  1  0  0  0  0
 28 29  1  0  0  0  0
 29 39  2  0  0  0  0
 29 30  1  0  0  0  0
 30 32  2  0  0  0  0
 31 30  1  0  0  0  0
 32 33  1  0  0  0  0
 34 35  1  0  0  0  0
 34 33  2  0  0  0  0
 36 35  2  0  0  0  0
 37 36  1  0  0  0  0
 38 37  2  0  0  0  0
 38 39  1  0  0  0  0
 39 34  1  0  0  0  0
M  END
>  <minimizedAffinity>
-5.77316952

$$$$

 OpenBabel03272503513D

 39 42  0  0  1  0  0  0  0  0999 V2000
   37.6820   25.1360   31.2600 C   0  0  1  0  0  0  0  0  0  0  0  0
   38.7640   24.0970   31.6260 C   0  0  2  0  0  0  0  0  0  0  0  0
   39.5830   24.0870   30.5430 O   0  0  0  0  0  0  0  0  0  0  0  0
   39.7900   25.4270   30.2580 C   0  0  0  0  0  0  0  0  0  0  0  0
   38.5150   26.1840   30.5650 C   0  0  2  0  0  0  0  0  0  0  0  0
   37.2120   25.5060   32.1930 H   0  0  0  0  0  0  0  0  0  0  0  0
   39.2150   24.5100   32.5570 H   0  0  0  0  0  0  0  0  0  0  0  0
   40.6710   25.8560   30.7650 H   0  0  0  0  0  0  0  0  0  0  0  0
   39.9640   25.5100   29.1650 H   0  0  0  0  0  0  0  0  0  0  0  0
   38.0010   26.5020   29.6390 H   0  0  0  0  0  0  0  0  0  0  0  0
   36.7060   24.5580   30.4740 O   0  0  0  0  0  0  0  0  0  0  0  0
   35.8020   24.7320   30.8430 H   0  0  0  0  0  0  0  0  0  0  0  0
   38.0600   22.9470   31.8750 O   0  0  0  0  0  0  0  0  0  0  0  0
   37.0200   21.5040   33.8310 O   0  0  0  0  0  0  0  0  0  0  0  0
   38.2070   22.3880   33.4570 P   0  0  1  0  0  0  0  0  0  0  0  0
   39.5620   21.3830   33.5960 O   0  0  0  0  0  0  0  0  0  0  0  0
   40.3500   22.0090   33.5480 H   0  0  0  0  0  0  0  0  0  0  0  0
   38.3700   23.7640   34.4530 O   0  0  0  0  0  0  0  0  0  0  0  0
   38.5200   23.6550   35.8280 C   0  0  0  0  0  0  0  0  0  0  0  0
   37.6380   24.2210   36.7800 C   0  0  0  0  0  0  0  0  0  0  0  0
   37.9210   24.0260   38.1240 C   0  0  0  0  0  0  0  0  0  0  0  0
   39.0350   23.2980   38.4630 N   0  0  0  0  0  0  0  0  0  0  0  0
   39.8630   22.7680   37.5280 C   0  0  0  0  0  0  0  0  0  0  0  0
   39.6070   22.9450   36.2040 N   0  0  0  0  0  0  0  0  0  0  0  0
   36.8120   24.7610   36.3950 H   0  0  0  0  0  0  0  0  0  0  0  0
   37.2580   24.4510   38.8350 H   0  0  0  0  0  0  0  0  0  0  0  0
   40.7350   22.1980   37.8100 H   0  0  0  0  0  0  0  0  0  0  0  0
   38.7760   27.2330   31.4040 O   0  0  0  0  0  0  0  0  0  0  0  0
   37.9290   27.5950   32.4180 C   0  0  0  0  0  0  0  0  0  0  0  0
   37.7960   27.1570   33.7030 C   0  0  0  0  0  0  0  0  0  0  0  0
   38.4760   26.3780   33.9980 H   0  0  0  0  0  0  0  0  0  0  0  0
   36.8700   27.6480   34.5910 C   0  0  0  0  0  3  0  0  0  0  0  0
   35.9940   28.6480   34.2210 C   0  0  0  0  0  3  0  0  0  0  0  0
   36.1070   29.1170   32.9120 C   0  0  0  0  0  0  0  0  0  0  0  0
   35.2070   30.1150   32.5930 C   0  0  0  0  0  3  0  0  0  0  0  0
   35.2370   30.6460   31.3260 C   0  0  0  0  0  3  0  0  0  0  0  0
   36.1510   30.1760   30.4110 C   0  0  0  0  0  3  0  0  0  0  0  0
   37.0350   29.1780   30.7630 C   0  0  0  0  0  3  0  0  0  0  0  0
   37.0510   28.6090   32.0190 C   0  0  0  0  0  0  0  0  0  0  0  0
  1  2  1  0  0  0  0
  1  6  1  1  0  0  0
  2 13  1  0  0  0  0
  2  7  1  1  0  0  0
  3  2  1  0  0  0  0
  4  3  1  0  0  0  0
  4  5  1  0  0  0  0
  4  8  1  0  0  0  0
  5 10  1  6  0  0  0
  5  1  1  0  0  0  0
  5 28  1  0  0  0  0
  9  4  1  0  0  0  0
 11 12  1  0  0  0  0
 11  1  1  0  0  0  0
 13 15  1  0  0  0  0
 15 16  1  0  0  0  0
 15 14  2  1  0  0  0
 15 18  1  0  0  0  0
 17 16  1  0  0  0  0
 18 19  1  0  0  0  0
 19 24  2  0  0  0  0
 19 20  1  0  0  0  0
 20 21  2  0  0  0  0
 21 22  1  0  0  0  0
 21 26  1  0  0  0  0
 23 27  1  0  0  0  0
 23 22  2  0  0  0  0
 24 23  1  0  0  0  0
 25 20  1  0  0  0  0
 28 29  1  0  0  0  0
 29 30  1  0  0  0  0
 30 31  1  0  0  0  0
 30 32  2  0  0  0  0
 33 32  1  0  0  0  0
 34 33  2  0  0  0  0
 35 34  1  0  0  0  0
 36 35  2  0  0  0  0
 37 38  2  0  0  0  0
 37 36  1  0  0  0  0
 38 39  1  0  0  0  0
 39 29  2  0  0  0  0
 39 34  1  0  0  0  0
M  END
>  <minimizedAffinity>
-5.73989153

$$$$
