
 OpenBabel03272508273D

 40 44  0  0  1  0  0  0  0  0999 V2000
   33.6700   28.9690   47.2320 C   0  0  2  0  0  0  0  0  0  0  0  0
   34.4430   28.1220   48.2340 C   0  0  2  0  0  0  0  0  0  0  0  0
   33.5760   27.8830   49.2570 O   0  0  0  0  0  0  0  0  0  0  0  0
   32.2890   27.9780   48.8360 C   0  0  0  0  0  0  0  0  0  0  0  0
   32.3020   28.2860   47.3520 C   0  0  1  0  0  0  0  0  0  0  0  0
   33.5760   30.0110   47.5370 H   0  0  0  0  0  0  0  0  0  0  0  0
   34.7040   27.1720   47.7520 H   0  0  0  0  0  0  0  0  0  0  0  0
   31.8480   28.8950   49.3220 H   0  0  0  0  0  0  0  0  0  0  0  0
   31.6390   27.1350   49.0870 H   0  0  0  0  0  0  0  0  0  0  0  0
   32.3550   27.3040   46.8240 H   0  0  0  0  0  0  0  0  0  0  0  0
   35.5570   30.3420   48.9670 C   0  0  1  0  0  0  0  0  0  0  0  0
   35.6250   28.9300   48.6710 C   0  0  1  0  0  0  0  0  0  0  0  0
   35.8080   29.3310   50.0980 C   0  0  0  0  0  0  0  0  0  0  0  0
   34.6410   30.9350   49.2140 H   0  0  0  0  0  0  0  0  0  0  0  0
   36.5600   28.6030   48.1330 H   0  0  0  0  0  0  0  0  0  0  0  0
   35.0120   29.1110   50.8200 H   0  0  0  0  0  0  0  0  0  0  0  0
   36.8370   29.2630   50.5250 H   0  0  0  0  0  0  0  0  0  0  0  0
   36.7620   31.2420   48.7420 C   0  0  0  0  0  0  0  0  0  0  0  0
   37.0130   32.2170   49.7100 C   0  0  0  0  0  0  0  0  0  0  0  0
   38.1090   33.0330   49.4450 C   0  0  0  0  0  0  0  0  0  0  0  0
   38.8570   32.8710   48.3290 N   0  0  0  0  0  0  0  0  0  0  0  0
   38.5750   31.9040   47.4120 C   0  0  0  0  0  0  0  0  0  0  0  0
   37.5150   31.0790   47.6210 N   0  0  0  0  0  0  0  0  0  0  0  0
   36.3780   32.2980   50.5810 H   0  0  0  0  0  0  0  0  0  0  0  0
   38.3410   33.8060   50.1700 H   0  0  0  0  0  0  0  0  0  0  0  0
   39.1990   31.8120   46.5380 H   0  0  0  0  0  0  0  0  0  0  0  0
   34.1550   28.9030   45.9460 O   0  0  0  0  0  0  0  0  0  0  0  0
   35.1250   28.7330   45.8760 H   0  0  0  0  0  0  0  0  0  0  0  0
   31.2860   29.1050   46.9400 O   0  0  0  0  0  0  0  0  0  0  0  0
   30.2690   28.7900   46.0820 C   0  0  0  0  0  0  0  0  0  0  0  0
   30.3460   28.5220   44.7360 C   0  0  0  0  0  0  0  0  0  0  0  0
   31.3380   28.5670   44.3060 H   0  0  0  0  0  0  0  0  0  0  0  0
   29.2500   28.2140   43.9570 C   0  0  0  0  0  3  0  0  0  0  0  0
   28.0050   28.1690   44.5520 C   0  0  0  0  0  3  0  0  0  0  0  0
   27.8550   28.4300   45.9110 C   0  0  0  0  0  0  0  0  0  0  0  0
   26.6060   28.3820   46.4920 C   0  0  0  0  0  3  0  0  0  0  0  0
   26.4810   28.6440   47.8370 C   0  0  0  0  0  3  0  0  0  0  0  0
   27.5680   28.9520   48.6200 C   0  0  0  0  0  3  0  0  0  0  0  0
   28.7970   28.9870   47.9870 C   0  0  0  0  0  3  0  0  0  0  0  0
   28.9910   28.7320   46.6330 C   0  0  0  0  0  0  0  0  0  0  0  0
  1  5  1  0  0  0  0
  1  6  1  1  0  0  0
  1  2  1  0  0  0  0
  2  7  1  6  0  0  0
  2 12  1  0  0  0  0
  2  3  1  0  0  0  0
  4  9  1  0  0  0  0
  4  3  1  0  0  0  0
  4  8  1  0  0  0  0
  5 10  1  6  0  0  0
  5  4  1  0  0  0  0
 11 14  1  6  0  0  0
 11 13  1  0  0  0  0
 12 15  1  6  0  0  0
 12 11  1  0  0  0  0
 12 13  1  0  0  0  0
 13 17  1  0  0  0  0
 13 16  1  0  0  0  0
 18 11  1  0  0  0  0
 18 19  1  0  0  0  0
 19 24  1  0  0  0  0
 20 19  2  0  0  0  0
 20 25  1  0  0  0  0
 21 20  1  0  0  0  0
 22 23  1  0  0  0  0
 22 21  2  0  0  0  0
 23 18  2  0  0  0  0
 26 22  1  0  0  0  0
 27  1  1  0  0  0  0
 28 27  1  0  0  0  0
 29  5  1  0  0  0  0
 30 40  1  0  0  0  0
 30 29  1  0  0  0  0
 31 30  2  0  0  0  0
 32 31  1  0  0  0  0
 33 34  2  0  0  0  0
 33 31  1  0  0  0  0
 34 35  1  0  0  0  0
 35 36  2  0  0  0  0
 35 40  1  0  0  0  0
 36 37  1  0  0  0  0
 37 38  2  0  0  0  0
 39 38  1  0  0  0  0
 40 39  2  0  0  0  0
M  END
>  <minimizedAffinity>
-6.0483346

>  <minimizedRMSD>
0.427018315

$$$$
