
 OpenBabel03272503503D

 39 42  0  0  1  0  0  0  0  0999 V2000
   33.1980   27.2820   45.8830 C   0  0  1  0  0  0  0  0  0  0  0  0
   33.8740   27.4470   47.2620 C   0  0  2  0  0  0  0  0  0  0  0  0
   33.6750   26.2480   47.8670 O   0  0  0  0  0  0  0  0  0  0  0  0
   34.0040   25.3160   46.8950 C   0  0  0  0  0  0  0  0  0  0  0  0
   33.5800   25.8620   45.5470 C   0  0  2  0  0  0  0  0  0  0  0  0
   33.6300   28.0230   45.1820 H   0  0  0  0  0  0  0  0  0  0  0  0
   34.9320   27.6790   47.0050 H   0  0  0  0  0  0  0  0  0  0  0  0
   35.0640   25.0110   46.9140 H   0  0  0  0  0  0  0  0  0  0  0  0
   33.3940   24.4090   47.0860 H   0  0  0  0  0  0  0  0  0  0  0  0
   32.6930   25.3290   45.1560 H   0  0  0  0  0  0  0  0  0  0  0  0
   31.8400   27.5070   45.9830 O   0  0  0  0  0  0  0  0  0  0  0  0
   31.5390   28.1690   45.3080 H   0  0  0  0  0  0  0  0  0  0  0  0
   33.2430   28.5290   47.8220 O   0  0  0  0  0  0  0  0  0  0  0  0
   35.3320   29.7710   46.7830 O   0  0  0  0  0  0  0  0  0  0  0  0
   34.0680   29.9810   47.6130 P   0  0  1  0  0  0  0  0  0  0  0  0
   33.1270   31.0610   46.7100 O   0  0  0  0  0  0  0  0  0  0  0  0
   32.3970   31.3530   47.3410 H   0  0  0  0  0  0  0  0  0  0  0  0
   34.3760   30.6040   49.1720 O   0  0  0  0  0  0  0  0  0  0  0  0
   35.6210   30.4850   49.7720 C   0  0  0  0  0  0  0  0  0  0  0  0
   35.9810   29.4570   50.6760 C   0  0  0  0  0  0  0  0  0  0  0  0
   37.2680   29.4710   51.1960 C   0  0  0  0  0  0  0  0  0  0  0  0
   38.1220   30.4740   50.8100 N   0  0  0  0  0  0  0  0  0  0  0  0
   37.7480   31.4470   49.9420 C   0  0  0  0  0  0  0  0  0  0  0  0
   36.4930   31.4550   49.4190 N   0  0  0  0  0  0  0  0  0  0  0  0
   35.2340   28.7380   50.8960 H   0  0  0  0  0  0  0  0  0  0  0  0
   37.5350   28.6990   51.8730 H   0  0  0  0  0  0  0  0  0  0  0  0
   38.4310   32.2290   49.6490 H   0  0  0  0  0  0  0  0  0  0  0  0
   34.6320   25.8350   44.6720 O   0  0  0  0  0  0  0  0  0  0  0  0
   34.6460   25.0340   43.5600 C   0  0  0  0  0  0  0  0  0  0  0  0
   33.8290   24.9630   42.4710 C   0  0  0  0  0  0  0  0  0  0  0  0
   33.0110   25.6610   42.4600 H   0  0  0  0  0  0  0  0  0  0  0  0
   34.0040   24.0760   41.4350 C   0  0  0  0  0  3  0  0  0  0  0  0
   35.0520   23.1780   41.4410 C   0  0  0  0  0  3  0  0  0  0  0  0
   35.9040   23.2280   42.5440 C   0  0  0  0  0  0  0  0  0  0  0  0
   36.9330   22.3080   42.5000 C   0  0  0  0  0  3  0  0  0  0  0  0
   37.8300   22.2750   43.5400 C   0  0  0  0  0  3  0  0  0  0  0  0
   37.6840   23.1490   44.5930 C   0  0  0  0  0  3  0  0  0  0  0  0
   36.6450   24.0540   44.6050 C   0  0  0  0  0  3  0  0  0  0  0  0
   35.7160   24.1310   43.5890 C   0  0  0  0  0  0  0  0  0  0  0  0
  1  6  1  6  0  0  0
  1 11  1  0  0  0  0
  1  2  1  0  0  0  0
  2  7  1  6  0  0  0
  2 13  1  0  0  0  0
  2  3  1  0  0  0  0
  4  8  1  0  0  0  0
  4  9  1  0  0  0  0
  4  3  1  0  0  0  0
  5 10  1  6  0  0  0
  5  1  1  0  0  0  0
  5  4  1  0  0  0  0
 12 11  1  0  0  0  0
 15 14  2  6  0  0  0
 15 13  1  0  0  0  0
 15 18  1  0  0  0  0
 16 17  1  0  0  0  0
 16 15  1  0  0  0  0
 18 19  1  0  0  0  0
 19 20  1  0  0  0  0
 20 25  1  0  0  0  0
 20 21  2  0  0  0  0
 21 26  1  0  0  0  0
 22 21  1  0  0  0  0
 23 22  2  0  0  0  0
 24 19  2  0  0  0  0
 24 23  1  0  0  0  0
 27 23  1  0  0  0  0
 28  5  1  0  0  0  0
 29 39  1  0  0  0  0
 29 28  1  0  0  0  0
 30 29  2  0  0  0  0
 31 30  1  0  0  0  0
 32 33  2  0  0  0  0
 32 30  1  0  0  0  0
 33 34  1  0  0  0  0
 34 39  1  0  0  0  0
 35 34  2  0  0  0  0
 35 36  1  0  0  0  0
 36 37  2  0  0  0  0
 37 38  1  0  0  0  0
 39 38  2  0  0  0  0
M  END
>  <minimizedAffinity>
-4.34698248

>  <minimizedRMSD>
0.823057652

$$$$
