REMARK  Name = 
REMARK  5 active torsions:
REMARK  status: ('A' for Active; 'I' for Inactive)
REMARK    1  A    between atoms: C_1  and  C_8
REMARK    2  A    between atoms: C_3  and  N_12
REMARK    3  A    between atoms: C_10  and  C_13
REMARK    4  A    between atoms: C_17  and  C_19
REMARK    5  A    between atoms: C_19  and  C_32
REMARK                            x       y       z     vdW  Elec       q    Type
REMARK                         _______ _______ _______ _____ _____    ______ ____
ROOT
ATOM      1  C   UNL     1      39.129  31.509  43.290  0.00  0.00    +0.000 A 
ATOM      2  C   UNL     1      40.134  30.573  43.441  0.00  0.00    +0.000 A 
ATOM      3  C   UNL     1      40.847  30.223  42.311  0.00  0.00    +0.000 A 
ATOM      4  C   UNL     1      40.530  30.808  41.117  0.00  0.00    +0.000 A 
ATOM      5  C   UNL     1      39.509  31.757  40.968  0.00  0.00    +0.000 A 
ATOM      6  N   UNL     1      38.837  32.072  42.093  0.00  0.00    +0.000 NA
ATOM      7  H   UNL     1      40.391  30.105  44.383  0.00  0.00    +0.000 HD
ATOM      8  H   UNL     1      41.652  29.509  42.298  0.00  0.00    +0.000 HD
ATOM      9  H   UNL     1      41.060  30.565  40.212  0.00  0.00    +0.000 HD
ENDROOT
BRANCH   1  10
ATOM     10  C   UNL     1      38.352  31.903  44.482  0.00  0.00    +0.000 C 
ATOM     11  O   UNL     1      37.244  32.439  44.383  0.00  0.00    +0.000 OA
ATOM     12  N   UNL     1      38.938  31.640  45.780  0.00  0.00    +0.000 N 
ATOM     13  H   UNL     1      39.928  31.380  45.916  0.00  0.00    +0.000 HD
BRANCH  12  16
ATOM     14  C   UNL     1      38.448  31.114  48.164  0.00  0.00    +0.000 C 
ATOM     15  C   UNL     1      38.696  32.578  48.087  0.00  0.00    +0.000 C 
ATOM     16  C   UNL     1      38.080  31.750  46.941  0.00  0.00    +0.000 C 
ATOM     17  H   UNL     1      39.358  30.481  48.230  0.00  0.00    +0.000 HD
ATOM     18  H   UNL     1      39.723  32.918  47.974  0.00  0.00    +0.000 HD
ATOM     19  H   UNL     1      38.034  33.248  48.666  0.00  0.00    +0.000 HD
ATOM     20  H   UNL     1      37.018  32.017  46.758  0.00  0.00    +0.000 HD
BRANCH  14  25
ATOM     21  C   UNL     1      35.086  30.262  49.502  0.00  0.00    +0.000 A 
ATOM     22  C   UNL     1      35.421  29.561  50.692  0.00  0.00    +0.000 A 
ATOM     23  C   UNL     1      36.820  29.397  51.030  0.00  0.00    +0.000 A 
ATOM     24  N   UNL     1      37.764  29.922  50.192  0.00  0.00    +0.000 NA
ATOM     25  C   UNL     1      37.365  30.581  49.071  0.00  0.00    +0.000 A 
ATOM     26  N   UNL     1      36.041  30.771  48.692  0.00  0.00    +0.000 NA
ATOM     27  H   UNL     1      34.042  30.347  49.313  0.00  0.00    +0.000 HD
ATOM     28  H   UNL     1      34.708  29.145  51.356  0.00  0.00    +0.000 HD
ATOM     29  H   UNL     1      37.070  28.868  51.928  0.00  0.00    +0.000 HD
ENDBRANCH  14  25
ENDBRANCH  12  16
ENDBRANCH   1  10
BRANCH   5  30
ATOM     30  C   UNL     1      39.194  32.341  39.677  0.00  0.00    +0.000 C 
ATOM     31  O   UNL     1      38.816  33.536  39.621  0.00  0.00    +0.000 OA
BRANCH  30  32
ATOM     32  C   UNL     1      39.247  31.741  38.356  0.00  0.00    +0.000 A 
ATOM     33  C   UNL     1      38.411  30.656  38.071  0.00  0.00    +0.000 A 
ATOM     34  H   UNL     1      37.760  30.305  38.883  0.00  0.00    +0.000 HD
ATOM     35  C   UNL     1      38.336  29.994  36.864  0.00  0.00    +0.000 A 
ATOM     36  C   UNL     1      39.154  30.436  35.844  0.00  0.00    +0.000 A 
ATOM     37  C   UNL     1      40.000  31.502  36.068  0.00  0.00    +0.000 A 
ATOM     38  C   UNL     1      40.822  31.944  35.055  0.00  0.00    +0.000 A 
ATOM     39  C   UNL     1      41.683  33.014  35.268  0.00  0.00    +0.000 A 
ATOM     40  C   UNL     1      41.716  33.645  36.514  0.00  0.00    +0.000 A 
ATOM     41  C   UNL     1      40.883  33.179  37.502  0.00  0.00    +0.000 A 
ATOM     42  C   UNL     1      40.036  32.129  37.295  0.00  0.00    +0.000 A 
ENDBRANCH  30  32
ENDBRANCH   5  30
TORSDOF 5
