
     RDKit          3D

 32 34  0  0  0  0  0  0  0  0999 V2000
   37.4317   30.3151   51.3938 C   0  0  0  0  0  0  0  0  0  0  0  0
   38.1187   30.8764   50.2685 C   0  0  0  0  0  0  0  0  0  0  0  0
   37.7323   30.4937   48.9799 C   0  0  0  0  0  0  0  0  0  0  0  0
   36.7105   29.5963   48.8595 N   0  0  0  0  0  0  0  0  0  0  0  0
   36.0764   29.0797   49.9411 C   0  0  0  0  0  0  0  0  0  0  0  0
   36.4374   29.4391   51.1989 N   0  0  0  0  0  0  0  0  0  0  0  0
   35.0621   28.1812   49.5996 O   0  0  0  0  0  0  0  0  0  0  0  0
   32.5185   28.0798   49.0546 O   0  0  0  0  0  0  0  0  0  0  0  0
   33.8653   28.4895   48.4516 P   0  0  2  0  0  0  0  0  0  0  0  0
   34.0585   27.5891   47.0487 O   0  0  0  0  0  0  0  0  0  0  0  0
   33.7337   30.1211   48.0459 O   0  0  0  0  0  0  0  0  0  0  0  0
   37.7344   30.6136   52.3664 H   0  0  0  0  0  0  0  0  0  0  0  0
   38.9303   31.5906   50.4029 H   0  0  0  0  0  0  0  0  0  0  0  0
   38.2205   30.8902   48.1105 H   0  0  0  0  0  0  0  0  0  0  0  0
   33.2063   27.2771   46.6547 H   0  0  0  0  0  0  0  0  0  0  0  0
   32.6502   30.6473   47.3631 C   0  0  0  0  0  0  0  0  0  0  0  0
   31.9697   31.8092   47.6612 C   0  0  0  0  0  0  0  0  0  0  0  0
   32.3136   32.3575   48.5035 H   0  0  0  0  0  0  0  0  0  0  0  0
   30.9002   32.1928   46.8684 C   0  0  0  0  0  0  0  0  0  0  0  0
   30.4728   31.4599   45.7768 C   0  0  0  0  0  0  0  0  0  0  0  0
   31.1758   30.2996   45.5038 C   0  0  0  0  0  0  0  0  0  0  0  0
   30.7298   29.5834   44.4072 C   0  0  0  0  0  0  0  0  0  0  0  0
   31.3732   28.3956   44.0473 C   0  0  0  0  0  0  0  0  0  0  0  0
   32.4552   27.9653   44.8124 C   0  0  0  0  0  0  0  0  0  0  0  0
   32.8778   28.7031   45.9033 C   0  0  0  0  0  0  0  0  0  0  0  0
   32.2582   29.8803   46.2789 C   0  0  0  0  0  0  0  0  0  0  0  0
   30.3830   33.1061   47.1214 H   0  0  0  0  0  0  0  0  0  0  0  0
   29.6316   31.7839   45.1727 H   0  0  0  0  0  0  0  0  0  0  0  0
   29.9131   29.8481   43.7772 H   0  0  0  0  0  0  0  0  0  0  0  0
   31.1472   27.7358   43.2319 H   0  0  0  0  0  0  0  0  0  0  0  0
   33.0037   27.0566   44.5963 H   0  0  0  0  0  0  0  0  0  0  0  0
   33.7162   28.3693   46.4959 H   0  0  0  0  0  0  0  0  0  0  0  0
  2  1  2  0
  3  2  1  0
  4  3  2  0
  4  5  1  0
  5  6  2  0
  6  1  1  0
  7  5  1  0
  9  8  2  0
  9  7  1  1
 10  9  1  0
 11  9  1  0
  1 12  1  0
  2 13  1  0
  3 14  1  0
 10 15  1  0
 16 17  2  0
 17 18  1  0
 17 19  1  0
 19 20  2  0
 20 21  1  0
 21 22  2  0
 22 23  1  0
 23 24  2  0
 24 25  1  0
 25 26  2  0
 26 16  1  0
 26 21  1  0
 19 27  1  0
 20 28  1  0
 22 29  1  0
 23 30  1  0
 24 31  1  0
 25 32  1  0
 11 16  1  0
M  ISO  5  12  14  13  14  14  14  15   3  18  15
M  END
>  <DihAtoms>  (1) 
8,10,15,16

>  <DihDeg>  (1) 
-0.022157000479162643

$$$$
