
     RDKit          3D

 45 48  0  0  0  0  0  0  0  0999 V2000
   35.3584   29.8316   46.7722 O   0  0  0  0  0  0  0  0  0  0  0  0
   34.0969   29.9961   47.6158 P   0  0  2  0  0  0  0  0  0  0  0  0
   33.1017   31.0317   46.7192 O   0  0  0  0  0  0  0  0  0  0  0  0
   34.3965   30.6399   49.1676 O   0  0  0  0  0  0  0  0  0  0  0  0
   35.6327   30.5092   49.7851 C   0  0  0  0  0  0  0  0  0  0  0  0
   35.9658   29.4858   50.7049 C   0  0  0  0  0  0  0  0  0  0  0  0
   37.2458   29.4857   51.2411 C   0  0  0  0  0  0  0  0  0  0  0  0
   38.1195   30.4719   50.8551 N   0  0  0  0  0  0  0  0  0  0  0  0
   37.7721   31.4399   49.9715 C   0  0  0  0  0  0  0  0  0  0  0  0
   36.5236   31.4619   49.4319 N   0  0  0  0  0  0  0  0  0  0  0  0
   33.3331   28.5134   47.8428 O   0  0  0  0  0  0  0  0  0  0  0  0
   33.0825   27.3446   45.8706 C   0  0  1  0  0  0  0  0  0  0  0  0
   33.9201   27.4774   47.1619 C   0  0  2  0  0  0  0  0  0  0  0  0
   33.8328   26.2481   47.7322 O   0  0  0  0  0  0  0  0  0  0  0  0
   34.0646   25.3687   46.6856 C   0  0  0  0  0  0  0  0  0  0  0  0
   33.4600   25.9539   45.4269 C   0  0  2  0  0  0  0  0  0  0  0  0
   31.7416   27.5205   46.1472 O   0  0  0  0  0  0  0  0  0  0  0  0
   34.3952   25.9987   44.4276 O   0  0  0  0  0  0  0  0  0  0  0  0
   32.3690   31.2978   47.3573 H   0  0  0  0  0  0  0  0  0  0  0  0
   35.2050   28.7813   50.9235 H   0  0  0  0  0  0  0  0  0  0  0  0
   37.4933   28.7183   51.9299 H   0  0  0  0  0  0  0  0  0  0  0  0
   38.4715   32.2091   49.6780 H   0  0  0  0  0  0  0  0  0  0  0  0
   33.4021   28.1290   45.1555 H   0  0  0  0  0  0  0  0  0  0  0  0
   34.9305   27.7553   46.7872 H   0  0  0  0  0  0  0  0  0  0  0  0
   35.1267   25.0994   46.5606 H   0  0  0  0  0  0  0  0  0  0  0  0
   33.5103   24.4343   46.9104 H   0  0  0  0  0  0  0  0  0  0  0  0
   32.5471   25.4082   45.1251 H   0  0  0  0  0  0  0  0  0  0  0  0
   31.3397   28.1983   45.5447 H   0  0  0  0  0  0  0  0  0  0  0  0
   34.1830   25.4416   43.1941 C   0  0  0  0  0  0  0  0  0  0  0  0
   35.0303   24.8918   42.2784 C   0  0  0  0  0  0  0  0  0  0  0  0
   36.0691   24.8827   42.5565 H   0  0  0  0  0  0  0  0  0  0  0  0
   34.6264   24.3733   41.0713 C   0  0  0  0  0  0  0  0  0  0  0  0
   33.2963   24.3808   40.7070 C   0  0  0  0  0  0  0  0  0  0  0  0
   32.4049   24.9378   41.6251 C   0  0  0  0  0  0  0  0  0  0  0  0
   31.0883   24.9197   41.2108 C   0  0  0  0  0  0  0  0  0  0  0  0
   30.1306   25.4454   42.0440 C   0  0  0  0  0  0  0  0  0  0  0  0
   30.4998   25.9727   43.2597 C   0  0  0  0  0  0  0  0  0  0  0  0
   31.8241   25.9742   43.6415 C   0  0  0  0  0  0  0  0  0  0  0  0
   32.8272   25.4604   42.8462 C   0  0  0  0  0  0  0  0  0  0  0  0
   35.3979   23.9625   40.4266 H   0  0  0  0  0  0  0  0  0  0  0  0
   33.0176   23.9713   39.7650 H   0  0  0  0  0  0  0  0  0  0  0  0
   30.7763   24.5128   40.2648 H   0  0  0  0  0  0  0  0  0  0  0  0
   29.0968   25.4440   41.7458 H   0  0  0  0  0  0  0  0  0  0  0  0
   29.7545   26.3901   43.9258 H   0  0  0  0  0  0  0  0  0  0  0  0
   32.1053   26.3912   44.5997 H   0  0  0  0  0  0  0  0  0  0  0  0
  2  1  2  0
  2 11  1  1
  2  4  1  0
  3  2  1  0
  4  5  1  0
  5  6  2  0
  6  7  1  0
  8  7  2  0
  9  8  1  0
 10  5  1  0
 10  9  2  0
 12 17  1  0
 12 13  1  0
 13 14  1  0
 13 11  1  0
 15 14  1  0
 16 18  1  0
 16 12  1  0
 16 15  1  0
  3 19  1  0
  6 20  1  0
  7 21  1  0
  9 22  1  0
 12 23  1  6
 13 24  1  6
 15 25  1  0
 15 26  1  0
 16 27  1  6
 17 28  1  0
 29 30  2  0
 30 31  1  0
 30 32  1  0
 32 33  2  0
 33 34  1  0
 34 35  2  0
 35 36  1  0
 36 37  2  0
 37 38  1  0
 38 39  2  0
 39 29  1  0
 39 34  1  0
 32 40  1  0
 33 41  1  0
 35 42  1  0
 36 43  1  0
 37 44  1  0
 38 45  1  0
 18 29  1  0
M  ISO  8  19   3  20  14  21  14  22  14  23  13  24  13  25  13  26  13
M  ISO  3  27  13  28   3  31  15
M  END
>  <DihAtoms>  (1) 
15,17,28,29

>  <DihDeg>  (1) 
0.12769411366264283

$$$$
