
 OpenBabel03272503503D

 39 42  0  0  1  0  0  0  0  0999 V2000
   32.9860   27.5460   45.8630 C   0  0  1  0  0  0  0  0  0  0  0  0
   33.9470   27.5640   47.0720 C   0  0  2  0  0  0  0  0  0  0  0  0
   33.8940   26.2940   47.5480 O   0  0  0  0  0  0  0  0  0  0  0  0
   34.0070   25.5000   46.4170 C   0  0  0  0  0  0  0  0  0  0  0  0
   33.2930   26.1920   45.2750 C   0  0  2  0  0  0  0  0  0  0  0  0
   33.2480   28.3820   45.1850 H   0  0  0  0  0  0  0  0  0  0  0  0
   34.9220   27.8610   46.6220 H   0  0  0  0  0  0  0  0  0  0  0  0
   35.0460   25.2300   46.1670 H   0  0  0  0  0  0  0  0  0  0  0  0
   33.4590   24.5560   46.6200 H   0  0  0  0  0  0  0  0  0  0  0  0
   32.3450   25.6820   45.0220 H   0  0  0  0  0  0  0  0  0  0  0  0
   31.6820   27.7120   46.2830 O   0  0  0  0  0  0  0  0  0  0  0  0
   31.2360   28.4410   45.7800 H   0  0  0  0  0  0  0  0  0  0  0  0
   33.4480   28.5480   47.8880 O   0  0  0  0  0  0  0  0  0  0  0  0
   35.3650   29.9510   46.7290 O   0  0  0  0  0  0  0  0  0  0  0  0
   34.1360   30.0620   47.6270 P   0  0  1  0  0  0  0  0  0  0  0  0
   33.0590   31.0510   46.7730 O   0  0  0  0  0  0  0  0  0  0  0  0
   32.3430   31.2870   47.4420 H   0  0  0  0  0  0  0  0  0  0  0  0
   34.4750   30.7220   49.1640 O   0  0  0  0  0  0  0  0  0  0  0  0
   35.7080   30.5490   49.7760 C   0  0  0  0  0  0  0  0  0  0  0  0
   36.0150   29.5050   50.6810 C   0  0  0  0  0  0  0  0  0  0  0  0
   37.2950   29.4630   51.2140 C   0  0  0  0  0  0  0  0  0  0  0  0
   38.1950   30.4300   50.8400 N   0  0  0  0  0  0  0  0  0  0  0  0
   37.8720   31.4190   49.9700 C   0  0  0  0  0  0  0  0  0  0  0  0
   36.6240   31.4820   49.4340 N   0  0  0  0  0  0  0  0  0  0  0  0
   35.2350   28.8180   50.8910 H   0  0  0  0  0  0  0  0  0  0  0  0
   37.5220   28.6790   51.8920 H   0  0  0  0  0  0  0  0  0  0  0  0
   38.5910   32.1730   49.6860 H   0  0  0  0  0  0  0  0  0  0  0  0
   34.1270   26.3080   44.1950 O   0  0  0  0  0  0  0  0  0  0  0  0
   33.7780   27.0000   43.0650 C   0  0  0  0  0  0  0  0  0  0  0  0
   32.7120   26.8970   42.2200 C   0  0  0  0  0  0  0  0  0  0  0  0
   31.9970   26.1330   42.4670 H   0  0  0  0  0  0  0  0  0  0  0  0
   32.5280   27.6930   41.1150 C   0  0  0  0  0  3  0  0  0  0  0  0
   33.4400   28.6740   40.7900 C   0  0  0  0  0  3  0  0  0  0  0  0
   34.5420   28.8040   41.6380 C   0  0  0  0  0  0  0  0  0  0  0  0
   35.4220   29.7990   41.2650 C   0  0  0  0  0  3  0  0  0  0  0  0
   36.5410   30.0080   42.0360 C   0  0  0  0  0  3  0  0  0  0  0  0
   36.7570   29.2280   43.1490 C   0  0  0  0  0  3  0  0  0  0  0  0
   35.8560   28.2420   43.4900 C   0  0  0  0  0  3  0  0  0  0  0  0
   34.7170   27.9900   42.7540 C   0  0  0  0  0  0  0  0  0  0  0  0
  1  6  1  6  0  0  0
  1 11  1  0  0  0  0
  1  2  1  0  0  0  0
  2  7  1  6  0  0  0
  2  3  1  0  0  0  0
  2 13  1  0  0  0  0
  4  9  1  0  0  0  0
  4  3  1  0  0  0  0
  5 10  1  6  0  0  0
  5  1  1  0  0  0  0
  5  4  1  0  0  0  0
  8  4  1  0  0  0  0
 12 11  1  0  0  0  0
 15 14  2  6  0  0  0
 15 13  1  0  0  0  0
 15 18  1  0  0  0  0
 16 17  1  0  0  0  0
 16 15  1  0  0  0  0
 18 19  1  0  0  0  0
 19 20  1  0  0  0  0
 20 25  1  0  0  0  0
 20 21  2  0  0  0  0
 21 26  1  0  0  0  0
 22 21  1  0  0  0  0
 23 22  2  0  0  0  0
 24 19  2  0  0  0  0
 24 23  1  0  0  0  0
 27 23  1  0  0  0  0
 28  5  1  0  0  0  0
 29 28  1  0  0  0  0
 30 31  1  0  0  0  0
 30 29  2  0  0  0  0
 32 30  1  0  0  0  0
 33 32  2  0  0  0  0
 33 34  1  0  0  0  0
 34 39  1  0  0  0  0
 35 34  2  0  0  0  0
 35 36  1  0  0  0  0
 36 37  2  0  0  0  0
 37 38  1  0  0  0  0
 39 29  1  0  0  0  0
 39 38  2  0  0  0  0
M  END
>  <minimizedAffinity>
-4.19799089

>  <minimizedRMSD>
1.75163317

$$$$
