
 OpenBabel03262522303D

 48 52  0  0  0  0  0  0  0  0999 V2000
   38.7870   27.5990   31.3330 C   0  0  0  0  0  0  0  0  0  0  0  0
   39.1380   27.3540   32.3560 H   0  0  0  0  0  0  0  0  0  0  0  0
   39.6260   28.1170   30.8400 H   0  0  0  0  0  0  0  0  0  0  0  0
   37.0740   27.4360   33.4830 F   0  0  0  0  0  0  0  0  0  0  0  0
   36.8050   28.3350   32.4760 C   0  0  0  0  0  0  0  0  0  0  0  0
   37.5970   28.5010   31.3380 C   0  0  0  0  0  0  0  0  0  0  0  0
   37.2690   29.4010   30.3720 C   0  0  0  0  0  0  0  0  0  0  0  0
   36.1210   30.1950   30.4890 C   0  0  0  0  0  0  0  0  0  0  0  0
   35.3240   30.0470   31.6100 C   0  0  0  0  0  0  0  0  0  0  0  0
   35.6640   29.1350   32.5790 C   0  0  0  0  0  0  0  0  0  0  0  0
   37.9370   29.4630   29.5270 H   0  0  0  0  0  0  0  0  0  0  0  0
   35.8750   30.9010   29.7200 H   0  0  0  0  0  0  0  0  0  0  0  0
   34.4230   30.6640   31.7090 H   0  0  0  0  0  0  0  0  0  0  0  0
   34.8210   29.0450   33.6630 O   0  0  0  0  0  0  0  0  0  0  0  0
   34.8860   30.0250   34.6380 C   0  0  0  0  0  0  0  0  0  0  0  0
   35.9350   30.8160   35.0560 C   0  0  0  0  0  0  0  0  0  0  0  0
   36.8470   30.6300   34.5170 H   0  0  0  0  0  0  0  0  0  0  0  0
   35.7710   31.7420   36.0630 C   0  0  0  0  0  3  0  0  0  0  0  0
   34.5590   31.9240   36.6970 C   0  0  0  0  0  3  0  0  0  0  0  0
   33.5050   31.1310   36.2790 C   0  0  0  0  0  0  0  0  0  0  0  0
   32.3220   31.3700   36.9630 C   0  0  0  0  0  3  0  0  0  0  0  0
   31.2140   30.6190   36.6060 C   0  0  0  0  0  3  0  0  0  0  0  0
   31.3210   29.6880   35.6160 C   0  0  0  0  0  3  0  0  0  0  0  0
   32.4950   29.4790   34.9670 C   0  0  0  0  0  3  0  0  0  0  0  0
   33.6510   30.1990   35.2730 C   0  0  0  0  0  0  0  0  0  0  0  0
   38.3210   26.1220   30.3910 S   0  0  0  0  0  0  0  0  0  0  0  0
   37.3190   22.9900   32.7240 C   0  0  0  0  0  0  0  0  0  0  0  0
   38.3940   22.9620   33.6170 C   0  0  0  0  0  0  0  0  0  0  0  0
   39.3710   23.9120   33.4510 C   0  0  0  0  0  0  0  0  0  0  0  0
   39.2440   24.8110   32.4470 N   0  0  0  0  0  0  0  0  0  0  0  0
   38.2220   24.8100   31.6260 C   0  0  0  0  0  0  0  0  0  0  0  0
   37.2080   23.8860   31.7380 N   0  0  0  0  0  0  0  0  0  0  0  0
   36.4980   22.2760   32.7800 H   0  0  0  0  0  0  0  0  0  0  0  0
   40.2050   23.8960   34.1360 H   0  0  0  0  0  0  0  0  0  0  0  0
   38.4020   22.0080   34.5800 O   0  0  0  0  0  0  0  0  0  0  0  0
   39.0290   22.2630   35.7920 C   0  0  0  0  0  0  0  0  0  0  0  0
   40.2580   21.7980   36.2220 C   0  0  0  0  0  0  0  0  0  0  0  0
   40.6980   22.1620   37.4480 C   0  0  0  0  0  0  0  0  0  0  0  0
   39.9270   22.9670   38.2170 C   0  0  0  0  0  0  0  0  0  0  0  0
   38.6940   23.4290   37.7770 C   0  0  0  0  0  0  0  0  0  0  0  0
   38.2630   23.0560   36.5440 N   0  0  0  0  0  0  0  0  0  0  0  0
   40.7470   21.1680   35.4900 H   0  0  0  0  0  0  0  0  0  0  0  0
   41.6600   21.7820   37.7500 H   0  0  0  0  0  0  0  0  0  0  0  0
   40.2540   23.2760   39.2070 H   0  0  0  0  0  0  0  0  0  0  0  0
   37.8390   24.3320   38.6550 C   0  0  0  0  0  0  0  0  0  0  0  0
   38.0040   24.0890   39.7220 H   0  0  0  0  0  0  0  0  0  0  0  0
   37.9830   25.3810   38.3940 H   0  0  0  0  0  0  0  0  0  0  0  0
   36.7820   24.0720   38.3860 H   0  0  0  0  0  0  0  0  0  0  0  0
  1  6  1  0  0  0  0
  1  2  1  0  0  0  0
  3  1  1  0  0  0  0
  5 10  1  0  0  0  0
  5  4  1  0  0  0  0
  6  5  2  0  0  0  0
  7  8  2  0  0  0  0
  7  6  1  0  0  0  0
  8  9  1  0  0  0  0
  9 13  1  0  0  0  0
  9 10  2  0  0  0  0
 10 14  1  0  0  0  0
 11  7  1  0  0  0  0
 12  8  1  0  0  0  0
 14 15  1  0  0  0  0
 15 16  2  0  0  0  0
 15 25  1  0  0  0  0
 16 18  1  0  0  0  0
 17 16  1  0  0  0  0
 18 19  2  0  0  0  0
 20 19  1  0  0  0  0
 20 21  1  0  0  0  0
 22 21  2  0  0  0  0
 23 22  1  0  0  0  0
 24 25  1  0  0  0  0
 24 23  2  0  0  0  0
 25 20  2  0  0  0  0
 26  1  1  0  0  0  0
 26 31  1  0  0  0  0
 27 33  1  0  0  0  0
 27 28  1  0  0  0  0
 28 35  1  0  0  0  0
 29 28  2  0  0  0  0
 29 34  1  0  0  0  0
 30 29  1  0  0  0  0
 31 32  1  0  0  0  0
 31 30  2  0  0  0  0
 32 27  2  0  0  0  0
 35 36  1  0  0  0  0
 36 37  2  0  0  0  0
 36 41  1  0  0  0  0
 37 38  1  0  0  0  0
 38 43  1  0  0  0  0
 38 39  2  0  0  0  0
 39 44  1  0  0  0  0
 40 39  1  0  0  0  0
 40 45  1  0  0  0  0
 41 40  2  0  0  0  0
 42 37  1  0  0  0  0
 45 46  1  0  0  0  0
 47 45  1  0  0  0  0
 48 45  1  0  0  0  0
M  END
>  <minimizedAffinity>
-7.02346134

$$$$

 OpenBabel03262522303D

 48 52  0  0  0  0  0  0  0  0999 V2000
   36.8800   20.7750   32.2230 C   0  0  0  0  0  0  0  0  0  0  0  0
   36.9090   19.6840   32.0290 H   0  0  0  0  0  0  0  0  0  0  0  0
   37.8260   21.1780   31.8280 H   0  0  0  0  0  0  0  0  0  0  0  0
   38.9120   22.2670   33.3330 F   0  0  0  0  0  0  0  0  0  0  0  0
   37.8680   21.8560   34.1300 C   0  0  0  0  0  0  0  0  0  0  0  0
   36.7890   21.0940   33.6800 C   0  0  0  0  0  0  0  0  0  0  0  0
   35.7920   20.7100   34.5220 C   0  0  0  0  0  0  0  0  0  0  0  0
   35.8160   21.0700   35.8750 C   0  0  0  0  0  0  0  0  0  0  0  0
   36.8760   21.8270   36.3420 C   0  0  0  0  0  0  0  0  0  0  0  0
   37.8770   22.2090   35.4810 C   0  0  0  0  0  0  0  0  0  0  0  0
   34.9970   20.1220   34.0900 H   0  0  0  0  0  0  0  0  0  0  0  0
   35.0240   20.7620   36.5290 H   0  0  0  0  0  0  0  0  0  0  0  0
   36.9030   22.1140   37.3990 H   0  0  0  0  0  0  0  0  0  0  0  0
   38.8980   22.9600   36.0200 O   0  0  0  0  0  0  0  0  0  0  0  0
   38.8560   24.3360   35.8770 C   0  0  0  0  0  0  0  0  0  0  0  0
   37.9020   25.2550   36.2570 C   0  0  0  0  0  0  0  0  0  0  0  0
   37.0570   24.8100   36.7520 H   0  0  0  0  0  0  0  0  0  0  0  0
   38.0700   26.6010   36.0080 C   0  0  0  0  0  3  0  0  0  0  0  0
   39.1930   27.0900   35.3720 C   0  0  0  0  0  3  0  0  0  0  0  0
   40.1520   26.1680   34.9900 C   0  0  0  0  0  0  0  0  0  0  0  0
   41.2490   26.7350   34.3580 C   0  0  0  0  0  3  0  0  0  0  0  0
   42.2590   25.8820   33.9420 C   0  0  0  0  0  3  0  0  0  0  0  0
   42.1430   24.5420   34.1630 C   0  0  0  0  0  3  0  0  0  0  0  0
   41.0550   24.0200   34.7860 C   0  0  0  0  0  3  0  0  0  0  0  0
   40.0000   24.8190   35.2310 C   0  0  0  0  0  0  0  0  0  0  0  0
   35.4700   21.5830   31.4210 S   0  0  0  0  0  0  0  0  0  0  0  0
   37.4600   25.0560   30.9380 C   0  0  0  0  0  0  0  0  0  0  0  0
   36.4070   25.9730   30.9300 C   0  0  0  0  0  0  0  0  0  0  0  0
   35.1370   25.4710   31.0740 C   0  0  0  0  0  0  0  0  0  0  0  0
   34.9760   24.1350   31.2150 N   0  0  0  0  0  0  0  0  0  0  0  0
   35.9860   23.2990   31.2170 C   0  0  0  0  0  0  0  0  0  0  0  0
   37.2840   23.7370   31.0780 N   0  0  0  0  0  0  0  0  0  0  0  0
   38.5000   25.3630   30.8310 H   0  0  0  0  0  0  0  0  0  0  0  0
   34.3190   26.1740   31.0690 H   0  0  0  0  0  0  0  0  0  0  0  0
   36.7040   27.2880   30.7820 O   0  0  0  0  0  0  0  0  0  0  0  0
   36.2950   28.1970   31.7490 C   0  0  0  0  0  0  0  0  0  0  0  0
   36.4180   28.0810   33.1220 C   0  0  0  0  0  0  0  0  0  0  0  0
   35.9530   29.0840   33.9020 C   0  0  0  0  0  0  0  0  0  0  0  0
   35.3850   30.1670   33.3210 C   0  0  0  0  0  0  0  0  0  0  0  0
   35.2660   30.2740   31.9420 C   0  0  0  0  0  0  0  0  0  0  0  0
   35.7360   29.2600   31.1690 N   0  0  0  0  0  0  0  0  0  0  0  0
   36.8950   27.1580   33.4240 H   0  0  0  0  0  0  0  0  0  0  0  0
   36.0650   28.9610   34.9660 H   0  0  0  0  0  0  0  0  0  0  0  0
   35.0020   30.9880   33.9220 H   0  0  0  0  0  0  0  0  0  0  0  0
   34.6230   31.4980   31.3040 C   0  0  0  0  0  0  0  0  0  0  0  0
   33.8400   31.9040   31.9720 H   0  0  0  0  0  0  0  0  0  0  0  0
   35.3790   32.2180   30.9890 H   0  0  0  0  0  0  0  0  0  0  0  0
   34.1350   31.1090   30.3720 H   0  0  0  0  0  0  0  0  0  0  0  0
  1  6  1  0  0  0  0
  2  1  1  0  0  0  0
  3  1  1  0  0  0  0
  4  5  1  0  0  0  0
  5 10  1  0  0  0  0
  6  5  2  0  0  0  0
  6  7  1  0  0  0  0
  7  8  2  0  0  0  0
  8  9  1  0  0  0  0
  8 12  1  0  0  0  0
  9 13  1  0  0  0  0
 10 14  1  0  0  0  0
 10  9  2  0  0  0  0
 11  7  1  0  0  0  0
 15 14  1  0  0  0  0
 15 16  1  0  0  0  0
 16 17  1  0  0  0  0
 18 16  2  0  0  0  0
 19 18  1  0  0  0  0
 20 25  1  0  0  0  0
 20 19  2  0  0  0  0
 21 20  1  0  0  0  0
 22 23  1  0  0  0  0
 22 21  2  0  0  0  0
 23 24  2  0  0  0  0
 24 25  1  0  0  0  0
 25 15  2  0  0  0  0
 26  1  1  0  0  0  0
 27 32  1  0  0  0  0
 28 27  2  0  0  0  0
 28 29  1  0  0  0  0
 29 30  2  0  0  0  0
 30 31  1  0  0  0  0
 31 26  1  0  0  0  0
 32 31  2  0  0  0  0
 33 27  1  0  0  0  0
 34 29  1  0  0  0  0
 35 28  1  0  0  0  0
 35 36  1  0  0  0  0
 36 37  1  0  0  0  0
 37 42  1  0  0  0  0
 37 38  2  0  0  0  0
 38 43  1  0  0  0  0
 39 38  1  0  0  0  0
 39 44  1  0  0  0  0
 40 39  2  0  0  0  0
 41 36  2  0  0  0  0
 41 40  1  0  0  0  0
 45 40  1  0  0  0  0
 45 46  1  0  0  0  0
 47 45  1  0  0  0  0
 48 45  1  0  0  0  0
M  END
>  <minimizedAffinity>
-6.98389292

$$$$

 OpenBabel03262522303D

 48 52  0  0  0  0  0  0  0  0999 V2000
   37.2650   20.5480   32.1690 C   0  0  0  0  0  0  0  0  0  0  0  0
   37.4370   19.4570   32.0640 H   0  0  0  0  0  0  0  0  0  0  0  0
   38.2020   21.0330   31.8510 H   0  0  0  0  0  0  0  0  0  0  0  0
   38.9340   22.3900   33.3540 F   0  0  0  0  0  0  0  0  0  0  0  0
   37.8730   21.8860   34.0720 C   0  0  0  0  0  0  0  0  0  0  0  0
   36.9670   20.9460   33.5780 C   0  0  0  0  0  0  0  0  0  0  0  0
   35.9440   20.4770   34.3430 C   0  0  0  0  0  0  0  0  0  0  0  0
   35.7660   20.9270   35.6570 C   0  0  0  0  0  0  0  0  0  0  0  0
   36.6520   21.8600   36.1650 C   0  0  0  0  0  0  0  0  0  0  0  0
   37.6810   22.3250   35.3840 C   0  0  0  0  0  0  0  0  0  0  0  0
   35.2920   19.7530   33.8820 H   0  0  0  0  0  0  0  0  0  0  0  0
   34.9550   20.5510   36.2490 H   0  0  0  0  0  0  0  0  0  0  0  0
   36.5200   22.2170   37.1930 H   0  0  0  0  0  0  0  0  0  0  0  0
   38.5220   23.2510   35.9600 O   0  0  0  0  0  0  0  0  0  0  0  0
   39.8250   22.8790   36.2410 C   0  0  0  0  0  0  0  0  0  0  0  0
   40.3280   21.7900   36.9200 C   0  0  0  0  0  0  0  0  0  0  0  0
   39.5630   21.1230   37.2780 H   0  0  0  0  0  0  0  0  0  0  0  0
   41.6850   21.6180   37.0860 C   0  0  0  0  0  3  0  0  0  0  0  0
   42.6010   22.5200   36.5840 C   0  0  0  0  0  3  0  0  0  0  0  0
   42.0980   23.6140   35.9030 C   0  0  0  0  0  0  0  0  0  0  0  0
   43.0780   24.4750   35.4300 C   0  0  0  0  0  3  0  0  0  0  0  0
   42.6620   25.5980   34.7340 C   0  0  0  0  0  3  0  0  0  0  0  0
   41.3300   25.8170   34.5420 C   0  0  0  0  0  3  0  0  0  0  0  0
   40.3970   24.9540   35.0190 C   0  0  0  0  0  3  0  0  0  0  0  0
   40.7440   23.8020   35.7280 C   0  0  0  0  0  0  0  0  0  0  0  0
   35.8800   21.1300   31.1560 S   0  0  0  0  0  0  0  0  0  0  0  0
   35.3620   25.1220   31.3860 C   0  0  0  0  0  0  0  0  0  0  0  0
   36.6410   25.5810   31.0620 C   0  0  0  0  0  0  0  0  0  0  0  0
   37.5960   24.6330   30.7890 C   0  0  0  0  0  0  0  0  0  0  0  0
   37.2530   23.3250   30.8480 N   0  0  0  0  0  0  0  0  0  0  0  0
   36.0430   22.9270   31.1560 C   0  0  0  0  0  0  0  0  0  0  0  0
   35.0390   23.8260   31.4400 N   0  0  0  0  0  0  0  0  0  0  0  0
   34.5410   25.8010   31.6160 H   0  0  0  0  0  0  0  0  0  0  0  0
   38.5870   24.9800   30.5390 H   0  0  0  0  0  0  0  0  0  0  0  0
   36.8550   26.9200   31.0370 O   0  0  0  0  0  0  0  0  0  0  0  0
   36.5160   27.6880   32.1420 C   0  0  0  0  0  0  0  0  0  0  0  0
   35.5760   28.7000   32.2120 C   0  0  0  0  0  0  0  0  0  0  0  0
   35.3920   29.3360   33.3910 C   0  0  0  0  0  0  0  0  0  0  0  0
   36.1270   28.9660   34.4660 C   0  0  0  0  0  0  0  0  0  0  0  0
   37.0690   27.9490   34.3870 C   0  0  0  0  0  0  0  0  0  0  0  0
   37.2460   27.3190   33.1970 N   0  0  0  0  0  0  0  0  0  0  0  0
   35.0750   28.8710   31.2680 H   0  0  0  0  0  0  0  0  0  0  0  0
   34.6520   30.1180   33.4080 H   0  0  0  0  0  0  0  0  0  0  0  0
   36.0020   29.4590   35.4270 H   0  0  0  0  0  0  0  0  0  0  0  0
   37.8900   27.5470   35.6040 C   0  0  0  0  0  0  0  0  0  0  0  0
   38.0610   28.4270   36.2530 H   0  0  0  0  0  0  0  0  0  0  0  0
   37.4480   26.6850   36.1060 H   0  0  0  0  0  0  0  0  0  0  0  0
   38.8740   27.2110   35.1850 H   0  0  0  0  0  0  0  0  0  0  0  0
  1  6  1  0  0  0  0
  2  1  1  0  0  0  0
  3  1  1  0  0  0  0
  4  5  1  0  0  0  0
  5 10  1  0  0  0  0
  6  5  2  0  0  0  0
  6  7  1  0  0  0  0
  7  8  2  0  0  0  0
  8  9  1  0  0  0  0
  8 12  1  0  0  0  0
  9 13  1  0  0  0  0
 10 14  1  0  0  0  0
 10  9  2  0  0  0  0
 11  7  1  0  0  0  0
 14 15  1  0  0  0  0
 15 16  1  0  0  0  0
 16 18  2  0  0  0  0
 16 17  1  0  0  0  0
 19 18  1  0  0  0  0
 20 19  2  0  0  0  0
 21 20  1  0  0  0  0
 22 21  2  0  0  0  0
 23 22  1  0  0  0  0
 23 24  2  0  0  0  0
 24 25  1  0  0  0  0
 25 20  1  0  0  0  0
 25 15  2  0  0  0  0
 26 31  1  0  0  0  0
 26  1  1  0  0  0  0
 27 32  1  0  0  0  0
 27 33  1  0  0  0  0
 28 27  2  0  0  0  0
 29 30  2  0  0  0  0
 29 28  1  0  0  0  0
 30 31  1  0  0  0  0
 31 32  2  0  0  0  0
 34 29  1  0  0  0  0
 35 28  1  0  0  0  0
 35 36  1  0  0  0  0
 36 37  2  0  0  0  0
 36 41  1  0  0  0  0
 37 38  1  0  0  0  0
 38 43  1  0  0  0  0
 38 39  2  0  0  0  0
 39 44  1  0  0  0  0
 40 39  1  0  0  0  0
 40 45  1  0  0  0  0
 41 40  2  0  0  0  0
 42 37  1  0  0  0  0
 45 47  1  0  0  0  0
 45 46  1  0  0  0  0
 48 45  1  0  0  0  0
M  END
>  <minimizedAffinity>
-6.7962718

$$$$

 OpenBabel03262522303D

 48 52  0  0  0  0  0  0  0  0999 V2000
   36.6980   27.7900   30.4420 C   0  0  0  0  0  0  0  0  0  0  0  0
   36.3880   27.7870   29.3770 H   0  0  0  0  0  0  0  0  0  0  0  0
   36.1340   26.9750   30.9240 H   0  0  0  0  0  0  0  0  0  0  0  0
   36.0390   27.6810   33.1140 F   0  0  0  0  0  0  0  0  0  0  0  0
   36.0590   28.9010   32.4760 C   0  0  0  0  0  0  0  0  0  0  0  0
   36.3710   29.0770   31.1270 C   0  0  0  0  0  0  0  0  0  0  0  0
   36.3610   30.3100   30.5530 C   0  0  0  0  0  0  0  0  0  0  0  0
   36.0370   31.4480   31.3010 C   0  0  0  0  0  0  0  0  0  0  0  0
   35.7250   31.2960   32.6400 C   0  0  0  0  0  0  0  0  0  0  0  0
   35.7380   30.0450   33.2090 C   0  0  0  0  0  0  0  0  0  0  0  0
   36.6150   30.3540   29.5050 H   0  0  0  0  0  0  0  0  0  0  0  0
   36.0330   32.4140   30.8360 H   0  0  0  0  0  0  0  0  0  0  0  0
   35.4700   32.1810   33.2330 H   0  0  0  0  0  0  0  0  0  0  0  0
   35.4160   29.9740   34.5460 O   0  0  0  0  0  0  0  0  0  0  0  0
   34.0900   30.1140   34.9170 C   0  0  0  0  0  0  0  0  0  0  0  0
   32.9730   29.3850   34.5720 C   0  0  0  0  0  0  0  0  0  0  0  0
   33.1880   28.5680   33.9050 H   0  0  0  0  0  0  0  0  0  0  0  0
   31.7280   29.7090   35.0680 C   0  0  0  0  0  3  0  0  0  0  0  0
   31.5410   30.7710   35.9300 C   0  0  0  0  0  3  0  0  0  0  0  0
   32.6620   31.5040   36.2770 C   0  0  0  0  0  0  0  0  0  0  0  0
   32.3940   32.5540   37.1440 C   0  0  0  0  0  3  0  0  0  0  0  0
   33.4610   33.3410   37.5450 C   0  0  0  0  0  3  0  0  0  0  0  0
   34.7140   33.0640   37.0830 C   0  0  0  0  0  3  0  0  0  0  0  0
   34.9410   32.0280   36.2350 C   0  0  0  0  0  3  0  0  0  0  0  0
   33.9140   31.1930   35.7900 C   0  0  0  0  0  0  0  0  0  0  0  0
   38.4800   27.5270   30.6430 S   0  0  0  0  0  0  0  0  0  0  0  0
   39.5940   24.6860   33.2790 C   0  0  0  0  0  0  0  0  0  0  0  0
   38.4510   23.8830   33.3110 C   0  0  0  0  0  0  0  0  0  0  0  0
   37.3970   24.2600   32.5160 C   0  0  0  0  0  0  0  0  0  0  0  0
   37.5190   25.3740   31.7570 N   0  0  0  0  0  0  0  0  0  0  0  0
   38.6050   26.1070   31.7500 C   0  0  0  0  0  0  0  0  0  0  0  0
   39.6980   25.7840   32.5220 N   0  0  0  0  0  0  0  0  0  0  0  0
   40.4780   24.4630   33.8750 H   0  0  0  0  0  0  0  0  0  0  0  0
   36.5110   23.6450   32.5360 H   0  0  0  0  0  0  0  0  0  0  0  0
   38.4570   22.7920   34.1160 O   0  0  0  0  0  0  0  0  0  0  0  0
   38.6970   22.9440   35.4750 C   0  0  0  0  0  0  0  0  0  0  0  0
   37.9570   23.6750   36.3860 C   0  0  0  0  0  0  0  0  0  0  0  0
   38.3570   23.6990   37.6780 C   0  0  0  0  0  0  0  0  0  0  0  0
   39.4640   23.0090   38.0420 C   0  0  0  0  0  0  0  0  0  0  0  0
   40.2010   22.2780   37.1200 C   0  0  0  0  0  0  0  0  0  0  0  0
   39.7890   22.2630   35.8250 N   0  0  0  0  0  0  0  0  0  0  0  0
   37.1030   24.1640   35.9360 H   0  0  0  0  0  0  0  0  0  0  0  0
   37.7570   24.2780   38.3600 H   0  0  0  0  0  0  0  0  0  0  0  0
   39.8100   23.0100   39.0720 H   0  0  0  0  0  0  0  0  0  0  0  0
   41.4450   21.5100   37.5450 C   0  0  0  0  0  0  0  0  0  0  0  0
   41.9460   22.0350   38.3810 H   0  0  0  0  0  0  0  0  0  0  0  0
   41.2120   20.4610   37.7330 H   0  0  0  0  0  0  0  0  0  0  0  0
   42.1170   21.5380   36.6470 H   0  0  0  0  0  0  0  0  0  0  0  0
  1 26  1  0  0  0  0
  1  3  1  0  0  0  0
  1  6  1  0  0  0  0
  2  1  1  0  0  0  0
  5  4  1  0  0  0  0
  5 10  1  0  0  0  0
  6  5  2  0  0  0  0
  7  6  1  0  0  0  0
  7  8  2  0  0  0  0
  8  9  1  0  0  0  0
  9 10  2  0  0  0  0
  9 13  1  0  0  0  0
 10 14  1  0  0  0  0
 11  7  1  0  0  0  0
 12  8  1  0  0  0  0
 14 15  1  0  0  0  0
 15 25  1  0  0  0  0
 16 15  2  0  0  0  0
 16 18  1  0  0  0  0
 17 16  1  0  0  0  0
 18 19  2  0  0  0  0
 19 20  1  0  0  0  0
 20 21  1  0  0  0  0
 21 22  2  0  0  0  0
 23 22  1  0  0  0  0
 24 23  2  0  0  0  0
 25 24  1  0  0  0  0
 25 20  2  0  0  0  0
 26 31  1  0  0  0  0
 27 28  1  0  0  0  0
 27 33  1  0  0  0  0
 28 35  1  0  0  0  0
 29 34  1  0  0  0  0
 29 28  2  0  0  0  0
 30 29  1  0  0  0  0
 31 30  2  0  0  0  0
 31 32  1  0  0  0  0
 32 27  2  0  0  0  0
 35 36  1  0  0  0  0
 36 41  2  0  0  0  0
 36 37  1  0  0  0  0
 37 38  2  0  0  0  0
 38 39  1  0  0  0  0
 38 43  1  0  0  0  0
 39 44  1  0  0  0  0
 40 45  1  0  0  0  0
 40 39  2  0  0  0  0
 41 40  1  0  0  0  0
 42 37  1  0  0  0  0
 45 47  1  0  0  0  0
 45 46  1  0  0  0  0
 48 45  1  0  0  0  0
M  END
>  <minimizedAffinity>
-6.68768358

$$$$

 OpenBabel03262522303D

 48 52  0  0  0  0  0  0  0  0999 V2000
   38.4100   27.3890   32.0540 C   0  0  0  0  0  0  0  0  0  0  0  0
   38.9220   27.5490   33.0250 H   0  0  0  0  0  0  0  0  0  0  0  0
   39.1650   27.5890   31.2770 H   0  0  0  0  0  0  0  0  0  0  0  0
   36.6160   27.6470   34.1270 F   0  0  0  0  0  0  0  0  0  0  0  0
   36.4170   28.3710   32.9730 C   0  0  0  0  0  0  0  0  0  0  0  0
   37.2550   28.3160   31.8580 C   0  0  0  0  0  0  0  0  0  0  0  0
   36.9970   29.0490   30.7420 C   0  0  0  0  0  0  0  0  0  0  0  0
   35.8770   29.8870   30.6760 C   0  0  0  0  0  0  0  0  0  0  0  0
   35.0350   29.9570   31.7710 C   0  0  0  0  0  0  0  0  0  0  0  0
   35.3060   29.2120   32.8930 C   0  0  0  0  0  0  0  0  0  0  0  0
   37.6970   28.9470   29.9270 H   0  0  0  0  0  0  0  0  0  0  0  0
   35.6860   30.4600   29.7900 H   0  0  0  0  0  0  0  0  0  0  0  0
   34.1560   30.6100   31.7280 H   0  0  0  0  0  0  0  0  0  0  0  0
   34.4210   29.3330   33.9410 O   0  0  0  0  0  0  0  0  0  0  0  0
   34.6250   30.3410   34.8680 C   0  0  0  0  0  0  0  0  0  0  0  0
   35.7830   30.9520   35.2980 C   0  0  0  0  0  0  0  0  0  0  0  0
   36.6670   30.5740   34.8160 H   0  0  0  0  0  0  0  0  0  0  0  0
   35.7510   31.9500   36.2490 C   0  0  0  0  0  3  0  0  0  0  0  0
   34.5670   32.3830   36.8120 C   0  0  0  0  0  3  0  0  0  0  0  0
   33.4040   31.7700   36.3810 C   0  0  0  0  0  0  0  0  0  0  0  0
   32.2580   32.2580   36.9910 C   0  0  0  0  0  3  0  0  0  0  0  0
   31.0460   31.7000   36.6180 C   0  0  0  0  0  3  0  0  0  0  0  0
   31.0210   30.7090   35.6810 C   0  0  0  0  0  3  0  0  0  0  0  0
   32.1630   30.2540   35.1030 C   0  0  0  0  0  3  0  0  0  0  0  0
   33.4180   30.7710   35.4310 C   0  0  0  0  0  0  0  0  0  0  0  0
   37.7640   25.7040   31.8830 S   0  0  0  0  0  0  0  0  0  0  0  0
   38.7550   23.0370   34.7390 C   0  0  0  0  0  0  0  0  0  0  0  0
   39.3940   23.8600   35.6690 C   0  0  0  0  0  0  0  0  0  0  0  0
   39.4860   25.1960   35.3650 C   0  0  0  0  0  0  0  0  0  0  0  0
   38.9590   25.6370   34.1990 N   0  0  0  0  0  0  0  0  0  0  0  0
   38.3660   24.8380   33.3460 C   0  0  0  0  0  0  0  0  0  0  0  0
   38.2400   23.4880   33.5910 N   0  0  0  0  0  0  0  0  0  0  0  0
   38.6360   21.9650   34.8960 H   0  0  0  0  0  0  0  0  0  0  0  0
   39.9780   25.8380   36.0790 H   0  0  0  0  0  0  0  0  0  0  0  0
   39.8790   23.2920   36.8010 O   0  0  0  0  0  0  0  0  0  0  0  0
   41.0790   22.5960   36.7600 C   0  0  0  0  0  0  0  0  0  0  0  0
   41.3240   21.3090   37.2050 C   0  0  0  0  0  0  0  0  0  0  0  0
   42.5720   20.8050   37.0750 C   0  0  0  0  0  0  0  0  0  0  0  0
   43.5420   21.5680   36.5160 C   0  0  0  0  0  0  0  0  0  0  0  0
   43.2850   22.8580   36.0730 C   0  0  0  0  0  0  0  0  0  0  0  0
   42.0280   23.3540   36.2100 N   0  0  0  0  0  0  0  0  0  0  0  0
   40.4460   20.8360   37.6230 H   0  0  0  0  0  0  0  0  0  0  0  0
   42.7280   19.8000   37.4320 H   0  0  0  0  0  0  0  0  0  0  0  0
   44.5540   21.1890   36.4000 H   0  0  0  0  0  0  0  0  0  0  0  0
   44.3870   23.7040   35.4490 C   0  0  0  0  0  0  0  0  0  0  0  0
   45.3640   23.4440   35.8990 H   0  0  0  0  0  0  0  0  0  0  0  0
   44.3520   23.6490   34.3600 H   0  0  0  0  0  0  0  0  0  0  0  0
   44.1300   24.7590   35.7310 H   0  0  0  0  0  0  0  0  0  0  0  0
  1  2  1  0  0  0  0
  3  1  1  0  0  0  0
  5  4  1  0  0  0  0
  6  1  1  0  0  0  0
  6  5  2  0  0  0  0
  7  6  1  0  0  0  0
  8  7  2  0  0  0  0
  8  9  1  0  0  0  0
  9 10  2  0  0  0  0
 10  5  1  0  0  0  0
 10 14  1  0  0  0  0
 11  7  1  0  0  0  0
 12  8  1  0  0  0  0
 13  9  1  0  0  0  0
 14 15  1  0  0  0  0
 15 16  2  0  0  0  0
 15 25  1  0  0  0  0
 16 18  1  0  0  0  0
 17 16  1  0  0  0  0
 18 19  2  0  0  0  0
 20 19  1  0  0  0  0
 20 21  1  0  0  0  0
 22 21  2  0  0  0  0
 23 22  1  0  0  0  0
 24 25  1  0  0  0  0
 24 23  2  0  0  0  0
 25 20  2  0  0  0  0
 26  1  1  0  0  0  0
 26 31  1  0  0  0  0
 27 33  1  0  0  0  0
 27 28  1  0  0  0  0
 28 35  1  0  0  0  0
 29 28  2  0  0  0  0
 29 34  1  0  0  0  0
 30 29  1  0  0  0  0
 31 32  1  0  0  0  0
 31 30  2  0  0  0  0
 32 27  2  0  0  0  0
 36 35  1  0  0  0  0
 36 37  1  0  0  0  0
 37 42  1  0  0  0  0
 38 37  2  0  0  0  0
 38 43  1  0  0  0  0
 39 38  1  0  0  0  0
 40 41  1  0  0  0  0
 40 39  2  0  0  0  0
 41 36  2  0  0  0  0
 44 39  1  0  0  0  0
 45 48  1  0  0  0  0
 45 46  1  0  0  0  0
 45 40  1  0  0  0  0
 47 45  1  0  0  0  0
M  END
>  <minimizedAffinity>
-6.58392382

$$$$

 OpenBabel03262522303D

 48 52  0  0  0  0  0  0  0  0999 V2000
   36.8920   20.7980   32.0860 C   0  0  0  0  0  0  0  0  0  0  0  0
   36.9500   19.7120   31.8690 H   0  0  0  0  0  0  0  0  0  0  0  0
   37.8360   21.2310   31.7210 H   0  0  0  0  0  0  0  0  0  0  0  0
   38.8640   22.3090   33.2740 F   0  0  0  0  0  0  0  0  0  0  0  0
   37.8120   21.8570   34.0380 C   0  0  0  0  0  0  0  0  0  0  0  0
   36.7610   21.0810   33.5470 C   0  0  0  0  0  0  0  0  0  0  0  0
   35.7550   20.6560   34.3580 C   0  0  0  0  0  0  0  0  0  0  0  0
   35.7410   20.9870   35.7190 C   0  0  0  0  0  0  0  0  0  0  0  0
   36.7730   21.7570   36.2250 C   0  0  0  0  0  0  0  0  0  0  0  0
   37.7830   22.1800   35.3970 C   0  0  0  0  0  0  0  0  0  0  0  0
   34.9830   20.0610   33.8960 H   0  0  0  0  0  0  0  0  0  0  0  0
   34.9410   20.6460   36.3470 H   0  0  0  0  0  0  0  0  0  0  0  0
   36.7700   22.0200   37.2890 H   0  0  0  0  0  0  0  0  0  0  0  0
   38.7750   22.9400   35.9740 O   0  0  0  0  0  0  0  0  0  0  0  0
   38.7630   24.3090   35.7720 C   0  0  0  0  0  0  0  0  0  0  0  0
   37.7740   25.2460   35.9810 C   0  0  0  0  0  0  0  0  0  0  0  0
   36.8660   24.8240   36.3750 H   0  0  0  0  0  0  0  0  0  0  0  0
   37.9840   26.5800   35.7030 C   0  0  0  0  0  3  0  0  0  0  0  0
   39.1870   27.0400   35.2070 C   0  0  0  0  0  3  0  0  0  0  0  0
   40.1810   26.1010   34.9960 C   0  0  0  0  0  0  0  0  0  0  0  0
   41.3590   26.6390   34.4970 C   0  0  0  0  0  3  0  0  0  0  0  0
   42.4090   25.7690   34.2570 C   0  0  0  0  0  3  0  0  0  0  0  0
   42.2540   24.4380   34.5140 C   0  0  0  0  0  3  0  0  0  0  0  0
   41.0870   23.9450   35.0030 C   0  0  0  0  0  3  0  0  0  0  0  0
   39.9880   24.7640   35.2690 C   0  0  0  0  0  0  0  0  0  0  0  0
   35.4800   21.5900   31.2700 S   0  0  0  0  0  0  0  0  0  0  0  0
   35.6080   25.6200   31.3080 C   0  0  0  0  0  0  0  0  0  0  0  0
   36.9420   25.8520   30.9660 C   0  0  0  0  0  0  0  0  0  0  0  0
   37.7330   24.7520   30.7430 C   0  0  0  0  0  0  0  0  0  0  0  0
   37.1850   23.5200   30.8630 N   0  0  0  0  0  0  0  0  0  0  0  0
   35.9280   23.3360   31.1850 C   0  0  0  0  0  0  0  0  0  0  0  0
   35.0820   24.3960   31.4220 N   0  0  0  0  0  0  0  0  0  0  0  0
   34.9070   26.4320   31.5020 H   0  0  0  0  0  0  0  0  0  0  0  0
   38.7650   24.9240   30.4790 H   0  0  0  0  0  0  0  0  0  0  0  0
   37.3670   27.1370   30.8790 O   0  0  0  0  0  0  0  0  0  0  0  0
   38.6870   27.4020   30.5410 C   0  0  0  0  0  0  0  0  0  0  0  0
   39.7960   27.3560   31.3670 C   0  0  0  0  0  0  0  0  0  0  0  0
   41.0080   27.6500   30.8450 C   0  0  0  0  0  0  0  0  0  0  0  0
   41.1030   27.9790   29.5340 C   0  0  0  0  0  0  0  0  0  0  0  0
   39.9840   28.0230   28.7130 C   0  0  0  0  0  0  0  0  0  0  0  0
   38.7720   27.7260   29.2500 N   0  0  0  0  0  0  0  0  0  0  0  0
   39.5500   27.0750   32.3830 H   0  0  0  0  0  0  0  0  0  0  0  0
   41.8480   27.6040   31.5160 H   0  0  0  0  0  0  0  0  0  0  0  0
   42.0630   28.2210   29.0860 H   0  0  0  0  0  0  0  0  0  0  0  0
   40.1080   28.3970   27.2420 C   0  0  0  0  0  0  0  0  0  0  0  0
   40.9400   29.1130   27.1030 H   0  0  0  0  0  0  0  0  0  0  0  0
   40.1570   27.5060   26.6150 H   0  0  0  0  0  0  0  0  0  0  0  0
   39.1430   28.9140   26.9980 H   0  0  0  0  0  0  0  0  0  0  0  0
  1  6  1  0  0  0  0
  2  1  1  0  0  0  0
  3  1  1  0  0  0  0
  4  5  1  0  0  0  0
  5 10  1  0  0  0  0
  6  5  2  0  0  0  0
  6  7  1  0  0  0  0
  7  8  2  0  0  0  0
  8  9  1  0  0  0  0
  8 12  1  0  0  0  0
  9 13  1  0  0  0  0
 10 14  1  0  0  0  0
 10  9  2  0  0  0  0
 11  7  1  0  0  0  0
 15 14  1  0  0  0  0
 15 16  1  0  0  0  0
 16 17  1  0  0  0  0
 18 16  2  0  0  0  0
 19 18  1  0  0  0  0
 20 19  2  0  0  0  0
 20 25  1  0  0  0  0
 21 20  1  0  0  0  0
 22 21  2  0  0  0  0
 22 23  1  0  0  0  0
 23 24  2  0  0  0  0
 24 25  1  0  0  0  0
 25 15  2  0  0  0  0
 26  1  1  0  0  0  0
 27 32  1  0  0  0  0
 27 33  1  0  0  0  0
 28 27  2  0  0  0  0
 29 30  2  0  0  0  0
 29 28  1  0  0  0  0
 30 31  1  0  0  0  0
 31 26  1  0  0  0  0
 31 32  2  0  0  0  0
 34 29  1  0  0  0  0
 35 28  1  0  0  0  0
 36 35  1  0  0  0  0
 36 37  1  0  0  0  0
 37 42  1  0  0  0  0
 38 37  2  0  0  0  0
 38 43  1  0  0  0  0
 39 38  1  0  0  0  0
 40 41  1  0  0  0  0
 40 39  2  0  0  0  0
 41 36  2  0  0  0  0
 44 39  1  0  0  0  0
 45 40  1  0  0  0  0
 46 45  1  0  0  0  0
 47 45  1  0  0  0  0
 48 45  1  0  0  0  0
M  END
>  <minimizedAffinity>
-6.57208729

$$$$

 OpenBabel03262522303D

 48 52  0  0  0  0  0  0  0  0999 V2000
   38.2670   27.7360   29.8220 C   0  0  0  0  0  0  0  0  0  0  0  0
   38.3770   27.3770   28.7780 H   0  0  0  0  0  0  0  0  0  0  0  0
   37.3900   27.2110   30.2320 H   0  0  0  0  0  0  0  0  0  0  0  0
   36.1640   28.6110   31.3690 F   0  0  0  0  0  0  0  0  0  0  0  0
   36.9450   29.5350   30.7120 C   0  0  0  0  0  0  0  0  0  0  0  0
   38.0310   29.2090   29.8980 C   0  0  0  0  0  0  0  0  0  0  0  0
   38.7570   30.1700   29.2660 C   0  0  0  0  0  0  0  0  0  0  0  0
   38.4370   31.5250   29.4150 C   0  0  0  0  0  0  0  0  0  0  0  0
   37.3650   31.8700   30.2190 C   0  0  0  0  0  0  0  0  0  0  0  0
   36.6390   30.8910   30.8510 C   0  0  0  0  0  0  0  0  0  0  0  0
   39.5790   29.8290   28.6570 H   0  0  0  0  0  0  0  0  0  0  0  0
   39.0180   32.2730   28.9120 H   0  0  0  0  0  0  0  0  0  0  0  0
   37.1070   32.9290   30.3400 H   0  0  0  0  0  0  0  0  0  0  0  0
   35.5870   31.3120   31.6330 O   0  0  0  0  0  0  0  0  0  0  0  0
   35.7270   31.2750   33.0090 C   0  0  0  0  0  0  0  0  0  0  0  0
   35.6150   30.2310   33.9020 C   0  0  0  0  0  0  0  0  0  0  0  0
   35.3880   29.2910   33.4300 H   0  0  0  0  0  0  0  0  0  0  0  0
   35.7970   30.4270   35.2540 C   0  0  0  0  0  3  0  0  0  0  0  0
   36.0970   31.6680   35.7770 C   0  0  0  0  0  3  0  0  0  0  0  0
   36.2090   32.7180   34.8830 C   0  0  0  0  0  0  0  0  0  0  0  0
   36.5120   33.9320   35.4830 C   0  0  0  0  0  3  0  0  0  0  0  0
   36.6430   35.0370   34.6590 C   0  0  0  0  0  3  0  0  0  0  0  0
   36.4730   34.8990   33.3130 C   0  0  0  0  0  3  0  0  0  0  0  0
   36.1770   33.6960   32.7580 C   0  0  0  0  0  3  0  0  0  0  0  0
   36.0310   32.5390   33.5270 C   0  0  0  0  0  0  0  0  0  0  0  0
   39.7340   27.3880   30.8290 S   0  0  0  0  0  0  0  0  0  0  0  0
   39.1670   23.8870   32.7460 C   0  0  0  0  0  0  0  0  0  0  0  0
   38.2490   24.2610   33.7300 C   0  0  0  0  0  0  0  0  0  0  0  0
   37.8530   25.5760   33.7490 C   0  0  0  0  0  0  0  0  0  0  0  0
   38.3650   26.4250   32.8280 N   0  0  0  0  0  0  0  0  0  0  0  0
   39.2270   26.0420   31.9180 C   0  0  0  0  0  0  0  0  0  0  0  0
   39.6640   24.7380   31.8430 N   0  0  0  0  0  0  0  0  0  0  0  0
   39.5370   22.8660   32.6540 H   0  0  0  0  0  0  0  0  0  0  0  0
   37.1440   25.8730   34.5060 H   0  0  0  0  0  0  0  0  0  0  0  0
   37.8120   23.3120   34.5940 O   0  0  0  0  0  0  0  0  0  0  0  0
   38.2160   23.3540   35.9210 C   0  0  0  0  0  0  0  0  0  0  0  0
   37.5950   24.0020   36.9730 C   0  0  0  0  0  0  0  0  0  0  0  0
   38.1500   23.9230   38.2030 C   0  0  0  0  0  0  0  0  0  0  0  0
   39.2930   23.2150   38.3710 C   0  0  0  0  0  0  0  0  0  0  0  0
   39.9090   22.5680   37.3090 C   0  0  0  0  0  0  0  0  0  0  0  0
   39.3420   22.6550   36.0770 N   0  0  0  0  0  0  0  0  0  0  0  0
   36.6930   24.5200   36.6730 H   0  0  0  0  0  0  0  0  0  0  0  0
   37.6400   24.4400   38.9990 H   0  0  0  0  0  0  0  0  0  0  0  0
   39.7630   23.1350   39.3480 H   0  0  0  0  0  0  0  0  0  0  0  0
   41.1940   21.7780   37.5140 C   0  0  0  0  0  0  0  0  0  0  0  0
   41.7950   22.2360   38.3230 H   0  0  0  0  0  0  0  0  0  0  0  0
   40.9830   20.7150   37.6430 H   0  0  0  0  0  0  0  0  0  0  0  0
   41.7510   21.8850   36.5460 H   0  0  0  0  0  0  0  0  0  0  0  0
  1  6  1  0  0  0  0
  1  3  1  0  0  0  0
  1 26  1  0  0  0  0
  2  1  1  0  0  0  0
  5 10  1  0  0  0  0
  5  4  1  0  0  0  0
  6  5  2  0  0  0  0
  7  8  2  0  0  0  0
  7  6  1  0  0  0  0
  8  9  1  0  0  0  0
  9 13  1  0  0  0  0
  9 10  2  0  0  0  0
 10 14  1  0  0  0  0
 11  7  1  0  0  0  0
 12  8  1  0  0  0  0
 14 15  1  0  0  0  0
 15 25  2  0  0  0  0
 15 16  1  0  0  0  0
 16 18  2  0  0  0  0
 17 16  1  0  0  0  0
 18 19  1  0  0  0  0
 20 21  1  0  0  0  0
 20 19  2  0  0  0  0
 22 21  2  0  0  0  0
 23 22  1  0  0  0  0
 24 23  2  0  0  0  0
 24 25  1  0  0  0  0
 25 20  1  0  0  0  0
 26 31  1  0  0  0  0
 27 28  1  0  0  0  0
 28 29  2  0  0  0  0
 28 35  1  0  0  0  0
 29 34  1  0  0  0  0
 30 29  1  0  0  0  0
 31 30  2  0  0  0  0
 32 31  1  0  0  0  0
 32 27  2  0  0  0  0
 33 27  1  0  0  0  0
 35 36  1  0  0  0  0
 36 41  2  0  0  0  0
 36 37  1  0  0  0  0
 37 38  2  0  0  0  0
 38 39  1  0  0  0  0
 38 43  1  0  0  0  0
 39 44  1  0  0  0  0
 40 45  1  0  0  0  0
 40 39  2  0  0  0  0
 41 40  1  0  0  0  0
 42 37  1  0  0  0  0
 45 47  1  0  0  0  0
 45 46  1  0  0  0  0
 48 45  1  0  0  0  0
M  END
>  <minimizedAffinity>
-6.45321751

$$$$

 OpenBabel03262522303D

 48 52  0  0  0  0  0  0  0  0999 V2000
   36.3950   26.9900   31.0990 C   0  0  0  0  0  0  0  0  0  0  0  0
   35.4510   26.7160   31.6130 H   0  0  0  0  0  0  0  0  0  0  0  0
   36.4140   26.4020   30.1670 H   0  0  0  0  0  0  0  0  0  0  0  0
   36.4490   24.5390   32.3530 F   0  0  0  0  0  0  0  0  0  0  0  0
   37.5240   25.3890   32.4920 C   0  0  0  0  0  0  0  0  0  0  0  0
   37.6040   26.6550   31.9090 C   0  0  0  0  0  0  0  0  0  0  0  0
   38.6900   27.4520   32.0940 C   0  0  0  0  0  0  0  0  0  0  0  0
   39.7690   27.0260   32.8790 C   0  0  0  0  0  0  0  0  0  0  0  0
   39.7090   25.7750   33.4660 C   0  0  0  0  0  0  0  0  0  0  0  0
   38.6070   24.9780   33.2720 C   0  0  0  0  0  0  0  0  0  0  0  0
   38.6690   28.4140   31.6070 H   0  0  0  0  0  0  0  0  0  0  0  0
   40.6190   27.6640   33.0170 H   0  0  0  0  0  0  0  0  0  0  0  0
   40.5490   25.4330   34.0820 H   0  0  0  0  0  0  0  0  0  0  0  0
   38.6210   23.7470   33.8880 O   0  0  0  0  0  0  0  0  0  0  0  0
   38.6270   23.6980   35.2710 C   0  0  0  0  0  0  0  0  0  0  0  0
   37.7830   24.2670   36.2000 C   0  0  0  0  0  0  0  0  0  0  0  0
   36.9850   24.8370   35.7560 H   0  0  0  0  0  0  0  0  0  0  0  0
   37.9830   24.0840   37.5520 C   0  0  0  0  0  3  0  0  0  0  0  0
   39.0290   23.3270   38.0380 C   0  0  0  0  0  3  0  0  0  0  0  0
   39.8780   22.7550   37.1070 C   0  0  0  0  0  0  0  0  0  0  0  0
   40.9050   22.0110   37.6710 C   0  0  0  0  0  3  0  0  0  0  0  0
   41.8020   21.4020   36.8090 C   0  0  0  0  0  3  0  0  0  0  0  0
   41.6500   21.5520   35.4630 C   0  0  0  0  0  3  0  0  0  0  0  0
   40.6340   22.2870   34.9430 C   0  0  0  0  0  3  0  0  0  0  0  0
   39.6930   22.9280   35.7520 C   0  0  0  0  0  0  0  0  0  0  0  0
   36.4890   28.7610   30.7250 S   0  0  0  0  0  0  0  0  0  0  0  0
   33.7170   30.9960   32.6170 C   0  0  0  0  0  0  0  0  0  0  0  0
   33.7670   30.4570   33.9050 C   0  0  0  0  0  0  0  0  0  0  0  0
   34.6550   29.4320   34.1220 C   0  0  0  0  0  0  0  0  0  0  0  0
   35.4220   29.0050   33.0920 N   0  0  0  0  0  0  0  0  0  0  0  0
   35.3500   29.5310   31.8930 C   0  0  0  0  0  0  0  0  0  0  0  0
   34.4820   30.5620   31.6100 N   0  0  0  0  0  0  0  0  0  0  0  0
   33.0440   31.8110   32.3540 H   0  0  0  0  0  0  0  0  0  0  0  0
   34.6990   29.0100   35.1140 H   0  0  0  0  0  0  0  0  0  0  0  0
   32.9440   30.9760   34.8500 O   0  0  0  0  0  0  0  0  0  0  0  0
   31.7310   30.3570   35.1180 C   0  0  0  0  0  0  0  0  0  0  0  0
   30.5390   30.5020   34.4310 C   0  0  0  0  0  0  0  0  0  0  0  0
   29.4580   29.8060   34.8520 C   0  0  0  0  0  0  0  0  0  0  0  0
   29.5720   28.9900   35.9270 C   0  0  0  0  0  0  0  0  0  0  0  0
   30.7730   28.8510   36.6100 C   0  0  0  0  0  0  0  0  0  0  0  0
   31.8510   29.5560   36.1780 N   0  0  0  0  0  0  0  0  0  0  0  0
   30.6160   31.1880   33.5980 H   0  0  0  0  0  0  0  0  0  0  0  0
   28.5470   29.9430   34.2950 H   0  0  0  0  0  0  0  0  0  0  0  0
   28.7210   28.4200   36.2890 H   0  0  0  0  0  0  0  0  0  0  0  0
   30.8840   27.9320   37.8180 C   0  0  0  0  0  0  0  0  0  0  0  0
   29.9190   27.9000   38.3590 H   0  0  0  0  0  0  0  0  0  0  0  0
   31.2840   26.9580   37.5330 H   0  0  0  0  0  0  0  0  0  0  0  0
   31.6500   28.4180   38.4770 H   0  0  0  0  0  0  0  0  0  0  0  0
  1  2  1  0  0  0  0
  1  6  1  0  0  0  0
  3  1  1  0  0  0  0
  4  5  1  0  0  0  0
  5 10  1  0  0  0  0
  6  7  1  0  0  0  0
  6  5  2  0  0  0  0
  7  8  2  0  0  0  0
  8 12  1  0  0  0  0
  8  9  1  0  0  0  0
  9 13  1  0  0  0  0
 10  9  2  0  0  0  0
 10 14  1  0  0  0  0
 11  7  1  0  0  0  0
 14 15  1  0  0  0  0
 15 25  2  0  0  0  0
 15 16  1  0  0  0  0
 16 18  2  0  0  0  0
 17 16  1  0  0  0  0
 18 19  1  0  0  0  0
 20 21  1  0  0  0  0
 20 19  2  0  0  0  0
 22 21  2  0  0  0  0
 23 22  1  0  0  0  0
 24 23  2  0  0  0  0
 24 25  1  0  0  0  0
 25 20  1  0  0  0  0
 26  1  1  0  0  0  0
 26 31  1  0  0  0  0
 27 28  1  0  0  0  0
 28 29  2  0  0  0  0
 28 35  1  0  0  0  0
 29 34  1  0  0  0  0
 30 29  1  0  0  0  0
 31 30  2  0  0  0  0
 32 31  1  0  0  0  0
 32 27  2  0  0  0  0
 33 27  1  0  0  0  0
 35 36  1  0  0  0  0
 36 41  1  0  0  0  0
 37 38  1  0  0  0  0
 37 36  2  0  0  0  0
 38 39  2  0  0  0  0
 39 44  1  0  0  0  0
 39 40  1  0  0  0  0
 40 45  1  0  0  0  0
 41 40  2  0  0  0  0
 42 37  1  0  0  0  0
 43 38  1  0  0  0  0
 45 46  1  0  0  0  0
 45 48  1  0  0  0  0
 47 45  1  0  0  0  0
M  END
>  <minimizedAffinity>
-6.41164064

$$$$

 OpenBabel03262522303D

 48 52  0  0  0  0  0  0  0  0999 V2000
   39.7210   26.7690   31.4380 C   0  0  0  0  0  0  0  0  0  0  0  0
   40.7990   27.0300   31.4290 H   0  0  0  0  0  0  0  0  0  0  0  0
   39.3390   27.0960   32.4190 H   0  0  0  0  0  0  0  0  0  0  0  0
   39.1000   25.3440   33.7110 F   0  0  0  0  0  0  0  0  0  0  0  0
   39.1770   24.6840   32.5060 C   0  0  0  0  0  0  0  0  0  0  0  0
   39.4890   25.3000   31.2920 C   0  0  0  0  0  0  0  0  0  0  0  0
   39.5600   24.5900   30.1350 C   0  0  0  0  0  0  0  0  0  0  0  0
   39.3210   23.2100   30.1230 C   0  0  0  0  0  0  0  0  0  0  0  0
   39.0090   22.5800   31.3150 C   0  0  0  0  0  0  0  0  0  0  0  0
   38.9400   23.3090   32.4780 C   0  0  0  0  0  0  0  0  0  0  0  0
   39.8080   25.1450   29.2440 H   0  0  0  0  0  0  0  0  0  0  0  0
   39.3800   22.6610   29.2040 H   0  0  0  0  0  0  0  0  0  0  0  0
   38.8210   21.5010   31.3150 H   0  0  0  0  0  0  0  0  0  0  0  0
   38.6250   22.6120   33.6220 O   0  0  0  0  0  0  0  0  0  0  0  0
   39.6250   22.3720   34.5490 C   0  0  0  0  0  0  0  0  0  0  0  0
   40.8890   21.8460   34.3990 C   0  0  0  0  0  0  0  0  0  0  0  0
   41.1250   21.5900   33.3810 H   0  0  0  0  0  0  0  0  0  0  0  0
   41.7310   21.6930   35.4800 C   0  0  0  0  0  3  0  0  0  0  0  0
   41.3520   22.0570   36.7560 C   0  0  0  0  0  3  0  0  0  0  0  0
   40.0820   22.5850   36.9090 C   0  0  0  0  0  0  0  0  0  0  0  0
   39.7740   22.9260   38.2180 C   0  0  0  0  0  3  0  0  0  0  0  0
   38.5200   23.4640   38.4610 C   0  0  0  0  0  3  0  0  0  0  0  0
   37.6490   23.6360   37.4270 C   0  0  0  0  0  3  0  0  0  0  0  0
   37.9830   23.2920   36.1570 C   0  0  0  0  0  3  0  0  0  0  0  0
   39.2280   22.7450   35.8390 C   0  0  0  0  0  0  0  0  0  0  0  0
   38.8020   27.5800   30.1030 S   0  0  0  0  0  0  0  0  0  0  0  0
   35.7560   29.9740   31.2220 C   0  0  0  0  0  0  0  0  0  0  0  0
   35.4250   29.4280   32.4650 C   0  0  0  0  0  0  0  0  0  0  0  0
   36.1590   28.3500   32.8920 C   0  0  0  0  0  0  0  0  0  0  0  0
   37.1500   27.8800   32.0980 N   0  0  0  0  0  0  0  0  0  0  0  0
   37.4360   28.4140   30.9370 C   0  0  0  0  0  0  0  0  0  0  0  0
   36.7390   29.4980   30.4500 N   0  0  0  0  0  0  0  0  0  0  0  0
   35.2290   30.8300   30.8040 H   0  0  0  0  0  0  0  0  0  0  0  0
   35.9090   27.9230   33.8500 H   0  0  0  0  0  0  0  0  0  0  0  0
   34.4090   29.9930   33.1630 O   0  0  0  0  0  0  0  0  0  0  0  0
   34.6840   30.6980   34.3260 C   0  0  0  0  0  0  0  0  0  0  0  0
   35.8280   31.4140   34.6290 C   0  0  0  0  0  0  0  0  0  0  0  0
   35.9060   32.0370   35.8270 C   0  0  0  0  0  0  0  0  0  0  0  0
   34.8680   31.9430   36.6930 C   0  0  0  0  0  0  0  0  0  0  0  0
   33.7240   31.2210   36.3800 C   0  0  0  0  0  0  0  0  0  0  0  0
   33.6580   30.6000   35.1730 N   0  0  0  0  0  0  0  0  0  0  0  0
   36.5600   31.3920   33.8330 H   0  0  0  0  0  0  0  0  0  0  0  0
   36.8100   32.5860   36.0290 H   0  0  0  0  0  0  0  0  0  0  0  0
   34.9030   32.4320   37.6630 H   0  0  0  0  0  0  0  0  0  0  0  0
   32.5670   31.1240   37.3640 C   0  0  0  0  0  0  0  0  0  0  0  0
   32.9500   31.1550   38.4020 H   0  0  0  0  0  0  0  0  0  0  0  0
   31.7960   31.8610   37.1360 H   0  0  0  0  0  0  0  0  0  0  0  0
   32.1180   30.1140   37.1760 H   0  0  0  0  0  0  0  0  0  0  0  0
  1  3  1  0  0  0  0
  2  1  1  0  0  0  0
  5  4  1  0  0  0  0
  6  1  1  0  0  0  0
  6  5  2  0  0  0  0
  7  6  1  0  0  0  0
  8  7  2  0  0  0  0
  8  9  1  0  0  0  0
  9 13  1  0  0  0  0
  9 10  2  0  0  0  0
 10  5  1  0  0  0  0
 10 14  1  0  0  0  0
 11  7  1  0  0  0  0
 12  8  1  0  0  0  0
 14 15  1  0  0  0  0
 15 25  1  0  0  0  0
 16 15  2  0  0  0  0
 16 18  1  0  0  0  0
 17 16  1  0  0  0  0
 18 19  2  0  0  0  0
 19 20  1  0  0  0  0
 20 21  1  0  0  0  0
 21 22  2  0  0  0  0
 23 22  1  0  0  0  0
 24 23  2  0  0  0  0
 25 24  1  0  0  0  0
 25 20  2  0  0  0  0
 26 31  1  0  0  0  0
 26  1  1  0  0  0  0
 27 28  1  0  0  0  0
 28 29  2  0  0  0  0
 28 35  1  0  0  0  0
 29 34  1  0  0  0  0
 30 29  1  0  0  0  0
 31 30  2  0  0  0  0
 32 31  1  0  0  0  0
 32 27  2  0  0  0  0
 33 27  1  0  0  0  0
 35 36  1  0  0  0  0
 36 37  2  0  0  0  0
 36 41  1  0  0  0  0
 37 38  1  0  0  0  0
 38 43  1  0  0  0  0
 38 39  2  0  0  0  0
 39 44  1  0  0  0  0
 40 39  1  0  0  0  0
 40 45  1  0  0  0  0
 41 40  2  0  0  0  0
 42 37  1  0  0  0  0
 45 46  1  0  0  0  0
 47 45  1  0  0  0  0
 48 45  1  0  0  0  0
M  END
>  <minimizedAffinity>
-6.39395857

$$$$
