
 OpenBabel03272508513D

 31 34  0  0  1  0  0  0  0  0999 V2000
   38.6120   29.1810   43.7460 C   0  0  2  0  0  0  0  0  0  0  0  0
   38.7570   28.8030   42.3470 C   0  0  0  0  0  0  0  0  0  0  0  0
   37.3780   29.0670   42.9790 C   0  0  1  0  0  0  0  0  0  0  0  0
   38.7000   28.3960   44.5570 H   0  0  0  0  0  0  0  0  0  0  0  0
   38.9620   27.7390   42.1250 H   0  0  0  0  0  0  0  0  0  0  0  0
   39.1420   29.5520   41.6120 H   0  0  0  0  0  0  0  0  0  0  0  0
   36.8660   29.8730   42.4320 H   0  0  0  0  0  0  0  0  0  0  0  0
   38.4440   32.5830   45.2160 C   0  0  0  0  0  0  0  0  0  0  0  0
   39.8120   32.9600   45.2210 C   0  0  0  0  0  0  0  0  0  0  0  0
   40.7880   32.0350   44.7170 C   0  0  0  0  0  0  0  0  0  0  0  0
   40.3270   30.8390   44.2610 N   0  0  0  0  0  0  0  0  0  0  0  0
   39.0080   30.5220   44.2770 C   0  0  0  0  0  0  0  0  0  0  0  0
   38.0660   31.3670   44.7440 N   0  0  0  0  0  0  0  0  0  0  0  0
   37.7530   33.3220   45.6080 H   0  0  0  0  0  0  0  0  0  0  0  0
   40.1220   33.9370   45.6000 H   0  0  0  0  0  0  0  0  0  0  0  0
   41.8020   32.3490   44.7360 H   0  0  0  0  0  0  0  0  0  0  0  0
   35.1790   27.9930   43.3080 C   0  0  0  0  0  0  0  0  0  0  0  0
   34.6420   29.1290   43.2080 O   0  0  0  0  0  0  0  0  0  0  0  0
   36.5850   27.8460   43.1670 N   0  0  0  0  0  0  0  0  0  0  0  0
   36.9380   26.8490   43.2110 H   0  0  0  0  0  0  0  0  0  0  0  0
   34.2040   26.9420   43.5670 C   0  0  0  0  0  0  0  0  0  0  0  0
   33.8260   26.2760   42.3950 C   0  0  0  0  0  0  0  0  0  0  0  0
   34.1980   26.4960   41.4070 H   0  0  0  0  0  0  0  0  0  0  0  0
   32.9070   25.2420   42.4210 C   0  0  0  0  0  3  0  0  0  0  0  0
   32.3260   24.8260   43.6120 C   0  0  0  0  0  3  0  0  0  0  0  0
   32.7160   25.5040   44.7730 C   0  0  0  0  0  0  0  0  0  0  0  0
   32.1900   25.1560   45.9870 C   0  0  0  0  0  3  0  0  0  0  0  0
   32.5810   25.8340   47.1470 C   0  0  0  0  0  3  0  0  0  0  0  0
   33.5140   26.8760   47.0760 C   0  0  0  0  0  3  0  0  0  0  0  0
   34.0550   27.2350   45.8400 C   0  0  0  0  0  3  0  0  0  0  0  0
   33.6290   26.5310   44.7440 C   0  0  0  0  0  0  0  0  0  0  0  0
  1 12  1  0  0  0  0
  1  4  1  1  0  0  0
  2  3  1  0  0  0  0
  2  1  1  0  0  0  0
  3  7  1  6  0  0  0
  3 19  1  0  0  0  0
  3  1  1  0  0  0  0
  5  2  1  0  0  0  0
  6  2  1  0  0  0  0
  8  9  1  0  0  0  0
  8 14  1  0  0  0  0
  9 15  1  0  0  0  0
 10 16  1  0  0  0  0
 10  9  2  0  0  0  0
 11 12  2  0  0  0  0
 11 10  1  0  0  0  0
 12 13  1  0  0  0  0
 13  8  2  0  0  0  0
 17 21  1  0  0  0  0
 18 17  2  0  0  0  0
 19 20  1  0  0  0  0
 19 17  1  0  0  0  0
 21 31  1  0  0  0  0
 22 24  1  0  0  0  0
 22 21  2  0  0  0  0
 23 22  1  0  0  0  0
 24 25  2  0  0  0  0
 25 26  1  0  0  0  0
 26 27  1  0  0  0  0
 27 28  2  0  0  0  0
 29 28  1  0  0  0  0
 30 29  2  0  0  0  0
 31 26  2  0  0  0  0
 31 30  1  0  0  0  0
M  END
>  <minimizedAffinity>
-3.20823216

>  <minimizedRMSD>
7.99846363

$$$$
