
 OpenBabel03262521433D

 32 35  0  0  1  0  0  0  0  0999 V2000
   38.7110   24.9840   33.6600 C   0  0  1  0  0  0  0  0  0  0  0  0
   38.0150   25.0580   32.2940 C   0  0  2  0  0  0  0  0  0  0  0  0
   36.9170   26.0000   32.7280 C   0  0  0  0  0  0  0  0  0  0  0  0
   37.5470   26.9800   33.4800 O   0  0  0  0  0  0  0  0  0  0  0  0
   38.7130   26.4800   33.9810 C   0  0  0  0  0  0  0  0  0  0  0  0
   39.7290   24.6090   33.4740 H   0  0  0  0  0  0  0  0  0  0  0  0
   38.6860   25.5900   31.5940 H   0  0  0  0  0  0  0  0  0  0  0  0
   36.1300   25.4900   33.3030 H   0  0  0  0  0  0  0  0  0  0  0  0
   36.4760   26.4560   31.7990 H   0  0  0  0  0  0  0  0  0  0  0  0
   38.6720   26.6040   35.1000 H   0  0  0  0  0  0  0  0  0  0  0  0
   39.6320   26.9700   33.6460 H   0  0  0  0  0  0  0  0  0  0  0  0
   37.5530   23.7470   31.8320 C   0  0  0  0  0  0  0  0  0  0  0  0
   38.4780   22.7430   31.5200 C   0  0  0  0  0  0  0  0  0  0  0  0
   37.9700   21.5220   31.0640 C   0  0  0  0  0  0  0  0  0  0  0  0
   36.6130   21.3760   30.9500 N   0  0  0  0  0  0  0  0  0  0  0  0
   35.7380   22.3820   31.2640 C   0  0  0  0  0  0  0  0  0  0  0  0
   36.2260   23.5640   31.7060 N   0  0  0  0  0  0  0  0  0  0  0  0
   39.5430   22.8980   31.6240 H   0  0  0  0  0  0  0  0  0  0  0  0
   38.6220   20.6990   30.8050 H   0  0  0  0  0  0  0  0  0  0  0  0
   34.6960   22.1660   31.1400 H   0  0  0  0  0  0  0  0  0  0  0  0
   37.9580   24.3790   34.6100 O   0  0  0  0  0  0  0  0  0  0  0  0
   38.3280   24.0330   35.9020 C   0  0  0  0  0  0  0  0  0  0  0  0
   37.6580   24.4670   37.0270 C   0  0  0  0  0  0  0  0  0  0  0  0
   36.8050   25.1060   36.9190 H   0  0  0  0  0  0  0  0  0  0  0  0
   38.0210   24.1250   38.3100 C   0  0  0  0  0  3  0  0  0  0  0  0
   39.1160   23.3020   38.5060 C   0  0  0  0  0  3  0  0  0  0  0  0
   39.8030   22.8550   37.3730 C   0  0  0  0  0  0  0  0  0  0  0  0
   40.8840   22.0420   37.5660 C   0  0  0  0  0  3  0  0  0  0  0  0
   41.6290   21.5480   36.5020 C   0  0  0  0  0  3  0  0  0  0  0  0
   41.2710   21.8850   35.2200 C   0  0  0  0  0  3  0  0  0  0  0  0
   40.1810   22.7070   35.0100 C   0  0  0  0  0  3  0  0  0  0  0  0
   39.4320   23.2030   36.0760 C   0  0  0  0  0  0  0  0  0  0  0  0
  1  6  1  6  0  0  0
  1  5  1  0  0  0  0
  1 21  1  0  0  0  0
  2  7  1  6  0  0  0
  2  3  1  0  0  0  0
  2  1  1  0  0  0  0
  3  8  1  0  0  0  0
  3  4  1  0  0  0  0
  4  5  1  0  0  0  0
  5 10  1  0  0  0  0
  9  3  1  0  0  0  0
 11  5  1  0  0  0  0
 12  2  1  0  0  0  0
 13 18  1  0  0  0  0
 13 12  2  0  0  0  0
 14 13  1  0  0  0  0
 15 14  2  0  0  0  0
 15 16  1  0  0  0  0
 16 17  2  0  0  0  0
 17 12  1  0  0  0  0
 19 14  1  0  0  0  0
 20 16  1  0  0  0  0
 21 22  1  0  0  0  0
 22 32  2  0  0  0  0
 22 23  1  0  0  0  0
 23 25  2  0  0  0  0
 24 23  1  0  0  0  0
 25 26  1  0  0  0  0
 27 28  1  0  0  0  0
 27 26  2  0  0  0  0
 29 28  2  0  0  0  0
 30 29  1  0  0  0  0
 31 30  2  0  0  0  0
 31 32  1  0  0  0  0
 32 27  1  0  0  0  0
M  END
>  <minimizedAffinity>
-5.5216856

$$$$

 OpenBabel03262521433D

 32 35  0  0  1  0  0  0  0  0999 V2000
   38.4480   26.6390   34.7780 C   0  0  1  0  0  0  0  0  0  0  0  0
   39.0910   27.0520   33.4470 C   0  0  2  0  0  0  0  0  0  0  0  0
   38.0350   26.4300   32.5630 C   0  0  0  0  0  0  0  0  0  0  0  0
   36.8210   26.7830   33.1330 O   0  0  0  0  0  0  0  0  0  0  0  0
   37.0090   27.0490   34.4580 C   0  0  0  0  0  0  0  0  0  0  0  0
   38.8880   27.2840   35.5540 H   0  0  0  0  0  0  0  0  0  0  0  0
   39.0260   28.1530   33.3600 H   0  0  0  0  0  0  0  0  0  0  0  0
   38.1450   25.3380   32.4840 H   0  0  0  0  0  0  0  0  0  0  0  0
   38.1280   26.8970   31.5440 H   0  0  0  0  0  0  0  0  0  0  0  0
   36.3110   26.3770   35.0320 H   0  0  0  0  0  0  0  0  0  0  0  0
   36.7930   28.0730   34.7800 H   0  0  0  0  0  0  0  0  0  0  0  0
   40.4360   26.4960   33.2810 C   0  0  0  0  0  0  0  0  0  0  0  0
   41.4690   26.8790   34.1460 C   0  0  0  0  0  0  0  0  0  0  0  0
   42.7330   26.3260   33.9190 C   0  0  0  0  0  0  0  0  0  0  0  0
   42.8920   25.4530   32.8770 N   0  0  0  0  0  0  0  0  0  0  0  0
   41.8570   25.1020   32.0510 C   0  0  0  0  0  0  0  0  0  0  0  0
   40.6320   25.6330   32.2680 N   0  0  0  0  0  0  0  0  0  0  0  0
   41.3020   27.5730   34.9580 H   0  0  0  0  0  0  0  0  0  0  0  0
   43.5790   26.5740   34.5460 H   0  0  0  0  0  0  0  0  0  0  0  0
   42.0860   24.4100   31.2650 H   0  0  0  0  0  0  0  0  0  0  0  0
   38.4400   25.2990   34.9730 O   0  0  0  0  0  0  0  0  0  0  0  0
   38.6230   24.6060   36.1620 C   0  0  0  0  0  0  0  0  0  0  0  0
   37.8590   24.8170   37.2910 C   0  0  0  0  0  0  0  0  0  0  0  0
   37.0780   25.5500   37.2700 H   0  0  0  0  0  0  0  0  0  0  0  0
   38.0380   24.1320   38.4720 C   0  0  0  0  0  3  0  0  0  0  0  0
   39.0330   23.1740   38.5530 C   0  0  0  0  0  3  0  0  0  0  0  0
   39.8150   22.9510   37.4150 C   0  0  0  0  0  0  0  0  0  0  0  0
   40.7970   22.0050   37.4950 C   0  0  0  0  0  3  0  0  0  0  0  0
   41.6230   21.7130   36.4160 C   0  0  0  0  0  3  0  0  0  0  0  0
   41.4500   22.3940   35.2360 C   0  0  0  0  0  3  0  0  0  0  0  0
   40.4610   23.3530   35.1410 C   0  0  0  0  0  3  0  0  0  0  0  0
   39.6300   23.6470   36.2220 C   0  0  0  0  0  0  0  0  0  0  0  0
  1 21  1  0  0  0  0
  1  6  1  1  0  0  0
  2  7  1  6  0  0  0
  2  1  1  0  0  0  0
  3  4  1  0  0  0  0
  3  2  1  0  0  0  0
  4  5  1  0  0  0  0
  5  1  1  0  0  0  0
  5 11  1  0  0  0  0
  5 10  1  0  0  0  0
  8  3  1  0  0  0  0
  9  3  1  0  0  0  0
 12  2  1  0  0  0  0
 12 13  1  0  0  0  0
 13 18  1  0  0  0  0
 14 13  2  0  0  0  0
 14 19  1  0  0  0  0
 15 14  1  0  0  0  0
 16 17  1  0  0  0  0
 16 15  2  0  0  0  0
 17 12  2  0  0  0  0
 20 16  1  0  0  0  0
 21 22  1  0  0  0  0
 22 32  2  0  0  0  0
 22 23  1  0  0  0  0
 23 25  2  0  0  0  0
 24 23  1  0  0  0  0
 25 26  1  0  0  0  0
 27 28  1  0  0  0  0
 27 26  2  0  0  0  0
 29 28  2  0  0  0  0
 30 29  1  0  0  0  0
 31 30  2  0  0  0  0
 31 32  1  0  0  0  0
 32 27  1  0  0  0  0
M  END
>  <minimizedAffinity>
-5.42238426

$$$$

 OpenBabel03262521433D

 32 35  0  0  1  0  0  0  0  0999 V2000
   37.8000   24.2240   36.9870 C   0  0  1  0  0  0  0  0  0  0  0  0
   38.3270   22.7850   36.9020 C   0  0  2  0  0  0  0  0  0  0  0  0
   39.4960   22.9910   37.8360 C   0  0  0  0  0  0  0  0  0  0  0  0
   38.9900   23.7100   38.9090 O   0  0  0  0  0  0  0  0  0  0  0  0
   37.8790   24.3910   38.5060 C   0  0  0  0  0  0  0  0  0  0  0  0
   36.7560   24.1970   36.6380 H   0  0  0  0  0  0  0  0  0  0  0  0
   37.5920   22.1180   37.3910 H   0  0  0  0  0  0  0  0  0  0  0  0
   40.3320   23.5180   37.3530 H   0  0  0  0  0  0  0  0  0  0  0  0
   39.8350   21.9760   38.1840 H   0  0  0  0  0  0  0  0  0  0  0  0
   38.0570   25.4800   38.7350 H   0  0  0  0  0  0  0  0  0  0  0  0
   36.9400   24.1190   38.9980 H   0  0  0  0  0  0  0  0  0  0  0  0
   38.6940   22.4050   35.5360 C   0  0  0  0  0  0  0  0  0  0  0  0
   40.0420   22.2810   35.1760 C   0  0  0  0  0  0  0  0  0  0  0  0
   40.3220   21.9360   33.8490 C   0  0  0  0  0  0  0  0  0  0  0  0
   39.2780   21.7420   32.9850 N   0  0  0  0  0  0  0  0  0  0  0  0
   37.9710   21.8730   33.3740 C   0  0  0  0  0  0  0  0  0  0  0  0
   37.6950   22.2050   34.6560 N   0  0  0  0  0  0  0  0  0  0  0  0
   40.8380   22.4430   35.8880 H   0  0  0  0  0  0  0  0  0  0  0  0
   41.3380   21.8210   33.4970 H   0  0  0  0  0  0  0  0  0  0  0  0
   37.2280   21.6990   32.6220 H   0  0  0  0  0  0  0  0  0  0  0  0
   38.6440   25.1340   36.4470 O   0  0  0  0  0  0  0  0  0  0  0  0
   38.4780   25.8680   35.2800 C   0  0  0  0  0  0  0  0  0  0  0  0
   37.2470   26.2520   34.7900 C   0  0  0  0  0  0  0  0  0  0  0  0
   36.3600   25.9790   35.3240 H   0  0  0  0  0  0  0  0  0  0  0  0
   37.0800   26.9790   33.6340 C   0  0  0  0  0  3  0  0  0  0  0  0
   38.1940   27.3570   32.9060 C   0  0  0  0  0  3  0  0  0  0  0  0
   39.4480   26.9740   33.3920 C   0  0  0  0  0  0  0  0  0  0  0  0
   40.5480   27.3470   32.6740 C   0  0  0  0  0  3  0  0  0  0  0  0
   41.8360   27.0130   33.0780 C   0  0  0  0  0  3  0  0  0  0  0  0
   42.0090   26.2880   34.2300 C   0  0  0  0  0  3  0  0  0  0  0  0
   40.9060   25.9040   34.9670 C   0  0  0  0  0  3  0  0  0  0  0  0
   39.6130   26.2370   34.5630 C   0  0  0  0  0  0  0  0  0  0  0  0
  1  6  1  6  0  0  0
  1  5  1  0  0  0  0
  2  1  1  0  0  0  0
  2  7  1  1  0  0  0
  2  3  1  0  0  0  0
  3  9  1  0  0  0  0
  3  4  1  0  0  0  0
  5 10  1  0  0  0  0
  5  4  1  0  0  0  0
  5 11  1  0  0  0  0
  8  3  1  0  0  0  0
 12  2  1  0  0  0  0
 13 12  1  0  0  0  0
 13 18  1  0  0  0  0
 14 13  2  0  0  0  0
 15 16  2  0  0  0  0
 15 14  1  0  0  0  0
 16 17  1  0  0  0  0
 17 12  2  0  0  0  0
 19 14  1  0  0  0  0
 20 16  1  0  0  0  0
 21  1  1  0  0  0  0
 22 21  1  0  0  0  0
 23 22  1  0  0  0  0
 23 24  1  0  0  0  0
 25 23  2  0  0  0  0
 26 27  2  0  0  0  0
 26 25  1  0  0  0  0
 27 32  1  0  0  0  0
 28 29  2  0  0  0  0
 28 27  1  0  0  0  0
 29 30  1  0  0  0  0
 30 31  2  0  0  0  0
 32 31  1  0  0  0  0
 32 22  2  0  0  0  0
M  END
>  <minimizedAffinity>
-5.39372921

$$$$

 OpenBabel03262521433D

 32 35  0  0  1  0  0  0  0  0999 V2000
   39.5550   26.4270   34.7110 C   0  0  1  0  0  0  0  0  0  0  0  0
   40.1850   25.0500   34.9630 C   0  0  2  0  0  0  0  0  0  0  0  0
   40.7590   24.8840   33.5750 C   0  0  0  0  0  0  0  0  0  0  0  0
   41.3400   26.1050   33.2670 O   0  0  0  0  0  0  0  0  0  0  0  0
   40.7470   27.0830   34.0110 C   0  0  0  0  0  0  0  0  0  0  0  0
   39.3710   26.8740   35.7000 H   0  0  0  0  0  0  0  0  0  0  0  0
   41.0170   25.1780   35.6800 H   0  0  0  0  0  0  0  0  0  0  0  0
   39.9950   24.6000   32.8370 H   0  0  0  0  0  0  0  0  0  0  0  0
   41.5520   24.0880   33.6300 H   0  0  0  0  0  0  0  0  0  0  0  0
   40.3550   27.8550   33.2900 H   0  0  0  0  0  0  0  0  0  0  0  0
   41.3950   27.6140   34.7160 H   0  0  0  0  0  0  0  0  0  0  0  0
   39.1910   24.0430   35.3400 C   0  0  0  0  0  0  0  0  0  0  0  0
   38.4750   24.1730   36.5370 C   0  0  0  0  0  0  0  0  0  0  0  0
   37.5550   23.1650   36.8470 C   0  0  0  0  0  0  0  0  0  0  0  0
   37.4080   22.1190   35.9760 N   0  0  0  0  0  0  0  0  0  0  0  0
   38.1270   22.0250   34.8140 C   0  0  0  0  0  0  0  0  0  0  0  0
   39.0160   22.9990   34.5090 N   0  0  0  0  0  0  0  0  0  0  0  0
   38.6210   25.0150   37.1990 H   0  0  0  0  0  0  0  0  0  0  0  0
   36.9660   23.1960   37.7530 H   0  0  0  0  0  0  0  0  0  0  0  0
   37.9360   21.1680   34.2010 H   0  0  0  0  0  0  0  0  0  0  0  0
   38.5420   26.3940   33.8130 O   0  0  0  0  0  0  0  0  0  0  0  0
   37.6020   27.3800   33.5470 C   0  0  0  0  0  0  0  0  0  0  0  0
   36.7600   27.9080   34.5030 C   0  0  0  0  0  0  0  0  0  0  0  0
   36.8180   27.5500   35.5110 H   0  0  0  0  0  0  0  0  0  0  0  0
   35.8280   28.8860   34.2420 C   0  0  0  0  0  3  0  0  0  0  0  0
   35.7110   29.3820   32.9560 C   0  0  0  0  0  3  0  0  0  0  0  0
   36.5590   28.8560   31.9770 C   0  0  0  0  0  0  0  0  0  0  0  0
   36.4450   29.3460   30.7070 C   0  0  0  0  0  3  0  0  0  0  0  0
   37.2440   28.8850   29.6680 C   0  0  0  0  0  3  0  0  0  0  0  0
   38.1760   27.9090   29.9230 C   0  0  0  0  0  3  0  0  0  0  0  0
   38.3030   27.4040   31.2020 C   0  0  0  0  0  3  0  0  0  0  0  0
   37.5020   27.8660   32.2460 C   0  0  0  0  0  0  0  0  0  0  0  0
  1  2  1  0  0  0  0
  1  6  1  1  0  0  0
  2 12  1  0  0  0  0
  2  7  1  1  0  0  0
  3  9  1  0  0  0  0
  3  2  1  0  0  0  0
  4  3  1  0  0  0  0
  4  5  1  0  0  0  0
  5  1  1  0  0  0  0
  5 11  1  0  0  0  0
  8  3  1  0  0  0  0
 10  5  1  0  0  0  0
 12 13  1  0  0  0  0
 13 14  2  0  0  0  0
 13 18  1  0  0  0  0
 14 19  1  0  0  0  0
 15 14  1  0  0  0  0
 16 15  2  0  0  0  0
 17 16  1  0  0  0  0
 17 12  2  0  0  0  0
 20 16  1  0  0  0  0
 21  1  1  0  0  0  0
 22 21  1  0  0  0  0
 22 23  1  0  0  0  0
 23 24  1  0  0  0  0
 25 23  2  0  0  0  0
 26 25  1  0  0  0  0
 27 32  1  0  0  0  0
 27 26  2  0  0  0  0
 28 27  1  0  0  0  0
 29 30  1  0  0  0  0
 29 28  2  0  0  0  0
 30 31  2  0  0  0  0
 31 32  1  0  0  0  0
 32 22  2  0  0  0  0
M  END
>  <minimizedAffinity>
-5.34802008

$$$$

 OpenBabel03262521433D

 32 35  0  0  1  0  0  0  0  0999 V2000
   37.0490   22.4800   32.7140 C   0  0  1  0  0  0  0  0  0  0  0  0
   37.0420   22.9110   31.2410 C   0  0  2  0  0  0  0  0  0  0  0  0
   38.3560   22.2570   30.8810 C   0  0  0  0  0  0  0  0  0  0  0  0
   38.3120   20.9970   31.4580 O   0  0  0  0  0  0  0  0  0  0  0  0
   37.4400   21.0160   32.5070 C   0  0  0  0  0  0  0  0  0  0  0  0
   36.0120   22.5740   33.0730 H   0  0  0  0  0  0  0  0  0  0  0  0
   36.2230   22.3730   30.7270 H   0  0  0  0  0  0  0  0  0  0  0  0
   39.2220   22.8360   31.2340 H   0  0  0  0  0  0  0  0  0  0  0  0
   38.3910   22.1630   29.7600 H   0  0  0  0  0  0  0  0  0  0  0  0
   38.0090   20.6680   33.4150 H   0  0  0  0  0  0  0  0  0  0  0  0
   36.5640   20.3650   32.4190 H   0  0  0  0  0  0  0  0  0  0  0  0
   37.0190   24.3670   31.0860 C   0  0  0  0  0  0  0  0  0  0  0  0
   35.8600   25.0910   31.3980 C   0  0  0  0  0  0  0  0  0  0  0  0
   35.8990   26.4760   31.2080 C   0  0  0  0  0  0  0  0  0  0  0  0
   37.0510   27.0430   30.7330 N   0  0  0  0  0  0  0  0  0  0  0  0
   38.1650   26.3030   30.4390 C   0  0  0  0  0  0  0  0  0  0  0  0
   38.1330   24.9620   30.6220 N   0  0  0  0  0  0  0  0  0  0  0  0
   34.9690   24.6050   31.7700 H   0  0  0  0  0  0  0  0  0  0  0  0
   35.0440   27.1010   31.4270 H   0  0  0  0  0  0  0  0  0  0  0  0
   39.0160   26.8420   30.0730 H   0  0  0  0  0  0  0  0  0  0  0  0
   38.0410   23.0540   33.4340 O   0  0  0  0  0  0  0  0  0  0  0  0
   38.0090   23.4660   34.7590 C   0  0  0  0  0  0  0  0  0  0  0  0
   37.8170   22.6040   35.8190 C   0  0  0  0  0  0  0  0  0  0  0  0
   37.6830   21.5590   35.6300 H   0  0  0  0  0  0  0  0  0  0  0  0
   37.7850   23.0090   37.1340 C   0  0  0  0  0  3  0  0  0  0  0  0
   37.9530   24.3490   37.4330 C   0  0  0  0  0  3  0  0  0  0  0  0
   38.1490   25.2330   36.3670 C   0  0  0  0  0  0  0  0  0  0  0  0
   38.3150   26.5560   36.6620 C   0  0  0  0  0  3  0  0  0  0  0  0
   38.5160   27.5090   35.6700 C   0  0  0  0  0  3  0  0  0  0  0  0
   38.5490   27.1110   34.3560 C   0  0  0  0  0  3  0  0  0  0  0  0
   38.3820   25.7770   34.0430 C   0  0  0  0  0  3  0  0  0  0  0  0
   38.1800   24.8190   35.0370 C   0  0  0  0  0  0  0  0  0  0  0  0
  1  6  1  1  0  0  0
  1 21  1  0  0  0  0
  2  7  1  6  0  0  0
  2  1  1  0  0  0  0
  3  8  1  0  0  0  0
  3  2  1  0  0  0  0
  3  4  1  0  0  0  0
  4  5  1  0  0  0  0
  5  1  1  0  0  0  0
  5 10  1  0  0  0  0
  9  3  1  0  0  0  0
 11  5  1  0  0  0  0
 12  2  1  0  0  0  0
 12 13  1  0  0  0  0
 13 18  1  0  0  0  0
 14 13  2  0  0  0  0
 14 19  1  0  0  0  0
 15 14  1  0  0  0  0
 16 17  1  0  0  0  0
 16 15  2  0  0  0  0
 17 12  2  0  0  0  0
 20 16  1  0  0  0  0
 21 22  1  0  0  0  0
 22 32  2  0  0  0  0
 22 23  1  0  0  0  0
 23 25  2  0  0  0  0
 24 23  1  0  0  0  0
 25 26  1  0  0  0  0
 27 28  1  0  0  0  0
 27 26  2  0  0  0  0
 29 28  2  0  0  0  0
 30 29  1  0  0  0  0
 31 30  2  0  0  0  0
 31 32  1  0  0  0  0
 32 27  1  0  0  0  0
M  END
>  <minimizedAffinity>
-5.29759502

$$$$

 OpenBabel03262521433D

 32 35  0  0  1  0  0  0  0  0999 V2000
   38.6440   25.1970   32.4570 C   0  0  1  0  0  0  0  0  0  0  0  0
   37.5060   24.9490   31.4570 C   0  0  2  0  0  0  0  0  0  0  0  0
   36.4740   25.7760   32.1860 C   0  0  0  0  0  0  0  0  0  0  0  0
   37.1250   26.9460   32.5470 O   0  0  0  0  0  0  0  0  0  0  0  0
   38.4670   26.7090   32.6110 C   0  0  0  0  0  0  0  0  0  0  0  0
   39.5810   24.9520   31.9330 H   0  0  0  0  0  0  0  0  0  0  0  0
   37.7640   25.4550   30.5080 H   0  0  0  0  0  0  0  0  0  0  0  0
   36.0600   25.2540   33.0610 H   0  0  0  0  0  0  0  0  0  0  0  0
   35.6490   26.0080   31.4560 H   0  0  0  0  0  0  0  0  0  0  0  0
   38.8050   27.0030   33.6450 H   0  0  0  0  0  0  0  0  0  0  0  0
   39.0900   27.2690   31.9080 H   0  0  0  0  0  0  0  0  0  0  0  0
   37.1760   23.5280   31.3300 C   0  0  0  0  0  0  0  0  0  0  0  0
   38.1140   22.6300   30.8040 C   0  0  0  0  0  0  0  0  0  0  0  0
   37.7260   21.2900   30.6910 C   0  0  0  0  0  0  0  0  0  0  0  0
   36.4680   20.9330   31.0950 N   0  0  0  0  0  0  0  0  0  0  0  0
   35.5770   21.8400   31.6050 C   0  0  0  0  0  0  0  0  0  0  0  0
   35.9470   23.1370   31.7170 N   0  0  0  0  0  0  0  0  0  0  0  0
   39.0980   22.9520   30.4950 H   0  0  0  0  0  0  0  0  0  0  0  0
   38.3960   20.5390   30.2940 H   0  0  0  0  0  0  0  0  0  0  0  0
   34.6170   21.4590   31.8920 H   0  0  0  0  0  0  0  0  0  0  0  0
   38.4150   24.6480   33.6730 O   0  0  0  0  0  0  0  0  0  0  0  0
   39.2520   23.8220   34.4100 C   0  0  0  0  0  0  0  0  0  0  0  0
   40.2680   23.0750   33.8530 C   0  0  0  0  0  0  0  0  0  0  0  0
   40.4360   23.1200   32.7960 H   0  0  0  0  0  0  0  0  0  0  0  0
   41.1000   22.2550   34.5810 C   0  0  0  0  0  3  0  0  0  0  0  0
   40.9250   22.1600   35.9500 C   0  0  0  0  0  3  0  0  0  0  0  0
   39.8980   22.9130   36.5280 C   0  0  0  0  0  0  0  0  0  0  0  0
   39.7260   22.8200   37.8800 C   0  0  0  0  0  3  0  0  0  0  0  0
   38.7330   23.5300   38.5430 C   0  0  0  0  0  3  0  0  0  0  0  0
   37.9000   24.3500   37.8220 C   0  0  0  0  0  3  0  0  0  0  0  0
   38.0620   24.4540   36.4550 C   0  0  0  0  0  3  0  0  0  0  0  0
   39.0580   23.7420   35.7870 C   0  0  0  0  0  0  0  0  0  0  0  0
  1  6  1  6  0  0  0
  1  5  1  0  0  0  0
  1 21  1  0  0  0  0
  2  7  1  6  0  0  0
  2  3  1  0  0  0  0
  2  1  1  0  0  0  0
  3  4  1  0  0  0  0
  3  8  1  0  0  0  0
  4  5  1  0  0  0  0
  5 10  1  0  0  0  0
  9  3  1  0  0  0  0
 11  5  1  0  0  0  0
 12  2  1  0  0  0  0
 12 17  1  0  0  0  0
 13 12  2  0  0  0  0
 14 13  1  0  0  0  0
 14 15  2  0  0  0  0
 15 16  1  0  0  0  0
 16 17  2  0  0  0  0
 16 20  1  0  0  0  0
 18 13  1  0  0  0  0
 19 14  1  0  0  0  0
 21 22  1  0  0  0  0
 22 32  1  0  0  0  0
 23 22  2  0  0  0  0
 23 25  1  0  0  0  0
 24 23  1  0  0  0  0
 25 26  2  0  0  0  0
 26 27  1  0  0  0  0
 27 28  1  0  0  0  0
 28 29  2  0  0  0  0
 30 29  1  0  0  0  0
 31 30  2  0  0  0  0
 32 31  1  0  0  0  0
 32 27  2  0  0  0  0
M  END
>  <minimizedAffinity>
-5.26489305

$$$$

 OpenBabel03262521433D

 32 35  0  0  1  0  0  0  0  0999 V2000
   38.2080   24.0970   33.4700 C   0  0  1  0  0  0  0  0  0  0  0  0
   39.1320   24.8000   34.4740 C   0  0  2  0  0  0  0  0  0  0  0  0
   40.4160   24.5170   33.7290 C   0  0  0  0  0  0  0  0  0  0  0  0
   40.1400   24.7980   32.3990 O   0  0  0  0  0  0  0  0  0  0  0  0
   38.7970   24.6860   32.1870 C   0  0  0  0  0  0  0  0  0  0  0  0
   37.1920   24.4770   33.6600 H   0  0  0  0  0  0  0  0  0  0  0  0
   38.9260   25.8860   34.4310 H   0  0  0  0  0  0  0  0  0  0  0  0
   40.7590   23.4810   33.8630 H   0  0  0  0  0  0  0  0  0  0  0  0
   41.1950   25.2310   34.1150 H   0  0  0  0  0  0  0  0  0  0  0  0
   38.6540   23.9410   31.3550 H   0  0  0  0  0  0  0  0  0  0  0  0
   38.2800   25.6000   31.8800 H   0  0  0  0  0  0  0  0  0  0  0  0
   39.0560   24.2070   35.8110 C   0  0  0  0  0  0  0  0  0  0  0  0
   40.0570   23.3320   36.2530 C   0  0  0  0  0  0  0  0  0  0  0  0
   39.9120   22.7860   37.5330 C   0  0  0  0  0  0  0  0  0  0  0  0
   38.8140   23.1300   38.2750 N   0  0  0  0  0  0  0  0  0  0  0  0
   37.8550   23.9900   37.8090 C   0  0  0  0  0  0  0  0  0  0  0  0
   37.9910   24.5220   36.5720 N   0  0  0  0  0  0  0  0  0  0  0  0
   40.9090   23.0850   35.6360 H   0  0  0  0  0  0  0  0  0  0  0  0
   40.6440   22.1030   37.9430 H   0  0  0  0  0  0  0  0  0  0  0  0
   37.0350   24.1950   38.4670 H   0  0  0  0  0  0  0  0  0  0  0  0
   38.4020   22.7580   33.4130 O   0  0  0  0  0  0  0  0  0  0  0  0
   37.4420   21.7560   33.3600 C   0  0  0  0  0  0  0  0  0  0  0  0
   36.5790   21.4730   34.3980 C   0  0  0  0  0  0  0  0  0  0  0  0
   36.6370   22.0440   35.3020 H   0  0  0  0  0  0  0  0  0  0  0  0
   35.6270   20.4800   34.3480 C   0  0  0  0  0  3  0  0  0  0  0  0
   35.5110   19.7110   33.2040 C   0  0  0  0  0  3  0  0  0  0  0  0
   36.3810   19.9890   32.1440 C   0  0  0  0  0  0  0  0  0  0  0  0
   36.2660   19.2310   31.0130 C   0  0  0  0  0  3  0  0  0  0  0  0
   37.0850   19.4320   29.9090 C   0  0  0  0  0  3  0  0  0  0  0  0
   38.0370   20.4210   29.9530 C   0  0  0  0  0  3  0  0  0  0  0  0
   38.1640   21.1960   31.0890 C   0  0  0  0  0  3  0  0  0  0  0  0
   37.3430   20.9950   32.1980 C   0  0  0  0  0  0  0  0  0  0  0  0
  1  6  1  1  0  0  0
  1  2  1  0  0  0  0
  2  7  1  1  0  0  0
  2 12  1  0  0  0  0
  3  8  1  0  0  0  0
  3  9  1  0  0  0  0
  3  2  1  0  0  0  0
  4  3  1  0  0  0  0
  5  4  1  0  0  0  0
  5  1  1  0  0  0  0
 10  5  1  0  0  0  0
 11  5  1  0  0  0  0
 12 13  2  0  0  0  0
 12 17  1  0  0  0  0
 13 14  1  0  0  0  0
 14 19  1  0  0  0  0
 14 15  2  0  0  0  0
 16 15  1  0  0  0  0
 16 20  1  0  0  0  0
 17 16  2  0  0  0  0
 18 13  1  0  0  0  0
 21  1  1  0  0  0  0
 22 21  1  0  0  0  0
 22 23  1  0  0  0  0
 23 24  1  0  0  0  0
 25 23  2  0  0  0  0
 26 25  1  0  0  0  0
 27 32  1  0  0  0  0
 27 26  2  0  0  0  0
 28 27  1  0  0  0  0
 29 30  1  0  0  0  0
 29 28  2  0  0  0  0
 30 31  2  0  0  0  0
 31 32  1  0  0  0  0
 32 22  2  0  0  0  0
M  END
>  <minimizedAffinity>
-5.23084927

$$$$

 OpenBabel03262521433D

 32 35  0  0  1  0  0  0  0  0999 V2000
   34.6110   30.3380   33.4750 C   0  0  1  0  0  0  0  0  0  0  0  0
   33.5370   30.7580   34.4890 C   0  0  2  0  0  0  0  0  0  0  0  0
   34.4890   30.9880   35.6380 C   0  0  0  0  0  0  0  0  0  0  0  0
   35.5540   31.6950   35.1000 O   0  0  0  0  0  0  0  0  0  0  0  0
   35.6210   31.4510   33.7600 C   0  0  0  0  0  0  0  0  0  0  0  0
   34.1600   30.4480   32.4760 H   0  0  0  0  0  0  0  0  0  0  0  0
   33.1220   31.7310   34.1680 H   0  0  0  0  0  0  0  0  0  0  0  0
   34.8190   30.0490   36.1050 H   0  0  0  0  0  0  0  0  0  0  0  0
   33.9550   31.6240   36.3980 H   0  0  0  0  0  0  0  0  0  0  0  0
   36.6540   31.0570   33.5460 H   0  0  0  0  0  0  0  0  0  0  0  0
   35.4750   32.3160   33.1040 H   0  0  0  0  0  0  0  0  0  0  0  0
   32.5440   29.7060   34.7160 C   0  0  0  0  0  0  0  0  0  0  0  0
   32.3430   29.1910   36.0040 C   0  0  0  0  0  0  0  0  0  0  0  0
   31.3940   28.1740   36.1470 C   0  0  0  0  0  0  0  0  0  0  0  0
   30.7210   27.7410   35.0360 N   0  0  0  0  0  0  0  0  0  0  0  0
   30.9440   28.2680   33.7920 C   0  0  0  0  0  0  0  0  0  0  0  0
   31.8610   29.2530   33.6480 N   0  0  0  0  0  0  0  0  0  0  0  0
   32.8960   29.5610   36.8560 H   0  0  0  0  0  0  0  0  0  0  0  0
   31.1850   27.7280   37.1100 H   0  0  0  0  0  0  0  0  0  0  0  0
   30.3650   27.8600   32.9880 H   0  0  0  0  0  0  0  0  0  0  0  0
   35.2150   29.1690   33.7910 O   0  0  0  0  0  0  0  0  0  0  0  0
   36.2030   28.4970   33.0840 C   0  0  0  0  0  0  0  0  0  0  0  0
   36.2080   28.3770   31.7100 C   0  0  0  0  0  0  0  0  0  0  0  0
   35.4150   28.8180   31.1400 H   0  0  0  0  0  0  0  0  0  0  0  0
   37.1860   27.7130   31.0060 C   0  0  0  0  0  3  0  0  0  0  0  0
   38.2330   27.1250   31.6940 C   0  0  0  0  0  3  0  0  0  0  0  0
   38.2400   27.2400   33.0880 C   0  0  0  0  0  0  0  0  0  0  0  0
   39.2730   26.6600   33.7670 C   0  0  0  0  0  3  0  0  0  0  0  0
   39.3660   26.7220   35.1530 C   0  0  0  0  0  3  0  0  0  0  0  0
   38.3930   27.3830   35.8600 C   0  0  0  0  0  3  0  0  0  0  0  0
   37.3430   27.9740   35.1870 C   0  0  0  0  0  3  0  0  0  0  0  0
   37.2470   27.9130   33.7970 C   0  0  0  0  0  0  0  0  0  0  0  0
  1  6  1  6  0  0  0
  1  5  1  0  0  0  0
  1 21  1  0  0  0  0
  1  2  1  0  0  0  0
  2  7  1  6  0  0  0
  2 12  1  0  0  0  0
  2  3  1  0  0  0  0
  3  8  1  0  0  0  0
  3  9  1  0  0  0  0
  4  3  1  0  0  0  0
  5  4  1  0  0  0  0
 10  5  1  0  0  0  0
 11  5  1  0  0  0  0
 12 13  1  0  0  0  0
 13 14  2  0  0  0  0
 13 18  1  0  0  0  0
 14 19  1  0  0  0  0
 15 14  1  0  0  0  0
 16 15  2  0  0  0  0
 17 16  1  0  0  0  0
 17 12  2  0  0  0  0
 20 16  1  0  0  0  0
 22 21  1  0  0  0  0
 22 32  1  0  0  0  0
 23 22  2  0  0  0  0
 24 23  1  0  0  0  0
 25 26  2  0  0  0  0
 25 23  1  0  0  0  0
 26 27  1  0  0  0  0
 27 28  2  0  0  0  0
 27 32  1  0  0  0  0
 28 29  1  0  0  0  0
 29 30  2  0  0  0  0
 31 30  1  0  0  0  0
 32 31  2  0  0  0  0
M  END
>  <minimizedAffinity>
-5.19961739

$$$$

 OpenBabel03262521433D

 32 35  0  0  1  0  0  0  0  0999 V2000
   39.2950   26.4470   33.6280 C   0  0  1  0  0  0  0  0  0  0  0  0
   40.0820   25.9760   34.8590 C   0  0  2  0  0  0  0  0  0  0  0  0
   41.3020   25.5140   34.0990 C   0  0  0  0  0  0  0  0  0  0  0  0
   41.5690   26.5200   33.1810 O   0  0  0  0  0  0  0  0  0  0  0  0
   40.4220   27.2160   32.9350 C   0  0  0  0  0  0  0  0  0  0  0  0
   38.5100   27.1250   33.9960 H   0  0  0  0  0  0  0  0  0  0  0  0
   40.3500   26.8670   35.4580 H   0  0  0  0  0  0  0  0  0  0  0  0
   41.1450   24.5440   33.6040 H   0  0  0  0  0  0  0  0  0  0  0  0
   42.1490   25.4340   34.8340 H   0  0  0  0  0  0  0  0  0  0  0  0
   40.2460   27.1810   31.8230 H   0  0  0  0  0  0  0  0  0  0  0  0
   40.4300   28.2740   33.2170 H   0  0  0  0  0  0  0  0  0  0  0  0
   39.3830   24.9220   35.5970 C   0  0  0  0  0  0  0  0  0  0  0  0
   38.1460   25.1850   36.2010 C   0  0  0  0  0  0  0  0  0  0  0  0
   37.5430   24.1390   36.9080 C   0  0  0  0  0  0  0  0  0  0  0  0
   38.1840   22.9310   36.9710 N   0  0  0  0  0  0  0  0  0  0  0  0
   39.3940   22.7110   36.3680 C   0  0  0  0  0  0  0  0  0  0  0  0
   39.9810   23.7190   35.6820 N   0  0  0  0  0  0  0  0  0  0  0  0
   37.6720   26.1530   36.1290 H   0  0  0  0  0  0  0  0  0  0  0  0
   36.5880   24.2670   37.4010 H   0  0  0  0  0  0  0  0  0  0  0  0
   39.8120   21.7310   36.4760 H   0  0  0  0  0  0  0  0  0  0  0  0
   38.9440   25.4340   32.8000 O   0  0  0  0  0  0  0  0  0  0  0  0
   37.7040   25.1890   32.2260 C   0  0  0  0  0  0  0  0  0  0  0  0
   36.9560   26.1560   31.5870 C   0  0  0  0  0  0  0  0  0  0  0  0
   37.3350   27.1560   31.5200 H   0  0  0  0  0  0  0  0  0  0  0  0
   35.7270   25.9160   31.0170 C   0  0  0  0  0  3  0  0  0  0  0  0
   35.1920   24.6410   31.0770 C   0  0  0  0  0  3  0  0  0  0  0  0
   35.9410   23.6520   31.7220 C   0  0  0  0  0  0  0  0  0  0  0  0
   35.4130   22.3930   31.7800 C   0  0  0  0  0  3  0  0  0  0  0  0
   36.0830   21.3450   32.4000 C   0  0  0  0  0  3  0  0  0  0  0  0
   37.3100   21.5790   32.9700 C   0  0  0  0  0  3  0  0  0  0  0  0
   37.8550   22.8460   32.9190 C   0  0  0  0  0  3  0  0  0  0  0  0
   37.1850   23.8990   32.2970 C   0  0  0  0  0  0  0  0  0  0  0  0
  1  6  1  1  0  0  0
  1  2  1  0  0  0  0
  2  7  1  1  0  0  0
  2 12  1  0  0  0  0
  3  9  1  0  0  0  0
  3  2  1  0  0  0  0
  4  3  1  0  0  0  0
  5  4  1  0  0  0  0
  5 11  1  0  0  0  0
  5  1  1  0  0  0  0
  8  3  1  0  0  0  0
 10  5  1  0  0  0  0
 12 17  2  0  0  0  0
 12 13  1  0  0  0  0
 13 14  2  0  0  0  0
 14 15  1  0  0  0  0
 14 19  1  0  0  0  0
 16 20  1  0  0  0  0
 16 15  2  0  0  0  0
 17 16  1  0  0  0  0
 18 13  1  0  0  0  0
 21  1  1  0  0  0  0
 22 32  1  0  0  0  0
 22 21  1  0  0  0  0
 23 22  2  0  0  0  0
 24 23  1  0  0  0  0
 25 26  2  0  0  0  0
 25 23  1  0  0  0  0
 26 27  1  0  0  0  0
 27 28  2  0  0  0  0
 27 32  1  0  0  0  0
 28 29  1  0  0  0  0
 29 30  2  0  0  0  0
 31 30  1  0  0  0  0
 32 31  2  0  0  0  0
M  END
>  <minimizedAffinity>
-5.16119289

$$$$
