
 OpenBabel03272506433D

 34 37  0  0  1  0  0  0  0  0999 V2000
   32.3490   28.3870   47.5050 C   0  0  2  0  0  0  0  0  0  0  0  0
   33.5660   28.4070   48.4160 C   0  0  1  0  0  0  0  0  0  0  0  0
   34.0760   27.1450   48.4630 O   0  0  0  0  0  0  0  0  0  0  0  0
   33.4270   26.3590   47.5360 C   0  0  0  0  0  0  0  0  0  0  0  0
   32.8030   27.3240   46.5120 C   0  0  1  0  0  0  0  0  0  0  0  0
   31.4500   28.0580   48.0500 H   0  0  0  0  0  0  0  0  0  0  0  0
   33.2520   28.8200   49.3930 H   0  0  0  0  0  0  0  0  0  0  0  0
   34.2000   25.7620   47.0080 H   0  0  0  0  0  0  0  0  0  0  0  0
   32.6430   25.7340   47.9940 H   0  0  0  0  0  0  0  0  0  0  0  0
   33.5870   27.7760   45.9030 H   0  0  0  0  0  0  0  0  0  0  0  0
   32.1650   29.6200   46.8840 O   0  0  0  0  0  0  0  0  0  0  0  0
   31.5490   30.1680   47.4260 H   0  0  0  0  0  0  0  0  0  0  0  0
   34.7930   29.4860   47.6120 S   0  0  0  0  0  0  0  0  0  0  0  0
   37.3670   29.3880   50.6180 C   0  0  0  0  0  0  0  0  0  0  0  0
   37.8990   30.6690   50.6920 C   0  0  0  0  0  0  0  0  0  0  0  0
   37.4420   31.6120   49.7700 C   0  0  0  0  0  0  0  0  0  0  0  0
   36.5070   31.2330   48.8520 N   0  0  0  0  0  0  0  0  0  0  0  0
   36.0190   29.9680   48.8210 C   0  0  0  0  0  0  0  0  0  0  0  0
   36.4400   29.0410   49.6950 N   0  0  0  0  0  0  0  0  0  0  0  0
   37.7520   28.6960   51.3510 H   0  0  0  0  0  0  0  0  0  0  0  0
   38.6420   30.9650   51.4220 H   0  0  0  0  0  0  0  0  0  0  0  0
   37.7980   32.6430   49.7470 H   0  0  0  0  0  0  0  0  0  0  0  0
   31.7540   26.7140   45.8790 O   0  0  0  0  0  0  0  0  0  0  0  0
   31.8840   25.5250   45.1830 C   0  0  0  0  0  0  0  0  0  0  0  0
   31.7380   24.2210   45.6000 C   0  0  0  0  0  0  0  0  0  0  0  0
   31.4780   24.1370   46.6440 H   0  0  0  0  0  0  0  0  0  0  0  0
   31.9170   23.1700   44.7270 C   0  0  0  0  0  3  0  0  0  0  0  0
   32.2450   23.3690   43.4190 C   0  0  0  0  0  3  0  0  0  0  0  0
   32.4020   24.6710   42.9590 C   0  0  0  0  0  0  0  0  0  0  0  0
   32.7300   24.8020   41.6410 C   0  0  0  0  0  3  0  0  0  0  0  0
   32.8970   26.0730   41.1330 C   0  0  0  0  0  3  0  0  0  0  0  0
   32.7330   27.1660   41.9560 C   0  0  0  0  0  3  0  0  0  0  0  0
   32.4020   26.9710   43.2780 C   0  0  0  0  0  3  0  0  0  0  0  0
   32.2210   25.7320   43.8420 C   0  0  0  0  0  0  0  0  0  0  0  0
  1  6  1  1  0  0  0
  1  2  1  0  0  0  0
  2  3  1  0  0  0  0
  2  7  1  1  0  0  0
  4  9  1  0  0  0  0
  4  3  1  0  0  0  0
  5 10  1  6  0  0  0
  5  1  1  0  0  0  0
  5  4  1  0  0  0  0
  8  4  1  0  0  0  0
 11 12  1  0  0  0  0
 11  1  1  0  0  0  0
 13  2  1  0  0  0  0
 13 18  1  0  0  0  0
 14 15  1  0  0  0  0
 14 20  1  0  0  0  0
 15 21  1  0  0  0  0
 16 15  2  0  0  0  0
 17 16  1  0  0  0  0
 18 17  2  0  0  0  0
 18 19  1  0  0  0  0
 19 14  2  0  0  0  0
 22 16  1  0  0  0  0
 23  5  1  0  0  0  0
 24 25  1  0  0  0  0
 24 23  1  0  0  0  0
 25 26  1  0  0  0  0
 27 25  2  0  0  0  0
 28 27  1  0  0  0  0
 29 28  2  0  0  0  0
 29 34  1  0  0  0  0
 30 29  1  0  0  0  0
 31 30  2  0  0  0  0
 31 32  1  0  0  0  0
 32 33  2  0  0  0  0
 33 34  1  0  0  0  0
 34 24  2  0  0  0  0
M  END
>  <minimizedAffinity>
-3.80833483

>  <minimizedRMSD>
2.20307016

$$$$
