
     RDKit          3D

 32 34  0  0  0  0  0  0  0  0999 V2000
   35.6506   30.4724   49.7424 C   0  0  0  0  0  0  0  0  0  0  0  0
   35.9771   29.4750   50.6714 C   0  0  0  0  0  0  0  0  0  0  0  0
   37.2388   29.5050   51.2652 C   0  0  0  0  0  0  0  0  0  0  0  0
   38.0957   30.5029   50.9143 N   0  0  0  0  0  0  0  0  0  0  0  0
   37.7454   31.4526   50.0105 C   0  0  0  0  0  0  0  0  0  0  0  0
   36.5184   31.4469   49.4150 N   0  0  0  0  0  0  0  0  0  0  0  0
   34.4466   30.5813   49.0698 O   0  0  0  0  0  0  0  0  0  0  0  0
   35.4967   30.1603   46.6425 O   0  0  0  0  0  0  0  0  0  0  0  0
   34.2335   30.0110   47.4578 P   0  0  1  0  0  0  0  0  0  0  0  0
   33.7455   28.3978   47.5921 O   0  0  0  0  0  0  0  0  0  0  0  0
   33.0538   30.9449   46.6759 O   0  0  0  0  0  0  0  0  0  0  0  0
   35.2258   28.7494   50.8639 H   0  0  0  0  0  0  0  0  0  0  0  0
   37.4626   28.7282   51.9738 H   0  0  0  0  0  0  0  0  0  0  0  0
   38.4979   32.2095   49.7945 H   0  0  0  0  0  0  0  0  0  0  0  0
   32.4063   30.3711   46.1864 H   0  0  0  0  0  0  0  0  0  0  0  0
   33.6520   27.6254   46.4427 C   0  0  0  0  0  0  0  0  0  0  0  0
   34.3962   27.7496   45.2888 C   0  0  0  0  0  0  0  0  0  0  0  0
   35.1267   28.5358   45.2921 H   0  0  0  0  0  0  0  0  0  0  0  0
   34.1924   26.9043   44.2174 C   0  0  0  0  0  0  0  0  0  0  0  0
   33.2296   25.8891   44.2490 C   0  0  0  0  0  0  0  0  0  0  0  0
   32.4986   25.7856   45.4141 C   0  0  0  0  0  0  0  0  0  0  0  0
   31.5468   24.7623   45.4117 C   0  0  0  0  0  0  0  0  0  0  0  0
   30.7913   24.6261   46.5659 C   0  0  0  0  0  0  0  0  0  0  0  0
   30.9316   25.4327   47.6876 C   0  0  0  0  0  0  0  0  0  0  0  0
   31.8936   26.4179   47.6062 C   0  0  0  0  0  0  0  0  0  0  0  0
   32.6862   26.6199   46.4965 C   0  0  0  0  0  0  0  0  0  0  0  0
   34.7869   27.0194   43.3227 H   0  0  0  0  0  0  0  0  0  0  0  0
   33.1103   25.2538   43.3817 H   0  0  0  0  0  0  0  0  0  0  0  0
   31.3961   24.1034   44.5616 H   0  0  0  0  0  0  0  0  0  0  0  0
   30.0500   23.8352   46.5742 H   0  0  0  0  0  0  0  0  0  0  0  0
   30.3096   25.2759   48.5616 H   0  0  0  0  0  0  0  0  0  0  0  0
   32.0246   27.0616   48.4667 H   0  0  0  0  0  0  0  0  0  0  0  0
  1  2  2  0
  2  3  1  0
  4  3  2  0
  5  4  1  0
  6  1  1  0
  6  5  2  0
  7  1  1  0
  8  9  2  0
  9 10  1  1
  9  7  1  0
 11  9  1  0
  2 12  1  0
  3 13  1  0
  5 14  1  0
 11 15  1  0
 16 17  2  0
 17 18  1  0
 17 19  1  0
 19 20  2  0
 20 21  1  0
 21 22  2  0
 22 23  1  0
 23 24  2  0
 24 25  1  0
 25 26  2  0
 26 16  1  0
 26 21  1  0
 19 27  1  0
 20 28  1  0
 22 29  1  0
 23 30  1  0
 24 31  1  0
 25 32  1  0
 10 16  1  0
M  ISO  5  12  14  13  14  14  14  15   3  18  15
M  END
>  <DihAtoms>  (1) 
8,9,15,16

>  <DihDeg>  (1) 
0.0004545261895076337

$$$$
