
     RDKit          3D

 28 30  0  0  0  0  0  0  0  0999 V2000
   37.3586   30.2259   51.3671 C   0  0  0  0  0  0  0  0  0  0  0  0
   38.0559   30.7485   50.2542 C   0  0  0  0  0  0  0  0  0  0  0  0
   37.5844   30.3976   48.9972 C   0  0  0  0  0  0  0  0  0  0  0  0
   36.4889   29.5790   48.9193 N   0  0  0  0  0  0  0  0  0  0  0  0
   35.8572   29.1054   49.9931 C   0  0  0  0  0  0  0  0  0  0  0  0
   36.2772   29.4178   51.2191 N   0  0  0  0  0  0  0  0  0  0  0  0
   38.2559   30.8996   47.7996 C   0  0  0  0  0  0  0  0  0  0  0  0
   38.9809   31.9371   47.8124 O   0  0  0  0  0  0  0  0  0  0  0  0
   37.7305   30.5028   52.3311 H   0  0  0  0  0  0  0  0  0  0  0  0
   38.9034   31.3819   50.3326 H   0  0  0  0  0  0  0  0  0  0  0  0
   34.9951   28.4611   49.9459 H   0  0  0  0  0  0  0  0  0  0  0  0
   38.0183   30.0979   46.5796 C   0  0  0  0  0  0  0  0  0  0  0  0
   38.7257   28.8916   46.5044 C   0  0  0  0  0  0  0  0  0  0  0  0
   39.3983   28.5984   47.3252 H   0  0  0  0  0  0  0  0  0  0  0  0
   38.6575   28.0075   45.4661 C   0  0  0  0  0  0  0  0  0  0  0  0
   37.8351   28.3162   44.4104 C   0  0  0  0  0  0  0  0  0  0  0  0
   37.1279   29.4985   44.4614 C   0  0  0  0  0  0  0  0  0  0  0  0
   36.2655   29.8997   43.4393 C   0  0  0  0  0  0  0  0  0  0  0  0
   35.5539   31.0812   43.4853 C   0  0  0  0  0  0  0  0  0  0  0  0
   35.6776   31.9271   44.5771 C   0  0  0  0  0  0  0  0  0  0  0  0
   36.5194   31.5710   45.6119 C   0  0  0  0  0  0  0  0  0  0  0  0
   37.2051   30.3824   45.5145 C   0  0  0  0  0  0  0  0  0  0  0  0
   39.2244   27.0901   45.4572 H   0  0  0  0  0  0  0  0  0  0  0  0
   37.7046   27.6908   43.5381 H   0  0  0  0  0  0  0  0  0  0  0  0
   36.1386   29.2680   42.5662 H   0  0  0  0  0  0  0  0  0  0  0  0
   34.8995   31.3582   42.6810 H   0  0  0  0  0  0  0  0  0  0  0  0
   35.0974   32.8388   44.5609 H   0  0  0  0  0  0  0  0  0  0  0  0
   36.5979   32.2306   46.4377 H   0  0  0  0  0  0  0  0  0  0  0  0
  2  1  2  0
  3  2  1  0
  4  3  2  0
  4  5  1  0
  5  6  2  0
  6  1  1  0
  7  3  1  0
  8  7  2  0
  1  9  1  0
  2 10  1  0
  5 11  1  0
 12 13  2  0
 13 14  1  0
 13 15  1  0
 15 16  2  0
 16 17  1  0
 17 18  2  0
 18 19  1  0
 19 20  2  0
 20 21  1  0
 21 22  2  0
 22 12  1  0
 22 17  1  0
 15 23  1  0
 16 24  1  0
 18 25  1  0
 19 26  1  0
 20 27  1  0
 21 28  1  0
  7 12  1  0
M  ISO  4   9  14  10  14  11  14  14  15
M  END
>  <DihAtoms>  (1) 
2,6,11,12

>  <DihDeg>  (1) 
-46.003963928283696

$$$$
