REMARK  Name = 
REMARK  4 active torsions:
REMARK  status: ('A' for Active; 'I' for Inactive)
REMARK    1  A    between atoms: C_3  and  C_7
REMARK    2  A    between atoms: C_7  and  C_8
REMARK    3  A    between atoms: C_8  and  S_9
REMARK    4  A    between atoms: S_9  and  C_17
REMARK                            x       y       z     vdW  Elec       q    Type
REMARK                         _______ _______ _______ _____ _____    ______ ____
ROOT
ATOM      1  C   UNL     1      38.733  31.858  48.132  0.00  0.00    +0.000 C 
ATOM      2  H   UNL     1      39.088  32.218  47.120  0.00  0.00    +0.000 HD
ATOM      3  H   UNL     1      39.550  31.216  48.484  0.00  0.00    +0.000 HD
ENDROOT
BRANCH   1   4
ATOM      4  C   UNL     1      37.438  31.149  47.843  0.00  0.00    +0.000 C 
ATOM      5  H   UNL     1      36.711  31.941  47.560  0.00  0.00    +0.000 HD
ATOM      6  H   UNL     1      37.496  30.485  46.962  0.00  0.00    +0.000 HD
BRANCH   4   9
ATOM      7  C   UNL     1      37.060  29.426  51.176  0.00  0.00    +0.000 A 
ATOM      8  C   UNL     1      37.685  30.032  50.097  0.00  0.00    +0.000 A 
ATOM      9  C   UNL     1      36.915  30.486  49.053  0.00  0.00    +0.000 A 
ATOM     10  N   UNL     1      35.550  30.311  49.145  0.00  0.00    +0.000 NA
ATOM     11  C   UNL     1      34.959  29.721  50.198  0.00  0.00    +0.000 A 
ATOM     12  N   UNL     1      35.726  29.280  51.213  0.00  0.00    +0.000 NA
ATOM     13  H   UNL     1      37.718  29.088  51.968  0.00  0.00    +0.000 HD
ATOM     14  H   UNL     1      38.756  30.163  50.040  0.00  0.00    +0.000 HD
ATOM     15  H   UNL     1      33.875  29.627  50.181  0.00  0.00    +0.000 HD
ENDBRANCH   4   9
ENDBRANCH   1   4
BRANCH   1  16
ATOM     16  S   UNL     1      38.487  33.340  49.120  0.00  0.00    +0.000 S 
BRANCH  16  17
ATOM     17  C   UNL     1      40.089  34.106  49.405  0.00  0.00    +0.000 A 
ATOM     18  C   UNL     1      40.980  34.234  48.340  0.00  0.00    +0.000 A 
ATOM     19  H   UNL     1      40.711  33.876  47.349  0.00  0.00    +0.000 HD
ATOM     20  C   UNL     1      42.224  34.825  48.546  0.00  0.00    +0.000 A 
ATOM     21  C   UNL     1      42.590  35.289  49.797  0.00  0.00    +0.000 A 
ATOM     22  C   UNL     1      41.716  35.161  50.836  0.00  0.00    +0.000 A 
ATOM     23  C   UNL     1      42.055  35.617  52.103  0.00  0.00    +0.000 A 
ATOM     24  C   UNL     1      41.137  35.469  53.133  0.00  0.00    +0.000 A 
ATOM     25  C   UNL     1      39.889  34.882  52.953  0.00  0.00    +0.000 A 
ATOM     26  C   UNL     1      39.559  34.430  51.684  0.00  0.00    +0.000 A 
ATOM     27  C   UNL     1      40.482  34.578  50.642  0.00  0.00    +0.000 A 
ENDBRANCH  16  17
ENDBRANCH   1  16
TORSDOF 4
