REMARK  Name = 
REMARK  3 active torsions:
REMARK  status: ('A' for Active; 'I' for Inactive)
REMARK    1  A    between atoms: C_1  and  C_8
REMARK    2  A    between atoms: C_3  and  N_12
REMARK    3  A    between atoms: C_10  and  C_21
REMARK                            x       y       z     vdW  Elec       q    Type
REMARK                         _______ _______ _______ _____ _____    ______ ____
ROOT
ATOM      1  C   UNL     1      38.365  30.578  47.092  0.00  0.00    +0.000 C 
ATOM      2  C   UNL     1      36.974  30.548  47.522  0.00  0.00    +0.000 C 
ATOM      3  C   UNL     1      38.087  31.126  48.414  0.00  0.00    +0.000 C 
ATOM      4  H   UNL     1      38.990  29.636  47.129  0.00  0.00    +0.000 HD
ATOM      5  H   UNL     1      36.568  29.578  47.868  0.00  0.00    +0.000 HD
ATOM      6  H   UNL     1      36.244  31.266  47.074  0.00  0.00    +0.000 HD
ATOM      7  H   UNL     1      37.862  32.176  48.658  0.00  0.00    +0.000 HD
ENDROOT
BRANCH   1  12
ATOM      8  C   UNL     1      40.611  32.697  45.036  0.00  0.00    +0.000 A 
ATOM      9  C   UNL     1      39.717  33.185  44.047  0.00  0.00    +0.000 A 
ATOM     10  C   UNL     1      38.341  32.777  44.094  0.00  0.00    +0.000 A 
ATOM     11  N   UNL     1      37.981  31.937  45.102  0.00  0.00    +0.000 NA
ATOM     12  C   UNL     1      38.872  31.496  46.025  0.00  0.00    +0.000 A 
ATOM     13  N   UNL     1      40.171  31.859  46.009  0.00  0.00    +0.000 NA
ATOM     14  H   UNL     1      41.637  33.040  44.949  0.00  0.00    +0.000 HD
ATOM     15  H   UNL     1      40.066  33.860  43.261  0.00  0.00    +0.000 HD
ATOM     16  H   UNL     1      37.701  33.160  43.339  0.00  0.00    +0.000 HD
ENDBRANCH   1  12
BRANCH   3  19
ATOM     17  C   UNL     1      37.684  30.512  50.772  0.00  0.00    +0.000 C 
ATOM     18  O   UNL     1      36.768  31.377  50.810  0.00  0.00    +0.000 OA
ATOM     19  N   UNL     1      38.403  30.277  49.569  0.00  0.00    +0.000 N 
ATOM     20  H   UNL     1      39.115  29.495  49.618  0.00  0.00    +0.000 HD
BRANCH  17  21
ATOM     21  C   UNL     1      37.869  29.846  52.054  0.00  0.00    +0.000 A 
ATOM     22  C   UNL     1      37.362  30.604  53.117  0.00  0.00    +0.000 A 
ATOM     23  H   UNL     1      36.887  31.567  53.023  0.00  0.00    +0.000 HD
ATOM     24  C   UNL     1      37.437  30.151  54.422  0.00  0.00    +0.000 A 
ATOM     25  C   UNL     1      38.019  28.927  54.726  0.00  0.00    +0.000 A 
ATOM     26  C   UNL     1      38.520  28.184  53.651  0.00  0.00    +0.000 A 
ATOM     27  C   UNL     1      39.109  26.968  53.864  0.00  0.00    +0.000 A 
ATOM     28  C   UNL     1      39.610  26.226  52.789  0.00  0.00    +0.000 A 
ATOM     29  C   UNL     1      39.513  26.722  51.483  0.00  0.00    +0.000 A 
ATOM     30  C   UNL     1      38.913  27.962  51.258  0.00  0.00    +0.000 A 
ATOM     31  C   UNL     1      38.444  28.637  52.355  0.00  0.00    +0.000 A 
ENDBRANCH  17  21
ENDBRANCH   3  19
TORSDOF 3
