
 OpenBabel03272508573D

 42 46  0  0  1  0  0  0  0  0999 V2000
   39.1180   31.5100   43.2980 C   0  0  0  0  0  0  0  0  0  0  0  0
   40.1550   30.6100   43.4520 C   0  0  0  0  0  0  0  0  0  0  0  0
   40.8600   30.2580   42.3170 C   0  0  0  0  0  0  0  0  0  0  0  0
   40.5040   30.8060   41.1160 C   0  0  0  0  0  0  0  0  0  0  0  0
   39.4500   31.7180   40.9650 C   0  0  0  0  0  0  0  0  0  0  0  0
   38.7870   32.0370   42.0940 N   0  0  0  0  0  0  0  0  0  0  0  0
   40.4430   30.1720   44.3990 H   0  0  0  0  0  0  0  0  0  0  0  0
   41.6870   29.5700   42.3050 H   0  0  0  0  0  0  0  0  0  0  0  0
   41.0260   30.5600   40.2080 H   0  0  0  0  0  0  0  0  0  0  0  0
   38.3480   31.9060   44.4950 C   0  0  0  0  0  0  0  0  0  0  0  0
   37.2520   32.4660   44.4020 O   0  0  0  0  0  0  0  0  0  0  0  0
   38.9280   31.6150   45.7890 N   0  0  0  0  0  0  0  0  0  0  0  0
   39.9130   31.3320   45.9220 H   0  0  0  0  0  0  0  0  0  0  0  0
   38.4400   31.0910   48.1740 C   0  0  2  0  0  0  0  0  0  0  0  0
   38.6930   32.5540   48.0960 C   0  0  0  0  0  0  0  0  0  0  0  0
   38.0720   31.7280   46.9510 C   0  0  1  0  0  0  0  0  0  0  0  0
   39.3470   30.4550   48.2390 H   0  0  0  0  0  0  0  0  0  0  0  0
   39.7210   32.8900   47.9820 H   0  0  0  0  0  0  0  0  0  0  0  0
   38.0340   33.2270   48.6760 H   0  0  0  0  0  0  0  0  0  0  0  0
   37.0110   31.9990   46.7700 H   0  0  0  0  0  0  0  0  0  0  0  0
   35.0770   30.2260   49.5030 C   0  0  0  0  0  0  0  0  0  0  0  0
   35.4110   29.5500   50.7080 C   0  0  0  0  0  0  0  0  0  0  0  0
   36.8090   29.4080   51.0590 C   0  0  0  0  0  0  0  0  0  0  0  0
   37.7540   29.9280   50.2180 N   0  0  0  0  0  0  0  0  0  0  0  0
   37.3560   30.5630   49.0830 C   0  0  0  0  0  0  0  0  0  0  0  0
   36.0330   30.7310   48.6910 N   0  0  0  0  0  0  0  0  0  0  0  0
   34.0340   30.2960   49.3050 H   0  0  0  0  0  0  0  0  0  0  0  0
   34.6980   29.1380   51.3740 H   0  0  0  0  0  0  0  0  0  0  0  0
   37.0580   28.8980   51.9680 H   0  0  0  0  0  0  0  0  0  0  0  0
   39.0940   32.2630   39.6670 C   0  0  0  0  0  0  0  0  0  0  0  0
   39.0510   33.5070   39.5160 O   0  0  0  0  0  0  0  0  0  0  0  0
   38.7610   31.5690   38.4360 C   0  0  0  0  0  0  0  0  0  0  0  0
   39.7620   31.3660   37.4800 C   0  0  0  0  0  0  0  0  0  0  0  0
   40.7590   31.7630   37.7140 H   0  0  0  0  0  0  0  0  0  0  0  0
   39.6040   30.7130   36.2760 C   0  0  0  0  0  3  0  0  0  0  0  0
   38.3510   30.2140   35.9830 C   0  0  0  0  0  3  0  0  0  0  0  0
   37.3250   30.3850   36.8880 C   0  0  0  0  0  0  0  0  0  0  0  0
   36.0710   29.8930   36.5980 C   0  0  0  0  0  3  0  0  0  0  0  0
   35.0270   30.0620   37.4990 C   0  0  0  0  0  3  0  0  0  0  0  0
   35.2480   30.7330   38.7050 C   0  0  0  0  0  3  0  0  0  0  0  0
   36.5100   31.2120   38.9630 C   0  0  0  0  0  3  0  0  0  0  0  0
   37.5370   31.0460   38.0790 C   0  0  0  0  0  0  0  0  0  0  0  0
  1  2  1  0  0  0  0
  1 10  1  0  0  0  0
  2  7  1  0  0  0  0
  3  2  2  0  0  0  0
  4  3  1  0  0  0  0
  5  4  2  0  0  0  0
  5  6  1  0  0  0  0
  6  1  2  0  0  0  0
  8  3  1  0  0  0  0
  9  4  1  0  0  0  0
 10 12  1  0  0  0  0
 11 10  2  0  0  0  0
 12 13  1  0  0  0  0
 12 16  1  0  0  0  0
 14 17  1  6  0  0  0
 14 25  1  0  0  0  0
 15 14  1  0  0  0  0
 15 19  1  0  0  0  0
 16 20  1  6  0  0  0
 16 15  1  0  0  0  0
 16 14  1  0  0  0  0
 18 15  1  0  0  0  0
 21 22  1  0  0  0  0
 22 23  2  0  0  0  0
 22 28  1  0  0  0  0
 23 29  1  0  0  0  0
 24 23  1  0  0  0  0
 25 24  2  0  0  0  0
 26 25  1  0  0  0  0
 26 21  2  0  0  0  0
 27 21  1  0  0  0  0
 30  5  1  0  0  0  0
 31 30  2  0  0  0  0
 32 30  1  0  0  0  0
 33 34  1  0  0  0  0
 33 32  2  0  0  0  0
 35 33  1  0  0  0  0
 36 35  2  0  0  0  0
 36 37  1  0  0  0  0
 37 42  1  0  0  0  0
 38 37  2  0  0  0  0
 38 39  1  0  0  0  0
 39 40  2  0  0  0  0
 40 41  1  0  0  0  0
 42 32  1  0  0  0  0
 42 41  2  0  0  0  0
M  END
>  <minimizedAffinity>
-4.89090538

>  <minimizedRMSD>
1.68722439

$$$$
