
 OpenBabel03272506443D

 34 37  0  0  1  0  0  0  0  0999 V2000
   32.3210   28.2050   47.6680 C   0  0  2  0  0  0  0  0  0  0  0  0
   33.6300   28.2350   48.4410 C   0  0  1  0  0  0  0  0  0  0  0  0
   34.2050   27.0040   48.3430 O   0  0  0  0  0  0  0  0  0  0  0  0
   33.4960   26.2440   47.4370 C   0  0  0  0  0  0  0  0  0  0  0  0
   32.7150   27.2370   46.5580 C   0  0  1  0  0  0  0  0  0  0  0  0
   31.5060   27.7900   48.2820 H   0  0  0  0  0  0  0  0  0  0  0  0
   33.4070   28.5640   49.4730 H   0  0  0  0  0  0  0  0  0  0  0  0
   34.2340   25.7290   46.7880 H   0  0  0  0  0  0  0  0  0  0  0  0
   32.8000   25.5460   47.9310 H   0  0  0  0  0  0  0  0  0  0  0  0
   33.4020   27.7720   45.9020 H   0  0  0  0  0  0  0  0  0  0  0  0
   32.0090   29.4630   47.1600 O   0  0  0  0  0  0  0  0  0  0  0  0
   31.4300   29.9380   47.8030 H   0  0  0  0  0  0  0  0  0  0  0  0
   34.7050   29.4320   47.5890 S   0  0  0  0  0  0  0  0  0  0  0  0
   37.3720   29.4690   50.5140 C   0  0  0  0  0  0  0  0  0  0  0  0
   37.9650   30.7240   50.4590 C   0  0  0  0  0  0  0  0  0  0  0  0
   37.5210   31.6050   49.4710 C   0  0  0  0  0  0  0  0  0  0  0  0
   36.5390   31.1940   48.6190 N   0  0  0  0  0  0  0  0  0  0  0  0
   35.9920   29.9560   48.7140 C   0  0  0  0  0  0  0  0  0  0  0  0
   36.3990   29.0900   49.6530 N   0  0  0  0  0  0  0  0  0  0  0  0
   37.7490   28.8260   51.2940 H   0  0  0  0  0  0  0  0  0  0  0  0
   38.7450   31.0460   51.1380 H   0  0  0  0  0  0  0  0  0  0  0  0
   37.9240   32.6120   49.3460 H   0  0  0  0  0  0  0  0  0  0  0  0
   31.6330   26.6110   46.0000 O   0  0  0  0  0  0  0  0  0  0  0  0
   31.1840   26.8880   44.7200 C   0  0  0  0  0  0  0  0  0  0  0  0
   30.7270   28.0620   44.1640 C   0  0  0  0  0  0  0  0  0  0  0  0
   30.7270   28.8880   44.8590 H   0  0  0  0  0  0  0  0  0  0  0  0
   30.3230   28.1180   42.8480 C   0  0  0  0  0  3  0  0  0  0  0  0
   30.3570   27.0210   42.0390 C   0  0  0  0  0  3  0  0  0  0  0  0
   30.8120   25.8170   42.5620 C   0  0  0  0  0  0  0  0  0  0  0  0
   30.8200   24.7590   41.7010 C   0  0  0  0  0  3  0  0  0  0  0  0
   31.2630   23.5390   42.1680 C   0  0  0  0  0  3  0  0  0  0  0  0
   31.6800   23.4190   43.4770 C   0  0  0  0  0  3  0  0  0  0  0  0
   31.6490   24.5230   44.2990 C   0  0  0  0  0  3  0  0  0  0  0  0
   31.2190   25.7630   43.8930 C   0  0  0  0  0  0  0  0  0  0  0  0
  1  6  1  1  0  0  0
  1  2  1  0  0  0  0
  2  7  1  1  0  0  0
  3  2  1  0  0  0  0
  4  9  1  0  0  0  0
  4  3  1  0  0  0  0
  5 10  1  6  0  0  0
  5  4  1  0  0  0  0
  5  1  1  0  0  0  0
  8  4  1  0  0  0  0
 11  1  1  0  0  0  0
 11 12  1  0  0  0  0
 13  2  1  0  0  0  0
 13 18  1  0  0  0  0
 14 20  1  0  0  0  0
 15 14  1  0  0  0  0
 15 21  1  0  0  0  0
 16 15  2  0  0  0  0
 17 18  2  0  0  0  0
 17 16  1  0  0  0  0
 18 19  1  0  0  0  0
 19 14  2  0  0  0  0
 22 16  1  0  0  0  0
 23  5  1  0  0  0  0
 24 23  1  0  0  0  0
 25 24  1  0  0  0  0
 25 26  1  0  0  0  0
 27 25  2  0  0  0  0
 28 29  2  0  0  0  0
 28 27  1  0  0  0  0
 29 34  1  0  0  0  0
 30 31  2  0  0  0  0
 30 29  1  0  0  0  0
 31 32  1  0  0  0  0
 32 33  2  0  0  0  0
 34 33  1  0  0  0  0
 34 24  2  0  0  0  0
M  END
>  <minimizedAffinity>
-3.76981974

>  <minimizedRMSD>
1.25878954

$$$$
