
 OpenBabel03272501193D

 32 35  0  0  0  0  0  0  0  0999 V2000
   38.7610   31.6380   47.6850 C   0  0  0  0  0  0  0  0  0  0  0  0
   38.3070   31.9660   48.9570 C   0  0  0  0  0  0  0  0  0  0  0  0
   38.6900   33.2370   49.3820 C   0  0  0  0  0  0  0  0  0  0  0  0
   39.4610   34.0890   48.5840 C   0  0  0  0  0  0  0  0  0  0  0  0
   39.8630   33.6610   47.3240 C   0  0  0  0  0  0  0  0  0  0  0  0
   39.5040   32.4050   46.8630 C   0  0  0  0  0  0  0  0  0  0  0  0
   38.3980   33.6110   50.3580 H   0  0  0  0  0  0  0  0  0  0  0  0
   39.7290   35.0660   48.9690 H   0  0  0  0  0  0  0  0  0  0  0  0
   40.4620   34.3090   46.6920 H   0  0  0  0  0  0  0  0  0  0  0  0
   36.1680   30.8680   49.4480 C   0  0  0  0  0  0  0  0  0  0  0  0
   37.5220   31.1090   49.7760 C   0  0  0  0  0  0  0  0  0  0  0  0
   38.0260   30.4830   50.9070 C   0  0  0  0  0  0  0  0  0  0  0  0
   37.1970   29.6760   51.6330 N   0  0  0  0  0  0  0  0  0  0  0  0
   35.8980   29.4760   51.2740 C   0  0  0  0  0  0  0  0  0  0  0  0
   35.3820   30.0730   50.1790 N   0  0  0  0  0  0  0  0  0  0  0  0
   35.7730   31.3610   48.5600 H   0  0  0  0  0  0  0  0  0  0  0  0
   39.0580   30.6350   51.2020 H   0  0  0  0  0  0  0  0  0  0  0  0
   35.2500   28.8330   51.8580 H   0  0  0  0  0  0  0  0  0  0  0  0
   38.4210   30.3640   47.1710 O   0  0  0  0  0  0  0  0  0  0  0  0
   39.1050   29.7630   46.7400 H   0  0  0  0  0  0  0  0  0  0  0  0
   39.9270   32.0330   45.6130 O   0  0  0  0  0  0  0  0  0  0  0  0
   39.0570   32.0270   44.5610 C   0  0  0  0  0  0  0  0  0  0  0  0
   37.8370   32.6370   44.3630 C   0  0  0  0  0  0  0  0  0  0  0  0
   37.5200   33.2380   45.2020 H   0  0  0  0  0  0  0  0  0  0  0  0
   37.1080   32.4970   43.2030 C   0  0  0  0  0  0  0  0  0  0  0  0
   37.5660   31.7240   42.1560 C   0  0  0  0  0  0  0  0  0  0  0  0
   38.7990   31.0960   42.3290 C   0  0  0  0  0  0  0  0  0  0  0  0
   39.2060   30.3410   41.2550 C   0  0  0  0  0  0  0  0  0  0  0  0
   40.4000   29.6850   41.3270 C   0  0  0  0  0  0  0  0  0  0  0  0
   41.1670   29.7910   42.4630 C   0  0  0  0  0  0  0  0  0  0  0  0
   40.7290   30.5540   43.5120 C   0  0  0  0  0  0  0  0  0  0  0  0
   39.5320   31.2420   43.5040 C   0  0  0  0  0  0  0  0  0  0  0  0
  1  2  1  0  0  0  0
  2  3  2  0  0  0  0
  2 11  1  0  0  0  0
  3  7  1  0  0  0  0
  4  8  1  0  0  0  0
  4  3  1  0  0  0  0
  5  4  2  0  0  0  0
  6  5  1  0  0  0  0
  6  1  2  0  0  0  0
  9  5  1  0  0  0  0
 10 11  2  0  0  0  0
 10 15  1  0  0  0  0
 11 12  1  0  0  0  0
 12 17  1  0  0  0  0
 12 13  2  0  0  0  0
 14 13  1  0  0  0  0
 14 18  1  0  0  0  0
 15 14  2  0  0  0  0
 16 10  1  0  0  0  0
 19  1  1  0  0  0  0
 20 19  1  0  0  0  0
 21  6  1  0  0  0  0
 22 21  1  0  0  0  0
 23 22  1  0  0  0  0
 23 24  1  0  0  0  0
 25 23  2  0  0  0  0
 26 27  2  0  0  0  0
 26 25  1  0  0  0  0
 27 32  1  0  0  0  0
 28 29  2  0  0  0  0
 28 27  1  0  0  0  0
 29 30  1  0  0  0  0
 30 31  2  0  0  0  0
 32 31  1  0  0  0  0
 32 22  2  0  0  0  0
M  END
>  <minimizedAffinity>
-6.62001991

>  <minimizedRMSD>
0.507452905

$$$$
