
 OpenBabel03272503493D

 39 42  0  0  1  0  0  0  0  0999 V2000
   33.2550   27.2200   45.8370 C   0  0  1  0  0  0  0  0  0  0  0  0
   33.8860   27.4370   47.2300 C   0  0  2  0  0  0  0  0  0  0  0  0
   33.6970   26.2500   47.8600 O   0  0  0  0  0  0  0  0  0  0  0  0
   34.0760   25.3020   46.9220 C   0  0  0  0  0  0  0  0  0  0  0  0
   33.6780   25.8020   45.5490 C   0  0  2  0  0  0  0  0  0  0  0  0
   33.6900   27.9540   45.1290 H   0  0  0  0  0  0  0  0  0  0  0  0
   34.9460   27.6870   46.9970 H   0  0  0  0  0  0  0  0  0  0  0  0
   35.1410   25.0220   46.9810 H   0  0  0  0  0  0  0  0  0  0  0  0
   33.4810   24.3850   47.1200 H   0  0  0  0  0  0  0  0  0  0  0  0
   32.8160   25.2390   45.1470 H   0  0  0  0  0  0  0  0  0  0  0  0
   31.8900   27.4160   45.8910 O   0  0  0  0  0  0  0  0  0  0  0  0
   31.5940   28.0530   45.1900 H   0  0  0  0  0  0  0  0  0  0  0  0
   33.2140   28.5180   47.7420 O   0  0  0  0  0  0  0  0  0  0  0  0
   35.3190   29.7840   46.7650 O   0  0  0  0  0  0  0  0  0  0  0  0
   34.0490   29.9720   47.5910 P   0  0  1  0  0  0  0  0  0  0  0  0
   33.1210   31.0880   46.7180 O   0  0  0  0  0  0  0  0  0  0  0  0
   32.3870   31.3620   47.3520 H   0  0  0  0  0  0  0  0  0  0  0  0
   34.3450   30.5390   49.1730 O   0  0  0  0  0  0  0  0  0  0  0  0
   35.6010   30.4490   49.7570 C   0  0  0  0  0  0  0  0  0  0  0  0
   36.0020   29.4180   50.6400 C   0  0  0  0  0  0  0  0  0  0  0  0
   37.2940   29.4630   51.1450 C   0  0  0  0  0  0  0  0  0  0  0  0
   38.1130   30.4980   50.7660 N   0  0  0  0  0  0  0  0  0  0  0  0
   37.6990   31.4720   49.9170 C   0  0  0  0  0  0  0  0  0  0  0  0
   36.4380   31.4510   49.4090 N   0  0  0  0  0  0  0  0  0  0  0  0
   35.2800   28.6730   50.8560 H   0  0  0  0  0  0  0  0  0  0  0  0
   37.5930   28.6890   51.8070 H   0  0  0  0  0  0  0  0  0  0  0  0
   38.3550   32.2790   49.6290 H   0  0  0  0  0  0  0  0  0  0  0  0
   34.7560   25.7770   44.7060 O   0  0  0  0  0  0  0  0  0  0  0  0
   35.4280   24.6220   44.4000 C   0  0  0  0  0  0  0  0  0  0  0  0
   36.1660   23.7630   45.1590 C   0  0  0  0  0  0  0  0  0  0  0  0
   36.2520   24.0210   46.1990 H   0  0  0  0  0  0  0  0  0  0  0  0
   36.7760   22.6330   44.6680 C   0  0  0  0  0  3  0  0  0  0  0  0
   36.6700   22.2950   43.3350 C   0  0  0  0  0  3  0  0  0  0  0  0
   35.9200   23.1560   42.5330 C   0  0  0  0  0  0  0  0  0  0  0  0
   35.8470   22.7710   41.2100 C   0  0  0  0  0  3  0  0  0  0  0  0
   35.1300   23.5520   40.3370 C   0  0  0  0  0  3  0  0  0  0  0  0
   34.5080   24.6900   40.7950 C   0  0  0  0  0  3  0  0  0  0  0  0
   34.6020   25.0450   42.1230 C   0  0  0  0  0  3  0  0  0  0  0  0
   35.3070   24.2990   43.0440 C   0  0  0  0  0  0  0  0  0  0  0  0
  1  6  1  6  0  0  0
  1 11  1  0  0  0  0
  1  2  1  0  0  0  0
  2  7  1  6  0  0  0
  2 13  1  0  0  0  0
  2  3  1  0  0  0  0
  4  8  1  0  0  0  0
  4  9  1  0  0  0  0
  4  3  1  0  0  0  0
  5 10  1  6  0  0  0
  5  1  1  0  0  0  0
  5  4  1  0  0  0  0
 12 11  1  0  0  0  0
 15 14  2  6  0  0  0
 15 13  1  0  0  0  0
 15 18  1  0  0  0  0
 16 17  1  0  0  0  0
 16 15  1  0  0  0  0
 18 19  1  0  0  0  0
 19 20  1  0  0  0  0
 20 25  1  0  0  0  0
 20 21  2  0  0  0  0
 21 26  1  0  0  0  0
 22 21  1  0  0  0  0
 23 22  2  0  0  0  0
 24 19  2  0  0  0  0
 24 23  1  0  0  0  0
 27 23  1  0  0  0  0
 28  5  1  0  0  0  0
 29 28  1  0  0  0  0
 29 30  1  0  0  0  0
 30 31  1  0  0  0  0
 32 30  2  0  0  0  0
 33 32  1  0  0  0  0
 34 39  1  0  0  0  0
 34 33  2  0  0  0  0
 35 34  1  0  0  0  0
 36 37  1  0  0  0  0
 36 35  2  0  0  0  0
 37 38  2  0  0  0  0
 38 39  1  0  0  0  0
 39 29  2  0  0  0  0
M  END
>  <minimizedAffinity>
-4.27829647

>  <minimizedRMSD>
2.50969744

$$$$
