
     RDKit          3D

 28 30  0  0  0  0  0  0  0  0999 V2000
   37.3586   30.2259   51.3671 C   0  0  0  0  0  0  0  0  0  0  0  0
   38.0559   30.7485   50.2542 C   0  0  0  0  0  0  0  0  0  0  0  0
   37.5844   30.3976   48.9972 C   0  0  0  0  0  0  0  0  0  0  0  0
   36.4889   29.5790   48.9193 N   0  0  0  0  0  0  0  0  0  0  0  0
   35.8572   29.1054   49.9931 C   0  0  0  0  0  0  0  0  0  0  0  0
   36.2772   29.4178   51.2191 N   0  0  0  0  0  0  0  0  0  0  0  0
   38.2559   30.8996   47.7996 C   0  0  0  0  0  0  0  0  0  0  0  0
   38.9809   31.9371   47.8124 O   0  0  0  0  0  0  0  0  0  0  0  0
   37.7305   30.5028   52.3311 H   0  0  0  0  0  0  0  0  0  0  0  0
   38.9034   31.3819   50.3326 H   0  0  0  0  0  0  0  0  0  0  0  0
   34.9951   28.4611   49.9459 H   0  0  0  0  0  0  0  0  0  0  0  0
   38.0183   30.0979   46.5796 C   0  0  0  0  0  0  0  0  0  0  0  0
   38.9453   29.0758   46.3407 C   0  0  0  0  0  0  0  0  0  0  0  0
   39.7761   28.9136   47.0445 H   0  0  0  0  0  0  0  0  0  0  0  0
   38.9151   28.2255   45.2727 C   0  0  0  0  0  0  0  0  0  0  0  0
   37.9021   28.3765   44.3577 C   0  0  0  0  0  0  0  0  0  0  0  0
   36.9769   29.3760   44.5713 C   0  0  0  0  0  0  0  0  0  0  0  0
   35.9107   29.6078   43.7002 C   0  0  0  0  0  0  0  0  0  0  0  0
   34.9806   30.6056   43.9094 C   0  0  0  0  0  0  0  0  0  0  0  0
   35.0802   31.4292   45.0206 C   0  0  0  0  0  0  0  0  0  0  0  0
   36.1190   31.2366   45.9096 C   0  0  0  0  0  0  0  0  0  0  0  0
   37.0180   30.2276   45.6527 C   0  0  0  0  0  0  0  0  0  0  0  0
   39.6550   27.4531   45.1348 H   0  0  0  0  0  0  0  0  0  0  0  0
   37.7813   27.7610   43.4771 H   0  0  0  0  0  0  0  0  0  0  0  0
   35.7945   28.9868   42.8180 H   0  0  0  0  0  0  0  0  0  0  0  0
   34.1731   30.7555   43.2185 H   0  0  0  0  0  0  0  0  0  0  0  0
   34.3250   32.1938   45.1352 H   0  0  0  0  0  0  0  0  0  0  0  0
   36.1755   31.8756   46.7533 H   0  0  0  0  0  0  0  0  0  0  0  0
  2  1  2  0
  3  2  1  0
  4  3  2  0
  4  5  1  0
  5  6  2  0
  6  1  1  0
  7  3  1  0
  8  7  2  0
  1  9  1  0
  2 10  1  0
  5 11  1  0
 12 13  2  0
 13 14  1  0
 13 15  1  0
 15 16  2  0
 16 17  1  0
 17 18  2  0
 18 19  1  0
 19 20  2  0
 20 21  1  0
 21 22  2  0
 22 12  1  0
 22 17  1  0
 15 23  1  0
 16 24  1  0
 18 25  1  0
 19 26  1  0
 20 27  1  0
 21 28  1  0
  7 12  1  0
M  ISO  4   9  14  10  14  11  14  14  15
M  END
>  <DihAtoms>  (1) 
2,6,11,12

>  <DihDeg>  (1) 
-46.003963928283696

$$$$
