
 OpenBabel03262521153D

 21 23  0  0  0  0  0  0  0  0999 V2000
   38.9790   24.4380   35.6640 C   0  0  0  0  0  0  0  0  0  0  0  0
   37.9740   24.8210   36.5570 C   0  0  0  0  0  0  0  0  0  0  0  0
   37.1950   25.5410   36.3720 H   0  0  0  0  0  0  0  0  0  0  0  0
   37.9260   24.2450   37.8320 C   0  0  0  0  0  3  0  0  0  0  0  0
   38.8520   23.2960   38.2420 C   0  0  0  0  0  3  0  0  0  0  0  0
   39.8280   22.9430   37.3370 C   0  0  0  0  0  0  0  0  0  0  0  0
   40.8020   21.9950   37.6530 C   0  0  0  0  0  3  0  0  0  0  0  0
   41.7650   21.6720   36.6910 C   0  0  0  0  0  3  0  0  0  0  0  0
   41.8040   22.2470   35.4330 C   0  0  0  0  0  3  0  0  0  0  0  0
   40.8310   23.1860   35.1340 C   0  0  0  0  0  3  0  0  0  0  0  0
   39.8890   23.4930   36.0930 C   0  0  0  0  0  0  0  0  0  0  0  0
   38.8620   25.1110   34.4690 O   0  0  0  0  0  0  0  0  0  0  0  0
   37.9050   24.9550   33.4980 C   0  0  0  0  0  0  0  0  0  0  0  0
   37.7640   23.6130   33.1330 C   0  0  0  0  0  0  0  0  0  0  0  0
   36.8340   23.2650   32.1570 C   0  0  0  0  0  0  0  0  0  0  0  0
   36.1020   24.2640   31.6010 N   0  0  0  0  0  0  0  0  0  0  0  0
   36.2570   25.5640   31.9720 C   0  0  0  0  0  0  0  0  0  0  0  0
   37.1370   25.9050   32.8990 N   0  0  0  0  0  0  0  0  0  0  0  0
   38.3100   22.7830   33.5340 H   0  0  0  0  0  0  0  0  0  0  0  0
   36.6680   22.2490   31.8230 H   0  0  0  0  0  0  0  0  0  0  0  0
   35.6750   26.3660   31.5320 H   0  0  0  0  0  0  0  0  0  0  0  0
  1 11  2  0  0  0  0
  1  2  1  0  0  0  0
  2  4  2  0  0  0  0
  3  2  1  0  0  0  0
  4  5  1  0  0  0  0
  6  7  1  0  0  0  0
  6  5  2  0  0  0  0
  8  7  2  0  0  0  0
  9  8  1  0  0  0  0
 10  9  2  0  0  0  0
 10 11  1  0  0  0  0
 11  6  1  0  0  0  0
 12  1  1  0  0  0  0
 13 12  1  0  0  0  0
 14 13  1  0  0  0  0
 14 19  1  0  0  0  0
 15 14  2  0  0  0  0
 16 17  2  0  0  0  0
 16 15  1  0  0  0  0
 17 18  1  0  0  0  0
 18 13  2  0  0  0  0
 20 15  1  0  0  0  0
 21 17  1  0  0  0  0
M  END
>  <minimizedAffinity>
-4.95852375

$$$$

 OpenBabel03262521153D

 21 23  0  0  0  0  0  0  0  0999 V2000
   34.9870   30.5880   34.7330 C   0  0  0  0  0  0  0  0  0  0  0  0
   35.9430   31.5270   35.1310 C   0  0  0  0  0  0  0  0  0  0  0  0
   36.9020   31.6990   34.6720 H   0  0  0  0  0  0  0  0  0  0  0  0
   35.6840   32.3530   36.2310 C   0  0  0  0  0  3  0  0  0  0  0  0
   34.4970   32.2700   36.9450 C   0  0  0  0  0  3  0  0  0  0  0  0
   33.5780   31.3340   36.5250 C   0  0  0  0  0  0  0  0  0  0  0  0
   32.3530   31.1770   37.1740 C   0  0  0  0  0  3  0  0  0  0  0  0
   31.4570   30.2140   36.6980 C   0  0  0  0  0  3  0  0  0  0  0  0
   31.7230   29.4020   35.6090 C   0  0  0  0  0  3  0  0  0  0  0  0
   32.9430   29.5690   34.9750 C   0  0  0  0  0  3  0  0  0  0  0  0
   33.8150   30.5230   35.4570 C   0  0  0  0  0  0  0  0  0  0  0  0
   35.4230   29.8720   33.6410 O   0  0  0  0  0  0  0  0  0  0  0  0
   36.0250   28.6390   33.6190 C   0  0  0  0  0  0  0  0  0  0  0  0
   35.9420   28.0530   32.3530 C   0  0  0  0  0  0  0  0  0  0  0  0
   36.5020   26.7950   32.1440 C   0  0  0  0  0  0  0  0  0  0  0  0
   37.1070   26.1940   33.2010 N   0  0  0  0  0  0  0  0  0  0  0  0
   37.1750   26.7830   34.4250 C   0  0  0  0  0  0  0  0  0  0  0  0
   36.6470   27.9780   34.6330 N   0  0  0  0  0  0  0  0  0  0  0  0
   35.4800   28.4770   31.4850 H   0  0  0  0  0  0  0  0  0  0  0  0
   36.4780   26.2790   31.1930 H   0  0  0  0  0  0  0  0  0  0  0  0
   37.6570   26.3070   35.2710 H   0  0  0  0  0  0  0  0  0  0  0  0
  1  2  2  0  0  0  0
  1 11  1  0  0  0  0
  2  4  1  0  0  0  0
  3  2  1  0  0  0  0
  4  5  2  0  0  0  0
  6  5  1  0  0  0  0
  6  7  1  0  0  0  0
  8  7  2  0  0  0  0
  9  8  1  0  0  0  0
 10 11  1  0  0  0  0
 10  9  2  0  0  0  0
 11  6  2  0  0  0  0
 12  1  1  0  0  0  0
 13 12  1  0  0  0  0
 13 18  1  0  0  0  0
 14 13  2  0  0  0  0
 15 14  1  0  0  0  0
 15 16  2  0  0  0  0
 16 17  1  0  0  0  0
 17 18  2  0  0  0  0
 17 21  1  0  0  0  0
 19 14  1  0  0  0  0
 20 15  1  0  0  0  0
M  END
>  <minimizedAffinity>
-4.95442152

$$$$

 OpenBabel03262521153D

 21 23  0  0  0  0  0  0  0  0999 V2000
   38.1030   23.3490   34.9790 C   0  0  0  0  0  0  0  0  0  0  0  0
   37.9010   22.5990   36.1420 C   0  0  0  0  0  0  0  0  0  0  0  0
   37.7700   21.5320   36.2000 H   0  0  0  0  0  0  0  0  0  0  0  0
   37.8540   23.2470   37.3820 C   0  0  0  0  0  3  0  0  0  0  0  0
   38.0040   24.6220   37.4970 C   0  0  0  0  0  3  0  0  0  0  0  0
   38.2020   25.3280   36.3310 C   0  0  0  0  0  0  0  0  0  0  0  0
   38.3690   26.7140   36.3420 C   0  0  0  0  0  3  0  0  0  0  0  0
   38.5710   27.3770   35.1270 C   0  0  0  0  0  3  0  0  0  0  0  0
   38.6160   26.7280   33.9050 C   0  0  0  0  0  3  0  0  0  0  0  0
   38.4490   25.3520   33.9110 C   0  0  0  0  0  3  0  0  0  0  0  0
   38.2500   24.7140   35.1170 C   0  0  0  0  0  0  0  0  0  0  0  0
   38.1160   22.5400   33.8660 O   0  0  0  0  0  0  0  0  0  0  0  0
   37.0520   21.9400   33.2410 C   0  0  0  0  0  0  0  0  0  0  0  0
   36.7700   22.5500   32.0150 C   0  0  0  0  0  0  0  0  0  0  0  0
   35.7170   22.0700   31.2400 C   0  0  0  0  0  0  0  0  0  0  0  0
   35.0080   21.0180   31.7240 N   0  0  0  0  0  0  0  0  0  0  0  0
   35.3010   20.4410   32.9200 C   0  0  0  0  0  0  0  0  0  0  0  0
   36.2990   20.8880   33.6640 N   0  0  0  0  0  0  0  0  0  0  0  0
   37.2920   23.3790   31.5820 H   0  0  0  0  0  0  0  0  0  0  0  0
   35.4400   22.4900   30.2810 H   0  0  0  0  0  0  0  0  0  0  0  0
   34.7380   19.6010   33.3110 H   0  0  0  0  0  0  0  0  0  0  0  0
  1 11  2  0  0  0  0
  1  2  1  0  0  0  0
  2  3  1  0  0  0  0
  2  4  2  0  0  0  0
  4  5  1  0  0  0  0
  6  7  1  0  0  0  0
  6  5  2  0  0  0  0
  8  7  2  0  0  0  0
  9 10  2  0  0  0  0
  9  8  1  0  0  0  0
 10 11  1  0  0  0  0
 11  6  1  0  0  0  0
 12  1  1  0  0  0  0
 13 18  1  0  0  0  0
 13 12  1  0  0  0  0
 14 13  2  0  0  0  0
 15 16  2  0  0  0  0
 15 14  1  0  0  0  0
 16 17  1  0  0  0  0
 17 21  1  0  0  0  0
 17 18  2  0  0  0  0
 19 14  1  0  0  0  0
 20 15  1  0  0  0  0
M  END
>  <minimizedAffinity>
-4.9507494

$$$$

 OpenBabel03262521153D

 21 23  0  0  0  0  0  0  0  0999 V2000
   38.3310   25.2010   33.7270 C   0  0  0  0  0  0  0  0  0  0  0  0
   38.4510   26.5900   33.8200 C   0  0  0  0  0  0  0  0  0  0  0  0
   39.1270   27.1340   34.4580 H   0  0  0  0  0  0  0  0  0  0  0  0
   37.6350   27.4080   33.0290 C   0  0  0  0  0  3  0  0  0  0  0  0
   36.7030   26.8790   32.1460 C   0  0  0  0  0  3  0  0  0  0  0  0
   36.6130   25.5060   32.0810 C   0  0  0  0  0  0  0  0  0  0  0  0
   35.7110   24.8780   31.2210 C   0  0  0  0  0  3  0  0  0  0  0  0
   35.6680   23.4810   31.1940 C   0  0  0  0  0  3  0  0  0  0  0  0
   36.4790   22.6800   31.9800 C   0  0  0  0  0  3  0  0  0  0  0  0
   37.3700   23.3180   32.8290 C   0  0  0  0  0  3  0  0  0  0  0  0
   37.3990   24.6970   32.8430 C   0  0  0  0  0  0  0  0  0  0  0  0
   39.2100   24.5710   34.5780 O   0  0  0  0  0  0  0  0  0  0  0  0
   39.0070   24.1990   35.8840 C   0  0  0  0  0  0  0  0  0  0  0  0
   39.9800   23.2900   36.3130 C   0  0  0  0  0  0  0  0  0  0  0  0
   39.9320   22.8020   37.6150 C   0  0  0  0  0  0  0  0  0  0  0  0
   38.9250   23.2400   38.4140 N   0  0  0  0  0  0  0  0  0  0  0  0
   37.9880   24.1240   37.9750 C   0  0  0  0  0  0  0  0  0  0  0  0
   38.0260   24.5950   36.7390 N   0  0  0  0  0  0  0  0  0  0  0  0
   40.7950   22.9100   35.7310 H   0  0  0  0  0  0  0  0  0  0  0  0
   40.6490   22.0980   38.0180 H   0  0  0  0  0  0  0  0  0  0  0  0
   37.1830   24.4770   38.6090 H   0  0  0  0  0  0  0  0  0  0  0  0
  1  2  1  0  0  0  0
  1 12  1  0  0  0  0
  2  3  1  0  0  0  0
  4  2  2  0  0  0  0
  5  4  1  0  0  0  0
  6  5  2  0  0  0  0
  6 11  1  0  0  0  0
  7  6  1  0  0  0  0
  8  7  2  0  0  0  0
  8  9  1  0  0  0  0
  9 10  2  0  0  0  0
 10 11  1  0  0  0  0
 11  1  2  0  0  0  0
 12 13  1  0  0  0  0
 13 14  2  0  0  0  0
 13 18  1  0  0  0  0
 14 15  1  0  0  0  0
 15 20  1  0  0  0  0
 15 16  2  0  0  0  0
 17 16  1  0  0  0  0
 17 21  1  0  0  0  0
 18 17  2  0  0  0  0
 19 14  1  0  0  0  0
M  END
>  <minimizedAffinity>
-4.89350653

$$$$

 OpenBabel03262521153D

 21 23  0  0  0  0  0  0  0  0999 V2000
   36.2160   28.4650   33.7260 C   0  0  0  0  0  0  0  0  0  0  0  0
   35.8860   28.5760   32.3720 C   0  0  0  0  0  0  0  0  0  0  0  0
   35.0080   29.0480   31.9650 H   0  0  0  0  0  0  0  0  0  0  0  0
   36.7430   28.0390   31.4050 C   0  0  0  0  0  3  0  0  0  0  0  0
   37.9230   27.3930   31.7500 C   0  0  0  0  0  3  0  0  0  0  0  0
   38.2170   27.3020   33.0920 C   0  0  0  0  0  0  0  0  0  0  0  0
   39.3810   26.6770   33.5390 C   0  0  0  0  0  3  0  0  0  0  0  0
   39.6290   26.6190   34.9150 C   0  0  0  0  0  3  0  0  0  0  0  0
   38.7750   27.1540   35.8640 C   0  0  0  0  0  3  0  0  0  0  0  0
   37.6230   27.7720   35.4040 C   0  0  0  0  0  3  0  0  0  0  0  0
   37.3940   27.8190   34.0450 C   0  0  0  0  0  0  0  0  0  0  0  0
   35.2550   29.0490   34.5190 O   0  0  0  0  0  0  0  0  0  0  0  0
   35.0010   30.3860   34.6980 C   0  0  0  0  0  0  0  0  0  0  0  0
   35.9290   30.9700   35.5650 C   0  0  0  0  0  0  0  0  0  0  0  0
   35.8250   32.3260   35.8630 C   0  0  0  0  0  0  0  0  0  0  0  0
   34.8110   33.0210   35.2870 N   0  0  0  0  0  0  0  0  0  0  0  0
   33.9180   32.4310   34.4470 C   0  0  0  0  0  0  0  0  0  0  0  0
   34.0090   31.1430   34.1560 N   0  0  0  0  0  0  0  0  0  0  0  0
   36.7470   30.4760   36.0470 H   0  0  0  0  0  0  0  0  0  0  0  0
   36.5060   32.8480   36.5240 H   0  0  0  0  0  0  0  0  0  0  0  0
   33.1070   32.9810   33.9840 H   0  0  0  0  0  0  0  0  0  0  0  0
  1 11  1  0  0  0  0
  1 12  1  0  0  0  0
  2  1  2  0  0  0  0
  3  2  1  0  0  0  0
  4  5  2  0  0  0  0
  4  2  1  0  0  0  0
  5  6  1  0  0  0  0
  6  7  2  0  0  0  0
  6 11  1  0  0  0  0
  7  8  1  0  0  0  0
  8  9  2  0  0  0  0
 10  9  1  0  0  0  0
 11 10  2  0  0  0  0
 12 13  1  0  0  0  0
 13 14  1  0  0  0  0
 14 15  2  0  0  0  0
 14 19  1  0  0  0  0
 15 20  1  0  0  0  0
 16 15  1  0  0  0  0
 17 16  2  0  0  0  0
 18 17  1  0  0  0  0
 18 13  2  0  0  0  0
 21 17  1  0  0  0  0
M  END
>  <minimizedAffinity>
-4.88742304

$$$$

 OpenBabel03262521153D

 21 23  0  0  0  0  0  0  0  0999 V2000
   37.9460   24.3850   33.4540 C   0  0  0  0  0  0  0  0  0  0  0  0
   37.7340   23.0220   33.2260 C   0  0  0  0  0  0  0  0  0  0  0  0
   38.2510   22.2060   33.7020 H   0  0  0  0  0  0  0  0  0  0  0  0
   36.7680   22.6200   32.2970 C   0  0  0  0  0  3  0  0  0  0  0  0
   36.0050   23.5380   31.5890 C   0  0  0  0  0  3  0  0  0  0  0  0
   36.2400   24.8720   31.8400 C   0  0  0  0  0  0  0  0  0  0  0  0
   35.5220   25.8710   31.1830 C   0  0  0  0  0  3  0  0  0  0  0  0
   35.8000   27.2090   31.4820 C   0  0  0  0  0  3  0  0  0  0  0  0
   36.7580   27.5970   32.4030 C   0  0  0  0  0  3  0  0  0  0  0  0
   37.4630   26.5930   33.0480 C   0  0  0  0  0  3  0  0  0  0  0  0
   37.1760   25.2800   32.7400 C   0  0  0  0  0  0  0  0  0  0  0  0
   38.9310   24.5820   34.3950 O   0  0  0  0  0  0  0  0  0  0  0  0
   38.9960   24.0820   35.6720 C   0  0  0  0  0  0  0  0  0  0  0  0
   38.0100   24.6430   36.4900 C   0  0  0  0  0  0  0  0  0  0  0  0
   37.9250   24.2530   37.8240 C   0  0  0  0  0  0  0  0  0  0  0  0
   38.8200   23.3330   38.2670 N   0  0  0  0  0  0  0  0  0  0  0  0
   39.7710   22.8010   37.4540 C   0  0  0  0  0  0  0  0  0  0  0  0
   39.8600   23.1640   36.1850 N   0  0  0  0  0  0  0  0  0  0  0  0
   37.2800   25.3700   36.1980 H   0  0  0  0  0  0  0  0  0  0  0  0
   37.1900   24.6420   38.5160 H   0  0  0  0  0  0  0  0  0  0  0  0
   40.4870   22.0660   37.8030 H   0  0  0  0  0  0  0  0  0  0  0  0
  1 12  1  0  0  0  0
  2  1  1  0  0  0  0
  2  3  1  0  0  0  0
  4  2  2  0  0  0  0
  5  6  2  0  0  0  0
  5  4  1  0  0  0  0
  6 11  1  0  0  0  0
  7  8  2  0  0  0  0
  7  6  1  0  0  0  0
  8  9  1  0  0  0  0
  9 10  2  0  0  0  0
 11 10  1  0  0  0  0
 11  1  2  0  0  0  0
 12 13  1  0  0  0  0
 13 18  2  0  0  0  0
 13 14  1  0  0  0  0
 14 15  2  0  0  0  0
 15 16  1  0  0  0  0
 15 20  1  0  0  0  0
 17 21  1  0  0  0  0
 17 16  2  0  0  0  0
 18 17  1  0  0  0  0
 19 14  1  0  0  0  0
M  END
>  <minimizedAffinity>
-4.85454369

$$$$

 OpenBabel03262521153D

 21 23  0  0  0  0  0  0  0  0999 V2000
   37.8840   23.5660   33.3570 C   0  0  0  0  0  0  0  0  0  0  0  0
   37.6080   24.9090   33.0840 C   0  0  0  0  0  0  0  0  0  0  0  0
   38.0940   25.7640   33.5220 H   0  0  0  0  0  0  0  0  0  0  0  0
   36.6080   25.2350   32.1600 C   0  0  0  0  0  3  0  0  0  0  0  0
   35.8760   24.2590   31.4980 C   0  0  0  0  0  3  0  0  0  0  0  0
   36.1750   22.9470   31.7910 C   0  0  0  0  0  0  0  0  0  0  0  0
   35.4980   21.8940   31.1740 C   0  0  0  0  0  3  0  0  0  0  0  0
   35.8490   20.5810   31.5070 C   0  0  0  0  0  3  0  0  0  0  0  0
   36.8400   20.2690   32.4230 C   0  0  0  0  0  3  0  0  0  0  0  0
   37.5030   21.3250   33.0260 C   0  0  0  0  0  3  0  0  0  0  0  0
   37.1440   22.6130   32.6870 C   0  0  0  0  0  0  0  0  0  0  0  0
   38.8910   23.4470   34.2870 O   0  0  0  0  0  0  0  0  0  0  0  0
   38.7850   23.4410   35.6550 C   0  0  0  0  0  0  0  0  0  0  0  0
   39.8960   22.8380   36.2510 C   0  0  0  0  0  0  0  0  0  0  0  0
   39.9610   22.7430   37.6380 C   0  0  0  0  0  0  0  0  0  0  0  0
   38.9230   23.2480   38.3520 N   0  0  0  0  0  0  0  0  0  0  0  0
   37.8500   23.8310   37.7510 C   0  0  0  0  0  0  0  0  0  0  0  0
   37.7790   23.9270   36.4330 N   0  0  0  0  0  0  0  0  0  0  0  0
   40.7430   22.4230   35.7420 H   0  0  0  0  0  0  0  0  0  0  0  0
   40.7880   22.2910   38.1700 H   0  0  0  0  0  0  0  0  0  0  0  0
   37.0180   24.2360   38.3160 H   0  0  0  0  0  0  0  0  0  0  0  0
  1 12  1  0  0  0  0
  2  1  1  0  0  0  0
  2  3  1  0  0  0  0
  4  2  2  0  0  0  0
  5  6  2  0  0  0  0
  5  4  1  0  0  0  0
  6 11  1  0  0  0  0
  7  8  2  0  0  0  0
  7  6  1  0  0  0  0
  8  9  1  0  0  0  0
  9 10  2  0  0  0  0
 11 10  1  0  0  0  0
 11  1  2  0  0  0  0
 12 13  1  0  0  0  0
 13 14  2  0  0  0  0
 13 18  1  0  0  0  0
 14 15  1  0  0  0  0
 15 20  1  0  0  0  0
 15 16  2  0  0  0  0
 17 21  1  0  0  0  0
 17 16  1  0  0  0  0
 18 17  2  0  0  0  0
 19 14  1  0  0  0  0
M  END
>  <minimizedAffinity>
-4.84624815

$$$$

 OpenBabel03262521153D

 21 23  0  0  0  0  0  0  0  0999 V2000
   39.1320   24.6690   34.6260 C   0  0  0  0  0  0  0  0  0  0  0  0
   40.2040   24.2880   33.8140 C   0  0  0  0  0  0  0  0  0  0  0  0
   40.3800   24.5990   32.7980 H   0  0  0  0  0  0  0  0  0  0  0  0
   41.1760   23.4150   34.3180 C   0  0  0  0  0  3  0  0  0  0  0  0
   41.1100   22.9120   35.6100 C   0  0  0  0  0  3  0  0  0  0  0  0
   40.0400   23.3100   36.3820 C   0  0  0  0  0  0  0  0  0  0  0  0
   39.8870   22.8630   37.6950 C   0  0  0  0  0  3  0  0  0  0  0  0
   38.7840   23.3050   38.4320 C   0  0  0  0  0  3  0  0  0  0  0  0
   37.8280   24.1680   37.9250 C   0  0  0  0  0  3  0  0  0  0  0  0
   37.9930   24.6030   36.6200 C   0  0  0  0  0  3  0  0  0  0  0  0
   39.0860   24.1570   35.9070 C   0  0  0  0  0  0  0  0  0  0  0  0
   38.2850   25.5240   33.9580 O   0  0  0  0  0  0  0  0  0  0  0  0
   37.3720   25.2210   32.9790 C   0  0  0  0  0  0  0  0  0  0  0  0
   36.8150   26.3770   32.4250 C   0  0  0  0  0  0  0  0  0  0  0  0
   35.8650   26.2610   31.4140 C   0  0  0  0  0  0  0  0  0  0  0  0
   35.5240   25.0090   31.0130 N   0  0  0  0  0  0  0  0  0  0  0  0
   36.0790   23.8970   31.5670 C   0  0  0  0  0  0  0  0  0  0  0  0
   36.9830   23.9970   32.5280 N   0  0  0  0  0  0  0  0  0  0  0  0
   37.0430   27.3870   32.6990 H   0  0  0  0  0  0  0  0  0  0  0  0
   35.3910   27.1090   30.9370 H   0  0  0  0  0  0  0  0  0  0  0  0
   35.8110   22.8960   31.2500 H   0  0  0  0  0  0  0  0  0  0  0  0
  1 11  1  0  0  0  0
  2  4  1  0  0  0  0
  2  1  2  0  0  0  0
  3  2  1  0  0  0  0
  4  5  2  0  0  0  0
  5  6  1  0  0  0  0
  6  7  1  0  0  0  0
  7  8  2  0  0  0  0
  9  8  1  0  0  0  0
 10  9  2  0  0  0  0
 11  6  2  0  0  0  0
 11 10  1  0  0  0  0
 12  1  1  0  0  0  0
 13 12  1  0  0  0  0
 14 19  1  0  0  0  0
 14 13  2  0  0  0  0
 15 14  1  0  0  0  0
 16 15  2  0  0  0  0
 16 17  1  0  0  0  0
 17 18  2  0  0  0  0
 18 13  1  0  0  0  0
 20 15  1  0  0  0  0
 21 17  1  0  0  0  0
M  END
>  <minimizedAffinity>
-4.84192228

$$$$

 OpenBabel03262521153D

 21 23  0  0  0  0  0  0  0  0999 V2000
   37.5900   21.8890   33.6070 C   0  0  0  0  0  0  0  0  0  0  0  0
   36.7520   20.8080   33.9000 C   0  0  0  0  0  0  0  0  0  0  0  0
   36.9510   20.0150   34.6020 H   0  0  0  0  0  0  0  0  0  0  0  0
   35.5210   20.6910   33.2450 C   0  0  0  0  0  3  0  0  0  0  0  0
   35.0990   21.6230   32.3060 C   0  0  0  0  0  3  0  0  0  0  0  0
   35.9490   22.6750   32.0440 C   0  0  0  0  0  0  0  0  0  0  0  0
   35.6140   23.6660   31.1200 C   0  0  0  0  0  3  0  0  0  0  0  0
   36.5140   24.7130   30.8990 C   0  0  0  0  0  3  0  0  0  0  0  0
   37.7300   24.8190   31.5520 C   0  0  0  0  0  3  0  0  0  0  0  0
   38.0490   23.8280   32.4660 C   0  0  0  0  0  3  0  0  0  0  0  0
   37.1500   22.8030   32.6720 C   0  0  0  0  0  0  0  0  0  0  0  0
   38.7490   21.8290   34.3460 O   0  0  0  0  0  0  0  0  0  0  0  0
   38.9580   22.2600   35.6330 C   0  0  0  0  0  0  0  0  0  0  0  0
   37.8550   22.9680   36.1190 C   0  0  0  0  0  0  0  0  0  0  0  0
   37.8890   23.4820   37.4130 C   0  0  0  0  0  0  0  0  0  0  0  0
   39.0110   23.2650   38.1460 N   0  0  0  0  0  0  0  0  0  0  0  0
   40.0730   22.5730   37.6520 C   0  0  0  0  0  0  0  0  0  0  0  0
   40.0500   22.0800   36.4240 N   0  0  0  0  0  0  0  0  0  0  0  0
   36.9460   23.1700   35.5900 H   0  0  0  0  0  0  0  0  0  0  0  0
   37.0750   24.0390   37.8570 H   0  0  0  0  0  0  0  0  0  0  0  0
   40.9710   22.3970   38.2330 H   0  0  0  0  0  0  0  0  0  0  0  0
  1  2  1  0  0  0  0
  1 12  1  0  0  0  0
  2  3  1  0  0  0  0
  4  2  2  0  0  0  0
  5  4  1  0  0  0  0
  6  5  2  0  0  0  0
  6 11  1  0  0  0  0
  7  6  1  0  0  0  0
  8  7  2  0  0  0  0
  8  9  1  0  0  0  0
  9 10  2  0  0  0  0
 10 11  1  0  0  0  0
 11  1  2  0  0  0  0
 12 13  1  0  0  0  0
 13 14  2  0  0  0  0
 13 18  1  0  0  0  0
 14 15  1  0  0  0  0
 15 20  1  0  0  0  0
 15 16  2  0  0  0  0
 17 16  1  0  0  0  0
 17 21  1  0  0  0  0
 18 17  2  0  0  0  0
 19 14  1  0  0  0  0
M  END
>  <minimizedAffinity>
-4.8283186

$$$$
