
     RDKit          3D

 32 34  0  0  0  0  0  0  0  0999 V2000
   37.4317   30.3151   51.3938 C   0  0  0  0  0  0  0  0  0  0  0  0
   38.1187   30.8764   50.2685 C   0  0  0  0  0  0  0  0  0  0  0  0
   37.7323   30.4937   48.9799 C   0  0  0  0  0  0  0  0  0  0  0  0
   36.7105   29.5963   48.8595 N   0  0  0  0  0  0  0  0  0  0  0  0
   36.0764   29.0797   49.9411 C   0  0  0  0  0  0  0  0  0  0  0  0
   36.4374   29.4391   51.1989 N   0  0  0  0  0  0  0  0  0  0  0  0
   35.0621   28.1812   49.5996 O   0  0  0  0  0  0  0  0  0  0  0  0
   32.5185   28.0798   49.0546 O   0  0  0  0  0  0  0  0  0  0  0  0
   33.8653   28.4895   48.4516 P   0  0  2  0  0  0  0  0  0  0  0  0
   34.0585   27.5891   47.0487 O   0  0  0  0  0  0  0  0  0  0  0  0
   33.7337   30.1211   48.0459 O   0  0  0  0  0  0  0  0  0  0  0  0
   37.7344   30.6136   52.3664 H   0  0  0  0  0  0  0  0  0  0  0  0
   38.9303   31.5906   50.4029 H   0  0  0  0  0  0  0  0  0  0  0  0
   38.2205   30.8902   48.1105 H   0  0  0  0  0  0  0  0  0  0  0  0
   33.2063   27.2771   46.6547 H   0  0  0  0  0  0  0  0  0  0  0  0
   32.6502   30.6473   47.3631 C   0  0  0  0  0  0  0  0  0  0  0  0
   31.8574   29.9957   46.4417 C   0  0  0  0  0  0  0  0  0  0  0  0
   32.1049   28.9836   46.2345 H   0  0  0  0  0  0  0  0  0  0  0  0
   30.8062   30.6756   45.8482 C   0  0  0  0  0  0  0  0  0  0  0  0
   30.5058   31.9940   46.1360 C   0  0  0  0  0  0  0  0  0  0  0  0
   31.3194   32.6199   47.0642 C   0  0  0  0  0  0  0  0  0  0  0  0
   30.9992   33.9383   47.3357 C   0  0  0  0  0  0  0  0  0  0  0  0
   31.7608   34.6598   48.2598 C   0  0  0  0  0  0  0  0  0  0  0  0
   32.8300   34.0219   48.8853 C   0  0  0  0  0  0  0  0  0  0  0  0
   33.1253   32.7027   48.5929 C   0  0  0  0  0  0  0  0  0  0  0  0
   32.3874   31.9686   47.6833 C   0  0  0  0  0  0  0  0  0  0  0  0
   30.1997   30.1446   45.1301 H   0  0  0  0  0  0  0  0  0  0  0  0
   29.6759   32.5025   45.6560 H   0  0  0  0  0  0  0  0  0  0  0  0
   30.2003   34.4908   46.8992 H   0  0  0  0  0  0  0  0  0  0  0  0
   31.6386   35.6786   48.5733 H   0  0  0  0  0  0  0  0  0  0  0  0
   33.4651   34.5144   49.6115 H   0  0  0  0  0  0  0  0  0  0  0  0
   33.9538   32.2088   49.0777 H   0  0  0  0  0  0  0  0  0  0  0  0
  2  1  2  0
  3  2  1  0
  4  3  2  0
  4  5  1  0
  5  6  2  0
  6  1  1  0
  7  5  1  0
  9  8  2  0
  9  7  1  1
 10  9  1  0
 11  9  1  0
  1 12  1  0
  2 13  1  0
  3 14  1  0
 10 15  1  0
 16 17  2  0
 17 18  1  0
 17 19  1  0
 19 20  2  0
 20 21  1  0
 21 22  2  0
 22 23  1  0
 23 24  2  0
 24 25  1  0
 25 26  2  0
 26 16  1  0
 26 21  1  0
 19 27  1  0
 20 28  1  0
 22 29  1  0
 23 30  1  0
 24 31  1  0
 25 32  1  0
 11 16  1  0
M  ISO  5  12  14  13  14  14  14  15   3  18  15
M  END
>  <DihAtoms>  (1) 
8,10,15,16

>  <DihDeg>  (1) 
-0.022157000479162643

$$$$
