
     RDKit          3D

 28 30  0  0  0  0  0  0  0  0999 V2000
   37.8417   30.7741   50.5750 C   0  0  0  0  0  0  0  0  0  0  0  0
   37.5447   31.5675   49.4259 C   0  0  0  0  0  0  0  0  0  0  0  0
   36.6859   31.0346   48.4721 C   0  0  0  0  0  0  0  0  0  0  0  0
   36.1775   29.8022   48.6760 N   0  0  0  0  0  0  0  0  0  0  0  0
   36.4693   29.0731   49.7628 C   0  0  0  0  0  0  0  0  0  0  0  0
   37.2906   29.5318   50.7175 N   0  0  0  0  0  0  0  0  0  0  0  0
   38.1888   32.9034   49.3566 C   0  0  0  0  0  0  0  0  0  0  0  0
   38.9566   33.0444   48.3812 O   0  0  0  0  0  0  0  0  0  0  0  0
   38.4993   31.1107   51.3652 H   0  0  0  0  0  0  0  0  0  0  0  0
   36.4866   31.6570   47.6256 H   0  0  0  0  0  0  0  0  0  0  0  0
   36.0731   28.0830   49.9463 H   0  0  0  0  0  0  0  0  0  0  0  0
   37.8277   33.8391   50.4316 C   0  0  0  0  0  0  0  0  0  0  0  0
   38.8017   34.0275   51.3990 C   0  0  0  0  0  0  0  0  0  0  0  0
   39.7934   33.5659   51.4521 H   0  0  0  0  0  0  0  0  0  0  0  0
   38.5687   34.8946   52.4680 C   0  0  0  0  0  0  0  0  0  0  0  0
   37.3538   35.5664   52.5544 C   0  0  0  0  0  0  0  0  0  0  0  0
   36.3894   35.3734   51.5873 C   0  0  0  0  0  0  0  0  0  0  0  0
   35.1525   36.0130   51.6122 C   0  0  0  0  0  0  0  0  0  0  0  0
   34.2089   35.7861   50.6117 C   0  0  0  0  0  0  0  0  0  0  0  0
   34.4627   34.9246   49.5655 C   0  0  0  0  0  0  0  0  0  0  0  0
   35.6955   34.2895   49.5443 C   0  0  0  0  0  0  0  0  0  0  0  0
   36.6291   34.5142   50.5343 C   0  0  0  0  0  0  0  0  0  0  0  0
   39.2604   35.1012   53.2588 H   0  0  0  0  0  0  0  0  0  0  0  0
   37.0563   36.2596   53.3294 H   0  0  0  0  0  0  0  0  0  0  0  0
   34.9299   36.6981   52.4292 H   0  0  0  0  0  0  0  0  0  0  0  0
   33.2418   36.2826   50.6259 H   0  0  0  0  0  0  0  0  0  0  0  0
   33.7350   34.7452   48.7879 H   0  0  0  0  0  0  0  0  0  0  0  0
   35.8803   33.6265   48.7315 H   0  0  0  0  0  0  0  0  0  0  0  0
  1  6  2  0
  2  1  1  0
  3  4  1  0
  3  2  2  0
  4  5  2  0
  5  6  1  0
  7  2  1  0
  8  7  2  0
  1  9  1  0
  3 10  1  0
  5 11  1  0
 12 13  2  0
 13 14  1  0
 13 15  1  0
 15 16  2  0
 16 17  1  0
 17 18  2  0
 18 19  1  0
 19 20  2  0
 20 21  1  0
 21 22  2  0
 22 12  1  0
 22 17  1  0
 15 23  1  0
 16 24  1  0
 18 25  1  0
 19 26  1  0
 20 27  1  0
 21 28  1  0
  7 12  1  0
M  ISO  4   9  14  10  14  11  14  14  15
M  END
>  <DihAtoms>  (1) 
1,6,11,12

>  <DihDeg>  (1) 
-44.99696984602744

$$$$
