
 OpenBabel03262521473D

 32 34  0  0  0  0  0  0  0  0999 V2000
   35.7450   29.3680   51.3170 O   0  0  0  0  0  0  0  0  0  0  0  0
   36.9830   29.1980   50.6790 C   0  0  0  0  0  0  0  0  0  0  0  0
   37.4940   28.3490   51.1920 H   0  0  0  0  0  0  0  0  0  0  0  0
   36.9020   28.9450   49.6220 H   0  0  0  0  0  0  0  0  0  0  0  0
   37.7610   30.4630   50.8470 C   0  0  0  0  0  0  0  0  0  0  0  0
   37.2350   31.2140   51.4880 H   0  0  0  0  0  0  0  0  0  0  0  0
   38.7310   30.2670   51.3930 H   0  0  0  0  0  0  0  0  0  0  0  0
   38.1040   31.1360   49.6030 C   0  0  0  0  0  0  0  0  0  0  0  0
   38.5700   32.4360   49.5660 C   0  0  0  0  0  0  0  0  0  0  0  0
   38.8740   32.9990   48.3190 C   0  0  0  0  0  0  0  0  0  0  0  0
   38.6890   32.2260   47.2000 N   0  0  0  0  0  0  0  0  0  0  0  0
   38.2290   30.9510   47.2750 C   0  0  0  0  0  0  0  0  0  0  0  0
   37.9360   30.4100   48.4940 N   0  0  0  0  0  0  0  0  0  0  0  0
   38.6660   32.9210   50.5150 H   0  0  0  0  0  0  0  0  0  0  0  0
   39.2320   33.9990   48.3070 H   0  0  0  0  0  0  0  0  0  0  0  0
   38.1020   30.3850   46.3580 H   0  0  0  0  0  0  0  0  0  0  0  0
   34.7010   30.9800   49.5490 O   0  0  0  0  0  0  0  0  0  0  0  0
   34.5000   29.6100   50.1890 P   0  0  2  0  0  0  0  0  0  0  0  0
   33.0020   29.6630   50.9520 O   0  0  0  0  0  0  0  0  0  0  0  0
   33.1600   29.7930   51.9210 H   0  0  0  0  0  0  0  0  0  0  0  0
   34.4980   28.3990   49.0330 O   0  0  0  0  0  0  0  0  0  0  0  0
   34.0050   28.6730   47.7630 C   0  0  0  0  0  0  0  0  0  0  0  0
   34.6680   29.3820   46.7820 C   0  0  0  0  0  0  0  0  0  0  0  0
   35.6460   29.7510   47.0190 H   0  0  0  0  0  0  0  0  0  0  0  0
   34.1370   29.6260   45.5470 C   0  0  0  0  0  0  0  0  0  0  0  0
   32.8570   29.0960   45.3560 C   0  0  0  0  0  0  0  0  0  0  0  0
   32.1560   28.3840   46.3020 C   0  0  0  0  0  0  0  0  0  0  0  0
   30.8880   27.9100   45.9840 C   0  0  0  0  0  0  0  0  0  0  0  0
   30.1790   27.1910   46.9380 C   0  0  0  0  0  0  0  0  0  0  0  0
   30.7580   26.9730   48.1660 C   0  0  0  0  0  0  0  0  0  0  0  0
   32.0210   27.4530   48.4630 C   0  0  0  0  0  0  0  0  0  0  0  0
   32.7480   28.1680   47.5380 C   0  0  0  0  0  0  0  0  0  0  0  0
  2  5  1  0  0  0  0
  2  3  1  0  0  0  0
  2  1  1  0  0  0  0
  4  2  1  0  0  0  0
  5  7  1  0  0  0  0
  5  6  1  0  0  0  0
  8  5  1  0  0  0  0
  9  8  1  0  0  0  0
  9 14  1  0  0  0  0
 10  9  2  0  0  0  0
 11 12  2  0  0  0  0
 11 10  1  0  0  0  0
 12 13  1  0  0  0  0
 13  8  2  0  0  0  0
 15 10  1  0  0  0  0
 16 12  1  0  0  0  0
 18 17  2  6  0  0  0
 18 19  1  0  0  0  0
 18  1  1  0  0  0  0
 19 20  1  0  0  0  0
 21 18  1  0  0  0  0
 22 21  1  0  0  0  0
 23 24  1  0  0  0  0
 23 22  2  0  0  0  0
 25 23  1  0  0  0  0
 26 25  2  0  0  0  0
 26 27  1  0  0  0  0
 27 32  1  0  0  0  0
 28 27  2  0  0  0  0
 28 29  1  0  0  0  0
 29 30  2  0  0  0  0
 30 31  1  0  0  0  0
 32 22  1  0  0  0  0
 32 31  2  0  0  0  0
M  END
>  <minimizedAffinity>
-5.69698429

>  <minimizedRMSD>
1.66953766

$$$$
