
     RDKit          3D

 28 30  0  0  0  0  0  0  0  0999 V2000
   37.3586   30.2259   51.3671 C   0  0  0  0  0  0  0  0  0  0  0  0
   38.0559   30.7485   50.2542 C   0  0  0  0  0  0  0  0  0  0  0  0
   37.5844   30.3976   48.9972 C   0  0  0  0  0  0  0  0  0  0  0  0
   36.4889   29.5790   48.9193 N   0  0  0  0  0  0  0  0  0  0  0  0
   35.8572   29.1054   49.9931 C   0  0  0  0  0  0  0  0  0  0  0  0
   36.2772   29.4178   51.2191 N   0  0  0  0  0  0  0  0  0  0  0  0
   38.2559   30.8996   47.7996 C   0  0  0  0  0  0  0  0  0  0  0  0
   38.9809   31.9371   47.8124 O   0  0  0  0  0  0  0  0  0  0  0  0
   37.7305   30.5028   52.3311 H   0  0  0  0  0  0  0  0  0  0  0  0
   38.9034   31.3819   50.3326 H   0  0  0  0  0  0  0  0  0  0  0  0
   34.9951   28.4611   49.9459 H   0  0  0  0  0  0  0  0  0  0  0  0
   38.0183   30.0979   46.5796 C   0  0  0  0  0  0  0  0  0  0  0  0
   36.9673   29.1759   46.6601 C   0  0  0  0  0  0  0  0  0  0  0  0
   36.3812   29.0924   47.5882 H   0  0  0  0  0  0  0  0  0  0  0  0
   36.5845   28.3354   45.6544 C   0  0  0  0  0  0  0  0  0  0  0  0
   37.2771   28.3913   44.4697 C   0  0  0  0  0  0  0  0  0  0  0  0
   38.3161   29.2914   44.3661 C   0  0  0  0  0  0  0  0  0  0  0  0
   39.0784   29.4243   43.2039 C   0  0  0  0  0  0  0  0  0  0  0  0
   40.1186   30.3244   43.0936 C   0  0  0  0  0  0  0  0  0  0  0  0
   40.4461   31.1452   44.1622 C   0  0  0  0  0  0  0  0  0  0  0  0
   39.7193   31.0484   45.3321 C   0  0  0  0  0  0  0  0  0  0  0  0
   38.6929   30.1341   45.3879 C   0  0  0  0  0  0  0  0  0  0  0  0
   35.7661   27.6422   45.7679 H   0  0  0  0  0  0  0  0  0  0  0  0
   37.0607   27.7737   43.6091 H   0  0  0  0  0  0  0  0  0  0  0  0
   38.8566   28.8018   42.3433 H   0  0  0  0  0  0  0  0  0  0  0  0
   40.6837   30.3998   42.1842 H   0  0  0  0  0  0  0  0  0  0  0  0
   41.2691   31.8313   44.0209 H   0  0  0  0  0  0  0  0  0  0  0  0
   39.9847   31.6862   46.1358 H   0  0  0  0  0  0  0  0  0  0  0  0
  2  1  2  0
  3  2  1  0
  4  3  2  0
  4  5  1  0
  5  6  2  0
  6  1  1  0
  7  3  1  0
  8  7  2  0
  1  9  1  0
  2 10  1  0
  5 11  1  0
 12 13  2  0
 13 14  1  0
 13 15  1  0
 15 16  2  0
 16 17  1  0
 17 18  2  0
 18 19  1  0
 19 20  2  0
 20 21  1  0
 21 22  2  0
 22 12  1  0
 22 17  1  0
 15 23  1  0
 16 24  1  0
 18 25  1  0
 19 26  1  0
 20 27  1  0
 21 28  1  0
  7 12  1  0
M  ISO  4   9  14  10  14  11  14  14  15
M  END
>  <DihAtoms>  (1) 
2,6,11,12

>  <DihDeg>  (1) 
-46.003963928283696

$$$$
