
     RDKit          3D

 32 34  0  0  0  0  0  0  0  0999 V2000
   35.6506   30.4724   49.7424 C   0  0  0  0  0  0  0  0  0  0  0  0
   35.9771   29.4750   50.6714 C   0  0  0  0  0  0  0  0  0  0  0  0
   37.2388   29.5050   51.2652 C   0  0  0  0  0  0  0  0  0  0  0  0
   38.0957   30.5029   50.9143 N   0  0  0  0  0  0  0  0  0  0  0  0
   37.7454   31.4526   50.0105 C   0  0  0  0  0  0  0  0  0  0  0  0
   36.5184   31.4469   49.4150 N   0  0  0  0  0  0  0  0  0  0  0  0
   34.4466   30.5813   49.0698 O   0  0  0  0  0  0  0  0  0  0  0  0
   35.4967   30.1603   46.6425 O   0  0  0  0  0  0  0  0  0  0  0  0
   34.2335   30.0110   47.4578 P   0  0  1  0  0  0  0  0  0  0  0  0
   33.7455   28.3978   47.5921 O   0  0  0  0  0  0  0  0  0  0  0  0
   33.0538   30.9449   46.6759 O   0  0  0  0  0  0  0  0  0  0  0  0
   35.2258   28.7494   50.8639 H   0  0  0  0  0  0  0  0  0  0  0  0
   37.4626   28.7282   51.9738 H   0  0  0  0  0  0  0  0  0  0  0  0
   38.4979   32.2095   49.7945 H   0  0  0  0  0  0  0  0  0  0  0  0
   32.4063   30.3711   46.1864 H   0  0  0  0  0  0  0  0  0  0  0  0
   33.6520   27.6254   46.4427 C   0  0  0  0  0  0  0  0  0  0  0  0
   34.1761   27.9091   45.1995 C   0  0  0  0  0  0  0  0  0  0  0  0
   34.7148   28.8343   45.1250 H   0  0  0  0  0  0  0  0  0  0  0  0
   34.0029   27.0416   44.1406 C   0  0  0  0  0  0  0  0  0  0  0  0
   33.2937   25.8427   44.2749 C   0  0  0  0  0  0  0  0  0  0  0  0
   32.7796   25.5820   45.5280 C   0  0  0  0  0  0  0  0  0  0  0  0
   32.0777   24.3776   45.6271 C   0  0  0  0  0  0  0  0  0  0  0  0
   31.5453   24.0797   46.8718 C   0  0  0  0  0  0  0  0  0  0  0  0
   31.6727   24.8955   47.9882 C   0  0  0  0  0  0  0  0  0  0  0  0
   32.3803   26.0651   47.8036 C   0  0  0  0  0  0  0  0  0  0  0  0
   32.9411   26.4352   46.5999 C   0  0  0  0  0  0  0  0  0  0  0  0
   34.4222   27.2838   43.1747 H   0  0  0  0  0  0  0  0  0  0  0  0
   33.1873   25.1981   43.4128 H   0  0  0  0  0  0  0  0  0  0  0  0
   31.9485   23.7031   44.7856 H   0  0  0  0  0  0  0  0  0  0  0  0
   30.9989   23.1475   46.9592 H   0  0  0  0  0  0  0  0  0  0  0  0
   31.2327   24.6068   48.9361 H   0  0  0  0  0  0  0  0  0  0  0  0
   32.4953   26.7205   48.6576 H   0  0  0  0  0  0  0  0  0  0  0  0
  1  2  2  0
  2  3  1  0
  4  3  2  0
  5  4  1  0
  6  1  1  0
  6  5  2  0
  7  1  1  0
  8  9  2  0
  9 10  1  1
  9  7  1  0
 11  9  1  0
  2 12  1  0
  3 13  1  0
  5 14  1  0
 11 15  1  0
 16 17  2  0
 17 18  1  0
 17 19  1  0
 19 20  2  0
 20 21  1  0
 21 22  2  0
 22 23  1  0
 23 24  2  0
 24 25  1  0
 25 26  2  0
 26 16  1  0
 26 21  1  0
 19 27  1  0
 20 28  1  0
 22 29  1  0
 23 30  1  0
 24 31  1  0
 25 32  1  0
 10 16  1  0
M  ISO  5  12  14  13  14  14  14  15   3  18  15
M  END
>  <DihAtoms>  (1) 
8,9,15,16

>  <DihDeg>  (1) 
0.0004545261895076337

$$$$
