REMARK  Name = 
REMARK  2 active torsions:
REMARK  status: ('A' for Active; 'I' for Inactive)
REMARK    1  A    between atoms: C_3  and  C_7
REMARK    2  A    between atoms: C_7  and  C_12
REMARK                            x       y       z     vdW  Elec       q    Type
REMARK                         _______ _______ _______ _____ _____    ______ ____
ROOT
ATOM      1  C   UNL     1      38.256  30.900  47.800  0.00  0.00    +0.000 C 
ATOM      2  O   UNL     1      38.981  31.937  47.812  0.00  0.00    +0.000 OA
ENDROOT
BRANCH   1   3
ATOM      3  C   UNL     1      38.018  30.098  46.580  0.00  0.00    +0.000 A 
ATOM      4  C   UNL     1      39.150  29.847  45.794  0.00  0.00    +0.000 A 
ATOM      5  H   UNL     1      40.131  30.237  46.106  0.00  0.00    +0.000 HD
ATOM      6  C   UNL     1      39.152  29.136  44.628  0.00  0.00    +0.000 A 
ATOM      7  C   UNL     1      37.958  28.623  44.185  0.00  0.00    +0.000 A 
ATOM      8  C   UNL     1      36.829  28.857  44.941  0.00  0.00    +0.000 A 
ATOM      9  C   UNL     1      35.570  28.376  44.576  0.00  0.00    +0.000 A 
ATOM     10  C   UNL     1      34.437  28.605  45.330  0.00  0.00    +0.000 A 
ATOM     11  C   UNL     1      34.518  29.338  46.504  0.00  0.00    +0.000 A 
ATOM     12  C   UNL     1      35.743  29.833  46.905  0.00  0.00    +0.000 A 
ATOM     13  C   UNL     1      36.840  29.576  46.116  0.00  0.00    +0.000 A 
ENDBRANCH   1   3
BRANCH   1  16
ATOM     14  C   UNL     1      37.359  30.226  51.367  0.00  0.00    +0.000 A 
ATOM     15  C   UNL     1      38.056  30.748  50.254  0.00  0.00    +0.000 A 
ATOM     16  C   UNL     1      37.584  30.398  48.997  0.00  0.00    +0.000 A 
ATOM     17  N   UNL     1      36.489  29.579  48.919  0.00  0.00    +0.000 NA
ATOM     18  C   UNL     1      35.857  29.105  49.993  0.00  0.00    +0.000 A 
ATOM     19  N   UNL     1      36.277  29.418  51.219  0.00  0.00    +0.000 NA
ATOM     20  H   UNL     1      37.730  30.503  52.331  0.00  0.00    +0.000 HD
ATOM     21  H   UNL     1      38.903  31.382  50.333  0.00  0.00    +0.000 HD
ATOM     22  H   UNL     1      34.995  28.461  49.946  0.00  0.00    +0.000 HD
ENDBRANCH   1  16
TORSDOF 2
