
     RDKit          3D

 40 43  0  0  0  0  0  0  0  0999 V2000
   34.7924   29.5420   47.5263 S   0  0  0  0  0  0  0  0  0  0  0  0
   37.3768   29.4800   50.5226 C   0  0  0  0  0  0  0  0  0  0  0  0
   37.9841   30.7287   50.5154 C   0  0  0  0  0  0  0  0  0  0  0  0
   37.5774   31.6381   49.5374 C   0  0  0  0  0  0  0  0  0  0  0  0
   36.6148   31.2593   48.6476 N   0  0  0  0  0  0  0  0  0  0  0  0
   36.0525   30.0247   48.6984 C   0  0  0  0  0  0  0  0  0  0  0  0
   36.4243   29.1323   49.6269 N   0  0  0  0  0  0  0  0  0  0  0  0
   32.3866   28.3557   47.4729 C   0  0  2  0  0  0  0  0  0  0  0  0
   33.6322   28.4034   48.3450 C   0  0  1  0  0  0  0  0  0  0  0  0
   34.1886   27.1604   48.3494 O   0  0  0  0  0  0  0  0  0  0  0  0
   33.5390   26.3693   47.4267 C   0  0  0  0  0  0  0  0  0  0  0  0
   32.8477   27.3303   46.4436 C   0  0  1  0  0  0  0  0  0  0  0  0
   32.1385   29.5934   46.8836 O   0  0  0  0  0  0  0  0  0  0  0  0
   31.8010   26.6945   45.8311 O   0  0  0  0  0  0  0  0  0  0  0  0
   37.7254   28.8138   51.2971 H   0  0  0  0  0  0  0  0  0  0  0  0
   38.7481   31.0265   51.2232 H   0  0  0  0  0  0  0  0  0  0  0  0
   37.9932   32.6427   49.4482 H   0  0  0  0  0  0  0  0  0  0  0  0
   31.5191   27.9829   48.0390 H   0  0  0  0  0  0  0  0  0  0  0  0
   33.3353   28.7835   49.3404 H   0  0  0  0  0  0  0  0  0  0  0  0
   34.3158   25.8121   46.8624 H   0  0  0  0  0  0  0  0  0  0  0  0
   32.7937   25.7065   47.8957 H   0  0  0  0  0  0  0  0  0  0  0  0
   33.5940   27.8233   45.8196 H   0  0  0  0  0  0  0  0  0  0  0  0
   31.5212   30.1067   47.4571 H   0  0  0  0  0  0  0  0  0  0  0  0
   31.6511   26.6514   44.4565 C   0  0  0  0  0  0  0  0  0  0  0  0
   31.0722   25.6998   43.6458 C   0  0  0  0  0  0  0  0  0  0  0  0
   30.6778   24.8592   44.1955 H   0  0  0  0  0  0  0  0  0  0  0  0
   31.0299   25.8587   42.2782 C   0  0  0  0  0  0  0  0  0  0  0  0
   31.5554   26.9580   41.6650 C   0  0  0  0  0  0  0  0  0  0  0  0
   32.1484   27.9409   42.4483 C   0  0  0  0  0  0  0  0  0  0  0  0
   32.6541   29.0137   41.7739 C   0  0  0  0  0  0  0  0  0  0  0  0
   33.2540   30.0194   42.5022 C   0  0  0  0  0  0  0  0  0  0  0  0
   33.3278   29.9187   43.8754 C   0  0  0  0  0  0  0  0  0  0  0  0
   32.7991   28.8118   44.4993 C   0  0  0  0  0  0  0  0  0  0  0  0
   32.1901   27.7786   43.8306 C   0  0  0  0  0  0  0  0  0  0  0  0
   30.5386   25.0161   41.7905 H   0  0  0  0  0  0  0  0  0  0  0  0
   31.4557   26.9573   40.5907 H   0  0  0  0  0  0  0  0  0  0  0  0
   32.5944   29.0896   40.6925 H   0  0  0  0  0  0  0  0  0  0  0  0
   33.6515   30.8668   41.9460 H   0  0  0  0  0  0  0  0  0  0  0  0
   33.8022   30.7187   44.4257 H   0  0  0  0  0  0  0  0  0  0  0  0
   32.8680   28.7535   45.5794 H   0  0  0  0  0  0  0  0  0  0  0  0
  1  6  1  0
  3  2  2  0
  4  3  1  0
  5  6  1  0
  5  4  2  0
  6  7  2  0
  7  2  1  0
  8 13  1  0
  8  9  1  0
  9  1  1  0
  9 10  1  0
 11 10  1  0
 12 14  1  0
 12 11  1  0
 12  8  1  0
  2 15  1  0
  3 16  1  0
  4 17  1  0
  8 18  1  1
  9 19  1  1
 11 20  1  0
 11 21  1  0
 12 22  1  6
 13 23  1  0
 24 25  2  0
 25 26  1  0
 25 27  1  0
 27 28  2  0
 28 29  1  0
 29 30  2  0
 30 31  1  0
 31 32  2  0
 32 33  1  0
 33 34  2  0
 34 24  1  0
 34 29  1  0
 27 35  1  0
 28 36  1  0
 30 37  1  0
 31 38  1  0
 32 39  1  0
 33 40  1  0
 14 24  1  0
M  ISO  8  15  14  16  14  17  14  18  13  19  13  20  13  21  13  22  13
M  ISO  2  23   3  26  15
M  END
>  <DihAtoms>  (1) 
11,13,23,24

>  <DihDeg>  (1) 
0.0017450107405889194

$$$$
