
     RDKit          3D

 37 40  0  0  0  0  0  0  0  0999 V2000
   36.9870   31.4111   48.5607 N   0  0  0  0  0  0  0  0  0  0  0  0
   37.1590   32.1533   49.6709 C   0  0  0  0  0  0  0  0  0  0  0  0
   38.1515   33.1405   49.6760 C   0  0  0  0  0  0  0  0  0  0  0  0
   38.8678   33.2562   48.5206 C   0  0  0  0  0  0  0  0  0  0  0  0
   39.7691   34.1528   48.5255 O   0  0  0  0  0  0  0  0  0  0  0  0
   38.7182   32.5344   47.4069 N   0  0  0  0  0  0  0  0  0  0  0  0
   37.7434   31.5860   47.4430 C   0  0  0  0  0  0  0  0  0  0  0  0
   37.5856   30.8887   46.3926 O   0  0  0  0  0  0  0  0  0  0  0  0
   36.1633   29.2580   49.2955 C   0  0  0  0  0  0  0  0  0  0  0  0
   36.0027   30.3986   48.4894 C   0  0  0  0  0  0  0  0  0  0  0  0
   34.8837   30.4383   47.6839 C   0  0  0  0  0  0  0  0  0  0  0  0
   33.9955   29.4245   47.6805 N   0  0  0  0  0  0  0  0  0  0  0  0
   34.1618   28.3383   48.4574 C   0  0  0  0  0  0  0  0  0  0  0  0
   35.2539   28.2494   49.2741 N   0  0  0  0  0  0  0  0  0  0  0  0
   33.3116   27.2427   48.5301 O   0  0  0  0  0  0  0  0  0  0  0  0
   36.5596   32.0097   50.5468 H   0  0  0  0  0  0  0  0  0  0  0  0
   38.3419   33.7713   50.5344 H   0  0  0  0  0  0  0  0  0  0  0  0
   39.3010   32.6746   46.5563 H   0  0  0  0  0  0  0  0  0  0  0  0
   37.0216   29.1753   49.9452 H   0  0  0  0  0  0  0  0  0  0  0  0
   34.7390   31.2951   47.0616 H   0  0  0  0  0  0  0  0  0  0  0  0
   32.1622   27.0865   47.7943 C   0  0  0  0  0  0  0  0  0  0  0  0
   32.4551   27.0382   46.4267 C   0  0  0  0  0  0  0  0  0  0  0  0
   33.4116   27.1080   45.9680 H   0  0  0  0  0  0  0  0  0  0  0  0
   31.4336   26.8821   45.4833 C   0  0  0  0  0  0  0  0  0  0  0  0
   30.1057   26.7731   45.9071 C   0  0  0  0  0  0  0  0  0  0  0  0
   29.8324   26.8230   47.2550 C   0  0  0  0  0  0  0  0  0  0  0  0
   28.5537   26.7308   47.7581 C   0  0  0  0  0  0  0  0  0  0  0  0
   28.3414   26.7961   49.1364 C   0  0  0  0  0  0  0  0  0  0  0  0
   29.3875   26.9542   50.0526 C   0  0  0  0  0  0  0  0  0  0  0  0
   30.6674   27.0455   49.5383 C   0  0  0  0  0  0  0  0  0  0  0  0
   30.8421   26.9766   48.1731 C   0  0  0  0  0  0  0  0  0  0  0  0
   31.5923   26.8377   44.4250 H   0  0  0  0  0  0  0  0  0  0  0  0
   29.2967   26.6528   45.2251 H   0  0  0  0  0  0  0  0  0  0  0  0
   27.7374   26.6093   47.0695 H   0  0  0  0  0  0  0  0  0  0  0  0
   27.3158   26.7198   49.5031 H   0  0  0  0  0  0  0  0  0  0  0  0
   29.0960   26.9910   51.0909 H   0  0  0  0  0  0  0  0  0  0  0  0
   31.4662   27.1765   50.2530 H   0  0  0  0  0  0  0  0  0  0  0  0
  1  2  1  0
  2  3  2  0
  4  5  2  0
  4  3  1  0
  6  7  1  0
  6  4  1  0
  7  1  1  0
  8  7  2  0
 10  1  1  0
 10  9  2  0
 11 12  2  0
 11 10  1  0
 12 13  1  0
 13 15  1  0
 13 14  2  0
 14  9  1  0
  2 16  1  0
  3 17  1  0
  6 18  1  0
  9 19  1  0
 11 20  1  0
 21 22  2  0
 22 23  1  0
 22 24  1  0
 24 25  2  0
 25 26  1  0
 26 27  2  0
 27 28  1  0
 28 29  2  0
 29 30  1  0
 30 31  2  0
 31 21  1  0
 31 26  1  0
 24 32  1  0
 25 33  1  0
 27 34  1  0
 28 35  1  0
 29 36  1  0
 30 37  1  0
 15 21  1  0
M  ISO  6  16  14  17  14  18   9  19  14  20  14  23  15
M  END
>  <DihAtoms>  (1) 
12,14,20,21

>  <DihDeg>  (1) 
-117.52898075615144

$$$$
