
 OpenBabel03262522233D

 34 37  0  0  0  0  0  0  0  0999 V2000
   37.5500   30.5050   49.0360 C   0  0  0  0  0  0  0  0  0  0  0  0
   37.3610   31.0990   47.7680 C   0  0  0  0  0  0  0  0  0  0  0  0
   36.2750   30.6930   47.0210 C   0  0  0  0  0  0  0  0  0  0  0  0
   35.4680   29.7570   47.5550 N   0  0  0  0  0  0  0  0  0  0  0  0
   35.6660   29.2170   48.7410 C   0  0  0  0  0  0  0  0  0  0  0  0
   36.7220   29.5770   49.5240 N   0  0  0  0  0  0  0  0  0  0  0  0
   38.3690   30.7400   49.7170 H   0  0  0  0  0  0  0  0  0  0  0  0
   36.1690   31.1650   46.0750 H   0  0  0  0  0  0  0  0  0  0  0  0
   38.3140   32.0310   47.4370 O   0  0  0  0  0  0  0  0  0  0  0  0
   38.9720   31.8650   46.2120 C   0  0  0  0  0  0  0  0  0  0  0  0
   40.1830   31.2620   45.9960 C   0  0  0  0  0  0  0  0  0  0  0  0
   40.6780   31.1870   44.7350 C   0  0  0  0  0  0  0  0  0  0  0  0
   39.9400   31.7270   43.6850 C   0  0  0  0  0  0  0  0  0  0  0  0
   38.7210   32.3300   43.9260 C   0  0  0  0  0  0  0  0  0  0  0  0
   38.2790   32.3750   45.2040 N   0  0  0  0  0  0  0  0  0  0  0  0
   40.6720   30.8760   46.8830 H   0  0  0  0  0  0  0  0  0  0  0  0
   41.6270   30.7150   44.5630 H   0  0  0  0  0  0  0  0  0  0  0  0
   40.3120   31.6810   42.6670 H   0  0  0  0  0  0  0  0  0  0  0  0
   37.9370   32.9080   42.7810 C   0  0  0  0  0  0  0  0  0  0  0  0
   37.1490   32.2050   42.4380 H   0  0  0  0  0  0  0  0  0  0  0  0
   38.6680   33.1790   42.0060 H   0  0  0  0  0  0  0  0  0  0  0  0
   37.4780   33.8400   43.1710 H   0  0  0  0  0  0  0  0  0  0  0  0
   34.3790   27.9960   49.1230 S   0  0  0  0  0  0  0  0  0  0  0  0
   33.3210   27.7010   47.7360 C   0  0  0  0  0  0  0  0  0  0  0  0
   32.4910   28.7700   47.4470 C   0  0  0  0  0  0  0  0  0  0  0  0
   32.4490   29.7090   47.9780 H   0  0  0  0  0  0  0  0  0  0  0  0
   31.5880   28.7100   46.3810 C   0  0  0  0  0  0  0  0  0  0  0  0
   31.5470   27.5480   45.6170 C   0  0  0  0  0  0  0  0  0  0  0  0
   32.3830   26.4780   45.9140 C   0  0  0  0  0  0  0  0  0  0  0  0
   32.3700   25.3010   45.1730 C   0  0  0  0  0  0  0  0  0  0  0  0
   33.2290   24.2790   45.5240 C   0  0  0  0  0  0  0  0  0  0  0  0
   34.1110   24.3800   46.5900 C   0  0  0  0  0  0  0  0  0  0  0  0
   34.1450   25.5430   47.3450 C   0  0  0  0  0  0  0  0  0  0  0  0
   33.2800   26.5480   46.9790 C   0  0  0  0  0  0  0  0  0  0  0  0
  1  6  1  0  0  0  0
  1  7  1  0  0  0  0
  2  1  2  0  0  0  0
  3  4  2  0  0  0  0
  3  2  1  0  0  0  0
  4  5  1  0  0  0  0
  5 23  1  0  0  0  0
  5  6  2  0  0  0  0
  8  3  1  0  0  0  0
  9  2  1  0  0  0  0
 10  9  1  0  0  0  0
 11 10  1  0  0  0  0
 11 16  1  0  0  0  0
 12 11  2  0  0  0  0
 13 14  2  0  0  0  0
 13 12  1  0  0  0  0
 14 15  1  0  0  0  0
 15 10  2  0  0  0  0
 17 12  1  0  0  0  0
 18 13  1  0  0  0  0
 19 22  1  0  0  0  0
 19 14  1  0  0  0  0
 20 19  1  0  0  0  0
 21 19  1  0  0  0  0
 24 23  1  0  0  0  0
 25 24  1  0  0  0  0
 25 26  1  0  0  0  0
 27 25  2  0  0  0  0
 28 29  2  0  0  0  0
 28 27  1  0  0  0  0
 29 34  1  0  0  0  0
 30 31  2  0  0  0  0
 30 29  1  0  0  0  0
 31 32  1  0  0  0  0
 32 33  2  0  0  0  0
 34 33  1  0  0  0  0
 34 24  2  0  0  0  0
M  END
>  <minimizedAffinity>
-5.01017046

>  <minimizedRMSD>
3.55166793

$$$$
