
 OpenBabel03272503473D

 26 28  0  0  0  0  0  0  0  0999 V2000
   35.3510   29.8500   46.7680 O   0  0  0  0  0  0  0  0  0  0  0  0
   34.1270   29.9660   47.6470 P   0  0  2  0  0  0  0  0  0  0  0  0
   33.0230   30.9300   46.7950 O   0  0  0  0  0  0  0  0  0  0  0  0
   32.2850   30.3820   46.4150 H   0  0  0  0  0  0  0  0  0  0  0  0
   34.4980   30.7090   49.1570 O   0  0  0  0  0  0  0  0  0  0  0  0
   35.7160   30.5360   49.7900 C   0  0  0  0  0  0  0  0  0  0  0  0
   36.0170   29.5270   50.7140 C   0  0  0  0  0  0  0  0  0  0  0  0
   37.2980   29.4890   51.2660 C   0  0  0  0  0  0  0  0  0  0  0  0
   38.1970   30.4360   50.8800 N   0  0  0  0  0  0  0  0  0  0  0  0
   37.8690   31.4000   49.9830 C   0  0  0  0  0  0  0  0  0  0  0  0
   36.6240   31.4590   49.4280 N   0  0  0  0  0  0  0  0  0  0  0  0
   35.2330   28.8450   50.9370 H   0  0  0  0  0  0  0  0  0  0  0  0
   37.5020   28.7040   51.9720 H   0  0  0  0  0  0  0  0  0  0  0  0
   38.6550   32.1110   49.7360 H   0  0  0  0  0  0  0  0  0  0  0  0
   33.4610   28.4570   48.0190 O   0  0  0  0  0  0  0  0  0  0  0  0
   32.4610   27.9430   47.2040 C   0  0  0  0  0  0  0  0  0  0  0  0
   32.5370   27.6760   45.8540 C   0  0  0  0  0  0  0  0  0  0  0  0
   33.4810   27.8920   45.3910 H   0  0  0  0  0  0  0  0  0  0  0  0
   31.4540   27.1630   45.1690 C   0  0  0  0  0  3  0  0  0  0  0  0
   30.2380   26.8920   45.8060 C   0  0  0  0  0  3  0  0  0  0  0  0
   30.1870   27.1690   47.1560 C   0  0  0  0  0  0  0  0  0  0  0  0
   28.9590   26.8870   47.7600 C   0  0  0  0  0  3  0  0  0  0  0  0
   28.8690   27.1520   49.1180 C   0  0  0  0  0  3  0  0  0  0  0  0
   29.9080   27.6680   49.8810 C   0  0  0  0  0  3  0  0  0  0  0  0
   31.0850   27.9170   49.2070 C   0  0  0  0  0  3  0  0  0  0  0  0
   31.2580   27.6820   47.8590 C   0  0  0  0  0  0  0  0  0  0  0  0
  2  1  2  6  0  0  0
  2 15  1  0  0  0  0
  2  5  1  0  0  0  0
  3  2  1  0  0  0  0
  4  3  1  0  0  0  0
  5  6  1  0  0  0  0
  6  7  1  0  0  0  0
  7 12  1  0  0  0  0
  7  8  2  0  0  0  0
  8 13  1  0  0  0  0
  9  8  1  0  0  0  0
 10  9  2  0  0  0  0
 11  6  2  0  0  0  0
 11 10  1  0  0  0  0
 14 10  1  0  0  0  0
 16 26  1  0  0  0  0
 16 15  1  0  0  0  0
 17 16  2  0  0  0  0
 18 17  1  0  0  0  0
 19 20  2  0  0  0  0
 19 17  1  0  0  0  0
 20 21  1  0  0  0  0
 21 22  2  0  0  0  0
 21 26  1  0  0  0  0
 22 23  1  0  0  0  0
 23 24  2  0  0  0  0
 25 24  1  0  0  0  0
 26 25  2  0  0  0  0
M  END
>  <minimizedAffinity>
-5.08361626

>  <minimizedRMSD>
2.31145525

$$$$
