REMARK  Name = 
REMARK  4 active torsions:
REMARK  status: ('A' for Active; 'I' for Inactive)
REMARK    1  A    between atoms: C_3  and  C_7
REMARK    2  A    between atoms: C_7  and  C_8
REMARK    3  A    between atoms: C_8  and  S_9
REMARK    4  A    between atoms: S_9  and  C_17
REMARK                            x       y       z     vdW  Elec       q    Type
REMARK                         _______ _______ _______ _____ _____    ______ ____
ROOT
ATOM      1  C   UNL     1      38.733  31.858  48.132  0.00  0.00    +0.000 C 
ATOM      2  H   UNL     1      39.088  32.218  47.120  0.00  0.00    +0.000 HD
ATOM      3  H   UNL     1      39.550  31.216  48.484  0.00  0.00    +0.000 HD
ENDROOT
BRANCH   1   4
ATOM      4  C   UNL     1      37.438  31.149  47.843  0.00  0.00    +0.000 C 
ATOM      5  H   UNL     1      36.711  31.941  47.560  0.00  0.00    +0.000 HD
ATOM      6  H   UNL     1      37.496  30.485  46.962  0.00  0.00    +0.000 HD
BRANCH   4   9
ATOM      7  C   UNL     1      37.060  29.426  51.176  0.00  0.00    +0.000 A 
ATOM      8  C   UNL     1      37.685  30.032  50.097  0.00  0.00    +0.000 A 
ATOM      9  C   UNL     1      36.915  30.486  49.053  0.00  0.00    +0.000 A 
ATOM     10  N   UNL     1      35.550  30.311  49.145  0.00  0.00    +0.000 NA
ATOM     11  C   UNL     1      34.959  29.721  50.198  0.00  0.00    +0.000 A 
ATOM     12  N   UNL     1      35.726  29.280  51.213  0.00  0.00    +0.000 NA
ATOM     13  H   UNL     1      37.718  29.088  51.968  0.00  0.00    +0.000 HD
ATOM     14  H   UNL     1      38.756  30.163  50.040  0.00  0.00    +0.000 HD
ATOM     15  H   UNL     1      33.875  29.627  50.181  0.00  0.00    +0.000 HD
ENDBRANCH   4   9
ENDBRANCH   1   4
BRANCH   1  16
ATOM     16  S   UNL     1      38.487  33.340  49.120  0.00  0.00    +0.000 S 
BRANCH  16  17
ATOM     17  C   UNL     1      40.089  34.106  49.405  0.00  0.00    +0.000 A 
ATOM     18  C   UNL     1      40.296  34.833  50.576  0.00  0.00    +0.000 A 
ATOM     19  H   UNL     1      39.500  34.937  51.310  0.00  0.00    +0.000 HD
ATOM     20  C   UNL     1      41.532  35.432  50.810  0.00  0.00    +0.000 A 
ATOM     21  C   UNL     1      42.561  35.314  49.892  0.00  0.00    +0.000 A 
ATOM     22  C   UNL     1      42.354  34.602  48.748  0.00  0.00    +0.000 A 
ATOM     23  C   UNL     1      43.368  34.467  47.809  0.00  0.00    +0.000 A 
ATOM     24  C   UNL     1      43.117  33.734  46.657  0.00  0.00    +0.000 A 
ATOM     25  C   UNL     1      41.892  33.127  46.401  0.00  0.00    +0.000 A 
ATOM     26  C   UNL     1      40.886  33.268  47.345  0.00  0.00    +0.000 A 
ATOM     27  C   UNL     1      41.135  34.006  48.508  0.00  0.00    +0.000 A 
ENDBRANCH  16  17
ENDBRANCH   1  16
TORSDOF 4
