
     RDKit          3D

 40 43  0  0  0  0  0  0  0  0999 V2000
   38.0133   30.3145   50.1890 C   0  0  0  0  0  0  0  0  0  0  0  0
   37.3990   30.5000   48.9322 C   0  0  0  0  0  0  0  0  0  0  0  0
   36.0666   30.1053   48.8065 C   0  0  0  0  0  0  0  0  0  0  0  0
   35.4246   29.5678   49.8790 N   0  0  0  0  0  0  0  0  0  0  0  0
   36.0583   29.4036   51.0871 C   0  0  0  0  0  0  0  0  0  0  0  0
   37.3613   29.7825   51.2331 N   0  0  0  0  0  0  0  0  0  0  0  0
   38.2009   31.0798   47.8912 C   0  0  0  0  0  0  0  0  0  0  0  0
   38.5294   30.2722   46.8206 C   0  0  0  0  0  0  0  0  0  0  0  0
   39.2882   30.6542   45.7327 C   0  0  0  0  0  0  0  0  0  0  0  0
   39.7697   31.9774   45.7089 C   0  0  0  0  0  0  0  0  0  0  0  0
   39.4485   32.8070   46.7804 C   0  0  0  0  0  0  0  0  0  0  0  0
   38.6882   32.3827   47.8446 C   0  0  0  0  0  0  0  0  0  0  0  0
   38.2575   33.4100   49.2289 S   0  0  0  0  0  0  0  0  0  0  0  0
   35.2884   30.2420   47.5346 C   0  0  0  0  0  0  0  0  0  0  0  0
   34.0160   30.7632   47.8279 F   0  0  0  0  0  0  0  0  0  0  0  0
   35.8558   30.9801   46.5594 F   0  0  0  0  0  0  0  0  0  0  0  0
   34.9954   28.9656   47.0429 F   0  0  0  0  0  0  0  0  0  0  0  0
   39.0466   30.6111   50.3175 H   0  0  0  0  0  0  0  0  0  0  0  0
   35.4164   28.9620   51.8471 H   0  0  0  0  0  0  0  0  0  0  0  0
   38.1840   29.2386   46.7857 H   0  0  0  0  0  0  0  0  0  0  0  0
   39.5107   29.9696   44.9228 H   0  0  0  0  0  0  0  0  0  0  0  0
   40.3713   32.3314   44.8780 H   0  0  0  0  0  0  0  0  0  0  0  0
   39.7992   33.8193   46.7927 H   0  0  0  0  0  0  0  0  0  0  0  0
   38.9151   35.0501   49.0931 C   0  0  0  0  0  0  0  0  0  0  0  0
   38.1482   36.1964   49.0634 C   0  0  0  0  0  0  0  0  0  0  0  0
   37.0733   36.0959   49.1266 H   0  0  0  0  0  0  0  0  0  0  0  0
   38.8109   37.4163   48.9531 C   0  0  0  0  0  0  0  0  0  0  0  0
   40.1863   37.5037   48.8746 C   0  0  0  0  0  0  0  0  0  0  0  0
   40.9519   36.3460   48.9052 C   0  0  0  0  0  0  0  0  0  0  0  0
   42.3279   36.4283   48.8270 C   0  0  0  0  0  0  0  0  0  0  0  0
   43.1071   35.3120   48.8543 C   0  0  0  0  0  0  0  0  0  0  0  0
   42.4881   34.0653   48.9638 C   0  0  0  0  0  0  0  0  0  0  0  0
   41.1115   34.0151   49.0401 C   0  0  0  0  0  0  0  0  0  0  0  0
   40.2916   35.1244   49.0154 C   0  0  0  0  0  0  0  0  0  0  0  0
   38.2148   38.3215   48.9291 H   0  0  0  0  0  0  0  0  0  0  0  0
   40.7062   38.4475   48.7890 H   0  0  0  0  0  0  0  0  0  0  0  0
   42.8578   37.3757   48.7405 H   0  0  0  0  0  0  0  0  0  0  0  0
   44.1865   35.2407   48.8013 H   0  0  0  0  0  0  0  0  0  0  0  0
   43.0463   33.1307   48.9916 H   0  0  0  0  0  0  0  0  0  0  0  0
   40.6430   33.0254   49.1259 H   0  0  0  0  0  0  0  0  0  0  0  0
  1  6  2  0
  2  1  1  0
  3  2  2  0
  3  4  1  0
  4  5  2  0
  5  6  1  0
  7  2  1  0
  8  7  2  0
  9  8  1  0
 10  9  2  0
 10 11  1  0
 11 12  2  0
 12  7  1  0
 12 13  1  0
 14 15  1  0
 14  3  1  0
 16 14  1  0
 17 14  1  0
  1 18  1  0
  5 19  1  0
  8 20  1  0
  9 21  1  0
 10 22  1  0
 11 23  1  0
 24 25  2  0
 25 26  1  0
 25 27  1  0
 27 28  2  0
 28 29  1  0
 29 30  2  0
 30 31  1  0
 31 32  2  0
 32 33  1  0
 33 34  2  0
 34 24  1  0
 34 29  1  0
 27 35  1  0
 28 36  1  0
 30 37  1  0
 31 38  1  0
 32 39  1  0
 33 40  1  0
 13 24  1  0
M  ISO  7  18  14  19  14  20  14  21  14  22  14  23  14  26  15
M  END
>  <DihAtoms>  (1) 
11,12,23,24

>  <DihDeg>  (1) 
-89.99923693507252

$$$$
