
 OpenBabel03272503473D

 26 28  0  0  0  0  0  0  0  0999 V2000
   35.5850   30.3350   46.6710 O   0  0  0  0  0  0  0  0  0  0  0  0
   34.3130   30.0640   47.4430 P   0  0  2  0  0  0  0  0  0  0  0  0
   33.1040   30.9910   46.6990 O   0  0  0  0  0  0  0  0  0  0  0  0
   32.4970   30.4210   46.1540 H   0  0  0  0  0  0  0  0  0  0  0  0
   34.4630   30.5280   49.0960 O   0  0  0  0  0  0  0  0  0  0  0  0
   35.6550   30.4260   49.7900 C   0  0  0  0  0  0  0  0  0  0  0  0
   35.9690   29.4310   50.7250 C   0  0  0  0  0  0  0  0  0  0  0  0
   37.2190   29.4680   51.3430 C   0  0  0  0  0  0  0  0  0  0  0  0
   38.0770   30.4710   51.0080 N   0  0  0  0  0  0  0  0  0  0  0  0
   37.7370   31.4190   50.0990 C   0  0  0  0  0  0  0  0  0  0  0  0
   36.5220   31.4060   49.4800 N   0  0  0  0  0  0  0  0  0  0  0  0
   35.2190   28.7000   50.9040 H   0  0  0  0  0  0  0  0  0  0  0  0
   37.4340   28.6920   52.0560 H   0  0  0  0  0  0  0  0  0  0  0  0
   38.4900   32.1790   49.8960 H   0  0  0  0  0  0  0  0  0  0  0  0
   33.9070   28.4230   47.4510 O   0  0  0  0  0  0  0  0  0  0  0  0
   33.8160   27.7460   46.2430 C   0  0  0  0  0  0  0  0  0  0  0  0
   34.1940   28.2030   44.9980 C   0  0  0  0  0  0  0  0  0  0  0  0
   34.6050   29.1940   44.9740 H   0  0  0  0  0  0  0  0  0  0  0  0
   34.0430   27.4140   43.8760 C   0  0  0  0  0  3  0  0  0  0  0  0
   33.5030   26.1250   43.9450 C   0  0  0  0  0  3  0  0  0  0  0  0
   33.1320   25.6920   45.2010 C   0  0  0  0  0  0  0  0  0  0  0  0
   32.5970   24.4010   45.2350 C   0  0  0  0  0  3  0  0  0  0  0  0
   32.2120   23.9300   46.4800 C   0  0  0  0  0  3  0  0  0  0  0  0
   32.3290   24.6560   47.6580 C   0  0  0  0  0  3  0  0  0  0  0  0
   32.8680   25.9210   47.5350 C   0  0  0  0  0  3  0  0  0  0  0  0
   33.2750   26.4640   46.3360 C   0  0  0  0  0  0  0  0  0  0  0  0
  2  1  2  6  0  0  0
  2 15  1  0  0  0  0
  2  5  1  0  0  0  0
  3  2  1  0  0  0  0
  4  3  1  0  0  0  0
  5  6  1  0  0  0  0
  6  7  1  0  0  0  0
  7 12  1  0  0  0  0
  7  8  2  0  0  0  0
  8 13  1  0  0  0  0
  9  8  1  0  0  0  0
 10  9  2  0  0  0  0
 11  6  2  0  0  0  0
 11 10  1  0  0  0  0
 14 10  1  0  0  0  0
 16 26  1  0  0  0  0
 16 15  1  0  0  0  0
 17 16  2  0  0  0  0
 18 17  1  0  0  0  0
 19 20  2  0  0  0  0
 19 17  1  0  0  0  0
 20 21  1  0  0  0  0
 21 22  2  0  0  0  0
 21 26  1  0  0  0  0
 22 23  1  0  0  0  0
 23 24  2  0  0  0  0
 25 24  1  0  0  0  0
 26 25  2  0  0  0  0
M  END
>  <minimizedAffinity>
-4.57057285

>  <minimizedRMSD>
0.338395625

$$$$
