
 OpenBabel03272503503D

 39 42  0  0  1  0  0  0  0  0999 V2000
   33.2430   27.3100   45.8380 C   0  0  1  0  0  0  0  0  0  0  0  0
   33.9290   27.4650   47.2140 C   0  0  2  0  0  0  0  0  0  0  0  0
   33.7660   26.2490   47.7960 O   0  0  0  0  0  0  0  0  0  0  0  0
   34.1090   25.3460   46.8020 C   0  0  0  0  0  0  0  0  0  0  0  0
   33.6570   25.9070   45.4700 C   0  0  2  0  0  0  0  0  0  0  0  0
   33.6490   28.0760   45.1480 H   0  0  0  0  0  0  0  0  0  0  0  0
   34.9780   27.7290   46.9510 H   0  0  0  0  0  0  0  0  0  0  0  0
   35.1760   25.0670   46.8050 H   0  0  0  0  0  0  0  0  0  0  0  0
   33.5240   24.4200   46.9810 H   0  0  0  0  0  0  0  0  0  0  0  0
   32.7790   25.3600   45.0770 H   0  0  0  0  0  0  0  0  0  0  0  0
   31.8810   27.4990   45.9550 O   0  0  0  0  0  0  0  0  0  0  0  0
   31.5570   28.1660   45.2970 H   0  0  0  0  0  0  0  0  0  0  0  0
   33.2770   28.5190   47.8010 O   0  0  0  0  0  0  0  0  0  0  0  0
   35.3340   29.8310   46.7840 O   0  0  0  0  0  0  0  0  0  0  0  0
   34.0670   29.9950   47.6190 P   0  0  1  0  0  0  0  0  0  0  0  0
   33.0990   31.0690   46.7380 O   0  0  0  0  0  0  0  0  0  0  0  0
   32.3630   31.3310   47.3750 H   0  0  0  0  0  0  0  0  0  0  0  0
   34.3610   30.5950   49.1890 O   0  0  0  0  0  0  0  0  0  0  0  0
   35.6050   30.4810   49.7920 C   0  0  0  0  0  0  0  0  0  0  0  0
   35.9650   29.4580   50.7020 C   0  0  0  0  0  0  0  0  0  0  0  0
   37.2510   29.4770   51.2250 C   0  0  0  0  0  0  0  0  0  0  0  0
   38.1040   30.4790   50.8350 N   0  0  0  0  0  0  0  0  0  0  0  0
   37.7310   31.4460   49.9610 C   0  0  0  0  0  0  0  0  0  0  0  0
   36.4770   31.4510   49.4350 N   0  0  0  0  0  0  0  0  0  0  0  0
   35.2190   28.7400   50.9240 H   0  0  0  0  0  0  0  0  0  0  0  0
   37.5180   28.7090   51.9060 H   0  0  0  0  0  0  0  0  0  0  0  0
   38.4140   32.2290   49.6650 H   0  0  0  0  0  0  0  0  0  0  0  0
   34.7000   25.9240   44.5840 O   0  0  0  0  0  0  0  0  0  0  0  0
   35.1160   24.8040   43.9130 C   0  0  0  0  0  0  0  0  0  0  0  0
   35.7670   23.6780   44.3230 C   0  0  0  0  0  0  0  0  0  0  0  0
   36.0110   23.6400   45.3700 H   0  0  0  0  0  0  0  0  0  0  0  0
   36.1060   22.6400   43.4890 C   0  0  0  0  0  3  0  0  0  0  0  0
   35.7980   22.6800   42.1460 C   0  0  0  0  0  3  0  0  0  0  0  0
   35.1310   23.8210   41.6960 C   0  0  0  0  0  0  0  0  0  0  0  0
   34.8460   23.8100   40.3460 C   0  0  0  0  0  3  0  0  0  0  0  0
   34.1900   24.8890   39.8040 C   0  0  0  0  0  3  0  0  0  0  0  0
   33.8350   25.9460   40.6100 C   0  0  0  0  0  3  0  0  0  0  0  0
   34.1350   25.9230   41.9550 C   0  0  0  0  0  3  0  0  0  0  0  0
   34.7910   24.8670   42.5520 C   0  0  0  0  0  0  0  0  0  0  0  0
  1  6  1  6  0  0  0
  1 11  1  0  0  0  0
  1  2  1  0  0  0  0
  2  7  1  6  0  0  0
  2  3  1  0  0  0  0
  2 13  1  0  0  0  0
  4  8  1  0  0  0  0
  4  9  1  0  0  0  0
  4  3  1  0  0  0  0
  5 10  1  6  0  0  0
  5  1  1  0  0  0  0
  5  4  1  0  0  0  0
 12 11  1  0  0  0  0
 15 14  2  6  0  0  0
 15 13  1  0  0  0  0
 15 18  1  0  0  0  0
 16 17  1  0  0  0  0
 16 15  1  0  0  0  0
 18 19  1  0  0  0  0
 19 20  1  0  0  0  0
 20 25  1  0  0  0  0
 20 21  2  0  0  0  0
 21 26  1  0  0  0  0
 22 21  1  0  0  0  0
 23 22  2  0  0  0  0
 24 19  2  0  0  0  0
 24 23  1  0  0  0  0
 27 23  1  0  0  0  0
 28  5  1  0  0  0  0
 29 30  1  0  0  0  0
 29 28  1  0  0  0  0
 30 31  1  0  0  0  0
 32 30  2  0  0  0  0
 33 32  1  0  0  0  0
 34 33  2  0  0  0  0
 34 39  1  0  0  0  0
 35 34  1  0  0  0  0
 36 35  2  0  0  0  0
 36 37  1  0  0  0  0
 37 38  2  0  0  0  0
 38 39  1  0  0  0  0
 39 29  2  0  0  0  0
M  END
>  <minimizedAffinity>
-4.07161856

>  <minimizedRMSD>
1.82950139

$$$$
