
     RDKit          3D

 46 50  0  0  0  0  0  0  0  0999 V2000
   35.8158   30.5437   49.0732 C   0  0  1  0  0  0  0  0  0  0  0  0
   35.9052   29.1226   48.8319 C   0  0  1  0  0  0  0  0  0  0  0  0
   36.0731   29.5811   50.2433 C   0  0  0  0  0  0  0  0  0  0  0  0
   37.0103   31.4524   48.8213 C   0  0  0  0  0  0  0  0  0  0  0  0
   37.1828   32.5264   49.6969 C   0  0  0  0  0  0  0  0  0  0  0  0
   38.2726   33.3428   49.4090 C   0  0  0  0  0  0  0  0  0  0  0  0
   39.0854   33.0915   48.3557 N   0  0  0  0  0  0  0  0  0  0  0  0
   38.8773   32.0303   47.5284 C   0  0  0  0  0  0  0  0  0  0  0  0
   37.8270   31.2001   47.7636 N   0  0  0  0  0  0  0  0  0  0  0  0
   33.9649   29.0756   47.3745 C   0  0  2  0  0  0  0  0  0  0  0  0
   34.7381   28.2821   48.4176 C   0  0  2  0  0  0  0  0  0  0  0  0
   33.8641   28.0765   49.4423 O   0  0  0  0  0  0  0  0  0  0  0  0
   32.5802   28.1368   49.0055 C   0  0  0  0  0  0  0  0  0  0  0  0
   32.6043   28.3810   47.5097 C   0  0  1  0  0  0  0  0  0  0  0  0
   34.4630   28.9614   46.0962 O   0  0  0  0  0  0  0  0  0  0  0  0
   31.5819   29.1688   47.0529 O   0  0  0  0  0  0  0  0  0  0  0  0
   34.8901   31.1328   49.2912 H   0  0  0  0  0  0  0  0  0  0  0  0
   36.8491   28.7888   48.3120 H   0  0  0  0  0  0  0  0  0  0  0  0
   35.2747   29.3772   50.9678 H   0  0  0  0  0  0  0  0  0  0  0  0
   37.1003   29.5443   50.6790 H   0  0  0  0  0  0  0  0  0  0  0  0
   36.5000   32.6751   50.5209 H   0  0  0  0  0  0  0  0  0  0  0  0
   38.4462   34.1908   50.0632 H   0  0  0  0  0  0  0  0  0  0  0  0
   39.5504   31.8690   46.7017 H   0  0  0  0  0  0  0  0  0  0  0  0
   33.8547   30.1290   47.6335 H   0  0  0  0  0  0  0  0  0  0  0  0
   35.0154   27.3158   47.9797 H   0  0  0  0  0  0  0  0  0  0  0  0
   32.1226   29.0681   49.4470 H   0  0  0  0  0  0  0  0  0  0  0  0
   31.9377   27.2975   49.2856 H   0  0  0  0  0  0  0  0  0  0  0  0
   32.6739   27.3791   47.0251 H   0  0  0  0  0  0  0  0  0  0  0  0
   35.4361   28.8010   46.0428 H   0  0  0  0  0  0  0  0  0  0  0  0
   30.6661   28.8551   46.0891 C   0  0  0  0  0  0  0  0  0  0  0  0
   30.8885   28.2658   44.8663 C   0  0  0  0  0  0  0  0  0  0  0  0
   31.9182   28.0222   44.6444 H   0  0  0  0  0  0  0  0  0  0  0  0
   29.8848   27.9909   43.9609 C   0  0  0  0  0  0  0  0  0  0  0  0
   28.5850   28.3207   44.2899 C   0  0  0  0  0  0  0  0  0  0  0  0
   28.2900   28.9190   45.5104 C   0  0  0  0  0  0  0  0  0  0  0  0
   26.9871   29.2437   45.8270 C   0  0  0  0  0  0  0  0  0  0  0  0
   26.7177   29.8345   47.0390 C   0  0  0  0  0  0  0  0  0  0  0  0
   27.7119   30.1122   47.9474 C   0  0  0  0  0  0  0  0  0  0  0  0
   28.9999   29.7669   47.5813 C   0  0  0  0  0  0  0  0  0  0  0  0
   29.3383   29.1674   46.3712 C   0  0  0  0  0  0  0  0  0  0  0  0
   30.2017   27.5265   43.0399 H   0  0  0  0  0  0  0  0  0  0  0  0
   27.8190   28.0943   43.5627 H   0  0  0  0  0  0  0  0  0  0  0  0
   26.2461   29.0054   45.0815 H   0  0  0  0  0  0  0  0  0  0  0  0
   25.6960   30.0867   47.2820 H   0  0  0  0  0  0  0  0  0  0  0  0
   27.5041   30.5723   48.8917 H   0  0  0  0  0  0  0  0  0  0  0  0
   29.7656   30.0000   48.3231 H   0  0  0  0  0  0  0  0  0  0  0  0
  1  3  1  0
  2  1  1  0
  2  3  1  0
  4  1  1  0
  4  5  2  0
  6  5  1  0
  7  6  2  0
  8  9  2  0
  8  7  1  0
  9  4  1  0
 10 15  1  0
 10 14  1  0
 10 11  1  0
 11  2  1  0
 11 12  1  0
 13 12  1  0
 14 16  1  0
 14 13  1  0
  1 17  1  1
  2 18  1  6
  3 19  1  0
  3 20  1  0
  5 21  1  0
  6 22  1  0
  8 23  1  0
 10 24  1  1
 11 25  1  6
 13 26  1  0
 13 27  1  0
 14 28  1  6
 15 29  1  0
 30 31  2  0
 31 32  1  0
 31 33  1  0
 33 34  2  0
 34 35  1  0
 35 36  2  0
 36 37  1  0
 37 38  2  0
 38 39  1  0
 39 40  2  0
 40 30  1  0
 40 35  1  0
 33 41  1  0
 34 42  1  0
 36 43  1  0
 37 44  1  0
 38 45  1  0
 39 46  1  0
 16 30  1  0
M  ISO  8  17  13  18  13  19  13  20  13  21  14  22  14  23  14  24  13
M  ISO  6  25  13  26  13  27  13  28  13  29   3  32  15
M  END
>  <DihAtoms>  (1) 
13,15,29,30

>  <DihDeg>  (1) 
-0.009359597632320674

$$$$
