
 OpenBabel03272506253D

 34 37  0  0  0  0  0  0  0  0999 V2000
   38.8330   24.7790   35.2400 C   0  0  0  0  0  0  0  0  0  0  0  0
   38.5140   26.0160   35.7650 C   0  0  0  0  0  0  0  0  0  0  0  0
   37.7320   26.9700   35.1470 C   0  0  0  0  0  0  0  0  0  0  0  0
   37.2130   26.6610   33.8740 C   0  0  0  0  0  0  0  0  0  0  0  0
   37.5240   25.4180   33.3280 C   0  0  0  0  0  0  0  0  0  0  0  0
   38.3100   24.4960   33.9820 C   0  0  0  0  0  0  0  0  0  0  0  0
   38.8870   26.3090   36.7460 H   0  0  0  0  0  0  0  0  0  0  0  0
   37.5180   27.9240   35.6130 H   0  0  0  0  0  0  0  0  0  0  0  0
   36.5930   27.3740   33.3420 H   0  0  0  0  0  0  0  0  0  0  0  0
   37.1470   25.1510   32.3620 H   0  0  0  0  0  0  0  0  0  0  0  0
   40.9410   23.6070   35.5270 C   0  0  0  0  0  0  0  0  0  0  0  0
   39.6630   23.9200   36.0370 C   0  0  0  0  0  0  0  0  0  0  0  0
   39.3130   23.3690   37.2700 C   0  0  0  0  0  0  0  0  0  0  0  0
   40.2010   22.5690   37.9200 N   0  0  0  0  0  0  0  0  0  0  0  0
   41.4370   22.2880   37.3910 C   0  0  0  0  0  0  0  0  0  0  0  0
   41.8000   22.8150   36.1850 N   0  0  0  0  0  0  0  0  0  0  0  0
   41.2410   24.0190   34.5720 H   0  0  0  0  0  0  0  0  0  0  0  0
   42.0330   21.6350   38.0250 H   0  0  0  0  0  0  0  0  0  0  0  0
   37.9940   23.6140   37.9330 C   0  0  0  0  0  0  0  0  0  0  0  0
   37.7830   22.6330   38.9160 F   0  0  0  0  0  0  0  0  0  0  0  0
   37.8130   24.8350   38.4780 F   0  0  0  0  0  0  0  0  0  0  0  0
   36.9710   23.3590   37.0140 F   0  0  0  0  0  0  0  0  0  0  0  0
   38.7280   22.9020   33.3200 S   0  0  0  0  0  0  0  0  0  0  0  0
   37.4020   21.7350   33.4590 C   0  0  0  0  0  0  0  0  0  0  0  0
   36.6380   21.5570   34.5940 C   0  0  0  0  0  0  0  0  0  0  0  0
   36.8570   22.1670   35.4600 H   0  0  0  0  0  0  0  0  0  0  0  0
   35.6290   20.5980   34.5510 C   0  0  0  0  0  3  0  0  0  0  0  0
   35.3810   19.8380   33.4250 C   0  0  0  0  0  3  0  0  0  0  0  0
   36.1540   20.0230   32.2870 C   0  0  0  0  0  0  0  0  0  0  0  0
   35.9090   19.2670   31.1580 C   0  0  0  0  0  3  0  0  0  0  0  0
   36.6480   19.4220   30.0270 C   0  0  0  0  0  3  0  0  0  0  0  0
   37.6730   20.3720   30.0210 C   0  0  0  0  0  3  0  0  0  0  0  0
   37.8930   21.1130   31.1630 C   0  0  0  0  0  3  0  0  0  0  0  0
   37.1630   20.9820   32.3270 C   0  0  0  0  0  0  0  0  0  0  0  0
  1  2  1  0  0  0  0
  1 12  1  0  0  0  0
  2  7  1  0  0  0  0
  3  8  1  0  0  0  0
  3  2  2  0  0  0  0
  4  3  1  0  0  0  0
  5  4  2  0  0  0  0
  5  6  1  0  0  0  0
  6  1  2  0  0  0  0
  9  4  1  0  0  0  0
 10  5  1  0  0  0  0
 11 12  2  0  0  0  0
 11 16  1  0  0  0  0
 12 13  1  0  0  0  0
 13 14  2  0  0  0  0
 13 19  1  0  0  0  0
 15 14  1  0  0  0  0
 15 18  1  0  0  0  0
 16 15  2  0  0  0  0
 17 11  1  0  0  0  0
 19 21  1  0  0  0  0
 19 20  1  0  0  0  0
 22 19  1  0  0  0  0
 23 24  1  0  0  0  0
 23  6  1  0  0  0  0
 24 25  1  0  0  0  0
 25 26  1  0  0  0  0
 27 25  2  0  0  0  0
 28 27  1  0  0  0  0
 29 34  1  0  0  0  0
 29 28  2  0  0  0  0
 30 29  1  0  0  0  0
 31 30  2  0  0  0  0
 32 31  1  0  0  0  0
 32 33  2  0  0  0  0
 33 34  1  0  0  0  0
 34 24  2  0  0  0  0
M  END
>  <minimizedAffinity>
-6.7679038

$$$$

 OpenBabel03272506253D

 34 37  0  0  0  0  0  0  0  0999 V2000
   39.4460   24.5150   34.9860 C   0  0  0  0  0  0  0  0  0  0  0  0
   40.7800   24.1750   35.0870 C   0  0  0  0  0  0  0  0  0  0  0  0
   41.8400   25.0500   34.9600 C   0  0  0  0  0  0  0  0  0  0  0  0
   41.5400   26.4030   34.7080 C   0  0  0  0  0  0  0  0  0  0  0  0
   40.1990   26.7640   34.6030 C   0  0  0  0  0  0  0  0  0  0  0  0
   39.1740   25.8560   34.7360 C   0  0  0  0  0  0  0  0  0  0  0  0
   41.0720   23.1430   35.2810 H   0  0  0  0  0  0  0  0  0  0  0  0
   42.8680   24.7200   35.0510 H   0  0  0  0  0  0  0  0  0  0  0  0
   42.3340   27.1340   34.5990 H   0  0  0  0  0  0  0  0  0  0  0  0
   39.9360   27.7840   34.4110 H   0  0  0  0  0  0  0  0  0  0  0  0
   38.0890   22.7660   33.9840 C   0  0  0  0  0  0  0  0  0  0  0  0
   38.4840   23.4600   35.1470 C   0  0  0  0  0  0  0  0  0  0  0  0
   37.9090   23.0640   36.3550 C   0  0  0  0  0  0  0  0  0  0  0  0
   37.0080   22.0440   36.3630 N   0  0  0  0  0  0  0  0  0  0  0  0
   36.6490   21.3930   35.2080 C   0  0  0  0  0  0  0  0  0  0  0  0
   37.1990   21.7640   34.0150 N   0  0  0  0  0  0  0  0  0  0  0  0
   38.5190   23.0500   33.0310 H   0  0  0  0  0  0  0  0  0  0  0  0
   35.9200   20.6020   35.3750 H   0  0  0  0  0  0  0  0  0  0  0  0
   38.2320   23.7080   37.6670 C   0  0  0  0  0  0  0  0  0  0  0  0
   39.5350   23.3470   38.0490 F   0  0  0  0  0  0  0  0  0  0  0  0
   38.1090   25.0500   37.7240 F   0  0  0  0  0  0  0  0  0  0  0  0
   37.4430   23.1250   38.6650 F   0  0  0  0  0  0  0  0  0  0  0  0
   37.4530   26.2780   34.6090 S   0  0  0  0  0  0  0  0  0  0  0  0
   37.0630   27.1130   33.0950 C   0  0  0  0  0  0  0  0  0  0  0  0
   37.3340   26.6130   31.8380 C   0  0  0  0  0  0  0  0  0  0  0  0
   37.8160   25.6470   31.7640 H   0  0  0  0  0  0  0  0  0  0  0  0
   36.9680   27.3880   30.7410 C   0  0  0  0  0  3  0  0  0  0  0  0
   36.3540   28.6170   30.8780 C   0  0  0  0  0  3  0  0  0  0  0  0
   36.0850   29.1130   32.1460 C   0  0  0  0  0  0  0  0  0  0  0  0
   35.4710   30.3420   32.2880 C   0  0  0  0  0  3  0  0  0  0  0  0
   35.1930   30.8580   33.5160 C   0  0  0  0  0  3  0  0  0  0  0  0
   35.5420   30.1170   34.6480 C   0  0  0  0  0  3  0  0  0  0  0  0
   36.1540   28.8930   34.4740 C   0  0  0  0  0  3  0  0  0  0  0  0
   36.4500   28.3410   33.2460 C   0  0  0  0  0  0  0  0  0  0  0  0
  1  2  1  0  0  0  0
  1 12  1  0  0  0  0
  2  7  1  0  0  0  0
  3  8  1  0  0  0  0
  3  2  2  0  0  0  0
  4  3  1  0  0  0  0
  5  4  2  0  0  0  0
  5  6  1  0  0  0  0
  6  1  2  0  0  0  0
  9  4  1  0  0  0  0
 10  5  1  0  0  0  0
 11 16  2  0  0  0  0
 11 12  1  0  0  0  0
 12 13  2  0  0  0  0
 13 14  1  0  0  0  0
 13 19  1  0  0  0  0
 15 18  1  0  0  0  0
 15 14  2  0  0  0  0
 16 15  1  0  0  0  0
 17 11  1  0  0  0  0
 19 21  1  0  0  0  0
 19 20  1  0  0  0  0
 19 22  1  0  0  0  0
 23  6  1  0  0  0  0
 24 34  1  0  0  0  0
 24 23  1  0  0  0  0
 25 24  2  0  0  0  0
 26 25  1  0  0  0  0
 27 28  2  0  0  0  0
 27 25  1  0  0  0  0
 28 29  1  0  0  0  0
 29 30  2  0  0  0  0
 29 34  1  0  0  0  0
 30 31  1  0  0  0  0
 31 32  2  0  0  0  0
 33 32  1  0  0  0  0
 34 33  2  0  0  0  0
M  END
>  <minimizedAffinity>
-6.62673426

$$$$

 OpenBabel03272506253D

 34 37  0  0  0  0  0  0  0  0999 V2000
   37.6070   26.6030   32.3930 C   0  0  0  0  0  0  0  0  0  0  0  0
   36.6040   27.4920   32.0620 C   0  0  0  0  0  0  0  0  0  0  0  0
   35.9820   28.3590   32.9380 C   0  0  0  0  0  0  0  0  0  0  0  0
   36.4040   28.3390   34.2810 C   0  0  0  0  0  0  0  0  0  0  0  0
   37.4150   27.4490   34.6340 C   0  0  0  0  0  0  0  0  0  0  0  0
   38.0070   26.6020   33.7260 C   0  0  0  0  0  0  0  0  0  0  0  0
   36.2370   27.5510   31.0370 H   0  0  0  0  0  0  0  0  0  0  0  0
   35.1990   29.0340   32.6140 H   0  0  0  0  0  0  0  0  0  0  0  0
   35.9490   28.9990   35.0130 H   0  0  0  0  0  0  0  0  0  0  0  0
   37.7590   27.4080   35.6470 H   0  0  0  0  0  0  0  0  0  0  0  0
   39.2060   26.3020   30.5880 C   0  0  0  0  0  0  0  0  0  0  0  0
   38.1310   25.7800   31.3390 C   0  0  0  0  0  0  0  0  0  0  0  0
   37.6670   24.5100   30.9940 C   0  0  0  0  0  0  0  0  0  0  0  0
   38.2590   23.8380   29.9690 N   0  0  0  0  0  0  0  0  0  0  0  0
   39.3050   24.3810   29.2630 C   0  0  0  0  0  0  0  0  0  0  0  0
   39.7730   25.6230   29.5810 N   0  0  0  0  0  0  0  0  0  0  0  0
   39.5880   27.2870   30.8320 H   0  0  0  0  0  0  0  0  0  0  0  0
   39.6710   23.7260   28.4740 H   0  0  0  0  0  0  0  0  0  0  0  0
   36.5360   23.8300   31.7010 C   0  0  0  0  0  0  0  0  0  0  0  0
   36.9610   23.4420   32.9830 F   0  0  0  0  0  0  0  0  0  0  0  0
   35.3870   24.5290   31.8070 F   0  0  0  0  0  0  0  0  0  0  0  0
   36.2810   22.6060   31.0750 F   0  0  0  0  0  0  0  0  0  0  0  0
   39.2990   25.4540   34.1360 S   0  0  0  0  0  0  0  0  0  0  0  0
   39.0110   24.6210   35.6730 C   0  0  0  0  0  0  0  0  0  0  0  0
   37.9280   24.8560   36.4950 C   0  0  0  0  0  0  0  0  0  0  0  0
   37.2020   25.5960   36.1870 H   0  0  0  0  0  0  0  0  0  0  0  0
   37.8390   24.1210   37.6740 C   0  0  0  0  0  3  0  0  0  0  0  0
   38.7880   23.1850   38.0330 C   0  0  0  0  0  3  0  0  0  0  0  0
   39.8740   22.9540   37.2010 C   0  0  0  0  0  0  0  0  0  0  0  0
   40.8260   22.0170   37.5550 C   0  0  0  0  0  3  0  0  0  0  0  0
   41.9030   21.7670   36.7630 C   0  0  0  0  0  3  0  0  0  0  0  0
   42.0370   22.4790   35.5680 C   0  0  0  0  0  3  0  0  0  0  0  0
   41.0700   23.4070   35.2420 C   0  0  0  0  0  3  0  0  0  0  0  0
   39.9660   23.6860   36.0210 C   0  0  0  0  0  0  0  0  0  0  0  0
  1  6  1  0  0  0  0
  2  1  2  0  0  0  0
  2  3  1  0  0  0  0
  3  4  2  0  0  0  0
  4  5  1  0  0  0  0
  4  9  1  0  0  0  0
  5 10  1  0  0  0  0
  6 23  1  0  0  0  0
  6  5  2  0  0  0  0
  7  2  1  0  0  0  0
  8  3  1  0  0  0  0
 11 17  1  0  0  0  0
 11 12  1  0  0  0  0
 12  1  1  0  0  0  0
 13 12  2  0  0  0  0
 13 19  1  0  0  0  0
 14 13  1  0  0  0  0
 15 16  1  0  0  0  0
 15 14  2  0  0  0  0
 16 11  2  0  0  0  0
 18 15  1  0  0  0  0
 19 21  1  0  0  0  0
 19 20  1  0  0  0  0
 22 19  1  0  0  0  0
 23 24  1  0  0  0  0
 24 34  2  0  0  0  0
 24 25  1  0  0  0  0
 25 27  2  0  0  0  0
 26 25  1  0  0  0  0
 27 28  1  0  0  0  0
 29 30  1  0  0  0  0
 29 28  2  0  0  0  0
 31 30  2  0  0  0  0
 32 31  1  0  0  0  0
 33 32  2  0  0  0  0
 33 34  1  0  0  0  0
 34 29  1  0  0  0  0
M  END
>  <minimizedAffinity>
-6.61639452

$$$$

 OpenBabel03272506253D

 34 37  0  0  0  0  0  0  0  0999 V2000
   36.9970   21.9200   31.6860 C   0  0  0  0  0  0  0  0  0  0  0  0
   35.8620   21.3930   31.1030 C   0  0  0  0  0  0  0  0  0  0  0  0
   34.9360   20.5890   31.7380 C   0  0  0  0  0  0  0  0  0  0  0  0
   35.1650   20.2790   33.0930 C   0  0  0  0  0  0  0  0  0  0  0  0
   36.3050   20.8010   33.6970 C   0  0  0  0  0  0  0  0  0  0  0  0
   37.2020   21.5990   33.0250 C   0  0  0  0  0  0  0  0  0  0  0  0
   35.6340   21.5990   30.0580 H   0  0  0  0  0  0  0  0  0  0  0  0
   34.0630   20.2060   31.2230 H   0  0  0  0  0  0  0  0  0  0  0  0
   34.4700   19.6510   33.6400 H   0  0  0  0  0  0  0  0  0  0  0  0
   36.5090   20.5850   34.7260 H   0  0  0  0  0  0  0  0  0  0  0  0
   38.9330   22.1010   30.2290 C   0  0  0  0  0  0  0  0  0  0  0  0
   37.8420   22.7360   30.8600 C   0  0  0  0  0  0  0  0  0  0  0  0
   37.6770   24.1020   30.6300 C   0  0  0  0  0  0  0  0  0  0  0  0
   38.5550   24.7540   29.8210 N   0  0  0  0  0  0  0  0  0  0  0  0
   39.6050   24.0990   29.2240 C   0  0  0  0  0  0  0  0  0  0  0  0
   39.7870   22.7640   29.4360 N   0  0  0  0  0  0  0  0  0  0  0  0
   39.0880   21.0400   30.3890 H   0  0  0  0  0  0  0  0  0  0  0  0
   40.2190   24.7540   28.6080 H   0  0  0  0  0  0  0  0  0  0  0  0
   36.5660   24.9070   31.2310 C   0  0  0  0  0  0  0  0  0  0  0  0
   35.3760   24.6450   30.5310 F   0  0  0  0  0  0  0  0  0  0  0  0
   36.3500   24.7390   32.5520 F   0  0  0  0  0  0  0  0  0  0  0  0
   36.7920   26.2610   30.9650 F   0  0  0  0  0  0  0  0  0  0  0  0
   38.6660   22.2850   33.7600 S   0  0  0  0  0  0  0  0  0  0  0  0
   38.3280   23.1680   35.2590 C   0  0  0  0  0  0  0  0  0  0  0  0
   37.9090   22.5780   36.4330 C   0  0  0  0  0  0  0  0  0  0  0  0
   37.7750   21.5050   36.4480 H   0  0  0  0  0  0  0  0  0  0  0  0
   37.6830   23.4060   37.5290 C   0  0  0  0  0  3  0  0  0  0  0  0
   37.8640   24.7740   37.4710 C   0  0  0  0  0  3  0  0  0  0  0  0
   38.2870   25.3600   36.2860 C   0  0  0  0  0  0  0  0  0  0  0  0
   38.4710   26.7280   36.2220 C   0  0  0  0  0  3  0  0  0  0  0  0
   38.8830   27.3350   35.0760 C   0  0  0  0  0  3  0  0  0  0  0  0
   39.1230   26.5460   33.9490 C   0  0  0  0  0  3  0  0  0  0  0  0
   38.9310   25.1830   34.0430 C   0  0  0  0  0  3  0  0  0  0  0  0
   38.5140   24.5350   35.1880 C   0  0  0  0  0  0  0  0  0  0  0  0
  1  6  1  0  0  0  0
  2  1  2  0  0  0  0
  2  3  1  0  0  0  0
  3  4  2  0  0  0  0
  4  9  1  0  0  0  0
  4  5  1  0  0  0  0
  5 10  1  0  0  0  0
  6  5  2  0  0  0  0
  6 23  1  0  0  0  0
  7  2  1  0  0  0  0
  8  3  1  0  0  0  0
 11 17  1  0  0  0  0
 11 12  1  0  0  0  0
 12  1  1  0  0  0  0
 13 12  2  0  0  0  0
 13 19  1  0  0  0  0
 14 13  1  0  0  0  0
 15 16  1  0  0  0  0
 15 14  2  0  0  0  0
 16 11  2  0  0  0  0
 18 15  1  0  0  0  0
 19 21  1  0  0  0  0
 20 19  1  0  0  0  0
 22 19  1  0  0  0  0
 23 24  1  0  0  0  0
 24 25  1  0  0  0  0
 25 26  1  0  0  0  0
 25 27  2  0  0  0  0
 28 27  1  0  0  0  0
 29 28  2  0  0  0  0
 30 29  1  0  0  0  0
 31 30  2  0  0  0  0
 32 33  2  0  0  0  0
 32 31  1  0  0  0  0
 33 34  1  0  0  0  0
 34 24  2  0  0  0  0
 34 29  1  0  0  0  0
M  END
>  <minimizedAffinity>
-6.39373112

$$$$

 OpenBabel03272506253D

 34 37  0  0  0  0  0  0  0  0999 V2000
   37.8260   22.2860   33.4320 C   0  0  0  0  0  0  0  0  0  0  0  0
   36.9040   21.2600   33.4690 C   0  0  0  0  0  0  0  0  0  0  0  0
   35.7430   21.2010   32.7240 C   0  0  0  0  0  0  0  0  0  0  0  0
   35.4740   22.2750   31.8530 C   0  0  0  0  0  0  0  0  0  0  0  0
   36.3930   23.3190   31.8030 C   0  0  0  0  0  0  0  0  0  0  0  0
   37.5390   23.3360   32.5650 C   0  0  0  0  0  0  0  0  0  0  0  0
   37.0600   20.4030   34.1240 H   0  0  0  0  0  0  0  0  0  0  0  0
   35.0580   20.3650   32.7990 H   0  0  0  0  0  0  0  0  0  0  0  0
   34.5750   22.2810   31.2450 H   0  0  0  0  0  0  0  0  0  0  0  0
   36.2190   24.1510   31.1520 H   0  0  0  0  0  0  0  0  0  0  0  0
   40.2000   21.8250   33.6680 C   0  0  0  0  0  0  0  0  0  0  0  0
   38.9770   22.1670   34.2840 C   0  0  0  0  0  0  0  0  0  0  0  0
   38.9880   22.3600   35.6650 C   0  0  0  0  0  0  0  0  0  0  0  0
   40.1540   22.2150   36.3510 N   0  0  0  0  0  0  0  0  0  0  0  0
   41.3250   21.8820   35.7150 C   0  0  0  0  0  0  0  0  0  0  0  0
   41.3380   21.6870   34.3640 N   0  0  0  0  0  0  0  0  0  0  0  0
   40.2240   21.6690   32.5960 H   0  0  0  0  0  0  0  0  0  0  0  0
   42.1710   21.8020   36.3950 H   0  0  0  0  0  0  0  0  0  0  0  0
   37.7680   22.7260   36.4520 C   0  0  0  0  0  0  0  0  0  0  0  0
   37.2730   23.9570   35.9880 F   0  0  0  0  0  0  0  0  0  0  0  0
   36.7670   21.8210   36.4630 F   0  0  0  0  0  0  0  0  0  0  0  0
   38.1460   23.0180   37.7660 F   0  0  0  0  0  0  0  0  0  0  0  0
   38.7360   24.6480   32.5280 S   0  0  0  0  0  0  0  0  0  0  0  0
   38.4350   25.8820   33.7640 C   0  0  0  0  0  0  0  0  0  0  0  0
   39.1110   25.9640   34.9640 C   0  0  0  0  0  0  0  0  0  0  0  0
   39.8780   25.2290   35.1710 H   0  0  0  0  0  0  0  0  0  0  0  0
   38.7610   26.9910   35.8350 C   0  0  0  0  0  3  0  0  0  0  0  0
   37.7750   27.9100   35.5350 C   0  0  0  0  0  3  0  0  0  0  0  0
   37.0990   27.8210   34.3260 C   0  0  0  0  0  0  0  0  0  0  0  0
   36.1120   28.7380   34.0200 C   0  0  0  0  0  3  0  0  0  0  0  0
   35.4300   28.6790   32.8440 C   0  0  0  0  0  3  0  0  0  0  0  0
   35.7450   27.6650   31.9360 C   0  0  0  0  0  3  0  0  0  0  0  0
   36.7350   26.7650   32.2700 C   0  0  0  0  0  3  0  0  0  0  0  0
   37.4460   26.7950   33.4510 C   0  0  0  0  0  0  0  0  0  0  0  0
  1  2  1  0  0  0  0
  1 12  1  0  0  0  0
  2  7  1  0  0  0  0
  3  8  1  0  0  0  0
  3  2  2  0  0  0  0
  4  3  1  0  0  0  0
  5  4  2  0  0  0  0
  5  6  1  0  0  0  0
  6  1  2  0  0  0  0
  9  4  1  0  0  0  0
 10  5  1  0  0  0  0
 11 12  2  0  0  0  0
 11 16  1  0  0  0  0
 12 13  1  0  0  0  0
 13 14  2  0  0  0  0
 13 19  1  0  0  0  0
 15 14  1  0  0  0  0
 15 18  1  0  0  0  0
 16 15  2  0  0  0  0
 17 11  1  0  0  0  0
 19 21  1  0  0  0  0
 19 22  1  0  0  0  0
 20 19  1  0  0  0  0
 23  6  1  0  0  0  0
 23 24  1  0  0  0  0
 24 25  1  0  0  0  0
 25 26  1  0  0  0  0
 25 27  2  0  0  0  0
 28 27  1  0  0  0  0
 29 28  2  0  0  0  0
 30 29  1  0  0  0  0
 31 30  2  0  0  0  0
 32 33  2  0  0  0  0
 32 31  1  0  0  0  0
 33 34  1  0  0  0  0
 34 24  2  0  0  0  0
 34 29  1  0  0  0  0
M  END
>  <minimizedAffinity>
-6.36205006

$$$$

 OpenBabel03272506253D

 34 37  0  0  0  0  0  0  0  0999 V2000
   37.0170   22.9380   31.6650 C   0  0  0  0  0  0  0  0  0  0  0  0
   35.8600   23.4010   31.0710 C   0  0  0  0  0  0  0  0  0  0  0  0
   35.3740   24.6890   31.1630 C   0  0  0  0  0  0  0  0  0  0  0  0
   36.1170   25.6120   31.9250 C   0  0  0  0  0  0  0  0  0  0  0  0
   37.2870   25.1630   32.5320 C   0  0  0  0  0  0  0  0  0  0  0  0
   37.7340   23.8670   32.4130 C   0  0  0  0  0  0  0  0  0  0  0  0
   35.2450   22.7320   30.4700 H   0  0  0  0  0  0  0  0  0  0  0  0
   34.4570   24.9910   30.6710 H   0  0  0  0  0  0  0  0  0  0  0  0
   35.7810   26.6380   32.0310 H   0  0  0  0  0  0  0  0  0  0  0  0
   37.8750   25.8380   33.1190 H   0  0  0  0  0  0  0  0  0  0  0  0
   38.2690   21.2740   30.4130 C   0  0  0  0  0  0  0  0  0  0  0  0
   37.3590   21.5590   31.4540 C   0  0  0  0  0  0  0  0  0  0  0  0
   36.8690   20.4790   32.1880 C   0  0  0  0  0  0  0  0  0  0  0  0
   37.2800   19.2190   31.8790 N   0  0  0  0  0  0  0  0  0  0  0  0
   38.1680   18.9830   30.8580 C   0  0  0  0  0  0  0  0  0  0  0  0
   38.6600   20.0240   30.1250 N   0  0  0  0  0  0  0  0  0  0  0  0
   38.6670   22.0920   29.8250 H   0  0  0  0  0  0  0  0  0  0  0  0
   38.4000   17.9270   30.7310 H   0  0  0  0  0  0  0  0  0  0  0  0
   35.8990   20.6280   33.3190 C   0  0  0  0  0  0  0  0  0  0  0  0
   34.7740   21.3410   32.8700 F   0  0  0  0  0  0  0  0  0  0  0  0
   35.4940   19.4890   33.9180 F   0  0  0  0  0  0  0  0  0  0  0  0
   36.4490   21.4880   34.2760 F   0  0  0  0  0  0  0  0  0  0  0  0
   39.2200   23.2560   33.1710 S   0  0  0  0  0  0  0  0  0  0  0  0
   39.1320   23.2520   34.9410 C   0  0  0  0  0  0  0  0  0  0  0  0
   38.1420   23.8750   35.6730 C   0  0  0  0  0  0  0  0  0  0  0  0
   37.3640   24.4020   35.1380 H   0  0  0  0  0  0  0  0  0  0  0  0
   38.2090   23.7830   37.0610 C   0  0  0  0  0  3  0  0  0  0  0  0
   39.2200   23.1010   37.7080 C   0  0  0  0  0  3  0  0  0  0  0  0
   40.2130   22.4770   36.9640 C   0  0  0  0  0  0  0  0  0  0  0  0
   41.2260   21.7920   37.6060 C   0  0  0  0  0  3  0  0  0  0  0  0
   42.2140   21.1710   36.9080 C   0  0  0  0  0  3  0  0  0  0  0  0
   42.1910   21.2340   35.5120 C   0  0  0  0  0  3  0  0  0  0  0  0
   41.1660   21.9250   34.9000 C   0  0  0  0  0  3  0  0  0  0  0  0
   40.1490   22.5660   35.5760 C   0  0  0  0  0  0  0  0  0  0  0  0
  1  6  1  0  0  0  0
  2  3  1  0  0  0  0
  2  1  2  0  0  0  0
  3  4  2  0  0  0  0
  4  9  1  0  0  0  0
  4  5  1  0  0  0  0
  5 10  1  0  0  0  0
  6  5  2  0  0  0  0
  6 23  1  0  0  0  0
  7  2  1  0  0  0  0
  8  3  1  0  0  0  0
 11 12  1  0  0  0  0
 12  1  1  0  0  0  0
 12 13  2  0  0  0  0
 13 19  1  0  0  0  0
 14 13  1  0  0  0  0
 15 14  2  0  0  0  0
 16 11  2  0  0  0  0
 16 15  1  0  0  0  0
 17 11  1  0  0  0  0
 18 15  1  0  0  0  0
 19 21  1  0  0  0  0
 19 22  1  0  0  0  0
 20 19  1  0  0  0  0
 23 24  1  0  0  0  0
 24 34  2  0  0  0  0
 24 25  1  0  0  0  0
 25 27  2  0  0  0  0
 26 25  1  0  0  0  0
 27 28  1  0  0  0  0
 29 30  1  0  0  0  0
 29 28  2  0  0  0  0
 31 30  2  0  0  0  0
 32 31  1  0  0  0  0
 33 32  2  0  0  0  0
 33 34  1  0  0  0  0
 34 29  1  0  0  0  0
M  END
>  <minimizedAffinity>
-6.31991577

$$$$

 OpenBabel03272506253D

 34 37  0  0  0  0  0  0  0  0999 V2000
   38.1950   22.6710   34.1610 C   0  0  0  0  0  0  0  0  0  0  0  0
   37.5190   21.5040   33.8660 C   0  0  0  0  0  0  0  0  0  0  0  0
   36.5610   21.3620   32.8820 C   0  0  0  0  0  0  0  0  0  0  0  0
   36.2440   22.4990   32.1140 C   0  0  0  0  0  0  0  0  0  0  0  0
   36.9150   23.6850   32.3990 C   0  0  0  0  0  0  0  0  0  0  0  0
   37.8650   23.7810   33.3900 C   0  0  0  0  0  0  0  0  0  0  0  0
   37.7240   20.5930   34.4270 H   0  0  0  0  0  0  0  0  0  0  0  0
   36.0660   20.4160   32.6990 H   0  0  0  0  0  0  0  0  0  0  0  0
   35.4980   22.4440   31.3290 H   0  0  0  0  0  0  0  0  0  0  0  0
   36.6980   24.5690   31.8340 H   0  0  0  0  0  0  0  0  0  0  0  0
   40.4750   22.2370   34.8810 C   0  0  0  0  0  0  0  0  0  0  0  0
   39.1610   22.6210   35.2240 C   0  0  0  0  0  0  0  0  0  0  0  0
   38.9100   22.9180   36.5630 C   0  0  0  0  0  0  0  0  0  0  0  0
   39.9220   22.8300   37.4690 N   0  0  0  0  0  0  0  0  0  0  0  0
   41.1890   22.4530   37.0950 C   0  0  0  0  0  0  0  0  0  0  0  0
   41.4570   22.1550   35.7900 N   0  0  0  0  0  0  0  0  0  0  0  0
   40.7010   21.9990   33.8490 H   0  0  0  0  0  0  0  0  0  0  0  0
   41.8880   22.4280   37.9290 H   0  0  0  0  0  0  0  0  0  0  0  0
   37.5660   23.3390   37.0720 C   0  0  0  0  0  0  0  0  0  0  0  0
   37.6020   23.3980   38.4760 F   0  0  0  0  0  0  0  0  0  0  0  0
   37.0790   24.5020   36.5910 F   0  0  0  0  0  0  0  0  0  0  0  0
   36.6470   22.3140   36.8280 F   0  0  0  0  0  0  0  0  0  0  0  0
   38.7430   25.2740   33.7820 S   0  0  0  0  0  0  0  0  0  0  0  0
   37.7290   26.7200   33.6420 C   0  0  0  0  0  0  0  0  0  0  0  0
   36.9690   27.2410   34.6690 C   0  0  0  0  0  0  0  0  0  0  0  0
   36.9890   26.7380   35.6270 H   0  0  0  0  0  0  0  0  0  0  0  0
   36.2210   28.3850   34.4050 C   0  0  0  0  0  3  0  0  0  0  0  0
   36.2220   28.9980   33.1680 C   0  0  0  0  0  3  0  0  0  0  0  0
   36.9890   28.4690   32.1390 C   0  0  0  0  0  0  0  0  0  0  0  0
   36.9940   29.0780   30.9000 C   0  0  0  0  0  3  0  0  0  0  0  0
   37.7350   28.5850   29.8710 C   0  0  0  0  0  3  0  0  0  0  0  0
   38.5020   27.4380   30.0860 C   0  0  0  0  0  3  0  0  0  0  0  0
   38.4770   26.8520   31.3350 C   0  0  0  0  0  3  0  0  0  0  0  0
   37.7390   27.3240   32.4000 C   0  0  0  0  0  0  0  0  0  0  0  0
  1 12  1  0  0  0  0
  2  1  1  0  0  0  0
  2  7  1  0  0  0  0
  3  2  2  0  0  0  0
  4  5  2  0  0  0  0
  4  3  1  0  0  0  0
  5  6  1  0  0  0  0
  6 23  1  0  0  0  0
  6  1  2  0  0  0  0
  8  3  1  0  0  0  0
  9  4  1  0  0  0  0
 10  5  1  0  0  0  0
 11 12  2  0  0  0  0
 11 16  1  0  0  0  0
 12 13  1  0  0  0  0
 13 19  1  0  0  0  0
 13 14  2  0  0  0  0
 15 14  1  0  0  0  0
 15 18  1  0  0  0  0
 16 15  2  0  0  0  0
 17 11  1  0  0  0  0
 19 20  1  0  0  0  0
 21 19  1  0  0  0  0
 22 19  1  0  0  0  0
 24 23  1  0  0  0  0
 24 25  1  0  0  0  0
 25 26  1  0  0  0  0
 27 25  2  0  0  0  0
 28 27  1  0  0  0  0
 29 34  1  0  0  0  0
 29 28  2  0  0  0  0
 30 29  1  0  0  0  0
 31 32  1  0  0  0  0
 31 30  2  0  0  0  0
 32 33  2  0  0  0  0
 33 34  1  0  0  0  0
 34 24  2  0  0  0  0
M  END
>  <minimizedAffinity>
-6.29503345

$$$$

 OpenBabel03272506253D

 34 37  0  0  0  0  0  0  0  0999 V2000
   39.3420   24.8450   34.6600 C   0  0  0  0  0  0  0  0  0  0  0  0
   40.7070   24.6470   34.6100 C   0  0  0  0  0  0  0  0  0  0  0  0
   41.6570   25.6440   34.5040 C   0  0  0  0  0  0  0  0  0  0  0  0
   41.1980   26.9740   34.4420 C   0  0  0  0  0  0  0  0  0  0  0  0
   39.8240   27.1930   34.4910 C   0  0  0  0  0  0  0  0  0  0  0  0
   38.9130   26.1670   34.5960 C   0  0  0  0  0  0  0  0  0  0  0  0
   41.1190   23.6390   34.6540 H   0  0  0  0  0  0  0  0  0  0  0  0
   42.7170   25.4220   34.4690 H   0  0  0  0  0  0  0  0  0  0  0  0
   41.9010   27.7970   34.3570 H   0  0  0  0  0  0  0  0  0  0  0  0
   39.4420   28.1920   34.4450 H   0  0  0  0  0  0  0  0  0  0  0  0
   38.1090   23.0580   33.5690 C   0  0  0  0  0  0  0  0  0  0  0  0
   38.5120   23.6780   34.7710 C   0  0  0  0  0  0  0  0  0  0  0  0
   38.0700   23.1060   35.9640 C   0  0  0  0  0  0  0  0  0  0  0  0
   37.2850   21.9950   35.9230 N   0  0  0  0  0  0  0  0  0  0  0  0
   36.9150   21.4210   34.7310 C   0  0  0  0  0  0  0  0  0  0  0  0
   37.3340   21.9640   33.5510 N   0  0  0  0  0  0  0  0  0  0  0  0
   38.4360   23.4790   32.6250 H   0  0  0  0  0  0  0  0  0  0  0  0
   36.2880   20.5410   34.8600 H   0  0  0  0  0  0  0  0  0  0  0  0
   38.4180   23.6540   37.3130 C   0  0  0  0  0  0  0  0  0  0  0  0
   39.7650   23.3660   37.5940 F   0  0  0  0  0  0  0  0  0  0  0  0
   38.1970   24.9710   37.5020 F   0  0  0  0  0  0  0  0  0  0  0  0
   37.7340   22.9220   38.2900 F   0  0  0  0  0  0  0  0  0  0  0  0
   37.1540   26.4050   34.6630 S   0  0  0  0  0  0  0  0  0  0  0  0
   36.6430   27.9320   33.9240 C   0  0  0  0  0  0  0  0  0  0  0  0
   36.0420   28.9670   34.6100 C   0  0  0  0  0  0  0  0  0  0  0  0
   35.8690   28.8450   35.6710 H   0  0  0  0  0  0  0  0  0  0  0  0
   35.6960   30.1070   33.8900 C   0  0  0  0  0  3  0  0  0  0  0  0
   35.9340   30.2240   32.5350 C   0  0  0  0  0  3  0  0  0  0  0  0
   36.5390   29.1790   31.8510 C   0  0  0  0  0  0  0  0  0  0  0  0
   36.7800   29.2910   30.4950 C   0  0  0  0  0  3  0  0  0  0  0  0
   37.3700   28.2850   29.7950 C   0  0  0  0  0  3  0  0  0  0  0  0
   37.7360   27.1200   30.4740 C   0  0  0  0  0  3  0  0  0  0  0  0
   37.4830   27.0380   31.8270 C   0  0  0  0  0  3  0  0  0  0  0  0
   36.8870   28.0370   32.5680 C   0  0  0  0  0  0  0  0  0  0  0  0
  1 12  1  0  0  0  0
  2  7  1  0  0  0  0
  2  1  1  0  0  0  0
  3  2  2  0  0  0  0
  4  5  2  0  0  0  0
  4  3  1  0  0  0  0
  5  6  1  0  0  0  0
  6  1  2  0  0  0  0
  6 23  1  0  0  0  0
  8  3  1  0  0  0  0
  9  4  1  0  0  0  0
 10  5  1  0  0  0  0
 11 12  1  0  0  0  0
 12 13  2  0  0  0  0
 13 19  1  0  0  0  0
 14 13  1  0  0  0  0
 15 18  1  0  0  0  0
 15 14  2  0  0  0  0
 16 11  2  0  0  0  0
 16 15  1  0  0  0  0
 17 11  1  0  0  0  0
 19 21  1  0  0  0  0
 19 20  1  0  0  0  0
 19 22  1  0  0  0  0
 24 25  1  0  0  0  0
 24 23  1  0  0  0  0
 25 26  1  0  0  0  0
 27 25  2  0  0  0  0
 28 27  1  0  0  0  0
 29 28  2  0  0  0  0
 29 34  1  0  0  0  0
 30 29  1  0  0  0  0
 31 32  1  0  0  0  0
 31 30  2  0  0  0  0
 32 33  2  0  0  0  0
 33 34  1  0  0  0  0
 34 24  2  0  0  0  0
M  END
>  <minimizedAffinity>
-6.26948738

$$$$

 OpenBabel03272506253D

 34 37  0  0  0  0  0  0  0  0999 V2000
   36.4460   28.4170   31.2280 C   0  0  0  0  0  0  0  0  0  0  0  0
   37.2510   28.7970   30.1720 C   0  0  0  0  0  0  0  0  0  0  0  0
   37.4300   30.0920   29.7290 C   0  0  0  0  0  0  0  0  0  0  0  0
   36.7370   31.1130   30.4070 C   0  0  0  0  0  0  0  0  0  0  0  0
   35.9200   30.7490   31.4740 C   0  0  0  0  0  0  0  0  0  0  0  0
   35.7710   29.4430   31.8820 C   0  0  0  0  0  0  0  0  0  0  0  0
   37.8110   28.0490   29.6110 H   0  0  0  0  0  0  0  0  0  0  0  0
   38.0770   30.3250   28.8920 H   0  0  0  0  0  0  0  0  0  0  0  0
   36.8400   32.1480   30.1000 H   0  0  0  0  0  0  0  0  0  0  0  0
   35.3790   31.5000   32.0110 H   0  0  0  0  0  0  0  0  0  0  0  0
   35.4590   26.2340   30.8210 C   0  0  0  0  0  0  0  0  0  0  0  0
   36.3880   27.0160   31.5400 C   0  0  0  0  0  0  0  0  0  0  0  0
   37.1710   26.3640   32.4930 C   0  0  0  0  0  0  0  0  0  0  0  0
   37.0120   25.0260   32.6860 N   0  0  0  0  0  0  0  0  0  0  0  0
   36.0960   24.3000   31.9650 C   0  0  0  0  0  0  0  0  0  0  0  0
   35.3180   24.9170   31.0290 N   0  0  0  0  0  0  0  0  0  0  0  0
   34.8360   26.7130   30.0750 H   0  0  0  0  0  0  0  0  0  0  0  0
   36.0840   23.2450   32.2320 H   0  0  0  0  0  0  0  0  0  0  0  0
   38.1970   27.0630   33.3290 C   0  0  0  0  0  0  0  0  0  0  0  0
   39.1560   27.6510   32.4860 F   0  0  0  0  0  0  0  0  0  0  0  0
   37.7370   27.9910   34.1930 F   0  0  0  0  0  0  0  0  0  0  0  0
   38.9420   26.1070   34.0270 F   0  0  0  0  0  0  0  0  0  0  0  0
   34.7410   28.9390   33.2380 S   0  0  0  0  0  0  0  0  0  0  0  0
   34.7790   30.0850   34.5890 C   0  0  0  0  0  0  0  0  0  0  0  0
   35.9100   30.7540   35.0110 C   0  0  0  0  0  0  0  0  0  0  0  0
   36.8380   30.5710   34.4880 H   0  0  0  0  0  0  0  0  0  0  0  0
   35.7810   31.6250   36.0900 C   0  0  0  0  0  3  0  0  0  0  0  0
   34.5770   31.8310   36.7330 C   0  0  0  0  0  3  0  0  0  0  0  0
   33.4440   31.1550   36.3020 C   0  0  0  0  0  0  0  0  0  0  0  0
   32.2360   31.3580   36.9410 C   0  0  0  0  0  3  0  0  0  0  0  0
   31.1070   30.7110   36.5450 C   0  0  0  0  0  3  0  0  0  0  0  0
   31.1850   29.8260   35.4670 C   0  0  0  0  0  3  0  0  0  0  0  0
   32.4040   29.6440   34.8480 C   0  0  0  0  0  3  0  0  0  0  0  0
   33.5680   30.2830   35.2230 C   0  0  0  0  0  0  0  0  0  0  0  0
  1 12  1  0  0  0  0
  1  6  1  0  0  0  0
  2  1  2  0  0  0  0
  3  2  1  0  0  0  0
  3  4  2  0  0  0  0
  4  5  1  0  0  0  0
  5  6  2  0  0  0  0
  5 10  1  0  0  0  0
  6 23  1  0  0  0  0
  7  2  1  0  0  0  0
  8  3  1  0  0  0  0
  9  4  1  0  0  0  0
 11 16  2  0  0  0  0
 11 12  1  0  0  0  0
 12 13  2  0  0  0  0
 13 14  1  0  0  0  0
 13 19  1  0  0  0  0
 15 18  1  0  0  0  0
 15 14  2  0  0  0  0
 16 15  1  0  0  0  0
 17 11  1  0  0  0  0
 19 22  1  0  0  0  0
 19 21  1  0  0  0  0
 20 19  1  0  0  0  0
 23 24  1  0  0  0  0
 24 25  2  0  0  0  0
 24 34  1  0  0  0  0
 25 27  1  0  0  0  0
 26 25  1  0  0  0  0
 27 28  2  0  0  0  0
 29 28  1  0  0  0  0
 29 30  1  0  0  0  0
 31 30  2  0  0  0  0
 32 31  1  0  0  0  0
 33 34  1  0  0  0  0
 33 32  2  0  0  0  0
 34 29  2  0  0  0  0
M  END
>  <minimizedAffinity>
-6.21975374

$$$$
