
     RDKit          3D

 28 30  0  0  0  0  0  0  0  0999 V2000
   37.8417   30.7741   50.5750 C   0  0  0  0  0  0  0  0  0  0  0  0
   37.5447   31.5675   49.4259 C   0  0  0  0  0  0  0  0  0  0  0  0
   36.6859   31.0346   48.4721 C   0  0  0  0  0  0  0  0  0  0  0  0
   36.1775   29.8022   48.6760 N   0  0  0  0  0  0  0  0  0  0  0  0
   36.4693   29.0731   49.7628 C   0  0  0  0  0  0  0  0  0  0  0  0
   37.2906   29.5318   50.7175 N   0  0  0  0  0  0  0  0  0  0  0  0
   38.1888   32.9034   49.3566 C   0  0  0  0  0  0  0  0  0  0  0  0
   38.9566   33.0444   48.3812 O   0  0  0  0  0  0  0  0  0  0  0  0
   38.4993   31.1107   51.3652 H   0  0  0  0  0  0  0  0  0  0  0  0
   36.4866   31.6570   47.6256 H   0  0  0  0  0  0  0  0  0  0  0  0
   36.0731   28.0830   49.9463 H   0  0  0  0  0  0  0  0  0  0  0  0
   37.8277   33.8391   50.4316 C   0  0  0  0  0  0  0  0  0  0  0  0
   38.8908   34.5273   50.9939 C   0  0  0  0  0  0  0  0  0  0  0  0
   39.9517   34.4541   50.7322 H   0  0  0  0  0  0  0  0  0  0  0  0
   38.6664   35.4429   52.0236 C   0  0  0  0  0  0  0  0  0  0  0  0
   37.3703   35.6584   52.4798 C   0  0  0  0  0  0  0  0  0  0  0  0
   36.3174   34.9693   51.9148 C   0  0  0  0  0  0  0  0  0  0  0  0
   34.9963   35.1363   52.3228 C   0  0  0  0  0  0  0  0  0  0  0  0
   33.9648   34.4170   51.7214 C   0  0  0  0  0  0  0  0  0  0  0  0
   34.2120   33.5179   50.7056 C   0  0  0  0  0  0  0  0  0  0  0  0
   35.5289   33.3545   50.3022 C   0  0  0  0  0  0  0  0  0  0  0  0
   36.5492   34.0663   50.8974 C   0  0  0  0  0  0  0  0  0  0  0  0
   39.4238   36.0179   52.5158 H   0  0  0  0  0  0  0  0  0  0  0  0
   37.0702   36.3373   53.2665 H   0  0  0  0  0  0  0  0  0  0  0  0
   34.7772   35.8413   53.1237 H   0  0  0  0  0  0  0  0  0  0  0  0
   32.9319   34.5433   52.0357 H   0  0  0  0  0  0  0  0  0  0  0  0
   33.4165   32.9581   50.2364 H   0  0  0  0  0  0  0  0  0  0  0  0
   35.7076   32.6575   49.5169 H   0  0  0  0  0  0  0  0  0  0  0  0
  1  6  2  0
  2  1  1  0
  3  4  1  0
  3  2  2  0
  4  5  2  0
  5  6  1  0
  7  2  1  0
  8  7  2  0
  1  9  1  0
  3 10  1  0
  5 11  1  0
 12 13  2  0
 13 14  1  0
 13 15  1  0
 15 16  2  0
 16 17  1  0
 17 18  2  0
 18 19  1  0
 19 20  2  0
 20 21  1  0
 21 22  2  0
 22 12  1  0
 22 17  1  0
 15 23  1  0
 16 24  1  0
 18 25  1  0
 19 26  1  0
 20 27  1  0
 21 28  1  0
  7 12  1  0
M  ISO  4   9  14  10  14  11  14  14  15
M  END
>  <DihAtoms>  (1) 
1,6,11,12

>  <DihDeg>  (1) 
-44.99696984602744

$$$$
