REMARK  Name = 
REMARK  3 active torsions:
REMARK  status: ('A' for Active; 'I' for Inactive)
REMARK    1  A    between atoms: C_1  and  C_7
REMARK    2  A    between atoms: C_8  and  O_10
REMARK    3  A    between atoms: O_10  and  C_18
REMARK                            x       y       z     vdW  Elec       q    Type
REMARK                         _______ _______ _______ _____ _____    ______ ____
ROOT
ATOM      1  C   UNL     1      36.637  31.037  50.499  0.00  0.00    +0.000 C 
ATOM      2  C   UNL     1      36.139  29.685  50.654  0.00  0.00    +0.000 C 
ATOM      3  C   UNL     1      37.348  30.096  51.474  0.00  0.00    +0.000 C 
ATOM      4  H   UNL     1      36.111  31.874  51.027  0.00  0.00    +0.000 HD
ATOM      5  H   UNL     1      35.172  29.540  51.202  0.00  0.00    +0.000 HD
ATOM      6  H   UNL     1      38.335  29.684  51.207  0.00  0.00    +0.000 HD
ATOM      7  H   UNL     1      37.133  30.237  52.547  0.00  0.00    +0.000 HD
ENDROOT
BRANCH   1   8
ATOM      8  C   UNL     1      37.522  31.408  49.328  0.00  0.00    +0.000 A 
ATOM      9  C   UNL     1      38.155  32.649  49.397  0.00  0.00    +0.000 A 
ATOM     10  C   UNL     1      38.942  32.983  48.308  0.00  0.00    +0.000 A 
ATOM     11  N   UNL     1      39.061  32.114  47.251  0.00  0.00    +0.000 NA
ATOM     12  C   UNL     1      38.429  30.914  47.221  0.00  0.00    +0.000 A 
ATOM     13  N   UNL     1      37.652  30.563  48.274  0.00  0.00    +0.000 NA
ATOM     14  H   UNL     1      38.009  33.275  50.266  0.00  0.00    +0.000 HD
ATOM     15  H   UNL     1      39.456  33.934  48.310  0.00  0.00    +0.000 HD
ATOM     16  H   UNL     1      38.563  30.276  46.359  0.00  0.00    +0.000 HD
ENDBRANCH   1   8
BRANCH   2  17
ATOM     17  O   UNL     1      36.392  28.740  49.675  0.00  0.00    +0.000 OA
BRANCH  17  18
ATOM     18  C   UNL     1      35.493  27.736  49.397  0.00  0.00    +0.000 A 
ATOM     19  C   UNL     1      34.193  27.758  48.962  0.00  0.00    +0.000 A 
ATOM     20  H   UNL     1      33.782  28.733  48.802  0.00  0.00    +0.000 HD
ATOM     21  C   UNL     1      33.437  26.639  48.734  0.00  0.00    +0.000 A 
ATOM     22  C   UNL     1      33.951  25.394  48.935  0.00  0.00    +0.000 A 
ATOM     23  C   UNL     1      35.256  25.306  49.373  0.00  0.00    +0.000 A 
ATOM     24  C   UNL     1      35.745  24.031  49.567  0.00  0.00    +0.000 A 
ATOM     25  C   UNL     1      37.040  23.862  50.006  0.00  0.00    +0.000 A 
ATOM     26  C   UNL     1      37.830  24.966  50.245  0.00  0.00    +0.000 A 
ATOM     27  C   UNL     1      37.284  26.213  50.032  0.00  0.00    +0.000 A 
ATOM     28  C   UNL     1      35.998  26.444  49.595  0.00  0.00    +0.000 A 
ENDBRANCH  17  18
ENDBRANCH   2  17
TORSDOF 3
