
 OpenBabel03262521363D

 39 43  0  0  1  0  0  0  0  0999 V2000
   38.1560   26.1470   34.3350 C   0  0  1  0  0  0  0  0  0  0  0  0
   38.1900   25.9940   32.8490 C   0  0  2  0  0  0  0  0  0  0  0  0
   37.7570   27.3670   32.3460 C   0  0  0  0  0  0  0  0  0  0  0  0
   36.7370   27.6610   33.2040 O   0  0  0  0  0  0  0  0  0  0  0  0
   37.0330   27.2120   34.4620 C   0  0  0  0  0  0  0  0  0  0  0  0
   39.0570   26.7220   34.6130 H   0  0  0  0  0  0  0  0  0  0  0  0
   39.2520   25.8860   32.5390 H   0  0  0  0  0  0  0  0  0  0  0  0
   37.3710   27.2300   31.3230 H   0  0  0  0  0  0  0  0  0  0  0  0
   38.6160   28.0610   32.4040 H   0  0  0  0  0  0  0  0  0  0  0  0
   36.1700   26.7110   34.9410 H   0  0  0  0  0  0  0  0  0  0  0  0
   37.3340   28.0590   35.0750 H   0  0  0  0  0  0  0  0  0  0  0  0
   37.9350   23.5210   32.0910 C   0  0  1  0  0  0  0  0  0  0  0  0
   37.8830   24.3850   30.9370 C   0  0  0  0  0  0  0  0  0  0  0  0
   37.3210   24.9100   32.2740 C   0  0  2  0  0  0  0  0  0  0  0  0
   38.8790   23.4040   32.6840 H   0  0  0  0  0  0  0  0  0  0  0  0
   38.7770   24.8360   30.5100 H   0  0  0  0  0  0  0  0  0  0  0  0
   37.1030   24.1670   30.1600 H   0  0  0  0  0  0  0  0  0  0  0  0
   36.2340   25.0240   32.3260 H   0  0  0  0  0  0  0  0  0  0  0  0
   36.0110   20.7700   33.7370 C   0  0  0  0  0  0  0  0  0  0  0  0
   36.9270   21.7950   33.5410 C   0  0  0  0  0  0  0  0  0  0  0  0
   36.9690   22.4380   32.3200 C   0  0  0  0  0  0  0  0  0  0  0  0
   36.0830   22.0150   31.3510 N   0  0  0  0  0  0  0  0  0  0  0  0
   35.1950   21.0170   31.5500 C   0  0  0  0  0  0  0  0  0  0  0  0
   35.1510   20.3770   32.7630 N   0  0  0  0  0  0  0  0  0  0  0  0
   35.9210   20.2220   34.6710 H   0  0  0  0  0  0  0  0  0  0  0  0
   37.5700   21.9910   34.3620 H   0  0  0  0  0  0  0  0  0  0  0  0
   34.5500   20.7760   30.7030 H   0  0  0  0  0  0  0  0  0  0  0  0
   37.8110   25.0420   35.0310 O   0  0  0  0  0  0  0  0  0  0  0  0
   38.3850   24.3650   36.0230 C   0  0  0  0  0  0  0  0  0  0  0  0
   37.6770   24.6800   37.1950 C   0  0  0  0  0  0  0  0  0  0  0  0
   36.8160   25.3380   37.3390 H   0  0  0  0  0  0  0  0  0  0  0  0
   37.9830   24.1620   38.4560 C   0  0  0  0  0  3  0  0  0  0  0  0
   39.0480   23.2800   38.5860 C   0  0  0  0  0  3  0  0  0  0  0  0
   39.7750   22.9350   37.4680 C   0  0  0  0  0  0  0  0  0  0  0  0
   40.8330   22.0530   37.4640 C   0  0  0  0  0  3  0  0  0  0  0  0
   41.5350   21.6980   36.3210 C   0  0  0  0  0  3  0  0  0  0  0  0
   41.1230   22.2820   35.1290 C   0  0  0  0  0  3  0  0  0  0  0  0
   40.0690   23.1640   35.1250 C   0  0  0  0  0  3  0  0  0  0  0  0
   39.4070   23.4880   36.2670 C   0  0  0  0  0  0  0  0  0  0  0  0
  1  5  1  0  0  0  0
  1  6  1  1  0  0  0
  1 28  1  0  0  0  0
  2  7  1  6  0  0  0
  2  1  1  0  0  0  0
  3  9  1  0  0  0  0
  3  2  1  0  0  0  0
  3  4  1  0  0  0  0
  4  5  1  0  0  0  0
  5 10  1  0  0  0  0
  5 11  1  0  0  0  0
  8  3  1  0  0  0  0
 12 14  1  0  0  0  0
 12 21  1  0  0  0  0
 12 15  1  1  0  0  0
 13 12  1  0  0  0  0
 13 14  1  0  0  0  0
 14 18  1  1  0  0  0
 14  2  1  0  0  0  0
 16 13  1  0  0  0  0
 17 13  1  0  0  0  0
 19 25  1  0  0  0  0
 20 19  1  0  0  0  0
 20 26  1  0  0  0  0
 21 20  2  0  0  0  0
 22 23  2  0  0  0  0
 22 21  1  0  0  0  0
 23 24  1  0  0  0  0
 24 19  2  0  0  0  0
 27 23  1  0  0  0  0
 28 29  1  0  0  0  0
 29 39  2  0  0  0  0
 29 30  1  0  0  0  0
 30 31  1  0  0  0  0
 30 32  2  0  0  0  0
 32 33  1  0  0  0  0
 34 33  2  0  0  0  0
 35 34  1  0  0  0  0
 36 35  2  0  0  0  0
 37 36  1  0  0  0  0
 38 37  2  0  0  0  0
 38 39  1  0  0  0  0
 39 34  1  0  0  0  0
M  END
>  <minimizedAffinity>
-6.18043804

$$$$

 OpenBabel03262521363D

 39 43  0  0  1  0  0  0  0  0999 V2000
   39.7100   25.9860   32.4480 C   0  0  1  0  0  0  0  0  0  0  0  0
   39.9170   27.0370   33.4880 C   0  0  2  0  0  0  0  0  0  0  0  0
   41.3280   27.5400   33.2010 C   0  0  0  0  0  0  0  0  0  0  0  0
   41.9870   26.3700   32.9510 O   0  0  0  0  0  0  0  0  0  0  0  0
   41.1760   25.5100   32.2610 C   0  0  0  0  0  0  0  0  0  0  0  0
   39.5130   26.5150   31.4990 H   0  0  0  0  0  0  0  0  0  0  0  0
   39.2450   27.8910   33.2510 H   0  0  0  0  0  0  0  0  0  0  0  0
   41.7030   28.0000   34.1300 H   0  0  0  0  0  0  0  0  0  0  0  0
   41.2970   28.2370   32.3440 H   0  0  0  0  0  0  0  0  0  0  0  0
   41.2310   24.4780   32.6560 H   0  0  0  0  0  0  0  0  0  0  0  0
   41.4790   25.5040   31.2160 H   0  0  0  0  0  0  0  0  0  0  0  0
   38.4360   26.0280   35.3700 C   0  0  1  0  0  0  0  0  0  0  0  0
   38.7130   27.4120   35.6670 C   0  0  0  0  0  0  0  0  0  0  0  0
   39.7830   26.5920   34.9180 C   0  0  2  0  0  0  0  0  0  0  0  0
   37.7930   25.7420   34.4970 H   0  0  0  0  0  0  0  0  0  0  0  0
   38.2010   28.2280   35.1600 H   0  0  0  0  0  0  0  0  0  0  0  0
   38.9840   27.6710   36.7250 H   0  0  0  0  0  0  0  0  0  0  0  0
   40.6900   26.3580   35.4830 H   0  0  0  0  0  0  0  0  0  0  0  0
   39.4330   22.8260   37.0230 C   0  0  0  0  0  0  0  0  0  0  0  0
   39.3180   23.8310   36.0720 C   0  0  0  0  0  0  0  0  0  0  0  0
   38.5730   24.9550   36.3650 C   0  0  0  0  0  0  0  0  0  0  0  0
   37.9750   25.0130   37.6060 N   0  0  0  0  0  0  0  0  0  0  0  0
   38.0910   24.0310   38.5260 C   0  0  0  0  0  0  0  0  0  0  0  0
   38.8320   22.9130   38.2370 N   0  0  0  0  0  0  0  0  0  0  0  0
   40.0040   21.9160   36.8620 H   0  0  0  0  0  0  0  0  0  0  0  0
   39.8020   23.6370   35.1470 H   0  0  0  0  0  0  0  0  0  0  0  0
   37.5690   24.1960   39.4700 H   0  0  0  0  0  0  0  0  0  0  0  0
   38.9400   24.9390   32.8170 O   0  0  0  0  0  0  0  0  0  0  0  0
   37.7920   24.4390   32.3660 C   0  0  0  0  0  0  0  0  0  0  0  0
   37.1160   25.4880   31.7200 C   0  0  0  0  0  0  0  0  0  0  0  0
   37.4130   26.5300   31.5760 H   0  0  0  0  0  0  0  0  0  0  0  0
   35.8650   25.3550   31.1140 C   0  0  0  0  0  3  0  0  0  0  0  0
   35.2270   24.1210   31.1370 C   0  0  0  0  0  3  0  0  0  0  0  0
   35.8460   23.0570   31.7560 C   0  0  0  0  0  0  0  0  0  0  0  0
   35.3290   21.7830   31.8220 C   0  0  0  0  0  3  0  0  0  0  0  0
   35.9820   20.7180   32.4270 C   0  0  0  0  0  3  0  0  0  0  0  0
   37.2260   20.9850   32.9870 C   0  0  0  0  0  3  0  0  0  0  0  0
   37.7470   22.2550   32.9260 C   0  0  0  0  0  3  0  0  0  0  0  0
   37.0750   23.2730   32.3260 C   0  0  0  0  0  0  0  0  0  0  0  0
  1  6  1  6  0  0  0
  1 28  1  0  0  0  0
  1  2  1  0  0  0  0
  2  7  1  6  0  0  0
  2 14  1  0  0  0  0
  3  2  1  0  0  0  0
  3  8  1  0  0  0  0
  4  3  1  0  0  0  0
  5  1  1  0  0  0  0
  5 10  1  0  0  0  0
  5  4  1  0  0  0  0
  9  3  1  0  0  0  0
 11  5  1  0  0  0  0
 12 15  1  6  0  0  0
 12 13  1  0  0  0  0
 12 21  1  0  0  0  0
 13 17  1  0  0  0  0
 14 12  1  0  0  0  0
 14 18  1  1  0  0  0
 14 13  1  0  0  0  0
 16 13  1  0  0  0  0
 19 24  1  0  0  0  0
 20 21  1  0  0  0  0
 20 19  2  0  0  0  0
 21 22  2  0  0  0  0
 22 23  1  0  0  0  0
 23 27  1  0  0  0  0
 24 23  2  0  0  0  0
 25 19  1  0  0  0  0
 26 20  1  0  0  0  0
 29 28  1  0  0  0  0
 30 29  2  0  0  0  0
 31 30  1  0  0  0  0
 32 33  2  0  0  0  0
 32 30  1  0  0  0  0
 33 34  1  0  0  0  0
 34 35  2  0  0  0  0
 34 39  1  0  0  0  0
 35 36  1  0  0  0  0
 36 37  2  0  0  0  0
 38 37  1  0  0  0  0
 39 29  1  0  0  0  0
 39 38  2  0  0  0  0
M  END
>  <minimizedAffinity>
-6.05938768

$$$$

 OpenBabel03262521363D

 39 43  0  0  1  0  0  0  0  0999 V2000
   38.3750   23.2350   35.2970 C   0  0  1  0  0  0  0  0  0  0  0  0
   38.6710   24.4910   36.0500 C   0  0  2  0  0  0  0  0  0  0  0  0
   38.4900   24.0750   37.5060 C   0  0  0  0  0  0  0  0  0  0  0  0
   37.3640   23.3070   37.4310 O   0  0  0  0  0  0  0  0  0  0  0  0
   37.3690   22.5730   36.2770 C   0  0  0  0  0  0  0  0  0  0  0  0
   39.2640   22.5870   35.4010 H   0  0  0  0  0  0  0  0  0  0  0  0
   39.7550   24.7110   35.9370 H   0  0  0  0  0  0  0  0  0  0  0  0
   38.2900   24.9940   38.0820 H   0  0  0  0  0  0  0  0  0  0  0  0
   39.3920   23.5310   37.8420 H   0  0  0  0  0  0  0  0  0  0  0  0
   36.3820   22.5780   35.7750 H   0  0  0  0  0  0  0  0  0  0  0  0
   37.6380   21.5460   36.5150 H   0  0  0  0  0  0  0  0  0  0  0  0
   38.3370   26.6700   34.6740 C   0  0  1  0  0  0  0  0  0  0  0  0
   38.5280   27.0040   36.0650 C   0  0  0  0  0  0  0  0  0  0  0  0
   37.8150   25.6810   35.7180 C   0  0  2  0  0  0  0  0  0  0  0  0
   39.1690   26.2300   34.0660 H   0  0  0  0  0  0  0  0  0  0  0  0
   39.5080   26.9840   36.5370 H   0  0  0  0  0  0  0  0  0  0  0  0
   37.8580   27.7890   36.5070 H   0  0  0  0  0  0  0  0  0  0  0  0
   36.7450   25.6390   35.9430 H   0  0  0  0  0  0  0  0  0  0  0  0
   35.9720   27.2920   31.8470 C   0  0  0  0  0  0  0  0  0  0  0  0
   36.9850   26.7270   32.6090 C   0  0  0  0  0  0  0  0  0  0  0  0
   37.2640   27.2510   33.8550 C   0  0  0  0  0  0  0  0  0  0  0  0
   36.5070   28.3240   34.2750 N   0  0  0  0  0  0  0  0  0  0  0  0
   35.5220   28.8680   33.5270 C   0  0  0  0  0  0  0  0  0  0  0  0
   35.2430   28.3490   32.2880 N   0  0  0  0  0  0  0  0  0  0  0  0
   35.6970   26.9310   30.8590 H   0  0  0  0  0  0  0  0  0  0  0  0
   37.5090   25.9280   32.1450 H   0  0  0  0  0  0  0  0  0  0  0  0
   34.9970   29.7160   33.9720 H   0  0  0  0  0  0  0  0  0  0  0  0
   37.7890   23.3980   34.0910 O   0  0  0  0  0  0  0  0  0  0  0  0
   37.7670   22.6740   32.9740 C   0  0  0  0  0  0  0  0  0  0  0  0
   38.8120   23.1460   32.1620 C   0  0  0  0  0  0  0  0  0  0  0  0
   39.5380   23.9420   32.3440 H   0  0  0  0  0  0  0  0  0  0  0  0
   39.1110   22.6330   30.8970 C   0  0  0  0  0  3  0  0  0  0  0  0
   38.3440   21.5930   30.3880 C   0  0  0  0  0  3  0  0  0  0  0  0
   37.3080   21.0900   31.1450 C   0  0  0  0  0  0  0  0  0  0  0  0
   36.4950   20.0460   30.7620 C   0  0  0  0  0  3  0  0  0  0  0  0
   35.4740   19.5370   31.5520 C   0  0  0  0  0  3  0  0  0  0  0  0
   35.2860   20.1350   32.7920 C   0  0  0  0  0  3  0  0  0  0  0  0
   36.0930   21.1780   33.1800 C   0  0  0  0  0  3  0  0  0  0  0  0
   37.0820   21.6500   32.3770 C   0  0  0  0  0  0  0  0  0  0  0  0
  1  6  1  6  0  0  0
  1  2  1  0  0  0  0
  1  5  1  0  0  0  0
  2  7  1  6  0  0  0
  2  3  1  0  0  0  0
  3  9  1  0  0  0  0
  3  8  1  0  0  0  0
  4  3  1  0  0  0  0
  5 11  1  0  0  0  0
  5  4  1  0  0  0  0
 10  5  1  0  0  0  0
 12 15  1  6  0  0  0
 12 14  1  0  0  0  0
 12 13  1  0  0  0  0
 13 17  1  0  0  0  0
 13 16  1  0  0  0  0
 14 18  1  1  0  0  0
 14  2  1  0  0  0  0
 14 13  1  0  0  0  0
 19 24  2  0  0  0  0
 19 20  1  0  0  0  0
 20 21  2  0  0  0  0
 21 22  1  0  0  0  0
 21 12  1  0  0  0  0
 23 27  1  0  0  0  0
 23 22  2  0  0  0  0
 24 23  1  0  0  0  0
 25 19  1  0  0  0  0
 26 20  1  0  0  0  0
 28  1  1  0  0  0  0
 29 28  1  0  0  0  0
 30 31  1  0  0  0  0
 30 29  2  0  0  0  0
 32 30  1  0  0  0  0
 33 32  2  0  0  0  0
 33 34  1  0  0  0  0
 34 39  1  0  0  0  0
 35 34  2  0  0  0  0
 35 36  1  0  0  0  0
 36 37  2  0  0  0  0
 37 38  1  0  0  0  0
 39 29  1  0  0  0  0
 39 38  2  0  0  0  0
M  END
>  <minimizedAffinity>
-5.92812014

$$$$

 OpenBabel03262521363D

 39 43  0  0  1  0  0  0  0  0999 V2000
   37.3830   23.0940   32.8020 C   0  0  1  0  0  0  0  0  0  0  0  0
   36.2410   23.2890   31.8590 C   0  0  2  0  0  0  0  0  0  0  0  0
   36.2700   22.0230   31.0090 C   0  0  0  0  0  0  0  0  0  0  0  0
   37.6090   21.8730   30.7910 O   0  0  0  0  0  0  0  0  0  0  0  0
   38.3120   22.2250   31.9120 C   0  0  0  0  0  0  0  0  0  0  0  0
   37.0440   22.3690   33.5640 H   0  0  0  0  0  0  0  0  0  0  0  0
   35.2980   23.2300   32.4460 H   0  0  0  0  0  0  0  0  0  0  0  0
   35.7520   22.2560   30.0640 H   0  0  0  0  0  0  0  0  0  0  0  0
   35.8050   21.1960   31.5760 H   0  0  0  0  0  0  0  0  0  0  0  0
   39.1970   22.8450   31.6710 H   0  0  0  0  0  0  0  0  0  0  0  0
   38.6420   21.3200   32.4180 H   0  0  0  0  0  0  0  0  0  0  0  0
   35.7540   25.8260   31.5790 C   0  0  1  0  0  0  0  0  0  0  0  0
   34.8830   25.0710   30.7110 C   0  0  0  0  0  0  0  0  0  0  0  0
   36.2950   24.5200   30.9970 C   0  0  2  0  0  0  0  0  0  0  0  0
   35.6480   25.7710   32.6930 H   0  0  0  0  0  0  0  0  0  0  0  0
   34.0080   24.5420   31.0840 H   0  0  0  0  0  0  0  0  0  0  0  0
   34.7380   25.4500   29.6640 H   0  0  0  0  0  0  0  0  0  0  0  0
   36.9990   24.5450   30.1600 H   0  0  0  0  0  0  0  0  0  0  0  0
   36.7010   29.3710   30.8650 C   0  0  0  0  0  0  0  0  0  0  0  0
   35.9810   28.2700   31.3050 C   0  0  0  0  0  0  0  0  0  0  0  0
   36.5040   27.0050   31.1250 C   0  0  0  0  0  0  0  0  0  0  0  0
   37.7330   26.9110   30.5080 N   0  0  0  0  0  0  0  0  0  0  0  0
   38.4290   27.9880   30.0830 C   0  0  0  0  0  0  0  0  0  0  0  0
   37.9100   29.2460   30.2610 N   0  0  0  0  0  0  0  0  0  0  0  0
   36.3520   30.3950   30.9750 H   0  0  0  0  0  0  0  0  0  0  0  0
   35.0330   28.4880   31.7310 H   0  0  0  0  0  0  0  0  0  0  0  0
   39.3890   27.7800   29.6070 H   0  0  0  0  0  0  0  0  0  0  0  0
   38.0360   24.2170   33.1730 O   0  0  0  0  0  0  0  0  0  0  0  0
   38.1400   24.8820   34.3220 C   0  0  0  0  0  0  0  0  0  0  0  0
   38.3940   26.2250   33.9940 C   0  0  0  0  0  0  0  0  0  0  0  0
   38.4950   26.7010   33.0150 H   0  0  0  0  0  0  0  0  0  0  0  0
   38.5680   27.2400   34.9370 C   0  0  0  0  0  3  0  0  0  0  0  0
   38.4910   26.9300   36.2890 C   0  0  0  0  0  3  0  0  0  0  0  0
   38.2430   25.6280   36.6660 C   0  0  0  0  0  0  0  0  0  0  0  0
   38.1190   25.2020   37.9700 C   0  0  0  0  0  3  0  0  0  0  0  0
   37.8410   23.8910   38.3280 C   0  0  0  0  0  3  0  0  0  0  0  0
   37.6840   22.9800   37.2890 C   0  0  0  0  0  3  0  0  0  0  0  0
   37.8080   23.3980   35.9860 C   0  0  0  0  0  3  0  0  0  0  0  0
   38.0830   24.6920   35.6760 C   0  0  0  0  0  0  0  0  0  0  0  0
  1 28  1  0  0  0  0
  1  6  1  1  0  0  0
  2  7  1  1  0  0  0
  2  1  1  0  0  0  0
  3  9  1  0  0  0  0
  3  2  1  0  0  0  0
  4  3  1  0  0  0  0
  4  5  1  0  0  0  0
  5 11  1  0  0  0  0
  5  1  1  0  0  0  0
  8  3  1  0  0  0  0
 10  5  1  0  0  0  0
 12 15  1  1  0  0  0
 13 14  1  0  0  0  0
 13 16  1  0  0  0  0
 13 12  1  0  0  0  0
 14 18  1  6  0  0  0
 14 12  1  0  0  0  0
 14  2  1  0  0  0  0
 17 13  1  0  0  0  0
 19 25  1  0  0  0  0
 19 20  1  0  0  0  0
 20 26  1  0  0  0  0
 21 20  2  0  0  0  0
 21 12  1  0  0  0  0
 22 21  1  0  0  0  0
 23 24  1  0  0  0  0
 23 22  2  0  0  0  0
 24 19  2  0  0  0  0
 27 23  1  0  0  0  0
 28 29  1  0  0  0  0
 29 39  1  0  0  0  0
 30 29  2  0  0  0  0
 30 32  1  0  0  0  0
 31 30  1  0  0  0  0
 32 33  2  0  0  0  0
 33 34  1  0  0  0  0
 34 35  1  0  0  0  0
 35 36  2  0  0  0  0
 37 36  1  0  0  0  0
 38 37  2  0  0  0  0
 39 38  1  0  0  0  0
 39 34  2  0  0  0  0
M  END
>  <minimizedAffinity>
-5.84383392

$$$$

 OpenBabel03262521363D

 39 43  0  0  1  0  0  0  0  0999 V2000
   33.6300   29.4040   34.0820 C   0  0  1  0  0  0  0  0  0  0  0  0
   33.4870   30.2220   35.3230 C   0  0  2  0  0  0  0  0  0  0  0  0
   31.9770   30.3770   35.4690 C   0  0  0  0  0  0  0  0  0  0  0  0
   31.6030   30.6160   34.1770 O   0  0  0  0  0  0  0  0  0  0  0  0
   32.3560   29.8600   33.3210 C   0  0  0  0  0  0  0  0  0  0  0  0
   33.3780   28.3640   34.3580 H   0  0  0  0  0  0  0  0  0  0  0  0
   33.8050   29.5960   36.1850 H   0  0  0  0  0  0  0  0  0  0  0  0
   31.8010   31.2690   36.0910 H   0  0  0  0  0  0  0  0  0  0  0  0
   31.5580   29.4490   35.9000 H   0  0  0  0  0  0  0  0  0  0  0  0
   32.6980   30.4410   32.4420 H   0  0  0  0  0  0  0  0  0  0  0  0
   31.7570   29.0200   32.9760 H   0  0  0  0  0  0  0  0  0  0  0  0
   35.6600   31.6100   35.6530 C   0  0  1  0  0  0  0  0  0  0  0  0
   34.7270   31.9190   36.7100 C   0  0  0  0  0  0  0  0  0  0  0  0
   34.1690   31.5630   35.3170 C   0  0  2  0  0  0  0  0  0  0  0  0
   36.1330   30.5970   35.5790 H   0  0  0  0  0  0  0  0  0  0  0  0
   34.5580   31.2480   37.5500 H   0  0  0  0  0  0  0  0  0  0  0  0
   34.6050   32.9980   36.9950 H   0  0  0  0  0  0  0  0  0  0  0  0
   33.7080   32.3840   34.7600 H   0  0  0  0  0  0  0  0  0  0  0  0
   36.9450   33.6940   32.8290 C   0  0  0  0  0  0  0  0  0  0  0  0
   36.2520   32.7140   33.5260 C   0  0  0  0  0  0  0  0  0  0  0  0
   36.3810   32.6440   34.8980 C   0  0  0  0  0  0  0  0  0  0  0  0
   37.2040   33.5680   35.5050 N   0  0  0  0  0  0  0  0  0  0  0  0
   37.8750   34.5200   34.8200 C   0  0  0  0  0  0  0  0  0  0  0  0
   37.7490   34.5910   33.4550 N   0  0  0  0  0  0  0  0  0  0  0  0
   36.8900   33.8090   31.7490 H   0  0  0  0  0  0  0  0  0  0  0  0
   35.6830   32.0480   32.9260 H   0  0  0  0  0  0  0  0  0  0  0  0
   38.4960   35.1900   35.4160 H   0  0  0  0  0  0  0  0  0  0  0  0
   34.7220   29.6640   33.3300 O   0  0  0  0  0  0  0  0  0  0  0  0
   35.7550   28.9280   32.9250 C   0  0  0  0  0  0  0  0  0  0  0  0
   35.7340   28.9350   31.5200 C   0  0  0  0  0  0  0  0  0  0  0  0
   35.0420   29.4250   30.8310 H   0  0  0  0  0  0  0  0  0  0  0  0
   36.6650   28.2660   30.7220 C   0  0  0  0  0  3  0  0  0  0  0  0
   37.6840   27.5440   31.3290 C   0  0  0  0  0  3  0  0  0  0  0  0
   37.7530   27.5050   32.7040 C   0  0  0  0  0  0  0  0  0  0  0  0
   38.7270   26.8470   33.4210 C   0  0  0  0  0  3  0  0  0  0  0  0
   38.7940   26.8430   34.8070 C   0  0  0  0  0  3  0  0  0  0  0  0
   37.8070   27.5540   35.4800 C   0  0  0  0  0  3  0  0  0  0  0  0
   36.8310   28.2130   34.7720 C   0  0  0  0  0  3  0  0  0  0  0  0
   36.7990   28.1900   33.4140 C   0  0  0  0  0  0  0  0  0  0  0  0
  1  6  1  1  0  0  0
  1  2  1  0  0  0  0
  2  3  1  0  0  0  0
  2  7  1  1  0  0  0
  3  9  1  0  0  0  0
  3  8  1  0  0  0  0
  4  3  1  0  0  0  0
  5  1  1  0  0  0  0
  5  4  1  0  0  0  0
 10  5  1  0  0  0  0
 11  5  1  0  0  0  0
 12 15  1  1  0  0  0
 12 13  1  0  0  0  0
 13 17  1  0  0  0  0
 13 16  1  0  0  0  0
 14 18  1  6  0  0  0
 14  2  1  0  0  0  0
 14 12  1  0  0  0  0
 14 13  1  0  0  0  0
 19 24  2  0  0  0  0
 19 20  1  0  0  0  0
 20 21  2  0  0  0  0
 21 22  1  0  0  0  0
 21 12  1  0  0  0  0
 23 27  1  0  0  0  0
 23 22  2  0  0  0  0
 24 23  1  0  0  0  0
 25 19  1  0  0  0  0
 26 20  1  0  0  0  0
 28  1  1  0  0  0  0
 29 28  1  0  0  0  0
 29 39  1  0  0  0  0
 30 29  2  0  0  0  0
 31 30  1  0  0  0  0
 32 33  2  0  0  0  0
 32 30  1  0  0  0  0
 33 34  1  0  0  0  0
 34 39  2  0  0  0  0
 34 35  1  0  0  0  0
 35 36  2  0  0  0  0
 36 37  1  0  0  0  0
 38 37  2  0  0  0  0
 39 38  1  0  0  0  0
M  END
>  <minimizedAffinity>
-5.83130932

$$$$

 OpenBabel03262521363D

 39 43  0  0  1  0  0  0  0  0999 V2000
   33.7610   29.5370   34.2420 C   0  0  1  0  0  0  0  0  0  0  0  0
   33.5920   30.4310   35.4270 C   0  0  2  0  0  0  0  0  0  0  0  0
   32.0790   30.6000   35.5250 C   0  0  0  0  0  0  0  0  0  0  0  0
   31.7390   30.7610   34.2130 O   0  0  0  0  0  0  0  0  0  0  0  0
   32.5080   29.9510   33.4230 C   0  0  0  0  0  0  0  0  0  0  0  0
   33.4970   28.5180   34.5750 H   0  0  0  0  0  0  0  0  0  0  0  0
   33.8850   29.8580   36.3340 H   0  0  0  0  0  0  0  0  0  0  0  0
   31.8930   31.5300   36.0870 H   0  0  0  0  0  0  0  0  0  0  0  0
   31.6450   29.7020   36.0020 H   0  0  0  0  0  0  0  0  0  0  0  0
   32.8750   30.4750   32.5200 H   0  0  0  0  0  0  0  0  0  0  0  0
   31.9140   29.0930   33.1160 H   0  0  0  0  0  0  0  0  0  0  0  0
   35.7640   31.8270   35.7200 C   0  0  1  0  0  0  0  0  0  0  0  0
   34.8110   32.2030   36.7360 C   0  0  0  0  0  0  0  0  0  0  0  0
   34.2810   31.7660   35.3550 C   0  0  2  0  0  0  0  0  0  0  0  0
   36.2340   30.8100   35.7170 H   0  0  0  0  0  0  0  0  0  0  0  0
   34.6210   31.5840   37.6110 H   0  0  0  0  0  0  0  0  0  0  0  0
   34.6890   33.2980   36.9530 H   0  0  0  0  0  0  0  0  0  0  0  0
   33.8370   32.5540   34.7400 H   0  0  0  0  0  0  0  0  0  0  0  0
   37.0860   33.7620   32.8070 C   0  0  0  0  0  0  0  0  0  0  0  0
   36.3730   32.8280   33.5470 C   0  0  0  0  0  0  0  0  0  0  0  0
   36.5070   32.8120   34.9210 C   0  0  0  0  0  0  0  0  0  0  0  0
   37.3560   33.7390   35.4850 N   0  0  0  0  0  0  0  0  0  0  0  0
   38.0460   34.6450   34.7580 C   0  0  0  0  0  0  0  0  0  0  0  0
   37.9150   34.6630   33.3930 N   0  0  0  0  0  0  0  0  0  0  0  0
   37.0280   33.8340   31.7240 H   0  0  0  0  0  0  0  0  0  0  0  0
   35.7840   32.1530   32.9770 H   0  0  0  0  0  0  0  0  0  0  0  0
   38.6870   35.3240   35.3240 H   0  0  0  0  0  0  0  0  0  0  0  0
   34.8720   29.7460   33.5030 O   0  0  0  0  0  0  0  0  0  0  0  0
   35.9230   28.9910   33.1900 C   0  0  0  0  0  0  0  0  0  0  0  0
   36.2960   28.3080   34.3600 C   0  0  0  0  0  0  0  0  0  0  0  0
   35.8580   28.3390   35.3610 H   0  0  0  0  0  0  0  0  0  0  0  0
   37.3670   27.4140   34.4340 C   0  0  0  0  0  3  0  0  0  0  0  0
   38.1240   27.1670   33.2970 C   0  0  0  0  0  3  0  0  0  0  0  0
   37.8000   27.8080   32.1220 C   0  0  0  0  0  0  0  0  0  0  0  0
   38.4570   27.6280   30.9250 C   0  0  0  0  0  3  0  0  0  0  0  0
   38.0970   28.2640   29.7460 C   0  0  0  0  0  3  0  0  0  0  0  0
   37.0080   29.1250   29.8090 C   0  0  0  0  0  3  0  0  0  0  0  0
   36.3480   29.3110   31.0000 C   0  0  0  0  0  3  0  0  0  0  0  0
   36.7330   28.6710   32.1350 C   0  0  0  0  0  0  0  0  0  0  0  0
  1  6  1  1  0  0  0
  1  2  1  0  0  0  0
  2  3  1  0  0  0  0
  2  7  1  1  0  0  0
  3  9  1  0  0  0  0
  3  8  1  0  0  0  0
  4  3  1  0  0  0  0
  5  4  1  0  0  0  0
  5  1  1  0  0  0  0
 10  5  1  0  0  0  0
 11  5  1  0  0  0  0
 12 15  1  1  0  0  0
 12 13  1  0  0  0  0
 13 17  1  0  0  0  0
 13 16  1  0  0  0  0
 14 18  1  6  0  0  0
 14  2  1  0  0  0  0
 14 12  1  0  0  0  0
 14 13  1  0  0  0  0
 19 24  2  0  0  0  0
 19 20  1  0  0  0  0
 20 21  2  0  0  0  0
 21 22  1  0  0  0  0
 21 12  1  0  0  0  0
 23 27  1  0  0  0  0
 23 22  2  0  0  0  0
 24 23  1  0  0  0  0
 25 19  1  0  0  0  0
 26 20  1  0  0  0  0
 28  1  1  0  0  0  0
 29 28  1  0  0  0  0
 29 30  1  0  0  0  0
 30 32  2  0  0  0  0
 30 31  1  0  0  0  0
 33 32  1  0  0  0  0
 34 39  1  0  0  0  0
 34 33  2  0  0  0  0
 35 34  1  0  0  0  0
 36 37  1  0  0  0  0
 36 35  2  0  0  0  0
 37 38  2  0  0  0  0
 38 39  1  0  0  0  0
 39 29  2  0  0  0  0
M  END
>  <minimizedAffinity>
-5.74100113

$$$$

 OpenBabel03262521363D

 39 43  0  0  1  0  0  0  0  0999 V2000
   37.1490   25.4410   32.2600 C   0  0  1  0  0  0  0  0  0  0  0  0
   37.5420   26.5580   33.1710 C   0  0  2  0  0  0  0  0  0  0  0  0
   38.2830   27.5190   32.2470 C   0  0  0  0  0  0  0  0  0  0  0  0
   39.0300   26.6540   31.4990 O   0  0  0  0  0  0  0  0  0  0  0  0
   38.3130   25.5190   31.2360 C   0  0  0  0  0  0  0  0  0  0  0  0
   36.2910   25.8040   31.6680 H   0  0  0  0  0  0  0  0  0  0  0  0
   36.6170   27.0940   33.4750 H   0  0  0  0  0  0  0  0  0  0  0  0
   38.9370   28.1390   32.8820 H   0  0  0  0  0  0  0  0  0  0  0  0
   37.5460   28.1040   31.6670 H   0  0  0  0  0  0  0  0  0  0  0  0
   38.9190   24.6020   31.3690 H   0  0  0  0  0  0  0  0  0  0  0  0
   37.9570   25.5590   30.2080 H   0  0  0  0  0  0  0  0  0  0  0  0
   37.6830   25.7950   35.6520 C   0  0  1  0  0  0  0  0  0  0  0  0
   38.1720   27.1470   35.5370 C   0  0  0  0  0  0  0  0  0  0  0  0
   38.3920   26.1830   34.3540 C   0  0  2  0  0  0  0  0  0  0  0  0
   36.6020   25.5540   35.4770 H   0  0  0  0  0  0  0  0  0  0  0  0
   37.5020   27.9980   35.4250 H   0  0  0  0  0  0  0  0  0  0  0  0
   39.1070   27.4110   36.1000 H   0  0  0  0  0  0  0  0  0  0  0  0
   39.4240   25.8650   34.1790 H   0  0  0  0  0  0  0  0  0  0  0  0
   40.1070   23.0890   36.5320 C   0  0  0  0  0  0  0  0  0  0  0  0
   39.4480   24.0760   35.8130 C   0  0  0  0  0  0  0  0  0  0  0  0
   38.3960   24.7500   36.3990 C   0  0  0  0  0  0  0  0  0  0  0  0
   38.0560   24.3950   37.6870 N   0  0  0  0  0  0  0  0  0  0  0  0
   38.7030   23.4330   38.3810 C   0  0  0  0  0  0  0  0  0  0  0  0
   39.7490   22.7620   37.8000 N   0  0  0  0  0  0  0  0  0  0  0  0
   40.9440   22.5200   36.1350 H   0  0  0  0  0  0  0  0  0  0  0  0
   39.7940   24.2210   34.8190 H   0  0  0  0  0  0  0  0  0  0  0  0
   38.3360   23.2440   39.3920 H   0  0  0  0  0  0  0  0  0  0  0  0
   37.1210   24.2110   32.8180 O   0  0  0  0  0  0  0  0  0  0  0  0
   37.1040   22.9770   32.3200 C   0  0  0  0  0  0  0  0  0  0  0  0
   35.8360   22.7870   31.7450 C   0  0  0  0  0  0  0  0  0  0  0  0
   34.9860   23.4710   31.6800 H   0  0  0  0  0  0  0  0  0  0  0  0
   35.4320   21.6060   31.1170 C   0  0  0  0  0  3  0  0  0  0  0  0
   36.3180   20.5390   31.0450 C   0  0  0  0  0  3  0  0  0  0  0  0
   37.5750   20.6720   31.5910 C   0  0  0  0  0  0  0  0  0  0  0  0
   38.5490   19.6980   31.5590 C   0  0  0  0  0  3  0  0  0  0  0  0
   39.8190   19.8620   32.0920 C   0  0  0  0  0  3  0  0  0  0  0  0
   40.0940   21.0900   32.6830 C   0  0  0  0  0  3  0  0  0  0  0  0
   39.1270   22.0660   32.7190 C   0  0  0  0  0  3  0  0  0  0  0  0
   37.8930   21.8660   32.1880 C   0  0  0  0  0  0  0  0  0  0  0  0
  1  6  1  6  0  0  0
  1 28  1  0  0  0  0
  1  2  1  0  0  0  0
  2  7  1  1  0  0  0
  2 14  1  0  0  0  0
  3  8  1  0  0  0  0
  3  2  1  0  0  0  0
  4  3  1  0  0  0  0
  5 10  1  0  0  0  0
  5  4  1  0  0  0  0
  5  1  1  0  0  0  0
  9  3  1  0  0  0  0
 11  5  1  0  0  0  0
 12 15  1  6  0  0  0
 12 21  1  0  0  0  0
 13 12  1  0  0  0  0
 13 17  1  0  0  0  0
 14 18  1  6  0  0  0
 14 13  1  0  0  0  0
 14 12  1  0  0  0  0
 16 13  1  0  0  0  0
 19 24  1  0  0  0  0
 20 21  1  0  0  0  0
 20 19  2  0  0  0  0
 21 22  2  0  0  0  0
 22 23  1  0  0  0  0
 23 27  1  0  0  0  0
 24 23  2  0  0  0  0
 25 19  1  0  0  0  0
 26 20  1  0  0  0  0
 29 28  1  0  0  0  0
 30 29  2  0  0  0  0
 31 30  1  0  0  0  0
 32 30  1  0  0  0  0
 33 32  2  0  0  0  0
 33 34  1  0  0  0  0
 34 39  1  0  0  0  0
 35 34  2  0  0  0  0
 35 36  1  0  0  0  0
 36 37  2  0  0  0  0
 37 38  1  0  0  0  0
 39 29  1  0  0  0  0
 39 38  2  0  0  0  0
M  END
>  <minimizedAffinity>
-5.65474176

$$$$

 OpenBabel03262521363D

 39 43  0  0  1  0  0  0  0  0999 V2000
   37.2100   21.5990   32.9320 C   0  0  1  0  0  0  0  0  0  0  0  0
   36.1480   22.3160   32.1640 C   0  0  2  0  0  0  0  0  0  0  0  0
   35.6010   21.2380   31.2340 C   0  0  0  0  0  0  0  0  0  0  0  0
   36.7500   20.6200   30.8310 O   0  0  0  0  0  0  0  0  0  0  0  0
   37.6390   20.5520   31.8690 C   0  0  0  0  0  0  0  0  0  0  0  0
   36.6920   20.9750   33.6810 H   0  0  0  0  0  0  0  0  0  0  0  0
   35.3170   22.5500   32.8650 H   0  0  0  0  0  0  0  0  0  0  0  0
   35.1250   21.7540   30.3850 H   0  0  0  0  0  0  0  0  0  0  0  0
   34.9090   20.5880   31.8000 H   0  0  0  0  0  0  0  0  0  0  0  0
   38.6670   20.8160   31.5560 H   0  0  0  0  0  0  0  0  0  0  0  0
   37.6400   19.5380   32.2640 H   0  0  0  0  0  0  0  0  0  0  0  0
   36.5310   24.8850   32.0850 C   0  0  1  0  0  0  0  0  0  0  0  0
   35.4390   24.5360   31.2110 C   0  0  0  0  0  0  0  0  0  0  0  0
   36.5900   23.5250   31.3880 C   0  0  2  0  0  0  0  0  0  0  0  0
   36.4390   24.7770   33.1970 H   0  0  0  0  0  0  0  0  0  0  0  0
   34.4460   24.2980   31.5890 H   0  0  0  0  0  0  0  0  0  0  0  0
   35.4040   25.0260   30.2010 H   0  0  0  0  0  0  0  0  0  0  0  0
   37.2430   23.3840   30.5220 H   0  0  0  0  0  0  0  0  0  0  0  0
   39.9150   26.4450   31.7800 C   0  0  0  0  0  0  0  0  0  0  0  0
   38.8980   25.5860   32.1710 C   0  0  0  0  0  0  0  0  0  0  0  0
   37.6230   25.7810   31.6780 C   0  0  0  0  0  0  0  0  0  0  0  0
   37.4340   26.8360   30.8120 N   0  0  0  0  0  0  0  0  0  0  0  0
   38.4300   27.6680   30.4360 C   0  0  0  0  0  0  0  0  0  0  0  0
   39.6970   27.4760   30.9250 N   0  0  0  0  0  0  0  0  0  0  0  0
   40.9410   26.3500   32.1260 H   0  0  0  0  0  0  0  0  0  0  0  0
   39.1790   24.8380   32.8700 H   0  0  0  0  0  0  0  0  0  0  0  0
   38.1500   28.4670   29.7460 H   0  0  0  0  0  0  0  0  0  0  0  0
   38.2800   22.3440   33.2880 O   0  0  0  0  0  0  0  0  0  0  0  0
   39.0920   22.3390   34.3430 C   0  0  0  0  0  0  0  0  0  0  0  0
   40.3460   21.8960   33.8900 C   0  0  0  0  0  0  0  0  0  0  0  0
   40.6650   21.5990   32.8870 H   0  0  0  0  0  0  0  0  0  0  0  0
   41.4680   21.7540   34.7100 C   0  0  0  0  0  3  0  0  0  0  0  0
   41.3640   22.0630   36.0600 C   0  0  0  0  0  3  0  0  0  0  0  0
   40.1570   22.5040   36.5570 C   0  0  0  0  0  0  0  0  0  0  0  0
   39.9360   22.8650   37.8680 C   0  0  0  0  0  3  0  0  0  0  0  0
   38.7190   23.3340   38.3430 C   0  0  0  0  0  3  0  0  0  0  0  0
   37.6860   23.4330   37.4180 C   0  0  0  0  0  3  0  0  0  0  0  0
   37.8990   23.0740   36.1090 C   0  0  0  0  0  3  0  0  0  0  0  0
   39.1050   22.6160   35.6840 C   0  0  0  0  0  0  0  0  0  0  0  0
  1 28  1  0  0  0  0
  1  6  1  1  0  0  0
  2  7  1  1  0  0  0
  2  1  1  0  0  0  0
  3  9  1  0  0  0  0
  3  2  1  0  0  0  0
  4  3  1  0  0  0  0
  4  5  1  0  0  0  0
  5 11  1  0  0  0  0
  5  1  1  0  0  0  0
  8  3  1  0  0  0  0
 10  5  1  0  0  0  0
 12 15  1  1  0  0  0
 13 14  1  0  0  0  0
 13 16  1  0  0  0  0
 13 12  1  0  0  0  0
 14 18  1  6  0  0  0
 14 12  1  0  0  0  0
 14  2  1  0  0  0  0
 17 13  1  0  0  0  0
 19 25  1  0  0  0  0
 19 20  1  0  0  0  0
 20 26  1  0  0  0  0
 21 12  1  0  0  0  0
 21 20  2  0  0  0  0
 22 21  1  0  0  0  0
 23 22  2  0  0  0  0
 23 24  1  0  0  0  0
 24 19  2  0  0  0  0
 27 23  1  0  0  0  0
 28 29  1  0  0  0  0
 29 39  1  0  0  0  0
 30 29  2  0  0  0  0
 30 32  1  0  0  0  0
 31 30  1  0  0  0  0
 32 33  2  0  0  0  0
 33 34  1  0  0  0  0
 34 35  1  0  0  0  0
 35 36  2  0  0  0  0
 37 36  1  0  0  0  0
 38 37  2  0  0  0  0
 39 38  1  0  0  0  0
 39 34  2  0  0  0  0
M  END
>  <minimizedAffinity>
-5.62933874

$$$$

 OpenBabel03262521363D

 39 43  0  0  1  0  0  0  0  0999 V2000
   38.6780   26.6660   33.6820 C   0  0  1  0  0  0  0  0  0  0  0  0
   37.4650   26.9310   32.8520 C   0  0  2  0  0  0  0  0  0  0  0  0
   36.6490   27.8840   33.7200 C   0  0  0  0  0  0  0  0  0  0  0  0
   36.7960   27.3200   34.9550 O   0  0  0  0  0  0  0  0  0  0  0  0
   38.0650   26.8270   35.1000 C   0  0  0  0  0  0  0  0  0  0  0  0
   39.3180   27.5620   33.6010 H   0  0  0  0  0  0  0  0  0  0  0  0
   37.7780   27.5310   31.9690 H   0  0  0  0  0  0  0  0  0  0  0  0
   35.6010   27.8080   33.3870 H   0  0  0  0  0  0  0  0  0  0  0  0
   37.0680   28.9030   33.6320 H   0  0  0  0  0  0  0  0  0  0  0  0
   38.0720   25.8240   35.5680 H   0  0  0  0  0  0  0  0  0  0  0  0
   38.6370   27.5110   35.7230 H   0  0  0  0  0  0  0  0  0  0  0  0
   36.9570   25.0660   31.1160 C   0  0  1  0  0  0  0  0  0  0  0  0
   35.8470   25.9860   31.1700 C   0  0  0  0  0  0  0  0  0  0  0  0
   36.6520   25.7290   32.4600 C   0  0  2  0  0  0  0  0  0  0  0  0
   37.9530   25.3850   30.7130 H   0  0  0  0  0  0  0  0  0  0  0  0
   35.8820   26.9660   30.6960 H   0  0  0  0  0  0  0  0  0  0  0  0
   34.8120   25.5520   31.1760 H   0  0  0  0  0  0  0  0  0  0  0  0
   36.1370   25.1650   33.2430 H   0  0  0  0  0  0  0  0  0  0  0  0
   35.4350   21.6820   31.5750 C   0  0  0  0  0  0  0  0  0  0  0  0
   35.5790   23.0620   31.5450 C   0  0  0  0  0  0  0  0  0  0  0  0
   36.7840   23.6070   31.1490 C   0  0  0  0  0  0  0  0  0  0  0  0
   37.7900   22.7310   30.8020 N   0  0  0  0  0  0  0  0  0  0  0  0
   37.6430   21.3890   30.8330 C   0  0  0  0  0  0  0  0  0  0  0  0
   36.4460   20.8460   31.2270 N   0  0  0  0  0  0  0  0  0  0  0  0
   34.5160   21.1850   31.8750 H   0  0  0  0  0  0  0  0  0  0  0  0
   34.7320   23.6140   31.8720 H   0  0  0  0  0  0  0  0  0  0  0  0
   38.5160   20.8050   30.5360 H   0  0  0  0  0  0  0  0  0  0  0  0
   39.2130   25.4320   33.5610 O   0  0  0  0  0  0  0  0  0  0  0  0
   39.6400   24.5250   34.4370 C   0  0  0  0  0  0  0  0  0  0  0  0
   38.5700   23.6440   34.6650 C   0  0  0  0  0  0  0  0  0  0  0  0
   37.5620   23.6390   34.2420 H   0  0  0  0  0  0  0  0  0  0  0  0
   38.6300   22.5510   35.5340 C   0  0  0  0  0  3  0  0  0  0  0  0
   39.8070   22.2980   36.2260 C   0  0  0  0  0  3  0  0  0  0  0  0
   40.8880   23.1300   36.0380 C   0  0  0  0  0  0  0  0  0  0  0  0
   42.1140   22.9700   36.6450 C   0  0  0  0  0  3  0  0  0  0  0  0
   43.2000   23.8040   36.4200 C   0  0  0  0  0  3  0  0  0  0  0  0
   43.0070   24.8510   35.5270 C   0  0  0  0  0  3  0  0  0  0  0  0
   41.7870   25.0190   34.9180 C   0  0  0  0  0  3  0  0  0  0  0  0
   40.7460   24.1810   35.1670 C   0  0  0  0  0  0  0  0  0  0  0  0
  1  6  1  6  0  0  0
  1  5  1  0  0  0  0
  2  7  1  6  0  0  0
  2  1  1  0  0  0  0
  2  3  1  0  0  0  0
  3  4  1  0  0  0  0
  4  5  1  0  0  0  0
  5 10  1  0  0  0  0
  5 11  1  0  0  0  0
  8  3  1  0  0  0  0
  9  3  1  0  0  0  0
 12 15  1  6  0  0  0
 12 21  1  0  0  0  0
 12 13  1  0  0  0  0
 12 14  1  0  0  0  0
 13 17  1  0  0  0  0
 13 14  1  0  0  0  0
 14  2  1  0  0  0  0
 14 18  1  1  0  0  0
 16 13  1  0  0  0  0
 19 25  1  0  0  0  0
 20 19  1  0  0  0  0
 20 26  1  0  0  0  0
 21 20  2  0  0  0  0
 22 23  2  0  0  0  0
 22 21  1  0  0  0  0
 23 24  1  0  0  0  0
 24 19  2  0  0  0  0
 27 23  1  0  0  0  0
 28  1  1  0  0  0  0
 28 29  1  0  0  0  0
 29 30  2  0  0  0  0
 29 39  1  0  0  0  0
 30 32  1  0  0  0  0
 31 30  1  0  0  0  0
 32 33  2  0  0  0  0
 34 33  1  0  0  0  0
 34 35  1  0  0  0  0
 36 35  2  0  0  0  0
 37 36  1  0  0  0  0
 38 39  1  0  0  0  0
 38 37  2  0  0  0  0
 39 34  2  0  0  0  0
M  END
>  <minimizedAffinity>
-5.62757826

$$$$
