
 OpenBabel03272506253D

 34 37  0  0  0  0  0  0  0  0999 V2000
   33.6550   28.5650   45.3520 C   0  0  0  0  0  0  0  0  0  0  0  0
   33.1680   28.9010   44.1040 C   0  0  0  0  0  0  0  0  0  0  0  0
   33.5780   29.9810   43.3490 C   0  0  0  0  0  0  0  0  0  0  0  0
   34.5770   30.8120   43.8930 C   0  0  0  0  0  0  0  0  0  0  0  0
   35.0800   30.4900   45.1510 C   0  0  0  0  0  0  0  0  0  0  0  0
   34.6400   29.4010   45.8690 C   0  0  0  0  0  0  0  0  0  0  0  0
   32.3950   28.2930   43.6340 H   0  0  0  0  0  0  0  0  0  0  0  0
   33.1560   30.1910   42.3740 H   0  0  0  0  0  0  0  0  0  0  0  0
   34.9360   31.6760   43.3440 H   0  0  0  0  0  0  0  0  0  0  0  0
   35.8390   31.1010   45.5940 H   0  0  0  0  0  0  0  0  0  0  0  0
   33.8670   26.2150   45.9320 C   0  0  0  0  0  0  0  0  0  0  0  0
   33.1010   27.3990   45.9820 C   0  0  0  0  0  0  0  0  0  0  0  0
   31.8710   27.3380   46.6380 C   0  0  0  0  0  0  0  0  0  0  0  0
   31.4680   26.1630   47.1940 N   0  0  0  0  0  0  0  0  0  0  0  0
   32.2440   25.0320   47.1250 C   0  0  0  0  0  0  0  0  0  0  0  0
   33.4500   25.0680   46.4870 N   0  0  0  0  0  0  0  0  0  0  0  0
   34.8270   26.2310   45.4300 H   0  0  0  0  0  0  0  0  0  0  0  0
   31.7890   24.1730   47.6140 H   0  0  0  0  0  0  0  0  0  0  0  0
   30.9530   28.5130   46.7700 C   0  0  0  0  0  0  0  0  0  0  0  0
   30.2530   28.4170   47.9850 F   0  0  0  0  0  0  0  0  0  0  0  0
   31.5220   29.7330   46.6820 F   0  0  0  0  0  0  0  0  0  0  0  0
   29.9370   28.4030   45.8160 F   0  0  0  0  0  0  0  0  0  0  0  0
   35.2570   28.9560   47.4740 S   0  0  0  0  0  0  0  0  0  0  0  0
   36.0650   30.3030   48.2930 C   0  0  0  0  0  0  0  0  0  0  0  0
   35.6200   30.8820   49.4630 C   0  0  0  0  0  0  0  0  0  0  0  0
   34.7190   30.4930   49.9180 H   0  0  0  0  0  0  0  0  0  0  0  0
   36.3640   31.9360   49.9880 C   0  0  0  0  0  3  0  0  0  0  0  0
   37.5110   32.4040   49.3800 C   0  0  0  0  0  3  0  0  0  0  0  0
   37.9530   31.8170   48.2010 C   0  0  0  0  0  0  0  0  0  0  0  0
   39.0990   32.2820   47.5870 C   0  0  0  0  0  3  0  0  0  0  0  0
   39.5580   31.7280   46.4320 C   0  0  0  0  0  3  0  0  0  0  0  0
   38.8460   30.6680   45.8670 C   0  0  0  0  0  3  0  0  0  0  0  0
   37.7040   30.2250   46.5030 C   0  0  0  0  0  3  0  0  0  0  0  0
   37.2100   30.7630   47.6730 C   0  0  0  0  0  0  0  0  0  0  0  0
  1  6  1  0  0  0  0
  1 12  1  0  0  0  0
  2  1  2  0  0  0  0
  3  4  2  0  0  0  0
  3  2  1  0  0  0  0
  4  5  1  0  0  0  0
  5 10  1  0  0  0  0
  5  6  2  0  0  0  0
  6 23  1  0  0  0  0
  7  2  1  0  0  0  0
  8  3  1  0  0  0  0
  9  4  1  0  0  0  0
 11 12  2  0  0  0  0
 11 16  1  0  0  0  0
 12 13  1  0  0  0  0
 13 19  1  0  0  0  0
 13 14  2  0  0  0  0
 15 14  1  0  0  0  0
 15 18  1  0  0  0  0
 16 15  2  0  0  0  0
 17 11  1  0  0  0  0
 19 20  1  0  0  0  0
 21 19  1  0  0  0  0
 22 19  1  0  0  0  0
 23 24  1  0  0  0  0
 24 25  1  0  0  0  0
 25 26  1  0  0  0  0
 25 27  2  0  0  0  0
 28 27  1  0  0  0  0
 29 28  2  0  0  0  0
 30 29  1  0  0  0  0
 31 30  2  0  0  0  0
 32 31  1  0  0  0  0
 32 33  2  0  0  0  0
 33 34  1  0  0  0  0
 34 29  1  0  0  0  0
 34 24  2  0  0  0  0
M  END
>  <minimizedAffinity>
-4.80205059

>  <minimizedRMSD>
5.79506493

$$$$
