
 OpenBabel03272503303D

 36 39  0  0  1  0  0  0  0  0999 V2000
   34.8570   29.3460   47.9730 C   0  0  0  0  0  0  0  0  0  0  0  0
   34.7730   29.8520   46.6650 C   0  0  0  0  0  0  0  0  0  0  0  0
   33.6160   29.5930   45.9420 C   0  0  0  0  0  0  0  0  0  0  0  0
   32.6390   28.8590   46.5620 N   0  0  0  0  0  0  0  0  0  0  0  0
   32.7500   28.3920   47.8060 C   0  0  0  0  0  0  0  0  0  0  0  0
   33.8580   28.6300   48.5220 N   0  0  0  0  0  0  0  0  0  0  0  0
   35.5580   30.4300   46.1990 H   0  0  0  0  0  0  0  0  0  0  0  0
   33.4690   29.9440   44.9360 H   0  0  0  0  0  0  0  0  0  0  0  0
   36.0580   29.6230   48.7060 N   0  0  0  0  0  0  0  0  0  0  0  0
   37.2150   30.3350   48.2350 C   0  0  0  0  0  0  0  0  0  0  0  0
   37.7710   30.9420   49.5300 C   0  0  2  0  0  0  0  0  0  0  0  0
   36.7830   30.5850   50.6150 C   0  0  0  0  0  0  0  0  0  0  0  0
   36.3290   29.2310   50.0690 C   0  0  0  0  0  0  0  0  0  0  0  0
   37.0120   31.1020   47.4860 H   0  0  0  0  0  0  0  0  0  0  0  0
   37.9250   29.5570   47.8460 H   0  0  0  0  0  0  0  0  0  0  0  0
   38.7130   30.4380   49.7810 H   0  0  0  0  0  0  0  0  0  0  0  0
   35.9010   31.2550   50.6280 H   0  0  0  0  0  0  0  0  0  0  0  0
   37.2340   30.4200   51.5910 H   0  0  0  0  0  0  0  0  0  0  0  0
   37.1070   28.4610   50.1760 H   0  0  0  0  0  0  0  0  0  0  0  0
   35.3810   29.0090   50.5680 H   0  0  0  0  0  0  0  0  0  0  0  0
   38.0060   32.4160   49.4130 C   0  0  0  0  0  0  0  0  0  0  0  0
   36.8990   33.0240   49.9760 F   0  0  0  0  0  0  0  0  0  0  0  0
   37.9880   32.7440   48.0810 F   0  0  0  0  0  0  0  0  0  0  0  0
   39.1690   32.8330   49.9850 F   0  0  0  0  0  0  0  0  0  0  0  0
   31.4420   27.4370   48.5550 S   0  0  0  0  0  0  0  0  0  0  0  0
   29.8450   28.1880   48.2740 C   0  0  0  0  0  0  0  0  0  0  0  0
   29.4760   28.9230   47.1620 C   0  0  0  0  0  0  0  0  0  0  0  0
   30.2350   29.0420   46.4090 H   0  0  0  0  0  0  0  0  0  0  0  0
   28.1850   29.4440   47.0950 C   0  0  0  0  0  0  0  0  0  0  0  0
   27.2750   29.2400   48.1110 C   0  0  0  0  0  0  0  0  0  0  0  0
   27.6490   28.5030   49.2210 C   0  0  0  0  0  0  0  0  0  0  0  0
   26.7240   28.3020   50.2430 C   0  0  0  0  0  0  0  0  0  0  0  0
   27.0680   27.5710   51.3640 C   0  0  0  0  0  0  0  0  0  0  0  0
   28.3270   27.0470   51.4590 C   0  0  0  0  0  0  0  0  0  0  0  0
   29.2000   27.2700   50.4340 C   0  0  0  0  0  0  0  0  0  0  0  0
   28.9290   27.9840   49.2930 C   0  0  0  0  0  0  0  0  0  0  0  0
  1  6  1  0  0  0  0
  1  9  1  0  0  0  0
  2  1  2  0  0  0  0
  3  4  2  0  0  0  0
  3  2  1  0  0  0  0
  4  5  1  0  0  0  0
  5  6  2  0  0  0  0
  5 25  1  0  0  0  0
  7  2  1  0  0  0  0
  8  3  1  0  0  0  0
  9 13  1  0  0  0  0
 10  9  1  0  0  0  0
 10 11  1  0  0  0  0
 11 16  1  1  0  0  0
 11 12  1  0  0  0  0
 12 17  1  0  0  0  0
 12 18  1  0  0  0  0
 13 19  1  0  0  0  0
 13 20  1  0  0  0  0
 13 12  1  0  0  0  0
 14 10  1  0  0  0  0
 15 10  1  0  0  0  0
 21 11  1  0  0  0  0
 21 22  1  0  0  0  0
 21 24  1  0  0  0  0
 23 21  1  0  0  0  0
 26 25  1  0  0  0  0
 26 36  1  0  0  0  0
 27 26  2  0  0  0  0
 28 27  1  0  0  0  0
 29 27  1  0  0  0  0
 29 30  2  0  0  0  0
 30 31  1  0  0  0  0
 31 36  2  0  0  0  0
 31 32  1  0  0  0  0
 32 33  2  0  0  0  0
 33 34  1  0  0  0  0
 35 34  2  0  0  0  0
 36 35  1  0  0  0  0
M  END
>  <minimizedAffinity>
-7.90007544

>  <minimizedRMSD>
1.8119365

$$$$
