
 OpenBabel03272508573D

 42 46  0  0  1  0  0  0  0  0999 V2000
   39.1560   31.4590   43.3930 C   0  0  0  0  0  0  0  0  0  0  0  0
   40.1460   30.5000   43.4850 C   0  0  0  0  0  0  0  0  0  0  0  0
   40.8290   30.1830   42.3280 C   0  0  0  0  0  0  0  0  0  0  0  0
   40.4990   30.8210   41.1650 C   0  0  0  0  0  0  0  0  0  0  0  0
   39.4940   31.7940   41.0750 C   0  0  0  0  0  0  0  0  0  0  0  0
   38.8510   32.0760   42.2260 N   0  0  0  0  0  0  0  0  0  0  0  0
   40.4120   29.9890   44.4020 H   0  0  0  0  0  0  0  0  0  0  0  0
   41.6190   29.4550   42.2690 H   0  0  0  0  0  0  0  0  0  0  0  0
   41.0060   30.6050   40.2400 H   0  0  0  0  0  0  0  0  0  0  0  0
   38.4110   31.8190   44.6160 C   0  0  0  0  0  0  0  0  0  0  0  0
   37.3250   32.4040   44.5620 O   0  0  0  0  0  0  0  0  0  0  0  0
   39.0010   31.4610   45.8890 N   0  0  0  0  0  0  0  0  0  0  0  0
   39.9810   31.1540   45.9960 H   0  0  0  0  0  0  0  0  0  0  0  0
   38.6560   31.0890   48.3270 C   0  0  2  0  0  0  0  0  0  0  0  0
   38.6640   32.5600   48.1110 C   0  0  0  0  0  0  0  0  0  0  0  0
   38.1630   31.5430   47.0670 C   0  0  1  0  0  0  0  0  0  0  0  0
   39.6570   30.6160   48.4150 H   0  0  0  0  0  0  0  0  0  0  0  0
   39.6210   33.0460   47.9310 H   0  0  0  0  0  0  0  0  0  0  0  0
   37.9170   33.1690   48.6530 H   0  0  0  0  0  0  0  0  0  0  0  0
   37.0680   31.6210   46.9000 H   0  0  0  0  0  0  0  0  0  0  0  0
   35.7650   29.2140   49.7220 C   0  0  0  0  0  0  0  0  0  0  0  0
   35.9940   29.3340   51.1190 C   0  0  0  0  0  0  0  0  0  0  0  0
   37.1510   30.0780   51.5710 C   0  0  0  0  0  0  0  0  0  0  0  0
   37.9790   30.6370   50.6370 N   0  0  0  0  0  0  0  0  0  0  0  0
   37.6930   30.4790   49.3170 C   0  0  0  0  0  0  0  0  0  0  0  0
   36.6000   29.7780   48.8200 N   0  0  0  0  0  0  0  0  0  0  0  0
   34.8980   28.6560   49.4580 H   0  0  0  0  0  0  0  0  0  0  0  0
   35.3680   28.9100   51.8610 H   0  0  0  0  0  0  0  0  0  0  0  0
   37.3220   30.1670   52.6260 H   0  0  0  0  0  0  0  0  0  0  0  0
   39.1640   32.4360   39.8160 C   0  0  0  0  0  0  0  0  0  0  0  0
   38.6250   33.5690   39.8280 O   0  0  0  0  0  0  0  0  0  0  0  0
   39.3660   31.9610   38.4590 C   0  0  0  0  0  0  0  0  0  0  0  0
   40.4580   32.4430   37.7280 C   0  0  0  0  0  0  0  0  0  0  0  0
   41.1030   33.1780   38.2280 H   0  0  0  0  0  0  0  0  0  0  0  0
   40.7900   32.0760   36.4420 C   0  0  0  0  0  3  0  0  0  0  0  0
   39.9790   31.1540   35.8140 C   0  0  0  0  0  3  0  0  0  0  0  0
   38.8860   30.6440   36.4850 C   0  0  0  0  0  0  0  0  0  0  0  0
   38.0700   29.7260   35.8620 C   0  0  0  0  0  3  0  0  0  0  0  0
   36.9640   29.2070   36.5250 C   0  0  0  0  0  3  0  0  0  0  0  0
   36.6770   29.6180   37.8300 C   0  0  0  0  0  3  0  0  0  0  0  0
   37.5130   30.5360   38.4220 C   0  0  0  0  0  3  0  0  0  0  0  0
   38.5990   31.0450   37.7730 C   0  0  0  0  0  0  0  0  0  0  0  0
  1  2  1  0  0  0  0
  1 10  1  0  0  0  0
  2  7  1  0  0  0  0
  3  2  2  0  0  0  0
  4  3  1  0  0  0  0
  5  4  2  0  0  0  0
  5  6  1  0  0  0  0
  6  1  2  0  0  0  0
  8  3  1  0  0  0  0
  9  4  1  0  0  0  0
 10 12  1  0  0  0  0
 11 10  2  0  0  0  0
 12 13  1  0  0  0  0
 12 16  1  0  0  0  0
 14 17  1  6  0  0  0
 14 25  1  0  0  0  0
 15 14  1  0  0  0  0
 15 19  1  0  0  0  0
 16 20  1  6  0  0  0
 16 15  1  0  0  0  0
 16 14  1  0  0  0  0
 18 15  1  0  0  0  0
 21 22  1  0  0  0  0
 22 23  2  0  0  0  0
 22 28  1  0  0  0  0
 23 29  1  0  0  0  0
 24 23  1  0  0  0  0
 25 24  2  0  0  0  0
 26 25  1  0  0  0  0
 26 21  2  0  0  0  0
 27 21  1  0  0  0  0
 30 31  2  0  0  0  0
 30  5  1  0  0  0  0
 32 30  1  0  0  0  0
 33 34  1  0  0  0  0
 33 32  2  0  0  0  0
 35 33  1  0  0  0  0
 36 35  2  0  0  0  0
 36 37  1  0  0  0  0
 37 42  1  0  0  0  0
 38 37  2  0  0  0  0
 38 39  1  0  0  0  0
 39 40  2  0  0  0  0
 40 41  1  0  0  0  0
 42 41  2  0  0  0  0
 42 32  1  0  0  0  0
M  END
>  <minimizedAffinity>
-5.08318472

>  <minimizedRMSD>
1.44120133

$$$$
