
 OpenBabel03272503303D

 36 39  0  0  1  0  0  0  0  0999 V2000
   34.8560   29.3460   47.9740 C   0  0  0  0  0  0  0  0  0  0  0  0
   34.7720   29.8520   46.6660 C   0  0  0  0  0  0  0  0  0  0  0  0
   33.6150   29.5930   45.9430 C   0  0  0  0  0  0  0  0  0  0  0  0
   32.6380   28.8590   46.5620 N   0  0  0  0  0  0  0  0  0  0  0  0
   32.7490   28.3920   47.8060 C   0  0  0  0  0  0  0  0  0  0  0  0
   33.8560   28.6290   48.5230 N   0  0  0  0  0  0  0  0  0  0  0  0
   35.5570   30.4310   46.2000 H   0  0  0  0  0  0  0  0  0  0  0  0
   33.4680   29.9450   44.9370 H   0  0  0  0  0  0  0  0  0  0  0  0
   36.0570   29.6220   48.7080 N   0  0  0  0  0  0  0  0  0  0  0  0
   37.2140   30.3340   48.2360 C   0  0  0  0  0  0  0  0  0  0  0  0
   37.7700   30.9420   49.5310 C   0  0  2  0  0  0  0  0  0  0  0  0
   36.7810   30.5850   50.6160 C   0  0  0  0  0  0  0  0  0  0  0  0
   36.3280   29.2310   50.0700 C   0  0  0  0  0  0  0  0  0  0  0  0
   37.0110   31.1010   47.4870 H   0  0  0  0  0  0  0  0  0  0  0  0
   37.9240   29.5560   47.8480 H   0  0  0  0  0  0  0  0  0  0  0  0
   38.7120   30.4370   49.7830 H   0  0  0  0  0  0  0  0  0  0  0  0
   35.9000   31.2550   50.6280 H   0  0  0  0  0  0  0  0  0  0  0  0
   37.2330   30.4200   51.5920 H   0  0  0  0  0  0  0  0  0  0  0  0
   37.1050   28.4610   50.1770 H   0  0  0  0  0  0  0  0  0  0  0  0
   35.3790   29.0090   50.5690 H   0  0  0  0  0  0  0  0  0  0  0  0
   38.0060   32.4160   49.4130 C   0  0  0  0  0  0  0  0  0  0  0  0
   36.8980   33.0240   49.9760 F   0  0  0  0  0  0  0  0  0  0  0  0
   37.9880   32.7420   48.0810 F   0  0  0  0  0  0  0  0  0  0  0  0
   39.1690   32.8320   49.9850 F   0  0  0  0  0  0  0  0  0  0  0  0
   31.4410   27.4370   48.5550 S   0  0  0  0  0  0  0  0  0  0  0  0
   29.8440   28.1870   48.2750 C   0  0  0  0  0  0  0  0  0  0  0  0
   29.4750   28.9230   47.1630 C   0  0  0  0  0  0  0  0  0  0  0  0
   30.2340   29.0430   46.4100 H   0  0  0  0  0  0  0  0  0  0  0  0
   28.1840   29.4440   47.0960 C   0  0  0  0  0  3  0  0  0  0  0  0
   27.2740   29.2400   48.1130 C   0  0  0  0  0  3  0  0  0  0  0  0
   27.6490   28.5030   49.2220 C   0  0  0  0  0  0  0  0  0  0  0  0
   26.7230   28.3020   50.2440 C   0  0  0  0  0  3  0  0  0  0  0  0
   27.0670   27.5710   51.3660 C   0  0  0  0  0  3  0  0  0  0  0  0
   28.3260   27.0470   51.4600 C   0  0  0  0  0  3  0  0  0  0  0  0
   29.2000   27.2700   50.4340 C   0  0  0  0  0  3  0  0  0  0  0  0
   28.9280   27.9840   49.2940 C   0  0  0  0  0  0  0  0  0  0  0  0
  1  6  1  0  0  0  0
  1  9  1  0  0  0  0
  2  1  2  0  0  0  0
  3  4  2  0  0  0  0
  3  2  1  0  0  0  0
  4  5  1  0  0  0  0
  5  6  2  0  0  0  0
  5 25  1  0  0  0  0
  7  2  1  0  0  0  0
  8  3  1  0  0  0  0
  9 13  1  0  0  0  0
 10  9  1  0  0  0  0
 10 11  1  0  0  0  0
 11 16  1  1  0  0  0
 11 12  1  0  0  0  0
 12 17  1  0  0  0  0
 12 18  1  0  0  0  0
 13 19  1  0  0  0  0
 13 20  1  0  0  0  0
 13 12  1  0  0  0  0
 14 10  1  0  0  0  0
 15 10  1  0  0  0  0
 21 11  1  0  0  0  0
 21 22  1  0  0  0  0
 21 24  1  0  0  0  0
 23 21  1  0  0  0  0
 26 25  1  0  0  0  0
 26 36  1  0  0  0  0
 27 26  2  0  0  0  0
 28 27  1  0  0  0  0
 29 27  1  0  0  0  0
 29 30  2  0  0  0  0
 30 31  1  0  0  0  0
 31 36  2  0  0  0  0
 31 32  1  0  0  0  0
 32 33  2  0  0  0  0
 33 34  1  0  0  0  0
 35 34  2  0  0  0  0
 36 35  1  0  0  0  0
M  END
>  <minimizedAffinity>
-7.899508

>  <minimizedRMSD>
1.56096387

$$$$
