REMARK  Name = 
REMARK  5 active torsions:
REMARK  status: ('A' for Active; 'I' for Inactive)
REMARK    1  A    between atoms: C_3  and  O_7
REMARK    2  A    between atoms: O_7  and  P_9
REMARK    3  A    between atoms: P_9  and  O_10
REMARK    4  A    between atoms: P_9  and  O_11
REMARK    5  A    between atoms: O_11  and  C_16
REMARK                            x       y       z     vdW  Elec       q    Type
REMARK                         _______ _______ _______ _____ _____    ______ ____
ROOT
ATOM      1  O   UNL     1      39.060  32.731  48.135  0.00  0.00    +0.000 OA
ATOM      2  P   UNL     1      38.703  31.720  47.102  0.00  0.00    +0.000 P 
ENDROOT
BRANCH   2   3
ATOM      3  O   UNL     1      37.819  32.453  45.842  0.00  0.00    +0.000 OA
ATOM      4  H   UNL     1      37.982  32.008  44.974  0.00  0.00    +0.000 HD
ENDBRANCH   2   3
BRANCH   2   5
ATOM      5  O   UNL     1      37.853  30.384  47.697  0.00  0.00    +0.000 OA
BRANCH   5   8
ATOM      6  C   UNL     1      37.346  30.150  51.359  0.00  0.00    +0.000 A 
ATOM      7  C   UNL     1      38.000  30.508  50.168  0.00  0.00    +0.000 A 
ATOM      8  C   UNL     1      37.413  30.151  48.954  0.00  0.00    +0.000 A 
ATOM      9  N   UNL     1      36.233  29.470  48.990  0.00  0.00    +0.000 NA
ATOM     10  C   UNL     1      35.639  29.145  50.151  0.00  0.00    +0.000 A 
ATOM     11  N   UNL     1      36.188  29.481  51.331  0.00  0.00    +0.000 NA
ATOM     12  H   UNL     1      37.908  30.487  52.209  0.00  0.00    +0.000 HD
ATOM     13  H   UNL     1      38.918  31.037  50.071  0.00  0.00    +0.000 HD
ATOM     14  H   UNL     1      34.693  28.600  50.170  0.00  0.00    +0.000 HD
ENDBRANCH   5   8
ENDBRANCH   2   5
BRANCH   2  15
ATOM     15  O   UNL     1      40.165  31.180  46.423  0.00  0.00    +0.000 OA
BRANCH  15  16
ATOM     16  C   UNL     1      40.934  32.056  45.670  0.00  0.00    +0.000 A 
ATOM     17  C   UNL     1      40.521  32.934  44.690  0.00  0.00    +0.000 A 
ATOM     18  H   UNL     1      39.457  32.919  44.503  0.00  0.00    +0.000 HD
ATOM     19  C   UNL     1      41.425  33.734  44.041  0.00  0.00    +0.000 A 
ATOM     20  C   UNL     1      42.776  33.704  44.329  0.00  0.00    +0.000 A 
ATOM     21  C   UNL     1      43.210  32.833  45.306  0.00  0.00    +0.000 A 
ATOM     22  C   UNL     1      44.560  32.802  45.595  0.00  0.00    +0.000 A 
ATOM     23  C   UNL     1      45.044  31.947  46.564  0.00  0.00    +0.000 A 
ATOM     24  C   UNL     1      44.165  31.128  47.238  0.00  0.00    +0.000 A 
ATOM     25  C   UNL     1      42.821  31.178  46.931  0.00  0.00    +0.000 A 
ATOM     26  C   UNL     1      42.297  32.019  45.967  0.00  0.00    +0.000 A 
ENDBRANCH  15  16
ENDBRANCH   2  15
TORSDOF 5
