
 OpenBabel03272506433D

 34 37  0  0  1  0  0  0  0  0999 V2000
   32.3980   28.3560   47.5370 C   0  0  2  0  0  0  0  0  0  0  0  0
   33.6660   28.3820   48.3770 C   0  0  1  0  0  0  0  0  0  0  0  0
   34.2190   27.1380   48.3420 O   0  0  0  0  0  0  0  0  0  0  0  0
   33.5420   26.3670   47.4230 C   0  0  0  0  0  0  0  0  0  0  0  0
   32.8280   27.3480   46.4770 C   0  0  1  0  0  0  0  0  0  0  0  0
   31.5440   27.9740   48.1190 H   0  0  0  0  0  0  0  0  0  0  0  0
   33.3970   28.7450   49.3860 H   0  0  0  0  0  0  0  0  0  0  0  0
   34.3020   25.8180   46.8270 H   0  0  0  0  0  0  0  0  0  0  0  0
   32.8070   25.6970   47.8990 H   0  0  0  0  0  0  0  0  0  0  0  0
   33.5590   27.8510   45.8430 H   0  0  0  0  0  0  0  0  0  0  0  0
   32.1390   29.6040   46.9790 O   0  0  0  0  0  0  0  0  0  0  0  0
   31.5380   30.1090   47.5780 H   0  0  0  0  0  0  0  0  0  0  0  0
   34.8080   29.5340   47.5490 S   0  0  0  0  0  0  0  0  0  0  0  0
   37.4030   29.5000   50.5370 C   0  0  0  0  0  0  0  0  0  0  0  0
   38.0150   30.7460   50.5110 C   0  0  0  0  0  0  0  0  0  0  0  0
   37.6090   31.6440   49.5220 C   0  0  0  0  0  0  0  0  0  0  0  0
   36.6420   31.2570   48.6420 N   0  0  0  0  0  0  0  0  0  0  0  0
   36.0750   30.0270   48.7100 C   0  0  0  0  0  0  0  0  0  0  0  0
   36.4450   29.1440   49.6490 N   0  0  0  0  0  0  0  0  0  0  0  0
   37.7510   28.8430   51.3190 H   0  0  0  0  0  0  0  0  0  0  0  0
   38.7830   31.0490   51.2120 H   0  0  0  0  0  0  0  0  0  0  0  0
   38.0290   32.6460   49.4190 H   0  0  0  0  0  0  0  0  0  0  0  0
   31.7630   26.7280   45.8800 O   0  0  0  0  0  0  0  0  0  0  0  0
   31.4090   26.9490   44.5610 C   0  0  0  0  0  0  0  0  0  0  0  0
   31.1260   28.1190   43.8910 C   0  0  0  0  0  0  0  0  0  0  0  0
   31.1980   28.9940   44.5190 H   0  0  0  0  0  0  0  0  0  0  0  0
   30.7910   28.1130   42.5560 C   0  0  0  0  0  3  0  0  0  0  0  0
   30.7240   26.9560   41.8360 C   0  0  0  0  0  3  0  0  0  0  0  0
   31.0030   25.7540   42.4760 C   0  0  0  0  0  0  0  0  0  0  0  0
   30.9180   24.6350   41.7000 C   0  0  0  0  0  3  0  0  0  0  0  0
   31.1840   23.4140   42.2840 C   0  0  0  0  0  3  0  0  0  0  0  0
   31.5250   23.3540   43.6190 C   0  0  0  0  0  3  0  0  0  0  0  0
   31.5950   24.5180   44.3490 C   0  0  0  0  0  3  0  0  0  0  0  0
   31.3410   25.7630   43.8260 C   0  0  0  0  0  0  0  0  0  0  0  0
  1  6  1  1  0  0  0
  1  2  1  0  0  0  0
  2  7  1  1  0  0  0
  3  2  1  0  0  0  0
  4  9  1  0  0  0  0
  4  3  1  0  0  0  0
  5 10  1  6  0  0  0
  5  4  1  0  0  0  0
  5  1  1  0  0  0  0
  8  4  1  0  0  0  0
 11  1  1  0  0  0  0
 11 12  1  0  0  0  0
 13  2  1  0  0  0  0
 13 18  1  0  0  0  0
 14 20  1  0  0  0  0
 15 14  1  0  0  0  0
 15 21  1  0  0  0  0
 16 15  2  0  0  0  0
 17 18  2  0  0  0  0
 17 16  1  0  0  0  0
 18 19  1  0  0  0  0
 19 14  2  0  0  0  0
 22 16  1  0  0  0  0
 23  5  1  0  0  0  0
 24 23  1  0  0  0  0
 25 26  1  0  0  0  0
 25 24  1  0  0  0  0
 27 25  2  0  0  0  0
 28 29  2  0  0  0  0
 28 27  1  0  0  0  0
 29 34  1  0  0  0  0
 30 31  2  0  0  0  0
 30 29  1  0  0  0  0
 31 32  1  0  0  0  0
 32 33  2  0  0  0  0
 34 33  1  0  0  0  0
 34 24  2  0  0  0  0
M  END
>  <minimizedAffinity>
-3.77633667

>  <minimizedRMSD>
1.49616539

$$$$
