REMARK  Name = 
REMARK  4 active torsions:
REMARK  status: ('A' for Active; 'I' for Inactive)
REMARK    1  A    between atoms: N_1  and  C_6
REMARK    2  A    between atoms: C_3  and  C_13
REMARK    3  A    between atoms: C_10  and  S_12
REMARK    4  A    between atoms: S_12  and  C_26
REMARK                            x       y       z     vdW  Elec       q    Type
REMARK                         _______ _______ _______ _____ _____    ______ ____
ROOT
ATOM      1  C   UNL     1      35.293  29.543  47.940  0.00  0.00    +0.000 A 
ATOM      2  C   UNL     1      35.221  30.006  46.616  0.00  0.00    +0.000 A 
ATOM      3  C   UNL     1      34.091  29.683  45.876  0.00  0.00    +0.000 A 
ATOM      4  N   UNL     1      33.127  28.933  46.496  0.00  0.00    +0.000 NA
ATOM      5  C   UNL     1      33.226  28.508  47.756  0.00  0.00    +0.000 A 
ATOM      6  N   UNL     1      34.307  28.807  48.489  0.00  0.00    +0.000 NA
ATOM      7  H   UNL     1      35.995  30.598  46.149  0.00  0.00    +0.000 HD
ATOM      8  H   UNL     1      33.955  29.998  44.856  0.00  0.00    +0.000 HD
ENDROOT
BRANCH   1   9
ATOM      9  N   UNL     1      36.466  29.885  48.691  0.00  0.00    +0.000 N 
ATOM     10  C   UNL     1      37.596  30.645  48.231  0.00  0.00    +0.000 C 
ATOM     11  C   UNL     1      38.099  31.294  49.527  0.00  0.00    +0.000 C 
ATOM     12  C   UNL     1      37.109  30.904  50.599  0.00  0.00    +0.000 C 
ATOM     13  C   UNL     1      36.730  29.524  50.063  0.00  0.00    +0.000 C 
ATOM     14  H   UNL     1      37.371  31.392  47.468  0.00  0.00    +0.000 HD
ATOM     15  H   UNL     1      38.349  29.897  47.865  0.00  0.00    +0.000 HD
ATOM     16  H   UNL     1      39.059  30.838  49.802  0.00  0.00    +0.000 HD
ATOM     17  H   UNL     1      36.197  31.532  50.587  0.00  0.00    +0.000 HD
ATOM     18  H   UNL     1      37.550  30.773  51.585  0.00  0.00    +0.000 HD
ATOM     19  H   UNL     1      37.541  28.793  50.194  0.00  0.00    +0.000 HD
ATOM     20  H   UNL     1      35.784  29.263  50.548  0.00  0.00    +0.000 HD
BRANCH  11  21
ATOM     21  C   UNL     1      38.267  32.776  49.394  0.00  0.00    +0.000 C 
ATOM     22  F   UNL     1      37.102  33.336  49.886  0.00  0.00    +0.000 F 
ATOM     23  F   UNL     1      38.305  33.080  48.057  0.00  0.00    +0.000 F 
ATOM     24  F   UNL     1      39.375  33.260  50.019  0.00  0.00    +0.000 F 
ENDBRANCH  11  21
ENDBRANCH   1   9
BRANCH   5  25
ATOM     25  S   UNL     1      31.936  27.529  48.505  0.00  0.00    +0.000 S 
BRANCH  25  26
ATOM     26  C   UNL     1      30.592  27.239  47.364  0.00  0.00    +0.000 A 
ATOM     27  C   UNL     1      29.276  27.622  47.544  0.00  0.00    +0.000 A 
ATOM     28  H   UNL     1      29.062  28.141  48.462  0.00  0.00    +0.000 HD
ATOM     29  C   UNL     1      28.342  27.319  46.554  0.00  0.00    +0.000 A 
ATOM     30  C   UNL     1      28.707  26.648  45.405  0.00  0.00    +0.000 A 
ATOM     31  C   UNL     1      30.025  26.267  45.230  0.00  0.00    +0.000 A 
ATOM     32  C   UNL     1      30.385  25.590  44.067  0.00  0.00    +0.000 A 
ATOM     33  C   UNL     1      31.694  25.197  43.862  0.00  0.00    +0.000 A 
ATOM     34  C   UNL     1      32.632  25.480  44.815  0.00  0.00    +0.000 A 
ATOM     35  C   UNL     1      32.234  26.145  45.939  0.00  0.00    +0.000 A 
ATOM     36  C   UNL     1      30.955  26.565  46.208  0.00  0.00    +0.000 A 
ENDBRANCH  25  26
ENDBRANCH   5  25
TORSDOF 4
