
     RDKit          3D

 28 30  0  0  0  0  0  0  0  0999 V2000
   37.3586   30.2259   51.3671 C   0  0  0  0  0  0  0  0  0  0  0  0
   38.0559   30.7485   50.2542 C   0  0  0  0  0  0  0  0  0  0  0  0
   37.5844   30.3976   48.9972 C   0  0  0  0  0  0  0  0  0  0  0  0
   36.4889   29.5790   48.9193 N   0  0  0  0  0  0  0  0  0  0  0  0
   35.8572   29.1054   49.9931 C   0  0  0  0  0  0  0  0  0  0  0  0
   36.2772   29.4178   51.2191 N   0  0  0  0  0  0  0  0  0  0  0  0
   38.2559   30.8996   47.7996 C   0  0  0  0  0  0  0  0  0  0  0  0
   38.9809   31.9371   47.8124 O   0  0  0  0  0  0  0  0  0  0  0  0
   37.7305   30.5028   52.3311 H   0  0  0  0  0  0  0  0  0  0  0  0
   38.9034   31.3819   50.3326 H   0  0  0  0  0  0  0  0  0  0  0  0
   34.9951   28.4611   49.9459 H   0  0  0  0  0  0  0  0  0  0  0  0
   38.0183   30.0979   46.5796 C   0  0  0  0  0  0  0  0  0  0  0  0
   39.1650   29.5705   45.9728 C   0  0  0  0  0  0  0  0  0  0  0  0
   40.1556   29.7616   46.4133 H   0  0  0  0  0  0  0  0  0  0  0  0
   39.1711   28.8097   44.8390 C   0  0  0  0  0  0  0  0  0  0  0  0
   37.9655   28.5355   44.2409 C   0  0  0  0  0  0  0  0  0  0  0  0
   36.8222   29.0436   44.8198 C   0  0  0  0  0  0  0  0  0  0  0  0
   35.5507   28.8192   44.2886 C   0  0  0  0  0  0  0  0  0  0  0  0
   34.4026   29.3238   44.8643 C   0  0  0  0  0  0  0  0  0  0  0  0
   34.4800   30.0890   46.0182 C   0  0  0  0  0  0  0  0  0  0  0  0
   35.7170   30.3370   46.5790 C   0  0  0  0  0  0  0  0  0  0  0  0
   36.8289   29.8100   45.9639 C   0  0  0  0  0  0  0  0  0  0  0  0
   40.0841   28.4269   44.4113 H   0  0  0  0  0  0  0  0  0  0  0  0
   37.8529   27.9449   43.3422 H   0  0  0  0  0  0  0  0  0  0  0  0
   35.4438   28.2257   43.3865 H   0  0  0  0  0  0  0  0  0  0  0  0
   33.4409   29.1312   44.4285 H   0  0  0  0  0  0  0  0  0  0  0  0
   33.5500   30.4587   46.4263 H   0  0  0  0  0  0  0  0  0  0  0  0
   35.7537   30.9223   47.4618 H   0  0  0  0  0  0  0  0  0  0  0  0
  2  1  2  0
  3  2  1  0
  4  3  2  0
  4  5  1  0
  5  6  2  0
  6  1  1  0
  7  3  1  0
  8  7  2  0
  1  9  1  0
  2 10  1  0
  5 11  1  0
 12 13  2  0
 13 14  1  0
 13 15  1  0
 15 16  2  0
 16 17  1  0
 17 18  2  0
 18 19  1  0
 19 20  2  0
 20 21  1  0
 21 22  2  0
 22 12  1  0
 22 17  1  0
 15 23  1  0
 16 24  1  0
 18 25  1  0
 19 26  1  0
 20 27  1  0
 21 28  1  0
  7 12  1  0
M  ISO  4   9  14  10  14  11  14  14  15
M  END
>  <DihAtoms>  (1) 
2,6,11,12

>  <DihDeg>  (1) 
-46.003963928283696

$$$$
