
     RDKit          3D

 28 30  0  0  0  0  0  0  0  0999 V2000
   37.3586   30.2259   51.3671 C   0  0  0  0  0  0  0  0  0  0  0  0
   38.0559   30.7485   50.2542 C   0  0  0  0  0  0  0  0  0  0  0  0
   37.5844   30.3976   48.9972 C   0  0  0  0  0  0  0  0  0  0  0  0
   36.4889   29.5790   48.9193 N   0  0  0  0  0  0  0  0  0  0  0  0
   35.8572   29.1054   49.9931 C   0  0  0  0  0  0  0  0  0  0  0  0
   36.2772   29.4178   51.2191 N   0  0  0  0  0  0  0  0  0  0  0  0
   38.2559   30.8996   47.7996 C   0  0  0  0  0  0  0  0  0  0  0  0
   38.9809   31.9371   47.8124 O   0  0  0  0  0  0  0  0  0  0  0  0
   37.7305   30.5028   52.3311 H   0  0  0  0  0  0  0  0  0  0  0  0
   38.9034   31.3819   50.3326 H   0  0  0  0  0  0  0  0  0  0  0  0
   34.9951   28.4611   49.9459 H   0  0  0  0  0  0  0  0  0  0  0  0
   38.0183   30.0979   46.5796 C   0  0  0  0  0  0  0  0  0  0  0  0
   39.0951   29.3073   46.1593 C   0  0  0  0  0  0  0  0  0  0  0  0
   40.0344   29.3103   46.7335 H   0  0  0  0  0  0  0  0  0  0  0  0
   39.0903   28.4991   45.0588 C   0  0  0  0  0  0  0  0  0  0  0  0
   37.9466   28.4513   44.2999 C   0  0  0  0  0  0  0  0  0  0  0  0
   36.8727   29.2208   44.6936 C   0  0  0  0  0  0  0  0  0  0  0  0
   35.6669   29.2393   43.9899 C   0  0  0  0  0  0  0  0  0  0  0  0
   34.5879   30.0062   44.3798 C   0  0  0  0  0  0  0  0  0  0  0  0
   34.6718   30.8022   45.5121 C   0  0  0  0  0  0  0  0  0  0  0  0
   35.8453   30.8157   46.2395 C   0  0  0  0  0  0  0  0  0  0  0  0
   36.8897   30.0323   45.8060 C   0  0  0  0  0  0  0  0  0  0  0  0
   39.9483   27.9091   44.7780 H   0  0  0  0  0  0  0  0  0  0  0  0
   37.8319   27.8476   43.4103 H   0  0  0  0  0  0  0  0  0  0  0  0
   35.5575   28.6313   43.0978 H   0  0  0  0  0  0  0  0  0  0  0  0
   33.6756   29.9959   43.8145 H   0  0  0  0  0  0  0  0  0  0  0  0
   33.7972   31.3819   45.7714 H   0  0  0  0  0  0  0  0  0  0  0  0
   35.8876   31.4293   47.1026 H   0  0  0  0  0  0  0  0  0  0  0  0
  2  1  2  0
  3  2  1  0
  4  3  2  0
  4  5  1  0
  5  6  2  0
  6  1  1  0
  7  3  1  0
  8  7  2  0
  1  9  1  0
  2 10  1  0
  5 11  1  0
 12 13  2  0
 13 14  1  0
 13 15  1  0
 15 16  2  0
 16 17  1  0
 17 18  2  0
 18 19  1  0
 19 20  2  0
 20 21  1  0
 21 22  2  0
 22 12  1  0
 22 17  1  0
 15 23  1  0
 16 24  1  0
 18 25  1  0
 19 26  1  0
 20 27  1  0
 21 28  1  0
  7 12  1  0
M  ISO  4   9  14  10  14  11  14  14  15
M  END
>  <DihAtoms>  (1) 
2,6,11,12

>  <DihDeg>  (1) 
-46.003963928283696

$$$$
