
     RDKit          3D

 42 45  0  0  0  0  0  0  0  0999 V2000
   36.4664   29.8852   48.6905 N   0  0  0  0  0  0  0  0  0  0  0  0
   37.5958   30.6447   48.2306 C   0  0  0  0  0  0  0  0  0  0  0  0
   38.0994   31.2941   49.5273 C   0  0  2  0  0  0  0  0  0  0  0  0
   37.1093   30.9043   50.5992 C   0  0  0  0  0  0  0  0  0  0  0  0
   36.7297   29.5242   50.0633 C   0  0  0  0  0  0  0  0  0  0  0  0
   35.2928   29.5429   47.9397 C   0  0  0  0  0  0  0  0  0  0  0  0
   35.2205   30.0064   46.6163 C   0  0  0  0  0  0  0  0  0  0  0  0
   34.0909   29.6835   45.8764 C   0  0  0  0  0  0  0  0  0  0  0  0
   33.1269   28.9328   46.4963 N   0  0  0  0  0  0  0  0  0  0  0  0
   33.2257   28.5077   47.7557 C   0  0  0  0  0  0  0  0  0  0  0  0
   34.3069   28.8072   48.4894 N   0  0  0  0  0  0  0  0  0  0  0  0
   31.9360   27.5289   48.5046 S   0  0  0  0  0  0  0  0  0  0  0  0
   38.2668   32.7760   49.3935 C   0  0  0  0  0  0  0  0  0  0  0  0
   37.1017   33.3362   49.8856 F   0  0  0  0  0  0  0  0  0  0  0  0
   38.3054   33.0801   48.0566 F   0  0  0  0  0  0  0  0  0  0  0  0
   39.3748   33.2600   50.0191 F   0  0  0  0  0  0  0  0  0  0  0  0
   37.3709   31.3915   47.4685 H   0  0  0  0  0  0  0  0  0  0  0  0
   38.3487   29.8973   47.8654 H   0  0  0  0  0  0  0  0  0  0  0  0
   39.0595   30.8384   49.8024 H   0  0  0  0  0  0  0  0  0  0  0  0
   36.1972   31.5316   50.5868 H   0  0  0  0  0  0  0  0  0  0  0  0
   37.5502   30.7733   51.5854 H   0  0  0  0  0  0  0  0  0  0  0  0
   37.5408   28.7934   50.1935 H   0  0  0  0  0  0  0  0  0  0  0  0
   35.7839   29.2629   50.5477 H   0  0  0  0  0  0  0  0  0  0  0  0
   35.9953   30.5980   46.1487 H   0  0  0  0  0  0  0  0  0  0  0  0
   33.9548   29.9981   44.8556 H   0  0  0  0  0  0  0  0  0  0  0  0
   30.5924   27.2390   47.3638 C   0  0  0  0  0  0  0  0  0  0  0  0
   29.6347   28.1616   46.9845 C   0  0  0  0  0  0  0  0  0  0  0  0
   29.7250   29.1370   47.4284 H   0  0  0  0  0  0  0  0  0  0  0  0
   28.6463   27.7771   46.0795 C   0  0  0  0  0  0  0  0  0  0  0  0
   28.6079   26.4993   45.5592 C   0  0  0  0  0  0  0  0  0  0  0  0
   29.5687   25.5806   45.9424 C   0  0  0  0  0  0  0  0  0  0  0  0
   29.5227   24.2931   45.4126 C   0  0  0  0  0  0  0  0  0  0  0  0
   30.4674   23.3526   45.7751 C   0  0  0  0  0  0  0  0  0  0  0  0
   31.4488   23.7002   46.6605 C   0  0  0  0  0  0  0  0  0  0  0  0
   31.4553   24.9732   47.1545 C   0  0  0  0  0  0  0  0  0  0  0  0
   30.5508   25.9568   46.8393 C   0  0  0  0  0  0  0  0  0  0  0  0
   27.9180   28.5310   45.8111 H   0  0  0  0  0  0  0  0  0  0  0  0
   27.8283   26.2145   44.8524 H   0  0  0  0  0  0  0  0  0  0  0  0
   28.7356   24.0348   44.7103 H   0  0  0  0  0  0  0  0  0  0  0  0
   30.4324   22.3544   45.3648 H   0  0  0  0  0  0  0  0  0  0  0  0
   32.1877   22.9660   46.9446 H   0  0  0  0  0  0  0  0  0  0  0  0
   32.2449   25.2244   47.8560 H   0  0  0  0  0  0  0  0  0  0  0  0
  1  5  1  0
  2  1  1  0
  2  3  1  0
  3  4  1  0
  5  4  1  0
  6 11  1  0
  6  1  1  0
  7  6  2  0
  8  9  2  0
  8  7  1  0
  9 10  1  0
 10 11  2  0
 10 12  1  0
 13  3  1  0
 13 14  1  0
 13 16  1  0
 15 13  1  0
  2 17  1  0
  2 18  1  0
  3 19  1  1
  4 20  1  0
  4 21  1  0
  5 22  1  0
  5 23  1  0
  7 24  1  0
  8 25  1  0
 26 27  2  0
 27 28  1  0
 27 29  1  0
 29 30  2  0
 30 31  1  0
 31 32  2  0
 32 33  1  0
 33 34  2  0
 34 35  1  0
 35 36  2  0
 36 26  1  0
 36 31  1  0
 29 37  1  0
 30 38  1  0
 32 39  1  0
 33 40  1  0
 34 41  1  0
 35 42  1  0
 12 26  1  0
M  ISO  8  17  13  18  13  19  13  20  13  21  13  22  13  23  13  24  14
M  ISO  2  25  14  28  15
M  END
>  <DihAtoms>  (1) 
9,11,25,26

>  <DihDeg>  (1) 
90.00023859167872

$$$$
