REMARK  Name = 
REMARK  4 active torsions:
REMARK  status: ('A' for Active; 'I' for Inactive)
REMARK    1  A    between atoms: C_2  and  C_7
REMARK    2  A    between atoms: C_3  and  C_14
REMARK    3  A    between atoms: C_12  and  S_13
REMARK    4  A    between atoms: S_13  and  C_24
REMARK                            x       y       z     vdW  Elec       q    Type
REMARK                         _______ _______ _______ _____ _____    ______ ____
ROOT
ATOM      1  C   UNL     1      38.201  31.080  47.891  0.00  0.00    +0.000 A 
ATOM      2  C   UNL     1      38.529  30.272  46.821  0.00  0.00    +0.000 A 
ATOM      3  C   UNL     1      39.288  30.654  45.733  0.00  0.00    +0.000 A 
ATOM      4  C   UNL     1      39.770  31.977  45.709  0.00  0.00    +0.000 A 
ATOM      5  C   UNL     1      39.449  32.807  46.780  0.00  0.00    +0.000 A 
ATOM      6  C   UNL     1      38.688  32.383  47.845  0.00  0.00    +0.000 A 
ATOM      7  H   UNL     1      38.184  29.239  46.786  0.00  0.00    +0.000 HD
ATOM      8  H   UNL     1      39.511  29.970  44.923  0.00  0.00    +0.000 HD
ATOM      9  H   UNL     1      40.371  32.331  44.878  0.00  0.00    +0.000 HD
ATOM     10  H   UNL     1      39.799  33.819  46.793  0.00  0.00    +0.000 HD
ENDROOT
BRANCH   1  12
ATOM     11  C   UNL     1      38.013  30.314  50.189  0.00  0.00    +0.000 A 
ATOM     12  C   UNL     1      37.399  30.500  48.932  0.00  0.00    +0.000 A 
ATOM     13  C   UNL     1      36.067  30.105  48.806  0.00  0.00    +0.000 A 
ATOM     14  N   UNL     1      35.425  29.568  49.879  0.00  0.00    +0.000 NA
ATOM     15  C   UNL     1      36.058  29.404  51.087  0.00  0.00    +0.000 A 
ATOM     16  N   UNL     1      37.361  29.782  51.233  0.00  0.00    +0.000 NA
ATOM     17  H   UNL     1      39.047  30.611  50.318  0.00  0.00    +0.000 HD
ATOM     18  H   UNL     1      35.416  28.962  51.847  0.00  0.00    +0.000 HD
BRANCH  13  19
ATOM     19  C   UNL     1      35.288  30.242  47.535  0.00  0.00    +0.000 C 
ATOM     20  F   UNL     1      34.016  30.763  47.828  0.00  0.00    +0.000 F 
ATOM     21  F   UNL     1      35.856  30.980  46.559  0.00  0.00    +0.000 F 
ATOM     22  F   UNL     1      34.995  28.966  47.043  0.00  0.00    +0.000 F 
ENDBRANCH  13  19
ENDBRANCH   1  12
BRANCH   6  23
ATOM     23  S   UNL     1      38.258  33.410  49.229  0.00  0.00    +0.000 S 
BRANCH  23  24
ATOM     24  C   UNL     1      38.915  35.050  49.093  0.00  0.00    +0.000 A 
ATOM     25  C   UNL     1      39.144  35.701  47.898  0.00  0.00    +0.000 A 
ATOM     26  H   UNL     1      38.909  35.182  46.979  0.00  0.00    +0.000 HD
ATOM     27  C   UNL     1      39.666  36.991  47.953  0.00  0.00    +0.000 A 
ATOM     28  C   UNL     1      39.953  37.620  49.148  0.00  0.00    +0.000 A 
ATOM     29  C   UNL     1      39.721  36.959  50.346  0.00  0.00    +0.000 A 
ATOM     30  C   UNL     1      40.007  37.584  51.544  0.00  0.00    +0.000 A 
ATOM     31  C   UNL     1      39.790  36.963  52.736  0.00  0.00    +0.000 A 
ATOM     32  C   UNL     1      39.268  35.669  52.733  0.00  0.00    +0.000 A 
ATOM     33  C   UNL     1      38.992  35.070  51.520  0.00  0.00    +0.000 A 
ATOM     34  C   UNL     1      39.199  35.669  50.294  0.00  0.00    +0.000 A 
ENDBRANCH  23  24
ENDBRANCH   6  23
TORSDOF 4
