
     RDKit          3D

 40 43  0  0  0  0  0  0  0  0999 V2000
   36.5409   29.7661   49.1753 N   0  0  0  0  0  0  0  0  0  0  0  0
   37.3201   30.8655   48.7447 C   0  0  1  0  0  0  0  0  0  0  0  0
   37.9871   31.3931   50.0098 C   0  0  0  0  0  0  0  0  0  0  0  0
   37.4928   30.4325   51.1161 C   0  0  0  0  0  0  0  0  0  0  0  0
   37.2700   29.1937   50.2768 C   0  0  0  0  0  0  0  0  0  0  0  0
   35.2983   29.3423   48.6234 C   0  0  0  0  0  0  0  0  0  0  0  0
   34.7216   30.0798   47.6097 C   0  0  0  0  0  0  0  0  0  0  0  0
   33.5258   29.6513   47.0288 C   0  0  0  0  0  0  0  0  0  0  0  0
   32.9902   28.4777   47.5326 N   0  0  0  0  0  0  0  0  0  0  0  0
   33.5779   27.7817   48.5238 C   0  0  0  0  0  0  0  0  0  0  0  0
   34.7435   28.2137   49.0782 N   0  0  0  0  0  0  0  0  0  0  0  0
   38.1205   30.7365   47.5667 C   0  0  0  0  0  0  0  0  0  0  0  0
   39.0183   31.5931   47.4710 O   0  0  0  0  0  0  0  0  0  0  0  0
   36.5105   31.6929   48.5734 H   0  0  0  0  0  0  0  0  0  0  0  0
   37.7770   32.4349   50.2329 H   0  0  0  0  0  0  0  0  0  0  0  0
   39.0719   31.1580   49.9071 H   0  0  0  0  0  0  0  0  0  0  0  0
   38.2367   30.3031   51.9044 H   0  0  0  0  0  0  0  0  0  0  0  0
   36.5325   30.8677   51.4487 H   0  0  0  0  0  0  0  0  0  0  0  0
   36.6916   28.4986   50.8824 H   0  0  0  0  0  0  0  0  0  0  0  0
   38.2618   28.8002   49.9717 H   0  0  0  0  0  0  0  0  0  0  0  0
   35.1338   30.9932   47.2150 H   0  0  0  0  0  0  0  0  0  0  0  0
   33.0546   30.2086   46.2347 H   0  0  0  0  0  0  0  0  0  0  0  0
   33.0817   26.8811   48.8458 H   0  0  0  0  0  0  0  0  0  0  0  0
   38.2172   29.9002   46.3778 C   0  0  0  0  0  0  0  0  0  0  0  0
   39.0126   28.7778   46.3143 C   0  0  0  0  0  0  0  0  0  0  0  0
   39.5835   28.3692   47.1256 H   0  0  0  0  0  0  0  0  0  0  0  0
   39.2643   27.9887   45.2158 C   0  0  0  0  0  0  0  0  0  0  0  0
   38.6592   28.3510   44.0388 C   0  0  0  0  0  0  0  0  0  0  0  0
   37.8477   29.4580   44.0120 C   0  0  0  0  0  0  0  0  0  0  0  0
   37.2330   29.7906   42.8276 C   0  0  0  0  0  0  0  0  0  0  0  0
   36.3822   30.8638   42.6961 C   0  0  0  0  0  0  0  0  0  0  0  0
   36.1756   31.6082   43.8581 C   0  0  0  0  0  0  0  0  0  0  0  0
   36.8057   31.2504   45.0280 C   0  0  0  0  0  0  0  0  0  0  0  0
   37.6571   30.1814   45.1616 C   0  0  0  0  0  0  0  0  0  0  0  0
   39.8795   27.1150   45.1551 H   0  0  0  0  0  0  0  0  0  0  0  0
   38.8026   27.7889   43.1247 H   0  0  0  0  0  0  0  0  0  0  0  0
   37.4203   29.1897   41.9589 H   0  0  0  0  0  0  0  0  0  0  0  0
   35.9389   31.0661   41.7475 H   0  0  0  0  0  0  0  0  0  0  0  0
   35.4955   32.4515   43.7213 H   0  0  0  0  0  0  0  0  0  0  0  0
   36.5177   31.9000   45.8056 H   0  0  0  0  0  0  0  0  0  0  0  0
  1  5  1  0
  2  1  1  0
  2  3  1  0
  3  4  1  0
  5  4  1  0
  6 11  1  0
  6  1  1  0
  7  6  2  0
  8  9  2  0
  8  7  1  0
  9 10  1  0
 10 11  2  0
 12  2  1  0
 13 12  2  0
  2 14  1  6
  3 15  1  0
  3 16  1  0
  4 17  1  0
  4 18  1  0
  5 19  1  0
  5 20  1  0
  7 21  1  0
  8 22  1  0
 10 23  1  0
 24 25  2  0
 25 26  1  0
 25 27  1  0
 27 28  2  0
 28 29  1  0
 29 30  2  0
 30 31  1  0
 31 32  2  0
 32 33  1  0
 33 34  2  0
 34 24  1  0
 34 29  1  0
 27 35  1  0
 28 36  1  0
 30 37  1  0
 31 38  1  0
 32 39  1  0
 33 40  1  0
 12 24  1  0
M  ISO  8  14  13  15  13  16  13  17  13  18  13  19  13  20  13  21  14
M  ISO  3  22  14  23  14  26  15
M  END
>  <DihAtoms>  (1) 
1,11,23,24

>  <DihDeg>  (1) 
-17.18960082761688

$$$$
