
 OpenBabel03272508273D

 40 44  0  0  1  0  0  0  0  0999 V2000
   33.8520   29.0280   47.2850 C   0  0  2  0  0  0  0  0  0  0  0  0
   34.6300   28.1980   48.2970 C   0  0  2  0  0  0  0  0  0  0  0  0
   33.7610   27.9590   49.3190 O   0  0  0  0  0  0  0  0  0  0  0  0
   32.4750   28.0360   48.8920 C   0  0  0  0  0  0  0  0  0  0  0  0
   32.4910   28.3310   47.4060 C   0  0  1  0  0  0  0  0  0  0  0  0
   33.7450   30.0720   47.5800 H   0  0  0  0  0  0  0  0  0  0  0  0
   34.9030   27.2470   47.8250 H   0  0  0  0  0  0  0  0  0  0  0  0
   32.0220   28.9520   49.3670 H   0  0  0  0  0  0  0  0  0  0  0  0
   31.8330   27.1880   49.1480 H   0  0  0  0  0  0  0  0  0  0  0  0
   32.5570   27.3450   46.8870 H   0  0  0  0  0  0  0  0  0  0  0  0
   35.7170   30.4380   49.0120 C   0  0  1  0  0  0  0  0  0  0  0  0
   35.8000   29.0230   48.7330 C   0  0  1  0  0  0  0  0  0  0  0  0
   35.9720   29.4420   50.1550 C   0  0  0  0  0  0  0  0  0  0  0  0
   34.7930   31.0240   49.2470 H   0  0  0  0  0  0  0  0  0  0  0  0
   36.7430   28.7000   48.2030 H   0  0  0  0  0  0  0  0  0  0  0  0
   35.1740   29.2220   50.8750 H   0  0  0  0  0  0  0  0  0  0  0  0
   36.9990   29.3900   50.5890 H   0  0  0  0  0  0  0  0  0  0  0  0
   36.9140   31.3480   48.7840 C   0  0  0  0  0  0  0  0  0  0  0  0
   37.1020   32.3870   49.6980 C   0  0  0  0  0  0  0  0  0  0  0  0
   38.1940   33.2080   49.4310 C   0  0  0  0  0  0  0  0  0  0  0  0
   38.9950   32.9920   48.3620 N   0  0  0  0  0  0  0  0  0  0  0  0
   38.7720   31.9640   47.4960 C   0  0  0  0  0  0  0  0  0  0  0  0
   37.7200   31.1320   47.7100 N   0  0  0  0  0  0  0  0  0  0  0  0
   36.4270   32.5080   50.5340 H   0  0  0  0  0  0  0  0  0  0  0  0
   38.3780   34.0290   50.1150 H   0  0  0  0  0  0  0  0  0  0  0  0
   39.4370   31.8310   46.6580 H   0  0  0  0  0  0  0  0  0  0  0  0
   34.3420   28.9560   46.0010 O   0  0  0  0  0  0  0  0  0  0  0  0
   35.3150   28.7960   45.9370 H   0  0  0  0  0  0  0  0  0  0  0  0
   31.4670   29.1350   46.9810 O   0  0  0  0  0  0  0  0  0  0  0  0
   30.5780   28.8770   45.9760 C   0  0  0  0  0  0  0  0  0  0  0  0
   29.7970   27.7590   45.7990 C   0  0  0  0  0  0  0  0  0  0  0  0
   29.9030   26.9900   46.5510 H   0  0  0  0  0  0  0  0  0  0  0  0
   28.9270   27.6000   44.7410 C   0  0  0  0  0  3  0  0  0  0  0  0
   28.8270   28.6100   43.8050 C   0  0  0  0  0  3  0  0  0  0  0  0
   29.5880   29.7680   43.9240 C   0  0  0  0  0  0  0  0  0  0  0  0
   29.4790   30.7710   42.9820 C   0  0  0  0  0  3  0  0  0  0  0  0
   30.2410   31.9060   43.1200 C   0  0  0  0  0  3  0  0  0  0  0  0
   31.1110   32.0740   44.1700 C   0  0  0  0  0  3  0  0  0  0  0  0
   31.1830   31.0400   45.0870 C   0  0  0  0  0  3  0  0  0  0  0  0
   30.4390   29.8660   45.0050 C   0  0  0  0  0  0  0  0  0  0  0  0
  1  5  1  0  0  0  0
  1  6  1  1  0  0  0
  1  2  1  0  0  0  0
  2  7  1  6  0  0  0
  2 12  1  0  0  0  0
  2  3  1  0  0  0  0
  4  9  1  0  0  0  0
  4  3  1  0  0  0  0
  4  8  1  0  0  0  0
  5 10  1  6  0  0  0
  5  4  1  0  0  0  0
 11 14  1  6  0  0  0
 11 13  1  0  0  0  0
 12 15  1  6  0  0  0
 12 11  1  0  0  0  0
 12 13  1  0  0  0  0
 13 17  1  0  0  0  0
 13 16  1  0  0  0  0
 18 11  1  0  0  0  0
 18 19  1  0  0  0  0
 19 24  1  0  0  0  0
 20 19  2  0  0  0  0
 20 25  1  0  0  0  0
 21 20  1  0  0  0  0
 22 23  1  0  0  0  0
 22 21  2  0  0  0  0
 23 18  2  0  0  0  0
 26 22  1  0  0  0  0
 27  1  1  0  0  0  0
 28 27  1  0  0  0  0
 29  5  1  0  0  0  0
 30 29  1  0  0  0  0
 31 30  1  0  0  0  0
 31 32  1  0  0  0  0
 33 31  2  0  0  0  0
 34 35  2  0  0  0  0
 34 33  1  0  0  0  0
 35 40  1  0  0  0  0
 36 37  2  0  0  0  0
 36 35  1  0  0  0  0
 37 38  1  0  0  0  0
 38 39  2  0  0  0  0
 40 39  1  0  0  0  0
 40 30  2  0  0  0  0
M  END
>  <minimizedAffinity>
-5.21267891

>  <minimizedRMSD>
0.192797482

$$$$
