
 OpenBabel03272508593D

 42 46  0  0  1  0  0  0  0  0999 V2000
   37.7850   27.8280   32.0880 C   0  0  0  0  0  0  0  0  0  0  0  0
   38.2820   27.8400   30.7990 C   0  0  0  0  0  0  0  0  0  0  0  0
   37.6280   28.6340   29.8770 C   0  0  0  0  0  0  0  0  0  0  0  0
   36.5400   29.3580   30.2770 C   0  0  0  0  0  0  0  0  0  0  0  0
   36.0390   29.3430   31.5860 C   0  0  0  0  0  0  0  0  0  0  0  0
   36.7040   28.5560   32.4550 N   0  0  0  0  0  0  0  0  0  0  0  0
   39.1430   27.2690   30.4740 H   0  0  0  0  0  0  0  0  0  0  0  0
   37.9170   28.7300   28.8450 H   0  0  0  0  0  0  0  0  0  0  0  0
   36.0010   29.9910   29.5920 H   0  0  0  0  0  0  0  0  0  0  0  0
   38.4660   26.9880   33.0940 C   0  0  0  0  0  0  0  0  0  0  0  0
   38.7810   27.4340   34.2020 O   0  0  0  0  0  0  0  0  0  0  0  0
   38.7550   25.6150   32.7350 N   0  0  0  0  0  0  0  0  0  0  0  0
   38.6930   25.2540   31.7700 H   0  0  0  0  0  0  0  0  0  0  0  0
   38.1580   24.0610   34.5860 C   0  0  2  0  0  0  0  0  0  0  0  0
   38.7860   23.2390   33.5180 C   0  0  0  0  0  0  0  0  0  0  0  0
   39.1510   24.7110   33.7950 C   0  0  1  0  0  0  0  0  0  0  0  0
   37.0780   24.2790   34.4450 H   0  0  0  0  0  0  0  0  0  0  0  0
   38.1980   23.0190   32.6290 H   0  0  0  0  0  0  0  0  0  0  0  0
   39.5030   22.4540   33.8200 H   0  0  0  0  0  0  0  0  0  0  0  0
   40.1840   24.8180   34.1870 H   0  0  0  0  0  0  0  0  0  0  0  0
   39.8520   22.7820   37.6390 C   0  0  0  0  0  0  0  0  0  0  0  0
   39.0030   23.2790   38.6650 C   0  0  0  0  0  0  0  0  0  0  0  0
   37.8360   24.0490   38.2890 C   0  0  0  0  0  0  0  0  0  0  0  0
   37.5950   24.2700   36.9610 N   0  0  0  0  0  0  0  0  0  0  0  0
   38.4530   23.7610   36.0360 C   0  0  0  0  0  0  0  0  0  0  0  0
   39.5880   23.0160   36.3340 N   0  0  0  0  0  0  0  0  0  0  0  0
   40.6900   22.2250   37.9830 H   0  0  0  0  0  0  0  0  0  0  0  0
   39.1700   23.1220   39.7000 H   0  0  0  0  0  0  0  0  0  0  0  0
   37.1980   24.4230   39.0650 H   0  0  0  0  0  0  0  0  0  0  0  0
   34.8690   30.1140   31.9640 C   0  0  0  0  0  0  0  0  0  0  0  0
   34.3300   30.8650   31.1150 O   0  0  0  0  0  0  0  0  0  0  0  0
   34.1700   30.1670   33.2350 C   0  0  0  0  0  0  0  0  0  0  0  0
   33.0070   29.4080   33.4000 C   0  0  0  0  0  0  0  0  0  0  0  0
   32.6750   28.8150   32.5370 H   0  0  0  0  0  0  0  0  0  0  0  0
   32.2470   29.3410   34.5490 C   0  0  0  0  0  3  0  0  0  0  0  0
   32.6640   30.0870   35.6320 C   0  0  0  0  0  3  0  0  0  0  0  0
   33.8050   30.8550   35.5270 C   0  0  0  0  0  0  0  0  0  0  0  0
   34.2230   31.6040   36.6040 C   0  0  0  0  0  3  0  0  0  0  0  0
   35.3680   32.3870   36.5100 C   0  0  0  0  0  3  0  0  0  0  0  0
   36.0970   32.4160   35.3190 C   0  0  0  0  0  3  0  0  0  0  0  0
   35.6520   31.6560   34.2640 C   0  0  0  0  0  3  0  0  0  0  0  0
   34.5290   30.8870   34.3540 C   0  0  0  0  0  0  0  0  0  0  0  0
  1  6  1  0  0  0  0
  1 10  1  0  0  0  0
  2  1  2  0  0  0  0
  3  4  2  0  0  0  0
  3  2  1  0  0  0  0
  4  5  1  0  0  0  0
  5 30  1  0  0  0  0
  5  6  2  0  0  0  0
  7  2  1  0  0  0  0
  8  3  1  0  0  0  0
  9  4  1  0  0  0  0
 10 11  2  0  0  0  0
 12 10  1  0  0  0  0
 12 16  1  0  0  0  0
 13 12  1  0  0  0  0
 14 17  1  6  0  0  0
 14 25  1  0  0  0  0
 15 16  1  0  0  0  0
 15 19  1  0  0  0  0
 15 14  1  0  0  0  0
 16 20  1  1  0  0  0
 16 14  1  0  0  0  0
 18 15  1  0  0  0  0
 21 27  1  0  0  0  0
 21 22  1  0  0  0  0
 22 28  1  0  0  0  0
 23 22  2  0  0  0  0
 23 29  1  0  0  0  0
 24 23  1  0  0  0  0
 25 26  1  0  0  0  0
 25 24  2  0  0  0  0
 26 21  2  0  0  0  0
 30 32  1  0  0  0  0
 31 30  2  0  0  0  0
 32 33  2  0  0  0  0
 32 42  1  0  0  0  0
 33 35  1  0  0  0  0
 34 33  1  0  0  0  0
 35 36  2  0  0  0  0
 37 36  1  0  0  0  0
 37 38  1  0  0  0  0
 39 38  2  0  0  0  0
 40 39  1  0  0  0  0
 41 42  1  0  0  0  0
 41 40  2  0  0  0  0
 42 37  2  0  0  0  0
M  END
>  <minimizedAffinity>
-6.76431179

$$$$

 OpenBabel03272508593D

 42 46  0  0  1  0  0  0  0  0999 V2000
   36.7170   24.3540   31.8070 C   0  0  0  0  0  0  0  0  0  0  0  0
   36.2970   23.1290   31.3250 C   0  0  0  0  0  0  0  0  0  0  0  0
   37.0630   22.0260   31.6470 C   0  0  0  0  0  0  0  0  0  0  0  0
   38.1820   22.1940   32.4140 C   0  0  0  0  0  0  0  0  0  0  0  0
   38.6050   23.4390   32.9010 C   0  0  0  0  0  0  0  0  0  0  0  0
   37.8320   24.4900   32.5660 N   0  0  0  0  0  0  0  0  0  0  0  0
   35.4130   22.9870   30.7170 H   0  0  0  0  0  0  0  0  0  0  0  0
   36.8420   21.0210   31.3340 H   0  0  0  0  0  0  0  0  0  0  0  0
   38.8070   21.3620   32.6890 H   0  0  0  0  0  0  0  0  0  0  0  0
   35.9160   25.5500   31.4800 C   0  0  0  0  0  0  0  0  0  0  0  0
   34.9200   25.4810   30.7530 O   0  0  0  0  0  0  0  0  0  0  0  0
   36.3410   26.8150   32.0410 N   0  0  0  0  0  0  0  0  0  0  0  0
   37.2620   26.9600   32.4850 H   0  0  0  0  0  0  0  0  0  0  0  0
   35.3970   28.9050   33.0100 C   0  0  2  0  0  0  0  0  0  0  0  0
   36.1080   29.2910   31.7620 C   0  0  0  0  0  0  0  0  0  0  0  0
   35.4180   27.9280   31.9710 C   0  0  1  0  0  0  0  0  0  0  0  0
   36.0390   28.8000   33.9100 H   0  0  0  0  0  0  0  0  0  0  0  0
   37.1960   29.3180   31.7810 H   0  0  0  0  0  0  0  0  0  0  0  0
   35.6250   30.0280   31.0950 H   0  0  0  0  0  0  0  0  0  0  0  0
   34.5310   27.8050   31.3130 H   0  0  0  0  0  0  0  0  0  0  0  0
   32.0900   30.5690   32.6680 C   0  0  0  0  0  0  0  0  0  0  0  0
   31.7050   30.7220   34.0270 C   0  0  0  0  0  0  0  0  0  0  0  0
   32.6050   30.2530   35.0600 C   0  0  0  0  0  0  0  0  0  0  0  0
   33.7910   29.6820   34.6890 N   0  0  0  0  0  0  0  0  0  0  0  0
   34.0900   29.5720   33.3660 C   0  0  0  0  0  0  0  0  0  0  0  0
   33.2690   30.0010   32.3300 N   0  0  0  0  0  0  0  0  0  0  0  0
   31.3840   30.9350   31.9600 H   0  0  0  0  0  0  0  0  0  0  0  0
   30.7920   31.1600   34.3390 H   0  0  0  0  0  0  0  0  0  0  0  0
   32.3120   30.3690   36.0850 H   0  0  0  0  0  0  0  0  0  0  0  0
   39.8100   23.5750   33.6990 C   0  0  0  0  0  0  0  0  0  0  0  0
   40.7820   24.2190   33.2360 O   0  0  0  0  0  0  0  0  0  0  0  0
   40.1000   23.0630   35.0260 C   0  0  0  0  0  0  0  0  0  0  0  0
   41.1420   22.1430   35.1840 C   0  0  0  0  0  0  0  0  0  0  0  0
   41.6820   21.8440   34.2750 H   0  0  0  0  0  0  0  0  0  0  0  0
   41.5460   21.5820   36.3770 C   0  0  0  0  0  3  0  0  0  0  0  0
   40.8670   21.9570   37.5180 C   0  0  0  0  0  3  0  0  0  0  0  0
   39.8310   22.8620   37.4230 C   0  0  0  0  0  0  0  0  0  0  0  0
   39.1470   23.2360   38.5590 C   0  0  0  0  0  3  0  0  0  0  0  0
   38.0970   24.1430   38.4770 C   0  0  0  0  0  3  0  0  0  0  0  0
   37.7310   24.6770   37.2390 C   0  0  0  0  0  3  0  0  0  0  0  0
   38.4340   24.2820   36.1260 C   0  0  0  0  0  3  0  0  0  0  0  0
   39.4660   23.3920   36.2050 C   0  0  0  0  0  0  0  0  0  0  0  0
  1  6  1  0  0  0  0
  2  3  1  0  0  0  0
  2  1  2  0  0  0  0
  3  4  2  0  0  0  0
  4  9  1  0  0  0  0
  4  5  1  0  0  0  0
  5 30  1  0  0  0  0
  6  5  2  0  0  0  0
  7  2  1  0  0  0  0
  8  3  1  0  0  0  0
 10  1  1  0  0  0  0
 10 12  1  0  0  0  0
 11 10  2  0  0  0  0
 12 13  1  0  0  0  0
 14 25  1  0  0  0  0
 14 17  1  1  0  0  0
 15 18  1  0  0  0  0
 15 16  1  0  0  0  0
 15 14  1  0  0  0  0
 16 20  1  6  0  0  0
 16 12  1  0  0  0  0
 16 14  1  0  0  0  0
 19 15  1  0  0  0  0
 21 22  1  0  0  0  0
 22 28  1  0  0  0  0
 22 23  2  0  0  0  0
 23 29  1  0  0  0  0
 24 23  1  0  0  0  0
 25 24  2  0  0  0  0
 26 21  2  0  0  0  0
 26 25  1  0  0  0  0
 27 21  1  0  0  0  0
 30 32  1  0  0  0  0
 31 30  2  0  0  0  0
 32 33  2  0  0  0  0
 32 42  1  0  0  0  0
 33 35  1  0  0  0  0
 34 33  1  0  0  0  0
 35 36  2  0  0  0  0
 37 36  1  0  0  0  0
 37 38  1  0  0  0  0
 39 38  2  0  0  0  0
 40 39  1  0  0  0  0
 41 42  1  0  0  0  0
 41 40  2  0  0  0  0
 42 37  2  0  0  0  0
M  END
>  <minimizedAffinity>
-6.69748878

$$$$

 OpenBabel03272508593D

 42 46  0  0  1  0  0  0  0  0999 V2000
   36.8120   25.3580   32.1660 C   0  0  0  0  0  0  0  0  0  0  0  0
   36.1690   26.5200   31.7840 C   0  0  0  0  0  0  0  0  0  0  0  0
   36.3220   27.6240   32.5990 C   0  0  0  0  0  0  0  0  0  0  0  0
   37.0880   27.5180   33.7270 C   0  0  0  0  0  0  0  0  0  0  0  0
   37.7380   26.3370   34.1110 C   0  0  0  0  0  0  0  0  0  0  0  0
   37.5650   25.2820   33.2900 N   0  0  0  0  0  0  0  0  0  0  0  0
   35.5610   26.6120   30.8930 H   0  0  0  0  0  0  0  0  0  0  0  0
   35.8750   28.5850   32.4110 H   0  0  0  0  0  0  0  0  0  0  0  0
   37.2340   28.3540   34.3900 H   0  0  0  0  0  0  0  0  0  0  0  0
   36.6680   24.1630   31.3120 C   0  0  0  0  0  0  0  0  0  0  0  0
   37.3770   23.9910   30.3160 O   0  0  0  0  0  0  0  0  0  0  0  0
   35.6580   23.1930   31.6830 N   0  0  0  0  0  0  0  0  0  0  0  0
   34.9180   23.3790   32.3790 H   0  0  0  0  0  0  0  0  0  0  0  0
   36.5400   20.8680   31.5560 C   0  0  2  0  0  0  0  0  0  0  0  0
   35.0960   20.7640   31.8910 C   0  0  0  0  0  0  0  0  0  0  0  0
   35.6990   21.8970   31.0380 C   0  0  1  0  0  0  0  0  0  0  0  0
   37.2150   21.0580   32.4170 H   0  0  0  0  0  0  0  0  0  0  0  0
   34.7880   21.0010   32.9070 H   0  0  0  0  0  0  0  0  0  0  0  0
   34.4990   19.9840   31.3830 H   0  0  0  0  0  0  0  0  0  0  0  0
   35.3590   21.8500   29.9820 H   0  0  0  0  0  0  0  0  0  0  0  0
   36.9290   18.4230   28.7830 C   0  0  0  0  0  0  0  0  0  0  0  0
   38.3190   18.1350   28.8480 C   0  0  0  0  0  0  0  0  0  0  0  0
   39.1160   18.7880   29.8670 C   0  0  0  0  0  0  0  0  0  0  0  0
   38.5000   19.6550   30.7260 N   0  0  0  0  0  0  0  0  0  0  0  0
   37.1640   19.8780   30.6020 C   0  0  0  0  0  0  0  0  0  0  0  0
   36.3470   19.2840   29.6470 N   0  0  0  0  0  0  0  0  0  0  0  0
   36.4030   17.9100   28.0130 H   0  0  0  0  0  0  0  0  0  0  0  0
   38.8180   17.4680   28.1930 H   0  0  0  0  0  0  0  0  0  0  0  0
   40.1640   18.5690   29.9140 H   0  0  0  0  0  0  0  0  0  0  0  0
   38.5280   26.2630   35.3260 C   0  0  0  0  0  0  0  0  0  0  0  0
   39.1980   27.2620   35.6830 O   0  0  0  0  0  0  0  0  0  0  0  0
   38.6830   25.1620   36.2600 C   0  0  0  0  0  0  0  0  0  0  0  0
   37.8750   25.1220   37.4010 C   0  0  0  0  0  0  0  0  0  0  0  0
   37.1650   25.9500   37.5350 H   0  0  0  0  0  0  0  0  0  0  0  0
   37.8930   24.1380   38.3660 C   0  0  0  0  0  3  0  0  0  0  0  0
   38.7850   23.0990   38.1970 C   0  0  0  0  0  3  0  0  0  0  0  0
   39.6080   23.0850   37.0900 C   0  0  0  0  0  0  0  0  0  0  0  0
   40.5030   22.0520   36.9190 C   0  0  0  0  0  3  0  0  0  0  0  0
   41.3410   22.0280   35.8110 C   0  0  0  0  0  3  0  0  0  0  0  0
   41.2780   23.0560   34.8660 C   0  0  0  0  0  3  0  0  0  0  0  0
   40.3740   24.0700   35.0670 C   0  0  0  0  0  3  0  0  0  0  0  0
   39.5500   24.0950   36.1550 C   0  0  0  0  0  0  0  0  0  0  0  0
  1  6  1  0  0  0  0
  2  1  2  0  0  0  0
  2  3  1  0  0  0  0
  3  4  2  0  0  0  0
  4  5  1  0  0  0  0
  4  9  1  0  0  0  0
  5 30  1  0  0  0  0
  6  5  2  0  0  0  0
  7  2  1  0  0  0  0
  8  3  1  0  0  0  0
 10 12  1  0  0  0  0
 10  1  1  0  0  0  0
 11 10  2  0  0  0  0
 12 13  1  0  0  0  0
 14 15  1  0  0  0  0
 14 17  1  1  0  0  0
 15 18  1  0  0  0  0
 16 20  1  6  0  0  0
 16 14  1  0  0  0  0
 16 12  1  0  0  0  0
 16 15  1  0  0  0  0
 19 15  1  0  0  0  0
 21 22  2  0  0  0  0
 21 26  1  0  0  0  0
 22 23  1  0  0  0  0
 23 29  1  0  0  0  0
 23 24  2  0  0  0  0
 25 24  1  0  0  0  0
 25 14  1  0  0  0  0
 26 25  2  0  0  0  0
 27 21  1  0  0  0  0
 28 22  1  0  0  0  0
 30 31  2  0  0  0  0
 30 32  1  0  0  0  0
 32 33  1  0  0  0  0
 33 34  1  0  0  0  0
 33 35  2  0  0  0  0
 36 35  1  0  0  0  0
 37 36  2  0  0  0  0
 38 37  1  0  0  0  0
 39 38  2  0  0  0  0
 40 41  2  0  0  0  0
 40 39  1  0  0  0  0
 41 42  1  0  0  0  0
 42 32  2  0  0  0  0
 42 37  1  0  0  0  0
M  END
>  <minimizedAffinity>
-6.6870656

$$$$

 OpenBabel03272508593D

 42 46  0  0  1  0  0  0  0  0999 V2000
   37.4170   27.5610   32.9000 C   0  0  0  0  0  0  0  0  0  0  0  0
   37.8360   27.2930   31.6110 C   0  0  0  0  0  0  0  0  0  0  0  0
   37.1460   27.9050   30.5820 C   0  0  0  0  0  0  0  0  0  0  0  0
   36.0980   28.7300   30.8830 C   0  0  0  0  0  0  0  0  0  0  0  0
   35.6770   28.9990   32.1920 C   0  0  0  0  0  0  0  0  0  0  0  0
   36.3750   28.3840   33.1670 N   0  0  0  0  0  0  0  0  0  0  0  0
   38.6640   26.6410   31.3640 H   0  0  0  0  0  0  0  0  0  0  0  0
   37.3740   27.7780   29.5380 H   0  0  0  0  0  0  0  0  0  0  0  0
   35.5340   29.2270   30.1130 H   0  0  0  0  0  0  0  0  0  0  0  0
   38.1390   26.9220   34.0190 C   0  0  0  0  0  0  0  0  0  0  0  0
   37.5470   26.2550   34.8720 O   0  0  0  0  0  0  0  0  0  0  0  0
   39.5740   27.1090   34.0830 N   0  0  0  0  0  0  0  0  0  0  0  0
   40.0830   27.8080   33.5190 H   0  0  0  0  0  0  0  0  0  0  0  0
   40.7350   24.9620   34.5770 C   0  0  2  0  0  0  0  0  0  0  0  0
   41.7790   26.0210   34.5450 C   0  0  0  0  0  0  0  0  0  0  0  0
   40.3220   26.2640   34.9900 C   0  0  1  0  0  0  0  0  0  0  0  0
   40.4410   24.5550   33.5870 H   0  0  0  0  0  0  0  0  0  0  0  0
   42.0860   26.4070   33.5760 H   0  0  0  0  0  0  0  0  0  0  0  0
   42.5670   25.9950   35.3200 H   0  0  0  0  0  0  0  0  0  0  0  0
   40.2510   26.5010   36.0720 H   0  0  0  0  0  0  0  0  0  0  0  0
   42.0860   22.2210   36.6930 C   0  0  0  0  0  0  0  0  0  0  0  0
   40.9610   21.9000   37.4990 C   0  0  0  0  0  0  0  0  0  0  0  0
   39.7290   22.6340   37.2940 C   0  0  0  0  0  0  0  0  0  0  0  0
   39.6960   23.6070   36.3340 N   0  0  0  0  0  0  0  0  0  0  0  0
   40.8150   23.8570   35.6020 C   0  0  0  0  0  0  0  0  0  0  0  0
   42.0250   23.1880   35.7510 N   0  0  0  0  0  0  0  0  0  0  0  0
   42.9580   21.6450   36.8940 H   0  0  0  0  0  0  0  0  0  0  0  0
   40.9620   21.1510   38.2480 H   0  0  0  0  0  0  0  0  0  0  0  0
   38.8810   22.3900   37.9030 H   0  0  0  0  0  0  0  0  0  0  0  0
   34.5480   29.8690   32.4660 C   0  0  0  0  0  0  0  0  0  0  0  0
   34.1080   30.6080   31.5520 O   0  0  0  0  0  0  0  0  0  0  0  0
   33.7920   30.0400   33.6930 C   0  0  0  0  0  0  0  0  0  0  0  0
   32.5760   29.3620   33.8390 C   0  0  0  0  0  0  0  0  0  0  0  0
   32.2510   28.7400   32.9950 H   0  0  0  0  0  0  0  0  0  0  0  0
   31.7570   29.4100   34.9470 C   0  0  0  0  0  3  0  0  0  0  0  0
   32.1660   30.1930   36.0070 C   0  0  0  0  0  3  0  0  0  0  0  0
   33.3560   30.8850   35.9190 C   0  0  0  0  0  0  0  0  0  0  0  0
   33.7670   31.6710   36.9730 C   0  0  0  0  0  3  0  0  0  0  0  0
   34.9610   32.3770   36.8960 C   0  0  0  0  0  3  0  0  0  0  0  0
   35.7500   32.2900   35.7460 C   0  0  0  0  0  3  0  0  0  0  0  0
   35.3110   31.4970   34.7140 C   0  0  0  0  0  3  0  0  0  0  0  0
   34.1380   30.8030   34.7880 C   0  0  0  0  0  0  0  0  0  0  0  0
  1  6  1  0  0  0  0
  1 10  1  0  0  0  0
  2  1  2  0  0  0  0
  3  4  2  0  0  0  0
  3  2  1  0  0  0  0
  4  5  1  0  0  0  0
  5 30  1  0  0  0  0
  5  6  2  0  0  0  0
  7  2  1  0  0  0  0
  8  3  1  0  0  0  0
  9  4  1  0  0  0  0
 10 12  1  0  0  0  0
 10 11  2  0  0  0  0
 12 16  1  0  0  0  0
 13 12  1  0  0  0  0
 14 17  1  6  0  0  0
 14 16  1  0  0  0  0
 14 25  1  0  0  0  0
 15 14  1  0  0  0  0
 15 16  1  0  0  0  0
 15 19  1  0  0  0  0
 16 20  1  1  0  0  0
 18 15  1  0  0  0  0
 21 27  1  0  0  0  0
 21 22  1  0  0  0  0
 22 28  1  0  0  0  0
 23 22  2  0  0  0  0
 23 29  1  0  0  0  0
 24 23  1  0  0  0  0
 25 26  1  0  0  0  0
 25 24  2  0  0  0  0
 26 21  2  0  0  0  0
 30 32  1  0  0  0  0
 31 30  2  0  0  0  0
 32 33  2  0  0  0  0
 32 42  1  0  0  0  0
 33 35  1  0  0  0  0
 34 33  1  0  0  0  0
 35 36  2  0  0  0  0
 37 36  1  0  0  0  0
 37 38  1  0  0  0  0
 39 38  2  0  0  0  0
 40 39  1  0  0  0  0
 41 42  1  0  0  0  0
 41 40  2  0  0  0  0
 42 37  2  0  0  0  0
M  END
>  <minimizedAffinity>
-6.67938137

$$$$

 OpenBabel03272508593D

 42 46  0  0  1  0  0  0  0  0999 V2000
   37.4660   27.4350   33.3350 C   0  0  0  0  0  0  0  0  0  0  0  0
   37.4820   26.8860   32.0670 C   0  0  0  0  0  0  0  0  0  0  0  0
   36.6800   27.4790   31.1110 C   0  0  0  0  0  0  0  0  0  0  0  0
   35.9210   28.5620   31.4590 C   0  0  0  0  0  0  0  0  0  0  0  0
   35.9080   29.1160   32.7470 C   0  0  0  0  0  0  0  0  0  0  0  0
   36.7030   28.5090   33.6500 N   0  0  0  0  0  0  0  0  0  0  0  0
   38.0790   26.0290   31.7840 H   0  0  0  0  0  0  0  0  0  0  0  0
   36.6050   27.1470   30.0900 H   0  0  0  0  0  0  0  0  0  0  0  0
   35.2830   29.0550   30.7460 H   0  0  0  0  0  0  0  0  0  0  0  0
   38.3150   26.8220   34.3750 C   0  0  0  0  0  0  0  0  0  0  0  0
   37.8270   26.2980   35.3820 O   0  0  0  0  0  0  0  0  0  0  0  0
   39.7490   26.8570   34.1760 N   0  0  0  0  0  0  0  0  0  0  0  0
   40.2110   27.4450   33.4640 H   0  0  0  0  0  0  0  0  0  0  0  0
   41.0660   24.7750   34.5350 C   0  0  2  0  0  0  0  0  0  0  0  0
   42.0320   25.9050   34.5540 C   0  0  0  0  0  0  0  0  0  0  0  0
   40.5680   26.0190   35.0260 C   0  0  1  0  0  0  0  0  0  0  0  0
   40.7890   24.4040   33.5260 H   0  0  0  0  0  0  0  0  0  0  0  0
   42.2980   26.3670   33.6060 H   0  0  0  0  0  0  0  0  0  0  0  0
   42.8310   25.8930   35.3180 H   0  0  0  0  0  0  0  0  0  0  0  0
   40.4950   26.1880   36.1210 H   0  0  0  0  0  0  0  0  0  0  0  0
   42.6060   21.9470   36.3920 C   0  0  0  0  0  0  0  0  0  0  0  0
   41.5540   21.5770   37.2740 C   0  0  0  0  0  0  0  0  0  0  0  0
   40.3060   22.3100   37.2110 C   0  0  0  0  0  0  0  0  0  0  0  0
   40.1880   23.3280   36.3060 N   0  0  0  0  0  0  0  0  0  0  0  0
   41.2390   23.6220   35.4940 C   0  0  0  0  0  0  0  0  0  0  0  0
   42.4600   22.9580   35.5070 N   0  0  0  0  0  0  0  0  0  0  0  0
   43.4940   21.3690   36.4910 H   0  0  0  0  0  0  0  0  0  0  0  0
   41.6230   20.7930   37.9840 H   0  0  0  0  0  0  0  0  0  0  0  0
   39.5150   22.0290   37.8770 H   0  0  0  0  0  0  0  0  0  0  0  0
   35.0740   30.2560   33.0770 C   0  0  0  0  0  0  0  0  0  0  0  0
   34.3590   30.7720   32.1840 O   0  0  0  0  0  0  0  0  0  0  0  0
   34.9130   30.9450   34.3450 C   0  0  0  0  0  0  0  0  0  0  0  0
   35.8180   31.9560   34.6850 C   0  0  0  0  0  0  0  0  0  0  0  0
   36.6220   32.1650   33.9660 H   0  0  0  0  0  0  0  0  0  0  0  0
   35.7870   32.7080   35.8410 C   0  0  0  0  0  3  0  0  0  0  0  0
   34.7780   32.4440   36.7440 C   0  0  0  0  0  3  0  0  0  0  0  0
   33.8560   31.4570   36.4610 C   0  0  0  0  0  0  0  0  0  0  0  0
   32.8490   31.1880   37.3620 C   0  0  0  0  0  3  0  0  0  0  0  0
   31.9170   30.1930   37.0920 C   0  0  0  0  0  3  0  0  0  0  0  0
   32.0010   29.4620   35.9040 C   0  0  0  0  0  3  0  0  0  0  0  0
   33.0170   29.7570   35.0280 C   0  0  0  0  0  3  0  0  0  0  0  0
   33.9340   30.7340   35.2910 C   0  0  0  0  0  0  0  0  0  0  0  0
  1  6  1  0  0  0  0
  1 10  1  0  0  0  0
  2  1  2  0  0  0  0
  3  4  2  0  0  0  0
  3  2  1  0  0  0  0
  4  5  1  0  0  0  0
  5 30  1  0  0  0  0
  5  6  2  0  0  0  0
  7  2  1  0  0  0  0
  8  3  1  0  0  0  0
  9  4  1  0  0  0  0
 10 11  2  0  0  0  0
 12 10  1  0  0  0  0
 12 16  1  0  0  0  0
 13 12  1  0  0  0  0
 14 17  1  6  0  0  0
 14 15  1  0  0  0  0
 14 16  1  0  0  0  0
 14 25  1  0  0  0  0
 15 16  1  0  0  0  0
 15 19  1  0  0  0  0
 16 20  1  1  0  0  0
 18 15  1  0  0  0  0
 21 27  1  0  0  0  0
 21 22  1  0  0  0  0
 22 28  1  0  0  0  0
 23 22  2  0  0  0  0
 23 29  1  0  0  0  0
 24 23  1  0  0  0  0
 25 26  1  0  0  0  0
 25 24  2  0  0  0  0
 26 21  2  0  0  0  0
 30 32  1  0  0  0  0
 31 30  2  0  0  0  0
 32 33  2  0  0  0  0
 32 42  1  0  0  0  0
 33 35  1  0  0  0  0
 34 33  1  0  0  0  0
 35 36  2  0  0  0  0
 37 36  1  0  0  0  0
 37 38  1  0  0  0  0
 39 38  2  0  0  0  0
 40 39  1  0  0  0  0
 41 42  1  0  0  0  0
 41 40  2  0  0  0  0
 42 37  2  0  0  0  0
M  END
>  <minimizedAffinity>
-6.51227903

$$$$

 OpenBabel03272508593D

 42 46  0  0  1  0  0  0  0  0999 V2000
   37.3610   26.6720   32.4950 C   0  0  0  0  0  0  0  0  0  0  0  0
   38.4210   26.8380   31.6250 C   0  0  0  0  0  0  0  0  0  0  0  0
   39.3880   25.8510   31.6110 C   0  0  0  0  0  0  0  0  0  0  0  0
   39.2530   24.7760   32.4440 C   0  0  0  0  0  0  0  0  0  0  0  0
   38.1750   24.6120   33.3260 C   0  0  0  0  0  0  0  0  0  0  0  0
   37.2540   25.5950   33.3100 N   0  0  0  0  0  0  0  0  0  0  0  0
   38.5350   27.6870   30.9620 H   0  0  0  0  0  0  0  0  0  0  0  0
   40.2590   25.8640   30.9790 H   0  0  0  0  0  0  0  0  0  0  0  0
   39.9820   23.9840   32.4650 H   0  0  0  0  0  0  0  0  0  0  0  0
   36.3120   27.7110   32.5300 C   0  0  0  0  0  0  0  0  0  0  0  0
   35.3310   27.6630   31.7820 O   0  0  0  0  0  0  0  0  0  0  0  0
   36.4760   28.7960   33.4750 N   0  0  0  0  0  0  0  0  0  0  0  0
   37.3580   28.9870   33.9760 H   0  0  0  0  0  0  0  0  0  0  0  0
   35.3850   30.6260   34.7630 C   0  0  2  0  0  0  0  0  0  0  0  0
   35.5860   31.1320   33.3800 C   0  0  0  0  0  0  0  0  0  0  0  0
   35.3340   29.6500   33.7240 C   0  0  1  0  0  0  0  0  0  0  0  0
   36.2680   30.7070   35.4320 H   0  0  0  0  0  0  0  0  0  0  0  0
   36.5910   31.4210   33.0820 H   0  0  0  0  0  0  0  0  0  0  0  0
   34.7670   31.7100   32.9140 H   0  0  0  0  0  0  0  0  0  0  0  0
   34.3500   29.2970   33.3490 H   0  0  0  0  0  0  0  0  0  0  0  0
   33.0910   32.0020   37.3450 C   0  0  0  0  0  0  0  0  0  0  0  0
   31.8210   31.6310   36.8260 C   0  0  0  0  0  0  0  0  0  0  0  0
   31.7690   30.8920   35.5810 C   0  0  0  0  0  0  0  0  0  0  0  0
   32.9430   30.5800   34.9540 N   0  0  0  0  0  0  0  0  0  0  0  0
   34.1200   30.9690   35.5130 C   0  0  0  0  0  0  0  0  0  0  0  0
   34.2350   31.6790   36.7020 N   0  0  0  0  0  0  0  0  0  0  0  0
   33.0580   32.5420   38.2610 H   0  0  0  0  0  0  0  0  0  0  0  0
   30.8990   31.8620   37.2940 H   0  0  0  0  0  0  0  0  0  0  0  0
   30.8100   30.6130   35.1920 H   0  0  0  0  0  0  0  0  0  0  0  0
   38.0800   23.4620   34.2060 C   0  0  0  0  0  0  0  0  0  0  0  0
   37.5010   22.4250   33.8000 O   0  0  0  0  0  0  0  0  0  0  0  0
   38.5730   23.2950   35.5610 C   0  0  0  0  0  0  0  0  0  0  0  0
   37.7970   23.7630   36.6270 C   0  0  0  0  0  0  0  0  0  0  0  0
   36.8470   24.2520   36.3710 H   0  0  0  0  0  0  0  0  0  0  0  0
   38.1210   23.6630   37.9630 C   0  0  0  0  0  3  0  0  0  0  0  0
   39.3140   23.0490   38.2830 C   0  0  0  0  0  3  0  0  0  0  0  0
   40.1220   22.5680   37.2740 C   0  0  0  0  0  0  0  0  0  0  0  0
   41.3160   21.9590   37.5890 C   0  0  0  0  0  3  0  0  0  0  0  0
   42.1420   21.4740   36.5810 C   0  0  0  0  0  3  0  0  0  0  0  0
   41.7600   21.6050   35.2430 C   0  0  0  0  0  3  0  0  0  0  0  0
   40.5620   22.2180   34.9650 C   0  0  0  0  0  3  0  0  0  0  0  0
   39.7500   22.6950   35.9530 C   0  0  0  0  0  0  0  0  0  0  0  0
  1 10  1  0  0  0  0
  1  6  1  0  0  0  0
  2  1  2  0  0  0  0
  3  2  1  0  0  0  0
  3  4  2  0  0  0  0
  4  9  1  0  0  0  0
  4  5  1  0  0  0  0
  5 30  1  0  0  0  0
  6  5  2  0  0  0  0
  7  2  1  0  0  0  0
  8  3  1  0  0  0  0
 10 12  1  0  0  0  0
 11 10  2  0  0  0  0
 12 16  1  0  0  0  0
 12 13  1  0  0  0  0
 14 17  1  1  0  0  0
 14 25  1  0  0  0  0
 15 16  1  0  0  0  0
 15 14  1  0  0  0  0
 16 20  1  6  0  0  0
 16 14  1  0  0  0  0
 18 15  1  0  0  0  0
 19 15  1  0  0  0  0
 21 27  1  0  0  0  0
 22 28  1  0  0  0  0
 22 21  1  0  0  0  0
 23 22  2  0  0  0  0
 24 25  2  0  0  0  0
 24 23  1  0  0  0  0
 25 26  1  0  0  0  0
 26 21  2  0  0  0  0
 29 23  1  0  0  0  0
 30 32  1  0  0  0  0
 31 30  2  0  0  0  0
 32 42  2  0  0  0  0
 32 33  1  0  0  0  0
 33 35  2  0  0  0  0
 34 33  1  0  0  0  0
 35 36  1  0  0  0  0
 37 38  1  0  0  0  0
 37 36  2  0  0  0  0
 39 38  2  0  0  0  0
 40 39  1  0  0  0  0
 41 40  2  0  0  0  0
 41 42  1  0  0  0  0
 42 37  1  0  0  0  0
M  END
>  <minimizedAffinity>
-6.49735737

$$$$

 OpenBabel03272508593D

 42 46  0  0  1  0  0  0  0  0999 V2000
   37.0100   26.2050   33.0520 C   0  0  0  0  0  0  0  0  0  0  0  0
   37.7650   25.8950   34.1660 C   0  0  0  0  0  0  0  0  0  0  0  0
   37.8010   26.8270   35.1850 C   0  0  0  0  0  0  0  0  0  0  0  0
   37.1010   27.9930   35.0440 C   0  0  0  0  0  0  0  0  0  0  0  0
   36.3360   28.3030   33.9120 C   0  0  0  0  0  0  0  0  0  0  0  0
   36.3260   27.3690   32.9410 N   0  0  0  0  0  0  0  0  0  0  0  0
   38.3230   24.9740   34.2850 H   0  0  0  0  0  0  0  0  0  0  0  0
   38.3500   26.7040   36.1020 H   0  0  0  0  0  0  0  0  0  0  0  0
   37.1010   28.7460   35.8130 H   0  0  0  0  0  0  0  0  0  0  0  0
   36.9520   25.2250   31.9480 C   0  0  0  0  0  0  0  0  0  0  0  0
   37.6560   25.3440   30.9410 O   0  0  0  0  0  0  0  0  0  0  0  0
   36.0330   24.1140   32.0870 N   0  0  0  0  0  0  0  0  0  0  0  0
   35.2910   24.0750   32.8050 H   0  0  0  0  0  0  0  0  0  0  0  0
   36.9370   21.8610   31.5360 C   0  0  2  0  0  0  0  0  0  0  0  0
   35.4600   21.7210   31.6340 C   0  0  0  0  0  0  0  0  0  0  0  0
   36.1720   23.0060   31.1660 C   0  0  1  0  0  0  0  0  0  0  0  0
   37.4830   21.8240   32.5030 H   0  0  0  0  0  0  0  0  0  0  0  0
   35.0100   21.7210   32.6250 H   0  0  0  0  0  0  0  0  0  0  0  0
   34.9460   21.1000   30.8780 H   0  0  0  0  0  0  0  0  0  0  0  0
   35.9850   23.2190   30.0920 H   0  0  0  0  0  0  0  0  0  0  0  0
   37.8440   19.2550   29.0450 C   0  0  0  0  0  0  0  0  0  0  0  0
   39.0470   19.7830   28.5030 C   0  0  0  0  0  0  0  0  0  0  0  0
   39.5440   21.0430   29.0170 C   0  0  0  0  0  0  0  0  0  0  0  0
   38.8380   21.6750   30.0020 N   0  0  0  0  0  0  0  0  0  0  0  0
   37.6950   21.1060   30.4710 C   0  0  0  0  0  0  0  0  0  0  0  0
   37.1660   19.9020   30.0190 N   0  0  0  0  0  0  0  0  0  0  0  0
   37.5340   18.3270   28.6240 H   0  0  0  0  0  0  0  0  0  0  0  0
   39.6110   19.3120   27.7400 H   0  0  0  0  0  0  0  0  0  0  0  0
   40.4520   21.4390   28.6070 H   0  0  0  0  0  0  0  0  0  0  0  0
   35.6210   29.5620   33.7960 C   0  0  0  0  0  0  0  0  0  0  0  0
   35.3530   30.0120   32.6570 O   0  0  0  0  0  0  0  0  0  0  0  0
   35.1310   30.4430   34.8410 C   0  0  0  0  0  0  0  0  0  0  0  0
   35.9580   31.4740   35.3000 C   0  0  0  0  0  0  0  0  0  0  0  0
   36.9550   31.5500   34.8450 H   0  0  0  0  0  0  0  0  0  0  0  0
   35.6290   32.3970   36.2700 C   0  0  0  0  0  3  0  0  0  0  0  0
   34.3780   32.3000   36.8420 C   0  0  0  0  0  3  0  0  0  0  0  0
   33.5190   31.3020   36.4290 C   0  0  0  0  0  0  0  0  0  0  0  0
   32.2700   31.1980   37.0000 C   0  0  0  0  0  3  0  0  0  0  0  0
   31.3970   30.1950   36.5970 C   0  0  0  0  0  3  0  0  0  0  0  0
   31.7870   29.2860   35.6100 C   0  0  0  0  0  3  0  0  0  0  0  0
   33.0400   29.4190   35.0610 C   0  0  0  0  0  3  0  0  0  0  0  0
   33.8980   30.4030   35.4550 C   0  0  0  0  0  0  0  0  0  0  0  0
  1  2  1  0  0  0  0
  2  7  1  0  0  0  0
  2  3  2  0  0  0  0
  3  8  1  0  0  0  0
  4  3  1  0  0  0  0
  4  9  1  0  0  0  0
  5  4  2  0  0  0  0
  6  1  2  0  0  0  0
  6  5  1  0  0  0  0
 10 12  1  0  0  0  0
 10  1  1  0  0  0  0
 11 10  2  0  0  0  0
 12 13  1  0  0  0  0
 14 15  1  0  0  0  0
 14 17  1  1  0  0  0
 15 18  1  0  0  0  0
 16 20  1  6  0  0  0
 16 14  1  0  0  0  0
 16 15  1  0  0  0  0
 16 12  1  0  0  0  0
 19 15  1  0  0  0  0
 21 26  1  0  0  0  0
 22 23  1  0  0  0  0
 22 21  2  0  0  0  0
 23 24  2  0  0  0  0
 24 25  1  0  0  0  0
 25 14  1  0  0  0  0
 26 25  2  0  0  0  0
 27 21  1  0  0  0  0
 28 22  1  0  0  0  0
 29 23  1  0  0  0  0
 30  5  1  0  0  0  0
 30 32  1  0  0  0  0
 31 30  2  0  0  0  0
 32 33  2  0  0  0  0
 32 42  1  0  0  0  0
 33 35  1  0  0  0  0
 34 33  1  0  0  0  0
 35 36  2  0  0  0  0
 37 36  1  0  0  0  0
 37 38  1  0  0  0  0
 39 38  2  0  0  0  0
 40 39  1  0  0  0  0
 41 42  1  0  0  0  0
 41 40  2  0  0  0  0
 42 37  2  0  0  0  0
M  END
>  <minimizedAffinity>
-6.44365788

$$$$

 OpenBabel03272508593D

 42 46  0  0  1  0  0  0  0  0999 V2000
   36.4620   27.9890   33.7680 C   0  0  0  0  0  0  0  0  0  0  0  0
   37.1950   27.5370   34.8490 C   0  0  0  0  0  0  0  0  0  0  0  0
   37.6970   26.2520   34.7790 C   0  0  0  0  0  0  0  0  0  0  0  0
   37.4480   25.5000   33.6650 C   0  0  0  0  0  0  0  0  0  0  0  0
   36.7040   25.9630   32.5700 C   0  0  0  0  0  0  0  0  0  0  0  0
   36.2320   27.2210   32.6760 N   0  0  0  0  0  0  0  0  0  0  0  0
   37.3960   28.1260   35.7350 H   0  0  0  0  0  0  0  0  0  0  0  0
   38.2820   25.7860   35.5530 H   0  0  0  0  0  0  0  0  0  0  0  0
   37.8210   24.4950   33.5680 H   0  0  0  0  0  0  0  0  0  0  0  0
   35.9150   29.3600   33.8150 C   0  0  0  0  0  0  0  0  0  0  0  0
   35.3370   29.8580   32.8440 O   0  0  0  0  0  0  0  0  0  0  0  0
   36.0830   30.1050   35.0450 N   0  0  0  0  0  0  0  0  0  0  0  0
   36.7200   29.8160   35.8040 H   0  0  0  0  0  0  0  0  0  0  0  0
   35.0350   31.8220   36.5130 C   0  0  2  0  0  0  0  0  0  0  0  0
   36.1290   32.5000   35.7690 C   0  0  0  0  0  0  0  0  0  0  0  0
   35.3110   31.3200   35.2060 C   0  0  1  0  0  0  0  0  0  0  0  0
   35.3520   31.2650   37.4200 H   0  0  0  0  0  0  0  0  0  0  0  0
   37.1540   32.3080   36.0770 H   0  0  0  0  0  0  0  0  0  0  0  0
   35.9350   33.5120   35.3680 H   0  0  0  0  0  0  0  0  0  0  0  0
   34.6700   31.6260   34.3530 H   0  0  0  0  0  0  0  0  0  0  0  0
   32.6170   34.4710   37.4900 C   0  0  0  0  0  0  0  0  0  0  0  0
   31.3770   33.8630   37.1550 C   0  0  0  0  0  0  0  0  0  0  0  0
   31.3870   32.5250   36.6000 C   0  0  0  0  0  0  0  0  0  0  0  0
   32.5890   31.8990   36.4180 N   0  0  0  0  0  0  0  0  0  0  0  0
   33.7340   32.5460   36.7630 C   0  0  0  0  0  0  0  0  0  0  0  0
   33.7900   33.8280   37.2990 N   0  0  0  0  0  0  0  0  0  0  0  0
   32.5380   35.4530   37.8930 H   0  0  0  0  0  0  0  0  0  0  0  0
   30.4340   34.3280   37.2860 H   0  0  0  0  0  0  0  0  0  0  0  0
   30.4500   32.0690   36.3490 H   0  0  0  0  0  0  0  0  0  0  0  0
   36.4490   25.1250   31.4130 C   0  0  0  0  0  0  0  0  0  0  0  0
   35.5490   25.4540   30.6040 O   0  0  0  0  0  0  0  0  0  0  0  0
   37.1010   23.8930   31.0050 C   0  0  0  0  0  0  0  0  0  0  0  0
   38.2950   23.9680   30.2790 C   0  0  0  0  0  0  0  0  0  0  0  0
   38.6700   24.9730   30.0430 H   0  0  0  0  0  0  0  0  0  0  0  0
   39.0370   22.8920   29.8390 C   0  0  0  0  0  3  0  0  0  0  0  0
   38.5640   21.6300   30.1350 C   0  0  0  0  0  3  0  0  0  0  0  0
   37.3920   21.4950   30.8490 C   0  0  0  0  0  0  0  0  0  0  0  0
   36.9140   20.2370   31.1430 C   0  0  0  0  0  3  0  0  0  0  0  0
   35.7310   20.0870   31.8570 C   0  0  0  0  0  3  0  0  0  0  0  0
   35.0220   21.2160   32.2770 C   0  0  0  0  0  3  0  0  0  0  0  0
   35.5260   22.4550   31.9660 C   0  0  0  0  0  3  0  0  0  0  0  0
   36.6880   22.6050   31.2650 C   0  0  0  0  0  0  0  0  0  0  0  0
  1 10  1  0  0  0  0
  1  2  1  0  0  0  0
  2  7  1  0  0  0  0
  3  2  2  0  0  0  0
  3  8  1  0  0  0  0
  4  3  1  0  0  0  0
  5  6  1  0  0  0  0
  5  4  2  0  0  0  0
  6  1  2  0  0  0  0
  9  4  1  0  0  0  0
 10 12  1  0  0  0  0
 11 10  2  0  0  0  0
 12 16  1  0  0  0  0
 12 13  1  0  0  0  0
 14 25  1  0  0  0  0
 14 17  1  1  0  0  0
 15 18  1  0  0  0  0
 15 14  1  0  0  0  0
 16 20  1  6  0  0  0
 16 15  1  0  0  0  0
 16 14  1  0  0  0  0
 19 15  1  0  0  0  0
 21 27  1  0  0  0  0
 22 28  1  0  0  0  0
 22 21  2  0  0  0  0
 23 22  1  0  0  0  0
 24 23  2  0  0  0  0
 24 25  1  0  0  0  0
 25 26  2  0  0  0  0
 26 21  1  0  0  0  0
 29 23  1  0  0  0  0
 30  5  1  0  0  0  0
 31 30  2  0  0  0  0
 32 42  1  0  0  0  0
 32 30  1  0  0  0  0
 33 32  2  0  0  0  0
 34 33  1  0  0  0  0
 35 36  2  0  0  0  0
 35 33  1  0  0  0  0
 36 37  1  0  0  0  0
 37 38  2  0  0  0  0
 37 42  1  0  0  0  0
 38 39  1  0  0  0  0
 39 40  2  0  0  0  0
 41 40  1  0  0  0  0
 42 41  2  0  0  0  0
M  END
>  <minimizedAffinity>
-6.44156075

$$$$

 OpenBabel03272508593D

 42 46  0  0  1  0  0  0  0  0999 V2000
   37.3160   27.1400   32.6990 C   0  0  0  0  0  0  0  0  0  0  0  0
   38.4830   27.4920   32.0480 C   0  0  0  0  0  0  0  0  0  0  0  0
   39.5470   26.6170   32.1400 C   0  0  0  0  0  0  0  0  0  0  0  0
   39.4000   25.4650   32.8600 C   0  0  0  0  0  0  0  0  0  0  0  0
   38.2150   25.1120   33.5210 C   0  0  0  0  0  0  0  0  0  0  0  0
   37.2000   25.9910   33.4070 N   0  0  0  0  0  0  0  0  0  0  0  0
   38.6070   28.4030   31.4750 H   0  0  0  0  0  0  0  0  0  0  0  0
   40.5060   26.7760   31.6770 H   0  0  0  0  0  0  0  0  0  0  0  0
   40.2040   24.7550   32.9580 H   0  0  0  0  0  0  0  0  0  0  0  0
   36.1620   28.0560   32.6160 C   0  0  0  0  0  0  0  0  0  0  0  0
   35.2800   27.9090   31.7630 O   0  0  0  0  0  0  0  0  0  0  0  0
   36.0980   29.1420   33.5720 N   0  0  0  0  0  0  0  0  0  0  0  0
   36.8930   29.4240   34.1670 H   0  0  0  0  0  0  0  0  0  0  0  0
   34.0160   29.6680   34.8330 C   0  0  2  0  0  0  0  0  0  0  0  0
   34.8420   30.9040   34.8270 C   0  0  0  0  0  0  0  0  0  0  0  0
   34.8480   29.8630   33.6900 C   0  0  1  0  0  0  0  0  0  0  0  0
   34.2800   28.9240   35.6140 H   0  0  0  0  0  0  0  0  0  0  0  0
   35.7070   30.9450   35.4850 H   0  0  0  0  0  0  0  0  0  0  0  0
   34.3300   31.8690   34.6540 H   0  0  0  0  0  0  0  0  0  0  0  0
   34.4090   30.2660   32.7530 H   0  0  0  0  0  0  0  0  0  0  0  0
   30.6710   30.3960   33.3840 C   0  0  0  0  0  0  0  0  0  0  0  0
   29.8070   29.8740   34.3830 C   0  0  0  0  0  0  0  0  0  0  0  0
   30.3940   29.2790   35.5660 C   0  0  0  0  0  0  0  0  0  0  0  0
   31.7560   29.2410   35.6760 N   0  0  0  0  0  0  0  0  0  0  0  0
   32.5170   29.7630   34.6760 C   0  0  0  0  0  0  0  0  0  0  0  0
   32.0150   30.3460   33.5190 N   0  0  0  0  0  0  0  0  0  0  0  0
   30.1760   30.8190   32.5420 H   0  0  0  0  0  0  0  0  0  0  0  0
   28.7490   29.8910   34.3210 H   0  0  0  0  0  0  0  0  0  0  0  0
   29.7390   28.8860   36.3190 H   0  0  0  0  0  0  0  0  0  0  0  0
   38.1080   23.8850   34.2900 C   0  0  0  0  0  0  0  0  0  0  0  0
   37.5590   22.8830   33.7720 O   0  0  0  0  0  0  0  0  0  0  0  0
   38.5580   23.6020   35.6410 C   0  0  0  0  0  0  0  0  0  0  0  0
   37.7870   24.0500   36.7190 C   0  0  0  0  0  0  0  0  0  0  0  0
   36.8760   24.6140   36.4770 H   0  0  0  0  0  0  0  0  0  0  0  0
   38.0730   23.8450   38.0520 C   0  0  0  0  0  3  0  0  0  0  0  0
   39.2180   23.1370   38.3550 C   0  0  0  0  0  3  0  0  0  0  0  0
   40.0170   22.6700   37.3330 C   0  0  0  0  0  0  0  0  0  0  0  0
   41.1630   21.9670   37.6300 C   0  0  0  0  0  3  0  0  0  0  0  0
   41.9800   21.4950   36.6100 C   0  0  0  0  0  3  0  0  0  0  0  0
   41.6390   21.7360   35.2760 C   0  0  0  0  0  3  0  0  0  0  0  0
   40.4890   22.4400   35.0150 C   0  0  0  0  0  3  0  0  0  0  0  0
   39.6860   22.9040   36.0160 C   0  0  0  0  0  0  0  0  0  0  0  0
  1  6  1  0  0  0  0
  2  3  1  0  0  0  0
  2  1  2  0  0  0  0
  3  4  2  0  0  0  0
  4  9  1  0  0  0  0
  4  5  1  0  0  0  0
  5 30  1  0  0  0  0
  6  5  2  0  0  0  0
  7  2  1  0  0  0  0
  8  3  1  0  0  0  0
 10  1  1  0  0  0  0
 10 12  1  0  0  0  0
 11 10  2  0  0  0  0
 12 16  1  0  0  0  0
 12 13  1  0  0  0  0
 14 17  1  1  0  0  0
 15 14  1  0  0  0  0
 15 18  1  0  0  0  0
 16 20  1  6  0  0  0
 16 15  1  0  0  0  0
 16 14  1  0  0  0  0
 19 15  1  0  0  0  0
 21 26  2  0  0  0  0
 21 22  1  0  0  0  0
 22 23  2  0  0  0  0
 23 24  1  0  0  0  0
 23 29  1  0  0  0  0
 25 14  1  0  0  0  0
 25 24  2  0  0  0  0
 26 25  1  0  0  0  0
 27 21  1  0  0  0  0
 28 22  1  0  0  0  0
 30 32  1  0  0  0  0
 31 30  2  0  0  0  0
 32 42  2  0  0  0  0
 32 33  1  0  0  0  0
 33 35  2  0  0  0  0
 34 33  1  0  0  0  0
 35 36  1  0  0  0  0
 37 38  1  0  0  0  0
 37 36  2  0  0  0  0
 39 38  2  0  0  0  0
 40 39  1  0  0  0  0
 41 40  2  0  0  0  0
 41 42  1  0  0  0  0
 42 37  1  0  0  0  0
M  END
>  <minimizedAffinity>
-6.4338665

$$$$
