
 OpenBabel03272504403D

 44 47  0  0  0  0  0  0  0  0999 V2000
   37.4260   27.4440   32.8610 C   0  0  0  0  0  0  0  0  0  0  0  0
   37.2820   27.9030   33.8600 H   0  0  0  0  0  0  0  0  0  0  0  0
   38.4430   27.8210   32.5450 H   0  0  0  0  0  0  0  0  0  0  0  0
   39.1090   26.5740   35.1240 Cl  0  0  0  0  0  0  0  0  0  0  0  0
   38.2940   25.4540   34.0300 C   0  0  0  0  0  0  0  0  0  0  0  0
   38.4380   24.1130   34.2200 C   0  0  0  0  0  0  0  0  0  0  0  0
   37.8110   23.2340   33.3800 C   0  0  0  0  0  0  0  0  0  0  0  0
   37.0400   23.7340   32.3490 C   0  0  0  0  0  0  0  0  0  0  0  0
   36.9240   25.1190   32.1960 C   0  0  0  0  0  0  0  0  0  0  0  0
   37.5390   26.0130   33.0210 C   0  0  0  0  0  0  0  0  0  0  0  0
   37.9520   22.1690   33.5670 H   0  0  0  0  0  0  0  0  0  0  0  0
   36.5870   22.9620   31.7410 H   0  0  0  0  0  0  0  0  0  0  0  0
   36.3160   25.2980   31.3830 H   0  0  0  0  0  0  0  0  0  0  0  0
   41.2550   22.8120   36.2150 C   0  0  0  0  0  0  0  0  0  0  0  0
   40.6260   22.6510   37.4990 C   0  0  0  0  0  0  0  0  0  0  0  0
   39.2870   22.9940   37.6070 C   0  0  0  0  0  0  0  0  0  0  0  0
   38.6320   23.4610   36.5120 N   0  0  0  0  0  0  0  0  0  0  0  0
   39.2520   23.6010   35.3160 C   0  0  0  0  0  0  0  0  0  0  0  0
   40.5410   23.2790   35.1850 N   0  0  0  0  0  0  0  0  0  0  0  0
   42.3080   22.5360   36.1600 H   0  0  0  0  0  0  0  0  0  0  0  0
   41.2000   22.2770   38.3260 H   0  0  0  0  0  0  0  0  0  0  0  0
   38.7040   22.8230   38.8760 N   0  0  0  0  0  0  0  0  0  0  0  0
   38.2270   23.6100   39.3970 H   0  0  0  0  0  0  0  0  0  0  0  0
   38.7190   21.9000   39.3640 H   0  0  0  0  0  0  0  0  0  0  0  0
   36.4320   27.9800   31.9440 C   0  0  0  0  0  0  0  0  0  0  0  0
   36.2620   27.3000   31.0800 H   0  0  0  0  0  0  0  0  0  0  0  0
   35.4210   28.0820   32.4140 H   0  0  0  0  0  0  0  0  0  0  0  0
   36.7610   29.2300   31.4770 O   0  0  0  0  0  0  0  0  0  0  0  0
   34.3830   30.3420   31.6270 O   0  0  0  0  0  0  0  0  0  0  0  0
   35.7590   30.4120   32.1850 P   0  0  2  0  0  0  0  0  0  0  0  0
   36.5520   31.8940   31.8390 O   0  0  0  0  0  0  0  0  0  0  0  0
   37.2720   32.0030   32.5110 H   0  0  0  0  0  0  0  0  0  0  0  0
   35.6990   30.2430   33.8260 O   0  0  0  0  0  0  0  0  0  0  0  0
   35.0250   30.7470   34.8190 C   0  0  0  0  0  0  0  0  0  0  0  0
   35.8630   31.7860   35.2920 C   0  0  0  0  0  0  0  0  0  0  0  0
   36.8390   32.1610   34.9820 H   0  0  0  0  0  0  0  0  0  0  0  0
   35.5150   32.6100   36.3820 C   0  0  0  0  0  3  0  0  0  0  0  0
   34.3010   32.3700   36.9970 C   0  0  0  0  0  3  0  0  0  0  0  0
   33.4300   31.3830   36.6040 C   0  0  0  0  0  0  0  0  0  0  0  0
   32.2060   31.0720   37.1520 C   0  0  0  0  0  3  0  0  0  0  0  0
   31.4030   30.0560   36.6770 C   0  0  0  0  0  3  0  0  0  0  0  0
   31.8670   29.3120   35.5870 C   0  0  0  0  0  3  0  0  0  0  0  0
   33.0870   29.6290   35.0470 C   0  0  0  0  0  3  0  0  0  0  0  0
   33.8640   30.6420   35.5350 C   0  0  0  0  0  0  0  0  0  0  0  0
  1 10  1  0  0  0  0
  1  2  1  0  0  0  0
  3  1  1  0  0  0  0
  5  6  1  0  0  0  0
  5  4  1  0  0  0  0
  6 18  1  0  0  0  0
  7 11  1  0  0  0  0
  7  6  2  0  0  0  0
  8  7  1  0  0  0  0
  9  8  2  0  0  0  0
  9 10  1  0  0  0  0
 10  5  2  0  0  0  0
 12  8  1  0  0  0  0
 13  9  1  0  0  0  0
 14 15  1  0  0  0  0
 15 16  2  0  0  0  0
 15 21  1  0  0  0  0
 16 22  1  0  0  0  0
 17 16  1  0  0  0  0
 18 17  2  0  0  0  0
 19 18  1  0  0  0  0
 19 14  2  0  0  0  0
 20 14  1  0  0  0  0
 22 24  1  0  0  0  0
 22 23  1  0  0  0  0
 25 27  1  0  0  0  0
 25  1  1  0  0  0  0
 26 25  1  0  0  0  0
 28 25  1  0  0  0  0
 28 30  1  0  0  0  0
 30 29  2  6  0  0  0
 30 33  1  0  0  0  0
 31 30  1  0  0  0  0
 31 32  1  0  0  0  0
 33 34  1  0  0  0  0
 34 35  2  0  0  0  0
 34 44  1  0  0  0  0
 35 37  1  0  0  0  0
 36 35  1  0  0  0  0
 37 38  2  0  0  0  0
 39 38  1  0  0  0  0
 39 40  1  0  0  0  0
 41 40  2  0  0  0  0
 42 41  1  0  0  0  0
 43 44  1  0  0  0  0
 43 42  2  0  0  0  0
 44 39  2  0  0  0  0
M  END
>  <minimizedAffinity>
-6.86739254

$$$$

 OpenBabel03272504403D

 44 47  0  0  0  0  0  0  0  0999 V2000
   37.8800   26.4750   31.0680 C   0  0  0  0  0  0  0  0  0  0  0  0
   38.2980   26.8640   30.1180 H   0  0  0  0  0  0  0  0  0  0  0  0
   36.7740   26.3860   30.8500 H   0  0  0  0  0  0  0  0  0  0  0  0
   35.8110   24.4700   31.7120 Cl  0  0  0  0  0  0  0  0  0  0  0  0
   37.5310   24.0900   31.5890 C   0  0  0  0  0  0  0  0  0  0  0  0
   37.9480   22.8100   31.8010 C   0  0  0  0  0  0  0  0  0  0  0  0
   39.2770   22.5030   31.7080 C   0  0  0  0  0  0  0  0  0  0  0  0
   40.1730   23.5070   31.3990 C   0  0  0  0  0  0  0  0  0  0  0  0
   39.6950   24.8040   31.1900 C   0  0  0  0  0  0  0  0  0  0  0  0
   38.3750   25.1350   31.2780 C   0  0  0  0  0  0  0  0  0  0  0  0
   39.5690   21.4670   31.8850 H   0  0  0  0  0  0  0  0  0  0  0  0
   41.1980   23.1650   31.3490 H   0  0  0  0  0  0  0  0  0  0  0  0
   40.5020   25.4080   30.9730 H   0  0  0  0  0  0  0  0  0  0  0  0
   35.5290   20.0380   31.5380 C   0  0  0  0  0  0  0  0  0  0  0  0
   35.2010   19.8320   32.9230 C   0  0  0  0  0  0  0  0  0  0  0  0
   35.8220   20.6460   33.8590 C   0  0  0  0  0  0  0  0  0  0  0  0
   36.7000   21.5910   33.4360 N   0  0  0  0  0  0  0  0  0  0  0  0
   36.9880   21.7610   32.1230 C   0  0  0  0  0  0  0  0  0  0  0  0
   36.4050   20.9900   31.2020 N   0  0  0  0  0  0  0  0  0  0  0  0
   35.0270   19.3840   30.8250 H   0  0  0  0  0  0  0  0  0  0  0  0
   34.4980   19.0670   33.1930 H   0  0  0  0  0  0  0  0  0  0  0  0
   35.4780   20.4170   35.2040 N   0  0  0  0  0  0  0  0  0  0  0  0
   36.1960   20.2000   35.9490 H   0  0  0  0  0  0  0  0  0  0  0  0
   34.4850   20.4530   35.5280 H   0  0  0  0  0  0  0  0  0  0  0  0
   38.0630   27.4710   32.1120 C   0  0  0  0  0  0  0  0  0  0  0  0
   39.1280   27.5500   32.4220 H   0  0  0  0  0  0  0  0  0  0  0  0
   37.8000   28.5050   31.7720 H   0  0  0  0  0  0  0  0  0  0  0  0
   37.2860   27.2280   33.2190 O   0  0  0  0  0  0  0  0  0  0  0  0
   37.9710   27.8220   35.6870 O   0  0  0  0  0  0  0  0  0  0  0  0
   38.2660   26.8880   34.5700 P   0  0  2  0  0  0  0  0  0  0  0  0
   39.8680   27.0370   33.9730 O   0  0  0  0  0  0  0  0  0  0  0  0
   40.0880   26.1860   33.5120 H   0  0  0  0  0  0  0  0  0  0  0  0
   38.0620   25.3320   35.0830 O   0  0  0  0  0  0  0  0  0  0  0  0
   38.5610   24.5480   35.9940 C   0  0  0  0  0  0  0  0  0  0  0  0
   37.7490   24.8000   37.1260 C   0  0  0  0  0  0  0  0  0  0  0  0
   36.8970   25.4570   37.3060 H   0  0  0  0  0  0  0  0  0  0  0  0
   37.9410   24.1510   38.3630 C   0  0  0  0  0  3  0  0  0  0  0  0
   38.9740   23.2360   38.4460 C   0  0  0  0  0  3  0  0  0  0  0  0
   39.8090   22.9330   37.3980 C   0  0  0  0  0  0  0  0  0  0  0  0
   40.8570   22.0400   37.3870 C   0  0  0  0  0  3  0  0  0  0  0  0
   41.6370   21.8070   36.2730 C   0  0  0  0  0  3  0  0  0  0  0  0
   41.3390   22.5190   35.1060 C   0  0  0  0  0  3  0  0  0  0  0  0
   40.2940   23.4050   35.1270 C   0  0  0  0  0  3  0  0  0  0  0  0
   39.5340   23.6180   36.2430 C   0  0  0  0  0  0  0  0  0  0  0  0
  1 10  1  0  0  0  0
  1 25  1  0  0  0  0
  2  1  1  0  0  0  0
  3  1  1  0  0  0  0
  5  4  1  0  0  0  0
  5  6  1  0  0  0  0
  6 18  1  0  0  0  0
  7  6  2  0  0  0  0
  7 11  1  0  0  0  0
  8  7  1  0  0  0  0
  9 10  1  0  0  0  0
  9  8  2  0  0  0  0
 10  5  2  0  0  0  0
 12  8  1  0  0  0  0
 13  9  1  0  0  0  0
 14 15  1  0  0  0  0
 15 21  1  0  0  0  0
 15 16  2  0  0  0  0
 16 22  1  0  0  0  0
 17 16  1  0  0  0  0
 18 17  2  0  0  0  0
 19 14  2  0  0  0  0
 19 18  1  0  0  0  0
 20 14  1  0  0  0  0
 22 24  1  0  0  0  0
 22 23  1  0  0  0  0
 25 26  1  0  0  0  0
 25 28  1  0  0  0  0
 27 25  1  0  0  0  0
 28 30  1  0  0  0  0
 30 33  1  0  0  0  0
 30 29  2  1  0  0  0
 31 30  1  0  0  0  0
 32 31  1  0  0  0  0
 33 34  1  0  0  0  0
 34 44  2  0  0  0  0
 34 35  1  0  0  0  0
 35 36  1  0  0  0  0
 35 37  2  0  0  0  0
 37 38  1  0  0  0  0
 39 38  2  0  0  0  0
 40 39  1  0  0  0  0
 41 40  2  0  0  0  0
 42 43  2  0  0  0  0
 42 41  1  0  0  0  0
 43 44  1  0  0  0  0
 44 39  1  0  0  0  0
M  END
>  <minimizedAffinity>
-6.56583548

$$$$

 OpenBabel03272504403D

 44 47  0  0  0  0  0  0  0  0999 V2000
   35.1500   30.9140   31.8480 C   0  0  0  0  0  0  0  0  0  0  0  0
   34.2220   31.2430   31.3370 H   0  0  0  0  0  0  0  0  0  0  0  0
   35.8920   31.7280   31.5910 H   0  0  0  0  0  0  0  0  0  0  0  0
   32.6160   29.7260   32.7830 Cl  0  0  0  0  0  0  0  0  0  0  0  0
   33.8020   30.4640   33.8620 C   0  0  0  0  0  0  0  0  0  0  0  0
   33.5530   30.5010   35.2010 C   0  0  0  0  0  0  0  0  0  0  0  0
   34.4640   31.0700   36.0480 C   0  0  0  0  0  0  0  0  0  0  0  0
   35.6240   31.5990   35.5190 C   0  0  0  0  0  0  0  0  0  0  0  0
   35.8330   31.5360   34.1380 C   0  0  0  0  0  0  0  0  0  0  0  0
   34.9400   30.9750   33.2750 C   0  0  0  0  0  0  0  0  0  0  0  0
   34.2270   31.0790   37.1120 H   0  0  0  0  0  0  0  0  0  0  0  0
   36.2800   32.0250   36.2670 H   0  0  0  0  0  0  0  0  0  0  0  0
   36.7430   31.9760   33.9350 H   0  0  0  0  0  0  0  0  0  0  0  0
   30.1100   30.0950   36.4630 C   0  0  0  0  0  0  0  0  0  0  0  0
   30.1000   28.6900   36.7750 C   0  0  0  0  0  0  0  0  0  0  0  0
   31.2610   27.9710   36.5370 C   0  0  0  0  0  0  0  0  0  0  0  0
   32.3450   28.6100   36.0270 N   0  0  0  0  0  0  0  0  0  0  0  0
   32.3240   29.9350   35.7440 C   0  0  0  0  0  0  0  0  0  0  0  0
   31.2190   30.6510   35.9630 N   0  0  0  0  0  0  0  0  0  0  0  0
   29.1850   30.6360   36.6590 H   0  0  0  0  0  0  0  0  0  0  0  0
   29.2100   28.2440   37.1750 H   0  0  0  0  0  0  0  0  0  0  0  0
   31.2150   26.6000   36.8530 N   0  0  0  0  0  0  0  0  0  0  0  0
   31.4320   25.8430   36.1480 H   0  0  0  0  0  0  0  0  0  0  0  0
   30.9610   26.2690   37.8110 H   0  0  0  0  0  0  0  0  0  0  0  0
   35.6080   29.6700   31.2490 C   0  0  0  0  0  0  0  0  0  0  0  0
   35.0470   28.7940   31.6420 H   0  0  0  0  0  0  0  0  0  0  0  0
   35.4320   29.6330   30.1440 H   0  0  0  0  0  0  0  0  0  0  0  0
   36.9550   29.4610   31.4250 O   0  0  0  0  0  0  0  0  0  0  0  0
   38.8200   27.7390   30.7380 O   0  0  0  0  0  0  0  0  0  0  0  0
   37.3660   27.8580   31.0210 P   0  0  2  0  0  0  0  0  0  0  0  0
   36.3840   27.5060   29.6590 O   0  0  0  0  0  0  0  0  0  0  0  0
   35.4860   27.2620   30.0020 H   0  0  0  0  0  0  0  0  0  0  0  0
   36.9500   26.8100   32.2270 O   0  0  0  0  0  0  0  0  0  0  0  0
   37.3840   26.4880   33.4110 C   0  0  0  0  0  0  0  0  0  0  0  0
   37.3290   27.7110   34.1250 C   0  0  0  0  0  0  0  0  0  0  0  0
   37.0200   28.7220   33.8570 H   0  0  0  0  0  0  0  0  0  0  0  0
   37.7160   27.8230   35.4760 C   0  0  0  0  0  3  0  0  0  0  0  0
   38.1660   26.6780   36.1050 C   0  0  0  0  0  3  0  0  0  0  0  0
   38.2510   25.4530   35.4870 C   0  0  0  0  0  0  0  0  0  0  0  0
   38.6830   24.2640   36.0310 C   0  0  0  0  0  3  0  0  0  0  0  0
   38.7280   23.0830   35.3200 C   0  0  0  0  0  3  0  0  0  0  0  0
   38.3140   23.1080   33.9840 C   0  0  0  0  0  3  0  0  0  0  0  0
   37.8860   24.2970   33.4520 C   0  0  0  0  0  3  0  0  0  0  0  0
   37.8500   25.4540   34.1770 C   0  0  0  0  0  0  0  0  0  0  0  0
  1 10  1  0  0  0  0
  2  1  1  0  0  0  0
  3  1  1  0  0  0  0
  4  5  1  0  0  0  0
  5  6  1  0  0  0  0
  6 18  1  0  0  0  0
  6  7  2  0  0  0  0
  7 11  1  0  0  0  0
  8  7  1  0  0  0  0
  8 12  1  0  0  0  0
  9  8  2  0  0  0  0
 10  5  2  0  0  0  0
 10  9  1  0  0  0  0
 13  9  1  0  0  0  0
 14 20  1  0  0  0  0
 14 15  1  0  0  0  0
 15 21  1  0  0  0  0
 16 15  2  0  0  0  0
 16 22  1  0  0  0  0
 17 16  1  0  0  0  0
 18 19  1  0  0  0  0
 18 17  2  0  0  0  0
 19 14  2  0  0  0  0
 22 24  1  0  0  0  0
 23 22  1  0  0  0  0
 25 28  1  0  0  0  0
 25 26  1  0  0  0  0
 25  1  1  0  0  0  0
 27 25  1  0  0  0  0
 30 29  2  6  0  0  0
 30 28  1  0  0  0  0
 30 33  1  0  0  0  0
 31 32  1  0  0  0  0
 31 30  1  0  0  0  0
 33 34  1  0  0  0  0
 34 35  2  0  0  0  0
 34 44  1  0  0  0  0
 35 37  1  0  0  0  0
 36 35  1  0  0  0  0
 37 38  2  0  0  0  0
 39 40  1  0  0  0  0
 39 38  1  0  0  0  0
 41 40  2  0  0  0  0
 42 41  1  0  0  0  0
 43 42  2  0  0  0  0
 43 44  1  0  0  0  0
 44 39  2  0  0  0  0
M  END
>  <minimizedAffinity>
-6.51647139

$$$$

 OpenBabel03272504403D

 44 47  0  0  0  0  0  0  0  0999 V2000
   37.1900   27.6460   33.2550 C   0  0  0  0  0  0  0  0  0  0  0  0
   36.9610   27.9970   34.2820 H   0  0  0  0  0  0  0  0  0  0  0  0
   38.1940   28.1180   33.0360 H   0  0  0  0  0  0  0  0  0  0  0  0
   38.9180   26.6920   35.4500 Cl  0  0  0  0  0  0  0  0  0  0  0  0
   38.1830   25.6220   34.2540 C   0  0  0  0  0  0  0  0  0  0  0  0
   38.4140   24.2810   34.3270 C   0  0  0  0  0  0  0  0  0  0  0  0
   37.8510   23.4420   33.4070 C   0  0  0  0  0  0  0  0  0  0  0  0
   37.0540   23.9790   32.4160 C   0  0  0  0  0  0  0  0  0  0  0  0
   36.8470   25.3610   32.3840 C   0  0  0  0  0  0  0  0  0  0  0  0
   37.3980   26.2170   33.2900 C   0  0  0  0  0  0  0  0  0  0  0  0
   38.0610   22.3760   33.5010 H   0  0  0  0  0  0  0  0  0  0  0  0
   36.6550   23.2350   31.7380 H   0  0  0  0  0  0  0  0  0  0  0  0
   36.2320   25.5710   31.5830 H   0  0  0  0  0  0  0  0  0  0  0  0
   41.2940   22.9590   36.2160 C   0  0  0  0  0  0  0  0  0  0  0  0
   40.6820   22.6900   37.4900 C   0  0  0  0  0  0  0  0  0  0  0  0
   39.3320   22.9750   37.6270 C   0  0  0  0  0  0  0  0  0  0  0  0
   38.6520   23.4870   36.5700 N   0  0  0  0  0  0  0  0  0  0  0  0
   39.2560   23.7300   35.3820 C   0  0  0  0  0  0  0  0  0  0  0  0
   40.5550   23.4650   35.2230 N   0  0  0  0  0  0  0  0  0  0  0  0
   42.3560   22.7260   36.1360 H   0  0  0  0  0  0  0  0  0  0  0  0
   41.2760   22.2840   38.2870 H   0  0  0  0  0  0  0  0  0  0  0  0
   38.7660   22.6990   38.8860 N   0  0  0  0  0  0  0  0  0  0  0  0
   38.2650   23.4310   39.4600 H   0  0  0  0  0  0  0  0  0  0  0  0
   38.8190   21.7460   39.3120 H   0  0  0  0  0  0  0  0  0  0  0  0
   36.2120   28.2000   32.3330 C   0  0  0  0  0  0  0  0  0  0  0  0
   36.0950   27.5650   31.4280 H   0  0  0  0  0  0  0  0  0  0  0  0
   35.1820   28.2420   32.7700 H   0  0  0  0  0  0  0  0  0  0  0  0
   36.5130   29.4850   31.9480 O   0  0  0  0  0  0  0  0  0  0  0  0
   34.0800   30.4700   31.7950 O   0  0  0  0  0  0  0  0  0  0  0  0
   35.3530   30.5750   32.5540 P   0  0  2  0  0  0  0  0  0  0  0  0
   36.1040   32.1100   32.4020 O   0  0  0  0  0  0  0  0  0  0  0  0
   36.7110   32.2170   33.1790 H   0  0  0  0  0  0  0  0  0  0  0  0
   35.0640   30.3120   34.1580 O   0  0  0  0  0  0  0  0  0  0  0  0
   34.3430   30.8430   35.1040 C   0  0  0  0  0  0  0  0  0  0  0  0
   33.3240   29.8830   35.3180 C   0  0  0  0  0  0  0  0  0  0  0  0
   33.1000   28.9140   34.8690 H   0  0  0  0  0  0  0  0  0  0  0  0
   32.3040   30.0540   36.2760 C   0  0  0  0  0  3  0  0  0  0  0  0
   32.3230   31.2180   37.0220 C   0  0  0  0  0  3  0  0  0  0  0  0
   33.2730   32.1990   36.8780 C   0  0  0  0  0  0  0  0  0  0  0  0
   33.3730   33.3840   37.5730 C   0  0  0  0  0  3  0  0  0  0  0  0
   34.3740   34.3060   37.3510 C   0  0  0  0  0  3  0  0  0  0  0  0
   35.3270   34.0130   36.3690 C   0  0  0  0  0  3  0  0  0  0  0  0
   35.2190   32.8310   35.6820 C   0  0  0  0  0  3  0  0  0  0  0  0
   34.2180   31.9320   35.9220 C   0  0  0  0  0  0  0  0  0  0  0  0
  1 10  1  0  0  0  0
  1  2  1  0  0  0  0
  3  1  1  0  0  0  0
  5  6  1  0  0  0  0
  5  4  1  0  0  0  0
  6 18  1  0  0  0  0
  7 11  1  0  0  0  0
  7  6  2  0  0  0  0
  8  7  1  0  0  0  0
  9  8  2  0  0  0  0
  9 10  1  0  0  0  0
 10  5  2  0  0  0  0
 12  8  1  0  0  0  0
 13  9  1  0  0  0  0
 14 15  1  0  0  0  0
 15 16  2  0  0  0  0
 15 21  1  0  0  0  0
 16 22  1  0  0  0  0
 17 16  1  0  0  0  0
 18 17  2  0  0  0  0
 19 18  1  0  0  0  0
 19 14  2  0  0  0  0
 20 14  1  0  0  0  0
 22 24  1  0  0  0  0
 22 23  1  0  0  0  0
 25 27  1  0  0  0  0
 25  1  1  0  0  0  0
 26 25  1  0  0  0  0
 28 25  1  0  0  0  0
 28 30  1  0  0  0  0
 30 29  2  6  0  0  0
 30 33  1  0  0  0  0
 31 30  1  0  0  0  0
 31 32  1  0  0  0  0
 33 34  1  0  0  0  0
 34 35  2  0  0  0  0
 34 44  1  0  0  0  0
 35 37  1  0  0  0  0
 36 35  1  0  0  0  0
 37 38  2  0  0  0  0
 39 38  1  0  0  0  0
 39 40  1  0  0  0  0
 41 40  2  0  0  0  0
 42 41  1  0  0  0  0
 43 44  1  0  0  0  0
 43 42  2  0  0  0  0
 44 39  2  0  0  0  0
M  END
>  <minimizedAffinity>
-6.48447037

$$$$

 OpenBabel03272504403D

 44 47  0  0  0  0  0  0  0  0999 V2000
   36.6680   27.4650   32.0840 C   0  0  0  0  0  0  0  0  0  0  0  0
   36.9490   26.6300   31.4110 H   0  0  0  0  0  0  0  0  0  0  0  0
   35.6040   27.2170   32.3770 H   0  0  0  0  0  0  0  0  0  0  0  0
   39.4150   26.4590   31.6880 Cl  0  0  0  0  0  0  0  0  0  0  0  0
   38.7660   26.9240   33.2620 C   0  0  0  0  0  0  0  0  0  0  0  0
   39.5560   26.8190   34.3670 C   0  0  0  0  0  0  0  0  0  0  0  0
   39.0650   27.1760   35.5920 C   0  0  0  0  0  0  0  0  0  0  0  0
   37.7670   27.6380   35.6800 C   0  0  0  0  0  0  0  0  0  0  0  0
   36.9970   27.7280   34.5180 C   0  0  0  0  0  0  0  0  0  0  0  0
   37.4640   27.3780   33.2860 C   0  0  0  0  0  0  0  0  0  0  0  0
   39.7300   27.0760   36.4510 H   0  0  0  0  0  0  0  0  0  0  0  0
   37.4720   27.8950   36.6900 H   0  0  0  0  0  0  0  0  0  0  0  0
   36.0680   28.0900   34.7800 H   0  0  0  0  0  0  0  0  0  0  0  0
   42.5380   24.6470   34.3310 C   0  0  0  0  0  0  0  0  0  0  0  0
   43.5640   25.6000   34.0040 C   0  0  0  0  0  0  0  0  0  0  0  0
   43.1790   26.9190   33.8160 C   0  0  0  0  0  0  0  0  0  0  0  0
   41.8690   27.2530   33.9470 N   0  0  0  0  0  0  0  0  0  0  0  0
   40.9260   26.3310   34.2560 C   0  0  0  0  0  0  0  0  0  0  0  0
   41.2690   25.0540   34.4420 N   0  0  0  0  0  0  0  0  0  0  0  0
   42.8670   23.6180   34.4730 H   0  0  0  0  0  0  0  0  0  0  0  0
   44.5820   25.2720   33.9150 H   0  0  0  0  0  0  0  0  0  0  0  0
   44.2080   27.8250   33.4980 N   0  0  0  0  0  0  0  0  0  0  0  0
   44.1920   28.4280   32.6300 H   0  0  0  0  0  0  0  0  0  0  0  0
   45.0440   27.9410   34.1150 H   0  0  0  0  0  0  0  0  0  0  0  0
   36.6580   28.7060   31.3260 C   0  0  0  0  0  0  0  0  0  0  0  0
   37.3290   29.4690   31.7780 H   0  0  0  0  0  0  0  0  0  0  0  0
   37.0530   28.5790   30.2850 H   0  0  0  0  0  0  0  0  0  0  0  0
   35.3970   29.2350   31.1910 O   0  0  0  0  0  0  0  0  0  0  0  0
   34.0020   31.4200   31.6310 O   0  0  0  0  0  0  0  0  0  0  0  0
   35.3420   30.8110   31.8360 P   0  0  2  0  0  0  0  0  0  0  0  0
   36.5930   31.6440   31.0090 O   0  0  0  0  0  0  0  0  0  0  0  0
   37.4450   31.4150   31.4620 H   0  0  0  0  0  0  0  0  0  0  0  0
   35.7110   30.8140   33.4450 O   0  0  0  0  0  0  0  0  0  0  0  0
   35.1370   31.1590   34.5610 C   0  0  0  0  0  0  0  0  0  0  0  0
   35.9530   32.2130   35.0390 C   0  0  0  0  0  0  0  0  0  0  0  0
   36.8530   32.6960   34.6570 H   0  0  0  0  0  0  0  0  0  0  0  0
   35.6920   32.8930   36.2460 C   0  0  0  0  0  3  0  0  0  0  0  0
   34.5880   32.4920   36.9740 C   0  0  0  0  0  3  0  0  0  0  0  0
   33.7440   31.4800   36.5840 C   0  0  0  0  0  0  0  0  0  0  0  0
   32.6260   31.0160   37.2390 C   0  0  0  0  0  3  0  0  0  0  0  0
   31.8410   29.9890   36.7560 C   0  0  0  0  0  3  0  0  0  0  0  0
   32.2120   29.3980   35.5440 C   0  0  0  0  0  3  0  0  0  0  0  0
   33.3270   29.8670   34.8990 C   0  0  0  0  0  3  0  0  0  0  0  0
   34.0880   30.8880   35.3970 C   0  0  0  0  0  0  0  0  0  0  0  0
  1  3  1  0  0  0  0
  1 10  1  0  0  0  0
  2  1  1  0  0  0  0
  4  5  1  0  0  0  0
  5 10  2  0  0  0  0
  5  6  1  0  0  0  0
  6  7  2  0  0  0  0
  7  8  1  0  0  0  0
  7 11  1  0  0  0  0
  8 12  1  0  0  0  0
  9 13  1  0  0  0  0
  9  8  2  0  0  0  0
 10  9  1  0  0  0  0
 14 19  1  0  0  0  0
 14 20  1  0  0  0  0
 15 14  2  0  0  0  0
 16 17  2  0  0  0  0
 16 15  1  0  0  0  0
 17 18  1  0  0  0  0
 18  6  1  0  0  0  0
 18 19  2  0  0  0  0
 21 15  1  0  0  0  0
 22 16  1  0  0  0  0
 22 24  1  0  0  0  0
 23 22  1  0  0  0  0
 25 26  1  0  0  0  0
 25  1  1  0  0  0  0
 27 25  1  0  0  0  0
 28 25  1  0  0  0  0
 28 30  1  0  0  0  0
 30 29  2  6  0  0  0
 30 33  1  0  0  0  0
 31 32  1  0  0  0  0
 31 30  1  0  0  0  0
 33 34  1  0  0  0  0
 34 35  2  0  0  0  0
 34 44  1  0  0  0  0
 35 37  1  0  0  0  0
 36 35  1  0  0  0  0
 37 38  2  0  0  0  0
 39 38  1  0  0  0  0
 39 40  1  0  0  0  0
 41 40  2  0  0  0  0
 42 41  1  0  0  0  0
 43 44  1  0  0  0  0
 43 42  2  0  0  0  0
 44 39  2  0  0  0  0
M  END
>  <minimizedAffinity>
-6.48324823

$$$$

 OpenBabel03272504403D

 44 47  0  0  0  0  0  0  0  0999 V2000
   38.6880   26.6560   35.8000 C   0  0  0  0  0  0  0  0  0  0  0  0
   39.7960   26.7070   35.7810 H   0  0  0  0  0  0  0  0  0  0  0  0
   38.4040   27.4420   36.5610 H   0  0  0  0  0  0  0  0  0  0  0  0
   40.4990   26.2020   33.5130 Cl  0  0  0  0  0  0  0  0  0  0  0  0
   38.9150   26.9670   33.3640 C   0  0  0  0  0  0  0  0  0  0  0  0
   38.4860   27.3790   32.1380 C   0  0  0  0  0  0  0  0  0  0  0  0
   37.2610   27.9730   32.0090 C   0  0  0  0  0  0  0  0  0  0  0  0
   36.4810   28.1420   33.1360 C   0  0  0  0  0  0  0  0  0  0  0  0
   36.9660   27.7010   34.3710 C   0  0  0  0  0  0  0  0  0  0  0  0
   38.1830   27.1070   34.5240 C   0  0  0  0  0  0  0  0  0  0  0  0
   36.9560   28.2890   31.0110 H   0  0  0  0  0  0  0  0  0  0  0  0
   35.5320   28.6200   32.9310 H   0  0  0  0  0  0  0  0  0  0  0  0
   36.2510   27.9100   35.0840 H   0  0  0  0  0  0  0  0  0  0  0  0
   41.0750   27.7950   29.5430 C   0  0  0  0  0  0  0  0  0  0  0  0
   40.7850   26.6740   28.6890 C   0  0  0  0  0  0  0  0  0  0  0  0
   39.7300   25.8490   29.0480 C   0  0  0  0  0  0  0  0  0  0  0  0
   39.0240   26.1270   30.1740 N   0  0  0  0  0  0  0  0  0  0  0  0
   39.3210   27.1910   30.9580 C   0  0  0  0  0  0  0  0  0  0  0  0
   40.3320   28.0020   30.6350 N   0  0  0  0  0  0  0  0  0  0  0  0
   41.9090   28.4270   29.2380 H   0  0  0  0  0  0  0  0  0  0  0  0
   41.3820   26.5090   27.8120 H   0  0  0  0  0  0  0  0  0  0  0  0
   39.4750   24.7630   28.1900 N   0  0  0  0  0  0  0  0  0  0  0  0
   39.4590   23.7610   28.5250 H   0  0  0  0  0  0  0  0  0  0  0  0
   39.2880   24.9030   27.1720 H   0  0  0  0  0  0  0  0  0  0  0  0
   38.2790   25.3560   36.3070 C   0  0  0  0  0  0  0  0  0  0  0  0
   38.0020   25.4030   37.3830 H   0  0  0  0  0  0  0  0  0  0  0  0
   37.3560   24.9690   35.8050 H   0  0  0  0  0  0  0  0  0  0  0  0
   39.2400   24.3910   36.1290 O   0  0  0  0  0  0  0  0  0  0  0  0
   37.2030   22.8540   36.7630 O   0  0  0  0  0  0  0  0  0  0  0  0
   38.5310   22.8420   36.0960 P   0  0  2  0  0  0  0  0  0  0  0  0
   39.6750   21.8420   36.8920 O   0  0  0  0  0  0  0  0  0  0  0  0
   40.3730   21.6110   36.2270 H   0  0  0  0  0  0  0  0  0  0  0  0
   38.3680   22.2910   34.5490 O   0  0  0  0  0  0  0  0  0  0  0  0
   37.4630   22.3110   33.6130 C   0  0  0  0  0  0  0  0  0  0  0  0
   37.5800   23.6140   33.0710 C   0  0  0  0  0  0  0  0  0  0  0  0
   38.2250   24.4650   33.2970 H   0  0  0  0  0  0  0  0  0  0  0  0
   36.7730   24.0740   32.0100 C   0  0  0  0  0  3  0  0  0  0  0  0
   35.8370   23.1970   31.4980 C   0  0  0  0  0  3  0  0  0  0  0  0
   35.6570   21.9170   31.9650 C   0  0  0  0  0  0  0  0  0  0  0  0
   34.7550   20.9770   31.5190 C   0  0  0  0  0  3  0  0  0  0  0  0
   34.6570   19.7110   32.0590 C   0  0  0  0  0  3  0  0  0  0  0  0
   35.5190   19.3800   33.1100 C   0  0  0  0  0  3  0  0  0  0  0  0
   36.4130   20.3230   33.5470 C   0  0  0  0  0  3  0  0  0  0  0  0
   36.4920   21.5710   32.9950 C   0  0  0  0  0  0  0  0  0  0  0  0
  1 25  1  0  0  0  0
  1  3  1  0  0  0  0
  2  1  1  0  0  0  0
  5  4  1  0  0  0  0
  5 10  1  0  0  0  0
  6  5  2  0  0  0  0
  7  6  1  0  0  0  0
  7  8  2  0  0  0  0
  8  9  1  0  0  0  0
  9 10  2  0  0  0  0
  9 13  1  0  0  0  0
 10  1  1  0  0  0  0
 11  7  1  0  0  0  0
 12  8  1  0  0  0  0
 14 19  1  0  0  0  0
 15 16  1  0  0  0  0
 15 14  2  0  0  0  0
 16 17  2  0  0  0  0
 17 18  1  0  0  0  0
 18  6  1  0  0  0  0
 19 18  2  0  0  0  0
 20 14  1  0  0  0  0
 21 15  1  0  0  0  0
 22 23  1  0  0  0  0
 22 16  1  0  0  0  0
 24 22  1  0  0  0  0
 25 26  1  0  0  0  0
 27 25  1  0  0  0  0
 28 25  1  0  0  0  0
 30 28  1  0  0  0  0
 30 29  2  1  0  0  0
 30 31  1  0  0  0  0
 32 31  1  0  0  0  0
 33 30  1  0  0  0  0
 34 33  1  0  0  0  0
 35 36  1  0  0  0  0
 35 34  1  0  0  0  0
 37 35  2  0  0  0  0
 38 39  2  0  0  0  0
 38 37  1  0  0  0  0
 39 44  1  0  0  0  0
 40 39  1  0  0  0  0
 40 41  2  0  0  0  0
 41 42  1  0  0  0  0
 42 43  2  0  0  0  0
 44 43  1  0  0  0  0
 44 34  2  0  0  0  0
M  END
>  <minimizedAffinity>
-6.44637251

$$$$

 OpenBabel03272504403D

 44 47  0  0  0  0  0  0  0  0999 V2000
   39.5070   26.0350   31.3640 C   0  0  0  0  0  0  0  0  0  0  0  0
   40.2270   26.5130   32.0580 H   0  0  0  0  0  0  0  0  0  0  0  0
   40.1730   25.5620   30.5820 H   0  0  0  0  0  0  0  0  0  0  0  0
   39.9230   25.9900   34.2860 Cl  0  0  0  0  0  0  0  0  0  0  0  0
   38.9450   24.7990   33.4230 C   0  0  0  0  0  0  0  0  0  0  0  0
   38.3440   23.7970   34.1230 C   0  0  0  0  0  0  0  0  0  0  0  0
   37.5840   22.8690   33.4660 C   0  0  0  0  0  0  0  0  0  0  0  0
   37.4440   22.9720   32.0970 C   0  0  0  0  0  0  0  0  0  0  0  0
   38.0810   24.0190   31.4250 C   0  0  0  0  0  0  0  0  0  0  0  0
   38.8430   24.9550   32.0570 C   0  0  0  0  0  0  0  0  0  0  0  0
   37.1200   22.0830   34.0640 H   0  0  0  0  0  0  0  0  0  0  0  0
   36.8250   22.1930   31.6710 H   0  0  0  0  0  0  0  0  0  0  0  0
   37.8610   23.9310   30.4210 H   0  0  0  0  0  0  0  0  0  0  0  0
   37.9700   24.3280   37.7540 C   0  0  0  0  0  0  0  0  0  0  0  0
   38.9340   23.3910   38.2660 C   0  0  0  0  0  0  0  0  0  0  0  0
   39.6500   22.6390   37.3470 C   0  0  0  0  0  0  0  0  0  0  0  0
   39.4160   22.8140   36.0210 N   0  0  0  0  0  0  0  0  0  0  0  0
   38.5000   23.7050   35.5700 C   0  0  0  0  0  0  0  0  0  0  0  0
   37.7970   24.4420   36.4330 N   0  0  0  0  0  0  0  0  0  0  0  0
   37.4220   24.9060   38.4980 H   0  0  0  0  0  0  0  0  0  0  0  0
   39.0720   23.3000   39.3260 H   0  0  0  0  0  0  0  0  0  0  0  0
   40.5840   21.7330   37.8820 N   0  0  0  0  0  0  0  0  0  0  0  0
   40.5670   20.6990   37.6660 H   0  0  0  0  0  0  0  0  0  0  0  0
   41.3450   22.0490   38.5250 H   0  0  0  0  0  0  0  0  0  0  0  0
   38.7060   27.0660   30.7220 C   0  0  0  0  0  0  0  0  0  0  0  0
   39.2730   27.5860   29.9200 H   0  0  0  0  0  0  0  0  0  0  0  0
   37.8090   26.6500   30.1960 H   0  0  0  0  0  0  0  0  0  0  0  0
   38.2260   27.9950   31.6130 O   0  0  0  0  0  0  0  0  0  0  0  0
   36.0850   27.2270   32.9330 O   0  0  0  0  0  0  0  0  0  0  0  0
   36.5260   27.9200   31.6940 P   0  0  2  0  0  0  0  0  0  0  0  0
   36.0770   27.0890   30.2610 O   0  0  0  0  0  0  0  0  0  0  0  0
   36.0810   27.7540   29.5250 H   0  0  0  0  0  0  0  0  0  0  0  0
   35.8560   29.4270   31.6350 O   0  0  0  0  0  0  0  0  0  0  0  0
   36.0510   30.5870   32.1930 C   0  0  0  0  0  0  0  0  0  0  0  0
   36.4950   31.3970   31.1190 C   0  0  0  0  0  0  0  0  0  0  0  0
   36.6660   31.2080   30.0590 H   0  0  0  0  0  0  0  0  0  0  0  0
   36.8280   32.7580   31.2780 C   0  0  0  0  0  3  0  0  0  0  0  0
   36.7080   33.2980   32.5440 C   0  0  0  0  0  3  0  0  0  0  0  0
   36.2860   32.5840   33.6390 C   0  0  0  0  0  0  0  0  0  0  0  0
   36.1350   33.0340   34.9320 C   0  0  0  0  0  3  0  0  0  0  0  0
   35.6990   32.2300   35.9650 C   0  0  0  0  0  3  0  0  0  0  0  0
   35.4010   30.8950   35.6720 C   0  0  0  0  0  3  0  0  0  0  0  0
   35.5550   30.4550   34.3820 C   0  0  0  0  0  3  0  0  0  0  0  0
   35.9870   31.2720   33.3760 C   0  0  0  0  0  0  0  0  0  0  0  0
  1 10  1  0  0  0  0
  1  2  1  0  0  0  0
  3  1  1  0  0  0  0
  5  6  1  0  0  0  0
  5  4  1  0  0  0  0
  6 18  1  0  0  0  0
  7 11  1  0  0  0  0
  7  6  2  0  0  0  0
  8  7  1  0  0  0  0
  9 10  1  0  0  0  0
  9  8  2  0  0  0  0
 10  5  2  0  0  0  0
 12  8  1  0  0  0  0
 13  9  1  0  0  0  0
 14 15  1  0  0  0  0
 14 20  1  0  0  0  0
 15 21  1  0  0  0  0
 16 22  1  0  0  0  0
 16 15  2  0  0  0  0
 17 16  1  0  0  0  0
 18 17  2  0  0  0  0
 18 19  1  0  0  0  0
 19 14  2  0  0  0  0
 22 24  1  0  0  0  0
 23 22  1  0  0  0  0
 25  1  1  0  0  0  0
 25 28  1  0  0  0  0
 26 25  1  0  0  0  0
 27 25  1  0  0  0  0
 28 30  1  0  0  0  0
 30 29  2  1  0  0  0
 31 30  1  0  0  0  0
 32 31  1  0  0  0  0
 33 30  1  0  0  0  0
 33 34  1  0  0  0  0
 34 44  1  0  0  0  0
 35 37  1  0  0  0  0
 35 34  2  0  0  0  0
 36 35  1  0  0  0  0
 37 38  2  0  0  0  0
 38 39  1  0  0  0  0
 39 40  1  0  0  0  0
 40 41  2  0  0  0  0
 42 41  1  0  0  0  0
 43 42  2  0  0  0  0
 44 39  2  0  0  0  0
 44 43  1  0  0  0  0
M  END
>  <minimizedAffinity>
-6.43201351

$$$$

 OpenBabel03272504403D

 44 47  0  0  0  0  0  0  0  0999 V2000
   36.9080   28.8850   30.3780 C   0  0  0  0  0  0  0  0  0  0  0  0
   36.1120   28.1550   30.6290 H   0  0  0  0  0  0  0  0  0  0  0  0
   36.7900   29.0270   29.2630 H   0  0  0  0  0  0  0  0  0  0  0  0
   35.1220   28.7060   32.7210 Cl  0  0  0  0  0  0  0  0  0  0  0  0
   35.7640   30.2290   32.1000 C   0  0  0  0  0  0  0  0  0  0  0  0
   35.4280   31.3960   32.7170 C   0  0  0  0  0  0  0  0  0  0  0  0
   35.9190   32.5820   32.2460 C   0  0  0  0  0  0  0  0  0  0  0  0
   36.7500   32.5670   31.1440 C   0  0  0  0  0  0  0  0  0  0  0  0
   37.0650   31.3440   30.5460 C   0  0  0  0  0  0  0  0  0  0  0  0
   36.5880   30.1500   30.9980 C   0  0  0  0  0  0  0  0  0  0  0  0
   35.6250   33.4930   32.7690 H   0  0  0  0  0  0  0  0  0  0  0  0
   37.0850   33.5530   30.8490 H   0  0  0  0  0  0  0  0  0  0  0  0
   37.6910   31.5330   29.7480 H   0  0  0  0  0  0  0  0  0  0  0  0
   32.4840   31.0800   34.9180 C   0  0  0  0  0  0  0  0  0  0  0  0
   33.0540   31.4470   36.1870 C   0  0  0  0  0  0  0  0  0  0  0  0
   34.4000   31.7770   36.2160 C   0  0  0  0  0  0  0  0  0  0  0  0
   35.1160   31.7430   35.0620 N   0  0  0  0  0  0  0  0  0  0  0  0
   34.5500   31.3930   33.8820 C   0  0  0  0  0  0  0  0  0  0  0  0
   33.2560   31.0700   33.8270 N   0  0  0  0  0  0  0  0  0  0  0  0
   31.4250   30.8250   34.9250 H   0  0  0  0  0  0  0  0  0  0  0  0
   32.4340   31.4540   37.0630 H   0  0  0  0  0  0  0  0  0  0  0  0
   34.9240   32.1310   37.4730 N   0  0  0  0  0  0  0  0  0  0  0  0
   35.7520   31.6390   37.9070 H   0  0  0  0  0  0  0  0  0  0  0  0
   34.5100   32.9060   38.0390 H   0  0  0  0  0  0  0  0  0  0  0  0
   38.2060   28.2790   30.6280 C   0  0  0  0  0  0  0  0  0  0  0  0
   39.0380   28.9810   30.3990 H   0  0  0  0  0  0  0  0  0  0  0  0
   38.3600   28.0180   31.7060 H   0  0  0  0  0  0  0  0  0  0  0  0
   38.3920   27.1130   29.9240 O   0  0  0  0  0  0  0  0  0  0  0  0
   39.8800   25.3990   31.2510 O   0  0  0  0  0  0  0  0  0  0  0  0
   38.4700   25.7840   30.9870 P   0  0  2  0  0  0  0  0  0  0  0  0
   37.5760   24.5570   30.1870 O   0  0  0  0  0  0  0  0  0  0  0  0
   36.6160   24.7310   30.3650 H   0  0  0  0  0  0  0  0  0  0  0  0
   37.7090   26.1120   32.4150 O   0  0  0  0  0  0  0  0  0  0  0  0
   37.9210   25.9140   33.6840 C   0  0  0  0  0  0  0  0  0  0  0  0
   37.9690   27.2250   34.2180 C   0  0  0  0  0  0  0  0  0  0  0  0
   37.8670   28.2170   33.7780 H   0  0  0  0  0  0  0  0  0  0  0  0
   38.1840   27.4830   35.5870 C   0  0  0  0  0  3  0  0  0  0  0  0
   38.3540   26.3930   36.4200 C   0  0  0  0  0  3  0  0  0  0  0  0
   38.3220   25.0900   35.9850 C   0  0  0  0  0  0  0  0  0  0  0  0
   38.4790   23.9470   36.7360 C   0  0  0  0  0  3  0  0  0  0  0  0
   38.4270   22.6780   36.1980 C   0  0  0  0  0  3  0  0  0  0  0  0
   38.2070   22.5600   34.8220 C   0  0  0  0  0  3  0  0  0  0  0  0
   38.0520   23.7040   34.0810 C   0  0  0  0  0  3  0  0  0  0  0  0
   38.1060   24.9510   34.6380 C   0  0  0  0  0  0  0  0  0  0  0  0
  1 25  1  0  0  0  0
  1  2  1  0  0  0  0
  1 10  1  0  0  0  0
  3  1  1  0  0  0  0
  5  6  1  0  0  0  0
  5  4  1  0  0  0  0
  6 18  1  0  0  0  0
  7  6  2  0  0  0  0
  7 11  1  0  0  0  0
  8  7  1  0  0  0  0
  9 10  1  0  0  0  0
  9  8  2  0  0  0  0
 10  5  2  0  0  0  0
 12  8  1  0  0  0  0
 13  9  1  0  0  0  0
 14 20  1  0  0  0  0
 14 15  1  0  0  0  0
 15 16  2  0  0  0  0
 15 21  1  0  0  0  0
 16 22  1  0  0  0  0
 17 16  1  0  0  0  0
 18 17  2  0  0  0  0
 19 18  1  0  0  0  0
 19 14  2  0  0  0  0
 22 23  1  0  0  0  0
 22 24  1  0  0  0  0
 25 27  1  0  0  0  0
 26 25  1  0  0  0  0
 28 25  1  0  0  0  0
 28 30  1  0  0  0  0
 30 29  2  1  0  0  0
 30 33  1  0  0  0  0
 31 32  1  0  0  0  0
 31 30  1  0  0  0  0
 33 34  1  0  0  0  0
 34 35  2  0  0  0  0
 34 44  1  0  0  0  0
 35 37  1  0  0  0  0
 36 35  1  0  0  0  0
 37 38  2  0  0  0  0
 39 38  1  0  0  0  0
 39 40  1  0  0  0  0
 41 40  2  0  0  0  0
 42 41  1  0  0  0  0
 43 44  1  0  0  0  0
 43 42  2  0  0  0  0
 44 39  2  0  0  0  0
M  END
>  <minimizedAffinity>
-6.24934769

$$$$

 OpenBabel03272504403D

 44 47  0  0  0  0  0  0  0  0999 V2000
   39.1750   26.5990   35.1880 C   0  0  0  0  0  0  0  0  0  0  0  0
   40.2100   26.3070   34.9150 H   0  0  0  0  0  0  0  0  0  0  0  0
   39.3250   27.5000   35.8540 H   0  0  0  0  0  0  0  0  0  0  0  0
   40.8250   26.6190   32.7400 Cl  0  0  0  0  0  0  0  0  0  0  0  0
   39.1360   27.1320   32.7810 C   0  0  0  0  0  0  0  0  0  0  0  0
   38.5430   27.5660   31.6340 C   0  0  0  0  0  0  0  0  0  0  0  0
   37.2350   27.9660   31.6520 C   0  0  0  0  0  0  0  0  0  0  0  0
   36.5420   27.9200   32.8440 C   0  0  0  0  0  0  0  0  0  0  0  0
   37.1950   27.4660   33.9940 C   0  0  0  0  0  0  0  0  0  0  0  0
   38.4970   27.0620   34.0010 C   0  0  0  0  0  0  0  0  0  0  0  0
   36.7990   28.3070   30.7120 H   0  0  0  0  0  0  0  0  0  0  0  0
   35.5170   28.2560   32.7560 H   0  0  0  0  0  0  0  0  0  0  0  0
   36.5230   27.5020   34.7750 H   0  0  0  0  0  0  0  0  0  0  0  0
   40.7460   28.6240   28.8690 C   0  0  0  0  0  0  0  0  0  0  0  0
   40.6180   27.5020   27.9770 C   0  0  0  0  0  0  0  0  0  0  0  0
   39.7940   26.4590   28.3700 C   0  0  0  0  0  0  0  0  0  0  0  0
   39.1490   26.5360   29.5630 N   0  0  0  0  0  0  0  0  0  0  0  0
   39.2900   27.6060   30.3820 C   0  0  0  0  0  0  0  0  0  0  0  0
   40.0780   28.6250   30.0280 N   0  0  0  0  0  0  0  0  0  0  0  0
   41.4000   29.4290   28.5360 H   0  0  0  0  0  0  0  0  0  0  0  0
   41.1550   27.5020   27.0480 H   0  0  0  0  0  0  0  0  0  0  0  0
   39.6930   25.3790   27.4740 N   0  0  0  0  0  0  0  0  0  0  0  0
   39.9140   24.3830   27.7500 H   0  0  0  0  0  0  0  0  0  0  0  0
   39.3900   25.5180   26.4830 H   0  0  0  0  0  0  0  0  0  0  0  0
   38.5750   25.5370   35.9810 C   0  0  0  0  0  0  0  0  0  0  0  0
   38.2280   25.9090   36.9700 H   0  0  0  0  0  0  0  0  0  0  0  0
   37.6500   25.1170   35.5090 H   0  0  0  0  0  0  0  0  0  0  0  0
   39.4220   24.4720   36.1700 O   0  0  0  0  0  0  0  0  0  0  0  0
   37.3220   23.6070   37.4950 O   0  0  0  0  0  0  0  0  0  0  0  0
   38.5800   23.1550   36.8470 P   0  0  2  0  0  0  0  0  0  0  0  0
   39.6990   22.4680   37.9520 O   0  0  0  0  0  0  0  0  0  0  0  0
   40.3140   21.8940   37.4260 H   0  0  0  0  0  0  0  0  0  0  0  0
   38.2350   22.0140   35.7040 O   0  0  0  0  0  0  0  0  0  0  0  0
   37.4950   21.9170   34.6370 C   0  0  0  0  0  0  0  0  0  0  0  0
   36.5020   20.9780   35.0100 C   0  0  0  0  0  0  0  0  0  0  0  0
   36.3060   20.4180   35.9250 H   0  0  0  0  0  0  0  0  0  0  0  0
   35.4740   20.5690   34.1370 C   0  0  0  0  0  3  0  0  0  0  0  0
   35.4590   21.1220   32.8710 C   0  0  0  0  0  3  0  0  0  0  0  0
   36.3830   22.0370   32.4280 C   0  0  0  0  0  0  0  0  0  0  0  0
   36.4460   22.6400   31.1910 C   0  0  0  0  0  3  0  0  0  0  0  0
   37.4210   23.5530   30.8470 C   0  0  0  0  0  3  0  0  0  0  0  0
   38.3860   23.8730   31.8080 C   0  0  0  0  0  3  0  0  0  0  0  0
   38.3140   23.2680   33.0370 C   0  0  0  0  0  3  0  0  0  0  0  0
   37.3370   22.3660   33.3550 C   0  0  0  0  0  0  0  0  0  0  0  0
  1  3  1  0  0  0  0
  1 25  1  0  0  0  0
  2  1  1  0  0  0  0
  4  5  1  0  0  0  0
  5 10  1  0  0  0  0
  6  7  1  0  0  0  0
  6  5  2  0  0  0  0
  7  8  2  0  0  0  0
  8  9  1  0  0  0  0
  9 10  2  0  0  0  0
  9 13  1  0  0  0  0
 10  1  1  0  0  0  0
 11  7  1  0  0  0  0
 12  8  1  0  0  0  0
 14 19  1  0  0  0  0
 15 16  1  0  0  0  0
 15 14  2  0  0  0  0
 16 17  2  0  0  0  0
 17 18  1  0  0  0  0
 18  6  1  0  0  0  0
 19 18  2  0  0  0  0
 20 14  1  0  0  0  0
 21 15  1  0  0  0  0
 22 23  1  0  0  0  0
 22 16  1  0  0  0  0
 24 22  1  0  0  0  0
 25 28  1  0  0  0  0
 25 26  1  0  0  0  0
 27 25  1  0  0  0  0
 28 30  1  0  0  0  0
 30 29  2  1  0  0  0
 30 31  1  0  0  0  0
 32 31  1  0  0  0  0
 33 30  1  0  0  0  0
 34 35  1  0  0  0  0
 34 33  1  0  0  0  0
 35 36  1  0  0  0  0
 37 35  2  0  0  0  0
 38 37  1  0  0  0  0
 39 38  2  0  0  0  0
 39 44  1  0  0  0  0
 40 39  1  0  0  0  0
 41 40  2  0  0  0  0
 41 42  1  0  0  0  0
 42 43  2  0  0  0  0
 43 44  1  0  0  0  0
 44 34  2  0  0  0  0
M  END
>  <minimizedAffinity>
-6.22123051

$$$$
