
 OpenBabel03272504573D

 35 38  0  0  1  0  0  0  0  0999 V2000
   37.0250   31.6110   48.6390 C   0  0  1  0  0  0  0  0  0  0  0  0
   36.3980   30.7670   47.6480 C   0  0  0  0  0  0  0  0  0  0  0  0
   37.2920   30.1700   48.6850 C   0  0  2  0  0  0  0  0  0  0  0  0
   36.4690   32.0070   49.5590 H   0  0  0  0  0  0  0  0  0  0  0  0
   35.3480   30.9910   47.6640 H   0  0  0  0  0  0  0  0  0  0  0  0
   36.8120   30.8180   46.6190 H   0  0  0  0  0  0  0  0  0  0  0  0
   38.0770   29.6040   48.2140 H   0  0  0  0  0  0  0  0  0  0  0  0
   38.1830   32.4970   48.2750 C   0  0  0  0  0  0  0  0  0  0  0  0
   38.5600   33.4440   49.2460 C   0  0  0  0  0  0  0  0  0  0  0  0
   39.6240   34.2440   48.9010 C   0  0  0  0  0  0  0  0  0  0  0  0
   40.2300   34.0910   47.7010 N   0  0  0  0  0  0  0  0  0  0  0  0
   39.8380   33.1620   46.7850 C   0  0  0  0  0  0  0  0  0  0  0  0
   38.7790   32.3430   47.0900 N   0  0  0  0  0  0  0  0  0  0  0  0
   40.4610   32.9650   45.5470 N   0  0  0  0  0  0  0  0  0  0  0  0
   38.0940   33.5760   50.1930 H   0  0  0  0  0  0  0  0  0  0  0  0
   39.9930   35.0050   49.5750 H   0  0  0  0  0  0  0  0  0  0  0  0
   40.8830   33.6610   44.8760 H   0  0  0  0  0  0  0  0  0  0  0  0
   40.5530   31.9750   45.1710 H   0  0  0  0  0  0  0  0  0  0  0  0
   36.6440   29.4720   49.7060 O   0  0  0  0  0  0  0  0  0  0  0  0
   34.4570   28.2360   50.2740 O   0  0  0  0  0  0  0  0  0  0  0  0
   35.0330   29.2570   49.3490 P   0  0  1  0  0  0  0  0  0  0  0  0
   34.1690   30.7170   49.7010 O   0  0  0  0  0  0  0  0  0  0  0  0
   33.4630   30.8030   48.9850 H   0  0  0  0  0  0  0  0  0  0  0  0
   34.8600   28.8940   47.7230 O   0  0  0  0  0  0  0  0  0  0  0  0
   34.1900   27.8570   47.1600 C   0  0  0  0  0  0  0  0  0  0  0  0
   33.7610   26.7250   47.8120 C   0  0  0  0  0  0  0  0  0  0  0  0
   33.9710   26.6400   48.8790 H   0  0  0  0  0  0  0  0  0  0  0  0
   33.0890   25.7490   47.1000 C   0  0  0  0  0  3  0  0  0  0  0  0
   32.8360   25.8840   45.7480 C   0  0  0  0  0  3  0  0  0  0  0  0
   33.2610   27.0120   45.0870 C   0  0  0  0  0  0  0  0  0  0  0  0
   33.0120   27.1550   43.7380 C   0  0  0  0  0  3  0  0  0  0  0  0
   33.4250   28.2730   43.0440 C   0  0  0  0  0  3  0  0  0  0  0  0
   34.0990   29.2630   43.7290 C   0  0  0  0  0  3  0  0  0  0  0  0
   34.3490   29.1230   45.0780 C   0  0  0  0  0  3  0  0  0  0  0  0
   33.9380   27.9980   45.7970 C   0  0  0  0  0  0  0  0  0  0  0  0
  1  3  1  0  0  0  0
  1  4  1  1  0  0  0
  2  5  1  0  0  0  0
  2  1  1  0  0  0  0
  2  3  1  0  0  0  0
  3  7  1  6  0  0  0
  3 19  1  0  0  0  0
  6  2  1  0  0  0  0
  8  1  1  0  0  0  0
  8  9  1  0  0  0  0
  9 15  1  0  0  0  0
 10  9  2  0  0  0  0
 10 16  1  0  0  0  0
 11 10  1  0  0  0  0
 12 13  1  0  0  0  0
 12 11  2  0  0  0  0
 13  8  2  0  0  0  0
 14 12  1  0  0  0  0
 17 14  1  0  0  0  0
 18 14  1  0  0  0  0
 21 22  1  0  0  0  0
 21 19  1  0  0  0  0
 21 20  2  1  0  0  0
 23 22  1  0  0  0  0
 24 21  1  0  0  0  0
 25 24  1  0  0  0  0
 25 26  1  0  0  0  0
 26 27  1  0  0  0  0
 28 26  2  0  0  0  0
 29 28  1  0  0  0  0
 30 29  2  0  0  0  0
 30 35  1  0  0  0  0
 31 30  1  0  0  0  0
 32 33  1  0  0  0  0
 32 31  2  0  0  0  0
 33 34  2  0  0  0  0
 34 35  1  0  0  0  0
 35 25  2  0  0  0  0
M  END
>  <minimizedAffinity>
-5.17282295

>  <minimizedRMSD>
2.04314733

$$$$
