
 OpenBabel03272507133D

 42 47  0  0  0  0  0  0  0  0999 V2000
   35.3670   29.1430   50.0210 C   0  0  0  0  0  0  0  0  0  0  0  0
   34.2830   29.6200   50.6950 C   0  0  0  0  0  0  0  0  0  0  0  0
   33.1550   29.0000   50.1440 C   0  0  0  0  0  0  0  0  0  0  0  0
   33.6550   28.1560   49.1340 C   0  0  0  0  0  0  0  0  0  0  0  0
   34.9440   28.2980   49.1280 O   0  0  0  0  0  0  0  0  0  0  0  0
   34.2340   30.3480   51.5180 H   0  0  0  0  0  0  0  0  0  0  0  0
   32.1540   29.1920   50.4880 H   0  0  0  0  0  0  0  0  0  0  0  0
   33.2630   26.3230   47.4980 C   0  0  0  0  0  0  0  0  0  0  0  0
   32.7890   27.3220   48.3100 C   0  0  0  0  0  0  0  0  0  0  0  0
   31.4310   27.5980   48.3910 C   0  0  0  0  0  0  0  0  0  0  0  0
   30.5610   26.8330   47.6270 C   0  0  0  0  0  0  0  0  0  0  0  0
   29.2220   26.8770   47.5100 N   0  0  0  0  0  0  0  0  0  0  0  0
   28.8810   25.9200   46.6420 N   0  0  0  0  0  0  0  0  0  0  0  0
   29.9910   25.2800   46.2150 C   0  0  0  0  0  0  0  0  0  0  0  0
   31.1010   25.8340   46.8230 C   0  0  0  0  0  0  0  0  0  0  0  0
   32.4440   25.5550   46.7370 C   0  0  0  0  0  0  0  0  0  0  0  0
   34.3340   26.1580   47.4800 H   0  0  0  0  0  0  0  0  0  0  0  0
   30.9700   28.3760   49.0120 H   0  0  0  0  0  0  0  0  0  0  0  0
   28.5660   27.5220   47.9940 H   0  0  0  0  0  0  0  0  0  0  0  0
   30.0100   24.4480   45.4960 H   0  0  0  0  0  0  0  0  0  0  0  0
   32.7860   24.7590   46.0860 H   0  0  0  0  0  0  0  0  0  0  0  0
   36.7060   29.5830   50.3430 C   0  0  0  0  0  0  0  0  0  0  0  0
   37.2640   29.1320   51.3830 O   0  0  0  0  0  0  0  0  0  0  0  0
   37.3380   30.5200   49.4520 C   0  0  0  0  0  0  0  0  0  0  0  0
   38.1710   31.4740   49.9870 C   0  0  0  0  0  0  0  0  0  0  0  0
   38.8070   32.3740   49.1540 C   0  0  0  0  0  0  0  0  0  0  0  0
   38.5540   32.2490   47.8090 N   0  0  0  0  0  0  0  0  0  0  0  0
   37.7530   31.3330   47.2890 C   0  0  0  0  0  0  0  0  0  0  0  0
   37.1670   30.4930   48.1440 N   0  0  0  0  0  0  0  0  0  0  0  0
   38.3250   31.5150   51.0490 H   0  0  0  0  0  0  0  0  0  0  0  0
   39.4560   33.1200   49.5440 H   0  0  0  0  0  0  0  0  0  0  0  0
   37.6650   31.4250   45.8440 C   0  0  0  0  0  0  0  0  0  0  0  0
   36.7250   30.7000   45.1440 C   0  0  0  0  0  0  0  0  0  0  0  0
   36.0170   30.0380   45.6250 H   0  0  0  0  0  0  0  0  0  0  0  0
   36.5900   30.7420   43.7790 C   0  0  0  0  0  3  0  0  0  0  0  0
   37.4080   31.5320   43.0090 C   0  0  0  0  0  3  0  0  0  0  0  0
   38.3650   32.2780   43.6560 C   0  0  0  0  0  0  0  0  0  0  0  0
   39.1950   33.0770   42.9010 C   0  0  0  0  0  3  0  0  0  0  0  0
   40.1750   33.8490   43.4870 C   0  0  0  0  0  3  0  0  0  0  0  0
   40.2900   33.7870   44.8750 C   0  0  0  0  0  3  0  0  0  0  0  0
   39.4350   32.9730   45.5810 C   0  0  0  0  0  3  0  0  0  0  0  0
   38.4510   32.1940   45.0230 C   0  0  0  0  0  0  0  0  0  0  0  0
  1 22  1  0  0  0  0
  1  2  2  0  0  0  0
  2  6  1  0  0  0  0
  3  7  1  0  0  0  0
  3  2  1  0  0  0  0
  4  3  2  0  0  0  0
  5  4  1  0  0  0  0
  5  1  1  0  0  0  0
  8  9  1  0  0  0  0
  9 10  2  0  0  0  0
  9  4  1  0  0  0  0
 10 18  1  0  0  0  0
 11 10  1  0  0  0  0
 12 11  1  0  0  0  0
 12 19  1  0  0  0  0
 13 12  1  0  0  0  0
 14 13  2  0  0  0  0
 14 15  1  0  0  0  0
 15 11  2  0  0  0  0
 16 15  1  0  0  0  0
 16  8  2  0  0  0  0
 17  8  1  0  0  0  0
 20 14  1  0  0  0  0
 21 16  1  0  0  0  0
 22 23  2  0  0  0  0
 24 25  1  0  0  0  0
 24 22  1  0  0  0  0
 25 30  1  0  0  0  0
 26 31  1  0  0  0  0
 26 25  2  0  0  0  0
 27 26  1  0  0  0  0
 28 27  2  0  0  0  0
 28 29  1  0  0  0  0
 29 24  2  0  0  0  0
 32 28  1  0  0  0  0
 33 34  1  0  0  0  0
 33 32  1  0  0  0  0
 35 33  2  0  0  0  0
 36 37  2  0  0  0  0
 36 35  1  0  0  0  0
 37 42  1  0  0  0  0
 38 39  2  0  0  0  0
 38 37  1  0  0  0  0
 39 40  1  0  0  0  0
 40 41  2  0  0  0  0
 42 41  1  0  0  0  0
 42 32  2  0  0  0  0
M  END
>  <minimizedAffinity>
-6.97246265

>  <minimizedRMSD>
0.830055714

$$$$
