
 OpenBabel03262521273D

 49 53  0  0  0  0  0  0  0  0999 V2000
   36.2410   28.5660   34.5120 C   0  0  0  0  0  0  0  0  0  0  0  0
   36.7890   27.6630   33.6120 C   0  0  0  0  0  0  0  0  0  0  0  0
   36.7610   28.0530   32.2800 C   0  0  0  0  0  0  0  0  0  0  0  0
   36.2400   29.2300   31.8460 C   0  0  0  0  0  0  0  0  0  0  0  0
   36.0800   29.8460   30.6870 N   0  0  0  0  0  0  0  0  0  0  0  0
   35.4740   31.0600   30.8150 C   0  0  0  0  0  0  0  0  0  0  0  0
   35.2370   31.2110   32.1660 C   0  0  0  0  0  0  0  0  0  0  0  0
   35.7080   30.0860   32.7990 C   0  0  0  0  0  0  0  0  0  0  0  0
   35.6980   29.7750   34.1330 C   0  0  0  0  0  0  0  0  0  0  0  0
   36.2800   28.2290   35.5480 H   0  0  0  0  0  0  0  0  0  0  0  0
   37.1650   27.4190   31.4950 H   0  0  0  0  0  0  0  0  0  0  0  0
   36.3800   29.4650   29.7460 H   0  0  0  0  0  0  0  0  0  0  0  0
   35.2280   31.7610   30.0270 H   0  0  0  0  0  0  0  0  0  0  0  0
   34.7570   32.0860   32.6120 H   0  0  0  0  0  0  0  0  0  0  0  0
   35.1400   30.6720   35.1420 C   0  0  0  0  0  0  0  0  0  0  0  0
   35.9070   31.6670   35.7170 C   0  0  0  0  0  0  0  0  0  0  0  0
   36.9420   31.8080   35.4360 H   0  0  0  0  0  0  0  0  0  0  0  0
   35.2810   32.4750   36.6740 C   0  0  0  0  0  3  0  0  0  0  0  0
   33.9520   32.2730   37.0170 C   0  0  0  0  0  3  0  0  0  0  0  0
   33.2180   31.2670   36.4180 C   0  0  0  0  0  0  0  0  0  0  0  0
   31.8860   31.0980   36.7910 C   0  0  0  0  0  3  0  0  0  0  0  0
   31.1530   30.0900   36.1900 C   0  0  0  0  0  3  0  0  0  0  0  0
   31.7490   29.2810   35.2440 C   0  0  0  0  0  3  0  0  0  0  0  0
   33.0790   29.4290   34.8530 C   0  0  0  0  0  3  0  0  0  0  0  0
   33.7980   30.4470   35.4690 C   0  0  0  0  0  0  0  0  0  0  0  0
   37.5130   26.0900   33.9530 S   0  0  0  0  0  0  0  0  0  0  0  0
   37.7370   25.7470   35.6800 C   0  0  0  0  0  0  0  0  0  0  0  0
   38.0750   26.6970   36.1780 H   0  0  0  0  0  0  0  0  0  0  0  0
   36.7500   25.5300   36.1440 H   0  0  0  0  0  0  0  0  0  0  0  0
   38.7640   24.6720   35.9690 C   0  0  0  0  0  0  0  0  0  0  0  0
   39.6140   25.2230   36.4700 H   0  0  0  0  0  0  0  0  0  0  0  0
   39.2060   24.4000   34.9850 H   0  0  0  0  0  0  0  0  0  0  0  0
   38.2920   23.6430   36.7210 C   0  0  0  0  0  0  0  0  0  0  0  0
   38.7350   23.5220   37.7320 H   0  0  0  0  0  0  0  0  0  0  0  0
   37.1720   23.6540   36.8670 H   0  0  0  0  0  0  0  0  0  0  0  0
   38.6650   22.6160   35.9040 O   0  0  0  0  0  0  0  0  0  0  0  0
   37.6940   21.9690   35.1790 C   0  0  0  0  0  0  0  0  0  0  0  0
   36.6730   21.4890   35.9640 C   0  0  0  0  0  0  0  0  0  0  0  0
   35.6110   20.8060   35.3490 C   0  0  0  0  0  0  0  0  0  0  0  0
   35.6540   20.6570   33.9970 N   0  0  0  0  0  0  0  0  0  0  0  0
   36.6890   21.1490   33.2380 C   0  0  0  0  0  0  0  0  0  0  0  0
   37.6870   21.7960   33.8540 N   0  0  0  0  0  0  0  0  0  0  0  0
   35.5160   20.1890   31.3850 C   0  0  0  0  0  0  0  0  0  0  0  0
   34.6060   19.7150   32.1120 O   0  0  0  0  0  0  0  0  0  0  0  0
   36.6340   20.9390   31.8360 N   0  0  0  0  0  0  0  0  0  0  0  0
   36.5260   21.5410   37.0350 H   0  0  0  0  0  0  0  0  0  0  0  0
   34.7710   20.3950   35.8760 H   0  0  0  0  0  0  0  0  0  0  0  0
   35.3590   19.9590   30.3420 H   0  0  0  0  0  0  0  0  0  0  0  0
   37.3450   21.3000   31.1970 H   0  0  0  0  0  0  0  0  0  0  0  0
  1 10  1  0  0  0  0
  2 26  1  0  0  0  0
  2  1  2  0  0  0  0
  3  2  1  0  0  0  0
  4  3  2  0  0  0  0
  4  8  1  0  0  0  0
  5  6  1  0  0  0  0
  5  4  1  0  0  0  0
  6  7  2  0  0  0  0
  7 14  1  0  0  0  0
  7  8  1  0  0  0  0
  8  9  2  0  0  0  0
  9  1  1  0  0  0  0
  9 15  1  0  0  0  0
 11  3  1  0  0  0  0
 12  5  1  0  0  0  0
 13  6  1  0  0  0  0
 15 25  2  0  0  0  0
 15 16  1  0  0  0  0
 16 18  2  0  0  0  0
 17 16  1  0  0  0  0
 18 19  1  0  0  0  0
 20 21  1  0  0  0  0
 20 19  2  0  0  0  0
 22 21  2  0  0  0  0
 23 22  1  0  0  0  0
 24 23  2  0  0  0  0
 24 25  1  0  0  0  0
 25 20  1  0  0  0  0
 26 27  1  0  0  0  0
 27 30  1  0  0  0  0
 27 29  1  0  0  0  0
 27 28  1  0  0  0  0
 30 31  1  0  0  0  0
 30 33  1  0  0  0  0
 32 30  1  0  0  0  0
 33 35  1  0  0  0  0
 33 34  1  0  0  0  0
 36 33  1  0  0  0  0
 37 36  1  0  0  0  0
 37 38  1  0  0  0  0
 38 46  1  0  0  0  0
 39 47  1  0  0  0  0
 39 38  2  0  0  0  0
 40 39  1  0  0  0  0
 41 42  1  0  0  0  0
 41 40  2  0  0  0  0
 42 37  2  0  0  0  0
 43 45  1  0  0  0  0
 43 44  2  0  0  0  0
 45 41  1  0  0  0  0
 48 43  1  0  0  0  0
 49 45  1  0  0  0  0
M  END
>  <minimizedAffinity>
-7.26309252

$$$$

 OpenBabel03262521273D

 49 53  0  0  0  0  0  0  0  0999 V2000
   36.1930   28.8600   34.3270 C   0  0  0  0  0  0  0  0  0  0  0  0
   36.7830   28.0930   33.3320 C   0  0  0  0  0  0  0  0  0  0  0  0
   36.6280   28.5690   32.0370 C   0  0  0  0  0  0  0  0  0  0  0  0
   35.9520   29.7050   31.7230 C   0  0  0  0  0  0  0  0  0  0  0  0
   35.6530   30.3780   30.6250 N   0  0  0  0  0  0  0  0  0  0  0  0
   34.9230   31.5000   30.8780 C   0  0  0  0  0  0  0  0  0  0  0  0
   34.7540   31.5280   32.2470 C   0  0  0  0  0  0  0  0  0  0  0  0
   35.3880   30.4240   32.7660 C   0  0  0  0  0  0  0  0  0  0  0  0
   35.4950   30.0210   34.0700 C   0  0  0  0  0  0  0  0  0  0  0  0
   36.3340   28.4580   35.3300 H   0  0  0  0  0  0  0  0  0  0  0  0
   37.0520   28.0440   31.1850 H   0  0  0  0  0  0  0  0  0  0  0  0
   35.9350   30.1010   29.6430 H   0  0  0  0  0  0  0  0  0  0  0  0
   34.5520   32.2210   30.1600 H   0  0  0  0  0  0  0  0  0  0  0  0
   34.2070   32.3070   32.7840 H   0  0  0  0  0  0  0  0  0  0  0  0
   34.9030   30.7740   35.1740 C   0  0  0  0  0  0  0  0  0  0  0  0
   35.6290   31.7290   35.8600 C   0  0  0  0  0  0  0  0  0  0  0  0
   36.6570   31.9430   35.5980 H   0  0  0  0  0  0  0  0  0  0  0  0
   34.9730   32.3960   36.9000 C   0  0  0  0  0  3  0  0  0  0  0  0
   33.6540   32.1010   37.2170 C   0  0  0  0  0  3  0  0  0  0  0  0
   32.9610   31.1390   36.5060 C   0  0  0  0  0  0  0  0  0  0  0  0
   31.6390   30.8740   36.8540 C   0  0  0  0  0  3  0  0  0  0  0  0
   30.9460   29.9110   36.1420 C   0  0  0  0  0  3  0  0  0  0  0  0
   31.5730   29.2400   35.1110 C   0  0  0  0  0  3  0  0  0  0  0  0
   32.8940   29.4860   34.7420 C   0  0  0  0  0  3  0  0  0  0  0  0
   33.5720   30.4570   35.4710 C   0  0  0  0  0  0  0  0  0  0  0  0
   37.6990   26.5950   33.5120 S   0  0  0  0  0  0  0  0  0  0  0  0
   39.4540   26.7860   33.3360 C   0  0  0  0  0  0  0  0  0  0  0  0
   39.7790   26.1780   32.4470 H   0  0  0  0  0  0  0  0  0  0  0  0
   39.6840   27.8360   33.0510 H   0  0  0  0  0  0  0  0  0  0  0  0
   40.2510   26.3220   34.5390 C   0  0  0  0  0  0  0  0  0  0  0  0
   39.5020   26.3160   35.3850 H   0  0  0  0  0  0  0  0  0  0  0  0
   40.9110   27.1740   34.8130 H   0  0  0  0  0  0  0  0  0  0  0  0
   40.8600   25.1200   34.3700 C   0  0  0  0  0  0  0  0  0  0  0  0
   40.6000   24.5550   33.4490 H   0  0  0  0  0  0  0  0  0  0  0  0
   41.9890   25.1650   34.4030 H   0  0  0  0  0  0  0  0  0  0  0  0
   40.3670   24.4920   35.4770 O   0  0  0  0  0  0  0  0  0  0  0  0
   39.3380   23.5970   35.3200 C   0  0  0  0  0  0  0  0  0  0  0  0
   39.2720   23.0780   34.0480 C   0  0  0  0  0  0  0  0  0  0  0  0
   38.2640   22.1470   33.7500 C   0  0  0  0  0  0  0  0  0  0  0  0
   37.4020   21.8070   34.7470 N   0  0  0  0  0  0  0  0  0  0  0  0
   37.4940   22.3430   36.0100 C   0  0  0  0  0  0  0  0  0  0  0  0
   38.4660   23.2290   36.2630 N   0  0  0  0  0  0  0  0  0  0  0  0
   35.5650   21.0100   36.4940 C   0  0  0  0  0  0  0  0  0  0  0  0
   35.4830   20.5700   35.3180 O   0  0  0  0  0  0  0  0  0  0  0  0
   36.5440   21.9190   36.9750 N   0  0  0  0  0  0  0  0  0  0  0  0
   39.8880   23.2660   33.1790 H   0  0  0  0  0  0  0  0  0  0  0  0
   38.1310   21.6880   32.7890 H   0  0  0  0  0  0  0  0  0  0  0  0
   34.7860   20.6130   37.1280 H   0  0  0  0  0  0  0  0  0  0  0  0
   36.5620   22.2430   37.9430 H   0  0  0  0  0  0  0  0  0  0  0  0
  1 10  1  0  0  0  0
  2 26  1  0  0  0  0
  2  1  2  0  0  0  0
  3  2  1  0  0  0  0
  4  3  2  0  0  0  0
  4  8  1  0  0  0  0
  5  6  1  0  0  0  0
  5  4  1  0  0  0  0
  6  7  2  0  0  0  0
  7  8  1  0  0  0  0
  7 14  1  0  0  0  0
  8  9  2  0  0  0  0
  9  1  1  0  0  0  0
  9 15  1  0  0  0  0
 11  3  1  0  0  0  0
 12  5  1  0  0  0  0
 13  6  1  0  0  0  0
 15 25  2  0  0  0  0
 15 16  1  0  0  0  0
 16 18  2  0  0  0  0
 17 16  1  0  0  0  0
 18 19  1  0  0  0  0
 20 21  1  0  0  0  0
 20 19  2  0  0  0  0
 22 21  2  0  0  0  0
 23 22  1  0  0  0  0
 24 23  2  0  0  0  0
 24 25  1  0  0  0  0
 25 20  1  0  0  0  0
 27 26  1  0  0  0  0
 27 30  1  0  0  0  0
 28 27  1  0  0  0  0
 29 27  1  0  0  0  0
 30 32  1  0  0  0  0
 30 31  1  0  0  0  0
 33 35  1  0  0  0  0
 33 30  1  0  0  0  0
 33 36  1  0  0  0  0
 34 33  1  0  0  0  0
 37 36  1  0  0  0  0
 37 42  1  0  0  0  0
 38 37  2  0  0  0  0
 39 38  1  0  0  0  0
 39 40  2  0  0  0  0
 40 41  1  0  0  0  0
 41 42  2  0  0  0  0
 41 45  1  0  0  0  0
 43 45  1  0  0  0  0
 43 48  1  0  0  0  0
 44 43  2  0  0  0  0
 45 49  1  0  0  0  0
 46 38  1  0  0  0  0
 47 39  1  0  0  0  0
M  END
>  <minimizedAffinity>
-7.21937513

$$$$

 OpenBabel03262521273D

 49 53  0  0  0  0  0  0  0  0999 V2000
   35.8200   28.6690   33.5260 C   0  0  0  0  0  0  0  0  0  0  0  0
   36.2410   27.9770   32.3990 C   0  0  0  0  0  0  0  0  0  0  0  0
   36.2410   28.7030   31.2160 C   0  0  0  0  0  0  0  0  0  0  0  0
   35.8610   30.0040   31.1250 C   0  0  0  0  0  0  0  0  0  0  0  0
   35.7620   30.9160   30.1730 N   0  0  0  0  0  0  0  0  0  0  0  0
   35.3100   32.1140   30.6370 C   0  0  0  0  0  0  0  0  0  0  0  0
   35.1110   31.9330   31.9910 C   0  0  0  0  0  0  0  0  0  0  0  0
   35.4510   30.6350   32.2890 C   0  0  0  0  0  0  0  0  0  0  0  0
   35.4220   29.9880   33.4970 C   0  0  0  0  0  0  0  0  0  0  0  0
   35.8320   28.0700   34.4360 H   0  0  0  0  0  0  0  0  0  0  0  0
   36.5540   28.2550   30.2760 H   0  0  0  0  0  0  0  0  0  0  0  0
   36.0000   30.7640   29.1530 H   0  0  0  0  0  0  0  0  0  0  0  0
   35.1390   33.0210   30.0690 H   0  0  0  0  0  0  0  0  0  0  0  0
   34.7470   32.7080   32.6690 H   0  0  0  0  0  0  0  0  0  0  0  0
   34.9910   30.6470   34.7280 C   0  0  0  0  0  0  0  0  0  0  0  0
   35.8550   31.4480   35.4510 C   0  0  0  0  0  0  0  0  0  0  0  0
   36.8740   31.6070   35.1240 H   0  0  0  0  0  0  0  0  0  0  0  0
   35.3470   32.0340   36.6160 C   0  0  0  0  0  3  0  0  0  0  0  0
   34.0360   31.8140   37.0130 C   0  0  0  0  0  3  0  0  0  0  0  0
   33.2030   31.0060   36.2610 C   0  0  0  0  0  0  0  0  0  0  0  0
   31.8940   30.8100   36.6940 C   0  0  0  0  0  3  0  0  0  0  0  0
   31.0610   30.0020   35.9410 C   0  0  0  0  0  3  0  0  0  0  0  0
   31.5390   29.4120   34.7880 C   0  0  0  0  0  3  0  0  0  0  0  0
   32.8440   29.5920   34.3320 C   0  0  0  0  0  3  0  0  0  0  0  0
   33.6650   30.4070   35.1040 C   0  0  0  0  0  0  0  0  0  0  0  0
   36.7730   26.2970   32.2890 S   0  0  0  0  0  0  0  0  0  0  0  0
   37.9600   25.9890   31.0070 C   0  0  0  0  0  0  0  0  0  0  0  0
   37.7360   24.9780   30.5660 H   0  0  0  0  0  0  0  0  0  0  0  0
   37.7900   26.6990   30.1680 H   0  0  0  0  0  0  0  0  0  0  0  0
   39.3980   25.9860   31.4830 C   0  0  0  0  0  0  0  0  0  0  0  0
   40.0080   25.9410   30.5340 H   0  0  0  0  0  0  0  0  0  0  0  0
   39.5710   24.9790   31.9240 H   0  0  0  0  0  0  0  0  0  0  0  0
   39.7250   27.0480   32.2650 C   0  0  0  0  0  0  0  0  0  0  0  0
   40.3670   27.8270   31.8030 H   0  0  0  0  0  0  0  0  0  0  0  0
   38.8350   27.5920   32.7010 H   0  0  0  0  0  0  0  0  0  0  0  0
   40.4050   26.3740   33.2380 O   0  0  0  0  0  0  0  0  0  0  0  0
   39.7410   26.0430   34.3930 C   0  0  0  0  0  0  0  0  0  0  0  0
   39.1310   27.1230   34.9870 C   0  0  0  0  0  0  0  0  0  0  0  0
   38.4150   26.9250   36.1780 C   0  0  0  0  0  0  0  0  0  0  0  0
   38.3630   25.6610   36.6820 N   0  0  0  0  0  0  0  0  0  0  0  0
   38.9830   24.6000   36.0650 C   0  0  0  0  0  0  0  0  0  0  0  0
   39.6590   24.8220   34.9300 N   0  0  0  0  0  0  0  0  0  0  0  0
   38.1480   23.3090   37.8990 C   0  0  0  0  0  0  0  0  0  0  0  0
   37.6270   24.3080   38.4610 O   0  0  0  0  0  0  0  0  0  0  0  0
   38.8650   23.3250   36.6740 N   0  0  0  0  0  0  0  0  0  0  0  0
   39.1000   28.1630   34.6900 H   0  0  0  0  0  0  0  0  0  0  0  0
   37.9070   27.7030   36.7150 H   0  0  0  0  0  0  0  0  0  0  0  0
   37.9890   22.4020   38.4630 H   0  0  0  0  0  0  0  0  0  0  0  0
   39.2680   22.4800   36.2650 H   0  0  0  0  0  0  0  0  0  0  0  0
  1 10  1  0  0  0  0
  2  1  2  0  0  0  0
  3  2  1  0  0  0  0
  4  3  2  0  0  0  0
  4  8  1  0  0  0  0
  5  6  1  0  0  0  0
  5  4  1  0  0  0  0
  6  7  2  0  0  0  0
  7  8  1  0  0  0  0
  7 14  1  0  0  0  0
  8  9  2  0  0  0  0
  9  1  1  0  0  0  0
  9 15  1  0  0  0  0
 11  3  1  0  0  0  0
 12  5  1  0  0  0  0
 13  6  1  0  0  0  0
 15 25  2  0  0  0  0
 15 16  1  0  0  0  0
 16 18  2  0  0  0  0
 17 16  1  0  0  0  0
 18 19  1  0  0  0  0
 20 21  1  0  0  0  0
 20 19  2  0  0  0  0
 22 21  2  0  0  0  0
 23 22  1  0  0  0  0
 24 23  2  0  0  0  0
 24 25  1  0  0  0  0
 25 20  1  0  0  0  0
 26  2  1  0  0  0  0
 27 30  1  0  0  0  0
 27 26  1  0  0  0  0
 28 27  1  0  0  0  0
 29 27  1  0  0  0  0
 30 32  1  0  0  0  0
 30 33  1  0  0  0  0
 31 30  1  0  0  0  0
 33 35  1  0  0  0  0
 33 36  1  0  0  0  0
 34 33  1  0  0  0  0
 36 37  1  0  0  0  0
 37 42  2  0  0  0  0
 37 38  1  0  0  0  0
 38 39  2  0  0  0  0
 39 40  1  0  0  0  0
 39 47  1  0  0  0  0
 41 45  1  0  0  0  0
 41 40  2  0  0  0  0
 42 41  1  0  0  0  0
 43 44  2  0  0  0  0
 43 48  1  0  0  0  0
 45 43  1  0  0  0  0
 46 38  1  0  0  0  0
 49 45  1  0  0  0  0
M  END
>  <minimizedAffinity>
-6.96674728

$$$$

 OpenBabel03262521273D

 49 53  0  0  0  0  0  0  0  0999 V2000
   39.0400   22.8920   33.7070 C   0  0  0  0  0  0  0  0  0  0  0  0
   38.1420   21.8350   33.7880 C   0  0  0  0  0  0  0  0  0  0  0  0
   37.4820   21.7030   35.0010 C   0  0  0  0  0  0  0  0  0  0  0  0
   37.6730   22.5280   36.0630 C   0  0  0  0  0  0  0  0  0  0  0  0
   37.2050   22.6410   37.2940 N   0  0  0  0  0  0  0  0  0  0  0  0
   37.7520   23.6890   37.9710 C   0  0  0  0  0  0  0  0  0  0  0  0
   38.6330   24.2770   37.0880 C   0  0  0  0  0  0  0  0  0  0  0  0
   38.5840   23.5630   35.9150 C   0  0  0  0  0  0  0  0  0  0  0  0
   39.2760   23.7620   34.7490 C   0  0  0  0  0  0  0  0  0  0  0  0
   39.5400   22.9670   32.7420 H   0  0  0  0  0  0  0  0  0  0  0  0
   36.7570   20.9100   35.1680 H   0  0  0  0  0  0  0  0  0  0  0  0
   36.4840   22.0040   37.7350 H   0  0  0  0  0  0  0  0  0  0  0  0
   37.5430   24.0000   38.9880 H   0  0  0  0  0  0  0  0  0  0  0  0
   39.2440   25.1540   37.3190 H   0  0  0  0  0  0  0  0  0  0  0  0
   40.2380   24.8510   34.5860 C   0  0  0  0  0  0  0  0  0  0  0  0
   39.8710   26.0480   34.0040 C   0  0  0  0  0  0  0  0  0  0  0  0
   38.8610   26.2120   33.6530 H   0  0  0  0  0  0  0  0  0  0  0  0
   40.8640   27.0280   33.8940 C   0  0  0  0  0  3  0  0  0  0  0  0
   42.1520   26.7930   34.3520 C   0  0  0  0  0  3  0  0  0  0  0  0
   42.4800   25.5800   34.9290 C   0  0  0  0  0  0  0  0  0  0  0  0
   43.7840   25.3840   35.3770 C   0  0  0  0  0  3  0  0  0  0  0  0
   44.1110   24.1710   35.9550 C   0  0  0  0  0  3  0  0  0  0  0  0
   43.1480   23.1890   36.0750 C   0  0  0  0  0  3  0  0  0  0  0  0
   41.8360   23.3590   35.6360 C   0  0  0  0  0  3  0  0  0  0  0  0
   41.5290   24.5860   35.0570 C   0  0  0  0  0  0  0  0  0  0  0  0
   37.7430   20.6510   32.5420 S   0  0  0  0  0  0  0  0  0  0  0  0
   36.0060   20.3310   32.3670 C   0  0  0  0  0  0  0  0  0  0  0  0
   35.8740   19.5990   31.5240 H   0  0  0  0  0  0  0  0  0  0  0  0
   35.6390   19.7860   33.2650 H   0  0  0  0  0  0  0  0  0  0  0  0
   35.1790   21.5620   32.0560 C   0  0  0  0  0  0  0  0  0  0  0  0
   35.0670   22.0840   33.0520 H   0  0  0  0  0  0  0  0  0  0  0  0
   34.1470   21.1950   31.8640 H   0  0  0  0  0  0  0  0  0  0  0  0
   35.7180   22.3650   31.1020 C   0  0  0  0  0  0  0  0  0  0  0  0
   36.8220   22.3300   30.9880 H   0  0  0  0  0  0  0  0  0  0  0  0
   35.2900   22.2070   30.0680 H   0  0  0  0  0  0  0  0  0  0  0  0
   35.3230   23.5680   31.6120 O   0  0  0  0  0  0  0  0  0  0  0  0
   36.0530   24.6870   31.2920 C   0  0  0  0  0  0  0  0  0  0  0  0
   37.3760   24.4080   31.0440 C   0  0  0  0  0  0  0  0  0  0  0  0
   38.2370   25.4640   30.7040 C   0  0  0  0  0  0  0  0  0  0  0  0
   37.7070   26.7160   30.6390 N   0  0  0  0  0  0  0  0  0  0  0  0
   36.3790   26.9640   30.8930 C   0  0  0  0  0  0  0  0  0  0  0  0
   35.5830   25.9350   31.2140 N   0  0  0  0  0  0  0  0  0  0  0  0
   36.9400   29.2550   30.4900 C   0  0  0  0  0  0  0  0  0  0  0  0
   38.1580   29.0020   30.3050 O   0  0  0  0  0  0  0  0  0  0  0  0
   35.9300   28.3060   30.7960 N   0  0  0  0  0  0  0  0  0  0  0  0
   37.9120   23.4680   31.0640 H   0  0  0  0  0  0  0  0  0  0  0  0
   39.2830   25.3470   30.4930 H   0  0  0  0  0  0  0  0  0  0  0  0
   36.7290   30.3100   30.3900 H   0  0  0  0  0  0  0  0  0  0  0  0
   34.9540   28.5710   30.9370 H   0  0  0  0  0  0  0  0  0  0  0  0
  1  2  2  0  0  0  0
  1  9  1  0  0  0  0
  2  3  1  0  0  0  0
  3 11  1  0  0  0  0
  3  4  2  0  0  0  0
  4  5  1  0  0  0  0
  5 12  1  0  0  0  0
  5  6  1  0  0  0  0
  6 13  1  0  0  0  0
  7 14  1  0  0  0  0
  7  6  2  0  0  0  0
  8  4  1  0  0  0  0
  8  7  1  0  0  0  0
  9  8  2  0  0  0  0
 10  1  1  0  0  0  0
 15  9  1  0  0  0  0
 15 25  1  0  0  0  0
 16 15  2  0  0  0  0
 17 16  1  0  0  0  0
 18 16  1  0  0  0  0
 18 19  2  0  0  0  0
 19 20  1  0  0  0  0
 20 25  2  0  0  0  0
 20 21  1  0  0  0  0
 21 22  2  0  0  0  0
 22 23  1  0  0  0  0
 24 23  2  0  0  0  0
 25 24  1  0  0  0  0
 26  2  1  0  0  0  0
 27 26  1  0  0  0  0
 27 29  1  0  0  0  0
 28 27  1  0  0  0  0
 30 27  1  0  0  0  0
 30 31  1  0  0  0  0
 32 30  1  0  0  0  0
 33 36  1  0  0  0  0
 33 30  1  0  0  0  0
 34 33  1  0  0  0  0
 35 33  1  0  0  0  0
 37 36  1  0  0  0  0
 38 46  1  0  0  0  0
 38 37  2  0  0  0  0
 39 38  1  0  0  0  0
 40 39  2  0  0  0  0
 40 41  1  0  0  0  0
 41 42  2  0  0  0  0
 42 37  1  0  0  0  0
 43 45  1  0  0  0  0
 44 43  2  0  0  0  0
 45 41  1  0  0  0  0
 45 49  1  0  0  0  0
 47 39  1  0  0  0  0
 48 43  1  0  0  0  0
M  END
>  <minimizedAffinity>
-6.55831623

$$$$

 OpenBabel03262521273D

 49 53  0  0  0  0  0  0  0  0999 V2000
   38.2560   25.7460   33.3700 C   0  0  0  0  0  0  0  0  0  0  0  0
   37.2820   26.3650   32.5980 C   0  0  0  0  0  0  0  0  0  0  0  0
   36.4030   25.5120   31.9450 C   0  0  0  0  0  0  0  0  0  0  0  0
   36.4590   24.1570   32.0290 C   0  0  0  0  0  0  0  0  0  0  0  0
   35.7840   23.1310   31.5390 N   0  0  0  0  0  0  0  0  0  0  0  0
   36.2760   21.9310   31.9560 C   0  0  0  0  0  0  0  0  0  0  0  0
   37.3450   22.2350   32.7730 C   0  0  0  0  0  0  0  0  0  0  0  0
   37.4570   23.6040   32.8180 C   0  0  0  0  0  0  0  0  0  0  0  0
   38.3630   24.3770   33.4940 C   0  0  0  0  0  0  0  0  0  0  0  0
   38.9280   26.4440   33.8690 H   0  0  0  0  0  0  0  0  0  0  0  0
   35.6040   25.8950   31.3160 H   0  0  0  0  0  0  0  0  0  0  0  0
   34.9490   23.2020   30.8920 H   0  0  0  0  0  0  0  0  0  0  0  0
   35.9080   20.9440   31.7020 H   0  0  0  0  0  0  0  0  0  0  0  0
   37.9670   21.4900   33.2760 H   0  0  0  0  0  0  0  0  0  0  0  0
   39.4170   23.8010   34.3270 C   0  0  0  0  0  0  0  0  0  0  0  0
   40.6270   23.4170   33.7840 C   0  0  0  0  0  0  0  0  0  0  0  0
   40.8270   23.5310   32.7270 H   0  0  0  0  0  0  0  0  0  0  0  0
   41.5720   22.8760   34.6640 C   0  0  0  0  0  3  0  0  0  0  0  0
   41.2910   22.7390   36.0160 C   0  0  0  0  0  3  0  0  0  0  0  0
   40.0660   23.1370   36.5210 C   0  0  0  0  0  0  0  0  0  0  0  0
   39.8240   22.9830   37.8840 C   0  0  0  0  0  3  0  0  0  0  0  0
   38.5990   23.3810   38.3880 C   0  0  0  0  0  3  0  0  0  0  0  0
   37.6520   23.9170   37.5390 C   0  0  0  0  0  3  0  0  0  0  0  0
   37.8680   24.0830   36.1720 C   0  0  0  0  0  3  0  0  0  0  0  0
   39.1060   23.6750   35.6860 C   0  0  0  0  0  0  0  0  0  0  0  0
   37.0290   28.0940   32.3490 S   0  0  0  0  0  0  0  0  0  0  0  0
   36.0040   28.8670   33.5740 C   0  0  0  0  0  0  0  0  0  0  0  0
   35.3270   28.0780   34.0040 H   0  0  0  0  0  0  0  0  0  0  0  0
   36.6330   29.1870   34.4330 H   0  0  0  0  0  0  0  0  0  0  0  0
   35.1380   29.9890   33.0380 C   0  0  0  0  0  0  0  0  0  0  0  0
   34.2220   29.4670   32.6320 H   0  0  0  0  0  0  0  0  0  0  0  0
   35.6400   30.3430   32.1110 H   0  0  0  0  0  0  0  0  0  0  0  0
   34.8330   30.9410   33.9580 C   0  0  0  0  0  0  0  0  0  0  0  0
   35.2390   30.7930   34.9810 H   0  0  0  0  0  0  0  0  0  0  0  0
   35.1250   31.9890   33.6530 H   0  0  0  0  0  0  0  0  0  0  0  0
   33.4760   30.7940   33.9510 O   0  0  0  0  0  0  0  0  0  0  0  0
   32.8760   30.1890   35.0280 C   0  0  0  0  0  0  0  0  0  0  0  0
   32.8930   30.9730   36.1570 C   0  0  0  0  0  0  0  0  0  0  0  0
   32.3110   30.4760   37.3350 C   0  0  0  0  0  0  0  0  0  0  0  0
   31.7570   29.2330   37.2900 N   0  0  0  0  0  0  0  0  0  0  0  0
   31.7550   28.4730   36.1450 C   0  0  0  0  0  0  0  0  0  0  0  0
   32.3190   28.9750   35.0380 N   0  0  0  0  0  0  0  0  0  0  0  0
   30.6530   26.8250   37.4860 C   0  0  0  0  0  0  0  0  0  0  0  0
   30.7080   27.5280   38.5270 O   0  0  0  0  0  0  0  0  0  0  0  0
   31.1500   27.1910   36.2070 N   0  0  0  0  0  0  0  0  0  0  0  0
   33.2980   31.9640   36.3200 H   0  0  0  0  0  0  0  0  0  0  0  0
   32.2750   31.0110   38.2640 H   0  0  0  0  0  0  0  0  0  0  0  0
   30.1710   25.8750   37.6660 H   0  0  0  0  0  0  0  0  0  0  0  0
   31.0780   26.5760   35.3950 H   0  0  0  0  0  0  0  0  0  0  0  0
  1  9  1  0  0  0  0
  1 10  1  0  0  0  0
  2  1  2  0  0  0  0
  3  4  2  0  0  0  0
  3  2  1  0  0  0  0
  4  8  1  0  0  0  0
  5  6  1  0  0  0  0
  5  4  1  0  0  0  0
  6  7  2  0  0  0  0
  7  8  1  0  0  0  0
  7 14  1  0  0  0  0
  8  9  2  0  0  0  0
  9 15  1  0  0  0  0
 11  3  1  0  0  0  0
 12  5  1  0  0  0  0
 13  6  1  0  0  0  0
 15 25  1  0  0  0  0
 16 15  2  0  0  0  0
 16 18  1  0  0  0  0
 17 16  1  0  0  0  0
 18 19  2  0  0  0  0
 19 20  1  0  0  0  0
 20 21  1  0  0  0  0
 21 22  2  0  0  0  0
 23 22  1  0  0  0  0
 24 23  2  0  0  0  0
 25 24  1  0  0  0  0
 25 20  2  0  0  0  0
 26  2  1  0  0  0  0
 26 27  1  0  0  0  0
 27 28  1  0  0  0  0
 27 29  1  0  0  0  0
 30 27  1  0  0  0  0
 30 33  1  0  0  0  0
 31 30  1  0  0  0  0
 32 30  1  0  0  0  0
 33 34  1  0  0  0  0
 35 33  1  0  0  0  0
 36 33  1  0  0  0  0
 36 37  1  0  0  0  0
 37 42  2  0  0  0  0
 37 38  1  0  0  0  0
 38 46  1  0  0  0  0
 38 39  2  0  0  0  0
 39 47  1  0  0  0  0
 40 39  1  0  0  0  0
 41 45  1  0  0  0  0
 41 40  2  0  0  0  0
 42 41  1  0  0  0  0
 43 48  1  0  0  0  0
 43 44  2  0  0  0  0
 45 43  1  0  0  0  0
 49 45  1  0  0  0  0
M  END
>  <minimizedAffinity>
-6.53229618

$$$$

 OpenBabel03262521273D

 49 53  0  0  0  0  0  0  0  0999 V2000
   35.5590   28.6820   33.0900 C   0  0  0  0  0  0  0  0  0  0  0  0
   36.0070   28.0510   31.9380 C   0  0  0  0  0  0  0  0  0  0  0  0
   36.4660   28.8930   30.9340 C   0  0  0  0  0  0  0  0  0  0  0  0
   36.4900   30.2470   31.0330 C   0  0  0  0  0  0  0  0  0  0  0  0
   36.8570   31.2640   30.2720 N   0  0  0  0  0  0  0  0  0  0  0  0
   36.6640   32.4700   30.8760 C   0  0  0  0  0  0  0  0  0  0  0  0
   36.1340   32.1790   32.1160 C   0  0  0  0  0  0  0  0  0  0  0  0
   36.0280   30.8130   32.2120 C   0  0  0  0  0  0  0  0  0  0  0  0
   35.5590   30.0510   33.2500 C   0  0  0  0  0  0  0  0  0  0  0  0
   35.2060   27.9930   33.8570 H   0  0  0  0  0  0  0  0  0  0  0  0
   36.8400   28.5000   29.9920 H   0  0  0  0  0  0  0  0  0  0  0  0
   37.2590   31.1830   29.2960 H   0  0  0  0  0  0  0  0  0  0  0  0
   36.8800   33.4520   30.4720 H   0  0  0  0  0  0  0  0  0  0  0  0
   35.8600   32.9310   32.8600 H   0  0  0  0  0  0  0  0  0  0  0  0
   35.0700   30.6400   34.4950 C   0  0  0  0  0  0  0  0  0  0  0  0
   35.9330   31.2490   35.3850 C   0  0  0  0  0  0  0  0  0  0  0  0
   36.9940   31.3050   35.1840 H   0  0  0  0  0  0  0  0  0  0  0  0
   35.3670   31.7840   36.5480 C   0  0  0  0  0  3  0  0  0  0  0  0
   34.0020   31.6980   36.7820 C   0  0  0  0  0  3  0  0  0  0  0  0
   33.1720   31.0810   35.8660 C   0  0  0  0  0  0  0  0  0  0  0  0
   31.8070   31.0160   36.1380 C   0  0  0  0  0  3  0  0  0  0  0  0
   30.9770   30.3980   35.2200 C   0  0  0  0  0  3  0  0  0  0  0  0
   31.5120   29.8640   34.0650 C   0  0  0  0  0  3  0  0  0  0  0  0
   32.8730   29.9150   33.7680 C   0  0  0  0  0  3  0  0  0  0  0  0
   33.6890   30.5400   34.7040 C   0  0  0  0  0  0  0  0  0  0  0  0
   36.0640   26.3200   31.5980 S   0  0  0  0  0  0  0  0  0  0  0  0
   37.3240   25.4410   32.4860 C   0  0  0  0  0  0  0  0  0  0  0  0
   37.0920   24.3430   32.4170 H   0  0  0  0  0  0  0  0  0  0  0  0
   38.2950   25.5520   31.9550 H   0  0  0  0  0  0  0  0  0  0  0  0
   37.4190   25.8110   33.9530 C   0  0  0  0  0  0  0  0  0  0  0  0
   36.9630   24.9300   34.4940 H   0  0  0  0  0  0  0  0  0  0  0  0
   36.6600   26.6070   34.1160 H   0  0  0  0  0  0  0  0  0  0  0  0
   38.6810   26.0880   34.3740 C   0  0  0  0  0  0  0  0  0  0  0  0
   39.5090   25.7660   33.7080 H   0  0  0  0  0  0  0  0  0  0  0  0
   38.8640   27.1800   34.5980 H   0  0  0  0  0  0  0  0  0  0  0  0
   38.6700   25.3520   35.5240 O   0  0  0  0  0  0  0  0  0  0  0  0
   39.7100   24.4870   35.7580 C   0  0  0  0  0  0  0  0  0  0  0  0
   40.8330   24.7910   35.0240 C   0  0  0  0  0  0  0  0  0  0  0  0
   41.9730   23.9840   35.1680 C   0  0  0  0  0  0  0  0  0  0  0  0
   41.9020   22.9370   36.0360 N   0  0  0  0  0  0  0  0  0  0  0  0
   40.7650   22.6590   36.7560 C   0  0  0  0  0  0  0  0  0  0  0  0
   39.6930   23.4470   36.5970 N   0  0  0  0  0  0  0  0  0  0  0  0
   42.0130   20.8090   37.6220 C   0  0  0  0  0  0  0  0  0  0  0  0
   43.0230   21.0660   36.9180 O   0  0  0  0  0  0  0  0  0  0  0  0
   40.7990   21.5450   37.6330 N   0  0  0  0  0  0  0  0  0  0  0  0
   41.0120   25.5830   34.3100 H   0  0  0  0  0  0  0  0  0  0  0  0
   42.8940   24.1400   34.6400 H   0  0  0  0  0  0  0  0  0  0  0  0
   42.1660   19.9390   38.2430 H   0  0  0  0  0  0  0  0  0  0  0  0
   40.0090   21.2880   38.2280 H   0  0  0  0  0  0  0  0  0  0  0  0
  1  9  1  0  0  0  0
  1 10  1  0  0  0  0
  2  1  2  0  0  0  0
  3  4  2  0  0  0  0
  3  2  1  0  0  0  0
  4  8  1  0  0  0  0
  5  6  1  0  0  0  0
  5  4  1  0  0  0  0
  6  7  2  0  0  0  0
  7  8  1  0  0  0  0
  7 14  1  0  0  0  0
  8  9  2  0  0  0  0
  9 15  1  0  0  0  0
 11  3  1  0  0  0  0
 12  5  1  0  0  0  0
 13  6  1  0  0  0  0
 15 25  2  0  0  0  0
 15 16  1  0  0  0  0
 16 18  2  0  0  0  0
 17 16  1  0  0  0  0
 18 19  1  0  0  0  0
 20 21  1  0  0  0  0
 20 19  2  0  0  0  0
 22 21  2  0  0  0  0
 23 22  1  0  0  0  0
 24 23  2  0  0  0  0
 24 25  1  0  0  0  0
 25 20  1  0  0  0  0
 26  2  1  0  0  0  0
 26 27  1  0  0  0  0
 27 30  1  0  0  0  0
 28 27  1  0  0  0  0
 29 27  1  0  0  0  0
 30 32  1  0  0  0  0
 30 33  1  0  0  0  0
 30 31  1  0  0  0  0
 33 35  1  0  0  0  0
 33 36  1  0  0  0  0
 34 33  1  0  0  0  0
 36 37  1  0  0  0  0
 37 42  1  0  0  0  0
 38 39  1  0  0  0  0
 38 37  2  0  0  0  0
 39 40  2  0  0  0  0
 40 41  1  0  0  0  0
 41 45  1  0  0  0  0
 42 41  2  0  0  0  0
 43 45  1  0  0  0  0
 43 48  1  0  0  0  0
 44 43  2  0  0  0  0
 45 49  1  0  0  0  0
 46 38  1  0  0  0  0
 47 39  1  0  0  0  0
M  END
>  <minimizedAffinity>
-6.49085999

$$$$

 OpenBabel03262521273D

 49 53  0  0  0  0  0  0  0  0999 V2000
   39.0220   27.0010   31.1460 C   0  0  0  0  0  0  0  0  0  0  0  0
   39.6140   25.7470   31.2070 C   0  0  0  0  0  0  0  0  0  0  0  0
   38.7380   24.6690   31.1830 C   0  0  0  0  0  0  0  0  0  0  0  0
   37.3880   24.7920   31.1060 C   0  0  0  0  0  0  0  0  0  0  0  0
   36.3460   23.9790   31.0670 N   0  0  0  0  0  0  0  0  0  0  0  0
   35.1600   24.6460   30.9870 C   0  0  0  0  0  0  0  0  0  0  0  0
   35.4930   25.9850   30.9750 C   0  0  0  0  0  0  0  0  0  0  0  0
   36.8620   26.0740   31.0480 C   0  0  0  0  0  0  0  0  0  0  0  0
   37.6580   27.1880   31.0670 C   0  0  0  0  0  0  0  0  0  0  0  0
   39.7360   27.8230   31.1670 H   0  0  0  0  0  0  0  0  0  0  0  0
   39.0990   23.6450   31.2240 H   0  0  0  0  0  0  0  0  0  0  0  0
   36.3940   22.9220   31.0930 H   0  0  0  0  0  0  0  0  0  0  0  0
   34.1650   24.2200   30.9420 H   0  0  0  0  0  0  0  0  0  0  0  0
   34.7660   26.7990   30.9180 H   0  0  0  0  0  0  0  0  0  0  0  0
   37.1110   28.5430   31.0070 C   0  0  0  0  0  0  0  0  0  0  0  0
   37.1400   29.2740   29.8350 C   0  0  0  0  0  0  0  0  0  0  0  0
   37.5710   28.8640   28.9310 H   0  0  0  0  0  0  0  0  0  0  0  0
   36.5910   30.5600   29.8790 C   0  0  0  0  0  3  0  0  0  0  0  0
   36.0460   31.0630   31.0520 C   0  0  0  0  0  3  0  0  0  0  0  0
   36.0350   30.2990   32.2040 C   0  0  0  0  0  0  0  0  0  0  0  0
   35.4780   30.8400   33.3600 C   0  0  0  0  0  3  0  0  0  0  0  0
   35.4670   30.0750   34.5120 C   0  0  0  0  0  3  0  0  0  0  0  0
   36.0030   28.8030   34.4920 C   0  0  0  0  0  3  0  0  0  0  0  0
   36.5660   28.2370   33.3500 C   0  0  0  0  0  3  0  0  0  0  0  0
   36.5680   29.0240   32.2030 C   0  0  0  0  0  0  0  0  0  0  0  0
   41.3320   25.3600   31.3100 S   0  0  0  0  0  0  0  0  0  0  0  0
   42.4000   26.7760   31.3500 C   0  0  0  0  0  0  0  0  0  0  0  0
   43.4580   26.4140   31.2290 H   0  0  0  0  0  0  0  0  0  0  0  0
   42.2180   27.4000   30.4480 H   0  0  0  0  0  0  0  0  0  0  0  0
   42.3200   27.5750   32.6350 C   0  0  0  0  0  0  0  0  0  0  0  0
   41.3880   28.2020   32.5180 H   0  0  0  0  0  0  0  0  0  0  0  0
   43.1280   28.3370   32.5710 H   0  0  0  0  0  0  0  0  0  0  0  0
   42.3010   26.8130   33.7600 C   0  0  0  0  0  0  0  0  0  0  0  0
   42.2280   25.7140   33.6160 H   0  0  0  0  0  0  0  0  0  0  0  0
   43.1820   26.9820   34.4480 H   0  0  0  0  0  0  0  0  0  0  0  0
   41.1540   27.3060   34.3120 O   0  0  0  0  0  0  0  0  0  0  0  0
   40.2480   26.4210   34.8420 C   0  0  0  0  0  0  0  0  0  0  0  0
   39.2160   27.0440   35.5020 C   0  0  0  0  0  0  0  0  0  0  0  0
   38.2160   26.2540   36.0920 C   0  0  0  0  0  0  0  0  0  0  0  0
   38.3260   24.9020   35.9750 N   0  0  0  0  0  0  0  0  0  0  0  0
   39.3710   24.3080   35.3080 C   0  0  0  0  0  0  0  0  0  0  0  0
   40.3090   25.0880   34.7550 N   0  0  0  0  0  0  0  0  0  0  0  0
   38.3290   22.2460   35.9350 C   0  0  0  0  0  0  0  0  0  0  0  0
   37.4090   22.8200   36.5740 O   0  0  0  0  0  0  0  0  0  0  0  0
   39.3890   22.8910   35.2440 N   0  0  0  0  0  0  0  0  0  0  0  0
   39.0180   28.0960   35.6640 H   0  0  0  0  0  0  0  0  0  0  0  0
   37.3730   26.6470   36.6280 H   0  0  0  0  0  0  0  0  0  0  0  0
   38.2290   21.1710   35.9640 H   0  0  0  0  0  0  0  0  0  0  0  0
   40.1100   22.3710   34.7410 H   0  0  0  0  0  0  0  0  0  0  0  0
  1 10  1  0  0  0  0
  1  2  1  0  0  0  0
  2 26  1  0  0  0  0
  3  2  2  0  0  0  0
  3 11  1  0  0  0  0
  4  3  1  0  0  0  0
  5 12  1  0  0  0  0
  5  4  1  0  0  0  0
  6  5  1  0  0  0  0
  7  6  2  0  0  0  0
  7  8  1  0  0  0  0
  8  9  1  0  0  0  0
  8  4  2  0  0  0  0
  9  1  2  0  0  0  0
 13  6  1  0  0  0  0
 14  7  1  0  0  0  0
 15  9  1  0  0  0  0
 15 25  1  0  0  0  0
 16 18  1  0  0  0  0
 16 15  2  0  0  0  0
 17 16  1  0  0  0  0
 18 19  2  0  0  0  0
 19 20  1  0  0  0  0
 20 21  1  0  0  0  0
 21 22  2  0  0  0  0
 23 22  1  0  0  0  0
 24 23  2  0  0  0  0
 25 20  2  0  0  0  0
 25 24  1  0  0  0  0
 26 27  1  0  0  0  0
 27 30  1  0  0  0  0
 28 27  1  0  0  0  0
 29 27  1  0  0  0  0
 30 33  1  0  0  0  0
 31 30  1  0  0  0  0
 32 30  1  0  0  0  0
 33 36  1  0  0  0  0
 33 35  1  0  0  0  0
 34 33  1  0  0  0  0
 36 37  1  0  0  0  0
 37 38  1  0  0  0  0
 38 46  1  0  0  0  0
 38 39  2  0  0  0  0
 39 47  1  0  0  0  0
 40 39  1  0  0  0  0
 41 40  2  0  0  0  0
 42 37  2  0  0  0  0
 42 41  1  0  0  0  0
 43 48  1  0  0  0  0
 43 44  2  0  0  0  0
 45 41  1  0  0  0  0
 45 43  1  0  0  0  0
 49 45  1  0  0  0  0
M  END
>  <minimizedAffinity>
-6.45558023

$$$$

 OpenBabel03262521273D

 49 53  0  0  0  0  0  0  0  0999 V2000
   39.5320   22.4210   34.1150 C   0  0  0  0  0  0  0  0  0  0  0  0
   38.2970   21.8350   33.8760 C   0  0  0  0  0  0  0  0  0  0  0  0
   37.3970   21.8840   34.9310 C   0  0  0  0  0  0  0  0  0  0  0  0
   37.6680   22.4550   36.1340 C   0  0  0  0  0  0  0  0  0  0  0  0
   37.0340   22.6430   37.2780 N   0  0  0  0  0  0  0  0  0  0  0  0
   37.7930   23.3000   38.1990 C   0  0  0  0  0  0  0  0  0  0  0  0
   39.0000   23.5410   37.5760 C   0  0  0  0  0  0  0  0  0  0  0  0
   38.9220   23.0210   36.3060 C   0  0  0  0  0  0  0  0  0  0  0  0
   39.8660   23.0150   35.3130 C   0  0  0  0  0  0  0  0  0  0  0  0
   40.2140   22.3650   33.2670 H   0  0  0  0  0  0  0  0  0  0  0  0
   36.4010   21.4560   34.8470 H   0  0  0  0  0  0  0  0  0  0  0  0
   36.0440   22.3300   37.4870 H   0  0  0  0  0  0  0  0  0  0  0  0
   37.5130   23.5770   39.2080 H   0  0  0  0  0  0  0  0  0  0  0  0
   39.8420   24.0560   38.0430 H   0  0  0  0  0  0  0  0  0  0  0  0
   41.1900   23.6100   35.4880 C   0  0  0  0  0  0  0  0  0  0  0  0
   42.1620   22.9830   36.2430 C   0  0  0  0  0  0  0  0  0  0  0  0
   41.9690   22.0350   36.7270 H   0  0  0  0  0  0  0  0  0  0  0  0
   43.3970   23.6330   36.3500 C   0  0  0  0  0  3  0  0  0  0  0  0
   43.6190   24.8490   35.7200 C   0  0  0  0  0  3  0  0  0  0  0  0
   42.6200   25.4440   34.9720 C   0  0  0  0  0  0  0  0  0  0  0  0
   42.8840   26.6650   34.3560 C   0  0  0  0  0  3  0  0  0  0  0  0
   41.8840   27.2600   33.6080 C   0  0  0  0  0  3  0  0  0  0  0  0
   40.6580   26.6370   33.4880 C   0  0  0  0  0  3  0  0  0  0  0  0
   40.3670   25.4160   34.0940 C   0  0  0  0  0  3  0  0  0  0  0  0
   41.3860   24.8360   34.8420 C   0  0  0  0  0  0  0  0  0  0  0  0
   37.7360   21.0440   32.4010 S   0  0  0  0  0  0  0  0  0  0  0  0
   36.4830   21.9400   31.5210 C   0  0  0  0  0  0  0  0  0  0  0  0
   36.7380   21.9040   30.4270 H   0  0  0  0  0  0  0  0  0  0  0  0
   35.5170   21.3940   31.5970 H   0  0  0  0  0  0  0  0  0  0  0  0
   36.3620   23.3950   31.9280 C   0  0  0  0  0  0  0  0  0  0  0  0
   36.8280   23.4380   32.9560 H   0  0  0  0  0  0  0  0  0  0  0  0
   35.2840   23.5600   32.1490 H   0  0  0  0  0  0  0  0  0  0  0  0
   36.9360   24.2630   31.0560 C   0  0  0  0  0  0  0  0  0  0  0  0
   37.6650   23.8360   30.3350 H   0  0  0  0  0  0  0  0  0  0  0  0
   36.1980   24.8570   30.4410 H   0  0  0  0  0  0  0  0  0  0  0  0
   37.5660   25.0650   31.9640 O   0  0  0  0  0  0  0  0  0  0  0  0
   37.0970   26.3430   32.1460 C   0  0  0  0  0  0  0  0  0  0  0  0
   37.0230   26.6990   33.4720 C   0  0  0  0  0  0  0  0  0  0  0  0
   36.5590   27.9830   33.8020 C   0  0  0  0  0  0  0  0  0  0  0  0
   36.2070   28.8100   32.7790 N   0  0  0  0  0  0  0  0  0  0  0  0
   36.2930   28.4250   31.4630 C   0  0  0  0  0  0  0  0  0  0  0  0
   36.7390   27.1930   31.1800 N   0  0  0  0  0  0  0  0  0  0  0  0
   35.4110   30.5970   30.9820 C   0  0  0  0  0  0  0  0  0  0  0  0
   35.3050   30.9040   32.1970 O   0  0  0  0  0  0  0  0  0  0  0  0
   35.9000   29.3650   30.4750 N   0  0  0  0  0  0  0  0  0  0  0  0
   37.2690   26.1400   34.3650 H   0  0  0  0  0  0  0  0  0  0  0  0
   36.4660   28.3530   34.8050 H   0  0  0  0  0  0  0  0  0  0  0  0
   35.0790   31.3960   30.3350 H   0  0  0  0  0  0  0  0  0  0  0  0
   35.9630   29.1710   29.4740 H   0  0  0  0  0  0  0  0  0  0  0  0
  1  9  1  0  0  0  0
  2  1  2  0  0  0  0
  2  3  1  0  0  0  0
  3  4  2  0  0  0  0
  4  8  1  0  0  0  0
  4  5  1  0  0  0  0
  5 12  1  0  0  0  0
  5  6  1  0  0  0  0
  6 13  1  0  0  0  0
  7 14  1  0  0  0  0
  7  6  2  0  0  0  0
  8  7  1  0  0  0  0
  9 15  1  0  0  0  0
  9  8  2  0  0  0  0
 10  1  1  0  0  0  0
 11  3  1  0  0  0  0
 15 16  1  0  0  0  0
 16 18  2  0  0  0  0
 16 17  1  0  0  0  0
 19 18  1  0  0  0  0
 20 19  2  0  0  0  0
 21 20  1  0  0  0  0
 22 21  2  0  0  0  0
 23 22  1  0  0  0  0
 23 24  2  0  0  0  0
 24 25  1  0  0  0  0
 25 20  1  0  0  0  0
 25 15  2  0  0  0  0
 26  2  1  0  0  0  0
 27 29  1  0  0  0  0
 27 30  1  0  0  0  0
 27 26  1  0  0  0  0
 28 27  1  0  0  0  0
 30 32  1  0  0  0  0
 30 31  1  0  0  0  0
 33 30  1  0  0  0  0
 33 36  1  0  0  0  0
 34 33  1  0  0  0  0
 35 33  1  0  0  0  0
 36 37  1  0  0  0  0
 37 38  1  0  0  0  0
 38 39  2  0  0  0  0
 38 46  1  0  0  0  0
 39 47  1  0  0  0  0
 40 39  1  0  0  0  0
 41 40  2  0  0  0  0
 42 41  1  0  0  0  0
 42 37  2  0  0  0  0
 43 44  2  0  0  0  0
 45 43  1  0  0  0  0
 45 41  1  0  0  0  0
 48 43  1  0  0  0  0
 49 45  1  0  0  0  0
M  END
>  <minimizedAffinity>
-6.44561291

$$$$

 OpenBabel03262521273D

 49 53  0  0  0  0  0  0  0  0999 V2000
   38.4090   24.6330   32.9470 C   0  0  0  0  0  0  0  0  0  0  0  0
   37.4920   25.1540   32.0450 C   0  0  0  0  0  0  0  0  0  0  0  0
   36.4590   24.3010   31.6800 C   0  0  0  0  0  0  0  0  0  0  0  0
   36.3200   23.0350   32.1520 C   0  0  0  0  0  0  0  0  0  0  0  0
   35.4740   22.0320   31.9900 N   0  0  0  0  0  0  0  0  0  0  0  0
   35.8070   20.9370   32.7280 C   0  0  0  0  0  0  0  0  0  0  0  0
   36.9570   21.2870   33.4050 C   0  0  0  0  0  0  0  0  0  0  0  0
   37.2720   22.5770   33.0500 C   0  0  0  0  0  0  0  0  0  0  0  0
   38.3210   23.3560   33.4600 C   0  0  0  0  0  0  0  0  0  0  0  0
   39.2050   25.3280   33.2120 H   0  0  0  0  0  0  0  0  0  0  0  0
   35.6880   24.6120   30.9800 H   0  0  0  0  0  0  0  0  0  0  0  0
   34.6200   22.0480   31.3630 H   0  0  0  0  0  0  0  0  0  0  0  0
   35.2840   19.9890   32.7760 H   0  0  0  0  0  0  0  0  0  0  0  0
   37.4930   20.6260   34.0920 H   0  0  0  0  0  0  0  0  0  0  0  0
   39.3270   22.8800   34.4070 C   0  0  0  0  0  0  0  0  0  0  0  0
   40.4650   22.2290   33.9740 C   0  0  0  0  0  0  0  0  0  0  0  0
   40.6420   22.0520   32.9210 H   0  0  0  0  0  0  0  0  0  0  0  0
   41.3690   21.8120   34.9580 C   0  0  0  0  0  3  0  0  0  0  0  0
   41.1200   22.0500   36.3020 C   0  0  0  0  0  3  0  0  0  0  0  0
   39.9680   22.7060   36.6950 C   0  0  0  0  0  0  0  0  0  0  0  0
   39.7550   22.9260   38.0540 C   0  0  0  0  0  3  0  0  0  0  0  0
   38.6030   23.5830   38.4470 C   0  0  0  0  0  3  0  0  0  0  0  0
   37.6970   24.0040   37.4940 C   0  0  0  0  0  3  0  0  0  0  0  0
   37.8860   23.7970   36.1280 C   0  0  0  0  0  3  0  0  0  0  0  0
   39.0500   23.1340   35.7550 C   0  0  0  0  0  0  0  0  0  0  0  0
   37.4810   26.7590   31.3100 S   0  0  0  0  0  0  0  0  0  0  0  0
   36.3800   27.9120   32.0900 C   0  0  0  0  0  0  0  0  0  0  0  0
   36.5060   28.9060   31.5800 H   0  0  0  0  0  0  0  0  0  0  0  0
   35.3280   27.6220   31.8720 H   0  0  0  0  0  0  0  0  0  0  0  0
   36.6350   28.1070   33.5700 C   0  0  0  0  0  0  0  0  0  0  0  0
   37.5630   28.7490   33.6130 H   0  0  0  0  0  0  0  0  0  0  0  0
   37.0070   27.1280   33.9460 H   0  0  0  0  0  0  0  0  0  0  0  0
   35.5890   28.6520   34.2450 C   0  0  0  0  0  0  0  0  0  0  0  0
   34.7240   28.9870   33.6360 H   0  0  0  0  0  0  0  0  0  0  0  0
   35.1640   27.9870   35.0540 H   0  0  0  0  0  0  0  0  0  0  0  0
   36.2420   29.7200   34.7890 O   0  0  0  0  0  0  0  0  0  0  0  0
   35.5170   30.8480   35.0890 C   0  0  0  0  0  0  0  0  0  0  0  0
   34.8860   31.3840   33.9920 C   0  0  0  0  0  0  0  0  0  0  0  0
   34.1080   32.5420   34.1590 C   0  0  0  0  0  0  0  0  0  0  0  0
   34.0220   33.0710   35.4110 N   0  0  0  0  0  0  0  0  0  0  0  0
   34.6650   32.5100   36.4890 C   0  0  0  0  0  0  0  0  0  0  0  0
   35.3990   31.4070   36.2970 N   0  0  0  0  0  0  0  0  0  0  0  0
   33.7280   34.3280   37.7320 C   0  0  0  0  0  0  0  0  0  0  0  0
   33.1870   34.8400   36.7180 O   0  0  0  0  0  0  0  0  0  0  0  0
   34.5070   33.1420   37.7490 N   0  0  0  0  0  0  0  0  0  0  0  0
   34.8780   31.0630   32.9590 H   0  0  0  0  0  0  0  0  0  0  0  0
   33.5790   33.0340   33.3650 H   0  0  0  0  0  0  0  0  0  0  0  0
   33.5330   34.9040   38.6260 H   0  0  0  0  0  0  0  0  0  0  0  0
   34.9230   32.7730   38.6060 H   0  0  0  0  0  0  0  0  0  0  0  0
  1 10  1  0  0  0  0
  1  9  1  0  0  0  0
  2  1  2  0  0  0  0
  3  2  1  0  0  0  0
  3  4  2  0  0  0  0
  4  8  1  0  0  0  0
  5  4  1  0  0  0  0
  5  6  1  0  0  0  0
  6 13  1  0  0  0  0
  6  7  2  0  0  0  0
  7 14  1  0  0  0  0
  8  7  1  0  0  0  0
  8  9  2  0  0  0  0
  9 15  1  0  0  0  0
 11  3  1  0  0  0  0
 12  5  1  0  0  0  0
 15 25  1  0  0  0  0
 16 15  2  0  0  0  0
 16 18  1  0  0  0  0
 17 16  1  0  0  0  0
 18 19  2  0  0  0  0
 19 20  1  0  0  0  0
 20 21  1  0  0  0  0
 21 22  2  0  0  0  0
 23 22  1  0  0  0  0
 24 23  2  0  0  0  0
 25 24  1  0  0  0  0
 25 20  2  0  0  0  0
 26  2  1  0  0  0  0
 26 27  1  0  0  0  0
 27 30  1  0  0  0  0
 28 27  1  0  0  0  0
 29 27  1  0  0  0  0
 30 31  1  0  0  0  0
 30 32  1  0  0  0  0
 30 33  1  0  0  0  0
 33 36  1  0  0  0  0
 33 35  1  0  0  0  0
 34 33  1  0  0  0  0
 36 37  1  0  0  0  0
 37 42  1  0  0  0  0
 38 39  1  0  0  0  0
 38 37  2  0  0  0  0
 39 40  2  0  0  0  0
 40 41  1  0  0  0  0
 41 45  1  0  0  0  0
 42 41  2  0  0  0  0
 43 45  1  0  0  0  0
 43 48  1  0  0  0  0
 44 43  2  0  0  0  0
 45 49  1  0  0  0  0
 46 38  1  0  0  0  0
 47 39  1  0  0  0  0
M  END
>  <minimizedAffinity>
-6.37537289

$$$$
