
 OpenBabel03272510083D

 46 51  0  0  0  0  0  0  0  0999 V2000
   35.5540   30.2300   46.9270 C   0  0  0  0  0  0  0  0  0  0  0  0
   35.9050   30.7180   48.1450 N   0  0  0  0  0  0  0  0  0  0  0  0
   37.0830   31.3540   48.2900 C   0  0  0  0  0  0  0  0  0  0  0  0
   37.9810   31.5530   47.2820 N   0  0  0  0  0  0  0  0  0  0  0  0
   37.6630   31.0830   46.0700 C   0  0  0  0  0  0  0  0  0  0  0  0
   38.5020   31.2170   44.9750 C   0  0  0  0  0  0  0  0  0  0  0  0
   38.1450   30.7000   43.7260 C   0  0  0  0  0  0  0  0  0  0  0  0
   36.9190   30.0400   43.5850 C   0  0  0  0  0  0  0  0  0  0  0  0
   36.1070   29.9300   44.7060 C   0  0  0  0  0  0  0  0  0  0  0  0
   36.4640   30.4360   45.9190 C   0  0  0  0  0  0  0  0  0  0  0  0
   37.4120   31.7640   49.2500 H   0  0  0  0  0  0  0  0  0  0  0  0
   39.4310   31.7430   45.1810 H   0  0  0  0  0  0  0  0  0  0  0  0
   38.8850   30.8730   42.9640 H   0  0  0  0  0  0  0  0  0  0  0  0
   36.8480   29.7270   42.5560 H   0  0  0  0  0  0  0  0  0  0  0  0
   33.9830   28.2210   47.1340 C   0  0  0  0  0  0  0  0  0  0  0  0
   34.2900   29.5840   46.8760 C   0  0  0  0  0  0  0  0  0  0  0  0
   33.2390   30.4370   46.5090 C   0  0  0  0  0  0  0  0  0  0  0  0
   31.9730   29.9570   46.4030 N   0  0  0  0  0  0  0  0  0  0  0  0
   31.7410   28.6340   46.6590 C   0  0  0  0  0  0  0  0  0  0  0  0
   32.7200   27.7820   47.0200 N   0  0  0  0  0  0  0  0  0  0  0  0
   30.3830   28.1650   46.5030 N   0  0  0  0  0  0  0  0  0  0  0  0
   29.2720   28.6610   47.2570 C   0  0  0  0  0  0  0  0  0  0  0  0
   28.0770   28.0340   46.6070 C   0  0  0  0  0  0  0  0  0  0  0  0
   28.5460   27.4630   45.2850 C   0  0  0  0  0  0  0  0  0  0  0  0
   29.9670   27.1220   45.5460 C   0  0  0  0  0  0  0  0  0  0  0  0
   34.8430   27.6330   47.4150 H   0  0  0  0  0  0  0  0  0  0  0  0
   33.3080   31.4700   46.2950 H   0  0  0  0  0  0  0  0  0  0  0  0
   29.3580   28.4030   48.3200 H   0  0  0  0  0  0  0  0  0  0  0  0
   29.1590   29.7750   47.1190 H   0  0  0  0  0  0  0  0  0  0  0  0
   27.7700   27.1690   47.2420 H   0  0  0  0  0  0  0  0  0  0  0  0
   27.2210   28.7220   46.4980 H   0  0  0  0  0  0  0  0  0  0  0  0
   28.0000   26.5330   45.0270 H   0  0  0  0  0  0  0  0  0  0  0  0
   28.4590   28.2540   44.5130 H   0  0  0  0  0  0  0  0  0  0  0  0
   30.6310   27.1370   44.6700 H   0  0  0  0  0  0  0  0  0  0  0  0
   30.0260   26.1470   46.0810 H   0  0  0  0  0  0  0  0  0  0  0  0
   34.9440   29.2590   44.1470 C   0  0  0  0  0  0  0  0  0  0  0  0
   34.6000   27.9180   44.1070 C   0  0  0  0  0  0  0  0  0  0  0  0
   35.3490   27.3030   44.6330 H   0  0  0  0  0  0  0  0  0  0  0  0
   33.4840   27.3930   43.5040 C   0  0  0  0  0  3  0  0  0  0  0  0
   32.6370   28.2850   42.8850 C   0  0  0  0  0  3  0  0  0  0  0  0
   32.8440   29.6440   42.8400 C   0  0  0  0  0  0  0  0  0  0  0  0
   32.0070   30.5440   42.2210 C   0  0  0  0  0  3  0  0  0  0  0  0
   32.2730   31.8840   42.2080 C   0  0  0  0  0  3  0  0  0  0  0  0
   33.4000   32.3630   42.8220 C   0  0  0  0  0  3  0  0  0  0  0  0
   34.2250   31.4540   43.4350 C   0  0  0  0  0  3  0  0  0  0  0  0
   33.9920   30.0720   43.4740 C   0  0  0  0  0  0  0  0  0  0  0  0
  1  2  1  0  0  0  0
  2  3  2  0  0  0  0
  3 11  1  0  0  0  0
  4  3  1  0  0  0  0
  5  4  2  0  0  0  0
  6 12  1  0  0  0  0
  6  5  1  0  0  0  0
  7  6  2  0  0  0  0
  8  7  1  0  0  0  0
  8  9  2  0  0  0  0
  9 10  1  0  0  0  0
 10  5  1  0  0  0  0
 10  1  2  0  0  0  0
 13  7  1  0  0  0  0
 14  8  1  0  0  0  0
 15 26  1  0  0  0  0
 16  1  1  0  0  0  0
 16 15  2  0  0  0  0
 17 16  1  0  0  0  0
 18 17  2  0  0  0  0
 18 19  1  0  0  0  0
 19 20  2  0  0  0  0
 20 15  1  0  0  0  0
 21 19  1  0  0  0  0
 21 22  1  0  0  0  0
 22 28  1  0  0  0  0
 23 30  1  0  0  0  0
 23 22  1  0  0  0  0
 24 25  1  0  0  0  0
 24 23  1  0  0  0  0
 25 35  1  0  0  0  0
 25 21  1  0  0  0  0
 27 17  1  0  0  0  0
 29 22  1  0  0  0  0
 31 23  1  0  0  0  0
 32 24  1  0  0  0  0
 33 24  1  0  0  0  0
 34 25  1  0  0  0  0
 36  9  1  0  0  0  0
 37 36  1  0  0  0  0
 37 38  1  0  0  0  0
 39 37  2  0  0  0  0
 40 39  1  0  0  0  0
 41 40  2  0  0  0  0
 41 46  1  0  0  0  0
 42 41  1  0  0  0  0
 43 42  2  0  0  0  0
 43 44  1  0  0  0  0
 44 45  2  0  0  0  0
 45 46  1  0  0  0  0
 46 36  2  0  0  0  0
M  END
>  <minimizedAffinity>
-4.96836376

>  <minimizedRMSD>
3.43290186

$$$$
