
 OpenBabel03272501503D

 22 24  0  0  0  0  0  0  0  0999 V2000
   41.0990   22.9230   36.4220 C   0  0  0  0  0  0  0  0  0  0  0  0
   40.5080   23.8430   35.5610 C   0  0  0  0  0  0  0  0  0  0  0  0
   39.2450   24.3600   35.8600 C   0  0  0  0  0  0  0  0  0  0  0  0
   38.6980   23.8900   37.0210 N   0  0  0  0  0  0  0  0  0  0  0  0
   39.2690   23.0110   37.8430 C   0  0  0  0  0  0  0  0  0  0  0  0
   40.4810   22.5240   37.5370 N   0  0  0  0  0  0  0  0  0  0  0  0
   38.5190   22.6610   38.9980 N   0  0  0  0  0  0  0  0  0  0  0  0
   42.0770   22.5230   36.1890 H   0  0  0  0  0  0  0  0  0  0  0  0
   41.0760   24.1360   34.7350 H   0  0  0  0  0  0  0  0  0  0  0  0
   37.8980   21.8280   38.9330 H   0  0  0  0  0  0  0  0  0  0  0  0
   38.7300   23.3450   39.7660 H   0  0  0  0  0  0  0  0  0  0  0  0
   38.4980   25.3660   35.1460 C   0  0  0  0  0  0  0  0  0  0  0  0
   38.4160   26.6120   35.7930 C   0  0  0  0  0  0  0  0  0  0  0  0
   38.9000   26.7780   36.7630 H   0  0  0  0  0  0  0  0  0  0  0  0
   37.7420   27.7000   35.2860 C   0  0  0  0  0  3  0  0  0  0  0  0
   37.1000   27.6080   34.0830 C   0  0  0  0  0  3  0  0  0  0  0  0
   37.1480   26.4130   33.4150 C   0  0  0  0  0  0  0  0  0  0  0  0
   36.4830   26.2770   32.2160 C   0  0  0  0  0  3  0  0  0  0  0  0
   36.4660   25.0850   31.5120 C   0  0  0  0  0  3  0  0  0  0  0  0
   37.1670   24.0210   32.0930 C   0  0  0  0  0  3  0  0  0  0  0  0
   37.8150   24.1890   33.2800 C   0  0  0  0  0  3  0  0  0  0  0  0
   37.8330   25.3610   33.9660 C   0  0  0  0  0  0  0  0  0  0  0  0
  1  6  1  0  0  0  0
  2  3  1  0  0  0  0
  2  1  2  0  0  0  0
  3  4  2  0  0  0  0
  4  5  1  0  0  0  0
  5  7  1  0  0  0  0
  6  5  2  0  0  0  0
  7 11  1  0  0  0  0
  8  1  1  0  0  0  0
  9  2  1  0  0  0  0
 10  7  1  0  0  0  0
 12 13  1  0  0  0  0
 12  3  1  0  0  0  0
 13 14  1  0  0  0  0
 15 13  2  0  0  0  0
 16 15  1  0  0  0  0
 17 22  1  0  0  0  0
 17 16  2  0  0  0  0
 18 17  1  0  0  0  0
 19 20  1  0  0  0  0
 19 18  2  0  0  0  0
 20 21  2  0  0  0  0
 21 22  1  0  0  0  0
 22 12  2  0  0  0  0
M  END
>  <minimizedAffinity>
-5.61103153

$$$$

 OpenBabel03272501503D

 22 24  0  0  0  0  0  0  0  0999 V2000
   41.3640   22.8490   36.5410 C   0  0  0  0  0  0  0  0  0  0  0  0
   40.7090   23.4070   35.4470 C   0  0  0  0  0  0  0  0  0  0  0  0
   39.3540   23.7330   35.5430 C   0  0  0  0  0  0  0  0  0  0  0  0
   38.7870   23.4600   36.7560 N   0  0  0  0  0  0  0  0  0  0  0  0
   39.4180   22.9260   37.8000 C   0  0  0  0  0  0  0  0  0  0  0  0
   40.7190   22.6180   37.6880 N   0  0  0  0  0  0  0  0  0  0  0  0
   38.6330   22.7270   38.9670 N   0  0  0  0  0  0  0  0  0  0  0  0
   42.4130   22.5960   36.4650 H   0  0  0  0  0  0  0  0  0  0  0  0
   41.2940   23.5970   34.6030 H   0  0  0  0  0  0  0  0  0  0  0  0
   38.1720   21.8010   39.0850 H   0  0  0  0  0  0  0  0  0  0  0  0
   38.6510   23.6020   39.5480 H   0  0  0  0  0  0  0  0  0  0  0  0
   38.5170   24.3800   34.5620 C   0  0  0  0  0  0  0  0  0  0  0  0
   38.2070   23.5940   33.4390 C   0  0  0  0  0  0  0  0  0  0  0  0
   38.5800   22.5660   33.3460 H   0  0  0  0  0  0  0  0  0  0  0  0
   37.4320   24.0260   32.3850 C   0  0  0  0  0  3  0  0  0  0  0  0
   36.9120   25.2910   32.3920 C   0  0  0  0  0  3  0  0  0  0  0  0
   37.1890   26.0970   33.4640 C   0  0  0  0  0  0  0  0  0  0  0  0
   36.7090   27.3880   33.4860 C   0  0  0  0  0  3  0  0  0  0  0  0
   36.9850   28.2620   34.5240 C   0  0  0  0  0  3  0  0  0  0  0  0
   37.7850   27.7530   35.5550 C   0  0  0  0  0  3  0  0  0  0  0  0
   38.2430   26.4710   35.5040 C   0  0  0  0  0  3  0  0  0  0  0  0
   37.9670   25.6160   34.4850 C   0  0  0  0  0  0  0  0  0  0  0  0
  1  6  1  0  0  0  0
  2  3  1  0  0  0  0
  2  1  2  0  0  0  0
  3  4  2  0  0  0  0
  4  5  1  0  0  0  0
  5  7  1  0  0  0  0
  6  5  2  0  0  0  0
  7 10  1  0  0  0  0
  7 11  1  0  0  0  0
  8  1  1  0  0  0  0
  9  2  1  0  0  0  0
 12  3  1  0  0  0  0
 13 12  2  0  0  0  0
 14 13  1  0  0  0  0
 15 16  2  0  0  0  0
 15 13  1  0  0  0  0
 16 17  1  0  0  0  0
 17 18  2  0  0  0  0
 17 22  1  0  0  0  0
 18 19  1  0  0  0  0
 19 20  2  0  0  0  0
 21 20  1  0  0  0  0
 22 12  1  0  0  0  0
 22 21  2  0  0  0  0
M  END
>  <minimizedAffinity>
-5.36080122

$$$$

 OpenBabel03272501503D

 22 24  0  0  0  0  0  0  0  0999 V2000
   36.7970   27.5980   33.0880 C   0  0  0  0  0  0  0  0  0  0  0  0
   36.3210   28.3180   34.1790 C   0  0  0  0  0  0  0  0  0  0  0  0
   35.6890   29.5480   33.9750 C   0  0  0  0  0  0  0  0  0  0  0  0
   35.5970   29.9310   32.6670 N   0  0  0  0  0  0  0  0  0  0  0  0
   36.0530   29.2360   31.6260 C   0  0  0  0  0  0  0  0  0  0  0  0
   36.6590   28.0590   31.8410 N   0  0  0  0  0  0  0  0  0  0  0  0
   35.8490   29.8240   30.3480 N   0  0  0  0  0  0  0  0  0  0  0  0
   37.2870   26.6470   33.2470 H   0  0  0  0  0  0  0  0  0  0  0  0
   36.4290   27.8690   35.1150 H   0  0  0  0  0  0  0  0  0  0  0  0
   36.6100   30.4240   29.9680 H   0  0  0  0  0  0  0  0  0  0  0  0
   34.9080   29.5360   29.9830 H   0  0  0  0  0  0  0  0  0  0  0  0
   35.0670   30.4070   34.9530 C   0  0  0  0  0  0  0  0  0  0  0  0
   35.8970   31.4210   35.4630 C   0  0  0  0  0  0  0  0  0  0  0  0
   36.9330   31.5300   35.1190 H   0  0  0  0  0  0  0  0  0  0  0  0
   35.5010   32.3380   36.4100 C   0  0  0  0  0  3  0  0  0  0  0  0
   34.2300   32.2970   36.9120 C   0  0  0  0  0  3  0  0  0  0  0  0
   33.3830   31.3250   36.4490 C   0  0  0  0  0  0  0  0  0  0  0  0
   32.1070   31.2350   36.9590 C   0  0  0  0  0  3  0  0  0  0  0  0
   31.2170   30.2530   36.5570 C   0  0  0  0  0  3  0  0  0  0  0  0
   31.6950   29.3520   35.5960 C   0  0  0  0  0  3  0  0  0  0  0  0
   32.9620   29.4690   35.1110 C   0  0  0  0  0  3  0  0  0  0  0  0
   33.8310   30.4360   35.5060 C   0  0  0  0  0  0  0  0  0  0  0  0
  1  8  1  0  0  0  0
  1  2  1  0  0  0  0
  2  9  1  0  0  0  0
  3  2  2  0  0  0  0
  3 12  1  0  0  0  0
  4  3  1  0  0  0  0
  5  6  1  0  0  0  0
  5  4  2  0  0  0  0
  6  1  2  0  0  0  0
  7  5  1  0  0  0  0
 10  7  1  0  0  0  0
 11  7  1  0  0  0  0
 12 13  2  0  0  0  0
 12 22  1  0  0  0  0
 13 15  1  0  0  0  0
 14 13  1  0  0  0  0
 15 16  2  0  0  0  0
 17 16  1  0  0  0  0
 17 18  1  0  0  0  0
 19 18  2  0  0  0  0
 20 19  1  0  0  0  0
 21 22  1  0  0  0  0
 21 20  2  0  0  0  0
 22 17  2  0  0  0  0
M  END
>  <minimizedAffinity>
-5.35003138

$$$$

 OpenBabel03272501503D

 22 24  0  0  0  0  0  0  0  0999 V2000
   38.9870   27.1370   33.1440 C   0  0  0  0  0  0  0  0  0  0  0  0
   39.2960   26.5370   34.3610 C   0  0  0  0  0  0  0  0  0  0  0  0
   38.6430   25.3630   34.7410 C   0  0  0  0  0  0  0  0  0  0  0  0
   37.7280   24.9020   33.8360 N   0  0  0  0  0  0  0  0  0  0  0  0
   37.4370   25.4780   32.6720 C   0  0  0  0  0  0  0  0  0  0  0  0
   38.0730   26.6070   32.3250 N   0  0  0  0  0  0  0  0  0  0  0  0
   36.4500   24.8260   31.8840 N   0  0  0  0  0  0  0  0  0  0  0  0
   39.4930   28.0470   32.8510 H   0  0  0  0  0  0  0  0  0  0  0  0
   40.0530   26.9890   34.9220 H   0  0  0  0  0  0  0  0  0  0  0  0
   35.4620   25.1300   32.0020 H   0  0  0  0  0  0  0  0  0  0  0  0
   36.9150   24.1030   31.2800 H   0  0  0  0  0  0  0  0  0  0  0  0
   38.8670   24.5530   35.9140 C   0  0  0  0  0  0  0  0  0  0  0  0
   37.9950   24.8110   36.9860 C   0  0  0  0  0  0  0  0  0  0  0  0
   37.2080   25.5710   36.9050 H   0  0  0  0  0  0  0  0  0  0  0  0
   38.0460   24.1560   38.1960 C   0  0  0  0  0  3  0  0  0  0  0  0
   38.9880   23.1880   38.4110 C   0  0  0  0  0  3  0  0  0  0  0  0
   39.8630   22.9030   37.3970 C   0  0  0  0  0  0  0  0  0  0  0  0
   40.8450   21.9560   37.5920 C   0  0  0  0  0  3  0  0  0  0  0  0
   41.7810   21.6500   36.6190 C   0  0  0  0  0  3  0  0  0  0  0  0
   41.6690   22.3620   35.4180 C   0  0  0  0  0  3  0  0  0  0  0  0
   40.6850   23.2900   35.2560 C   0  0  0  0  0  3  0  0  0  0  0  0
   39.7680   23.5860   36.2130 C   0  0  0  0  0  0  0  0  0  0  0  0
  1  2  1  0  0  0  0
  2  3  2  0  0  0  0
  2  9  1  0  0  0  0
  3 12  1  0  0  0  0
  4  3  1  0  0  0  0
  5  4  2  0  0  0  0
  6  5  1  0  0  0  0
  6  1  2  0  0  0  0
  7 10  1  0  0  0  0
  7  5  1  0  0  0  0
  8  1  1  0  0  0  0
 11  7  1  0  0  0  0
 12 22  2  0  0  0  0
 12 13  1  0  0  0  0
 13 15  2  0  0  0  0
 14 13  1  0  0  0  0
 15 16  1  0  0  0  0
 17 18  1  0  0  0  0
 17 16  2  0  0  0  0
 19 18  2  0  0  0  0
 20 19  1  0  0  0  0
 21 20  2  0  0  0  0
 21 22  1  0  0  0  0
 22 17  1  0  0  0  0
M  END
>  <minimizedAffinity>
-5.34661865

$$$$

 OpenBabel03272501503D

 22 24  0  0  0  0  0  0  0  0999 V2000
   36.7440   27.8120   33.6360 C   0  0  0  0  0  0  0  0  0  0  0  0
   37.5700   27.0200   34.4270 C   0  0  0  0  0  0  0  0  0  0  0  0
   37.9050   25.7310   34.0050 C   0  0  0  0  0  0  0  0  0  0  0  0
   37.3660   25.3670   32.8030 N   0  0  0  0  0  0  0  0  0  0  0  0
   36.5770   26.1300   32.0490 C   0  0  0  0  0  0  0  0  0  0  0  0
   36.2640   27.3640   32.4720 N   0  0  0  0  0  0  0  0  0  0  0  0
   36.1270   25.5490   30.8320 N   0  0  0  0  0  0  0  0  0  0  0  0
   36.4840   28.8100   33.9640 H   0  0  0  0  0  0  0  0  0  0  0  0
   37.9380   27.4590   35.2990 H   0  0  0  0  0  0  0  0  0  0  0  0
   35.2150   25.0470   30.8480 H   0  0  0  0  0  0  0  0  0  0  0  0
   36.8360   25.7350   30.0800 H   0  0  0  0  0  0  0  0  0  0  0  0
   38.7960   24.7860   34.6340 C   0  0  0  0  0  0  0  0  0  0  0  0
   39.7840   24.2520   33.7890 C   0  0  0  0  0  0  0  0  0  0  0  0
   39.8540   24.5560   32.7370 H   0  0  0  0  0  0  0  0  0  0  0  0
   40.7250   23.3300   34.1890 C   0  0  0  0  0  3  0  0  0  0  0  0
   40.7340   22.8780   35.4800 C   0  0  0  0  0  3  0  0  0  0  0  0
   39.7880   23.3660   36.3410 C   0  0  0  0  0  0  0  0  0  0  0  0
   39.7480   22.9060   37.6390 C   0  0  0  0  0  3  0  0  0  0  0  0
   38.7940   23.3350   38.5470 C   0  0  0  0  0  3  0  0  0  0  0  0
   37.8670   24.2680   38.0640 C   0  0  0  0  0  3  0  0  0  0  0  0
   37.9350   24.7030   36.7750 C   0  0  0  0  0  3  0  0  0  0  0  0
   38.8740   24.2820   35.8890 C   0  0  0  0  0  0  0  0  0  0  0  0
  1  8  1  0  0  0  0
  1  2  1  0  0  0  0
  2  9  1  0  0  0  0
  3  2  2  0  0  0  0
  3 12  1  0  0  0  0
  4  3  1  0  0  0  0
  5  6  1  0  0  0  0
  5  4  2  0  0  0  0
  6  1  2  0  0  0  0
  7 10  1  0  0  0  0
  7  5  1  0  0  0  0
 11  7  1  0  0  0  0
 12 22  1  0  0  0  0
 13 15  1  0  0  0  0
 13 12  2  0  0  0  0
 14 13  1  0  0  0  0
 15 16  2  0  0  0  0
 16 17  1  0  0  0  0
 17 18  1  0  0  0  0
 18 19  2  0  0  0  0
 20 19  1  0  0  0  0
 21 20  2  0  0  0  0
 22 17  2  0  0  0  0
 22 21  1  0  0  0  0
M  END
>  <minimizedAffinity>
-5.30010843

$$$$

 OpenBabel03272501503D

 22 24  0  0  0  0  0  0  0  0999 V2000
   38.0360   24.2350   38.2190 C   0  0  0  0  0  0  0  0  0  0  0  0
   38.0040   24.7740   36.9360 C   0  0  0  0  0  0  0  0  0  0  0  0
   38.8720   24.2840   35.9570 C   0  0  0  0  0  0  0  0  0  0  0  0
   39.6980   23.2810   36.3790 N   0  0  0  0  0  0  0  0  0  0  0  0
   39.7240   22.7680   37.6080 C   0  0  0  0  0  0  0  0  0  0  0  0
   38.8840   23.2520   38.5350 N   0  0  0  0  0  0  0  0  0  0  0  0
   40.6650   21.7260   37.8280 N   0  0  0  0  0  0  0  0  0  0  0  0
   37.3640   24.6160   38.9760 H   0  0  0  0  0  0  0  0  0  0  0  0
   37.2830   25.5080   36.7590 H   0  0  0  0  0  0  0  0  0  0  0  0
   41.6050   21.9960   38.1860 H   0  0  0  0  0  0  0  0  0  0  0  0
   40.2260   20.8060   37.5760 H   0  0  0  0  0  0  0  0  0  0  0  0
   38.9480   24.6500   34.5630 C   0  0  0  0  0  0  0  0  0  0  0  0
   38.0940   23.9250   33.7150 C   0  0  0  0  0  0  0  0  0  0  0  0
   37.4260   23.1500   34.1120 H   0  0  0  0  0  0  0  0  0  0  0  0
   38.0200   24.1120   32.3530 C   0  0  0  0  0  3  0  0  0  0  0  0
   38.8080   25.0510   31.7470 C   0  0  0  0  0  3  0  0  0  0  0  0
   39.6590   25.7820   32.5320 C   0  0  0  0  0  0  0  0  0  0  0  0
   40.4910   26.7130   31.9490 C   0  0  0  0  0  3  0  0  0  0  0  0
   41.3980   27.4570   32.6840 C   0  0  0  0  0  3  0  0  0  0  0  0
   41.4210   27.2060   34.0620 C   0  0  0  0  0  3  0  0  0  0  0  0
   40.5840   26.2790   34.6080 C   0  0  0  0  0  3  0  0  0  0  0  0
   39.6930   25.5540   33.8830 C   0  0  0  0  0  0  0  0  0  0  0  0
  1  6  1  0  0  0  0
  1  8  1  0  0  0  0
  2  1  2  0  0  0  0
  3  4  2  0  0  0  0
  3  2  1  0  0  0  0
  4  5  1  0  0  0  0
  5  7  1  0  0  0  0
  5  6  2  0  0  0  0
  7 10  1  0  0  0  0
  9  2  1  0  0  0  0
 11  7  1  0  0  0  0
 12  3  1  0  0  0  0
 13 14  1  0  0  0  0
 13 12  2  0  0  0  0
 15 13  1  0  0  0  0
 16 15  2  0  0  0  0
 16 17  1  0  0  0  0
 17 22  1  0  0  0  0
 18 17  2  0  0  0  0
 18 19  1  0  0  0  0
 19 20  2  0  0  0  0
 20 21  1  0  0  0  0
 22 12  1  0  0  0  0
 22 21  2  0  0  0  0
M  END
>  <minimizedAffinity>
-5.26576948

$$$$

 OpenBabel03272501503D

 22 24  0  0  0  0  0  0  0  0999 V2000
   37.8650   24.1520   38.1700 C   0  0  0  0  0  0  0  0  0  0  0  0
   37.9950   24.9210   37.0180 C   0  0  0  0  0  0  0  0  0  0  0  0
   39.0050   24.6270   36.0990 C   0  0  0  0  0  0  0  0  0  0  0  0
   39.7940   23.5650   36.4410 N   0  0  0  0  0  0  0  0  0  0  0  0
   39.6650   22.8310   37.5450 C   0  0  0  0  0  0  0  0  0  0  0  0
   38.6900   23.1310   38.4170 N   0  0  0  0  0  0  0  0  0  0  0  0
   40.5980   21.7710   37.7010 N   0  0  0  0  0  0  0  0  0  0  0  0
   37.0820   24.3810   38.8810 H   0  0  0  0  0  0  0  0  0  0  0  0
   37.2830   25.6720   36.8780 H   0  0  0  0  0  0  0  0  0  0  0  0
   41.4700   21.9720   38.2320 H   0  0  0  0  0  0  0  0  0  0  0  0
   40.2260   20.9130   37.2230 H   0  0  0  0  0  0  0  0  0  0  0  0
   39.2630   25.2470   34.8220 C   0  0  0  0  0  0  0  0  0  0  0  0
   40.1430   26.3430   34.8640 C   0  0  0  0  0  0  0  0  0  0  0  0
   40.5910   26.6730   35.8090 H   0  0  0  0  0  0  0  0  0  0  0  0
   40.5110   27.0780   33.7600 C   0  0  0  0  0  3  0  0  0  0  0  0
   40.0130   26.7570   32.5270 C   0  0  0  0  0  3  0  0  0  0  0  0
   39.1490   25.6990   32.4350 C   0  0  0  0  0  0  0  0  0  0  0  0
   38.6030   25.3710   31.2130 C   0  0  0  0  0  3  0  0  0  0  0  0
   37.6960   24.3350   31.0630 C   0  0  0  0  0  3  0  0  0  0  0  0
   37.3650   23.6380   32.2320 C   0  0  0  0  0  3  0  0  0  0  0  0
   37.9240   23.9870   33.4240 C   0  0  0  0  0  3  0  0  0  0  0  0
   38.8150   25.0020   33.5670 C   0  0  0  0  0  0  0  0  0  0  0  0
  1  6  1  0  0  0  0
  1  8  1  0  0  0  0
  2  1  2  0  0  0  0
  3  4  2  0  0  0  0
  3  2  1  0  0  0  0
  4  5  1  0  0  0  0
  5  7  1  0  0  0  0
  5  6  2  0  0  0  0
  7 10  1  0  0  0  0
  9  2  1  0  0  0  0
 11  7  1  0  0  0  0
 12 13  1  0  0  0  0
 12  3  1  0  0  0  0
 13 14  1  0  0  0  0
 15 13  2  0  0  0  0
 16 15  1  0  0  0  0
 17 16  2  0  0  0  0
 17 22  1  0  0  0  0
 18 17  1  0  0  0  0
 19 18  2  0  0  0  0
 19 20  1  0  0  0  0
 20 21  2  0  0  0  0
 21 22  1  0  0  0  0
 22 12  2  0  0  0  0
M  END
>  <minimizedAffinity>
-5.24598265

$$$$

 OpenBabel03272501503D

 22 24  0  0  0  0  0  0  0  0999 V2000
   36.4930   28.7660   31.8620 C   0  0  0  0  0  0  0  0  0  0  0  0
   35.8080   29.7080   32.6240 C   0  0  0  0  0  0  0  0  0  0  0  0
   35.6490   29.5060   33.9970 C   0  0  0  0  0  0  0  0  0  0  0  0
   36.2110   28.3540   34.4720 N   0  0  0  0  0  0  0  0  0  0  0  0
   36.8680   27.4570   33.7390 C   0  0  0  0  0  0  0  0  0  0  0  0
   37.0080   27.6670   32.4210 N   0  0  0  0  0  0  0  0  0  0  0  0
   37.3720   26.3290   34.4410 N   0  0  0  0  0  0  0  0  0  0  0  0
   36.6150   28.9230   30.7990 H   0  0  0  0  0  0  0  0  0  0  0  0
   35.4750   30.5590   32.1200 H   0  0  0  0  0  0  0  0  0  0  0  0
   36.7670   25.4830   34.4900 H   0  0  0  0  0  0  0  0  0  0  0  0
   38.3270   26.5540   34.8140 H   0  0  0  0  0  0  0  0  0  0  0  0
   35.0430   30.3850   34.9670 C   0  0  0  0  0  0  0  0  0  0  0  0
   35.8950   31.3800   35.4770 C   0  0  0  0  0  0  0  0  0  0  0  0
   36.9360   31.4620   35.1390 H   0  0  0  0  0  0  0  0  0  0  0  0
   35.5160   32.3110   36.4180 C   0  0  0  0  0  3  0  0  0  0  0  0
   34.2410   32.3040   36.9130 C   0  0  0  0  0  3  0  0  0  0  0  0
   33.3740   31.3510   36.4490 C   0  0  0  0  0  0  0  0  0  0  0  0
   32.0920   31.2960   36.9510 C   0  0  0  0  0  3  0  0  0  0  0  0
   31.1810   30.3340   36.5490 C   0  0  0  0  0  3  0  0  0  0  0  0
   31.6420   29.4170   35.5950 C   0  0  0  0  0  3  0  0  0  0  0  0
   32.9140   29.5010   35.1170 C   0  0  0  0  0  3  0  0  0  0  0  0
   33.8040   30.4480   35.5130 C   0  0  0  0  0  0  0  0  0  0  0  0
  1  6  2  0  0  0  0
  1  2  1  0  0  0  0
  2  3  2  0  0  0  0
  3  4  1  0  0  0  0
  3 12  1  0  0  0  0
  5  7  1  0  0  0  0
  5  4  2  0  0  0  0
  6  5  1  0  0  0  0
  7 10  1  0  0  0  0
  7 11  1  0  0  0  0
  8  1  1  0  0  0  0
  9  2  1  0  0  0  0
 12 13  2  0  0  0  0
 12 22  1  0  0  0  0
 13 15  1  0  0  0  0
 14 13  1  0  0  0  0
 15 16  2  0  0  0  0
 17 16  1  0  0  0  0
 17 18  1  0  0  0  0
 19 18  2  0  0  0  0
 20 19  1  0  0  0  0
 21 22  1  0  0  0  0
 21 20  2  0  0  0  0
 22 17  2  0  0  0  0
M  END
>  <minimizedAffinity>
-5.21010256

$$$$

 OpenBabel03272501503D

 22 24  0  0  0  0  0  0  0  0999 V2000
   34.9940   32.1370   36.9210 C   0  0  0  0  0  0  0  0  0  0  0  0
   35.6550   31.5910   35.8250 C   0  0  0  0  0  0  0  0  0  0  0  0
   34.9780   30.7140   34.9740 C   0  0  0  0  0  0  0  0  0  0  0  0
   33.6780   30.4740   35.3200 N   0  0  0  0  0  0  0  0  0  0  0  0
   33.0500   31.0000   36.3700 C   0  0  0  0  0  0  0  0  0  0  0  0
   33.7170   31.8390   37.1770 N   0  0  0  0  0  0  0  0  0  0  0  0
   31.6940   30.6120   36.5420 N   0  0  0  0  0  0  0  0  0  0  0  0
   35.5190   32.8150   37.5800 H   0  0  0  0  0  0  0  0  0  0  0  0
   36.6380   31.9090   35.6700 H   0  0  0  0  0  0  0  0  0  0  0  0
   31.5030   29.7890   37.1500 H   0  0  0  0  0  0  0  0  0  0  0  0
   31.0780   31.2610   35.9920 H   0  0  0  0  0  0  0  0  0  0  0  0
   35.4540   30.1030   33.7560 C   0  0  0  0  0  0  0  0  0  0  0  0
   35.1370   30.8060   32.5800 C   0  0  0  0  0  0  0  0  0  0  0  0
   34.5770   31.7490   32.6170 H   0  0  0  0  0  0  0  0  0  0  0  0
   35.4880   30.3900   31.3150 C   0  0  0  0  0  3  0  0  0  0  0  0
   36.1880   29.2270   31.1470 C   0  0  0  0  0  3  0  0  0  0  0  0
   36.5170   28.5050   32.2630 C   0  0  0  0  0  0  0  0  0  0  0  0
   37.1930   27.3120   32.1270 C   0  0  0  0  0  3  0  0  0  0  0  0
   37.5220   26.5200   33.2130 C   0  0  0  0  0  3  0  0  0  0  0  0
   37.1250   27.0050   34.4660 C   0  0  0  0  0  3  0  0  0  0  0  0
   36.4600   28.1890   34.5670 C   0  0  0  0  0  3  0  0  0  0  0  0
   36.1420   28.9650   33.4980 C   0  0  0  0  0  0  0  0  0  0  0  0
  1  6  1  0  0  0  0
  1  8  1  0  0  0  0
  2  1  2  0  0  0  0
  3  4  2  0  0  0  0
  3  2  1  0  0  0  0
  4  5  1  0  0  0  0
  5  7  1  0  0  0  0
  5  6  2  0  0  0  0
  7 10  1  0  0  0  0
  9  2  1  0  0  0  0
 11  7  1  0  0  0  0
 12  3  1  0  0  0  0
 13 14  1  0  0  0  0
 13 12  2  0  0  0  0
 15 13  1  0  0  0  0
 16 15  2  0  0  0  0
 16 17  1  0  0  0  0
 17 22  1  0  0  0  0
 18 17  2  0  0  0  0
 18 19  1  0  0  0  0
 19 20  2  0  0  0  0
 20 21  1  0  0  0  0
 22 12  1  0  0  0  0
 22 21  2  0  0  0  0
M  END
>  <minimizedAffinity>
-5.15224504

$$$$
