
     RDKit          3D

 29 31  0  0  0  0  0  0  0  0999 V2000
   38.3049   31.2362   50.1169 C   0  0  0  0  0  0  0  0  0  0  0  0
   38.2840   31.5945   48.7705 C   0  0  0  0  0  0  0  0  0  0  0  0
   37.2065   31.2226   47.9853 C   0  0  0  0  0  0  0  0  0  0  0  0
   36.2345   30.5130   48.6237 N   0  0  0  0  0  0  0  0  0  0  0  0
   36.2563   30.1710   49.9070 C   0  0  0  0  0  0  0  0  0  0  0  0
   37.2974   30.5423   50.6333 N   0  0  0  0  0  0  0  0  0  0  0  0
   35.1216   29.3873   50.4571 C   0  0  0  0  0  0  0  0  0  0  0  0
   35.2716   29.1198   51.8067 F   0  0  0  0  0  0  0  0  0  0  0  0
   33.9167   30.0507   50.2926 F   0  0  0  0  0  0  0  0  0  0  0  0
   34.9556   28.1745   49.8110 F   0  0  0  0  0  0  0  0  0  0  0  0
   39.1454   31.5283   50.7308 H   0  0  0  0  0  0  0  0  0  0  0  0
   39.1416   32.1104   48.4043 H   0  0  0  0  0  0  0  0  0  0  0  0
   37.0131   31.4217   46.5704 C   0  0  0  0  0  0  0  0  0  0  0  0
   37.4983   32.6250   46.0434 C   0  0  0  0  0  0  0  0  0  0  0  0
   37.9791   33.3514   46.6882 H   0  0  0  0  0  0  0  0  0  0  0  0
   37.4238   32.9957   44.7337 C   0  0  0  0  0  0  0  0  0  0  0  0
   36.8338   32.1504   43.8216 C   0  0  0  0  0  0  0  0  0  0  0  0
   36.3439   30.9598   44.2746 C   0  0  0  0  0  0  0  0  0  0  0  0
   35.7784   30.0762   43.3846 C   0  0  0  0  0  0  0  0  0  0  0  0
   35.2975   28.8369   43.7870 C   0  0  0  0  0  0  0  0  0  0  0  0
   35.4169   28.5350   45.1297 C   0  0  0  0  0  0  0  0  0  0  0  0
   35.9791   29.4287   45.9839 C   0  0  0  0  0  0  0  0  0  0  0  0
   36.4463   30.6389   45.5992 C   0  0  0  0  0  0  0  0  0  0  0  0
   37.8061   33.9263   44.3669 H   0  0  0  0  0  0  0  0  0  0  0  0
   36.7734   32.4444   42.7859 H   0  0  0  0  0  0  0  0  0  0  0  0
   35.6933   30.3301   42.3313 H   0  0  0  0  0  0  0  0  0  0  0  0
   34.8650   28.1764   43.0746 H   0  0  0  0  0  0  0  0  0  0  0  0
   35.0361   27.5562   45.4332 H   0  0  0  0  0  0  0  0  0  0  0  0
   36.0605   29.0845   46.9814 H   0  0  0  0  0  0  0  0  0  0  0  0
  1  6  2  0
  2  1  1  0
  3  4  1  0
  3  2  2  0
  4  5  2  0
  5  7  1  0
  5  6  1  0
  7  8  1  0
  9  7  1  0
 10  7  1  0
  1 11  1  0
  2 12  1  0
 13 14  2  0
 14 15  1  0
 14 16  1  0
 16 17  2  0
 17 18  1  0
 18 19  2  0
 19 20  1  0
 20 21  2  0
 21 22  1  0
 22 23  2  0
 23 13  1  0
 23 18  1  0
 16 24  1  0
 17 25  1  0
 19 26  1  0
 20 27  1  0
 21 28  1  0
 22 29  1  0
  3 13  1  0
M  ISO  3  11  14  12  14  15  15
M  END
>  <DihAtoms>  (1) 
3,2,12,13

>  <DihDeg>  (1) 
-32.813208269965244

$$$$
