
 OpenBabel03272508053D

 37 41  0  0  0  0  0  0  0  0999 V2000
   38.8470   30.8990   45.8610 C   0  0  0  0  0  0  0  0  0  0  0  0
   40.0290   31.5830   46.1170 C   0  0  0  0  0  0  0  0  0  0  0  0
   40.8780   31.5350   45.0130 C   0  0  0  0  0  0  0  0  0  0  0  0
   40.1530   30.8080   44.1230 N   0  0  0  0  0  0  0  0  0  0  0  0
   38.9840   30.4380   44.6020 N   0  0  0  0  0  0  0  0  0  0  0  0
   40.2740   32.0890   47.0410 H   0  0  0  0  0  0  0  0  0  0  0  0
   41.8480   31.9410   44.8590 H   0  0  0  0  0  0  0  0  0  0  0  0
   37.7200   30.7310   46.7580 C   0  0  0  0  0  0  0  0  0  0  0  0
   37.9350   30.9260   48.1500 C   0  0  0  0  0  0  0  0  0  0  0  0
   36.8360   30.7580   48.9910 C   0  0  0  0  0  0  0  0  0  0  0  0
   35.6400   30.4240   48.4440 N   0  0  0  0  0  0  0  0  0  0  0  0
   35.4660   30.2460   47.1160 C   0  0  0  0  0  0  0  0  0  0  0  0
   36.5170   30.4030   46.2850 N   0  0  0  0  0  0  0  0  0  0  0  0
   38.9130   31.1920   48.5320 H   0  0  0  0  0  0  0  0  0  0  0  0
   34.4970   29.9800   46.7160 H   0  0  0  0  0  0  0  0  0  0  0  0
   37.0410   30.9580   50.4600 C   0  0  0  0  0  0  0  0  0  0  0  0
   36.5520   32.2110   50.7300 F   0  0  0  0  0  0  0  0  0  0  0  0
   36.3410   30.0200   51.2200 F   0  0  0  0  0  0  0  0  0  0  0  0
   38.3840   30.9200   50.8060 F   0  0  0  0  0  0  0  0  0  0  0  0
   40.5350   30.4390   42.7660 C   0  0  0  0  0  0  0  0  0  0  0  0
   40.1450   31.1900   41.6530 C   0  0  0  0  0  0  0  0  0  0  0  0
   40.5370   30.8070   40.4070 C   0  0  0  0  0  0  0  0  0  0  0  0
   41.3310   29.6570   40.2330 C   0  0  0  0  0  0  0  0  0  0  0  0
   41.5050   29.1240   41.9950 S   0  0  0  0  0  0  0  0  0  0  0  0
   39.5200   32.0880   41.8020 H   0  0  0  0  0  0  0  0  0  0  0  0
   40.2730   31.4020   39.5630 H   0  0  0  0  0  0  0  0  0  0  0  0
   41.9960   28.9180   39.2750 C   0  0  0  0  0  0  0  0  0  0  0  0
   41.5240   27.6300   38.9700 C   0  0  0  0  0  0  0  0  0  0  0  0
   40.6620   27.1490   39.4460 H   0  0  0  0  0  0  0  0  0  0  0  0
   42.0950   26.8040   38.0280 C   0  0  0  0  0  3  0  0  0  0  0  0
   43.1860   27.2460   37.3370 C   0  0  0  0  0  3  0  0  0  0  0  0
   43.7250   28.4890   37.5560 C   0  0  0  0  0  0  0  0  0  0  0  0
   44.8050   28.9040   36.8140 C   0  0  0  0  0  3  0  0  0  0  0  0
   45.3240   30.1670   37.0100 C   0  0  0  0  0  3  0  0  0  0  0  0
   44.6970   30.9450   37.9680 C   0  0  0  0  0  3  0  0  0  0  0  0
   43.6180   30.4830   38.6840 C   0  0  0  0  0  3  0  0  0  0  0  0
   43.0900   29.2360   38.5090 C   0  0  0  0  0  0  0  0  0  0  0  0
  1  2  1  0  0  0  0
  1  8  1  0  0  0  0
  2  6  1  0  0  0  0
  3  2  2  0  0  0  0
  4  5  1  0  0  0  0
  4  3  1  0  0  0  0
  5  1  2  0  0  0  0
  7  3  1  0  0  0  0
  8  9  1  0  0  0  0
  9 14  1  0  0  0  0
  9 10  2  0  0  0  0
 10 16  1  0  0  0  0
 11 10  1  0  0  0  0
 12 11  2  0  0  0  0
 13  8  2  0  0  0  0
 13 12  1  0  0  0  0
 15 12  1  0  0  0  0
 16 17  1  0  0  0  0
 16 19  1  0  0  0  0
 16 18  1  0  0  0  0
 20  4  1  0  0  0  0
 21 25  1  0  0  0  0
 21 20  2  0  0  0  0
 22 21  1  0  0  0  0
 23 22  2  0  0  0  0
 23 24  1  0  0  0  0
 24 20  1  0  0  0  0
 26 22  1  0  0  0  0
 27 23  1  0  0  0  0
 28 27  1  0  0  0  0
 28 29  1  0  0  0  0
 30 28  2  0  0  0  0
 31 32  2  0  0  0  0
 31 30  1  0  0  0  0
 32 37  1  0  0  0  0
 33 34  2  0  0  0  0
 33 32  1  0  0  0  0
 34 35  1  0  0  0  0
 35 36  2  0  0  0  0
 37 36  1  0  0  0  0
 37 27  2  0  0  0  0
M  END
>  <minimizedAffinity>
-6.82514715

>  <minimizedRMSD>
0.657799125

$$$$
