
     RDKit          3D

 29 31  0  0  0  0  0  0  0  0999 V2000
   38.3049   31.2362   50.1169 C   0  0  0  0  0  0  0  0  0  0  0  0
   38.2840   31.5945   48.7705 C   0  0  0  0  0  0  0  0  0  0  0  0
   37.2065   31.2226   47.9853 C   0  0  0  0  0  0  0  0  0  0  0  0
   36.2345   30.5130   48.6237 N   0  0  0  0  0  0  0  0  0  0  0  0
   36.2563   30.1710   49.9070 C   0  0  0  0  0  0  0  0  0  0  0  0
   37.2974   30.5423   50.6333 N   0  0  0  0  0  0  0  0  0  0  0  0
   35.1216   29.3873   50.4571 C   0  0  0  0  0  0  0  0  0  0  0  0
   35.2716   29.1198   51.8067 F   0  0  0  0  0  0  0  0  0  0  0  0
   33.9167   30.0507   50.2926 F   0  0  0  0  0  0  0  0  0  0  0  0
   34.9556   28.1745   49.8110 F   0  0  0  0  0  0  0  0  0  0  0  0
   39.1454   31.5283   50.7308 H   0  0  0  0  0  0  0  0  0  0  0  0
   39.1416   32.1104   48.4043 H   0  0  0  0  0  0  0  0  0  0  0  0
   37.0131   31.4217   46.5704 C   0  0  0  0  0  0  0  0  0  0  0  0
   38.1154   31.9109   45.8586 C   0  0  0  0  0  0  0  0  0  0  0  0
   39.0458   32.1280   46.3702 H   0  0  0  0  0  0  0  0  0  0  0  0
   38.1391   32.1550   44.5176 C   0  0  0  0  0  0  0  0  0  0  0  0
   37.0126   31.9148   43.7641 C   0  0  0  0  0  0  0  0  0  0  0  0
   35.9057   31.4339   44.4012 C   0  0  0  0  0  0  0  0  0  0  0  0
   34.7733   31.1505   43.6731 C   0  0  0  0  0  0  0  0  0  0  0  0
   33.6323   30.6257   44.2664 C   0  0  0  0  0  0  0  0  0  0  0  0
   33.6924   30.4011   45.6280 C   0  0  0  0  0  0  0  0  0  0  0  0
   34.8245   30.6921   46.3195 C   0  0  0  0  0  0  0  0  0  0  0  0
   35.9381   31.2067   45.7486 C   0  0  0  0  0  0  0  0  0  0  0  0
   39.0022   32.5307   44.0070 H   0  0  0  0  0  0  0  0  0  0  0  0
   37.0310   32.1094   42.7035 H   0  0  0  0  0  0  0  0  0  0  0  0
   34.7440   31.3329   42.6022 H   0  0  0  0  0  0  0  0  0  0  0  0
   32.7725   30.4181   43.6761 H   0  0  0  0  0  0  0  0  0  0  0  0
   32.7886   29.9866   46.0824 H   0  0  0  0  0  0  0  0  0  0  0  0
   34.7814   30.4448   47.3477 H   0  0  0  0  0  0  0  0  0  0  0  0
  1  6  2  0
  2  1  1  0
  3  4  1  0
  3  2  2  0
  4  5  2  0
  5  7  1  0
  5  6  1  0
  7  8  1  0
  9  7  1  0
 10  7  1  0
  1 11  1  0
  2 12  1  0
 13 14  2  0
 14 15  1  0
 14 16  1  0
 16 17  2  0
 17 18  1  0
 18 19  2  0
 19 20  1  0
 20 21  2  0
 21 22  1  0
 22 23  2  0
 23 13  1  0
 23 18  1  0
 16 24  1  0
 17 25  1  0
 19 26  1  0
 20 27  1  0
 21 28  1  0
 22 29  1  0
  3 13  1  0
M  ISO  3  11  14  12  14  15  15
M  END
>  <DihAtoms>  (1) 
3,2,12,13

>  <DihDeg>  (1) 
-32.813208269965244

$$$$
