
 OpenBabel03272508413D

 44 48  0  0  1  0  0  0  0  0999 V2000
   30.0820   28.5910   43.8040 N   0  0  0  0  0  0  0  0  0  0  0  0
   30.8750   28.4840   45.0260 C   0  0  0  0  0  0  0  0  0  0  0  0
   32.1430   29.2110   45.0000 C   0  0  2  0  0  0  0  0  0  0  0  0
   32.8680   29.0270   43.7110 N   0  0  0  0  0  0  0  0  0  0  0  0
   31.9390   29.4130   42.6340 C   0  0  0  0  0  0  0  0  0  0  0  0
   30.8950   28.3190   42.6710 C   0  0  0  0  0  0  0  0  0  0  0  0
   30.2370   28.7400   45.8660 H   0  0  0  0  0  0  0  0  0  0  0  0
   31.1350   27.3700   44.9830 H   0  0  0  0  0  0  0  0  0  0  0  0
   32.0580   30.3140   45.0150 H   0  0  0  0  0  0  0  0  0  0  0  0
   33.6350   29.6970   43.6790 H   0  0  0  0  0  0  0  0  0  0  0  0
   32.5170   29.3570   41.6870 H   0  0  0  0  0  0  0  0  0  0  0  0
   31.5160   30.4120   42.7950 H   0  0  0  0  0  0  0  0  0  0  0  0
   31.4580   27.3520   42.7210 H   0  0  0  0  0  0  0  0  0  0  0  0
   30.2890   28.3120   41.7460 H   0  0  0  0  0  0  0  0  0  0  0  0
   33.9890   31.2730   46.0780 Cl  0  0  0  0  0  0  0  0  0  0  0  0
   33.8790   29.6280   46.7050 C   0  0  0  0  0  0  0  0  0  0  0  0
   32.9990   28.7770   46.0900 C   0  0  0  0  0  0  0  0  0  0  0  0
   32.7950   27.4400   46.4740 C   0  0  0  0  0  0  0  0  0  0  0  0
   33.5700   27.0030   47.5580 C   0  0  0  0  0  0  0  0  0  0  0  0
   34.4740   27.8660   48.1900 C   0  0  0  0  0  0  0  0  0  0  0  0
   34.6100   29.1570   47.7550 C   0  0  0  0  0  0  0  0  0  0  0  0
   32.2070   26.6000   46.2010 H   0  0  0  0  0  0  0  0  0  0  0  0
   33.5970   26.0380   48.0310 H   0  0  0  0  0  0  0  0  0  0  0  0
   35.1070   27.6110   49.0270 H   0  0  0  0  0  0  0  0  0  0  0  0
   35.5320   30.1000   48.3740 C   0  0  0  0  0  0  0  0  0  0  0  0
   35.1840   30.5730   49.6200 C   0  0  0  0  0  0  0  0  0  0  0  0
   34.2680   30.2610   50.1250 H   0  0  0  0  0  0  0  0  0  0  0  0
   35.9460   31.4610   50.3260 C   0  0  0  0  0  3  0  0  0  0  0  0
   37.1330   31.9160   49.7620 C   0  0  0  0  0  3  0  0  0  0  0  0
   37.4910   31.4480   48.5120 C   0  0  0  0  0  0  0  0  0  0  0  0
   38.6810   31.8960   47.9330 C   0  0  0  0  0  3  0  0  0  0  0  0
   39.0280   31.4180   46.6790 C   0  0  0  0  0  3  0  0  0  0  0  0
   38.2220   30.5190   46.0060 C   0  0  0  0  0  3  0  0  0  0  0  0
   37.0350   30.0630   46.5650 C   0  0  0  0  0  3  0  0  0  0  0  0
   36.7140   30.5470   47.8040 C   0  0  0  0  0  0  0  0  0  0  0  0
   28.7040   28.9110   43.8130 C   0  0  0  0  0  0  0  0  0  0  0  0
   28.1180   29.7080   42.8230 C   0  0  0  0  0  0  0  0  0  0  0  0
   26.7590   29.9730   42.9040 C   0  0  0  0  0  0  0  0  0  0  0  0
   26.0480   29.4310   43.9650 N   0  0  0  0  0  0  0  0  0  0  0  0
   26.6600   28.6680   44.8950 C   0  0  0  0  0  0  0  0  0  0  0  0
   27.9590   28.4050   44.8320 N   0  0  0  0  0  0  0  0  0  0  0  0
   28.7790   30.0710   42.0480 H   0  0  0  0  0  0  0  0  0  0  0  0
   26.3120   30.5780   42.1520 H   0  0  0  0  0  0  0  0  0  0  0  0
   26.0400   28.2850   45.6850 H   0  0  0  0  0  0  0  0  0  0  0  0
  1 36  1  0  0  0  0
  1  2  1  0  0  0  0
  2  7  1  0  0  0  0
  3  9  1  1  0  0  0
  3  2  1  0  0  0  0
  3 17  1  0  0  0  0
  4  3  1  0  0  0  0
  5  6  1  0  0  0  0
  5 12  1  0  0  0  0
  5  4  1  0  0  0  0
  6 13  1  0  0  0  0
  6  1  1  0  0  0  0
  8  2  1  0  0  0  0
 10  4  1  0  0  0  0
 11  5  1  0  0  0  0
 14  6  1  0  0  0  0
 15 16  1  0  0  0  0
 16 21  1  0  0  0  0
 17 18  1  0  0  0  0
 17 16  2  0  0  0  0
 18 19  2  0  0  0  0
 19 23  1  0  0  0  0
 19 20  1  0  0  0  0
 20 24  1  0  0  0  0
 21 20  2  0  0  0  0
 21 25  1  0  0  0  0
 22 18  1  0  0  0  0
 25 26  1  0  0  0  0
 26 27  1  0  0  0  0
 26 28  2  0  0  0  0
 29 28  1  0  0  0  0
 30 29  2  0  0  0  0
 31 30  1  0  0  0  0
 32 31  2  0  0  0  0
 33 34  2  0  0  0  0
 33 32  1  0  0  0  0
 34 35  1  0  0  0  0
 35 25  2  0  0  0  0
 35 30  1  0  0  0  0
 36 41  1  0  0  0  0
 37 38  1  0  0  0  0
 37 36  2  0  0  0  0
 38 39  2  0  0  0  0
 39 40  1  0  0  0  0
 40 44  1  0  0  0  0
 41 40  2  0  0  0  0
 42 37  1  0  0  0  0
 43 38  1  0  0  0  0
M  END
>  <minimizedAffinity>
-4.90468454

>  <minimizedRMSD>
5.16992617

$$$$
