
 OpenBabel03272500123D

 23 25  0  0  0  0  0  0  0  0999 V2000
   35.6890   28.9410   50.3090 C   0  0  0  0  0  0  0  0  0  0  0  0
   36.1270   30.1330   49.7160 C   0  0  0  0  0  0  0  0  0  0  0  0
   35.6120   30.4640   48.4650 C   0  0  0  0  0  0  0  0  0  0  0  0
   34.7180   29.5920   47.9150 N   0  0  0  0  0  0  0  0  0  0  0  0
   34.3140   28.4630   48.4910 C   0  0  0  0  0  0  0  0  0  0  0  0
   34.8020   28.1590   49.6690 N   0  0  0  0  0  0  0  0  0  0  0  0
   36.0370   28.6060   51.2780 H   0  0  0  0  0  0  0  0  0  0  0  0
   35.9360   31.3610   48.0100 H   0  0  0  0  0  0  0  0  0  0  0  0
   33.3560   27.7600   47.6420 C   0  0  0  0  0  0  0  0  0  0  0  0
   33.6880   27.2520   46.4040 C   0  0  0  0  0  0  0  0  0  0  0  0
   34.7100   27.3630   46.0070 H   0  0  0  0  0  0  0  0  0  0  0  0
   32.8430   26.5860   45.5590 C   0  0  0  0  0  0  0  0  0  0  0  0
   31.5430   26.3860   45.9430 C   0  0  0  0  0  0  0  0  0  0  0  0
   31.1360   26.8650   47.1690 C   0  0  0  0  0  0  0  0  0  0  0  0
   29.8340   26.6410   47.5050 C   0  0  0  0  0  0  0  0  0  0  0  0
   29.3410   27.0840   48.7080 C   0  0  0  0  0  0  0  0  0  0  0  0
   30.2350   27.7610   49.5440 C   0  0  0  0  0  0  0  0  0  0  0  0
   31.5390   27.9520   49.1410 C   0  0  0  0  0  0  0  0  0  0  0  0
   32.0390   27.5170   47.9480 C   0  0  0  0  0  0  0  0  0  0  0  0
   37.1250   30.9790   50.4560 C   0  0  0  0  0  0  0  0  0  0  0  0
   38.3840   30.8820   49.8270 F   0  0  0  0  0  0  0  0  0  0  0  0
   36.7160   32.2830   50.3570 F   0  0  0  0  0  0  0  0  0  0  0  0
   37.2620   30.6140   51.7710 F   0  0  0  0  0  0  0  0  0  0  0  0
  1  7  1  0  0  0  0
  2  1  1  0  0  0  0
  2 20  1  0  0  0  0
  3  2  2  0  0  0  0
  4  3  1  0  0  0  0
  4  5  2  0  0  0  0
  5  6  1  0  0  0  0
  6  1  2  0  0  0  0
  8  3  1  0  0  0  0
  9 19  1  0  0  0  0
  9  5  1  0  0  0  0
 10  9  2  0  0  0  0
 11 10  1  0  0  0  0
 12 13  2  0  0  0  0
 12 10  1  0  0  0  0
 13 14  1  0  0  0  0
 14 15  2  0  0  0  0
 14 19  1  0  0  0  0
 15 16  1  0  0  0  0
 16 17  2  0  0  0  0
 18 17  1  0  0  0  0
 19 18  2  0  0  0  0
 20 23  1  0  0  0  0
 21 20  1  0  0  0  0
 22 20  1  0  0  0  0
M  END
>  <minimizedAffinity>
-5.86025

>  <minimizedRMSD>
0.6205917

$$$$
