
 OpenBabel03272501133D

 30 33  0  0  1  0  0  0  0  0999 V2000
   38.6270   25.4080   34.8520 C   0  0  1  0  0  0  0  0  0  0  0  0
   37.6790   26.4940   34.7290 C   0  0  1  0  0  0  0  0  0  0  0  0
   39.0860   26.8540   35.0460 C   0  0  0  0  0  0  0  0  0  0  0  0
   39.0580   24.8980   33.9460 H   0  0  0  0  0  0  0  0  0  0  0  0
   36.9790   26.6910   35.5910 H   0  0  0  0  0  0  0  0  0  0  0  0
   39.7400   27.2260   34.2390 H   0  0  0  0  0  0  0  0  0  0  0  0
   39.3650   27.1880   36.0670 H   0  0  0  0  0  0  0  0  0  0  0  0
   38.7460   24.6060   36.1310 C   0  0  0  0  0  0  0  0  0  0  0  0
   39.7270   23.6120   36.1490 C   0  0  0  0  0  0  0  0  0  0  0  0
   39.7960   22.8790   37.3340 C   0  0  0  0  0  0  0  0  0  0  0  0
   38.9410   23.1490   38.3810 N   0  0  0  0  0  0  0  0  0  0  0  0
   38.0150   24.1210   38.3030 C   0  0  0  0  0  0  0  0  0  0  0  0
   37.9180   24.8630   37.1510 N   0  0  0  0  0  0  0  0  0  0  0  0
   40.3960   23.4000   35.3330 H   0  0  0  0  0  0  0  0  0  0  0  0
   40.5100   22.0800   37.4800 H   0  0  0  0  0  0  0  0  0  0  0  0
   37.3380   24.3380   39.1180 H   0  0  0  0  0  0  0  0  0  0  0  0
   37.0590   26.7300   33.3720 C   0  0  0  0  0  0  0  0  0  0  0  0
   37.7430   26.4260   32.5480 H   0  0  0  0  0  0  0  0  0  0  0  0
   36.1880   26.0390   33.3180 H   0  0  0  0  0  0  0  0  0  0  0  0
   36.5620   28.1150   33.1900 C   0  0  0  0  0  0  0  0  0  0  0  0
   35.9670   28.7480   34.2860 C   0  0  0  0  0  0  0  0  0  0  0  0
   35.8710   28.1730   35.2190 H   0  0  0  0  0  0  0  0  0  0  0  0
   35.4840   30.0250   34.3240 C   0  0  0  0  0  3  0  0  0  0  0  0
   35.5810   30.7800   33.1860 C   0  0  0  0  0  3  0  0  0  0  0  0
   36.1600   30.2070   32.0730 C   0  0  0  0  0  0  0  0  0  0  0  0
   36.2530   30.9570   30.9120 C   0  0  0  0  0  3  0  0  0  0  0  0
   36.8280   30.3520   29.7980 C   0  0  0  0  0  3  0  0  0  0  0  0
   37.3010   29.0630   29.7990 C   0  0  0  0  0  3  0  0  0  0  0  0
   37.1940   28.3420   30.9690 C   0  0  0  0  0  3  0  0  0  0  0  0
   36.6360   28.9120   32.0720 C   0  0  0  0  0  0  0  0  0  0  0  0
  1  4  1  6  0  0  0
  1  3  1  0  0  0  0
  1  8  1  0  0  0  0
  2  1  1  0  0  0  0
  2  3  1  0  0  0  0
  2  5  1  1  0  0  0
  3  7  1  0  0  0  0
  6  3  1  0  0  0  0
  8  9  2  0  0  0  0
  8 13  1  0  0  0  0
  9 10  1  0  0  0  0
 10 15  1  0  0  0  0
 10 11  2  0  0  0  0
 12 11  1  0  0  0  0
 12 16  1  0  0  0  0
 13 12  2  0  0  0  0
 14  9  1  0  0  0  0
 17  2  1  0  0  0  0
 18 17  1  0  0  0  0
 19 17  1  0  0  0  0
 20 17  1  0  0  0  0
 20 21  1  0  0  0  0
 21 23  2  0  0  0  0
 21 22  1  0  0  0  0
 24 23  1  0  0  0  0
 25 24  2  0  0  0  0
 26 25  1  0  0  0  0
 27 28  1  0  0  0  0
 27 26  2  0  0  0  0
 28 29  2  0  0  0  0
 29 30  1  0  0  0  0
 30 25  1  0  0  0  0
 30 20  2  0  0  0  0
M  END
>  <minimizedAffinity>
-5.72091579

$$$$

 OpenBabel03272501133D

 30 33  0  0  1  0  0  0  0  0999 V2000
   37.6900   26.9760   33.0270 C   0  0  1  0  0  0  0  0  0  0  0  0
   37.7700   25.9940   34.0870 C   0  0  1  0  0  0  0  0  0  0  0  0
   37.0470   25.6000   32.8490 C   0  0  0  0  0  0  0  0  0  0  0  0
   38.5610   27.1770   32.3440 H   0  0  0  0  0  0  0  0  0  0  0  0
   37.0800   26.1080   34.9710 H   0  0  0  0  0  0  0  0  0  0  0  0
   37.5580   24.9610   32.1090 H   0  0  0  0  0  0  0  0  0  0  0  0
   35.9390   25.5300   32.8430 H   0  0  0  0  0  0  0  0  0  0  0  0
   36.6530   28.0800   33.0510 C   0  0  0  0  0  0  0  0  0  0  0  0
   36.2130   28.4890   34.3110 C   0  0  0  0  0  0  0  0  0  0  0  0
   35.2440   29.4920   34.2960 C   0  0  0  0  0  0  0  0  0  0  0  0
   34.7850   30.0120   33.1040 N   0  0  0  0  0  0  0  0  0  0  0  0
   35.2480   29.5750   31.9200 C   0  0  0  0  0  0  0  0  0  0  0  0
   36.2030   28.5880   31.8960 N   0  0  0  0  0  0  0  0  0  0  0  0
   36.5700   28.0860   35.2430 H   0  0  0  0  0  0  0  0  0  0  0  0
   34.8180   29.9000   35.2030 H   0  0  0  0  0  0  0  0  0  0  0  0
   34.8930   29.9750   30.9790 H   0  0  0  0  0  0  0  0  0  0  0  0
   39.1370   25.4600   34.4420 C   0  0  0  0  0  0  0  0  0  0  0  0
   39.5940   24.9000   33.5940 H   0  0  0  0  0  0  0  0  0  0  0  0
   39.7770   26.3570   34.5960 H   0  0  0  0  0  0  0  0  0  0  0  0
   39.1460   24.6650   35.6930 C   0  0  0  0  0  0  0  0  0  0  0  0
   38.1380   24.9080   36.6320 C   0  0  0  0  0  0  0  0  0  0  0  0
   37.4070   25.6980   36.4050 H   0  0  0  0  0  0  0  0  0  0  0  0
   37.9590   24.2570   37.8190 C   0  0  0  0  0  3  0  0  0  0  0  0
   38.8440   23.2640   38.1450 C   0  0  0  0  0  3  0  0  0  0  0  0
   39.8590   22.9820   37.2560 C   0  0  0  0  0  0  0  0  0  0  0  0
   40.7680   21.9880   37.5800 C   0  0  0  0  0  3  0  0  0  0  0  0
   41.7920   21.7300   36.6740 C   0  0  0  0  0  3  0  0  0  0  0  0
   41.9400   22.4070   35.4890 C   0  0  0  0  0  3  0  0  0  0  0  0
   41.0200   23.3910   35.1940 C   0  0  0  0  0  3  0  0  0  0  0  0
   40.0100   23.6610   36.0660 C   0  0  0  0  0  0  0  0  0  0  0  0
  1  4  1  6  0  0  0
  1  8  1  0  0  0  0
  1  2  1  0  0  0  0
  2 17  1  0  0  0  0
  2  5  1  1  0  0  0
  3  1  1  0  0  0  0
  3  2  1  0  0  0  0
  6  3  1  0  0  0  0
  7  3  1  0  0  0  0
  8  9  1  0  0  0  0
  9 14  1  0  0  0  0
 10  9  2  0  0  0  0
 10 15  1  0  0  0  0
 11 10  1  0  0  0  0
 12 11  2  0  0  0  0
 13 12  1  0  0  0  0
 13  8  2  0  0  0  0
 16 12  1  0  0  0  0
 17 19  1  0  0  0  0
 17 20  1  0  0  0  0
 18 17  1  0  0  0  0
 20 30  2  0  0  0  0
 20 21  1  0  0  0  0
 21 23  2  0  0  0  0
 22 21  1  0  0  0  0
 23 24  1  0  0  0  0
 25 26  1  0  0  0  0
 25 24  2  0  0  0  0
 27 26  2  0  0  0  0
 28 27  1  0  0  0  0
 29 28  2  0  0  0  0
 29 30  1  0  0  0  0
 30 25  1  0  0  0  0
M  END
>  <minimizedAffinity>
-5.56670666

$$$$

 OpenBabel03272501133D

 30 33  0  0  1  0  0  0  0  0999 V2000
   35.9740   28.0100   33.5880 C   0  0  1  0  0  0  0  0  0  0  0  0
   36.2510   29.3200   33.0410 C   0  0  1  0  0  0  0  0  0  0  0  0
   36.2640   28.1740   32.0960 C   0  0  0  0  0  0  0  0  0  0  0  0
   34.9240   27.6820   33.8260 H   0  0  0  0  0  0  0  0  0  0  0  0
   37.2770   29.7580   33.2030 H   0  0  0  0  0  0  0  0  0  0  0  0
   35.3870   28.0010   31.4480 H   0  0  0  0  0  0  0  0  0  0  0  0
   37.2250   27.7840   31.6980 H   0  0  0  0  0  0  0  0  0  0  0  0
   37.0490   27.2000   34.2830 C   0  0  0  0  0  0  0  0  0  0  0  0
   37.7330   27.8410   35.3170 C   0  0  0  0  0  0  0  0  0  0  0  0
   38.7300   27.0740   35.9220 C   0  0  0  0  0  0  0  0  0  0  0  0
   38.9860   25.7880   35.4980 N   0  0  0  0  0  0  0  0  0  0  0  0
   38.2910   25.2250   34.4930 C   0  0  0  0  0  0  0  0  0  0  0  0
   37.3010   25.9500   33.8740 N   0  0  0  0  0  0  0  0  0  0  0  0
   37.5360   28.8450   35.6520 H   0  0  0  0  0  0  0  0  0  0  0  0
   39.3360   27.4500   36.7350 H   0  0  0  0  0  0  0  0  0  0  0  0
   38.4850   24.2180   34.1520 H   0  0  0  0  0  0  0  0  0  0  0  0
   35.1380   30.3410   33.0750 C   0  0  0  0  0  0  0  0  0  0  0  0
   35.2660   31.1160   32.2860 H   0  0  0  0  0  0  0  0  0  0  0  0
   34.2130   29.7820   32.8100 H   0  0  0  0  0  0  0  0  0  0  0  0
   34.9430   30.9470   34.4140 C   0  0  0  0  0  0  0  0  0  0  0  0
   35.8880   31.8790   34.8560 C   0  0  0  0  0  0  0  0  0  0  0  0
   36.7440   32.0910   34.1990 H   0  0  0  0  0  0  0  0  0  0  0  0
   35.8610   32.5670   36.0360 C   0  0  0  0  0  3  0  0  0  0  0  0
   34.8140   32.3350   36.8880 C   0  0  0  0  0  3  0  0  0  0  0  0
   33.8520   31.4260   36.5040 C   0  0  0  0  0  0  0  0  0  0  0  0
   32.7950   31.1750   37.3630 C   0  0  0  0  0  3  0  0  0  0  0  0
   31.8440   30.2420   36.9590 C   0  0  0  0  0  3  0  0  0  0  0  0
   31.9060   29.5690   35.7640 C   0  0  0  0  0  3  0  0  0  0  0  0
   32.9700   29.8410   34.9310 C   0  0  0  0  0  3  0  0  0  0  0  0
   33.9130   30.7490   35.3040 C   0  0  0  0  0  0  0  0  0  0  0  0
  1  4  1  1  0  0  0
  1  8  1  0  0  0  0
  2 17  1  0  0  0  0
  2  5  1  1  0  0  0
  2  1  1  0  0  0  0
  3  2  1  0  0  0  0
  3  1  1  0  0  0  0
  6  3  1  0  0  0  0
  7  3  1  0  0  0  0
  8  9  1  0  0  0  0
  9 14  1  0  0  0  0
  9 10  2  0  0  0  0
 10 15  1  0  0  0  0
 11 10  1  0  0  0  0
 12 11  2  0  0  0  0
 13  8  2  0  0  0  0
 13 12  1  0  0  0  0
 16 12  1  0  0  0  0
 17 20  1  0  0  0  0
 18 17  1  0  0  0  0
 19 17  1  0  0  0  0
 20 21  2  0  0  0  0
 20 30  1  0  0  0  0
 21 23  1  0  0  0  0
 22 21  1  0  0  0  0
 23 24  2  0  0  0  0
 25 24  1  0  0  0  0
 25 26  1  0  0  0  0
 27 26  2  0  0  0  0
 28 27  1  0  0  0  0
 29 30  1  0  0  0  0
 29 28  2  0  0  0  0
 30 25  2  0  0  0  0
M  END
>  <minimizedAffinity>
-5.53155518

$$$$

 OpenBabel03272501133D

 30 33  0  0  1  0  0  0  0  0999 V2000
   36.6970   28.2400   32.5570 C   0  0  1  0  0  0  0  0  0  0  0  0
   35.5110   28.7210   33.2320 C   0  0  1  0  0  0  0  0  0  0  0  0
   36.6050   28.1840   34.0830 C   0  0  0  0  0  0  0  0  0  0  0  0
   37.4770   28.9490   32.1620 H   0  0  0  0  0  0  0  0  0  0  0  0
   34.5970   28.0610   33.2380 H   0  0  0  0  0  0  0  0  0  0  0  0
   37.2810   28.8880   34.5970 H   0  0  0  0  0  0  0  0  0  0  0  0
   36.5030   27.1910   34.5700 H   0  0  0  0  0  0  0  0  0  0  0  0
   36.7520   26.8550   31.9470 C   0  0  0  0  0  0  0  0  0  0  0  0
   35.5490   26.3500   31.4500 C   0  0  0  0  0  0  0  0  0  0  0  0
   35.6310   25.0640   30.9140 C   0  0  0  0  0  0  0  0  0  0  0  0
   36.8280   24.3820   30.8970 N   0  0  0  0  0  0  0  0  0  0  0  0
   37.9550   24.9230   31.3930 C   0  0  0  0  0  0  0  0  0  0  0  0
   37.9120   26.1870   31.9290 N   0  0  0  0  0  0  0  0  0  0  0  0
   34.6120   26.8810   31.4610 H   0  0  0  0  0  0  0  0  0  0  0  0
   34.7730   24.5560   30.4960 H   0  0  0  0  0  0  0  0  0  0  0  0
   38.8990   24.3950   31.3870 H   0  0  0  0  0  0  0  0  0  0  0  0
   35.2000   30.1950   33.1320 C   0  0  0  0  0  0  0  0  0  0  0  0
   35.9630   30.7380   32.5300 H   0  0  0  0  0  0  0  0  0  0  0  0
   34.2500   30.2610   32.5560 H   0  0  0  0  0  0  0  0  0  0  0  0
   34.9840   30.8370   34.4510 C   0  0  0  0  0  0  0  0  0  0  0  0
   35.9520   31.7370   34.9090 C   0  0  0  0  0  0  0  0  0  0  0  0
   36.8390   31.8990   34.2790 H   0  0  0  0  0  0  0  0  0  0  0  0
   35.9140   32.4500   36.0740 C   0  0  0  0  0  3  0  0  0  0  0  0
   34.8290   32.2810   36.8920 C   0  0  0  0  0  3  0  0  0  0  0  0
   33.8430   31.4050   36.4910 C   0  0  0  0  0  0  0  0  0  0  0  0
   32.7460   31.2160   37.3160 C   0  0  0  0  0  3  0  0  0  0  0  0
   31.7700   30.3170   36.8970 C   0  0  0  0  0  3  0  0  0  0  0  0
   31.8450   29.6170   35.7180 C   0  0  0  0  0  3  0  0  0  0  0  0
   32.9490   29.8260   34.9180 C   0  0  0  0  0  3  0  0  0  0  0  0
   33.9160   30.7010   35.3070 C   0  0  0  0  0  0  0  0  0  0  0  0
  1  4  1  6  0  0  0
  1  2  1  0  0  0  0
  1  3  1  0  0  0  0
  2  5  1  6  0  0  0
  2  3  1  0  0  0  0
  3  7  1  0  0  0  0
  3  6  1  0  0  0  0
  8  1  1  0  0  0  0
  9 14  1  0  0  0  0
  9  8  2  0  0  0  0
 10  9  1  0  0  0  0
 11 10  2  0  0  0  0
 11 12  1  0  0  0  0
 12 13  2  0  0  0  0
 13  8  1  0  0  0  0
 15 10  1  0  0  0  0
 16 12  1  0  0  0  0
 17  2  1  0  0  0  0
 17 20  1  0  0  0  0
 18 17  1  0  0  0  0
 19 17  1  0  0  0  0
 20 21  2  0  0  0  0
 20 30  1  0  0  0  0
 21 23  1  0  0  0  0
 22 21  1  0  0  0  0
 23 24  2  0  0  0  0
 25 24  1  0  0  0  0
 25 26  1  0  0  0  0
 27 26  2  0  0  0  0
 28 27  1  0  0  0  0
 29 30  1  0  0  0  0
 29 28  2  0  0  0  0
 30 25  2  0  0  0  0
M  END
>  <minimizedAffinity>
-5.51886034

$$$$

 OpenBabel03272501133D

 30 33  0  0  1  0  0  0  0  0999 V2000
   35.7700   31.2560   35.3860 C   0  0  1  0  0  0  0  0  0  0  0  0
   34.8500   30.5550   34.5170 C   0  0  1  0  0  0  0  0  0  0  0  0
   35.8870   31.3980   33.8680 C   0  0  0  0  0  0  0  0  0  0  0  0
   36.6360   30.7290   35.8750 H   0  0  0  0  0  0  0  0  0  0  0  0
   33.8120   30.9750   34.3910 H   0  0  0  0  0  0  0  0  0  0  0  0
   36.7840   30.9140   33.4420 H   0  0  0  0  0  0  0  0  0  0  0  0
   35.6140   32.3700   33.4050 H   0  0  0  0  0  0  0  0  0  0  0  0
   35.3920   32.5670   36.0440 C   0  0  0  0  0  0  0  0  0  0  0  0
   34.3930   32.5040   37.0180 C   0  0  0  0  0  0  0  0  0  0  0  0
   34.0550   33.7310   37.5890 C   0  0  0  0  0  0  0  0  0  0  0  0
   34.6830   34.8920   37.1910 N   0  0  0  0  0  0  0  0  0  0  0  0
   35.6390   34.8880   36.2450 C   0  0  0  0  0  0  0  0  0  0  0  0
   35.9990   33.6970   35.6610 N   0  0  0  0  0  0  0  0  0  0  0  0
   33.9010   31.6000   37.3320 H   0  0  0  0  0  0  0  0  0  0  0  0
   33.2970   33.8240   38.3550 H   0  0  0  0  0  0  0  0  0  0  0  0
   36.1370   35.7930   35.9240 H   0  0  0  0  0  0  0  0  0  0  0  0
   34.9030   29.0450   34.5170 C   0  0  0  0  0  0  0  0  0  0  0  0
   35.0020   28.6360   35.5470 H   0  0  0  0  0  0  0  0  0  0  0  0
   33.9070   28.7120   34.1490 H   0  0  0  0  0  0  0  0  0  0  0  0
   35.9370   28.4980   33.6070 C   0  0  0  0  0  0  0  0  0  0  0  0
   35.6960   28.5550   32.2300 C   0  0  0  0  0  0  0  0  0  0  0  0
   34.7370   28.9770   31.8950 H   0  0  0  0  0  0  0  0  0  0  0  0
   36.5390   28.1380   31.2390 C   0  0  0  0  0  3  0  0  0  0  0  0
   37.7460   27.6060   31.6070 C   0  0  0  0  0  3  0  0  0  0  0  0
   38.0370   27.5240   32.9520 C   0  0  0  0  0  0  0  0  0  0  0  0
   39.2500   26.9770   33.3370 C   0  0  0  0  0  3  0  0  0  0  0  0
   39.5160   26.8930   34.7000 C   0  0  0  0  0  3  0  0  0  0  0  0
   38.6410   27.3220   35.6680 C   0  0  0  0  0  3  0  0  0  0  0  0
   37.4420   27.8620   35.2540 C   0  0  0  0  0  3  0  0  0  0  0  0
   37.1600   27.9550   33.9250 C   0  0  0  0  0  0  0  0  0  0  0  0
  1  4  1  1  0  0  0
  1  8  1  0  0  0  0
  2  5  1  6  0  0  0
  2 17  1  0  0  0  0
  2  1  1  0  0  0  0
  3  2  1  0  0  0  0
  3  1  1  0  0  0  0
  6  3  1  0  0  0  0
  7  3  1  0  0  0  0
  8  9  1  0  0  0  0
  9 14  1  0  0  0  0
  9 10  2  0  0  0  0
 10 15  1  0  0  0  0
 11 10  1  0  0  0  0
 12 11  2  0  0  0  0
 13  8  2  0  0  0  0
 13 12  1  0  0  0  0
 16 12  1  0  0  0  0
 17 18  1  0  0  0  0
 19 17  1  0  0  0  0
 20 30  1  0  0  0  0
 20 17  1  0  0  0  0
 21 20  2  0  0  0  0
 22 21  1  0  0  0  0
 23 24  2  0  0  0  0
 23 21  1  0  0  0  0
 24 25  1  0  0  0  0
 25 26  2  0  0  0  0
 25 30  1  0  0  0  0
 26 27  1  0  0  0  0
 27 28  2  0  0  0  0
 29 28  1  0  0  0  0
 30 29  2  0  0  0  0
M  END
>  <minimizedAffinity>
-5.45660067

$$$$

 OpenBabel03272501133D

 30 33  0  0  1  0  0  0  0  0999 V2000
   36.1570   24.8420   31.8860 C   0  0  1  0  0  0  0  0  0  0  0  0
   36.3900   26.0820   31.1790 C   0  0  1  0  0  0  0  0  0  0  0  0
   35.1070   25.3800   30.9140 C   0  0  0  0  0  0  0  0  0  0  0  0
   35.8340   24.8300   32.9640 H   0  0  0  0  0  0  0  0  0  0  0  0
   37.0820   26.0660   30.2890 H   0  0  0  0  0  0  0  0  0  0  0  0
   34.1860   25.7390   31.4050 H   0  0  0  0  0  0  0  0  0  0  0  0
   34.9470   24.8420   29.9560 H   0  0  0  0  0  0  0  0  0  0  0  0
   36.7500   23.5340   31.4030 C   0  0  0  0  0  0  0  0  0  0  0  0
   38.0200   23.6070   30.8270 C   0  0  0  0  0  0  0  0  0  0  0  0
   38.5280   22.3880   30.3750 C   0  0  0  0  0  0  0  0  0  0  0  0
   37.7970   21.2270   30.5060 N   0  0  0  0  0  0  0  0  0  0  0  0
   36.5760   21.2220   31.0700 C   0  0  0  0  0  0  0  0  0  0  0  0
   36.0440   22.4030   31.5280 N   0  0  0  0  0  0  0  0  0  0  0  0
   38.5940   24.5110   30.7240 H   0  0  0  0  0  0  0  0  0  0  0  0
   39.5000   22.3030   29.9080 H   0  0  0  0  0  0  0  0  0  0  0  0
   35.9940   20.3170   31.1760 H   0  0  0  0  0  0  0  0  0  0  0  0
   36.4760   27.3480   31.9990 C   0  0  0  0  0  0  0  0  0  0  0  0
   36.6210   28.2460   31.3560 H   0  0  0  0  0  0  0  0  0  0  0  0
   35.4760   27.4660   32.4710 H   0  0  0  0  0  0  0  0  0  0  0  0
   37.4900   27.2750   33.0780 C   0  0  0  0  0  0  0  0  0  0  0  0
   37.0380   27.2340   34.4010 C   0  0  0  0  0  0  0  0  0  0  0  0
   35.9530   27.2880   34.5730 H   0  0  0  0  0  0  0  0  0  0  0  0
   37.8130   27.1310   35.5220 C   0  0  0  0  0  3  0  0  0  0  0  0
   39.1700   27.0610   35.3580 C   0  0  0  0  0  3  0  0  0  0  0  0
   39.6720   27.0980   34.0750 C   0  0  0  0  0  0  0  0  0  0  0  0
   41.0450   27.0400   33.8960 C   0  0  0  0  0  3  0  0  0  0  0  0
   41.5290   27.0920   32.5920 C   0  0  0  0  0  3  0  0  0  0  0  0
   40.7180   27.1970   31.4900 C   0  0  0  0  0  3  0  0  0  0  0  0
   39.3560   27.2530   31.6990 C   0  0  0  0  0  3  0  0  0  0  0  0
   38.8590   27.2030   32.9650 C   0  0  0  0  0  0  0  0  0  0  0  0
  1  4  1  1  0  0  0
  2  5  1  6  0  0  0
  2  1  1  0  0  0  0
  2 17  1  0  0  0  0
  3  2  1  0  0  0  0
  3  6  1  0  0  0  0
  3  1  1  0  0  0  0
  7  3  1  0  0  0  0
  8 13  1  0  0  0  0
  8  1  1  0  0  0  0
  9  8  2  0  0  0  0
 10 11  2  0  0  0  0
 10  9  1  0  0  0  0
 11 12  1  0  0  0  0
 12 16  1  0  0  0  0
 12 13  2  0  0  0  0
 14  9  1  0  0  0  0
 15 10  1  0  0  0  0
 17 19  1  0  0  0  0
 17 20  1  0  0  0  0
 18 17  1  0  0  0  0
 20 21  1  0  0  0  0
 21 22  1  0  0  0  0
 21 23  2  0  0  0  0
 24 23  1  0  0  0  0
 25 24  2  0  0  0  0
 26 25  1  0  0  0  0
 27 26  2  0  0  0  0
 28 29  2  0  0  0  0
 28 27  1  0  0  0  0
 29 30  1  0  0  0  0
 30 20  2  0  0  0  0
 30 25  1  0  0  0  0
M  END
>  <minimizedAffinity>
-5.42833853

$$$$

 OpenBabel03272501133D

 30 33  0  0  1  0  0  0  0  0999 V2000
   35.8170   28.9970   33.9320 C   0  0  1  0  0  0  0  0  0  0  0  0
   35.5450   30.3560   34.3500 C   0  0  1  0  0  0  0  0  0  0  0  0
   34.3740   29.4850   34.0670 C   0  0  0  0  0  0  0  0  0  0  0  0
   36.1130   28.2030   34.6720 H   0  0  0  0  0  0  0  0  0  0  0  0
   35.6620   31.1800   33.5900 H   0  0  0  0  0  0  0  0  0  0  0  0
   33.8260   29.0300   34.9110 H   0  0  0  0  0  0  0  0  0  0  0  0
   33.7760   29.6290   33.1430 H   0  0  0  0  0  0  0  0  0  0  0  0
   36.1660   28.6680   32.4960 C   0  0  0  0  0  0  0  0  0  0  0  0
   36.4300   29.7530   31.6590 C   0  0  0  0  0  0  0  0  0  0  0  0
   36.7270   29.4150   30.3380 C   0  0  0  0  0  0  0  0  0  0  0  0
   36.7470   28.0970   29.9340 N   0  0  0  0  0  0  0  0  0  0  0  0
   36.4830   27.0940   30.7900 C   0  0  0  0  0  0  0  0  0  0  0  0
   36.1860   27.3890   32.0980 N   0  0  0  0  0  0  0  0  0  0  0  0
   36.4160   30.7830   31.9700 H   0  0  0  0  0  0  0  0  0  0  0  0
   36.9510   30.1600   29.5860 H   0  0  0  0  0  0  0  0  0  0  0  0
   36.4930   26.0570   30.4820 H   0  0  0  0  0  0  0  0  0  0  0  0
   35.9520   30.7510   35.7490 C   0  0  0  0  0  0  0  0  0  0  0  0
   35.7610   29.9340   36.4810 H   0  0  0  0  0  0  0  0  0  0  0  0
   37.0580   30.8780   35.7130 H   0  0  0  0  0  0  0  0  0  0  0  0
   35.3550   32.0340   36.1900 C   0  0  0  0  0  0  0  0  0  0  0  0
   34.1670   31.9840   36.9280 C   0  0  0  0  0  0  0  0  0  0  0  0
   33.7220   30.9960   37.1160 H   0  0  0  0  0  0  0  0  0  0  0  0
   33.4890   33.0500   37.4490 C   0  0  0  0  0  3  0  0  0  0  0  0
   34.0040   34.3000   37.2410 C   0  0  0  0  0  3  0  0  0  0  0  0
   35.1740   34.4100   36.5200 C   0  0  0  0  0  0  0  0  0  0  0  0
   35.6990   35.6710   36.2920 C   0  0  0  0  0  3  0  0  0  0  0  0
   36.8730   35.7570   35.5500 C   0  0  0  0  0  3  0  0  0  0  0  0
   37.5260   34.6620   35.0410 C   0  0  0  0  0  3  0  0  0  0  0  0
   36.9790   33.4200   35.2840 C   0  0  0  0  0  3  0  0  0  0  0  0
   35.8310   33.3110   36.0070 C   0  0  0  0  0  0  0  0  0  0  0  0
  1  3  1  0  0  0  0
  1  2  1  0  0  0  0
  1  4  1  1  0  0  0
  2  5  1  6  0  0  0
  2 17  1  0  0  0  0
  3  2  1  0  0  0  0
  3  6  1  0  0  0  0
  7  3  1  0  0  0  0
  8  1  1  0  0  0  0
  9 14  1  0  0  0  0
  9  8  2  0  0  0  0
 10  9  1  0  0  0  0
 11 10  2  0  0  0  0
 11 12  1  0  0  0  0
 12 13  2  0  0  0  0
 13  8  1  0  0  0  0
 15 10  1  0  0  0  0
 16 12  1  0  0  0  0
 17 20  1  0  0  0  0
 17 18  1  0  0  0  0
 19 17  1  0  0  0  0
 20 21  1  0  0  0  0
 21 22  1  0  0  0  0
 21 23  2  0  0  0  0
 24 23  1  0  0  0  0
 25 24  2  0  0  0  0
 26 25  1  0  0  0  0
 27 26  2  0  0  0  0
 28 29  2  0  0  0  0
 28 27  1  0  0  0  0
 29 30  1  0  0  0  0
 30 20  2  0  0  0  0
 30 25  1  0  0  0  0
M  END
>  <minimizedAffinity>
-5.38253021

$$$$

 OpenBabel03272501133D

 30 33  0  0  1  0  0  0  0  0999 V2000
   36.3360   27.6720   32.9690 C   0  0  1  0  0  0  0  0  0  0  0  0
   36.3060   29.1140   32.8550 C   0  0  1  0  0  0  0  0  0  0  0  0
   37.1670   28.3750   31.8950 C   0  0  0  0  0  0  0  0  0  0  0  0
   35.5010   27.0330   32.5690 H   0  0  0  0  0  0  0  0  0  0  0  0
   36.9050   29.7190   33.5940 H   0  0  0  0  0  0  0  0  0  0  0  0
   36.8030   28.2060   30.8670 H   0  0  0  0  0  0  0  0  0  0  0  0
   38.2720   28.3880   32.0050 H   0  0  0  0  0  0  0  0  0  0  0  0
   37.2120   26.9790   33.9920 C   0  0  0  0  0  0  0  0  0  0  0  0
   37.5240   25.6420   33.7350 C   0  0  0  0  0  0  0  0  0  0  0  0
   38.3150   25.0290   34.7070 C   0  0  0  0  0  0  0  0  0  0  0  0
   38.7340   25.7270   35.8190 N   0  0  0  0  0  0  0  0  0  0  0  0
   38.4000   27.0160   36.0110 C   0  0  0  0  0  0  0  0  0  0  0  0
   37.6220   27.6530   35.0740 N   0  0  0  0  0  0  0  0  0  0  0  0
   37.1990   25.0950   32.8680 H   0  0  0  0  0  0  0  0  0  0  0  0
   38.6280   23.9960   34.6320 H   0  0  0  0  0  0  0  0  0  0  0  0
   38.7220   27.5710   36.8810 H   0  0  0  0  0  0  0  0  0  0  0  0
   34.9980   29.7560   32.4560 C   0  0  0  0  0  0  0  0  0  0  0  0
   35.1590   30.6960   31.8810 H   0  0  0  0  0  0  0  0  0  0  0  0
   34.5190   29.0420   31.7490 H   0  0  0  0  0  0  0  0  0  0  0  0
   34.0770   29.9630   33.5990 C   0  0  0  0  0  0  0  0  0  0  0  0
   32.8360   29.3190   33.5660 C   0  0  0  0  0  0  0  0  0  0  0  0
   32.5950   28.7160   32.6780 H   0  0  0  0  0  0  0  0  0  0  0  0
   31.8740   29.3580   34.5350 C   0  0  0  0  0  3  0  0  0  0  0  0
   32.1270   30.0970   35.6590 C   0  0  0  0  0  3  0  0  0  0  0  0
   33.3360   30.7540   35.7470 C   0  0  0  0  0  0  0  0  0  0  0  0
   33.5990   31.5140   36.8740 C   0  0  0  0  0  3  0  0  0  0  0  0
   34.8210   32.1790   36.9330 C   0  0  0  0  0  3  0  0  0  0  0  0
   35.7630   32.1160   35.9370 C   0  0  0  0  0  3  0  0  0  0  0  0
   35.4720   31.3520   34.8270 C   0  0  0  0  0  3  0  0  0  0  0  0
   34.2840   30.6920   34.7470 C   0  0  0  0  0  0  0  0  0  0  0  0
  1  4  1  6  0  0  0
  1  8  1  0  0  0  0
  2  1  1  0  0  0  0
  2  5  1  1  0  0  0
  3  7  1  0  0  0  0
  3  2  1  0  0  0  0
  3  1  1  0  0  0  0
  6  3  1  0  0  0  0
  8 13  1  0  0  0  0
  9  8  2  0  0  0  0
  9 10  1  0  0  0  0
 10 11  2  0  0  0  0
 11 12  1  0  0  0  0
 12 16  1  0  0  0  0
 13 12  2  0  0  0  0
 14  9  1  0  0  0  0
 15 10  1  0  0  0  0
 17  2  1  0  0  0  0
 17 20  1  0  0  0  0
 18 17  1  0  0  0  0
 19 17  1  0  0  0  0
 20 30  1  0  0  0  0
 21 20  2  0  0  0  0
 21 23  1  0  0  0  0
 22 21  1  0  0  0  0
 23 24  2  0  0  0  0
 24 25  1  0  0  0  0
 25 26  1  0  0  0  0
 26 27  2  0  0  0  0
 28 27  1  0  0  0  0
 29 28  2  0  0  0  0
 30 29  1  0  0  0  0
 30 25  2  0  0  0  0
M  END
>  <minimizedAffinity>
-5.35761786

$$$$

 OpenBabel03272501133D

 30 33  0  0  1  0  0  0  0  0999 V2000
   35.9400   24.6470   31.7690 C   0  0  1  0  0  0  0  0  0  0  0  0
   36.2750   25.6410   30.7730 C   0  0  1  0  0  0  0  0  0  0  0  0
   34.8640   25.1790   30.8230 C   0  0  0  0  0  0  0  0  0  0  0  0
   35.7900   24.9230   32.8500 H   0  0  0  0  0  0  0  0  0  0  0  0
   36.8080   25.3010   29.8400 H   0  0  0  0  0  0  0  0  0  0  0  0
   34.1080   25.8130   31.3180 H   0  0  0  0  0  0  0  0  0  0  0  0
   34.4660   24.5000   30.0390 H   0  0  0  0  0  0  0  0  0  0  0  0
   36.2120   23.1750   31.5380 C   0  0  0  0  0  0  0  0  0  0  0  0
   37.4310   22.8580   30.9370 C   0  0  0  0  0  0  0  0  0  0  0  0
   37.6400   21.4950   30.7200 C   0  0  0  0  0  0  0  0  0  0  0  0
   36.6890   20.5680   31.0870 N   0  0  0  0  0  0  0  0  0  0  0  0
   35.5310   20.9370   31.6630 C   0  0  0  0  0  0  0  0  0  0  0  0
   35.2900   22.2700   31.8920 N   0  0  0  0  0  0  0  0  0  0  0  0
   38.1770   23.5790   30.6500 H   0  0  0  0  0  0  0  0  0  0  0  0
   38.5430   21.1140   30.2620 H   0  0  0  0  0  0  0  0  0  0  0  0
   34.7770   20.2170   31.9520 H   0  0  0  0  0  0  0  0  0  0  0  0
   36.7090   27.0020   31.2640 C   0  0  0  0  0  0  0  0  0  0  0  0
   36.6130   27.7760   30.4690 H   0  0  0  0  0  0  0  0  0  0  0  0
   35.9770   27.2810   32.0550 H   0  0  0  0  0  0  0  0  0  0  0  0
   38.0630   27.0000   31.8670 C   0  0  0  0  0  0  0  0  0  0  0  0
   39.1650   27.0020   31.0050 C   0  0  0  0  0  0  0  0  0  0  0  0
   38.9690   26.9740   29.9230 H   0  0  0  0  0  0  0  0  0  0  0  0
   40.4820   27.0370   31.3690 C   0  0  0  0  0  3  0  0  0  0  0  0
   40.7750   27.0720   32.7060 C   0  0  0  0  0  3  0  0  0  0  0  0
   39.7280   27.0720   33.6020 C   0  0  0  0  0  0  0  0  0  0  0  0
   40.0130   27.0960   34.9570 C   0  0  0  0  0  3  0  0  0  0  0  0
   38.9390   27.0810   35.8430 C   0  0  0  0  0  3  0  0  0  0  0  0
   37.6280   27.0450   35.4380 C   0  0  0  0  0  3  0  0  0  0  0  0
   37.3760   27.0220   34.0830 C   0  0  0  0  0  3  0  0  0  0  0  0
   38.4100   27.0360   33.1980 C   0  0  0  0  0  0  0  0  0  0  0  0
  1  4  1  1  0  0  0
  2  5  1  6  0  0  0
  2  3  1  0  0  0  0
  2 17  1  0  0  0  0
  2  1  1  0  0  0  0
  3  6  1  0  0  0  0
  3  1  1  0  0  0  0
  7  3  1  0  0  0  0
  8  1  1  0  0  0  0
  8 13  1  0  0  0  0
  9  8  2  0  0  0  0
 10  9  1  0  0  0  0
 10 11  2  0  0  0  0
 11 12  1  0  0  0  0
 12 13  2  0  0  0  0
 12 16  1  0  0  0  0
 14  9  1  0  0  0  0
 15 10  1  0  0  0  0
 17 20  1  0  0  0  0
 17 19  1  0  0  0  0
 18 17  1  0  0  0  0
 20 30  1  0  0  0  0
 21 23  1  0  0  0  0
 21 20  2  0  0  0  0
 22 21  1  0  0  0  0
 23 24  2  0  0  0  0
 24 25  1  0  0  0  0
 25 26  1  0  0  0  0
 26 27  2  0  0  0  0
 28 27  1  0  0  0  0
 29 28  2  0  0  0  0
 30 25  2  0  0  0  0
 30 29  1  0  0  0  0
M  END
>  <minimizedAffinity>
-5.3267746

$$$$
