
 OpenBabel03272509343D

 43 48  0  0  1  0  0  0  0  0999 V2000
   37.2240   30.9320   46.2860 C   0  0  1  0  0  0  0  0  0  0  0  0
   38.4100   31.7720   46.5210 C   0  0  0  0  0  0  0  0  0  0  0  0
   38.6430   30.4600   45.8660 C   0  0  2  0  0  0  0  0  0  0  0  0
   36.6140   31.0740   45.4070 H   0  0  0  0  0  0  0  0  0  0  0  0
   38.3030   32.7520   46.0770 H   0  0  0  0  0  0  0  0  0  0  0  0
   38.6700   31.8680   47.6290 H   0  0  0  0  0  0  0  0  0  0  0  0
   38.8100   29.4750   46.2500 H   0  0  0  0  0  0  0  0  0  0  0  0
   39.0660   30.6450   44.4510 C   0  0  0  0  0  0  0  0  0  0  0  0
   39.3340   31.9990   44.1990 C   0  0  0  0  0  0  0  0  0  0  0  0
   39.8270   32.4150   42.9820 C   0  0  0  0  0  0  0  0  0  0  0  0
   40.0750   31.4910   41.9610 C   0  0  0  0  0  0  0  0  0  0  0  0
   39.8040   30.1710   42.2370 C   0  0  0  0  0  0  0  0  0  0  0  0
   39.9900   29.1580   41.3160 C   0  0  0  0  0  0  0  0  0  0  0  0
   39.7080   27.8260   41.5780 C   0  0  0  0  0  0  0  0  0  0  0  0
   39.2150   27.4780   42.8240 C   0  0  0  0  0  0  0  0  0  0  0  0
   39.0280   28.4810   43.7470 C   0  0  0  0  0  0  0  0  0  0  0  0
   39.3180   29.7850   43.4490 C   0  0  0  0  0  0  0  0  0  0  0  0
   39.2820   32.9250   44.7340 H   0  0  0  0  0  0  0  0  0  0  0  0
   40.0820   33.3980   42.6260 H   0  0  0  0  0  0  0  0  0  0  0  0
   40.4560   31.6450   40.9570 H   0  0  0  0  0  0  0  0  0  0  0  0
   40.3750   29.3880   40.3280 H   0  0  0  0  0  0  0  0  0  0  0  0
   39.8670   27.0600   40.8280 H   0  0  0  0  0  0  0  0  0  0  0  0
   38.9760   26.4610   43.0930 H   0  0  0  0  0  0  0  0  0  0  0  0
   38.6340   28.1810   44.7360 H   0  0  0  0  0  0  0  0  0  0  0  0
   34.8960   28.8160   48.3530 C   0  0  0  0  0  0  0  0  0  0  0  0
   35.4290   29.5450   47.2430 C   0  0  0  0  0  0  0  0  0  0  0  0
   36.6470   30.1650   47.4040 C   0  0  0  0  0  0  0  0  0  0  0  0
   37.2280   30.0210   48.6070 N   0  0  0  0  0  0  0  0  0  0  0  0
   36.7660   29.3540   49.6500 C   0  0  0  0  0  0  0  0  0  0  0  0
   35.5540   28.7280   49.5190 N   0  0  0  0  0  0  0  0  0  0  0  0
   33.9450   28.3540   48.1710 H   0  0  0  0  0  0  0  0  0  0  0  0
   34.8930   29.6060   46.3150 H   0  0  0  0  0  0  0  0  0  0  0  0
   37.3490   29.1550   50.9600 C   0  0  0  0  0  0  0  0  0  0  0  0
   37.1650   30.0680   51.9990 C   0  0  0  0  0  0  0  0  0  0  0  0
   36.5640   30.9750   51.8400 H   0  0  0  0  0  0  0  0  0  0  0  0
   37.6800   29.9490   53.2580 C   0  0  0  0  0  3  0  0  0  0  0  0
   38.4470   28.8610   53.5800 C   0  0  0  0  0  3  0  0  0  0  0  0
   38.6820   27.9080   52.6170 C   0  0  0  0  0  0  0  0  0  0  0  0
   39.4430   26.8310   52.9580 C   0  0  0  0  0  3  0  0  0  0  0  0
   39.7120   25.8370   52.0420 C   0  0  0  0  0  3  0  0  0  0  0  0
   39.1690   25.9910   50.7640 C   0  0  0  0  0  3  0  0  0  0  0  0
   38.4070   27.1000   50.4800 C   0  0  0  0  0  3  0  0  0  0  0  0
   38.1280   28.1020   51.3750 C   0  0  0  0  0  0  0  0  0  0  0  0
  1  4  1  6  0  0  0
  1  2  1  0  0  0  0
  1 27  1  0  0  0  0
  2  6  1  0  0  0  0
  3  7  1  1  0  0  0
  3  1  1  0  0  0  0
  3  2  1  0  0  0  0
  5  2  1  0  0  0  0
  8  3  1  0  0  0  0
  9  8  1  0  0  0  0
  9 18  1  0  0  0  0
 10  9  2  0  0  0  0
 11 12  2  0  0  0  0
 11 10  1  0  0  0  0
 12 17  1  0  0  0  0
 13 14  2  0  0  0  0
 13 12  1  0  0  0  0
 14 15  1  0  0  0  0
 15 23  1  0  0  0  0
 15 16  2  0  0  0  0
 16 24  1  0  0  0  0
 17 16  1  0  0  0  0
 17  8  2  0  0  0  0
 19 10  1  0  0  0  0
 20 11  1  0  0  0  0
 21 13  1  0  0  0  0
 22 14  1  0  0  0  0
 25 30  1  0  0  0  0
 26 27  1  0  0  0  0
 26 25  2  0  0  0  0
 27 28  2  0  0  0  0
 28 29  1  0  0  0  0
 29 33  1  0  0  0  0
 30 29  2  0  0  0  0
 31 25  1  0  0  0  0
 32 26  1  0  0  0  0
 33 43  2  0  0  0  0
 33 34  1  0  0  0  0
 34 36  2  0  0  0  0
 35 34  1  0  0  0  0
 36 37  1  0  0  0  0
 38 39  1  0  0  0  0
 38 37  2  0  0  0  0
 40 39  2  0  0  0  0
 41 40  1  0  0  0  0
 42 41  2  0  0  0  0
 42 43  1  0  0  0  0
 43 38  1  0  0  0  0
M  END
>  <minimizedAffinity>
1.32288098

>  <minimizedRMSD>
2.27801299

$$$$
