
 OpenBabel03272504123D

 23 25  0  0  0  0  0  0  0  0999 V2000
   36.6850   29.9000   49.5050 C   0  0  0  0  0  0  0  0  0  0  0  0
   37.7750   30.3580   48.7840 C   0  0  0  0  0  0  0  0  0  0  0  0
   37.6830   30.7470   47.4660 C   0  0  0  0  0  0  0  0  0  0  0  0
   36.4120   30.6450   46.9290 N   0  0  0  0  0  0  0  0  0  0  0  0
   35.3630   30.2040   47.6320 C   0  0  0  0  0  0  0  0  0  0  0  0
   35.5060   29.8370   48.9040 N   0  0  0  0  0  0  0  0  0  0  0  0
   38.6770   30.4370   49.3110 H   0  0  0  0  0  0  0  0  0  0  0  0
   34.3940   30.1460   47.1580 H   0  0  0  0  0  0  0  0  0  0  0  0
   38.6570   31.3040   46.5810 C   0  0  0  0  0  0  0  0  0  0  0  0
   39.2120   32.5420   46.9410 C   0  0  0  0  0  0  0  0  0  0  0  0
   38.8920   33.0280   47.8770 H   0  0  0  0  0  0  0  0  0  0  0  0
   40.1470   33.2380   46.2240 C   0  0  0  0  0  0  0  0  0  0  0  0
   40.6020   32.7030   45.0410 C   0  0  0  0  0  0  0  0  0  0  0  0
   40.1080   31.5060   44.6230 C   0  0  0  0  0  0  0  0  0  0  0  0
   40.5330   30.9800   43.4220 C   0  0  0  0  0  0  0  0  0  0  0  0
   40.0320   29.7770   42.9280 C   0  0  0  0  0  0  0  0  0  0  0  0
   39.0730   29.1320   43.7180 C   0  0  0  0  0  0  0  0  0  0  0  0
   38.6930   29.6990   44.8970 C   0  0  0  0  0  0  0  0  0  0  0  0
   39.1770   30.8790   45.3990 C   0  0  0  0  0  0  0  0  0  0  0  0
   36.8740   29.4970   50.9260 C   0  0  0  0  0  0  0  0  0  0  0  0
   35.6530   29.1270   51.4690 F   0  0  0  0  0  0  0  0  0  0  0  0
   37.8210   28.4970   50.9550 F   0  0  0  0  0  0  0  0  0  0  0  0
   37.3320   30.6010   51.6310 F   0  0  0  0  0  0  0  0  0  0  0  0
  1 20  1  0  0  0  0
  2  7  1  0  0  0  0
  2  1  2  0  0  0  0
  3  2  1  0  0  0  0
  4  3  2  0  0  0  0
  4  5  1  0  0  0  0
  5  6  2  0  0  0  0
  6  1  1  0  0  0  0
  8  5  1  0  0  0  0
  9 10  1  0  0  0  0
  9  3  1  0  0  0  0
 10 11  1  0  0  0  0
 12 10  2  0  0  0  0
 13 12  1  0  0  0  0
 14 13  2  0  0  0  0
 14 19  1  0  0  0  0
 15 14  1  0  0  0  0
 16 15  2  0  0  0  0
 16 17  1  0  0  0  0
 17 18  2  0  0  0  0
 18 19  1  0  0  0  0
 19  9  2  0  0  0  0
 20 22  1  0  0  0  0
 20 21  1  0  0  0  0
 20 23  1  0  0  0  0
M  END
>  <minimizedAffinity>
-7.17465591

>  <minimizedRMSD>
3.2345686

$$$$
