
     RDKit          3D

 38 41  0  0  0  0  0  0  0  0999 V2000
   35.4262   29.2171   48.7570 C   0  0  0  0  0  0  0  0  0  0  0  0
   35.0049   29.9992   47.6883 C   0  0  0  0  0  0  0  0  0  0  0  0
   33.8084   29.6830   47.0337 C   0  0  0  0  0  0  0  0  0  0  0  0
   33.1153   28.5882   47.5100 N   0  0  0  0  0  0  0  0  0  0  0  0
   33.5635   27.8498   48.5595 C   0  0  0  0  0  0  0  0  0  0  0  0
   34.7338   28.1707   49.1888 N   0  0  0  0  0  0  0  0  0  0  0  0
   36.6419   29.5703   49.3793 N   0  0  0  0  0  0  0  0  0  0  0  0
   37.6481   30.4966   48.8721 C   0  0  0  0  0  0  0  0  0  0  0  0
   38.2681   31.0430   50.1398 C   0  0  0  0  0  0  0  0  0  0  0  0
   37.5306   30.4011   51.2961 C   0  0  1  0  0  0  0  0  0  0  0  0
   37.1502   29.0749   50.6594 C   0  0  0  0  0  0  0  0  0  0  0  0
   35.4936   30.8503   47.2784 H   0  0  0  0  0  0  0  0  0  0  0  0
   33.4005   30.2286   46.1974 H   0  0  0  0  0  0  0  0  0  0  0  0
   32.9459   26.9955   48.8703 H   0  0  0  0  0  0  0  0  0  0  0  0
   37.2416   31.2702   48.2248 H   0  0  0  0  0  0  0  0  0  0  0  0
   38.4019   29.8397   48.3678 H   0  0  0  0  0  0  0  0  0  0  0  0
   39.3585   30.8567   50.1852 H   0  0  0  0  0  0  0  0  0  0  0  0
   38.1669   32.1508   50.1118 H   0  0  0  0  0  0  0  0  0  0  0  0
   36.6559   31.0286   51.5006 H   0  0  0  0  0  0  0  0  0  0  0  0
   36.4440   28.4787   51.2234 H   0  0  0  0  0  0  0  0  0  0  0  0
   38.1267   28.5598   50.4264 H   0  0  0  0  0  0  0  0  0  0  0  0
   38.4651   30.2203   52.3872 C   0  0  0  0  0  0  0  0  0  0  0  0
   38.3976   29.3196   53.4249 C   0  0  0  0  0  0  0  0  0  0  0  0
   37.5825   28.6461   53.4800 H   0  0  0  0  0  0  0  0  0  0  0  0
   39.3146   29.1950   54.4473 C   0  0  0  0  0  0  0  0  0  0  0  0
   40.4108   30.0329   54.4625 C   0  0  0  0  0  0  0  0  0  0  0  0
   40.5389   30.9602   53.4498 C   0  0  0  0  0  0  0  0  0  0  0  0
   41.6542   31.7566   53.5312 C   0  0  0  0  0  0  0  0  0  0  0  0
   41.8677   32.7081   52.5669 C   0  0  0  0  0  0  0  0  0  0  0  0
   40.9618   32.8425   51.5421 C   0  0  0  0  0  0  0  0  0  0  0  0
   39.8732   32.0190   51.5194 C   0  0  0  0  0  0  0  0  0  0  0  0
   39.5949   31.0429   52.4528 C   0  0  0  0  0  0  0  0  0  0  0  0
   39.2057   28.4647   55.2370 H   0  0  0  0  0  0  0  0  0  0  0  0
   41.1322   29.9415   55.2588 H   0  0  0  0  0  0  0  0  0  0  0  0
   42.3764   31.6724   54.3198 H   0  0  0  0  0  0  0  0  0  0  0  0
   42.7408   33.3384   52.6222 H   0  0  0  0  0  0  0  0  0  0  0  0
   41.1624   33.5968   50.8072 H   0  0  0  0  0  0  0  0  0  0  0  0
   39.2058   32.1802   50.6848 H   0  0  0  0  0  0  0  0  0  0  0  0
  1  6  1  0
  1  7  1  0
  2  1  2  0
  3  4  2  0
  3  2  1  0
  4  5  1  0
  5  6  2  0
  7 11  1  0
  8  7  1  0
  8  9  1  0
  9 10  1  0
 11 10  1  0
  2 12  1  0
  3 13  1  0
  5 14  1  0
  8 15  1  0
  8 16  1  0
  9 17  1  0
  9 18  1  0
 10 19  1  1
 11 20  1  0
 11 21  1  0
 22 23  2  0
 23 24  1  0
 23 25  1  0
 25 26  2  0
 26 27  1  0
 27 28  2  0
 28 29  1  0
 29 30  2  0
 30 31  1  0
 31 32  2  0
 32 22  1  0
 32 27  1  0
 25 33  1  0
 26 34  1  0
 28 35  1  0
 29 36  1  0
 30 37  1  0
 31 38  1  0
 10 22  1  0
M  ISO  8  12  14  13  14  14  14  15  13  16  13  17  13  18  13  19  13
M  ISO  3  20  13  21  13  24  15
M  END
>  <DihAtoms>  (1) 
8,9,21,22

>  <DihDeg>  (1) 
-96.3119527361622

$$$$
