
 OpenBabel03272509473D

 27 29  0  0  0  0  0  0  0  0999 V2000
   33.8310   27.1010   47.9880 C   0  0  0  0  0  0  0  0  0  0  0  0
   34.5800   26.4750   47.4800 H   0  0  0  0  0  0  0  0  0  0  0  0
   33.5670   26.5170   48.9190 H   0  0  0  0  0  0  0  0  0  0  0  0
   32.6190   27.2980   47.1690 C   0  0  0  0  0  0  0  0  0  0  0  0
   31.4550   27.6830   47.8230 C   0  0  0  0  0  0  0  0  0  0  0  0
   31.4730   27.8420   48.8950 H   0  0  0  0  0  0  0  0  0  0  0  0
   30.2290   27.8940   47.2360 C   0  0  0  0  0  3  0  0  0  0  0  0
   30.1750   27.6970   45.8520 C   0  0  0  0  0  3  0  0  0  0  0  0
   31.3070   27.3140   45.1600 C   0  0  0  0  0  0  0  0  0  0  0  0
   31.3140   27.1090   43.7960 C   0  0  0  0  0  3  0  0  0  0  0  0
   32.4290   26.7310   43.0740 C   0  0  0  0  0  3  0  0  0  0  0  0
   33.5890   26.5550   43.7780 C   0  0  0  0  0  3  0  0  0  0  0  0
   33.6520   26.7410   45.1320 C   0  0  0  0  0  3  0  0  0  0  0  0
   32.5170   27.1160   45.8080 C   0  0  0  0  0  0  0  0  0  0  0  0
   34.3900   28.4110   48.4310 C   0  0  0  0  0  0  0  0  0  0  0  0
   33.6760   29.2210   48.3210 H   0  0  0  0  0  0  0  0  0  0  0  0
   35.2310   28.6540   47.7260 H   0  0  0  0  0  0  0  0  0  0  0  0
   34.8890   28.3270   49.7520 O   0  0  0  0  0  0  0  0  0  0  0  0
   37.4200   30.2900   51.4740 C   0  0  0  0  0  0  0  0  0  0  0  0
   38.1400   30.7680   50.3820 C   0  0  0  0  0  0  0  0  0  0  0  0
   37.7320   30.4000   49.1020 C   0  0  0  0  0  0  0  0  0  0  0  0
   36.6320   29.5810   49.0260 N   0  0  0  0  0  0  0  0  0  0  0  0
   35.9620   29.1390   50.0900 C   0  0  0  0  0  0  0  0  0  0  0  0
   36.3620   29.4990   51.3190 N   0  0  0  0  0  0  0  0  0  0  0  0
   37.7770   30.6030   52.4360 H   0  0  0  0  0  0  0  0  0  0  0  0
   39.0120   31.4130   50.3940 H   0  0  0  0  0  0  0  0  0  0  0  0
   38.2190   30.7140   48.1740 H   0  0  0  0  0  0  0  0  0  0  0  0
  1 15  1  0  0  0  0
  1  3  1  0  0  0  0
  2  1  1  0  0  0  0
  4  5  1  0  0  0  0
  4  1  1  0  0  0  0
  5  6  1  0  0  0  0
  7  5  2  0  0  0  0
  8  7  1  0  0  0  0
  9 14  1  0  0  0  0
  9  8  2  0  0  0  0
 10  9  1  0  0  0  0
 11 12  1  0  0  0  0
 11 10  2  0  0  0  0
 12 13  2  0  0  0  0
 13 14  1  0  0  0  0
 14  4  2  0  0  0  0
 15 18  1  0  0  0  0
 16 15  1  0  0  0  0
 17 15  1  0  0  0  0
 18 23  1  0  0  0  0
 19 25  1  0  0  0  0
 20 26  1  0  0  0  0
 20 19  2  0  0  0  0
 21 20  1  0  0  0  0
 22 21  2  0  0  0  0
 22 23  1  0  0  0  0
 23 24  2  0  0  0  0
 24 19  1  0  0  0  0
 27 21  1  0  0  0  0
M  END
>  <minimizedAffinity>
-4.13887548

>  <minimizedRMSD>
1.5539366

$$$$
