REMARK  Name = 
REMARK  4 active torsions:
REMARK  status: ('A' for Active; 'I' for Inactive)
REMARK    1  A    between atoms: C_1  and  C_4
REMARK    2  A    between atoms: C_2  and  C_10
REMARK    3  A    between atoms: C_10  and  C_11
REMARK    4  A    between atoms: C_14  and  C_27
REMARK                            x       y       z     vdW  Elec       q    Type
REMARK                         _______ _______ _______ _____ _____    ______ ____
ROOT
ATOM      1  C   UNL     1      35.090  29.295  50.510  0.00  0.00    +0.000 C 
ATOM      2  H   UNL     1      35.123  28.396  51.158  0.00  0.00    +0.000 HD
ATOM      3  H   UNL     1      34.561  30.079  51.112  0.00  0.00    +0.000 HD
ENDROOT
BRANCH   1   5
ATOM      4  C   UNL     1      36.780  31.158  50.181  0.00  0.00    +0.000 C 
ATOM      5  C   UNL     1      36.464  29.765  50.123  0.00  0.00    +0.000 C 
ATOM      6  C   UNL     1      37.492  30.172  51.132  0.00  0.00    +0.000 C 
ATOM      7  H   UNL     1      36.131  31.908  50.719  0.00  0.00    +0.000 HD
ATOM      8  H   UNL     1      36.841  29.200  49.215  0.00  0.00    +0.000 HD
ATOM      9  H   UNL     1      37.142  30.126  52.182  0.00  0.00    +0.000 HD
ATOM     10  H   UNL     1      38.522  29.884  50.913  0.00  0.00    +0.000 HD
BRANCH   4  11
ATOM     11  C   UNL     1      37.755  31.795  49.218  0.00  0.00    +0.000 A 
ATOM     12  C   UNL     1      38.213  33.063  49.554  0.00  0.00    +0.000 A 
ATOM     13  C   UNL     1      39.102  33.649  48.634  0.00  0.00    +0.000 A 
ATOM     14  N   UNL     1      39.457  32.970  47.501  0.00  0.00    +0.000 NA
ATOM     15  C   UNL     1      38.981  31.723  47.212  0.00  0.00    +0.000 A 
ATOM     16  N   UNL     1      38.112  31.129  48.093  0.00  0.00    +0.000 NA
ATOM     17  H   UNL     1      37.925  33.574  50.439  0.00  0.00    +0.000 HD
ATOM     18  H   UNL     1      39.508  34.629  48.812  0.00  0.00    +0.000 HD
ATOM     19  H   UNL     1      39.267  31.202  46.321  0.00  0.00    +0.000 HD
ENDBRANCH   4  11
ENDBRANCH   1   5
BRANCH   1  20
ATOM     20  C   UNL     1      34.212  29.049  49.325  0.00  0.00    +0.000 A 
ATOM     21  C   UNL     1      34.205  29.846  48.209  0.00  0.00    +0.000 A 
ATOM     22  N   UNL     1      33.331  29.384  47.326  0.00  0.00    +0.000 N 
ATOM     23  C   UNL     1      32.773  28.304  47.842  0.00  0.00    +0.000 A 
ATOM     24  N   UNL     1      33.312  28.105  49.060  0.00  0.00    +0.000 NA
ATOM     25  H   UNL     1      34.841  30.739  48.083  0.00  0.00    +0.000 HD
ATOM     26  H   UNL     1      33.146  29.850  46.443  0.00  0.00    +0.000 HD
BRANCH  23  27
ATOM     27  C   UNL     1      31.825  27.307  47.386  0.00  0.00    +0.000 A 
ATOM     28  C   UNL     1      31.344  26.326  48.266  0.00  0.00    +0.000 A 
ATOM     29  H   UNL     1      31.681  26.328  49.301  0.00  0.00    +0.000 HD
ATOM     30  C   UNL     1      30.459  25.329  47.949  0.00  0.00    +0.000 A 
ATOM     31  C   UNL     1      29.975  25.241  46.671  0.00  0.00    +0.000 A 
ATOM     32  C   UNL     1      30.399  26.163  45.745  0.00  0.00    +0.000 A 
ATOM     33  C   UNL     1      29.916  26.021  44.477  0.00  0.00    +0.000 A 
ATOM     34  C   UNL     1      30.305  26.866  43.486  0.00  0.00    +0.000 A 
ATOM     35  C   UNL     1      31.212  27.869  43.833  0.00  0.00    +0.000 A 
ATOM     36  C   UNL     1      31.657  27.955  45.128  0.00  0.00    +0.000 A 
ATOM     37  C   UNL     1      31.281  27.123  46.145  0.00  0.00    +0.000 A 
ENDBRANCH  23  27
ENDBRANCH   1  20
TORSDOF 4
