
 OpenBabel03272509473D

 27 29  0  0  0  0  0  0  0  0999 V2000
   32.8920   27.4460   48.2040 C   0  0  0  0  0  0  0  0  0  0  0  0
   33.1400   27.4830   47.1320 H   0  0  0  0  0  0  0  0  0  0  0  0
   33.3500   26.4770   48.5620 H   0  0  0  0  0  0  0  0  0  0  0  0
   31.4350   27.4190   48.4400 C   0  0  0  0  0  0  0  0  0  0  0  0
   30.9610   27.9910   49.6130 C   0  0  0  0  0  0  0  0  0  0  0  0
   31.6610   28.4490   50.3040 H   0  0  0  0  0  0  0  0  0  0  0  0
   29.6470   28.0450   50.0160 C   0  0  0  0  0  3  0  0  0  0  0  0
   28.7200   27.4630   49.1440 C   0  0  0  0  0  3  0  0  0  0  0  0
   29.1450   26.8820   47.9650 C   0  0  0  0  0  0  0  0  0  0  0  0
   28.2760   26.2980   47.0660 C   0  0  0  0  0  3  0  0  0  0  0  0
   28.6680   25.7130   45.8780 C   0  0  0  0  0  3  0  0  0  0  0  0
   30.0070   25.7280   45.5950 C   0  0  0  0  0  3  0  0  0  0  0  0
   30.9220   26.2910   46.4420 C   0  0  0  0  0  3  0  0  0  0  0  0
   30.4860   26.8590   47.6140 C   0  0  0  0  0  0  0  0  0  0  0  0
   33.5330   28.5500   48.9760 C   0  0  0  0  0  0  0  0  0  0  0  0
   32.8200   29.0870   49.5940 H   0  0  0  0  0  0  0  0  0  0  0  0
   33.8990   29.2970   48.2190 H   0  0  0  0  0  0  0  0  0  0  0  0
   34.6270   28.0690   49.7330 O   0  0  0  0  0  0  0  0  0  0  0  0
   37.1530   30.2200   51.2210 C   0  0  0  0  0  0  0  0  0  0  0  0
   37.7950   30.6710   50.0710 C   0  0  0  0  0  0  0  0  0  0  0  0
   37.3390   30.2230   48.8330 C   0  0  0  0  0  0  0  0  0  0  0  0
   36.2740   29.3560   48.8550 N   0  0  0  0  0  0  0  0  0  0  0  0
   35.6790   28.9410   49.9740 C   0  0  0  0  0  0  0  0  0  0  0  0
   36.1240   29.3780   51.1610 N   0  0  0  0  0  0  0  0  0  0  0  0
   37.5450   30.5960   52.1470 H   0  0  0  0  0  0  0  0  0  0  0  0
   38.6370   31.3520   50.0060 H   0  0  0  0  0  0  0  0  0  0  0  0
   37.7640   30.5090   47.8670 H   0  0  0  0  0  0  0  0  0  0  0  0
  1  4  1  0  0  0  0
  1  3  1  0  0  0  0
  1 15  1  0  0  0  0
  2  1  1  0  0  0  0
  4  5  1  0  0  0  0
  5  7  2  0  0  0  0
  5  6  1  0  0  0  0
  8  7  1  0  0  0  0
  9  8  2  0  0  0  0
 10  9  1  0  0  0  0
 11 10  2  0  0  0  0
 12 11  1  0  0  0  0
 12 13  2  0  0  0  0
 13 14  1  0  0  0  0
 14  9  1  0  0  0  0
 14  4  2  0  0  0  0
 15 16  1  0  0  0  0
 15 18  1  0  0  0  0
 17 15  1  0  0  0  0
 18 23  1  0  0  0  0
 19 25  1  0  0  0  0
 20 19  2  0  0  0  0
 21 22  2  0  0  0  0
 21 20  1  0  0  0  0
 22 23  1  0  0  0  0
 23 24  2  0  0  0  0
 24 19  1  0  0  0  0
 26 20  1  0  0  0  0
 27 21  1  0  0  0  0
M  END
>  <minimizedAffinity>
-4.96321726

>  <minimizedRMSD>
4.03438616

$$$$
