
 OpenBabel03272503373D

 21 23  0  0  0  0  0  0  0  0999 V2000
   38.6160   32.3380   48.7070 C   0  0  0  0  0  0  0  0  0  0  0  0
   38.9550   33.5860   49.2550 C   0  0  0  0  0  0  0  0  0  0  0  0
   38.6260   33.8370   50.2570 H   0  0  0  0  0  0  0  0  0  0  0  0
   39.6900   34.5640   48.6260 C   0  0  0  0  0  0  0  0  0  0  0  0
   40.1400   34.3150   47.3580 C   0  0  0  0  0  0  0  0  0  0  0  0
   39.8600   33.1220   46.7430 C   0  0  0  0  0  0  0  0  0  0  0  0
   40.3470   32.8660   45.4790 C   0  0  0  0  0  0  0  0  0  0  0  0
   40.1230   31.6560   44.8330 C   0  0  0  0  0  0  0  0  0  0  0  0
   39.3800   30.7360   45.5520 C   0  0  0  0  0  0  0  0  0  0  0  0
   38.9070   31.0120   46.8040 C   0  0  0  0  0  0  0  0  0  0  0  0
   39.1220   32.2030   47.4420 C   0  0  0  0  0  0  0  0  0  0  0  0
   37.2620   29.7380   51.1360 C   0  0  0  0  0  0  0  0  0  0  0  0
   38.1860   30.5870   50.5440 C   0  0  0  0  0  0  0  0  0  0  0  0
   37.8480   31.4290   49.5170 C   0  0  0  0  0  0  0  0  0  0  0  0
   36.5310   31.3620   49.1210 N   0  0  0  0  0  0  0  0  0  0  0  0
   35.6230   30.5410   49.6870 C   0  0  0  0  0  0  0  0  0  0  0  0
   36.0090   29.7530   50.6770 N   0  0  0  0  0  0  0  0  0  0  0  0
   39.2100   30.5680   50.8500 H   0  0  0  0  0  0  0  0  0  0  0  0
   34.6100   30.5060   49.3650 H   0  0  0  0  0  0  0  0  0  0  0  0
   37.8000   28.9770   52.1510 O   0  0  0  0  0  0  0  0  0  0  0  0
   37.9940   27.9860   52.0730 H   0  0  0  0  0  0  0  0  0  0  0  0
  1  2  1  0  0  0  0
  1 14  1  0  0  0  0
  2  3  1  0  0  0  0
  4  2  2  0  0  0  0
  5  4  1  0  0  0  0
  6  5  2  0  0  0  0
  6 11  1  0  0  0  0
  7  6  1  0  0  0  0
  8  7  2  0  0  0  0
  8  9  1  0  0  0  0
  9 10  2  0  0  0  0
 10 11  1  0  0  0  0
 11  1  2  0  0  0  0
 12 20  1  0  0  0  0
 13 18  1  0  0  0  0
 13 12  2  0  0  0  0
 14 13  1  0  0  0  0
 15 14  2  0  0  0  0
 15 16  1  0  0  0  0
 16 17  2  0  0  0  0
 17 12  1  0  0  0  0
 19 16  1  0  0  0  0
 21 20  1  0  0  0  0
M  END
>  <minimizedAffinity>
-6.77462578

>  <minimizedRMSD>
1.09019601

$$$$
