
 OpenBabel03272510273D

 47 52  0  0  1  0  0  0  0  0999 V2000
   39.6720   31.7850   41.8970 N   0  0  0  0  0  0  0  0  0  0  0  0
   39.3380   33.2070   41.9800 C   0  0  1  0  0  0  0  0  0  0  0  0
   37.9700   33.4200   41.5320 C   0  0  0  0  0  0  0  0  0  0  0  0
   37.8650   33.0660   40.1770 O   0  0  0  0  0  0  0  0  0  0  0  0
   38.2920   31.7900   39.8790 C   0  0  0  0  0  0  0  0  0  0  0  0
   39.6580   31.5110   40.4750 C   0  0  2  0  0  0  0  0  0  0  0  0
   38.9740   31.1630   42.2800 H   0  0  0  0  0  0  0  0  0  0  0  0
   40.0520   33.7110   41.3010 H   0  0  0  0  0  0  0  0  0  0  0  0
   37.7940   34.5400   41.5170 H   0  0  0  0  0  0  0  0  0  0  0  0
   37.1070   32.9920   41.9680 H   0  0  0  0  0  0  0  0  0  0  0  0
   38.3490   31.7160   38.7900 H   0  0  0  0  0  0  0  0  0  0  0  0
   37.5830   31.0660   40.3380 H   0  0  0  0  0  0  0  0  0  0  0  0
   40.3700   32.2610   40.0670 H   0  0  0  0  0  0  0  0  0  0  0  0
   40.0520   30.1210   40.2660 C   0  0  0  0  0  0  0  0  0  0  0  0
   39.3590   28.9960   40.6250 C   0  0  0  0  0  0  0  0  0  0  0  0
   38.4030   29.0920   41.1170 H   0  0  0  0  0  0  0  0  0  0  0  0
   39.7540   27.6910   40.4240 C   0  0  0  0  0  3  0  0  0  0  0  0
   40.9620   27.4510   39.8020 C   0  0  0  0  0  3  0  0  0  0  0  0
   41.7090   28.5440   39.4160 C   0  0  0  0  0  0  0  0  0  0  0  0
   42.9030   28.2510   38.7970 C   0  0  0  0  0  3  0  0  0  0  0  0
   43.7180   29.2800   38.3740 C   0  0  0  0  0  3  0  0  0  0  0  0
   43.3180   30.5860   38.5770 C   0  0  0  0  0  3  0  0  0  0  0  0
   42.1270   30.8060   39.1930 C   0  0  0  0  0  3  0  0  0  0  0  0
   41.2520   29.8420   39.6490 C   0  0  0  0  0  0  0  0  0  0  0  0
   39.4930   33.5740   43.3410 O   0  0  0  0  0  0  0  0  0  0  0  0
   36.2210   30.2050   46.9110 C   0  0  0  0  0  0  0  0  0  0  0  0
   37.0650   30.7390   47.8670 C   0  0  0  0  0  0  0  0  0  0  0  0
   38.0780   31.6440   47.5150 C   0  0  0  0  0  0  0  0  0  0  0  0
   38.1650   31.9540   46.1640 C   0  0  0  0  0  0  0  0  0  0  0  0
   39.0630   32.8110   45.5760 N   0  0  0  0  0  0  0  0  0  0  0  0
   38.7780   32.8080   44.2620 C   0  0  0  0  0  0  0  0  0  0  0  0
   37.7670   32.0030   44.0310 N   0  0  0  0  0  0  0  0  0  0  0  0
   37.3510   31.4500   45.1810 C   0  0  0  0  0  0  0  0  0  0  0  0
   36.3510   30.5480   45.5730 C   0  0  0  0  0  0  0  0  0  0  0  0
   35.4300   29.5060   47.1340 H   0  0  0  0  0  0  0  0  0  0  0  0
   38.7420   32.0660   48.2520 H   0  0  0  0  0  0  0  0  0  0  0  0
   39.8160   33.3510   46.0750 H   0  0  0  0  0  0  0  0  0  0  0  0
   35.7060   30.1470   44.8030 H   0  0  0  0  0  0  0  0  0  0  0  0
   37.4420   30.1380   51.5640 C   0  0  0  0  0  0  0  0  0  0  0  0
   37.7580   30.5780   50.2820 C   0  0  0  0  0  0  0  0  0  0  0  0
   36.8830   30.3470   49.2510 C   0  0  0  0  0  0  0  0  0  0  0  0
   35.7160   29.6780   49.5550 N   0  0  0  0  0  0  0  0  0  0  0  0
   35.4170   29.2560   50.7990 C   0  0  0  0  0  0  0  0  0  0  0  0
   36.2680   29.4850   51.7820 N   0  0  0  0  0  0  0  0  0  0  0  0
   38.1540   30.3380   52.3510 H   0  0  0  0  0  0  0  0  0  0  0  0
   38.6640   31.0960   50.0490 H   0  0  0  0  0  0  0  0  0  0  0  0
   34.4710   28.7380   50.9340 H   0  0  0  0  0  0  0  0  0  0  0  0
  1  2  1  0  0  0  0
  1  7  1  0  0  0  0
  2  8  1  6  0  0  0
  2 25  1  0  0  0  0
  3 10  1  0  0  0  0
  3  2  1  0  0  0  0
  4  3  1  0  0  0  0
  5  4  1  0  0  0  0
  5 12  1  0  0  0  0
  5  6  1  0  0  0  0
  6 13  1  6  0  0  0
  6  1  1  0  0  0  0
  9  3  1  0  0  0  0
 11  5  1  0  0  0  0
 14  6  1  0  0  0  0
 14 15  1  0  0  0  0
 15 16  1  0  0  0  0
 17 15  2  0  0  0  0
 18 17  1  0  0  0  0
 19 24  1  0  0  0  0
 19 18  2  0  0  0  0
 20 19  1  0  0  0  0
 21 22  1  0  0  0  0
 21 20  2  0  0  0  0
 22 23  2  0  0  0  0
 23 24  1  0  0  0  0
 24 14  2  0  0  0  0
 25 31  1  0  0  0  0
 26 35  1  0  0  0  0
 26 27  1  0  0  0  0
 27 41  1  0  0  0  0
 28 27  2  0  0  0  0
 28 36  1  0  0  0  0
 29 28  1  0  0  0  0
 30 37  1  0  0  0  0
 30 29  1  0  0  0  0
 31 30  1  0  0  0  0
 32 31  2  0  0  0  0
 32 33  1  0  0  0  0
 33 34  1  0  0  0  0
 33 29  2  0  0  0  0
 34 26  2  0  0  0  0
 38 34  1  0  0  0  0
 39 44  1  0  0  0  0
 39 45  1  0  0  0  0
 40 39  2  0  0  0  0
 41 42  2  0  0  0  0
 41 40  1  0  0  0  0
 42 43  1  0  0  0  0
 43 47  1  0  0  0  0
 43 44  2  0  0  0  0
 46 40  1  0  0  0  0
M  END
>  <minimizedAffinity>
-6.57986975

>  <minimizedRMSD>
0.216653362

$$$$
