
 OpenBabel03272510273D

 47 52  0  0  1  0  0  0  0  0999 V2000
   39.6730   31.7850   41.8970 N   0  0  0  0  0  0  0  0  0  0  0  0
   39.3390   33.2070   41.9810 C   0  0  1  0  0  0  0  0  0  0  0  0
   37.9710   33.4190   41.5330 C   0  0  0  0  0  0  0  0  0  0  0  0
   37.8660   33.0650   40.1780 O   0  0  0  0  0  0  0  0  0  0  0  0
   38.2930   31.7890   39.8800 C   0  0  0  0  0  0  0  0  0  0  0  0
   39.6590   31.5110   40.4760 C   0  0  2  0  0  0  0  0  0  0  0  0
   38.9750   31.1630   42.2810 H   0  0  0  0  0  0  0  0  0  0  0  0
   40.0530   33.7110   41.3030 H   0  0  0  0  0  0  0  0  0  0  0  0
   37.7950   34.5400   41.5180 H   0  0  0  0  0  0  0  0  0  0  0  0
   37.1080   32.9920   41.9690 H   0  0  0  0  0  0  0  0  0  0  0  0
   38.3500   31.7150   38.7910 H   0  0  0  0  0  0  0  0  0  0  0  0
   37.5840   31.0650   40.3390 H   0  0  0  0  0  0  0  0  0  0  0  0
   40.3710   32.2610   40.0680 H   0  0  0  0  0  0  0  0  0  0  0  0
   40.0530   30.1210   40.2670 C   0  0  0  0  0  0  0  0  0  0  0  0
   39.3610   28.9960   40.6260 C   0  0  0  0  0  0  0  0  0  0  0  0
   38.4040   29.0920   41.1190 H   0  0  0  0  0  0  0  0  0  0  0  0
   39.7540   27.6910   40.4260 C   0  0  0  0  0  3  0  0  0  0  0  0
   40.9620   27.4510   39.8030 C   0  0  0  0  0  3  0  0  0  0  0  0
   41.7090   28.5450   39.4160 C   0  0  0  0  0  0  0  0  0  0  0  0
   42.9040   28.2510   38.7980 C   0  0  0  0  0  3  0  0  0  0  0  0
   43.7180   29.2800   38.3730 C   0  0  0  0  0  3  0  0  0  0  0  0
   43.3180   30.5860   38.5770 C   0  0  0  0  0  3  0  0  0  0  0  0
   42.1270   30.8060   39.1930 C   0  0  0  0  0  3  0  0  0  0  0  0
   41.2530   29.8420   39.6490 C   0  0  0  0  0  0  0  0  0  0  0  0
   39.4940   33.5730   43.3420 O   0  0  0  0  0  0  0  0  0  0  0  0
   36.2210   30.2050   46.9120 C   0  0  0  0  0  0  0  0  0  0  0  0
   37.0650   30.7390   47.8680 C   0  0  0  0  0  0  0  0  0  0  0  0
   38.0780   31.6430   47.5160 C   0  0  0  0  0  0  0  0  0  0  0  0
   38.1650   31.9540   46.1650 C   0  0  0  0  0  0  0  0  0  0  0  0
   39.0630   32.8110   45.5770 N   0  0  0  0  0  0  0  0  0  0  0  0
   38.7780   32.8080   44.2630 C   0  0  0  0  0  0  0  0  0  0  0  0
   37.7670   32.0030   44.0320 N   0  0  0  0  0  0  0  0  0  0  0  0
   37.3510   31.4500   45.1820 C   0  0  0  0  0  0  0  0  0  0  0  0
   36.3520   30.5480   45.5730 C   0  0  0  0  0  0  0  0  0  0  0  0
   35.4300   29.5060   47.1350 H   0  0  0  0  0  0  0  0  0  0  0  0
   38.7420   32.0660   48.2530 H   0  0  0  0  0  0  0  0  0  0  0  0
   39.8170   33.3510   46.0760 H   0  0  0  0  0  0  0  0  0  0  0  0
   35.7070   30.1470   44.8030 H   0  0  0  0  0  0  0  0  0  0  0  0
   37.4410   30.1380   51.5650 C   0  0  0  0  0  0  0  0  0  0  0  0
   37.7580   30.5780   50.2830 C   0  0  0  0  0  0  0  0  0  0  0  0
   36.8830   30.3460   49.2520 C   0  0  0  0  0  0  0  0  0  0  0  0
   35.7150   29.6780   49.5550 N   0  0  0  0  0  0  0  0  0  0  0  0
   35.4170   29.2560   50.8000 C   0  0  0  0  0  0  0  0  0  0  0  0
   36.2670   29.4850   51.7820 N   0  0  0  0  0  0  0  0  0  0  0  0
   38.1540   30.3370   52.3520 H   0  0  0  0  0  0  0  0  0  0  0  0
   38.6640   31.0960   50.0490 H   0  0  0  0  0  0  0  0  0  0  0  0
   34.4700   28.7380   50.9340 H   0  0  0  0  0  0  0  0  0  0  0  0
  1  2  1  0  0  0  0
  1  7  1  0  0  0  0
  2  8  1  6  0  0  0
  2 25  1  0  0  0  0
  3 10  1  0  0  0  0
  3  2  1  0  0  0  0
  4  3  1  0  0  0  0
  5  4  1  0  0  0  0
  5 12  1  0  0  0  0
  5  6  1  0  0  0  0
  6 13  1  6  0  0  0
  6  1  1  0  0  0  0
  9  3  1  0  0  0  0
 11  5  1  0  0  0  0
 14  6  1  0  0  0  0
 14 15  1  0  0  0  0
 15 16  1  0  0  0  0
 17 15  2  0  0  0  0
 18 17  1  0  0  0  0
 19 24  1  0  0  0  0
 19 18  2  0  0  0  0
 20 19  1  0  0  0  0
 21 22  1  0  0  0  0
 21 20  2  0  0  0  0
 22 23  2  0  0  0  0
 23 24  1  0  0  0  0
 24 14  2  0  0  0  0
 25 31  1  0  0  0  0
 26 35  1  0  0  0  0
 26 27  1  0  0  0  0
 27 41  1  0  0  0  0
 28 27  2  0  0  0  0
 28 36  1  0  0  0  0
 29 28  1  0  0  0  0
 30 37  1  0  0  0  0
 30 29  1  0  0  0  0
 31 30  1  0  0  0  0
 32 31  2  0  0  0  0
 32 33  1  0  0  0  0
 33 34  1  0  0  0  0
 33 29  2  0  0  0  0
 34 26  2  0  0  0  0
 38 34  1  0  0  0  0
 39 44  1  0  0  0  0
 39 45  1  0  0  0  0
 40 39  2  0  0  0  0
 41 42  2  0  0  0  0
 41 40  1  0  0  0  0
 42 43  1  0  0  0  0
 43 47  1  0  0  0  0
 43 44  2  0  0  0  0
 46 40  1  0  0  0  0
M  END
>  <minimizedAffinity>
-6.58246756

>  <minimizedRMSD>
1.23856962

$$$$
