REMARK  Name = 
REMARK  1 active torsions:
REMARK  status: ('A' for Active; 'I' for Inactive)
REMARK    1  A    between atoms: C_3  and  C_12
REMARK                            x       y       z     vdW  Elec       q    Type
REMARK                         _______ _______ _______ _____ _____    ______ ____
ROOT
ATOM      1  C   UNL     1      37.310  30.216  51.420  0.00  0.00    +0.000 A 
ATOM      2  C   UNL     1      38.075  30.737  50.381  0.00  0.00    +0.000 A 
ATOM      3  C   UNL     1      37.750  30.427  49.058  0.00  0.00    +0.000 A 
ATOM      4  N   UNL     1      36.664  29.610  48.915  0.00  0.00    +0.000 NA
ATOM      5  C   UNL     1      35.934  29.115  49.913  0.00  0.00    +0.000 A 
ATOM      6  N   UNL     1      36.263  29.422  51.177  0.00  0.00    +0.000 NA
ATOM      7  N   UNL     1      34.845  28.284  49.535  0.00  0.00    +0.000 N 
ATOM      8  H   UNL     1      37.563  30.456  52.444  0.00  0.00    +0.000 HD
ATOM      9  H   UNL     1      38.848  31.384  50.653  0.00  0.00    +0.000 HD
ATOM     10  H   UNL     1      35.019  27.259  49.480  0.00  0.00    +0.000 HD
ATOM     11  H   UNL     1      33.999  28.882  49.364  0.00  0.00    +0.000 HD
ENDROOT
BRANCH   3  12
ATOM     12  C   UNL     1      38.363  30.917  47.847  0.00  0.00    +0.000 A 
ATOM     13  C   UNL     1      39.765  30.816  47.812  0.00  0.00    +0.000 A 
ATOM     14  H   UNL     1      40.323  30.386  48.653  0.00  0.00    +0.000 HD
ATOM     15  C   UNL     1      40.541  31.234  46.754  0.00  0.00    +0.000 A 
ATOM     16  C   UNL     1      39.953  31.788  45.651  0.00  0.00    +0.000 A 
ATOM     17  C   UNL     1      38.588  31.910  45.639  0.00  0.00    +0.000 A 
ATOM     18  C   UNL     1      37.968  32.494  44.557  0.00  0.00    +0.000 A 
ATOM     19  C   UNL     1      36.596  32.677  44.502  0.00  0.00    +0.000 A 
ATOM     20  C   UNL     1      35.874  32.234  45.617  0.00  0.00    +0.000 A 
ATOM     21  C   UNL     1      36.519  31.659  46.671  0.00  0.00    +0.000 A 
ATOM     22  C   UNL     1      37.864  31.477  46.719  0.00  0.00    +0.000 A 
ENDBRANCH   3  12
TORSDOF 1
