REMARK  Name = 
REMARK  4 active torsions:
REMARK  status: ('A' for Active; 'I' for Inactive)
REMARK    1  A    between atoms: C_1  and  C_6
REMARK    2  A    between atoms: N_4  and  C_16
REMARK    3  A    between atoms: C_8  and  C_12
REMARK    4  A    between atoms: C_19  and  C_27
REMARK                            x       y       z     vdW  Elec       q    Type
REMARK                         _______ _______ _______ _____ _____    ______ ____
ROOT
ATOM      1  C   UNL     1      38.910  30.895  45.768  0.00  0.00    +0.000 A 
ATOM      2  C   UNL     1      40.115  31.539  46.019  0.00  0.00    +0.000 A 
ATOM      3  C   UNL     1      40.952  31.476  44.907  0.00  0.00    +0.000 A 
ATOM      4  N   UNL     1      40.196  30.781  44.016  0.00  0.00    +0.000 N 
ATOM      5  N   UNL     1      39.021  30.443  44.503  0.00  0.00    +0.000 NA
ATOM      6  H   UNL     1      40.384  32.028  46.946  0.00  0.00    +0.000 HD
ATOM      7  H   UNL     1      41.932  31.854  44.747  0.00  0.00    +0.000 HD
ENDROOT
BRANCH   1   8
ATOM      8  C   UNL     1      37.787  30.752  46.674  0.00  0.00    +0.000 A 
ATOM      9  C   UNL     1      38.011  30.973  48.061  0.00  0.00    +0.000 A 
ATOM     10  C   UNL     1      36.915  30.830  48.911  0.00  0.00    +0.000 A 
ATOM     11  N   UNL     1      35.714  30.493  48.377  0.00  0.00    +0.000 NA
ATOM     12  C   UNL     1      35.532  30.290  47.054  0.00  0.00    +0.000 A 
ATOM     13  N   UNL     1      36.579  30.423  46.214  0.00  0.00    +0.000 NA
ATOM     14  H   UNL     1      38.993  31.240  48.432  0.00  0.00    +0.000 HD
ATOM     15  H   UNL     1      34.559  30.022  46.664  0.00  0.00    +0.000 HD
BRANCH  10  16
ATOM     16  C   UNL     1      37.129  31.058  50.374  0.00  0.00    +0.000 C 
ATOM     17  F   UNL     1      36.604  32.299  50.632  0.00  0.00    +0.000 F 
ATOM     18  F   UNL     1      36.468  30.109  51.155  0.00  0.00    +0.000 F 
ATOM     19  F   UNL     1      38.477  31.067  50.706  0.00  0.00    +0.000 F 
ENDBRANCH  10  16
ENDBRANCH   1   8
BRANCH   4  20
ATOM     20  C   UNL     1      40.554  30.415  42.652  0.00  0.00    +0.000 A 
ATOM     21  C   UNL     1      40.175  31.188  41.550  0.00  0.00    +0.000 A 
ATOM     22  C   UNL     1      40.544  30.806  40.297  0.00  0.00    +0.000 A 
ATOM     23  C   UNL     1      41.302  29.635  40.104  0.00  0.00    +0.000 A 
ATOM     24  S   UNL     1      41.477  29.080  41.859  0.00  0.00    +0.000 S 
ATOM     25  H   UNL     1      39.578  32.102  41.714  0.00  0.00    +0.000 HD
ATOM     26  H   UNL     1      40.289  31.417  39.461  0.00  0.00    +0.000 HD
BRANCH  23  27
ATOM     27  C   UNL     1      41.935  28.886  39.132  0.00  0.00    +0.000 A 
ATOM     28  C   UNL     1      42.985  28.034  39.516  0.00  0.00    +0.000 A 
ATOM     29  H   UNL     1      43.358  27.919  40.538  0.00  0.00    +0.000 HD
ATOM     30  C   UNL     1      43.683  27.231  38.640  0.00  0.00    +0.000 A 
ATOM     31  C   UNL     1      43.348  27.251  37.316  0.00  0.00    +0.000 A 
ATOM     32  C   UNL     1      42.337  28.046  36.839  0.00  0.00    +0.000 A 
ATOM     33  C   UNL     1      42.016  28.009  35.502  0.00  0.00    +0.000 A 
ATOM     34  C   UNL     1      40.975  28.782  35.030  0.00  0.00    +0.000 A 
ATOM     35  C   UNL     1      40.314  29.558  35.965  0.00  0.00    +0.000 A 
ATOM     36  C   UNL     1      40.675  29.559  37.292  0.00  0.00    +0.000 A 
ATOM     37  C   UNL     1      41.703  28.805  37.782  0.00  0.00    +0.000 A 
ENDBRANCH  23  27
ENDBRANCH   4  20
TORSDOF 4
