
 OpenBabel03272508073D

 37 41  0  0  0  0  0  0  0  0999 V2000
   37.5550   24.2820   31.2580 C   0  0  0  0  0  0  0  0  0  0  0  0
   38.4810   25.0550   30.5690 C   0  0  0  0  0  0  0  0  0  0  0  0
   38.2990   26.4090   30.8430 C   0  0  0  0  0  0  0  0  0  0  0  0
   37.2470   26.3900   31.7050 N   0  0  0  0  0  0  0  0  0  0  0  0
   36.8140   25.1710   31.9490 N   0  0  0  0  0  0  0  0  0  0  0  0
   39.2460   24.6750   29.9050 H   0  0  0  0  0  0  0  0  0  0  0  0
   38.8160   27.2690   30.4950 H   0  0  0  0  0  0  0  0  0  0  0  0
   37.4290   22.8380   31.2350 C   0  0  0  0  0  0  0  0  0  0  0  0
   36.4520   22.2360   32.0760 C   0  0  0  0  0  0  0  0  0  0  0  0
   36.3490   20.8460   32.0350 C   0  0  0  0  0  0  0  0  0  0  0  0
   37.1740   20.1550   31.2090 N   0  0  0  0  0  0  0  0  0  0  0  0
   38.0930   20.7550   30.4210 C   0  0  0  0  0  0  0  0  0  0  0  0
   38.2080   22.0990   30.4450 N   0  0  0  0  0  0  0  0  0  0  0  0
   35.8200   22.8380   32.7170 H   0  0  0  0  0  0  0  0  0  0  0  0
   38.7340   20.1700   29.7740 H   0  0  0  0  0  0  0  0  0  0  0  0
   35.3280   20.1930   32.9120 C   0  0  0  0  0  0  0  0  0  0  0  0
   34.1230   20.4070   32.2920 F   0  0  0  0  0  0  0  0  0  0  0  0
   35.5430   18.8190   33.0340 F   0  0  0  0  0  0  0  0  0  0  0  0
   35.2880   20.7650   34.1760 F   0  0  0  0  0  0  0  0  0  0  0  0
   36.6120   27.5330   32.3470 C   0  0  0  0  0  0  0  0  0  0  0  0
   35.9250   28.5090   31.6180 C   0  0  0  0  0  0  0  0  0  0  0  0
   35.3410   29.5520   32.2680 C   0  0  0  0  0  0  0  0  0  0  0  0
   35.4280   29.6560   33.6700 C   0  0  0  0  0  0  0  0  0  0  0  0
   36.4170   28.1370   34.0380 S   0  0  0  0  0  0  0  0  0  0  0  0
   35.8660   28.4180   30.5190 H   0  0  0  0  0  0  0  0  0  0  0  0
   34.7830   30.2740   31.7160 H   0  0  0  0  0  0  0  0  0  0  0  0
   35.0060   30.4170   34.7410 C   0  0  0  0  0  0  0  0  0  0  0  0
   35.8860   31.3750   35.2760 C   0  0  0  0  0  0  0  0  0  0  0  0
   36.9010   31.5660   34.9130 H   0  0  0  0  0  0  0  0  0  0  0  0
   35.5740   32.2000   36.3350 C   0  0  0  0  0  3  0  0  0  0  0  0
   34.3400   32.0940   36.9120 C   0  0  0  0  0  3  0  0  0  0  0  0
   33.4080   31.1940   36.4650 C   0  0  0  0  0  0  0  0  0  0  0  0
   32.1690   31.1460   37.0580 C   0  0  0  0  0  3  0  0  0  0  0  0
   31.2190   30.2640   36.5840 C   0  0  0  0  0  3  0  0  0  0  0  0
   31.5980   29.4710   35.5150 C   0  0  0  0  0  3  0  0  0  0  0  0
   32.8520   29.5580   34.9570 C   0  0  0  0  0  3  0  0  0  0  0  0
   33.8080   30.4210   35.4110 C   0  0  0  0  0  0  0  0  0  0  0  0
  1  5  2  0  0  0  0
  2  3  2  0  0  0  0
  2  1  1  0  0  0  0
  3  4  1  0  0  0  0
  4  5  1  0  0  0  0
  4 20  1  0  0  0  0
  6  2  1  0  0  0  0
  7  3  1  0  0  0  0
  8  1  1  0  0  0  0
  8  9  1  0  0  0  0
  9 14  1  0  0  0  0
 10  9  2  0  0  0  0
 10 16  1  0  0  0  0
 11 10  1  0  0  0  0
 12 13  1  0  0  0  0
 12 11  2  0  0  0  0
 13  8  2  0  0  0  0
 15 12  1  0  0  0  0
 16 18  1  0  0  0  0
 16 19  1  0  0  0  0
 17 16  1  0  0  0  0
 20 24  1  0  0  0  0
 21 22  1  0  0  0  0
 21 20  2  0  0  0  0
 22 23  2  0  0  0  0
 23 24  1  0  0  0  0
 23 27  1  0  0  0  0
 25 21  1  0  0  0  0
 26 22  1  0  0  0  0
 27 28  2  0  0  0  0
 27 37  1  0  0  0  0
 28 30  1  0  0  0  0
 29 28  1  0  0  0  0
 30 31  2  0  0  0  0
 32 31  1  0  0  0  0
 32 33  1  0  0  0  0
 34 33  2  0  0  0  0
 35 34  1  0  0  0  0
 36 37  1  0  0  0  0
 36 35  2  0  0  0  0
 37 32  2  0  0  0  0
M  END
>  <minimizedAffinity>
-7.22118616

$$$$

 OpenBabel03272508073D

 37 41  0  0  0  0  0  0  0  0999 V2000
   35.4760   29.5820   31.9750 C   0  0  0  0  0  0  0  0  0  0  0  0
   36.2310   29.7400   30.8200 C   0  0  0  0  0  0  0  0  0  0  0  0
   36.6200   28.5030   30.3080 C   0  0  0  0  0  0  0  0  0  0  0  0
   36.0680   27.6370   31.1990 N   0  0  0  0  0  0  0  0  0  0  0  0
   35.4090   28.2490   32.1610 N   0  0  0  0  0  0  0  0  0  0  0  0
   36.4920   30.6860   30.3650 H   0  0  0  0  0  0  0  0  0  0  0  0
   37.1960   28.2500   29.4520 H   0  0  0  0  0  0  0  0  0  0  0  0
   34.8910   30.6290   32.7900 C   0  0  0  0  0  0  0  0  0  0  0  0
   35.5110   30.9390   34.0320 C   0  0  0  0  0  0  0  0  0  0  0  0
   34.9290   31.9500   34.7960 C   0  0  0  0  0  0  0  0  0  0  0  0
   33.8210   32.5720   34.3210 N   0  0  0  0  0  0  0  0  0  0  0  0
   33.2550   32.2560   33.1360 C   0  0  0  0  0  0  0  0  0  0  0  0
   33.8010   31.2810   32.3810 N   0  0  0  0  0  0  0  0  0  0  0  0
   36.3960   30.4080   34.3620 H   0  0  0  0  0  0  0  0  0  0  0  0
   32.3710   32.7740   32.7890 H   0  0  0  0  0  0  0  0  0  0  0  0
   35.5660   32.2920   36.1060 C   0  0  0  0  0  0  0  0  0  0  0  0
   36.7180   31.5490   36.1580 F   0  0  0  0  0  0  0  0  0  0  0  0
   35.8890   33.6470   36.1940 F   0  0  0  0  0  0  0  0  0  0  0  0
   34.7610   31.9420   37.1810 F   0  0  0  0  0  0  0  0  0  0  0  0
   36.1340   26.1820   31.1700 C   0  0  0  0  0  0  0  0  0  0  0  0
   34.9980   25.3890   30.9730 C   0  0  0  0  0  0  0  0  0  0  0  0
   35.1160   24.0340   30.9450 C   0  0  0  0  0  0  0  0  0  0  0  0
   36.3750   23.4250   31.1170 C   0  0  0  0  0  0  0  0  0  0  0  0
   37.4270   24.9310   31.3250 S   0  0  0  0  0  0  0  0  0  0  0  0
   34.0170   25.8780   30.8430 H   0  0  0  0  0  0  0  0  0  0  0  0
   34.2570   23.4320   30.7550 H   0  0  0  0  0  0  0  0  0  0  0  0
   37.0080   22.1980   31.1200 C   0  0  0  0  0  0  0  0  0  0  0  0
   38.3620   22.1380   30.7450 C   0  0  0  0  0  0  0  0  0  0  0  0
   38.9660   22.9970   30.4360 H   0  0  0  0  0  0  0  0  0  0  0  0
   39.1020   20.9760   30.7200 C   0  0  0  0  0  3  0  0  0  0  0  0
   38.5010   19.8030   31.0780 C   0  0  0  0  0  3  0  0  0  0  0  0
   37.1860   19.7530   31.4610 C   0  0  0  0  0  0  0  0  0  0  0  0
   36.6330   18.5530   31.8420 C   0  0  0  0  0  3  0  0  0  0  0  0
   35.3190   18.5100   32.2610 C   0  0  0  0  0  3  0  0  0  0  0  0
   34.6370   19.7150   32.2680 C   0  0  0  0  0  3  0  0  0  0  0  0
   35.2370   20.8880   31.8770 C   0  0  0  0  0  3  0  0  0  0  0  0
   36.5340   20.9540   31.4550 C   0  0  0  0  0  0  0  0  0  0  0  0
  1  5  2  0  0  0  0
  1  8  1  0  0  0  0
  2  1  1  0  0  0  0
  3  2  2  0  0  0  0
  3  4  1  0  0  0  0
  4  5  1  0  0  0  0
  6  2  1  0  0  0  0
  7  3  1  0  0  0  0
  8  9  1  0  0  0  0
  9 14  1  0  0  0  0
  9 10  2  0  0  0  0
 10 16  1  0  0  0  0
 11 10  1  0  0  0  0
 12 11  2  0  0  0  0
 13  8  2  0  0  0  0
 13 12  1  0  0  0  0
 15 12  1  0  0  0  0
 16 17  1  0  0  0  0
 16 18  1  0  0  0  0
 16 19  1  0  0  0  0
 20  4  1  0  0  0  0
 20 24  1  0  0  0  0
 21 20  2  0  0  0  0
 22 21  1  0  0  0  0
 22 23  2  0  0  0  0
 23 27  1  0  0  0  0
 23 24  1  0  0  0  0
 25 21  1  0  0  0  0
 26 22  1  0  0  0  0
 27 37  1  0  0  0  0
 28 27  2  0  0  0  0
 29 28  1  0  0  0  0
 30 28  1  0  0  0  0
 30 31  2  0  0  0  0
 31 32  1  0  0  0  0
 32 33  1  0  0  0  0
 33 34  2  0  0  0  0
 34 35  1  0  0  0  0
 36 35  2  0  0  0  0
 37 32  2  0  0  0  0
 37 36  1  0  0  0  0
M  END
>  <minimizedAffinity>
-7.05837202

$$$$

 OpenBabel03272508073D

 37 41  0  0  0  0  0  0  0  0999 V2000
   37.1950   26.7700   34.2560 C   0  0  0  0  0  0  0  0  0  0  0  0
   37.0290   27.1790   32.9390 C   0  0  0  0  0  0  0  0  0  0  0  0
   36.3490   28.3940   32.8800 C   0  0  0  0  0  0  0  0  0  0  0  0
   36.1330   28.6680   34.1940 N   0  0  0  0  0  0  0  0  0  0  0  0
   36.6160   27.7400   34.9910 N   0  0  0  0  0  0  0  0  0  0  0  0
   37.3730   26.6400   32.0660 H   0  0  0  0  0  0  0  0  0  0  0  0
   36.0530   28.9900   32.0510 H   0  0  0  0  0  0  0  0  0  0  0  0
   37.8540   25.5660   34.7230 C   0  0  0  0  0  0  0  0  0  0  0  0
   37.7750   25.2510   36.1080 C   0  0  0  0  0  0  0  0  0  0  0  0
   38.4150   24.0880   36.5320 C   0  0  0  0  0  0  0  0  0  0  0  0
   39.0690   23.3310   35.6150 N   0  0  0  0  0  0  0  0  0  0  0  0
   39.1270   23.6560   34.3050 C   0  0  0  0  0  0  0  0  0  0  0  0
   38.5140   24.7770   33.8740 N   0  0  0  0  0  0  0  0  0  0  0  0
   37.2380   25.8930   36.7960 H   0  0  0  0  0  0  0  0  0  0  0  0
   39.6580   23.0280   33.6020 H   0  0  0  0  0  0  0  0  0  0  0  0
   38.3440   23.7380   37.9850 C   0  0  0  0  0  0  0  0  0  0  0  0
   37.3440   22.8050   38.0890 F   0  0  0  0  0  0  0  0  0  0  0  0
   39.5380   23.1860   38.4510 F   0  0  0  0  0  0  0  0  0  0  0  0
   38.0110   24.8360   38.7670 F   0  0  0  0  0  0  0  0  0  0  0  0
   35.4640   29.8360   34.7520 C   0  0  0  0  0  0  0  0  0  0  0  0
   36.1590   30.8290   35.4500 C   0  0  0  0  0  0  0  0  0  0  0  0
   35.4870   31.9040   35.9440 C   0  0  0  0  0  0  0  0  0  0  0  0
   34.0960   32.0210   35.7590 C   0  0  0  0  0  0  0  0  0  0  0  0
   33.7730   30.4690   34.8080 S   0  0  0  0  0  0  0  0  0  0  0  0
   37.2480   30.7240   35.5920 H   0  0  0  0  0  0  0  0  0  0  0  0
   36.0230   32.6800   36.4410 H   0  0  0  0  0  0  0  0  0  0  0  0
   33.0260   32.8630   35.9870 C   0  0  0  0  0  0  0  0  0  0  0  0
   31.8920   32.7510   35.1630 C   0  0  0  0  0  0  0  0  0  0  0  0
   31.7870   32.0440   34.3340 H   0  0  0  0  0  0  0  0  0  0  0  0
   30.7610   33.5260   35.3000 C   0  0  0  0  0  3  0  0  0  0  0  0
   30.7220   34.4660   36.2900 C   0  0  0  0  0  3  0  0  0  0  0  0
   31.7740   34.6550   37.1490 C   0  0  0  0  0  0  0  0  0  0  0  0
   31.6760   35.5920   38.1500 C   0  0  0  0  0  3  0  0  0  0  0  0
   32.7220   35.7570   39.0350 C   0  0  0  0  0  3  0  0  0  0  0  0
   33.8230   34.9400   38.8430 C   0  0  0  0  0  3  0  0  0  0  0  0
   33.8710   34.0180   37.8250 C   0  0  0  0  0  3  0  0  0  0  0  0
   32.8500   33.8390   36.9360 C   0  0  0  0  0  0  0  0  0  0  0  0
  1  8  1  0  0  0  0
  1  5  2  0  0  0  0
  2  1  1  0  0  0  0
  3  2  2  0  0  0  0
  3  4  1  0  0  0  0
  4 20  1  0  0  0  0
  4  5  1  0  0  0  0
  6  2  1  0  0  0  0
  7  3  1  0  0  0  0
  8  9  1  0  0  0  0
  9 10  2  0  0  0  0
  9 14  1  0  0  0  0
 10 16  1  0  0  0  0
 11 10  1  0  0  0  0
 12 11  2  0  0  0  0
 13 12  1  0  0  0  0
 13  8  2  0  0  0  0
 15 12  1  0  0  0  0
 16 17  1  0  0  0  0
 16 18  1  0  0  0  0
 16 19  1  0  0  0  0
 20 24  1  0  0  0  0
 20 21  2  0  0  0  0
 21 25  1  0  0  0  0
 21 22  1  0  0  0  0
 22 26  1  0  0  0  0
 23 22  2  0  0  0  0
 23 27  1  0  0  0  0
 24 23  1  0  0  0  0
 27 37  1  0  0  0  0
 28 30  1  0  0  0  0
 28 27  2  0  0  0  0
 29 28  1  0  0  0  0
 30 31  2  0  0  0  0
 31 32  1  0  0  0  0
 32 33  1  0  0  0  0
 33 34  2  0  0  0  0
 35 34  1  0  0  0  0
 36 35  2  0  0  0  0
 37 32  2  0  0  0  0
 37 36  1  0  0  0  0
M  END
>  <minimizedAffinity>
-6.92403698

$$$$

 OpenBabel03272508073D

 37 41  0  0  0  0  0  0  0  0999 V2000
   37.3720   26.4780   34.3240 C   0  0  0  0  0  0  0  0  0  0  0  0
   37.4350   26.8220   32.9800 C   0  0  0  0  0  0  0  0  0  0  0  0
   36.7880   28.0340   32.7470 C   0  0  0  0  0  0  0  0  0  0  0  0
   36.3550   28.3730   33.9910 N   0  0  0  0  0  0  0  0  0  0  0  0
   36.6860   27.4840   34.9030 N   0  0  0  0  0  0  0  0  0  0  0  0
   37.9160   26.2400   32.2050 H   0  0  0  0  0  0  0  0  0  0  0  0
   36.6430   28.5890   31.8530 H   0  0  0  0  0  0  0  0  0  0  0  0
   37.9290   25.2970   34.9540 C   0  0  0  0  0  0  0  0  0  0  0  0
   37.8240   25.1770   36.3670 C   0  0  0  0  0  0  0  0  0  0  0  0
   38.3670   24.0310   36.9480 C   0  0  0  0  0  0  0  0  0  0  0  0
   38.9570   23.1090   36.1470 N   0  0  0  0  0  0  0  0  0  0  0  0
   39.0410   23.2510   34.8060 C   0  0  0  0  0  0  0  0  0  0  0  0
   38.5220   24.3510   34.2230 N   0  0  0  0  0  0  0  0  0  0  0  0
   37.3420   25.9460   36.9590 H   0  0  0  0  0  0  0  0  0  0  0  0
   39.5190   22.4940   34.1980 H   0  0  0  0  0  0  0  0  0  0  0  0
   38.2680   23.8850   38.4340 C   0  0  0  0  0  0  0  0  0  0  0  0
   39.4910   23.4140   38.8390 F   0  0  0  0  0  0  0  0  0  0  0  0
   38.0140   25.1040   39.0650 F   0  0  0  0  0  0  0  0  0  0  0  0
   37.2940   22.9670   38.8010 F   0  0  0  0  0  0  0  0  0  0  0  0
   35.6130   29.5680   34.3710 C   0  0  0  0  0  0  0  0  0  0  0  0
   34.3400   29.8460   33.8640 C   0  0  0  0  0  0  0  0  0  0  0  0
   33.6860   30.9720   34.2590 C   0  0  0  0  0  0  0  0  0  0  0  0
   34.2860   31.8600   35.1730 C   0  0  0  0  0  0  0  0  0  0  0  0
   35.8880   30.9820   35.4600 S   0  0  0  0  0  0  0  0  0  0  0  0
   33.8820   29.1440   33.1460 H   0  0  0  0  0  0  0  0  0  0  0  0
   32.6990   31.1640   33.9030 H   0  0  0  0  0  0  0  0  0  0  0  0
   34.0570   33.0190   35.8880 C   0  0  0  0  0  0  0  0  0  0  0  0
   35.1430   33.8690   36.1590 C   0  0  0  0  0  0  0  0  0  0  0  0
   36.1770   33.6820   35.8540 H   0  0  0  0  0  0  0  0  0  0  0  0
   35.0370   35.0550   36.8520 C   0  0  0  0  0  3  0  0  0  0  0  0
   33.8100   35.4450   37.3090 C   0  0  0  0  0  3  0  0  0  0  0  0
   32.6860   34.6890   37.0960 C   0  0  0  0  0  0  0  0  0  0  0  0
   31.4680   35.1380   37.5490 C   0  0  0  0  0  3  0  0  0  0  0  0
   30.3330   34.3930   37.3030 C   0  0  0  0  0  3  0  0  0  0  0  0
   30.5120   33.2170   36.5960 C   0  0  0  0  0  3  0  0  0  0  0  0
   31.7530   32.8130   36.1650 C   0  0  0  0  0  3  0  0  0  0  0  0
   32.8900   33.5310   36.4000 C   0  0  0  0  0  0  0  0  0  0  0  0
  1  5  2  0  0  0  0
  1  8  1  0  0  0  0
  2  1  1  0  0  0  0
  3  2  2  0  0  0  0
  3  4  1  0  0  0  0
  4 20  1  0  0  0  0
  4  5  1  0  0  0  0
  6  2  1  0  0  0  0
  7  3  1  0  0  0  0
  8  9  1  0  0  0  0
  9 10  2  0  0  0  0
  9 14  1  0  0  0  0
 10 16  1  0  0  0  0
 11 10  1  0  0  0  0
 12 11  2  0  0  0  0
 13 12  1  0  0  0  0
 13  8  2  0  0  0  0
 15 12  1  0  0  0  0
 16 19  1  0  0  0  0
 16 17  1  0  0  0  0
 16 18  1  0  0  0  0
 20 24  1  0  0  0  0
 21 22  1  0  0  0  0
 21 20  2  0  0  0  0
 22 23  2  0  0  0  0
 23 24  1  0  0  0  0
 23 27  1  0  0  0  0
 25 21  1  0  0  0  0
 26 22  1  0  0  0  0
 27 28  2  0  0  0  0
 27 37  1  0  0  0  0
 28 30  1  0  0  0  0
 29 28  1  0  0  0  0
 30 31  2  0  0  0  0
 32 31  1  0  0  0  0
 32 33  1  0  0  0  0
 34 33  2  0  0  0  0
 35 34  1  0  0  0  0
 36 37  1  0  0  0  0
 36 35  2  0  0  0  0
 37 32  2  0  0  0  0
M  END
>  <minimizedAffinity>
-6.8711338

$$$$

 OpenBabel03272508073D

 37 41  0  0  0  0  0  0  0  0999 V2000
   35.5920   29.7570   33.3960 C   0  0  0  0  0  0  0  0  0  0  0  0
   35.8980   30.1650   32.1040 C   0  0  0  0  0  0  0  0  0  0  0  0
   36.1410   29.0680   31.2810 C   0  0  0  0  0  0  0  0  0  0  0  0
   35.9650   28.0230   32.1340 N   0  0  0  0  0  0  0  0  0  0  0  0
   35.6500   28.4110   33.3510 N   0  0  0  0  0  0  0  0  0  0  0  0
   35.9470   31.1920   31.7660 H   0  0  0  0  0  0  0  0  0  0  0  0
   36.3990   29.0080   30.2520 H   0  0  0  0  0  0  0  0  0  0  0  0
   35.2760   30.6020   34.5310 C   0  0  0  0  0  0  0  0  0  0  0  0
   34.0060   30.4470   35.1510 C   0  0  0  0  0  0  0  0  0  0  0  0
   33.7270   31.2700   36.2410 C   0  0  0  0  0  0  0  0  0  0  0  0
   34.6690   32.1610   36.6440 N   0  0  0  0  0  0  0  0  0  0  0  0
   35.8680   32.2840   36.0350 C   0  0  0  0  0  0  0  0  0  0  0  0
   36.1580   31.4970   34.9790 N   0  0  0  0  0  0  0  0  0  0  0  0
   33.2920   29.7180   34.7860 H   0  0  0  0  0  0  0  0  0  0  0  0
   36.5940   33.0060   36.3840 H   0  0  0  0  0  0  0  0  0  0  0  0
   32.3960   31.1240   36.9080 C   0  0  0  0  0  0  0  0  0  0  0  0
   31.5820   30.5330   35.9740 F   0  0  0  0  0  0  0  0  0  0  0  0
   32.4630   30.3090   38.0390 F   0  0  0  0  0  0  0  0  0  0  0  0
   31.8530   32.3520   37.2590 F   0  0  0  0  0  0  0  0  0  0  0  0
   36.0790   26.6040   31.8250 C   0  0  0  0  0  0  0  0  0  0  0  0
   35.1240   25.9310   31.0560 C   0  0  0  0  0  0  0  0  0  0  0  0
   35.2830   24.6060   30.7890 C   0  0  0  0  0  0  0  0  0  0  0  0
   36.4020   23.9090   31.2860 C   0  0  0  0  0  0  0  0  0  0  0  0
   37.2550   25.2810   32.1850 S   0  0  0  0  0  0  0  0  0  0  0  0
   34.2500   26.4870   30.6760 H   0  0  0  0  0  0  0  0  0  0  0  0
   34.5760   24.1020   30.1700 H   0  0  0  0  0  0  0  0  0  0  0  0
   37.0230   22.6760   31.2670 C   0  0  0  0  0  0  0  0  0  0  0  0
   38.3920   22.6160   30.9510 C   0  0  0  0  0  0  0  0  0  0  0  0
   39.0170   23.4800   30.7050 H   0  0  0  0  0  0  0  0  0  0  0  0
   39.1220   21.4480   30.9110 C   0  0  0  0  0  3  0  0  0  0  0  0
   38.4940   20.2680   31.1930 C   0  0  0  0  0  3  0  0  0  0  0  0
   37.1620   20.2170   31.5140 C   0  0  0  0  0  0  0  0  0  0  0  0
   36.5810   19.0080   31.8200 C   0  0  0  0  0  3  0  0  0  0  0  0
   35.2490   18.9630   32.1770 C   0  0  0  0  0  3  0  0  0  0  0  0
   34.5790   20.1740   32.2030 C   0  0  0  0  0  3  0  0  0  0  0  0
   35.2070   21.3560   31.8880 C   0  0  0  0  0  3  0  0  0  0  0  0
   36.5220   21.4250   31.5290 C   0  0  0  0  0  0  0  0  0  0  0  0
  1  8  1  0  0  0  0
  2  1  1  0  0  0  0
  3  2  2  0  0  0  0
  3  4  1  0  0  0  0
  4  5  1  0  0  0  0
  5  1  2  0  0  0  0
  6  2  1  0  0  0  0
  7  3  1  0  0  0  0
  8 13  2  0  0  0  0
  8  9  1  0  0  0  0
  9 10  2  0  0  0  0
 10 11  1  0  0  0  0
 10 16  1  0  0  0  0
 12 15  1  0  0  0  0
 12 11  2  0  0  0  0
 13 12  1  0  0  0  0
 14  9  1  0  0  0  0
 16 19  1  0  0  0  0
 16 18  1  0  0  0  0
 17 16  1  0  0  0  0
 20  4  1  0  0  0  0
 20 24  1  0  0  0  0
 21 20  2  0  0  0  0
 22 21  1  0  0  0  0
 22 23  2  0  0  0  0
 23 24  1  0  0  0  0
 25 21  1  0  0  0  0
 26 22  1  0  0  0  0
 27 23  1  0  0  0  0
 27 37  1  0  0  0  0
 28 27  2  0  0  0  0
 29 28  1  0  0  0  0
 30 28  1  0  0  0  0
 30 31  2  0  0  0  0
 31 32  1  0  0  0  0
 32 37  2  0  0  0  0
 32 33  1  0  0  0  0
 33 34  2  0  0  0  0
 34 35  1  0  0  0  0
 36 35  2  0  0  0  0
 37 36  1  0  0  0  0
M  END
>  <minimizedAffinity>
-6.86453056

$$$$

 OpenBabel03272508073D

 37 41  0  0  0  0  0  0  0  0999 V2000
   35.4980   29.3770   32.0920 C   0  0  0  0  0  0  0  0  0  0  0  0
   36.1140   29.4780   30.8510 C   0  0  0  0  0  0  0  0  0  0  0  0
   36.5700   28.2340   30.4210 C   0  0  0  0  0  0  0  0  0  0  0  0
   36.2010   27.4210   31.4460 N   0  0  0  0  0  0  0  0  0  0  0  0
   35.5840   28.0700   32.4110 N   0  0  0  0  0  0  0  0  0  0  0  0
   36.2310   30.3900   30.2820 H   0  0  0  0  0  0  0  0  0  0  0  0
   37.0800   27.9440   29.5350 H   0  0  0  0  0  0  0  0  0  0  0  0
   34.8960   30.4470   32.8620 C   0  0  0  0  0  0  0  0  0  0  0  0
   35.4930   30.8000   34.1040 C   0  0  0  0  0  0  0  0  0  0  0  0
   34.8960   31.8330   34.8250 C   0  0  0  0  0  0  0  0  0  0  0  0
   33.7940   32.4360   34.3110 N   0  0  0  0  0  0  0  0  0  0  0  0
   33.2500   32.0790   33.1270 C   0  0  0  0  0  0  0  0  0  0  0  0
   33.8120   31.0820   32.4130 N   0  0  0  0  0  0  0  0  0  0  0  0
   36.3730   30.2820   34.4660 H   0  0  0  0  0  0  0  0  0  0  0  0
   32.3700   32.5830   32.7480 H   0  0  0  0  0  0  0  0  0  0  0  0
   35.5080   32.2190   36.1340 C   0  0  0  0  0  0  0  0  0  0  0  0
   36.7020   31.5460   36.1920 F   0  0  0  0  0  0  0  0  0  0  0  0
   35.7510   33.5910   36.2150 F   0  0  0  0  0  0  0  0  0  0  0  0
   34.7230   31.8270   37.2100 F   0  0  0  0  0  0  0  0  0  0  0  0
   36.4080   25.9830   31.5500 C   0  0  0  0  0  0  0  0  0  0  0  0
   37.5880   25.4360   32.0640 C   0  0  0  0  0  0  0  0  0  0  0  0
   37.7270   24.0850   32.1480 C   0  0  0  0  0  0  0  0  0  0  0  0
   36.6910   23.2340   31.7160 C   0  0  0  0  0  0  0  0  0  0  0  0
   35.4570   24.4960   31.1660 S   0  0  0  0  0  0  0  0  0  0  0  0
   38.3940   26.1130   32.3970 H   0  0  0  0  0  0  0  0  0  0  0  0
   38.6110   23.6690   32.5780 H   0  0  0  0  0  0  0  0  0  0  0  0
   36.3240   21.9060   31.6370 C   0  0  0  0  0  0  0  0  0  0  0  0
   35.1680   21.4850   32.3190 C   0  0  0  0  0  0  0  0  0  0  0  0
   34.5280   22.1320   32.9270 H   0  0  0  0  0  0  0  0  0  0  0  0
   34.6970   20.1900   32.3060 C   0  0  0  0  0  3  0  0  0  0  0  0
   35.3790   19.2460   31.5930 C   0  0  0  0  0  3  0  0  0  0  0  0
   36.5170   19.5540   30.8910 C   0  0  0  0  0  0  0  0  0  0  0  0
   37.1530   18.5760   30.1630 C   0  0  0  0  0  3  0  0  0  0  0  0
   38.2770   18.8940   29.4290 C   0  0  0  0  0  3  0  0  0  0  0  0
   38.6910   20.2140   29.4830 C   0  0  0  0  0  3  0  0  0  0  0  0
   38.0190   21.1540   30.2270 C   0  0  0  0  0  3  0  0  0  0  0  0
   36.9070   20.8620   30.9630 C   0  0  0  0  0  0  0  0  0  0  0  0
  1  5  2  0  0  0  0
  1  8  1  0  0  0  0
  2  1  1  0  0  0  0
  3  2  2  0  0  0  0
  3  4  1  0  0  0  0
  4 20  1  0  0  0  0
  4  5  1  0  0  0  0
  6  2  1  0  0  0  0
  7  3  1  0  0  0  0
  8  9  1  0  0  0  0
  9 14  1  0  0  0  0
  9 10  2  0  0  0  0
 10 16  1  0  0  0  0
 11 10  1  0  0  0  0
 12 11  2  0  0  0  0
 13  8  2  0  0  0  0
 13 12  1  0  0  0  0
 15 12  1  0  0  0  0
 16 17  1  0  0  0  0
 16 18  1  0  0  0  0
 16 19  1  0  0  0  0
 20 21  2  0  0  0  0
 21 22  1  0  0  0  0
 21 25  1  0  0  0  0
 22 26  1  0  0  0  0
 23 22  2  0  0  0  0
 24 20  1  0  0  0  0
 24 23  1  0  0  0  0
 27 23  1  0  0  0  0
 27 28  1  0  0  0  0
 28 29  1  0  0  0  0
 30 28  2  0  0  0  0
 31 30  1  0  0  0  0
 32 37  1  0  0  0  0
 32 31  2  0  0  0  0
 33 32  1  0  0  0  0
 34 35  1  0  0  0  0
 34 33  2  0  0  0  0
 35 36  2  0  0  0  0
 36 37  1  0  0  0  0
 37 27  2  0  0  0  0
M  END
>  <minimizedAffinity>
-6.7232995

$$$$

 OpenBabel03272508073D

 37 41  0  0  0  0  0  0  0  0999 V2000
   36.8060   23.9030   31.5560 C   0  0  0  0  0  0  0  0  0  0  0  0
   37.9580   24.4440   30.9990 C   0  0  0  0  0  0  0  0  0  0  0  0
   38.0380   25.8110   31.2560 C   0  0  0  0  0  0  0  0  0  0  0  0
   36.9050   26.0370   31.9720 N   0  0  0  0  0  0  0  0  0  0  0  0
   36.1910   24.9460   32.1480 N   0  0  0  0  0  0  0  0  0  0  0  0
   38.7030   23.8940   30.4390 H   0  0  0  0  0  0  0  0  0  0  0  0
   38.7700   26.5320   30.9850 H   0  0  0  0  0  0  0  0  0  0  0  0
   36.3750   22.5200   31.5060 C   0  0  0  0  0  0  0  0  0  0  0  0
   37.0890   21.6230   30.6640 C   0  0  0  0  0  0  0  0  0  0  0  0
   36.6550   20.2990   30.6350 C   0  0  0  0  0  0  0  0  0  0  0  0
   35.5920   19.9430   31.3990 N   0  0  0  0  0  0  0  0  0  0  0  0
   34.9340   20.8170   32.1910 C   0  0  0  0  0  0  0  0  0  0  0  0
   35.3370   22.1040   32.2340 N   0  0  0  0  0  0  0  0  0  0  0  0
   37.9310   21.9640   30.0740 H   0  0  0  0  0  0  0  0  0  0  0  0
   34.0900   20.4970   32.7870 H   0  0  0  0  0  0  0  0  0  0  0  0
   37.3920   19.3390   29.7550 C   0  0  0  0  0  0  0  0  0  0  0  0
   36.4360   18.7700   28.9520 F   0  0  0  0  0  0  0  0  0  0  0  0
   38.3380   19.9820   28.9550 F   0  0  0  0  0  0  0  0  0  0  0  0
   38.0140   18.3370   30.4860 F   0  0  0  0  0  0  0  0  0  0  0  0
   36.4540   27.3040   32.5320 C   0  0  0  0  0  0  0  0  0  0  0  0
   36.0280   28.3640   31.7270 C   0  0  0  0  0  0  0  0  0  0  0  0
   35.6070   29.5240   32.3020 C   0  0  0  0  0  0  0  0  0  0  0  0
   35.6010   29.6620   33.7030 C   0  0  0  0  0  0  0  0  0  0  0  0
   36.2450   27.9980   34.1870 S   0  0  0  0  0  0  0  0  0  0  0  0
   36.0400   28.2450   30.6290 H   0  0  0  0  0  0  0  0  0  0  0  0
   35.2450   30.3170   31.6890 H   0  0  0  0  0  0  0  0  0  0  0  0
   35.2500   30.5300   34.7180 C   0  0  0  0  0  0  0  0  0  0  0  0
   36.1660   31.5250   35.1010 C   0  0  0  0  0  0  0  0  0  0  0  0
   37.1580   31.6680   34.6600 H   0  0  0  0  0  0  0  0  0  0  0  0
   35.9250   32.4530   36.0900 C   0  0  0  0  0  3  0  0  0  0  0  0
   34.7290   32.4190   36.7490 C   0  0  0  0  0  3  0  0  0  0  0  0
   33.7660   31.4900   36.4510 C   0  0  0  0  0  0  0  0  0  0  0  0
   32.5650   31.5150   37.1210 C   0  0  0  0  0  3  0  0  0  0  0  0
   31.5840   30.6010   36.7950 C   0  0  0  0  0  3  0  0  0  0  0  0
   31.8920   29.7030   35.7880 C   0  0  0  0  0  3  0  0  0  0  0  0
   33.1080   29.7200   35.1490 C   0  0  0  0  0  3  0  0  0  0  0  0
   34.0950   30.6120   35.4560 C   0  0  0  0  0  0  0  0  0  0  0  0
  1  5  2  0  0  0  0
  2  3  2  0  0  0  0
  2  1  1  0  0  0  0
  3  4  1  0  0  0  0
  4  5  1  0  0  0  0
  4 20  1  0  0  0  0
  6  2  1  0  0  0  0
  7  3  1  0  0  0  0
  8  1  1  0  0  0  0
  8 13  1  0  0  0  0
  9  8  2  0  0  0  0
 10  9  1  0  0  0  0
 10 11  2  0  0  0  0
 11 12  1  0  0  0  0
 12 13  2  0  0  0  0
 12 15  1  0  0  0  0
 14  9  1  0  0  0  0
 16 19  1  0  0  0  0
 16 10  1  0  0  0  0
 17 16  1  0  0  0  0
 18 16  1  0  0  0  0
 20 24  1  0  0  0  0
 21 22  1  0  0  0  0
 21 20  2  0  0  0  0
 22 23  2  0  0  0  0
 23 24  1  0  0  0  0
 23 27  1  0  0  0  0
 25 21  1  0  0  0  0
 26 22  1  0  0  0  0
 27 28  2  0  0  0  0
 27 37  1  0  0  0  0
 28 30  1  0  0  0  0
 29 28  1  0  0  0  0
 30 31  2  0  0  0  0
 32 31  1  0  0  0  0
 32 33  1  0  0  0  0
 34 33  2  0  0  0  0
 35 34  1  0  0  0  0
 36 37  1  0  0  0  0
 36 35  2  0  0  0  0
 37 32  2  0  0  0  0
M  END
>  <minimizedAffinity>
-6.66853952

$$$$

 OpenBabel03272508073D

 37 41  0  0  0  0  0  0  0  0999 V2000
   35.1850   29.6560   33.3910 C   0  0  0  0  0  0  0  0  0  0  0  0
   35.6270   29.4890   32.0840 C   0  0  0  0  0  0  0  0  0  0  0  0
   36.4760   28.3900   31.9840 C   0  0  0  0  0  0  0  0  0  0  0  0
   36.5090   27.9330   33.2640 N   0  0  0  0  0  0  0  0  0  0  0  0
   35.7700   28.6550   34.0790 N   0  0  0  0  0  0  0  0  0  0  0  0
   35.3580   30.1190   31.2460 H   0  0  0  0  0  0  0  0  0  0  0  0
   36.9900   27.9760   31.1500 H   0  0  0  0  0  0  0  0  0  0  0  0
   34.2900   30.6810   33.8900 C   0  0  0  0  0  0  0  0  0  0  0  0
   34.3460   31.0070   35.2730 C   0  0  0  0  0  0  0  0  0  0  0  0
   33.4760   31.9960   35.7280 C   0  0  0  0  0  0  0  0  0  0  0  0
   32.6350   32.5850   34.8400 N   0  0  0  0  0  0  0  0  0  0  0  0
   32.6050   32.2540   33.5300 C   0  0  0  0  0  0  0  0  0  0  0  0
   33.4390   31.2990   33.0700 N   0  0  0  0  0  0  0  0  0  0  0  0
   35.0390   30.5030   35.9370 H   0  0  0  0  0  0  0  0  0  0  0  0
   31.9200   32.7450   32.8510 H   0  0  0  0  0  0  0  0  0  0  0  0
   33.5190   32.3540   37.1790 C   0  0  0  0  0  0  0  0  0  0  0  0
   33.0470   31.2510   37.8430 F   0  0  0  0  0  0  0  0  0  0  0  0
   34.8170   32.6300   37.6130 F   0  0  0  0  0  0  0  0  0  0  0  0
   32.6990   33.4350   37.4720 F   0  0  0  0  0  0  0  0  0  0  0  0
   37.2390   26.7780   33.7700 C   0  0  0  0  0  0  0  0  0  0  0  0
   37.3060   25.5730   33.0630 C   0  0  0  0  0  0  0  0  0  0  0  0
   38.0100   24.5270   33.5770 C   0  0  0  0  0  0  0  0  0  0  0  0
   38.6670   24.6510   34.8160 C   0  0  0  0  0  0  0  0  0  0  0  0
   38.2230   26.3960   35.2350 S   0  0  0  0  0  0  0  0  0  0  0  0
   36.7850   25.4870   32.0940 H   0  0  0  0  0  0  0  0  0  0  0  0
   38.0950   23.6220   33.0190 H   0  0  0  0  0  0  0  0  0  0  0  0
   39.4930   23.9750   35.6920 C   0  0  0  0  0  0  0  0  0  0  0  0
   38.9280   23.3960   36.8410 C   0  0  0  0  0  0  0  0  0  0  0  0
   37.8680   23.4440   37.1120 H   0  0  0  0  0  0  0  0  0  0  0  0
   39.6480   22.6890   37.7800 C   0  0  0  0  0  3  0  0  0  0  0  0
   40.9930   22.5320   37.5990 C   0  0  0  0  0  3  0  0  0  0  0  0
   41.6410   23.0560   36.5100 C   0  0  0  0  0  0  0  0  0  0  0  0
   42.9910   22.8450   36.3550 C   0  0  0  0  0  3  0  0  0  0  0  0
   43.6350   23.3420   35.2410 C   0  0  0  0  0  3  0  0  0  0  0  0
   42.8500   24.0360   34.3360 C   0  0  0  0  0  3  0  0  0  0  0  0
   41.5030   24.2190   34.5390 C   0  0  0  0  0  3  0  0  0  0  0  0
   40.8450   23.7390   35.6340 C   0  0  0  0  0  0  0  0  0  0  0  0
  1  8  1  0  0  0  0
  1  5  2  0  0  0  0
  2  1  1  0  0  0  0
  3  2  2  0  0  0  0
  3  4  1  0  0  0  0
  4 20  1  0  0  0  0
  4  5  1  0  0  0  0
  6  2  1  0  0  0  0
  7  3  1  0  0  0  0
  8  9  1  0  0  0  0
  9 10  2  0  0  0  0
  9 14  1  0  0  0  0
 10 16  1  0  0  0  0
 11 10  1  0  0  0  0
 12 11  2  0  0  0  0
 13 12  1  0  0  0  0
 13  8  2  0  0  0  0
 15 12  1  0  0  0  0
 16 19  1  0  0  0  0
 16 18  1  0  0  0  0
 16 17  1  0  0  0  0
 20 24  1  0  0  0  0
 21 22  1  0  0  0  0
 21 20  2  0  0  0  0
 22 23  2  0  0  0  0
 23 24  1  0  0  0  0
 23 27  1  0  0  0  0
 25 21  1  0  0  0  0
 26 22  1  0  0  0  0
 27 28  1  0  0  0  0
 28 29  1  0  0  0  0
 28 30  2  0  0  0  0
 31 30  1  0  0  0  0
 32 31  2  0  0  0  0
 33 32  1  0  0  0  0
 34 33  2  0  0  0  0
 35 36  2  0  0  0  0
 35 34  1  0  0  0  0
 36 37  1  0  0  0  0
 37 27  2  0  0  0  0
 37 32  1  0  0  0  0
M  END
>  <minimizedAffinity>
-6.61192465

$$$$

 OpenBabel03272508073D

 37 41  0  0  0  0  0  0  0  0999 V2000
   37.7270   23.4620   30.8650 C   0  0  0  0  0  0  0  0  0  0  0  0
   38.7410   24.1280   30.1900 C   0  0  0  0  0  0  0  0  0  0  0  0
   38.6800   25.4990   30.4310 C   0  0  0  0  0  0  0  0  0  0  0  0
   37.6070   25.5990   31.2600 N   0  0  0  0  0  0  0  0  0  0  0  0
   37.0530   24.4320   31.5140 N   0  0  0  0  0  0  0  0  0  0  0  0
   39.4860   23.6620   29.5580 H   0  0  0  0  0  0  0  0  0  0  0  0
   39.2880   26.2980   30.0820 H   0  0  0  0  0  0  0  0  0  0  0  0
   37.4640   22.0360   30.8670 C   0  0  0  0  0  0  0  0  0  0  0  0
   36.3560   21.5580   31.6200 C   0  0  0  0  0  0  0  0  0  0  0  0
   36.1250   20.1830   31.6050 C   0  0  0  0  0  0  0  0  0  0  0  0
   36.9560   19.3890   30.8850 N   0  0  0  0  0  0  0  0  0  0  0  0
   38.0010   19.8720   30.1780 C   0  0  0  0  0  0  0  0  0  0  0  0
   38.2430   21.1990   30.1790 N   0  0  0  0  0  0  0  0  0  0  0  0
   35.7250   22.2390   32.1780 H   0  0  0  0  0  0  0  0  0  0  0  0
   38.6430   19.2080   29.6150 H   0  0  0  0  0  0  0  0  0  0  0  0
   34.9640   19.6600   32.3910 C   0  0  0  0  0  0  0  0  0  0  0  0
   35.2180   20.0060   33.6940 F   0  0  0  0  0  0  0  0  0  0  0  0
   33.7570   20.2340   31.9900 F   0  0  0  0  0  0  0  0  0  0  0  0
   34.8640   18.2770   32.3090 F   0  0  0  0  0  0  0  0  0  0  0  0
   37.0650   26.8110   31.8580 C   0  0  0  0  0  0  0  0  0  0  0  0
   36.9360   26.9650   33.2420 C   0  0  0  0  0  0  0  0  0  0  0  0
   36.4310   28.1220   33.7500 C   0  0  0  0  0  0  0  0  0  0  0  0
   36.0350   29.1640   32.8890 C   0  0  0  0  0  0  0  0  0  0  0  0
   36.4330   28.3930   31.2570 S   0  0  0  0  0  0  0  0  0  0  0  0
   37.2460   26.1390   33.9060 H   0  0  0  0  0  0  0  0  0  0  0  0
   36.3700   28.2540   34.8060 H   0  0  0  0  0  0  0  0  0  0  0  0
   35.5530   30.4580   32.8830 C   0  0  0  0  0  0  0  0  0  0  0  0
   35.1220   31.0100   31.6640 C   0  0  0  0  0  0  0  0  0  0  0  0
   35.1460   30.4950   30.6990 H   0  0  0  0  0  0  0  0  0  0  0  0
   34.6120   32.2840   31.5340 C   0  0  0  0  0  3  0  0  0  0  0  0
   34.5120   33.0710   32.6460 C   0  0  0  0  0  3  0  0  0  0  0  0
   34.9020   32.6260   33.8830 C   0  0  0  0  0  0  0  0  0  0  0  0
   34.7540   33.4440   34.9790 C   0  0  0  0  0  3  0  0  0  0  0  0
   35.1140   32.9830   36.2280 C   0  0  0  0  0  3  0  0  0  0  0  0
   35.6120   31.6930   36.2860 C   0  0  0  0  0  3  0  0  0  0  0  0
   35.7410   30.9160   35.1590 C   0  0  0  0  0  3  0  0  0  0  0  0
   35.3940   31.3510   33.9130 C   0  0  0  0  0  0  0  0  0  0  0  0
  1  8  1  0  0  0  0
  1  5  2  0  0  0  0
  2  3  2  0  0  0  0
  2  1  1  0  0  0  0
  3  4  1  0  0  0  0
  4  5  1  0  0  0  0
  4 20  1  0  0  0  0
  6  2  1  0  0  0  0
  7  3  1  0  0  0  0
  8  9  1  0  0  0  0
  9 14  1  0  0  0  0
 10  9  2  0  0  0  0
 10 16  1  0  0  0  0
 11 10  1  0  0  0  0
 12 13  1  0  0  0  0
 12 11  2  0  0  0  0
 13  8  2  0  0  0  0
 15 12  1  0  0  0  0
 16 17  1  0  0  0  0
 18 16  1  0  0  0  0
 19 16  1  0  0  0  0
 20 21  2  0  0  0  0
 21 22  1  0  0  0  0
 21 25  1  0  0  0  0
 22 26  1  0  0  0  0
 23 22  2  0  0  0  0
 24 20  1  0  0  0  0
 24 23  1  0  0  0  0
 27 23  1  0  0  0  0
 27 37  1  0  0  0  0
 28 27  2  0  0  0  0
 29 28  1  0  0  0  0
 30 28  1  0  0  0  0
 30 31  2  0  0  0  0
 31 32  1  0  0  0  0
 32 37  2  0  0  0  0
 32 33  1  0  0  0  0
 33 34  2  0  0  0  0
 34 35  1  0  0  0  0
 36 35  2  0  0  0  0
 37 36  1  0  0  0  0
M  END
>  <minimizedAffinity>
-6.50034189

$$$$
