
 OpenBabel03272500283D

 36 39  0  0  0  0  0  0  0  0999 V2000
   36.5800   28.0290   32.8770 C   0  0  0  0  0  0  0  0  0  0  0  0
   36.4320   28.3420   31.5690 C   0  0  0  0  0  0  0  0  0  0  0  0
   35.7890   29.5300   31.2090 C   0  0  0  0  0  0  0  0  0  0  0  0
   35.3410   30.3130   32.2380 N   0  0  0  0  0  0  0  0  0  0  0  0
   35.4920   29.9970   33.5270 C   0  0  0  0  0  0  0  0  0  0  0  0
   36.1180   28.8440   33.7800 N   0  0  0  0  0  0  0  0  0  0  0  0
   36.7630   27.7620   30.7290 H   0  0  0  0  0  0  0  0  0  0  0  0
   35.6230   29.8640   30.2180 H   0  0  0  0  0  0  0  0  0  0  0  0
   35.0670   30.7360   34.7180 C   0  0  0  0  0  0  0  0  0  0  0  0
   35.8760   31.7190   35.2900 C   0  0  0  0  0  0  0  0  0  0  0  0
   36.8420   31.9350   34.8360 H   0  0  0  0  0  0  0  0  0  0  0  0
   35.5390   32.4450   36.4010 C   0  0  0  0  0  3  0  0  0  0  0  0
   34.3330   32.2150   37.0170 C   0  0  0  0  0  3  0  0  0  0  0  0
   33.4900   31.2570   36.4990 C   0  0  0  0  0  0  0  0  0  0  0  0
   32.2900   31.0520   37.1410 C   0  0  0  0  0  3  0  0  0  0  0  0
   31.4060   30.1180   36.6820 C   0  0  0  0  0  3  0  0  0  0  0  0
   31.7930   29.4020   35.5440 C   0  0  0  0  0  3  0  0  0  0  0  0
   33.0010   29.6390   34.9360 C   0  0  0  0  0  3  0  0  0  0  0  0
   33.8980   30.5700   35.3800 C   0  0  0  0  0  0  0  0  0  0  0  0
   37.2370   26.8040   33.2810 C   0  0  0  0  0  0  0  0  0  0  0  0
   36.4760   26.0560   33.6100 H   0  0  0  0  0  0  0  0  0  0  0  0
   37.6680   26.3410   32.3500 H   0  0  0  0  0  0  0  0  0  0  0  0
   38.2730   26.8510   34.3130 C   0  0  0  0  0  0  0  0  0  0  0  0
   38.2170   27.8030   34.8790 H   0  0  0  0  0  0  0  0  0  0  0  0
   39.3110   26.8680   33.8660 H   0  0  0  0  0  0  0  0  0  0  0  0
   38.2700   25.7160   35.2490 C   0  0  0  0  0  0  0  0  0  0  0  0
   38.3090   24.4170   34.7680 C   0  0  0  0  0  0  0  0  0  0  0  0
   38.2960   23.5700   35.8420 C   0  0  0  0  0  0  0  0  0  0  0  0
   38.2510   24.3220   36.9330 N   0  0  0  0  0  0  0  0  0  0  0  0
   38.2360   25.5960   36.5700 N   0  0  0  0  0  0  0  0  0  0  0  0
   38.3460   24.0030   33.7570 H   0  0  0  0  0  0  0  0  0  0  0  0
   38.3150   22.4890   35.9010 H   0  0  0  0  0  0  0  0  0  0  0  0
   38.2200   23.9020   38.3410 C   0  0  0  0  0  0  0  0  0  0  0  0
   37.9140   24.9640   39.1570 F   0  0  0  0  0  0  0  0  0  0  0  0
   39.4440   23.3720   38.7260 F   0  0  0  0  0  0  0  0  0  0  0  0
   37.2460   22.9250   38.5430 F   0  0  0  0  0  0  0  0  0  0  0  0
  1 20  1  0  0  0  0
  1  6  1  0  0  0  0
  2  1  2  0  0  0  0
  3  2  1  0  0  0  0
  3  4  2  0  0  0  0
  4  5  1  0  0  0  0
  5  6  2  0  0  0  0
  5  9  1  0  0  0  0
  7  2  1  0  0  0  0
  8  3  1  0  0  0  0
  9 10  2  0  0  0  0
  9 19  1  0  0  0  0
 10 12  1  0  0  0  0
 11 10  1  0  0  0  0
 12 13  2  0  0  0  0
 14 13  1  0  0  0  0
 14 15  1  0  0  0  0
 16 15  2  0  0  0  0
 17 16  1  0  0  0  0
 18 19  1  0  0  0  0
 18 17  2  0  0  0  0
 19 14  2  0  0  0  0
 20 21  1  0  0  0  0
 20 23  1  0  0  0  0
 22 20  1  0  0  0  0
 23 24  1  0  0  0  0
 23 26  1  0  0  0  0
 25 23  1  0  0  0  0
 26 30  2  0  0  0  0
 27 26  1  0  0  0  0
 27 28  2  0  0  0  0
 28 32  1  0  0  0  0
 28 29  1  0  0  0  0
 29 33  1  0  0  0  0
 30 29  1  0  0  0  0
 31 27  1  0  0  0  0
 33 36  1  0  0  0  0
 33 35  1  0  0  0  0
 33 34  1  0  0  0  0
M  END
>  <minimizedAffinity>
-7.23524237

$$$$

 OpenBabel03272500283D

 36 39  0  0  0  0  0  0  0  0999 V2000
   37.0670   27.8880   32.4550 C   0  0  0  0  0  0  0  0  0  0  0  0
   37.2880   28.3400   31.1990 C   0  0  0  0  0  0  0  0  0  0  0  0
   36.4470   29.3150   30.6550 C   0  0  0  0  0  0  0  0  0  0  0  0
   35.4290   29.7550   31.4570 N   0  0  0  0  0  0  0  0  0  0  0  0
   35.2180   29.3040   32.6970 C   0  0  0  0  0  0  0  0  0  0  0  0
   36.0690   28.3730   33.1360 N   0  0  0  0  0  0  0  0  0  0  0  0
   38.0680   28.0260   30.5320 H   0  0  0  0  0  0  0  0  0  0  0  0
   36.5340   29.7330   29.6850 H   0  0  0  0  0  0  0  0  0  0  0  0
   34.1780   29.6840   33.6560 C   0  0  0  0  0  0  0  0  0  0  0  0
   32.8660   29.2280   33.5220 C   0  0  0  0  0  0  0  0  0  0  0  0
   32.6170   28.5780   32.6850 H   0  0  0  0  0  0  0  0  0  0  0  0
   31.8480   29.5460   34.3830 C   0  0  0  0  0  3  0  0  0  0  0  0
   32.1030   30.3630   35.4560 C   0  0  0  0  0  3  0  0  0  0  0  0
   33.3790   30.8430   35.6420 C   0  0  0  0  0  0  0  0  0  0  0  0
   33.5990   31.6600   36.7280 C   0  0  0  0  0  3  0  0  0  0  0  0
   34.8410   32.1730   36.9730 C   0  0  0  0  0  3  0  0  0  0  0  0
   35.8490   31.8210   36.0680 C   0  0  0  0  0  3  0  0  0  0  0  0
   35.5840   31.0040   34.9970 C   0  0  0  0  0  3  0  0  0  0  0  0
   34.3480   30.4810   34.7360 C   0  0  0  0  0  0  0  0  0  0  0  0
   37.9160   26.8750   33.0440 C   0  0  0  0  0  0  0  0  0  0  0  0
   37.3940   25.8880   33.0340 H   0  0  0  0  0  0  0  0  0  0  0  0
   38.7780   26.7180   32.3360 H   0  0  0  0  0  0  0  0  0  0  0  0
   38.4420   27.0750   34.3950 C   0  0  0  0  0  0  0  0  0  0  0  0
   37.9330   27.9270   34.8890 H   0  0  0  0  0  0  0  0  0  0  0  0
   39.5290   27.3840   34.3830 H   0  0  0  0  0  0  0  0  0  0  0  0
   38.3830   25.8900   35.2660 C   0  0  0  0  0  0  0  0  0  0  0  0
   38.4100   24.6190   34.7150 C   0  0  0  0  0  0  0  0  0  0  0  0
   38.3430   23.7140   35.7380 C   0  0  0  0  0  0  0  0  0  0  0  0
   38.2790   24.4070   36.8680 N   0  0  0  0  0  0  0  0  0  0  0  0
   38.3030   25.6980   36.5770 N   0  0  0  0  0  0  0  0  0  0  0  0
   38.4710   24.2620   33.6840 H   0  0  0  0  0  0  0  0  0  0  0  0
   38.3380   22.6320   35.7370 H   0  0  0  0  0  0  0  0  0  0  0  0
   38.1920   23.9100   38.2480 C   0  0  0  0  0  0  0  0  0  0  0  0
   37.8450   24.9240   39.1070 F   0  0  0  0  0  0  0  0  0  0  0  0
   39.4040   23.3660   38.6550 F   0  0  0  0  0  0  0  0  0  0  0  0
   37.2180   22.9180   38.3560 F   0  0  0  0  0  0  0  0  0  0  0  0
  1 20  1  0  0  0  0
  1  6  1  0  0  0  0
  2  1  2  0  0  0  0
  3  2  1  0  0  0  0
  3  4  2  0  0  0  0
  4  5  1  0  0  0  0
  5  6  2  0  0  0  0
  5  9  1  0  0  0  0
  7  2  1  0  0  0  0
  8  3  1  0  0  0  0
  9 19  1  0  0  0  0
 10  9  2  0  0  0  0
 10 12  1  0  0  0  0
 11 10  1  0  0  0  0
 12 13  2  0  0  0  0
 13 14  1  0  0  0  0
 14 15  1  0  0  0  0
 15 16  2  0  0  0  0
 17 16  1  0  0  0  0
 18 17  2  0  0  0  0
 19 18  1  0  0  0  0
 19 14  2  0  0  0  0
 20 23  1  0  0  0  0
 21 20  1  0  0  0  0
 22 20  1  0  0  0  0
 23 24  1  0  0  0  0
 23 26  1  0  0  0  0
 25 23  1  0  0  0  0
 26 30  2  0  0  0  0
 27 26  1  0  0  0  0
 27 28  2  0  0  0  0
 28 29  1  0  0  0  0
 29 33  1  0  0  0  0
 30 29  1  0  0  0  0
 31 27  1  0  0  0  0
 32 28  1  0  0  0  0
 33 36  1  0  0  0  0
 33 35  1  0  0  0  0
 33 34  1  0  0  0  0
M  END
>  <minimizedAffinity>
-7.17820644

$$$$

 OpenBabel03272500283D

 36 39  0  0  0  0  0  0  0  0999 V2000
   37.5030   25.6410   32.7610 C   0  0  0  0  0  0  0  0  0  0  0  0
   38.3050   26.6290   32.3030 C   0  0  0  0  0  0  0  0  0  0  0  0
   39.4100   27.0320   33.0590 C   0  0  0  0  0  0  0  0  0  0  0  0
   39.6040   26.3790   34.2460 N   0  0  0  0  0  0  0  0  0  0  0  0
   38.8060   25.4050   34.6920 C   0  0  0  0  0  0  0  0  0  0  0  0
   37.7750   25.0830   33.9060 N   0  0  0  0  0  0  0  0  0  0  0  0
   38.1950   27.1700   31.3830 H   0  0  0  0  0  0  0  0  0  0  0  0
   40.0960   27.7930   32.7890 H   0  0  0  0  0  0  0  0  0  0  0  0
   38.8960   24.6280   35.9300 C   0  0  0  0  0  0  0  0  0  0  0  0
   38.0120   24.8440   36.9880 C   0  0  0  0  0  0  0  0  0  0  0  0
   37.2430   25.6080   36.8840 H   0  0  0  0  0  0  0  0  0  0  0  0
   38.0420   24.1540   38.1710 C   0  0  0  0  0  3  0  0  0  0  0  0
   38.9910   23.1800   38.3600 C   0  0  0  0  0  3  0  0  0  0  0  0
   39.8920   22.9200   37.3510 C   0  0  0  0  0  0  0  0  0  0  0  0
   40.8300   21.9380   37.5740 C   0  0  0  0  0  3  0  0  0  0  0  0
   41.7530   21.6270   36.6170 C   0  0  0  0  0  3  0  0  0  0  0  0
   41.6840   22.3580   35.4250 C   0  0  0  0  0  3  0  0  0  0  0  0
   40.7310   23.3310   35.2470 C   0  0  0  0  0  3  0  0  0  0  0  0
   39.7980   23.6540   36.1930 C   0  0  0  0  0  0  0  0  0  0  0  0
   36.3490   25.2040   32.0040 C   0  0  0  0  0  0  0  0  0  0  0  0
   35.5860   24.7670   32.6930 H   0  0  0  0  0  0  0  0  0  0  0  0
   35.8420   26.1320   31.6150 H   0  0  0  0  0  0  0  0  0  0  0  0
   36.5290   24.2620   30.9000 C   0  0  0  0  0  0  0  0  0  0  0  0
   37.4490   24.5020   30.3280 H   0  0  0  0  0  0  0  0  0  0  0  0
   35.7060   24.3530   30.1300 H   0  0  0  0  0  0  0  0  0  0  0  0
   36.5430   22.8430   31.2900 C   0  0  0  0  0  0  0  0  0  0  0  0
   37.6060   22.0320   30.9250 C   0  0  0  0  0  0  0  0  0  0  0  0
   37.3630   20.7770   31.4110 C   0  0  0  0  0  0  0  0  0  0  0  0
   36.2000   20.8220   32.0470 N   0  0  0  0  0  0  0  0  0  0  0  0
   35.7200   22.0540   31.9690 N   0  0  0  0  0  0  0  0  0  0  0  0
   38.5220   22.2220   30.3620 H   0  0  0  0  0  0  0  0  0  0  0  0
   37.9370   19.8610   31.3480 H   0  0  0  0  0  0  0  0  0  0  0  0
   35.4890   19.7410   32.7450 C   0  0  0  0  0  0  0  0  0  0  0  0
   34.2650   19.5130   32.1660 F   0  0  0  0  0  0  0  0  0  0  0  0
   35.3070   20.0550   34.0860 F   0  0  0  0  0  0  0  0  0  0  0  0
   36.2130   18.5510   32.6780 F   0  0  0  0  0  0  0  0  0  0  0  0
  1  6  1  0  0  0  0
  2  1  2  0  0  0  0
  2  3  1  0  0  0  0
  3  4  2  0  0  0  0
  4  5  1  0  0  0  0
  5  9  1  0  0  0  0
  6  5  2  0  0  0  0
  7  2  1  0  0  0  0
  8  3  1  0  0  0  0
  9 19  2  0  0  0  0
  9 10  1  0  0  0  0
 10 12  2  0  0  0  0
 11 10  1  0  0  0  0
 12 13  1  0  0  0  0
 14 15  1  0  0  0  0
 14 13  2  0  0  0  0
 16 15  2  0  0  0  0
 17 16  1  0  0  0  0
 18 17  2  0  0  0  0
 18 19  1  0  0  0  0
 19 14  1  0  0  0  0
 20 21  1  0  0  0  0
 20  1  1  0  0  0  0
 22 20  1  0  0  0  0
 23 26  1  0  0  0  0
 23 20  1  0  0  0  0
 24 23  1  0  0  0  0
 25 23  1  0  0  0  0
 26 30  2  0  0  0  0
 27 26  1  0  0  0  0
 27 28  2  0  0  0  0
 28 29  1  0  0  0  0
 29 33  1  0  0  0  0
 30 29  1  0  0  0  0
 31 27  1  0  0  0  0
 32 28  1  0  0  0  0
 33 35  1  0  0  0  0
 34 33  1  0  0  0  0
 36 33  1  0  0  0  0
M  END
>  <minimizedAffinity>
-6.81507063

$$$$

 OpenBabel03272500283D

 36 39  0  0  0  0  0  0  0  0999 V2000
   36.3090   23.0280   31.9310 C   0  0  0  0  0  0  0  0  0  0  0  0
   35.3500   22.0730   31.9590 C   0  0  0  0  0  0  0  0  0  0  0  0
   35.4590   21.0080   32.8580 C   0  0  0  0  0  0  0  0  0  0  0  0
   36.5610   21.0080   33.6680 N   0  0  0  0  0  0  0  0  0  0  0  0
   37.5030   21.9540   33.6350 C   0  0  0  0  0  0  0  0  0  0  0  0
   37.3200   22.9340   32.7460 N   0  0  0  0  0  0  0  0  0  0  0  0
   34.4720   22.0290   31.3450 H   0  0  0  0  0  0  0  0  0  0  0  0
   34.7650   20.2130   32.9570 H   0  0  0  0  0  0  0  0  0  0  0  0
   38.7220   22.0770   34.4380 C   0  0  0  0  0  0  0  0  0  0  0  0
   39.9770   21.7890   33.9000 C   0  0  0  0  0  0  0  0  0  0  0  0
   40.0440   21.4670   32.8620 H   0  0  0  0  0  0  0  0  0  0  0  0
   41.1540   21.8830   34.5960 C   0  0  0  0  0  3  0  0  0  0  0  0
   41.1310   22.2840   35.9090 C   0  0  0  0  0  3  0  0  0  0  0  0
   39.9210   22.5830   36.4950 C   0  0  0  0  0  0  0  0  0  0  0  0
   39.9340   22.9810   37.8130 C   0  0  0  0  0  3  0  0  0  0  0  0
   38.7720   23.2930   38.4580 C   0  0  0  0  0  3  0  0  0  0  0  0
   37.5960   23.1820   37.7070 C   0  0  0  0  0  3  0  0  0  0  0  0
   37.6290   22.7800   36.3950 C   0  0  0  0  0  3  0  0  0  0  0  0
   38.7830   22.4650   35.7330 C   0  0  0  0  0  0  0  0  0  0  0  0
   36.2280   24.1400   31.0080 C   0  0  0  0  0  0  0  0  0  0  0  0
   37.1760   24.2180   30.4230 H   0  0  0  0  0  0  0  0  0  0  0  0
   35.4660   23.8630   30.2280 H   0  0  0  0  0  0  0  0  0  0  0  0
   35.9220   25.4770   31.5190 C   0  0  0  0  0  0  0  0  0  0  0  0
   34.9510   25.4760   32.0550 H   0  0  0  0  0  0  0  0  0  0  0  0
   35.7650   26.2210   30.6840 H   0  0  0  0  0  0  0  0  0  0  0  0
   36.9610   26.0670   32.3780 C   0  0  0  0  0  0  0  0  0  0  0  0
   38.0470   26.7140   31.8110 C   0  0  0  0  0  0  0  0  0  0  0  0
   38.8480   27.1600   32.8250 C   0  0  0  0  0  0  0  0  0  0  0  0
   38.2730   26.8000   33.9650 N   0  0  0  0  0  0  0  0  0  0  0  0
   37.1530   26.1500   33.6880 N   0  0  0  0  0  0  0  0  0  0  0  0
   38.3350   26.9050   30.7740 H   0  0  0  0  0  0  0  0  0  0  0  0
   39.7820   27.7070   32.8120 H   0  0  0  0  0  0  0  0  0  0  0  0
   38.7290   27.0370   35.3420 C   0  0  0  0  0  0  0  0  0  0  0  0
   38.1630   28.1800   35.8490 F   0  0  0  0  0  0  0  0  0  0  0  0
   40.1120   27.1530   35.3920 F   0  0  0  0  0  0  0  0  0  0  0  0
   38.3570   25.9810   36.1730 F   0  0  0  0  0  0  0  0  0  0  0  0
  1  2  2  0  0  0  0
  1  6  1  0  0  0  0
  2  3  1  0  0  0  0
  3  8  1  0  0  0  0
  3  4  2  0  0  0  0
  5  4  1  0  0  0  0
  5  9  1  0  0  0  0
  6  5  2  0  0  0  0
  7  2  1  0  0  0  0
  9 19  1  0  0  0  0
 10  9  2  0  0  0  0
 10 12  1  0  0  0  0
 11 10  1  0  0  0  0
 12 13  2  0  0  0  0
 13 14  1  0  0  0  0
 14 15  1  0  0  0  0
 15 16  2  0  0  0  0
 17 16  1  0  0  0  0
 18 17  2  0  0  0  0
 19 18  1  0  0  0  0
 19 14  2  0  0  0  0
 20 23  1  0  0  0  0
 20  1  1  0  0  0  0
 21 20  1  0  0  0  0
 22 20  1  0  0  0  0
 23 24  1  0  0  0  0
 23 26  1  0  0  0  0
 25 23  1  0  0  0  0
 26 30  2  0  0  0  0
 27 26  1  0  0  0  0
 27 28  2  0  0  0  0
 28 29  1  0  0  0  0
 29 33  1  0  0  0  0
 30 29  1  0  0  0  0
 31 27  1  0  0  0  0
 32 28  1  0  0  0  0
 33 35  1  0  0  0  0
 33 34  1  0  0  0  0
 33 36  1  0  0  0  0
M  END
>  <minimizedAffinity>
-6.63382292

$$$$

 OpenBabel03272500283D

 36 39  0  0  0  0  0  0  0  0999 V2000
   37.1800   26.8570   34.0300 C   0  0  0  0  0  0  0  0  0  0  0  0
   37.0330   26.3090   32.8010 C   0  0  0  0  0  0  0  0  0  0  0  0
   37.3590   24.9640   32.5990 C   0  0  0  0  0  0  0  0  0  0  0  0
   37.8170   24.2800   33.6920 N   0  0  0  0  0  0  0  0  0  0  0  0
   37.9590   24.8290   34.9010 C   0  0  0  0  0  0  0  0  0  0  0  0
   37.6240   26.1180   35.0050 N   0  0  0  0  0  0  0  0  0  0  0  0
   36.6810   26.8030   31.9160 H   0  0  0  0  0  0  0  0  0  0  0  0
   37.2810   24.4440   31.6800 H   0  0  0  0  0  0  0  0  0  0  0  0
   38.4320   24.2180   36.1460 C   0  0  0  0  0  0  0  0  0  0  0  0
   37.8020   24.4730   37.3650 C   0  0  0  0  0  0  0  0  0  0  0  0
   36.9410   25.1400   37.3840 H   0  0  0  0  0  0  0  0  0  0  0  0
   38.1940   23.9360   38.5630 C   0  0  0  0  0  3  0  0  0  0  0  0
   39.2730   23.0880   38.6000 C   0  0  0  0  0  3  0  0  0  0  0  0
   39.9360   22.7980   37.4290 C   0  0  0  0  0  0  0  0  0  0  0  0
   41.0140   21.9450   37.5030 C   0  0  0  0  0  3  0  0  0  0  0  0
   41.7180   21.6140   36.3810 C   0  0  0  0  0  3  0  0  0  0  0  0
   41.2810   22.1860   35.1810 C   0  0  0  0  0  3  0  0  0  0  0  0
   40.2010   23.0330   35.1540 C   0  0  0  0  0  3  0  0  0  0  0  0
   39.4840   23.3760   36.2670 C   0  0  0  0  0  0  0  0  0  0  0  0
   36.8560   28.2470   34.2700 C   0  0  0  0  0  0  0  0  0  0  0  0
   36.7130   28.4200   35.3640 H   0  0  0  0  0  0  0  0  0  0  0  0
   37.7800   28.8440   34.0340 H   0  0  0  0  0  0  0  0  0  0  0  0
   35.7130   28.8480   33.5820 C   0  0  0  0  0  0  0  0  0  0  0  0
   35.0960   28.0660   33.0940 H   0  0  0  0  0  0  0  0  0  0  0  0
   36.0370   29.5060   32.7220 H   0  0  0  0  0  0  0  0  0  0  0  0
   34.8580   29.7000   34.4240 C   0  0  0  0  0  0  0  0  0  0  0  0
   33.4910   29.4850   34.4710 C   0  0  0  0  0  0  0  0  0  0  0  0
   32.9470   30.4090   35.3200 C   0  0  0  0  0  0  0  0  0  0  0  0
   33.9450   31.1570   35.7740 N   0  0  0  0  0  0  0  0  0  0  0  0
   35.0760   30.7280   35.2360 N   0  0  0  0  0  0  0  0  0  0  0  0
   32.8390   28.7590   33.9780 H   0  0  0  0  0  0  0  0  0  0  0  0
   31.9250   30.5830   35.6300 H   0  0  0  0  0  0  0  0  0  0  0  0
   33.8960   32.2870   36.7120 C   0  0  0  0  0  0  0  0  0  0  0  0
   33.6470   33.4610   36.0450 F   0  0  0  0  0  0  0  0  0  0  0  0
   35.0920   32.4040   37.4080 F   0  0  0  0  0  0  0  0  0  0  0  0
   32.8730   32.1100   37.6440 F   0  0  0  0  0  0  0  0  0  0  0  0
  1 20  1  0  0  0  0
  1  6  1  0  0  0  0
  2  1  2  0  0  0  0
  3  2  1  0  0  0  0
  3  4  2  0  0  0  0
  4  5  1  0  0  0  0
  5  6  2  0  0  0  0
  5  9  1  0  0  0  0
  7  2  1  0  0  0  0
  8  3  1  0  0  0  0
  9 19  2  0  0  0  0
  9 10  1  0  0  0  0
 10 11  1  0  0  0  0
 10 12  2  0  0  0  0
 12 13  1  0  0  0  0
 14 15  1  0  0  0  0
 14 13  2  0  0  0  0
 16 15  2  0  0  0  0
 17 16  1  0  0  0  0
 18 17  2  0  0  0  0
 18 19  1  0  0  0  0
 19 14  1  0  0  0  0
 20 21  1  0  0  0  0
 22 20  1  0  0  0  0
 23 20  1  0  0  0  0
 23 26  1  0  0  0  0
 24 23  1  0  0  0  0
 25 23  1  0  0  0  0
 26 27  1  0  0  0  0
 26 30  2  0  0  0  0
 27 28  2  0  0  0  0
 28 32  1  0  0  0  0
 28 29  1  0  0  0  0
 29 33  1  0  0  0  0
 30 29  1  0  0  0  0
 31 27  1  0  0  0  0
 33 35  1  0  0  0  0
 33 36  1  0  0  0  0
 34 33  1  0  0  0  0
M  END
>  <minimizedAffinity>
-6.5488143

$$$$

 OpenBabel03272500283D

 36 39  0  0  0  0  0  0  0  0999 V2000
   36.9930   25.7030   32.6000 C   0  0  0  0  0  0  0  0  0  0  0  0
   36.2360   26.5240   31.8370 C   0  0  0  0  0  0  0  0  0  0  0  0
   35.3280   25.9790   30.9240 C   0  0  0  0  0  0  0  0  0  0  0  0
   35.2710   24.6130   30.8660 N   0  0  0  0  0  0  0  0  0  0  0  0
   36.0220   23.8100   31.6240 C   0  0  0  0  0  0  0  0  0  0  0  0
   36.8620   24.4150   32.4690 N   0  0  0  0  0  0  0  0  0  0  0  0
   36.2460   27.5970   31.8440 H   0  0  0  0  0  0  0  0  0  0  0  0
   34.6930   26.5330   30.2820 H   0  0  0  0  0  0  0  0  0  0  0  0
   36.0620   22.3460   31.6660 C   0  0  0  0  0  0  0  0  0  0  0  0
   35.0680   21.6120   32.3140 C   0  0  0  0  0  0  0  0  0  0  0  0
   34.2500   22.1430   32.7970 H   0  0  0  0  0  0  0  0  0  0  0  0
   35.0470   20.2440   32.3900 C   0  0  0  0  0  3  0  0  0  0  0  0
   36.0530   19.5190   31.8000 C   0  0  0  0  0  3  0  0  0  0  0  0
   37.0620   20.1890   31.1440 C   0  0  0  0  0  0  0  0  0  0  0  0
   38.0550   19.4320   30.5650 C   0  0  0  0  0  3  0  0  0  0  0  0
   39.0870   20.0290   29.8990 C   0  0  0  0  0  3  0  0  0  0  0  0
   39.0670   21.4270   29.8470 C   0  0  0  0  0  3  0  0  0  0  0  0
   38.0560   22.1420   30.4410 C   0  0  0  0  0  3  0  0  0  0  0  0
   37.0150   21.5620   31.1110 C   0  0  0  0  0  0  0  0  0  0  0  0
   37.9460   26.2360   33.5520 C   0  0  0  0  0  0  0  0  0  0  0  0
   38.3150   27.2300   33.2020 H   0  0  0  0  0  0  0  0  0  0  0  0
   37.3690   26.4890   34.4850 H   0  0  0  0  0  0  0  0  0  0  0  0
   39.1180   25.4410   33.9170 C   0  0  0  0  0  0  0  0  0  0  0  0
   40.0150   26.0870   34.0060 H   0  0  0  0  0  0  0  0  0  0  0  0
   39.3980   24.7060   33.1060 H   0  0  0  0  0  0  0  0  0  0  0  0
   38.9650   24.6330   35.1380 C   0  0  0  0  0  0  0  0  0  0  0  0
   39.2180   23.2720   35.1090 C   0  0  0  0  0  0  0  0  0  0  0  0
   38.9990   22.7750   36.3640 C   0  0  0  0  0  0  0  0  0  0  0  0
   38.6270   23.7940   37.1280 N   0  0  0  0  0  0  0  0  0  0  0  0
   38.6100   24.8940   36.3900 N   0  0  0  0  0  0  0  0  0  0  0  0
   39.5370   22.5960   34.3110 H   0  0  0  0  0  0  0  0  0  0  0  0
   39.0830   21.7720   36.7620 H   0  0  0  0  0  0  0  0  0  0  0  0
   38.2760   23.7950   38.5550 C   0  0  0  0  0  0  0  0  0  0  0  0
   39.3870   23.5580   39.3270 F   0  0  0  0  0  0  0  0  0  0  0  0
   37.3170   22.8290   38.8290 F   0  0  0  0  0  0  0  0  0  0  0  0
   37.7590   25.0330   38.9350 F   0  0  0  0  0  0  0  0  0  0  0  0
  1 20  1  0  0  0  0
  2  7  1  0  0  0  0
  2  1  2  0  0  0  0
  3  2  1  0  0  0  0
  4  3  2  0  0  0  0
  4  5  1  0  0  0  0
  5  9  1  0  0  0  0
  5  6  2  0  0  0  0
  6  1  1  0  0  0  0
  8  3  1  0  0  0  0
  9 10  1  0  0  0  0
 10 12  2  0  0  0  0
 10 11  1  0  0  0  0
 13 12  1  0  0  0  0
 14 13  2  0  0  0  0
 15 14  1  0  0  0  0
 16 15  2  0  0  0  0
 17 16  1  0  0  0  0
 17 18  2  0  0  0  0
 18 19  1  0  0  0  0
 19 14  1  0  0  0  0
 19  9  2  0  0  0  0
 20 23  1  0  0  0  0
 20 22  1  0  0  0  0
 21 20  1  0  0  0  0
 23 24  1  0  0  0  0
 23 26  1  0  0  0  0
 25 23  1  0  0  0  0
 26 30  2  0  0  0  0
 27 26  1  0  0  0  0
 27 28  2  0  0  0  0
 28 32  1  0  0  0  0
 28 29  1  0  0  0  0
 29 33  1  0  0  0  0
 30 29  1  0  0  0  0
 31 27  1  0  0  0  0
 33 35  1  0  0  0  0
 33 36  1  0  0  0  0
 33 34  1  0  0  0  0
M  END
>  <minimizedAffinity>
-6.51569653

$$$$

 OpenBabel03272500283D

 36 39  0  0  0  0  0  0  0  0999 V2000
   37.2880   26.1610   32.5360 C   0  0  0  0  0  0  0  0  0  0  0  0
   36.2040   26.8190   32.0640 C   0  0  0  0  0  0  0  0  0  0  0  0
   35.3400   26.1800   31.1700 C   0  0  0  0  0  0  0  0  0  0  0  0
   35.6650   24.8960   30.8250 N   0  0  0  0  0  0  0  0  0  0  0  0
   36.7370   24.2530   31.2960 C   0  0  0  0  0  0  0  0  0  0  0  0
   37.5070   24.9390   32.1450 N   0  0  0  0  0  0  0  0  0  0  0  0
   35.9090   27.8230   32.3030 H   0  0  0  0  0  0  0  0  0  0  0  0
   34.4690   26.6070   30.7440 H   0  0  0  0  0  0  0  0  0  0  0  0
   37.1990   22.8920   31.0140 C   0  0  0  0  0  0  0  0  0  0  0  0
   38.4180   22.6570   30.3770 C   0  0  0  0  0  0  0  0  0  0  0  0
   39.0330   23.5070   30.0860 H   0  0  0  0  0  0  0  0  0  0  0  0
   38.9070   21.4100   30.0840 C   0  0  0  0  0  3  0  0  0  0  0  0
   38.1740   20.3010   30.4270 C   0  0  0  0  0  3  0  0  0  0  0  0
   36.9620   20.4700   31.0590 C   0  0  0  0  0  0  0  0  0  0  0  0
   36.2540   19.3360   31.3880 C   0  0  0  0  0  3  0  0  0  0  0  0
   35.0450   19.4290   32.0160 C   0  0  0  0  0  3  0  0  0  0  0  0
   34.5860   20.7210   32.2950 C   0  0  0  0  0  3  0  0  0  0  0  0
   35.3270   21.8240   31.9470 C   0  0  0  0  0  3  0  0  0  0  0  0
   36.5380   21.7510   31.3190 C   0  0  0  0  0  0  0  0  0  0  0  0
   38.2040   26.7970   33.4600 C   0  0  0  0  0  0  0  0  0  0  0  0
   38.4630   27.8190   33.0930 H   0  0  0  0  0  0  0  0  0  0  0  0
   37.6270   27.0000   34.4050 H   0  0  0  0  0  0  0  0  0  0  0  0
   39.4580   26.1260   33.8040 C   0  0  0  0  0  0  0  0  0  0  0  0
   40.2600   26.8700   33.9860 H   0  0  0  0  0  0  0  0  0  0  0  0
   39.8560   25.5100   32.9440 H   0  0  0  0  0  0  0  0  0  0  0  0
   39.3740   25.1970   34.9420 C   0  0  0  0  0  0  0  0  0  0  0  0
   40.1630   24.0590   34.9720 C   0  0  0  0  0  0  0  0  0  0  0  0
   39.8860   23.3840   36.1290 C   0  0  0  0  0  0  0  0  0  0  0  0
   38.9640   24.0830   36.7780 N   0  0  0  0  0  0  0  0  0  0  0  0
   38.6660   25.1590   36.0650 N   0  0  0  0  0  0  0  0  0  0  0  0
   40.9050   23.6560   34.2780 H   0  0  0  0  0  0  0  0  0  0  0  0
   40.2800   22.4600   36.5300 H   0  0  0  0  0  0  0  0  0  0  0  0
   38.3260   23.7910   38.0690 C   0  0  0  0  0  0  0  0  0  0  0  0
   37.2110   23.0090   37.8920 F   0  0  0  0  0  0  0  0  0  0  0  0
   37.9610   24.9640   38.7170 F   0  0  0  0  0  0  0  0  0  0  0  0
   39.1990   23.0940   38.9040 F   0  0  0  0  0  0  0  0  0  0  0  0
  1 20  1  0  0  0  0
  2  7  1  0  0  0  0
  2  1  2  0  0  0  0
  3  2  1  0  0  0  0
  4  3  2  0  0  0  0
  4  5  1  0  0  0  0
  5  6  2  0  0  0  0
  6  1  1  0  0  0  0
  8  3  1  0  0  0  0
  9  5  1  0  0  0  0
  9 19  1  0  0  0  0
 10  9  2  0  0  0  0
 11 10  1  0  0  0  0
 12 10  1  0  0  0  0
 12 13  2  0  0  0  0
 13 14  1  0  0  0  0
 14 19  2  0  0  0  0
 14 15  1  0  0  0  0
 15 16  2  0  0  0  0
 16 17  1  0  0  0  0
 18 17  2  0  0  0  0
 19 18  1  0  0  0  0
 20 23  1  0  0  0  0
 20 22  1  0  0  0  0
 21 20  1  0  0  0  0
 23 24  1  0  0  0  0
 23 26  1  0  0  0  0
 25 23  1  0  0  0  0
 26 27  1  0  0  0  0
 26 30  2  0  0  0  0
 27 28  2  0  0  0  0
 28 32  1  0  0  0  0
 28 29  1  0  0  0  0
 29 33  1  0  0  0  0
 30 29  1  0  0  0  0
 31 27  1  0  0  0  0
 33 35  1  0  0  0  0
 33 36  1  0  0  0  0
 34 33  1  0  0  0  0
M  END
>  <minimizedAffinity>
-6.41589546

$$$$

 OpenBabel03272500283D

 36 39  0  0  0  0  0  0  0  0999 V2000
   36.6420   28.1770   33.0570 C   0  0  0  0  0  0  0  0  0  0  0  0
   36.6650   28.6040   31.7730 C   0  0  0  0  0  0  0  0  0  0  0  0
   36.0500   29.8130   31.4340 C   0  0  0  0  0  0  0  0  0  0  0  0
   35.4500   30.4970   32.4560 N   0  0  0  0  0  0  0  0  0  0  0  0
   35.4320   30.0680   33.7210 C   0  0  0  0  0  0  0  0  0  0  0  0
   36.0440   28.9040   33.9560 N   0  0  0  0  0  0  0  0  0  0  0  0
   37.1200   28.1050   30.9390 H   0  0  0  0  0  0  0  0  0  0  0  0
   36.0120   30.2330   30.4620 H   0  0  0  0  0  0  0  0  0  0  0  0
   34.8330   30.6940   34.9030 C   0  0  0  0  0  0  0  0  0  0  0  0
   35.5560   31.5840   35.6970 C   0  0  0  0  0  0  0  0  0  0  0  0
   36.5860   31.8140   35.4280 H   0  0  0  0  0  0  0  0  0  0  0  0
   35.0560   32.2020   36.8130 C   0  0  0  0  0  3  0  0  0  0  0  0
   33.7640   31.9500   37.2020 C   0  0  0  0  0  3  0  0  0  0  0  0
   33.0000   31.0800   36.4570 C   0  0  0  0  0  0  0  0  0  0  0  0
   31.7090   30.8500   36.8750 C   0  0  0  0  0  3  0  0  0  0  0  0
   30.8950   29.9980   36.1850 C   0  0  0  0  0  3  0  0  0  0  0  0
   31.4480   29.3910   35.0520 C   0  0  0  0  0  3  0  0  0  0  0  0
   32.7420   29.6490   34.6720 C   0  0  0  0  0  3  0  0  0  0  0  0
   33.5710   30.4990   35.3500 C   0  0  0  0  0  0  0  0  0  0  0  0
   37.2660   26.9280   33.4390 C   0  0  0  0  0  0  0  0  0  0  0  0
   38.0770   27.1210   34.1830 H   0  0  0  0  0  0  0  0  0  0  0  0
   36.5040   26.3510   34.0330 H   0  0  0  0  0  0  0  0  0  0  0  0
   37.8230   26.0570   32.4050 C   0  0  0  0  0  0  0  0  0  0  0  0
   38.8640   25.7690   32.6560 H   0  0  0  0  0  0  0  0  0  0  0  0
   37.9260   26.5910   31.4140 H   0  0  0  0  0  0  0  0  0  0  0  0
   37.0300   24.8500   32.1160 C   0  0  0  0  0  0  0  0  0  0  0  0
   35.9190   24.9280   31.2930 C   0  0  0  0  0  0  0  0  0  0  0  0
   35.3760   23.6760   31.1980 C   0  0  0  0  0  0  0  0  0  0  0  0
   36.1290   22.8680   31.9330 N   0  0  0  0  0  0  0  0  0  0  0  0
   37.1080   23.5750   32.4750 N   0  0  0  0  0  0  0  0  0  0  0  0
   35.4510   25.7590   30.7580 H   0  0  0  0  0  0  0  0  0  0  0  0
   34.5120   23.3100   30.6590 H   0  0  0  0  0  0  0  0  0  0  0  0
   35.9750   21.4250   32.1640 C   0  0  0  0  0  0  0  0  0  0  0  0
   37.1600   20.8740   32.5880 F   0  0  0  0  0  0  0  0  0  0  0  0
   35.5630   20.7790   31.0050 F   0  0  0  0  0  0  0  0  0  0  0  0
   35.0220   21.1810   33.1530 F   0  0  0  0  0  0  0  0  0  0  0  0
  1 20  1  0  0  0  0
  1  6  1  0  0  0  0
  2  1  2  0  0  0  0
  3  2  1  0  0  0  0
  3  4  2  0  0  0  0
  4  5  1  0  0  0  0
  5  6  2  0  0  0  0
  5  9  1  0  0  0  0
  7  2  1  0  0  0  0
  8  3  1  0  0  0  0
  9 19  2  0  0  0  0
  9 10  1  0  0  0  0
 10 12  2  0  0  0  0
 11 10  1  0  0  0  0
 12 13  1  0  0  0  0
 14 15  1  0  0  0  0
 14 13  2  0  0  0  0
 16 15  2  0  0  0  0
 17 16  1  0  0  0  0
 18 17  2  0  0  0  0
 18 19  1  0  0  0  0
 19 14  1  0  0  0  0
 20 22  1  0  0  0  0
 20 21  1  0  0  0  0
 23 24  1  0  0  0  0
 23 20  1  0  0  0  0
 25 23  1  0  0  0  0
 26 23  1  0  0  0  0
 26 30  2  0  0  0  0
 27 26  1  0  0  0  0
 28 27  2  0  0  0  0
 28 29  1  0  0  0  0
 29 33  1  0  0  0  0
 29 30  1  0  0  0  0
 31 27  1  0  0  0  0
 32 28  1  0  0  0  0
 33 34  1  0  0  0  0
 33 36  1  0  0  0  0
 35 33  1  0  0  0  0
M  END
>  <minimizedAffinity>
-6.38699579

$$$$

 OpenBabel03272500283D

 36 39  0  0  0  0  0  0  0  0999 V2000
   37.1900   25.7180   32.9870 C   0  0  0  0  0  0  0  0  0  0  0  0
   36.5960   26.6560   32.2130 C   0  0  0  0  0  0  0  0  0  0  0  0
   35.7870   26.2610   31.1440 C   0  0  0  0  0  0  0  0  0  0  0  0
   35.6520   24.9130   30.9500 N   0  0  0  0  0  0  0  0  0  0  0  0
   36.2420   23.9930   31.7190 C   0  0  0  0  0  0  0  0  0  0  0  0
   36.9960   24.4590   32.7180 N   0  0  0  0  0  0  0  0  0  0  0  0
   36.6720   27.7200   32.3240 H   0  0  0  0  0  0  0  0  0  0  0  0
   35.2800   26.9140   30.4820 H   0  0  0  0  0  0  0  0  0  0  0  0
   36.1830   22.5330   31.6260 C   0  0  0  0  0  0  0  0  0  0  0  0
   35.1320   21.8120   32.1950 C   0  0  0  0  0  0  0  0  0  0  0  0
   34.3440   22.3520   32.7170 H   0  0  0  0  0  0  0  0  0  0  0  0
   35.0180   20.4470   32.1450 C   0  0  0  0  0  3  0  0  0  0  0  0
   35.9830   19.7120   31.5010 C   0  0  0  0  0  3  0  0  0  0  0  0
   37.0440   20.3690   30.9190 C   0  0  0  0  0  0  0  0  0  0  0  0
   37.9930   19.6020   30.2820 C   0  0  0  0  0  3  0  0  0  0  0  0
   39.0730   20.1860   29.6840 C   0  0  0  0  0  3  0  0  0  0  0  0
   39.1480   21.5810   29.7600 C   0  0  0  0  0  3  0  0  0  0  0  0
   38.1770   22.3060   30.4070 C   0  0  0  0  0  3  0  0  0  0  0  0
   37.0900   21.7390   31.0110 C   0  0  0  0  0  0  0  0  0  0  0  0
   38.0380   26.0950   34.0980 C   0  0  0  0  0  0  0  0  0  0  0  0
   39.0480   25.6350   33.9780 H   0  0  0  0  0  0  0  0  0  0  0  0
   38.2420   27.1970   33.9950 H   0  0  0  0  0  0  0  0  0  0  0  0
   37.5940   25.8190   35.4650 C   0  0  0  0  0  0  0  0  0  0  0  0
   36.5120   25.5790   35.4830 H   0  0  0  0  0  0  0  0  0  0  0  0
   37.6760   26.7320   36.1260 H   0  0  0  0  0  0  0  0  0  0  0  0
   38.3480   24.7650   36.1630 C   0  0  0  0  0  0  0  0  0  0  0  0
   37.8540   24.2140   37.3340 C   0  0  0  0  0  0  0  0  0  0  0  0
   38.7450   23.2700   37.7640 C   0  0  0  0  0  0  0  0  0  0  0  0
   39.7430   23.2460   36.8890 N   0  0  0  0  0  0  0  0  0  0  0  0
   39.4970   24.1380   35.9420 N   0  0  0  0  0  0  0  0  0  0  0  0
   36.9460   24.4010   37.9130 H   0  0  0  0  0  0  0  0  0  0  0  0
   38.7360   22.6180   38.6280 H   0  0  0  0  0  0  0  0  0  0  0  0
   40.9500   22.4090   36.8920 C   0  0  0  0  0  0  0  0  0  0  0  0
   40.9520   21.5660   37.9760 F   0  0  0  0  0  0  0  0  0  0  0  0
   42.0960   23.1930   36.9240 F   0  0  0  0  0  0  0  0  0  0  0  0
   41.0040   21.6170   35.7460 F   0  0  0  0  0  0  0  0  0  0  0  0
  1 20  1  0  0  0  0
  2  7  1  0  0  0  0
  2  1  2  0  0  0  0
  3  2  1  0  0  0  0
  4  3  2  0  0  0  0
  4  5  1  0  0  0  0
  5  6  2  0  0  0  0
  6  1  1  0  0  0  0
  8  3  1  0  0  0  0
  9  5  1  0  0  0  0
  9 10  1  0  0  0  0
 10 11  1  0  0  0  0
 12 10  2  0  0  0  0
 13 12  1  0  0  0  0
 14 19  1  0  0  0  0
 14 13  2  0  0  0  0
 15 14  1  0  0  0  0
 16 17  1  0  0  0  0
 16 15  2  0  0  0  0
 17 18  2  0  0  0  0
 18 19  1  0  0  0  0
 19  9  2  0  0  0  0
 20 23  1  0  0  0  0
 21 20  1  0  0  0  0
 22 20  1  0  0  0  0
 23 24  1  0  0  0  0
 23 25  1  0  0  0  0
 23 26  1  0  0  0  0
 26 27  1  0  0  0  0
 27 28  2  0  0  0  0
 27 31  1  0  0  0  0
 28 32  1  0  0  0  0
 29 33  1  0  0  0  0
 29 28  1  0  0  0  0
 30 26  2  0  0  0  0
 30 29  1  0  0  0  0
 33 35  1  0  0  0  0
 33 34  1  0  0  0  0
 36 33  1  0  0  0  0
M  END
>  <minimizedAffinity>
-6.33427191

$$$$
