
 OpenBabel03272509473D

 27 29  0  0  0  0  0  0  0  0999 V2000
   33.8500   27.1790   48.0010 C   0  0  0  0  0  0  0  0  0  0  0  0
   34.7550   26.5510   48.0080 H   0  0  0  0  0  0  0  0  0  0  0  0
   33.0930   26.5800   48.5890 H   0  0  0  0  0  0  0  0  0  0  0  0
   33.3420   27.4130   46.6350 C   0  0  0  0  0  0  0  0  0  0  0  0
   33.9960   28.3600   45.8570 C   0  0  0  0  0  0  0  0  0  0  0  0
   34.8590   28.8780   46.2620 H   0  0  0  0  0  0  0  0  0  0  0  0
   33.6580   28.7290   44.5760 C   0  0  0  0  0  3  0  0  0  0  0  0
   32.5500   28.0750   44.0280 C   0  0  0  0  0  3  0  0  0  0  0  0
   31.8680   27.1270   44.7640 C   0  0  0  0  0  0  0  0  0  0  0  0
   30.7710   26.4480   44.2730 C   0  0  0  0  0  3  0  0  0  0  0  0
   30.0710   25.4900   44.9820 C   0  0  0  0  0  3  0  0  0  0  0  0
   30.5110   25.2150   46.2480 C   0  0  0  0  0  3  0  0  0  0  0  0
   31.5910   25.8520   46.7950 C   0  0  0  0  0  3  0  0  0  0  0  0
   32.2570   26.7960   46.0530 C   0  0  0  0  0  0  0  0  0  0  0  0
   34.0480   28.4700   48.7220 C   0  0  0  0  0  0  0  0  0  0  0  0
   33.1120   28.9900   48.8990 H   0  0  0  0  0  0  0  0  0  0  0  0
   34.6340   29.1350   48.0290 H   0  0  0  0  0  0  0  0  0  0  0  0
   34.7760   28.2750   49.9190 O   0  0  0  0  0  0  0  0  0  0  0  0
   37.4220   30.2980   51.3790 C   0  0  0  0  0  0  0  0  0  0  0  0
   38.0770   30.7110   50.2220 C   0  0  0  0  0  0  0  0  0  0  0  0
   37.5880   30.2830   48.9900 C   0  0  0  0  0  0  0  0  0  0  0  0
   36.4800   29.4720   49.0230 N   0  0  0  0  0  0  0  0  0  0  0  0
   35.8740   29.0920   50.1480 C   0  0  0  0  0  0  0  0  0  0  0  0
   36.3500   29.5100   51.3300 N   0  0  0  0  0  0  0  0  0  0  0  0
   37.8400   30.6560   52.3000 H   0  0  0  0  0  0  0  0  0  0  0  0
   38.9520   31.3480   50.1470 H   0  0  0  0  0  0  0  0  0  0  0  0
   38.0190   30.5430   48.0190 H   0  0  0  0  0  0  0  0  0  0  0  0
  1  2  1  0  0  0  0
  1  3  1  0  0  0  0
  1 15  1  0  0  0  0
  4  1  1  0  0  0  0
  5  6  1  0  0  0  0
  5  4  2  0  0  0  0
  7  5  1  0  0  0  0
  8  7  2  0  0  0  0
  8  9  1  0  0  0  0
  9 14  1  0  0  0  0
 10  9  2  0  0  0  0
 10 11  1  0  0  0  0
 11 12  2  0  0  0  0
 12 13  1  0  0  0  0
 14  4  1  0  0  0  0
 14 13  2  0  0  0  0
 15 16  1  0  0  0  0
 15 18  1  0  0  0  0
 17 15  1  0  0  0  0
 18 23  1  0  0  0  0
 19 25  1  0  0  0  0
 20 19  2  0  0  0  0
 21 22  2  0  0  0  0
 21 20  1  0  0  0  0
 22 23  1  0  0  0  0
 23 24  2  0  0  0  0
 24 19  1  0  0  0  0
 26 20  1  0  0  0  0
 27 21  1  0  0  0  0
M  END
>  <minimizedAffinity>
-4.08769989

>  <minimizedRMSD>
0.31992498

$$$$
