
     RDKit          3D

 38 41  0  0  0  0  0  0  0  0999 V2000
   35.4312   29.2014   48.7638 C   0  0  0  0  0  0  0  0  0  0  0  0
   34.9832   30.0175   47.7149 C   0  0  0  0  0  0  0  0  0  0  0  0
   33.7894   29.7084   47.0613 C   0  0  0  0  0  0  0  0  0  0  0  0
   33.1239   28.5843   47.5170 N   0  0  0  0  0  0  0  0  0  0  0  0
   33.5856   27.8270   48.5255 C   0  0  0  0  0  0  0  0  0  0  0  0
   34.7560   28.1323   49.1644 N   0  0  0  0  0  0  0  0  0  0  0  0
   36.6461   29.5884   49.3799 N   0  0  0  0  0  0  0  0  0  0  0  0
   37.6649   30.4893   48.8594 C   0  0  1  0  0  0  0  0  0  0  0  0
   38.3179   30.9977   50.1162 C   0  0  0  0  0  0  0  0  0  0  0  0
   37.5281   30.4223   51.2879 C   0  0  0  0  0  0  0  0  0  0  0  0
   37.0648   29.1256   50.6937 C   0  0  0  0  0  0  0  0  0  0  0  0
   35.4583   30.8990   47.3210 H   0  0  0  0  0  0  0  0  0  0  0  0
   33.3853   30.2773   46.2594 H   0  0  0  0  0  0  0  0  0  0  0  0
   32.9752   26.9842   48.7812 H   0  0  0  0  0  0  0  0  0  0  0  0
   37.0975   31.3325   48.4404 H   0  0  0  0  0  0  0  0  0  0  0  0
   38.2712   32.0977   50.2406 H   0  0  0  0  0  0  0  0  0  0  0  0
   39.3850   30.7147   50.1678 H   0  0  0  0  0  0  0  0  0  0  0  0
   36.6970   31.0430   51.6137 H   0  0  0  0  0  0  0  0  0  0  0  0
   38.2793   30.1745   52.0691 H   0  0  0  0  0  0  0  0  0  0  0  0
   37.7523   28.2995   50.7106 H   0  0  0  0  0  0  0  0  0  0  0  0
   36.1682   28.8168   51.2895 H   0  0  0  0  0  0  0  0  0  0  0  0
   38.5508   29.8812   47.8858 C   0  0  0  0  0  0  0  0  0  0  0  0
   38.4267   28.6158   47.3495 C   0  0  0  0  0  0  0  0  0  0  0  0
   37.6016   27.9975   47.6731 H   0  0  0  0  0  0  0  0  0  0  0  0
   39.2656   28.0394   46.4176 C   0  0  0  0  0  0  0  0  0  0  0  0
   40.3318   28.7693   45.9627 C   0  0  0  0  0  0  0  0  0  0  0  0
   40.5264   30.0447   46.4497 C   0  0  0  0  0  0  0  0  0  0  0  0
   41.6073   30.7199   45.9588 C   0  0  0  0  0  0  0  0  0  0  0  0
   41.8697   31.9994   46.3987 C   0  0  0  0  0  0  0  0  0  0  0  0
   41.0333   32.5811   47.3321 C   0  0  0  0  0  0  0  0  0  0  0  0
   39.9676   31.8471   47.7818 C   0  0  0  0  0  0  0  0  0  0  0  0
   39.6478   30.5654   47.3846 C   0  0  0  0  0  0  0  0  0  0  0  0
   39.0912   27.0364   46.0510 H   0  0  0  0  0  0  0  0  0  0  0  0
   40.9877   28.3391   45.2442 H   0  0  0  0  0  0  0  0  0  0  0  0
   42.2773   30.2935   45.2310 H   0  0  0  0  0  0  0  0  0  0  0  0
   42.7175   32.5631   46.0307 H   0  0  0  0  0  0  0  0  0  0  0  0
   41.2461   33.5719   47.6654 H   0  0  0  0  0  0  0  0  0  0  0  0
   39.3482   32.3487   48.5118 H   0  0  0  0  0  0  0  0  0  0  0  0
  1  6  1  0
  1  7  1  0
  2  1  2  0
  3  4  2  0
  3  2  1  0
  4  5  1  0
  5  6  2  0
  7 11  1  0
  8  7  1  0
  8  9  1  0
  9 10  1  0
 11 10  1  0
  2 12  1  0
  3 13  1  0
  5 14  1  0
  8 15  1  6
  9 16  1  0
  9 17  1  0
 10 18  1  0
 10 19  1  0
 11 20  1  0
 11 21  1  0
 22 23  2  0
 23 24  1  0
 23 25  1  0
 25 26  2  0
 26 27  1  0
 27 28  2  0
 28 29  1  0
 29 30  2  0
 30 31  1  0
 31 32  2  0
 32 22  1  0
 32 27  1  0
 25 33  1  0
 26 34  1  0
 28 35  1  0
 29 36  1  0
 30 37  1  0
 31 38  1  0
  8 22  1  0
M  ISO  8  12  14  13  14  14  14  15  13  16  13  17  13  18  13  19  13
M  ISO  3  20  13  21  13  24  15
M  END
>  <DihAtoms>  (1) 
6,7,21,22

>  <DihDeg>  (1) 
-23.670689575580862

$$$$
