
     RDKit          3D

 29 31  0  0  0  0  0  0  0  0999 V2000
   38.3049   31.2362   50.1169 C   0  0  0  0  0  0  0  0  0  0  0  0
   38.2840   31.5945   48.7705 C   0  0  0  0  0  0  0  0  0  0  0  0
   37.2065   31.2226   47.9853 C   0  0  0  0  0  0  0  0  0  0  0  0
   36.2345   30.5130   48.6237 N   0  0  0  0  0  0  0  0  0  0  0  0
   36.2563   30.1710   49.9070 C   0  0  0  0  0  0  0  0  0  0  0  0
   37.2974   30.5423   50.6333 N   0  0  0  0  0  0  0  0  0  0  0  0
   35.1216   29.3873   50.4571 C   0  0  0  0  0  0  0  0  0  0  0  0
   35.2716   29.1198   51.8067 F   0  0  0  0  0  0  0  0  0  0  0  0
   33.9167   30.0507   50.2926 F   0  0  0  0  0  0  0  0  0  0  0  0
   34.9556   28.1745   49.8110 F   0  0  0  0  0  0  0  0  0  0  0  0
   39.1454   31.5283   50.7308 H   0  0  0  0  0  0  0  0  0  0  0  0
   39.1416   32.1104   48.4043 H   0  0  0  0  0  0  0  0  0  0  0  0
   37.0131   31.4217   46.5704 C   0  0  0  0  0  0  0  0  0  0  0  0
   35.8841   30.8123   46.0090 C   0  0  0  0  0  0  0  0  0  0  0  0
   35.2163   30.2221   46.6255 H   0  0  0  0  0  0  0  0  0  0  0  0
   35.5203   30.8895   44.6975 C   0  0  0  0  0  0  0  0  0  0  0  0
   36.2944   31.6142   43.8199 C   0  0  0  0  0  0  0  0  0  0  0  0
   37.4074   32.2345   44.3086 C   0  0  0  0  0  0  0  0  0  0  0  0
   38.1851   32.9951   43.4663 C   0  0  0  0  0  0  0  0  0  0  0  0
   39.3074   33.6762   43.9199 C   0  0  0  0  0  0  0  0  0  0  0  0
   39.6036   33.5519   45.2634 C   0  0  0  0  0  0  0  0  0  0  0  0
   38.8171   32.7928   46.0694 C   0  0  0  0  0  0  0  0  0  0  0  0
   37.7246   32.1239   45.6334 C   0  0  0  0  0  0  0  0  0  0  0  0
   34.6485   30.4083   44.3035 H   0  0  0  0  0  0  0  0  0  0  0  0
   36.0073   31.6738   42.7821 H   0  0  0  0  0  0  0  0  0  0  0  0
   37.9367   33.0824   42.4120 H   0  0  0  0  0  0  0  0  0  0  0  0
   39.8885   34.2554   43.2434 H   0  0  0  0  0  0  0  0  0  0  0  0
   40.4883   34.0939   45.6079 H   0  0  0  0  0  0  0  0  0  0  0  0
   39.1062   32.7967   47.0875 H   0  0  0  0  0  0  0  0  0  0  0  0
  1  6  2  0
  2  1  1  0
  3  4  1  0
  3  2  2  0
  4  5  2  0
  5  7  1  0
  5  6  1  0
  7  8  1  0
  9  7  1  0
 10  7  1  0
  1 11  1  0
  2 12  1  0
 13 14  2  0
 14 15  1  0
 14 16  1  0
 16 17  2  0
 17 18  1  0
 18 19  2  0
 19 20  1  0
 20 21  2  0
 21 22  1  0
 22 23  2  0
 23 13  1  0
 23 18  1  0
 16 24  1  0
 17 25  1  0
 19 26  1  0
 20 27  1  0
 21 28  1  0
 22 29  1  0
  3 13  1  0
M  ISO  3  11  14  12  14  15  15
M  END
>  <DihAtoms>  (1) 
3,2,12,13

>  <DihDeg>  (1) 
-32.813208269965244

$$$$
