
 OpenBabel03272502183D

 35 38  0  0  1  0  0  0  0  0999 V2000
   37.2740   30.4650   49.1370 C   0  0  0  0  0  0  0  0  0  0  0  0
   37.4720   31.5450   49.9900 C   0  0  0  0  0  0  0  0  0  0  0  0
   38.2620   32.5790   49.5090 C   0  0  0  0  0  0  0  0  0  0  0  0
   38.7860   32.4750   48.2570 N   0  0  0  0  0  0  0  0  0  0  0  0
   38.5920   31.4490   47.4550 C   0  0  0  0  0  0  0  0  0  0  0  0
   37.8330   30.4770   47.9420 N   0  0  0  0  0  0  0  0  0  0  0  0
   37.0980   31.7080   50.9910 H   0  0  0  0  0  0  0  0  0  0  0  0
   38.4750   33.4540   50.0890 H   0  0  0  0  0  0  0  0  0  0  0  0
   39.0650   31.1750   46.1110 C   0  0  0  0  0  0  0  0  0  0  0  0
   40.3960   31.2860   45.7650 C   0  0  0  0  0  0  0  0  0  0  0  0
   41.1400   31.5880   46.4990 H   0  0  0  0  0  0  0  0  0  0  0  0
   40.9060   31.0400   44.5110 C   0  0  0  0  0  0  0  0  0  0  0  0
   40.0600   30.6510   43.4980 C   0  0  0  0  0  0  0  0  0  0  0  0
   38.7220   30.5200   43.7790 C   0  0  0  0  0  0  0  0  0  0  0  0
   37.8970   30.1280   42.7470 C   0  0  0  0  0  0  0  0  0  0  0  0
   36.5430   29.9770   42.9600 C   0  0  0  0  0  0  0  0  0  0  0  0
   36.0680   30.2380   44.2500 C   0  0  0  0  0  0  0  0  0  0  0  0
   36.9360   30.6240   45.2360 C   0  0  0  0  0  0  0  0  0  0  0  0
   38.2850   30.7820   45.0500 C   0  0  0  0  0  0  0  0  0  0  0  0
   36.2580   29.1570   49.8050 S   0  0  0  0  0  0  0  0  0  0  0  0
   33.8000   28.2160   49.1950 N   0  0  0  0  0  0  0  0  0  0  0  0
   34.4840   29.4680   49.3990 C   0  0  2  0  0  0  0  0  0  0  0  0
   34.4250   30.2610   48.1040 C   0  0  0  0  0  0  0  0  0  0  0  0
   33.4120   29.7520   47.2650 O   0  0  0  0  0  0  0  0  0  0  0  0
   33.9030   28.4980   46.8340 C   0  0  0  0  0  0  0  0  0  0  0  0
   34.2990   27.6150   47.9830 C   0  0  2  0  0  0  0  0  0  0  0  0
   33.9120   27.5580   49.9930 H   0  0  0  0  0  0  0  0  0  0  0  0
   33.9860   29.9960   50.2320 H   0  0  0  0  0  0  0  0  0  0  0  0
   35.3720   30.0490   47.5560 H   0  0  0  0  0  0  0  0  0  0  0  0
   34.2800   31.3410   48.2850 H   0  0  0  0  0  0  0  0  0  0  0  0
   33.0610   28.0200   46.2900 H   0  0  0  0  0  0  0  0  0  0  0  0
   34.7240   28.6430   46.1080 H   0  0  0  0  0  0  0  0  0  0  0  0
   35.4170   27.5290   47.9660 H   0  0  0  0  0  0  0  0  0  0  0  0
   33.7010   26.3440   47.8450 O   0  0  0  0  0  0  0  0  0  0  0  0
   33.5640   25.9560   48.7520 H   0  0  0  0  0  0  0  0  0  0  0  0
  1 20  1  0  0  0  0
  1  2  1  0  0  0  0
  2  7  1  0  0  0  0
  3  2  2  0  0  0  0
  3  8  1  0  0  0  0
  4  3  1  0  0  0  0
  5  6  1  0  0  0  0
  5  4  2  0  0  0  0
  6  1  2  0  0  0  0
  9  5  1  0  0  0  0
 10  9  1  0  0  0  0
 10 11  1  0  0  0  0
 12 10  2  0  0  0  0
 13 14  2  0  0  0  0
 13 12  1  0  0  0  0
 14 19  1  0  0  0  0
 15 16  2  0  0  0  0
 15 14  1  0  0  0  0
 16 17  1  0  0  0  0
 17 18  2  0  0  0  0
 19 18  1  0  0  0  0
 19  9  2  0  0  0  0
 21 22  1  0  0  0  0
 21 27  1  0  0  0  0
 22 20  1  0  0  0  0
 22 28  1  1  0  0  0
 23 30  1  0  0  0  0
 23 22  1  0  0  0  0
 24 23  1  0  0  0  0
 25 24  1  0  0  0  0
 25 26  1  0  0  0  0
 26 33  1  1  0  0  0
 26 21  1  0  0  0  0
 29 23  1  0  0  0  0
 31 25  1  0  0  0  0
 32 25  1  0  0  0  0
 34 26  1  0  0  0  0
 34 35  1  0  0  0  0
M  END
>  <minimizedAffinity>
-6.37968111

>  <minimizedRMSD>
0.904978573

$$$$
