
     RDKit          3D

 29 31  0  0  0  0  0  0  0  0999 V2000
   38.3049   31.2362   50.1169 C   0  0  0  0  0  0  0  0  0  0  0  0
   38.2840   31.5945   48.7705 C   0  0  0  0  0  0  0  0  0  0  0  0
   37.2065   31.2226   47.9853 C   0  0  0  0  0  0  0  0  0  0  0  0
   36.2345   30.5130   48.6237 N   0  0  0  0  0  0  0  0  0  0  0  0
   36.2563   30.1710   49.9070 C   0  0  0  0  0  0  0  0  0  0  0  0
   37.2974   30.5423   50.6333 N   0  0  0  0  0  0  0  0  0  0  0  0
   35.1216   29.3873   50.4571 C   0  0  0  0  0  0  0  0  0  0  0  0
   35.2716   29.1198   51.8067 F   0  0  0  0  0  0  0  0  0  0  0  0
   33.9167   30.0507   50.2926 F   0  0  0  0  0  0  0  0  0  0  0  0
   34.9556   28.1745   49.8110 F   0  0  0  0  0  0  0  0  0  0  0  0
   39.1454   31.5283   50.7308 H   0  0  0  0  0  0  0  0  0  0  0  0
   39.1416   32.1104   48.4043 H   0  0  0  0  0  0  0  0  0  0  0  0
   37.0131   31.4217   46.5704 C   0  0  0  0  0  0  0  0  0  0  0  0
   37.9763   32.2018   45.9185 C   0  0  0  0  0  0  0  0  0  0  0  0
   38.8042   32.6272   46.4735 H   0  0  0  0  0  0  0  0  0  0  0  0
   37.9789   32.4965   44.5876 C   0  0  0  0  0  0  0  0  0  0  0  0
   36.9748   32.0086   43.7824 C   0  0  0  0  0  0  0  0  0  0  0  0
   36.0075   31.2382   44.3598 C   0  0  0  0  0  0  0  0  0  0  0  0
   35.0079   30.7061   43.5785 C   0  0  0  0  0  0  0  0  0  0  0  0
   34.0201   29.8865   44.1093 C   0  0  0  0  0  0  0  0  0  0  0  0
   34.0928   29.6310   45.4649 C   0  0  0  0  0  0  0  0  0  0  0  0
   35.0914   30.1719   46.2098 C   0  0  0  0  0  0  0  0  0  0  0  0
   36.0545   30.9738   45.6999 C   0  0  0  0  0  0  0  0  0  0  0  0
   38.7334   33.0983   44.1236 H   0  0  0  0  0  0  0  0  0  0  0  0
   36.9762   32.2431   42.7298 H   0  0  0  0  0  0  0  0  0  0  0  0
   34.9666   30.9170   42.5132 H   0  0  0  0  0  0  0  0  0  0  0  0
   33.2604   29.4912   43.4789 H   0  0  0  0  0  0  0  0  0  0  0  0
   33.3106   28.9835   45.8699 H   0  0  0  0  0  0  0  0  0  0  0  0
   35.0805   29.8815   47.2275 H   0  0  0  0  0  0  0  0  0  0  0  0
  1  6  2  0
  2  1  1  0
  3  4  1  0
  3  2  2  0
  4  5  2  0
  5  7  1  0
  5  6  1  0
  7  8  1  0
  9  7  1  0
 10  7  1  0
  1 11  1  0
  2 12  1  0
 13 14  2  0
 14 15  1  0
 14 16  1  0
 16 17  2  0
 17 18  1  0
 18 19  2  0
 19 20  1  0
 20 21  2  0
 21 22  1  0
 22 23  2  0
 23 13  1  0
 23 18  1  0
 16 24  1  0
 17 25  1  0
 19 26  1  0
 20 27  1  0
 21 28  1  0
 22 29  1  0
  3 13  1  0
M  ISO  3  11  14  12  14  15  15
M  END
>  <DihAtoms>  (1) 
3,2,12,13

>  <DihDeg>  (1) 
-32.813208269965244

$$$$
