REMARK  Name = 
REMARK  4 active torsions:
REMARK  status: ('A' for Active; 'I' for Inactive)
REMARK    1  A    between atoms: C_5  and  O_7
REMARK    2  A    between atoms: O_7  and  C_8
REMARK    3  A    between atoms: C_8  and  C_9
REMARK    4  A    between atoms: C_9  and  C_17
REMARK                            x       y       z     vdW  Elec       q    Type
REMARK                         _______ _______ _______ _____ _____    ______ ____
ROOT
ATOM      1  C   UNL     1      33.833  27.054  47.909  0.00  0.00    +0.000 C 
ATOM      2  H   UNL     1      34.676  26.346  47.943  0.00  0.00    +0.000 HD
ATOM      3  H   UNL     1      33.065  26.605  48.605  0.00  0.00    +0.000 HD
ENDROOT
BRANCH   1   4
ATOM      4  C   UNL     1      33.260  27.176  46.554  0.00  0.00    +0.000 A 
ATOM      5  C   UNL     1      34.142  27.219  45.482  0.00  0.00    +0.000 A 
ATOM      6  H   UNL     1      35.209  27.145  45.666  0.00  0.00    +0.000 HD
ATOM      7  C   UNL     1      33.801  27.349  44.157  0.00  0.00    +0.000 A 
ATOM      8  C   UNL     1      32.431  27.446  43.889  0.00  0.00    +0.000 A 
ATOM      9  C   UNL     1      31.516  27.408  44.923  0.00  0.00    +0.000 A 
ATOM     10  C   UNL     1      30.154  27.495  44.718  0.00  0.00    +0.000 A 
ATOM     11  C   UNL     1      29.214  27.455  45.729  0.00  0.00    +0.000 A 
ATOM     12  C   UNL     1      29.686  27.321  47.006  0.00  0.00    +0.000 A 
ATOM     13  C   UNL     1      31.024  27.230  47.279  0.00  0.00    +0.000 A 
ATOM     14  C   UNL     1      31.922  27.274  46.242  0.00  0.00    +0.000 A 
ENDBRANCH   1   4
BRANCH   1  15
ATOM     15  C   UNL     1      34.194  28.395  48.454  0.00  0.00    +0.000 C 
ATOM     16  H   UNL     1      33.359  29.088  48.428  0.00  0.00    +0.000 HD
ATOM     17  H   UNL     1      34.964  28.826  47.757  0.00  0.00    +0.000 HD
BRANCH  15  18
ATOM     18  O   UNL     1      34.743  28.282  49.753  0.00  0.00    +0.000 OA
BRANCH  18  23
ATOM     19  C   UNL     1      37.327  30.229  51.412  0.00  0.00    +0.000 A 
ATOM     20  C   UNL     1      38.047  30.669  50.305  0.00  0.00    +0.000 A 
ATOM     21  C   UNL     1      37.621  30.283  49.036  0.00  0.00    +0.000 A 
ATOM     22  N   UNL     1      36.504  29.485  48.986  0.00  0.00    +0.000 NA
ATOM     23  C   UNL     1      35.835  29.079  50.065  0.00  0.00    +0.000 A 
ATOM     24  N   UNL     1      36.252  29.456  51.283  0.00  0.00    +0.000 NA
ATOM     25  H   UNL     1      37.699  30.555  52.365  0.00  0.00    +0.000 HD
ATOM     26  H   UNL     1      38.932  31.297  50.296  0.00  0.00    +0.000 HD
ATOM     27  H   UNL     1      38.106  30.567  48.098  0.00  0.00    +0.000 HD
ENDBRANCH  18  23
ENDBRANCH  15  18
ENDBRANCH   1  15
TORSDOF 4
