
     RDKit          3D

 33 35  0  0  0  0  0  0  0  0999 V2000
   37.3267   30.2285   51.4118 C   0  0  0  0  0  0  0  0  0  0  0  0
   38.0466   30.6689   50.3053 C   0  0  0  0  0  0  0  0  0  0  0  0
   37.6208   30.2832   49.0358 C   0  0  0  0  0  0  0  0  0  0  0  0
   36.5037   29.4849   48.9855 N   0  0  0  0  0  0  0  0  0  0  0  0
   35.8346   29.0790   50.0647 C   0  0  0  0  0  0  0  0  0  0  0  0
   36.2523   29.4556   51.2830 N   0  0  0  0  0  0  0  0  0  0  0  0
   34.7433   28.2821   49.7534 O   0  0  0  0  0  0  0  0  0  0  0  0
   34.1938   28.3948   48.4538 C   0  0  0  0  0  0  0  0  0  0  0  0
   33.8332   27.0541   47.9087 C   0  0  0  0  0  0  0  0  0  0  0  0
   37.6986   30.5549   52.3651 H   0  0  0  0  0  0  0  0  0  0  0  0
   38.9321   31.2974   50.2963 H   0  0  0  0  0  0  0  0  0  0  0  0
   38.1062   30.5673   48.0977 H   0  0  0  0  0  0  0  0  0  0  0  0
   33.3586   29.0880   48.4275 H   0  0  0  0  0  0  0  0  0  0  0  0
   34.9638   28.8258   47.7567 H   0  0  0  0  0  0  0  0  0  0  0  0
   34.6762   26.3457   47.9430 H   0  0  0  0  0  0  0  0  0  0  0  0
   33.0654   26.6046   48.6045 H   0  0  0  0  0  0  0  0  0  0  0  0
   33.2597   27.1760   46.5536 C   0  0  0  0  0  0  0  0  0  0  0  0
   34.0908   26.9017   45.4755 C   0  0  0  0  0  0  0  0  0  0  0  0
   35.1156   26.5939   45.6556 H   0  0  0  0  0  0  0  0  0  0  0  0
   33.7456   26.9798   44.1467 C   0  0  0  0  0  0  0  0  0  0  0  0
   32.4293   27.3740   43.8828 C   0  0  0  0  0  0  0  0  0  0  0  0
   31.5671   27.6567   44.9242 C   0  0  0  0  0  0  0  0  0  0  0  0
   30.2580   28.0453   44.7233 C   0  0  0  0  0  0  0  0  0  0  0  0
   29.3696   28.3304   45.7418 C   0  0  0  0  0  0  0  0  0  0  0  0
   29.8391   28.2128   47.0214 C   0  0  0  0  0  0  0  0  0  0  0  0
   31.1261   27.8322   47.2904 C   0  0  0  0  0  0  0  0  0  0  0  0
   31.9738   27.5596   46.2455 C   0  0  0  0  0  0  0  0  0  0  0  0
   34.4414   26.7532   43.3578 H   0  0  0  0  0  0  0  0  0  0  0  0
   32.0848   27.4590   42.8683 H   0  0  0  0  0  0  0  0  0  0  0  0
   29.9718   28.1109   43.6716 H   0  0  0  0  0  0  0  0  0  0  0  0
   28.3811   28.6219   45.4744 H   0  0  0  0  0  0  0  0  0  0  0  0
   29.1757   28.4260   47.8413 H   0  0  0  0  0  0  0  0  0  0  0  0
   31.4226   27.7541   48.3231 H   0  0  0  0  0  0  0  0  0  0  0  0
  2  1  2  0
  3  2  1  0
  4  3  2  0
  4  5  1  0
  5  6  2  0
  6  1  1  0
  7  5  1  0
  8  7  1  0
  9  8  1  0
  1 10  1  0
  2 11  1  0
  3 12  1  0
  8 13  1  0
  8 14  1  0
  9 15  1  0
  9 16  1  0
 17 18  2  0
 18 19  1  0
 18 20  1  0
 20 21  2  0
 21 22  1  0
 22 23  2  0
 23 24  1  0
 24 25  2  0
 25 26  1  0
 26 27  2  0
 27 17  1  0
 27 22  1  0
 20 28  1  0
 21 29  1  0
 23 30  1  0
 24 31  1  0
 25 32  1  0
 26 33  1  0
  9 17  1  0
M  ISO  8  10  14  11  14  12  14  13   8  14   8  15   8  16   8  19  15
M  END
>  <DihAtoms>  (1) 
7,8,16,17

>  <DihDeg>  (1) 
100.56932808006867

$$$$
