REMARK  Name = 
REMARK  3 active torsions:
REMARK  status: ('A' for Active; 'I' for Inactive)
REMARK    1  A    between atoms: C_1  and  C_16
REMARK    2  A    between atoms: C_3  and  C_4
REMARK    3  A    between atoms: C_18  and  C_33
REMARK                            x       y       z     vdW  Elec       q    Type
REMARK                         _______ _______ _______ _____ _____    ______ ____
ROOT
ATOM      1  C   UNL     1      37.561  32.060  48.510  0.00  0.00    +0.000 C 
ATOM      2  C   UNL     1      38.793  32.798  48.837  0.00  0.00    +0.000 C 
ATOM      3  C   UNL     1      38.935  31.639  47.919  0.00  0.00    +0.000 C 
ATOM      4  H   UNL     1      36.913  32.397  47.715  0.00  0.00    +0.000 HD
ATOM      5  H   UNL     1      38.704  33.850  48.606  0.00  0.00    +0.000 HD
ATOM      6  H   UNL     1      39.114  32.659  49.924  0.00  0.00    +0.000 HD
ATOM      7  H   UNL     1      39.079  30.592  48.087  0.00  0.00    +0.000 HD
ENDROOT
BRANCH   3   8
ATOM      8  C   UNL     1      39.291  32.094  46.548  0.00  0.00    +0.000 A 
ATOM      9  C   UNL     1      39.743  33.422  46.580  0.00  0.00    +0.000 A 
ATOM     10  C   UNL     1      40.215  34.044  45.445  0.00  0.00    +0.000 A 
ATOM     11  C   UNL     1      40.256  33.361  44.225  0.00  0.00    +0.000 A 
ATOM     12  C   UNL     1      39.808  32.060  44.223  0.00  0.00    +0.000 A 
ATOM     13  C   UNL     1      39.781  31.277  43.086  0.00  0.00    +0.000 A 
ATOM     14  C   UNL     1      39.319  29.970  43.069  0.00  0.00    +0.000 A 
ATOM     15  C   UNL     1      38.859  29.407  44.247  0.00  0.00    +0.000 A 
ATOM     16  C   UNL     1      38.883  30.180  45.385  0.00  0.00    +0.000 A 
ATOM     17  C   UNL     1      39.347  31.468  45.359  0.00  0.00    +0.000 A 
ATOM     18  H   UNL     1      39.864  34.195  47.311  0.00  0.00    +0.000 HD
ATOM     19  H   UNL     1      40.592  35.040  45.295  0.00  0.00    +0.000 HD
ATOM     20  H   UNL     1      40.592  33.695  43.249  0.00  0.00    +0.000 HD
ATOM     21  H   UNL     1      40.133  31.680  42.142  0.00  0.00    +0.000 HD
ATOM     22  H   UNL     1      39.313  29.387  42.155  0.00  0.00    +0.000 HD
ATOM     23  H   UNL     1      38.487  28.396  44.304  0.00  0.00    +0.000 HD
ATOM     24  H   UNL     1      38.512  29.711  46.315  0.00  0.00    +0.000 HD
ENDBRANCH   3   8
BRANCH   1  27
ATOM     25  C   UNL     1      35.282  29.596  50.214  0.00  0.00    +0.000 A 
ATOM     26  C   UNL     1      35.789  30.517  49.243  0.00  0.00    +0.000 A 
ATOM     27  C   UNL     1      37.011  31.101  49.483  0.00  0.00    +0.000 A 
ATOM     28  N   UNL     1      37.622  30.742  50.625  0.00  0.00    +0.000 NA
ATOM     29  C   UNL     1      37.185  29.895  51.541  0.00  0.00    +0.000 A 
ATOM     30  N   UNL     1      35.969  29.300  51.328  0.00  0.00    +0.000 NA
ATOM     31  H   UNL     1      34.326  29.172  49.975  0.00  0.00    +0.000 HD
ATOM     32  H   UNL     1      35.230  30.744  48.355  0.00  0.00    +0.000 HD
BRANCH  29  33
ATOM     33  C   UNL     1      37.800  29.463  52.778  0.00  0.00    +0.000 A 
ATOM     34  C   UNL     1      38.583  28.311  52.852  0.00  0.00    +0.000 A 
ATOM     35  H   UNL     1      38.749  27.695  51.955  0.00  0.00    +0.000 HD
ATOM     36  C   UNL     1      39.197  27.841  53.977  0.00  0.00    +0.000 A 
ATOM     37  C   UNL     1      39.065  28.521  55.159  0.00  0.00    +0.000 A 
ATOM     38  C   UNL     1      38.310  29.670  55.181  0.00  0.00    +0.000 A 
ATOM     39  C   UNL     1      38.195  30.334  56.364  0.00  0.00    +0.000 A 
ATOM     40  C   UNL     1      37.458  31.495  56.453  0.00  0.00    +0.000 A 
ATOM     41  C   UNL     1      36.844  31.947  55.282  0.00  0.00    +0.000 A 
ATOM     42  C   UNL     1      36.998  31.232  54.118  0.00  0.00    +0.000 A 
ATOM     43  C   UNL     1      37.726  30.075  54.005  0.00  0.00    +0.000 A 
ENDBRANCH  29  33
ENDBRANCH   1  27
TORSDOF 3
