
 OpenBabel03272501523D

 34 37  0  0  1  0  0  0  0  0999 V2000
   36.4370   29.8120   48.7300 N   0  0  0  0  0  0  0  0  0  0  0  0
   36.9180   29.3840   50.0560 C   0  0  0  0  0  0  0  0  0  0  0  0
   37.5790   30.4450   50.8420 C   0  0  0  0  0  0  0  0  0  0  0  0
   38.1840   31.5310   50.1570 N   0  0  0  0  0  0  0  0  0  0  0  0
   37.4840   31.9080   48.9290 C   0  0  0  0  0  0  0  0  0  0  0  0
   37.3940   30.6270   48.1110 C   0  0  2  0  0  0  0  0  0  0  0  0
   37.5490   28.4600   49.9150 H   0  0  0  0  0  0  0  0  0  0  0  0
   36.0130   29.0550   50.6060 H   0  0  0  0  0  0  0  0  0  0  0  0
   36.9060   30.8410   51.6490 H   0  0  0  0  0  0  0  0  0  0  0  0
   38.4060   29.9410   51.4240 H   0  0  0  0  0  0  0  0  0  0  0  0
   38.1730   32.3720   50.7780 H   0  0  0  0  0  0  0  0  0  0  0  0
   36.4980   32.3590   49.1170 H   0  0  0  0  0  0  0  0  0  0  0  0
   38.1980   32.5810   48.3970 H   0  0  0  0  0  0  0  0  0  0  0  0
   38.4410   30.1700   48.2640 H   0  0  0  0  0  0  0  0  0  0  0  0
   37.3390   30.8740   46.6760 C   0  0  0  0  0  0  0  0  0  0  0  0
   36.4130   30.3390   45.7650 C   0  0  0  0  0  0  0  0  0  0  0  0
   35.6840   29.6600   46.1920 H   0  0  0  0  0  0  0  0  0  0  0  0
   36.4020   30.6330   44.4190 C   0  0  0  0  0  0  0  0  0  0  0  0
   37.3350   31.4980   43.8960 C   0  0  0  0  0  0  0  0  0  0  0  0
   38.2660   32.0500   44.7510 C   0  0  0  0  0  0  0  0  0  0  0  0
   39.1640   32.9070   44.1650 C   0  0  0  0  0  0  0  0  0  0  0  0
   40.1260   33.5080   44.9380 C   0  0  0  0  0  0  0  0  0  0  0  0
   40.1700   33.2420   46.2820 C   0  0  0  0  0  0  0  0  0  0  0  0
   39.2430   32.3740   46.8160 C   0  0  0  0  0  0  0  0  0  0  0  0
   38.2530   31.7380   46.0960 C   0  0  0  0  0  0  0  0  0  0  0  0
   35.1690   29.3910   48.2580 C   0  0  0  0  0  0  0  0  0  0  0  0
   34.2790   30.2630   47.6450 C   0  0  0  0  0  0  0  0  0  0  0  0
   33.0490   29.8300   47.1840 C   0  0  0  0  0  0  0  0  0  0  0  0
   32.7610   28.5000   47.3680 N   0  0  0  0  0  0  0  0  0  0  0  0
   33.6560   27.6600   47.9770 C   0  0  0  0  0  0  0  0  0  0  0  0
   34.8370   28.0950   48.4140 N   0  0  0  0  0  0  0  0  0  0  0  0
   34.4620   31.3050   47.4930 H   0  0  0  0  0  0  0  0  0  0  0  0
   32.3160   30.4580   46.6990 H   0  0  0  0  0  0  0  0  0  0  0  0
   33.3140   26.6350   48.0650 H   0  0  0  0  0  0  0  0  0  0  0  0
  1  2  1  0  0  0  0
  2  8  1  0  0  0  0
  2  3  1  0  0  0  0
  3 10  1  0  0  0  0
  3  9  1  0  0  0  0
  4 11  1  0  0  0  0
  4  3  1  0  0  0  0
  5 12  1  0  0  0  0
  5  4  1  0  0  0  0
  6 14  1  1  0  0  0
  6  1  1  0  0  0  0
  6  5  1  0  0  0  0
  7  2  1  0  0  0  0
 13  5  1  0  0  0  0
 15  6  1  0  0  0  0
 16 17  1  0  0  0  0
 16 15  2  0  0  0  0
 18 16  1  0  0  0  0
 19 18  2  0  0  0  0
 19 20  1  0  0  0  0
 20 25  1  0  0  0  0
 21 20  2  0  0  0  0
 21 22  1  0  0  0  0
 22 23  2  0  0  0  0
 23 24  1  0  0  0  0
 25 15  1  0  0  0  0
 25 24  2  0  0  0  0
 26 31  1  0  0  0  0
 26  1  1  0  0  0  0
 27 26  2  0  0  0  0
 28 29  2  0  0  0  0
 28 27  1  0  0  0  0
 29 30  1  0  0  0  0
 30 34  1  0  0  0  0
 30 31  2  0  0  0  0
 32 27  1  0  0  0  0
 33 28  1  0  0  0  0
M  END
>  <minimizedAffinity>
-6.35589266

>  <minimizedRMSD>
0.850164831

$$$$
