REMARK  Name = 
REMARK  4 active torsions:
REMARK  status: ('A' for Active; 'I' for Inactive)
REMARK    1  A    between atoms: C_1  and  C_8
REMARK    2  A    between atoms: N_4  and  C_12
REMARK    3  A    between atoms: C_12  and  C_13
REMARK    4  A    between atoms: C_13  and  C_23
REMARK                            x       y       z     vdW  Elec       q    Type
REMARK                         _______ _______ _______ _____ _____    ______ ____
ROOT
ATOM      1  C   UNL     1      40.190  33.167  45.960  0.00  0.00    +0.000 C 
ATOM      2  H   UNL     1      41.097  32.539  45.929  0.00  0.00    +0.000 HD
ATOM      3  H   UNL     1      40.401  34.028  46.630  0.00  0.00    +0.000 HD
ENDROOT
BRANCH   1   7
ATOM      4  C   UNL     1      37.933  31.243  47.984  0.00  0.00    +0.000 A 
ATOM      5  C   UNL     1      37.379  31.087  46.739  0.00  0.00    +0.000 A 
ATOM      6  C   UNL     1      38.155  31.789  45.824  0.00  0.00    +0.000 A 
ATOM      7  N   UNL     1      39.149  32.341  46.552  0.00  0.00    +0.000 N 
ATOM      8  N   UNL     1      39.018  32.017  47.838  0.00  0.00    +0.000 NA
ATOM      9  H   UNL     1      36.478  30.516  46.463  0.00  0.00    +0.000 HD
ATOM     10  H   UNL     1      37.928  31.824  44.768  0.00  0.00    +0.000 HD
BRANCH   4  13
ATOM     11  C   UNL     1      37.252  30.161  51.527  0.00  0.00    +0.000 A 
ATOM     12  C   UNL     1      37.887  30.797  50.467  0.00  0.00    +0.000 A 
ATOM     13  C   UNL     1      37.368  30.636  49.179  0.00  0.00    +0.000 A 
ATOM     14  N   UNL     1      36.264  29.854  49.073  0.00  0.00    +0.000 NA
ATOM     15  C   UNL     1      35.668  29.248  50.122  0.00  0.00    +0.000 A 
ATOM     16  N   UNL     1      36.171  29.408  51.350  0.00  0.00    +0.000 NA
ATOM     17  H   UNL     1      37.690  30.314  52.512  0.00  0.00    +0.000 HD
ATOM     18  H   UNL     1      38.768  31.420  50.557  0.00  0.00    +0.000 HD
ATOM     19  H   UNL     1      34.796  28.656  49.888  0.00  0.00    +0.000 HD
ENDBRANCH   4  13
ENDBRANCH   1   7
BRANCH   1  20
ATOM     20  C   UNL     1      39.751  33.651  44.581  0.00  0.00    +0.000 C 
ATOM     21  H   UNL     1      39.560  32.734  43.961  0.00  0.00    +0.000 HD
ATOM     22  H   UNL     1      38.815  34.229  44.682  0.00  0.00    +0.000 HD
BRANCH  20  23
ATOM     23  C   UNL     1      40.795  34.499  43.955  0.00  0.00    +0.000 A 
ATOM     24  C   UNL     1      40.394  35.347  42.915  0.00  0.00    +0.000 A 
ATOM     25  H   UNL     1      39.352  35.330  42.609  0.00  0.00    +0.000 HD
ATOM     26  C   UNL     1      41.209  36.221  42.227  0.00  0.00    +0.000 A 
ATOM     27  C   UNL     1      42.539  36.261  42.598  0.00  0.00    +0.000 A 
ATOM     28  C   UNL     1      42.970  35.429  43.629  0.00  0.00    +0.000 A 
ATOM     29  C   UNL     1      44.308  35.488  43.974  0.00  0.00    +0.000 A 
ATOM     30  C   UNL     1      44.727  34.644  45.005  0.00  0.00    +0.000 A 
ATOM     31  C   UNL     1      43.877  33.796  45.654  0.00  0.00    +0.000 A 
ATOM     32  C   UNL     1      42.536  33.741  45.304  0.00  0.00    +0.000 A 
ATOM     33  C   UNL     1      42.127  34.562  44.301  0.00  0.00    +0.000 A 
ENDBRANCH  20  23
ENDBRANCH   1  20
TORSDOF 4
