
 OpenBabel03272508183D

 27 30  0  0  0  0  0  0  0  0999 V2000
   39.3540   23.4520   36.7510 C   0  0  0  0  0  0  0  0  0  0  0  0
   39.7480   24.3370   35.7140 C   0  0  0  0  0  0  0  0  0  0  0  0
   41.0120   24.1220   35.1910 C   0  0  0  0  0  0  0  0  0  0  0  0
   41.7770   23.1210   35.6760 N   0  0  0  0  0  0  0  0  0  0  0  0
   41.3740   22.2930   36.6660 C   0  0  0  0  0  0  0  0  0  0  0  0
   40.1570   22.4610   37.2050 N   0  0  0  0  0  0  0  0  0  0  0  0
   41.3800   24.7510   34.4050 H   0  0  0  0  0  0  0  0  0  0  0  0
   41.9930   21.4950   37.0480 H   0  0  0  0  0  0  0  0  0  0  0  0
   38.8890   25.4050   35.2180 C   0  0  0  0  0  0  0  0  0  0  0  0
   38.7820   26.6550   35.7840 C   0  0  0  0  0  0  0  0  0  0  0  0
   39.3820   26.8480   36.6590 H   0  0  0  0  0  0  0  0  0  0  0  0
   37.9570   27.6380   35.2800 C   0  0  0  0  0  3  0  0  0  0  0  0
   37.2150   27.3170   34.1510 C   0  0  0  0  0  3  0  0  0  0  0  0
   37.3070   26.0760   33.5720 C   0  0  0  0  0  0  0  0  0  0  0  0
   36.5220   25.8590   32.4440 C   0  0  0  0  0  3  0  0  0  0  0  0
   36.6030   24.6000   31.8410 C   0  0  0  0  0  3  0  0  0  0  0  0
   37.4350   23.5930   32.3370 C   0  0  0  0  0  3  0  0  0  0  0  0
   38.1900   23.8680   33.4590 C   0  0  0  0  0  3  0  0  0  0  0  0
   38.1420   25.1120   34.0960 C   0  0  0  0  0  0  0  0  0  0  0  0
   37.9410   23.6610   37.2610 C   0  0  0  0  0  0  0  0  0  0  0  0
   37.5040   22.9800   38.4650 C   0  0  0  0  0  0  0  0  0  0  0  0
   37.9470   24.4160   38.6000 C   0  0  0  0  0  0  0  0  0  0  0  0
   37.3350   24.3160   36.5690 H   0  0  0  0  0  0  0  0  0  0  0  0
   38.1580   22.1750   38.8510 H   0  0  0  0  0  0  0  0  0  0  0  0
   36.4010   22.7460   38.5300 H   0  0  0  0  0  0  0  0  0  0  0  0
   37.1420   25.0920   38.8660 H   0  0  0  0  0  0  0  0  0  0  0  0
   38.9100   24.5490   39.1330 H   0  0  0  0  0  0  0  0  0  0  0  0
  1  6  1  0  0  0  0
  1 20  1  0  0  0  0
  2  1  2  0  0  0  0
  3  4  2  0  0  0  0
  3  2  1  0  0  0  0
  4  5  1  0  0  0  0
  5  8  1  0  0  0  0
  5  6  2  0  0  0  0
  7  3  1  0  0  0  0
  9  2  1  0  0  0  0
  9 10  1  0  0  0  0
 10 11  1  0  0  0  0
 12 10  2  0  0  0  0
 13 12  1  0  0  0  0
 14 19  1  0  0  0  0
 14 13  2  0  0  0  0
 15 14  1  0  0  0  0
 16 17  1  0  0  0  0
 16 15  2  0  0  0  0
 17 18  2  0  0  0  0
 18 19  1  0  0  0  0
 19  9  2  0  0  0  0
 20 21  1  0  0  0  0
 20 22  1  0  0  0  0
 21 25  1  0  0  0  0
 21 22  1  0  0  0  0
 21 24  1  0  0  0  0
 22 26  1  0  0  0  0
 22 27  1  0  0  0  0
 23 20  1  0  0  0  0
M  END
>  <minimizedAffinity>
-5.35283232

$$$$

 OpenBabel03272508183D

 27 30  0  0  0  0  0  0  0  0999 V2000
   36.2530   28.5560   33.3810 C   0  0  0  0  0  0  0  0  0  0  0  0
   35.6030   29.8170   33.3490 C   0  0  0  0  0  0  0  0  0  0  0  0
   35.4260   30.3680   32.0910 C   0  0  0  0  0  0  0  0  0  0  0  0
   35.8610   29.7030   31.0000 N   0  0  0  0  0  0  0  0  0  0  0  0
   36.4760   28.5020   31.0620 C   0  0  0  0  0  0  0  0  0  0  0  0
   36.6730   27.9270   32.2580 N   0  0  0  0  0  0  0  0  0  0  0  0
   34.9440   31.3200   31.9870 H   0  0  0  0  0  0  0  0  0  0  0  0
   36.8220   27.9770   30.1830 H   0  0  0  0  0  0  0  0  0  0  0  0
   35.1470   30.5010   34.5530 C   0  0  0  0  0  0  0  0  0  0  0  0
   35.9190   31.3410   35.3220 C   0  0  0  0  0  0  0  0  0  0  0  0
   36.9370   31.4970   35.0020 H   0  0  0  0  0  0  0  0  0  0  0  0
   35.4450   31.9690   36.4540 C   0  0  0  0  0  3  0  0  0  0  0  0
   34.1240   31.7190   36.8040 C   0  0  0  0  0  3  0  0  0  0  0  0
   33.3370   30.8850   36.0500 C   0  0  0  0  0  0  0  0  0  0  0  0
   32.0290   30.7050   36.4870 C   0  0  0  0  0  3  0  0  0  0  0  0
   31.2120   29.8590   35.7310 C   0  0  0  0  0  3  0  0  0  0  0  0
   31.6760   29.2150   34.5810 C   0  0  0  0  0  3  0  0  0  0  0  0
   32.9840   29.4330   34.1960 C   0  0  0  0  0  3  0  0  0  0  0  0
   33.8370   30.2710   34.9210 C   0  0  0  0  0  0  0  0  0  0  0  0
   36.3760   27.9400   34.7610 C   0  0  0  0  0  0  0  0  0  0  0  0
   37.0710   26.6770   34.9250 C   0  0  0  0  0  0  0  0  0  0  0  0
   37.8380   27.9400   35.2330 C   0  0  0  0  0  0  0  0  0  0  0  0
   35.8250   28.5420   35.5420 H   0  0  0  0  0  0  0  0  0  0  0  0
   37.3100   26.1130   34.0020 H   0  0  0  0  0  0  0  0  0  0  0  0
   36.7280   26.0300   35.7840 H   0  0  0  0  0  0  0  0  0  0  0  0
   38.0890   28.0460   36.2830 H   0  0  0  0  0  0  0  0  0  0  0  0
   38.6350   28.1810   34.5010 H   0  0  0  0  0  0  0  0  0  0  0  0
  1 20  1  0  0  0  0
  2  1  1  0  0  0  0
  2  9  1  0  0  0  0
  3  2  2  0  0  0  0
  4  5  2  0  0  0  0
  4  3  1  0  0  0  0
  5  6  1  0  0  0  0
  6  1  2  0  0  0  0
  7  3  1  0  0  0  0
  8  5  1  0  0  0  0
  9 19  2  0  0  0  0
  9 10  1  0  0  0  0
 10 12  2  0  0  0  0
 11 10  1  0  0  0  0
 12 13  1  0  0  0  0
 14 15  1  0  0  0  0
 14 13  2  0  0  0  0
 16 15  2  0  0  0  0
 17 16  1  0  0  0  0
 18 17  2  0  0  0  0
 18 19  1  0  0  0  0
 19 14  1  0  0  0  0
 20 21  1  0  0  0  0
 20 22  1  0  0  0  0
 20 23  1  0  0  0  0
 21 22  1  0  0  0  0
 21 25  1  0  0  0  0
 22 26  1  0  0  0  0
 24 21  1  0  0  0  0
 27 22  1  0  0  0  0
M  END
>  <minimizedAffinity>
-5.31583261

$$$$

 OpenBabel03272508183D

 27 30  0  0  0  0  0  0  0  0999 V2000
   37.6580   24.6480   30.9080 C   0  0  0  0  0  0  0  0  0  0  0  0
   37.9800   26.0240   31.0340 C   0  0  0  0  0  0  0  0  0  0  0  0
   38.9960   26.4800   30.2100 C   0  0  0  0  0  0  0  0  0  0  0  0
   39.6040   25.6250   29.3610 N   0  0  0  0  0  0  0  0  0  0  0  0
   39.2750   24.3190   29.2620 C   0  0  0  0  0  0  0  0  0  0  0  0
   38.2980   23.8290   30.0400 N   0  0  0  0  0  0  0  0  0  0  0  0
   39.2950   27.5090   30.2500 H   0  0  0  0  0  0  0  0  0  0  0  0
   39.7680   23.6420   28.5800 H   0  0  0  0  0  0  0  0  0  0  0  0
   37.2960   26.9140   31.9650 C   0  0  0  0  0  0  0  0  0  0  0  0
   36.1920   27.6750   31.6570 C   0  0  0  0  0  0  0  0  0  0  0  0
   35.8130   27.6020   30.6500 H   0  0  0  0  0  0  0  0  0  0  0  0
   35.5750   28.5040   32.5700 C   0  0  0  0  0  3  0  0  0  0  0  0
   36.1190   28.5470   33.8470 C   0  0  0  0  0  3  0  0  0  0  0  0
   37.2190   27.7950   34.1740 C   0  0  0  0  0  0  0  0  0  0  0  0
   37.6830   27.9110   35.4800 C   0  0  0  0  0  3  0  0  0  0  0  0
   38.8040   27.1510   35.8310 C   0  0  0  0  0  3  0  0  0  0  0  0
   39.4410   26.3070   34.9180 C   0  0  0  0  0  3  0  0  0  0  0  0
   38.9350   26.2330   33.6370 C   0  0  0  0  0  3  0  0  0  0  0  0
   37.8160   26.9730   33.2410 C   0  0  0  0  0  0  0  0  0  0  0  0
   36.4990   24.1850   31.7690 C   0  0  0  0  0  0  0  0  0  0  0  0
   35.1570   24.1640   31.2170 C   0  0  0  0  0  0  0  0  0  0  0  0
   35.9190   22.8620   31.2430 C   0  0  0  0  0  0  0  0  0  0  0  0
   36.8240   23.9530   32.8250 H   0  0  0  0  0  0  0  0  0  0  0  0
   35.0050   24.6810   30.2500 H   0  0  0  0  0  0  0  0  0  0  0  0
   34.3150   24.3130   31.9550 H   0  0  0  0  0  0  0  0  0  0  0  0
   35.4940   22.1280   31.9190 H   0  0  0  0  0  0  0  0  0  0  0  0
   36.2390   22.4990   30.2460 H   0  0  0  0  0  0  0  0  0  0  0  0
  1  2  1  0  0  0  0
  1 20  1  0  0  0  0
  2  9  1  0  0  0  0
  3  7  1  0  0  0  0
  3  2  2  0  0  0  0
  4  3  1  0  0  0  0
  5  4  2  0  0  0  0
  5  6  1  0  0  0  0
  6  1  2  0  0  0  0
  8  5  1  0  0  0  0
  9 19  1  0  0  0  0
 10  9  2  0  0  0  0
 10 12  1  0  0  0  0
 11 10  1  0  0  0  0
 12 13  2  0  0  0  0
 13 14  1  0  0  0  0
 14 15  1  0  0  0  0
 15 16  2  0  0  0  0
 17 16  1  0  0  0  0
 18 17  2  0  0  0  0
 19 18  1  0  0  0  0
 19 14  2  0  0  0  0
 20 23  1  0  0  0  0
 21 22  1  0  0  0  0
 21 20  1  0  0  0  0
 21 25  1  0  0  0  0
 22 20  1  0  0  0  0
 22 26  1  0  0  0  0
 24 21  1  0  0  0  0
 27 22  1  0  0  0  0
M  END
>  <minimizedAffinity>
-5.28699589

$$$$

 OpenBabel03272508183D

 27 30  0  0  0  0  0  0  0  0999 V2000
   38.9780   24.9880   33.5390 C   0  0  0  0  0  0  0  0  0  0  0  0
   38.4550   23.8620   34.2260 C   0  0  0  0  0  0  0  0  0  0  0  0
   37.6940   22.9940   33.4600 C   0  0  0  0  0  0  0  0  0  0  0  0
   37.4960   23.2530   32.1500 N   0  0  0  0  0  0  0  0  0  0  0  0
   38.0090   24.3350   31.5230 C   0  0  0  0  0  0  0  0  0  0  0  0
   38.7520   25.2060   32.2220 N   0  0  0  0  0  0  0  0  0  0  0  0
   37.2640   22.1210   33.9100 H   0  0  0  0  0  0  0  0  0  0  0  0
   37.8450   24.5350   30.4740 H   0  0  0  0  0  0  0  0  0  0  0  0
   38.6940   23.6190   35.6430 C   0  0  0  0  0  0  0  0  0  0  0  0
   37.9070   24.0950   36.6670 C   0  0  0  0  0  0  0  0  0  0  0  0
   37.0530   24.6910   36.3890 H   0  0  0  0  0  0  0  0  0  0  0  0
   38.1710   23.8390   37.9960 C   0  0  0  0  0  3  0  0  0  0  0  0
   39.2880   23.0640   38.2760 C   0  0  0  0  0  3  0  0  0  0  0  0
   40.0860   22.5810   37.2700 C   0  0  0  0  0  0  0  0  0  0  0  0
   41.1800   21.8150   37.6600 C   0  0  0  0  0  3  0  0  0  0  0  0
   42.0040   21.3130   36.6470 C   0  0  0  0  0  3  0  0  0  0  0  0
   41.7510   21.5620   35.2960 C   0  0  0  0  0  3  0  0  0  0  0  0
   40.6510   22.3290   34.9710 C   0  0  0  0  0  3  0  0  0  0  0  0
   39.7990   22.8510   35.9480 C   0  0  0  0  0  0  0  0  0  0  0  0
   39.8640   25.8890   34.3790 C   0  0  0  0  0  0  0  0  0  0  0  0
   40.3360   27.1460   33.8310 C   0  0  0  0  0  0  0  0  0  0  0  0
   39.1340   27.1920   34.7420 C   0  0  0  0  0  0  0  0  0  0  0  0
   40.1190   25.4190   35.3740 H   0  0  0  0  0  0  0  0  0  0  0  0
   40.1940   27.3040   32.7440 H   0  0  0  0  0  0  0  0  0  0  0  0
   41.3270   27.5180   34.2240 H   0  0  0  0  0  0  0  0  0  0  0  0
   39.3250   27.6990   35.6820 H   0  0  0  0  0  0  0  0  0  0  0  0
   38.1810   27.4300   34.2300 H   0  0  0  0  0  0  0  0  0  0  0  0
  1  2  1  0  0  0  0
  1 20  1  0  0  0  0
  2  9  1  0  0  0  0
  3  7  1  0  0  0  0
  3  2  2  0  0  0  0
  4  3  1  0  0  0  0
  5  4  2  0  0  0  0
  5  6  1  0  0  0  0
  6  1  2  0  0  0  0
  8  5  1  0  0  0  0
  9 19  2  0  0  0  0
  9 10  1  0  0  0  0
 10 12  2  0  0  0  0
 11 10  1  0  0  0  0
 12 13  1  0  0  0  0
 14 15  1  0  0  0  0
 14 13  2  0  0  0  0
 16 15  2  0  0  0  0
 17 16  1  0  0  0  0
 18 17  2  0  0  0  0
 18 19  1  0  0  0  0
 19 14  1  0  0  0  0
 20 22  1  0  0  0  0
 20 23  1  0  0  0  0
 21 25  1  0  0  0  0
 21 20  1  0  0  0  0
 21 22  1  0  0  0  0
 22 26  1  0  0  0  0
 24 21  1  0  0  0  0
 27 22  1  0  0  0  0
M  END
>  <minimizedAffinity>
-5.16354609

$$$$

 OpenBabel03272508183D

 27 30  0  0  0  0  0  0  0  0999 V2000
   36.2400   28.5800   33.0770 C   0  0  0  0  0  0  0  0  0  0  0  0
   35.1750   29.5050   32.9220 C   0  0  0  0  0  0  0  0  0  0  0  0
   35.1460   30.1900   31.7190 C   0  0  0  0  0  0  0  0  0  0  0  0
   36.0960   29.9520   30.7890 N   0  0  0  0  0  0  0  0  0  0  0  0
   37.0990   29.0640   30.9650 C   0  0  0  0  0  0  0  0  0  0  0  0
   37.1710   28.3760   32.1150 N   0  0  0  0  0  0  0  0  0  0  0  0
   34.3710   30.9060   31.5300 H   0  0  0  0  0  0  0  0  0  0  0  0
   37.8550   28.8810   30.2160 H   0  0  0  0  0  0  0  0  0  0  0  0
   34.1680   29.7300   33.9530 C   0  0  0  0  0  0  0  0  0  0  0  0
   32.9570   29.0810   34.0240 C   0  0  0  0  0  0  0  0  0  0  0  0
   32.7460   28.3550   33.2550 H   0  0  0  0  0  0  0  0  0  0  0  0
   32.0330   29.3250   35.0180 C   0  0  0  0  0  3  0  0  0  0  0  0
   32.3740   30.2740   35.9730 C   0  0  0  0  0  3  0  0  0  0  0  0
   33.5770   30.9320   35.9190 C   0  0  0  0  0  0  0  0  0  0  0  0
   33.8200   31.8620   36.9250 C   0  0  0  0  0  3  0  0  0  0  0  0
   35.0420   32.5420   36.8860 C   0  0  0  0  0  3  0  0  0  0  0  0
   35.9880   32.3070   35.8870 C   0  0  0  0  0  3  0  0  0  0  0  0
   35.6920   31.3720   34.9160 C   0  0  0  0  0  3  0  0  0  0  0  0
   34.4840   30.6680   34.9140 C   0  0  0  0  0  0  0  0  0  0  0  0
   36.2140   27.7920   34.3720 C   0  0  0  0  0  0  0  0  0  0  0  0
   37.1620   26.7130   34.5760 C   0  0  0  0  0  0  0  0  0  0  0  0
   37.4860   28.0490   35.1960 C   0  0  0  0  0  0  0  0  0  0  0  0
   35.3680   28.1170   35.0460 H   0  0  0  0  0  0  0  0  0  0  0  0
   37.7350   26.3760   33.6910 H   0  0  0  0  0  0  0  0  0  0  0  0
   36.8200   25.8720   35.2490 H   0  0  0  0  0  0  0  0  0  0  0  0
   37.4630   28.0380   36.2810 H   0  0  0  0  0  0  0  0  0  0  0  0
   38.3320   28.5820   34.7190 H   0  0  0  0  0  0  0  0  0  0  0  0
  1 20  1  0  0  0  0
  2  1  1  0  0  0  0
  2  9  1  0  0  0  0
  3  2  2  0  0  0  0
  4  5  2  0  0  0  0
  4  3  1  0  0  0  0
  5  6  1  0  0  0  0
  6  1  2  0  0  0  0
  7  3  1  0  0  0  0
  8  5  1  0  0  0  0
  9 10  2  0  0  0  0
  9 19  1  0  0  0  0
 10 12  1  0  0  0  0
 11 10  1  0  0  0  0
 12 13  2  0  0  0  0
 14 13  1  0  0  0  0
 14 15  1  0  0  0  0
 16 15  2  0  0  0  0
 17 16  1  0  0  0  0
 18 17  2  0  0  0  0
 19 18  1  0  0  0  0
 19 14  2  0  0  0  0
 20 21  1  0  0  0  0
 20 23  1  0  0  0  0
 20 22  1  0  0  0  0
 21 22  1  0  0  0  0
 21 25  1  0  0  0  0
 22 26  1  0  0  0  0
 24 21  1  0  0  0  0
 27 22  1  0  0  0  0
M  END
>  <minimizedAffinity>
-5.1294446

$$$$

 OpenBabel03272508183D

 27 30  0  0  0  0  0  0  0  0999 V2000
   38.7590   25.0140   33.3440 C   0  0  0  0  0  0  0  0  0  0  0  0
   39.3210   25.4230   34.5800 C   0  0  0  0  0  0  0  0  0  0  0  0
   40.0630   26.5920   34.5440 C   0  0  0  0  0  0  0  0  0  0  0  0
   40.2080   27.2580   33.3790 N   0  0  0  0  0  0  0  0  0  0  0  0
   39.6590   26.8440   32.2160 C   0  0  0  0  0  0  0  0  0  0  0  0
   38.9320   25.7170   32.1990 N   0  0  0  0  0  0  0  0  0  0  0  0
   40.5200   26.9630   35.4400 H   0  0  0  0  0  0  0  0  0  0  0  0
   39.7810   27.3830   31.2870 H   0  0  0  0  0  0  0  0  0  0  0  0
   39.1380   24.6740   35.8180 C   0  0  0  0  0  0  0  0  0  0  0  0
   38.1160   24.8770   36.7160 C   0  0  0  0  0  0  0  0  0  0  0  0
   37.4030   25.6500   36.4790 H   0  0  0  0  0  0  0  0  0  0  0  0
   37.9810   24.1430   37.8760 C   0  0  0  0  0  3  0  0  0  0  0  0
   38.9370   23.1650   38.1150 C   0  0  0  0  0  3  0  0  0  0  0  0
   39.9650   22.9470   37.2310 C   0  0  0  0  0  0  0  0  0  0  0  0
   40.8670   21.9430   37.5660 C   0  0  0  0  0  3  0  0  0  0  0  0
   41.9200   21.7070   36.6760 C   0  0  0  0  0  3  0  0  0  0  0  0
   42.0720   22.4410   35.4970 C   0  0  0  0  0  3  0  0  0  0  0  0
   41.1440   23.4240   35.2190 C   0  0  0  0  0  3  0  0  0  0  0  0
   40.0750   23.6950   36.0780 C   0  0  0  0  0  0  0  0  0  0  0  0
   37.8940   23.7710   33.4190 C   0  0  0  0  0  0  0  0  0  0  0  0
   37.3170   23.2220   32.2070 C   0  0  0  0  0  0  0  0  0  0  0  0
   38.5800   22.5820   32.7280 C   0  0  0  0  0  0  0  0  0  0  0  0
   37.7390   23.4290   34.4850 H   0  0  0  0  0  0  0  0  0  0  0  0
   37.3670   23.8520   31.2980 H   0  0  0  0  0  0  0  0  0  0  0  0
   36.3400   22.6680   32.3290 H   0  0  0  0  0  0  0  0  0  0  0  0
   38.4350   21.5670   33.0810 H   0  0  0  0  0  0  0  0  0  0  0  0
   39.4780   22.7730   32.1070 H   0  0  0  0  0  0  0  0  0  0  0  0
  1 20  1  0  0  0  0
  1  2  1  0  0  0  0
  2  9  1  0  0  0  0
  3  2  2  0  0  0  0
  3  7  1  0  0  0  0
  4  3  1  0  0  0  0
  5  4  2  0  0  0  0
  6  5  1  0  0  0  0
  6  1  2  0  0  0  0
  8  5  1  0  0  0  0
  9 19  2  0  0  0  0
  9 10  1  0  0  0  0
 10 12  2  0  0  0  0
 11 10  1  0  0  0  0
 12 13  1  0  0  0  0
 14 15  1  0  0  0  0
 14 13  2  0  0  0  0
 16 15  2  0  0  0  0
 17 16  1  0  0  0  0
 18 17  2  0  0  0  0
 18 19  1  0  0  0  0
 19 14  1  0  0  0  0
 20 23  1  0  0  0  0
 21 25  1  0  0  0  0
 21 22  1  0  0  0  0
 21 20  1  0  0  0  0
 22 26  1  0  0  0  0
 22 20  1  0  0  0  0
 24 21  1  0  0  0  0
 27 22  1  0  0  0  0
M  END
>  <minimizedAffinity>
-5.09289742

$$$$

 OpenBabel03272508183D

 27 30  0  0  0  0  0  0  0  0999 V2000
   40.1540   24.8650   33.2250 C   0  0  0  0  0  0  0  0  0  0  0  0
   39.7750   23.5880   33.7130 C   0  0  0  0  0  0  0  0  0  0  0  0
   38.9370   22.8560   32.8870 C   0  0  0  0  0  0  0  0  0  0  0  0
   38.5400   23.3750   31.7060 N   0  0  0  0  0  0  0  0  0  0  0  0
   38.9190   24.5950   31.2680 C   0  0  0  0  0  0  0  0  0  0  0  0
   39.7300   25.3430   32.0320 N   0  0  0  0  0  0  0  0  0  0  0  0
   38.6060   21.8820   33.1890 H   0  0  0  0  0  0  0  0  0  0  0  0
   38.5960   25.0030   30.3210 H   0  0  0  0  0  0  0  0  0  0  0  0
   40.2280   23.0640   34.9950 C   0  0  0  0  0  0  0  0  0  0  0  0
   41.3570   22.2990   35.1780 C   0  0  0  0  0  0  0  0  0  0  0  0
   41.9420   22.0740   34.3000 H   0  0  0  0  0  0  0  0  0  0  0  0
   41.7500   21.8250   36.4120 C   0  0  0  0  0  3  0  0  0  0  0  0
   40.9470   22.1540   37.4960 C   0  0  0  0  0  3  0  0  0  0  0  0
   39.8170   22.9160   37.3350 C   0  0  0  0  0  0  0  0  0  0  0  0
   39.0840   23.1880   38.4850 C   0  0  0  0  0  3  0  0  0  0  0  0
   37.9290   23.9640   38.3400 C   0  0  0  0  0  3  0  0  0  0  0  0
   37.5170   24.4530   37.0980 C   0  0  0  0  0  3  0  0  0  0  0  0
   38.2860   24.1500   35.9920 C   0  0  0  0  0  3  0  0  0  0  0  0
   39.4470   23.3780   36.0890 C   0  0  0  0  0  0  0  0  0  0  0  0
   41.1260   25.6200   34.1120 C   0  0  0  0  0  0  0  0  0  0  0  0
   41.5050   26.9770   33.7700 C   0  0  0  0  0  0  0  0  0  0  0  0
   40.4280   26.7970   34.8120 C   0  0  0  0  0  0  0  0  0  0  0  0
   41.5130   24.9770   34.9560 H   0  0  0  0  0  0  0  0  0  0  0  0
   41.2240   27.3370   32.7610 H   0  0  0  0  0  0  0  0  0  0  0  0
   42.5330   27.3050   34.1050 H   0  0  0  0  0  0  0  0  0  0  0  0
   40.7300   27.1190   35.8030 H   0  0  0  0  0  0  0  0  0  0  0  0
   39.4140   27.0910   34.4760 H   0  0  0  0  0  0  0  0  0  0  0  0
  1  2  1  0  0  0  0
  1 20  1  0  0  0  0
  2  9  1  0  0  0  0
  3  7  1  0  0  0  0
  3  2  2  0  0  0  0
  4  3  1  0  0  0  0
  5  4  2  0  0  0  0
  5  6  1  0  0  0  0
  6  1  2  0  0  0  0
  8  5  1  0  0  0  0
  9 10  2  0  0  0  0
  9 19  1  0  0  0  0
 10 12  1  0  0  0  0
 11 10  1  0  0  0  0
 12 13  2  0  0  0  0
 14 13  1  0  0  0  0
 14 15  1  0  0  0  0
 16 15  2  0  0  0  0
 17 16  1  0  0  0  0
 18 19  1  0  0  0  0
 18 17  2  0  0  0  0
 19 14  2  0  0  0  0
 20 22  1  0  0  0  0
 20 23  1  0  0  0  0
 21 25  1  0  0  0  0
 21 20  1  0  0  0  0
 21 22  1  0  0  0  0
 22 26  1  0  0  0  0
 24 21  1  0  0  0  0
 27 22  1  0  0  0  0
M  END
>  <minimizedAffinity>
-5.08856773

$$$$

 OpenBabel03272508183D

 27 30  0  0  0  0  0  0  0  0999 V2000
   35.2280   30.1240   32.4550 C   0  0  0  0  0  0  0  0  0  0  0  0
   35.4580   29.7850   33.8130 C   0  0  0  0  0  0  0  0  0  0  0  0
   36.1030   28.5790   34.0290 C   0  0  0  0  0  0  0  0  0  0  0  0
   36.4670   27.8160   32.9760 N   0  0  0  0  0  0  0  0  0  0  0  0
   36.2350   28.1660   31.6920 C   0  0  0  0  0  0  0  0  0  0  0  0
   35.6120   29.3250   31.4320 N   0  0  0  0  0  0  0  0  0  0  0  0
   36.3110   28.2550   35.0300 H   0  0  0  0  0  0  0  0  0  0  0  0
   36.5290   27.5490   30.8560 H   0  0  0  0  0  0  0  0  0  0  0  0
   35.0490   30.6400   34.9210 C   0  0  0  0  0  0  0  0  0  0  0  0
   35.8240   31.6320   35.4780 C   0  0  0  0  0  0  0  0  0  0  0  0
   36.8060   31.7790   35.0550 H   0  0  0  0  0  0  0  0  0  0  0  0
   35.3970   32.4180   36.5260 C   0  0  0  0  0  3  0  0  0  0  0  0
   34.1220   32.1710   37.0170 C   0  0  0  0  0  3  0  0  0  0  0  0
   33.3330   31.1860   36.4770 C   0  0  0  0  0  0  0  0  0  0  0  0
   32.0730   31.0220   37.0420 C   0  0  0  0  0  3  0  0  0  0  0  0
   31.2550   30.0230   36.5030 C   0  0  0  0  0  3  0  0  0  0  0  0
   31.6720   29.2180   35.4410 C   0  0  0  0  0  3  0  0  0  0  0  0
   32.9330   29.4280   34.9210 C   0  0  0  0  0  3  0  0  0  0  0  0
   33.7850   30.4150   35.4270 C   0  0  0  0  0  0  0  0  0  0  0  0
   34.5830   31.4800   32.2390 C   0  0  0  0  0  0  0  0  0  0  0  0
   34.2580   31.9150   30.8940 C   0  0  0  0  0  0  0  0  0  0  0  0
   33.1430   31.3260   31.7220 C   0  0  0  0  0  0  0  0  0  0  0  0
   34.4770   32.0550   33.2050 H   0  0  0  0  0  0  0  0  0  0  0  0
   34.6810   31.3230   30.0600 H   0  0  0  0  0  0  0  0  0  0  0  0
   34.2690   33.0310   30.7170 H   0  0  0  0  0  0  0  0  0  0  0  0
   32.3740   32.0440   31.9830 H   0  0  0  0  0  0  0  0  0  0  0  0
   32.8020   30.3270   31.3850 H   0  0  0  0  0  0  0  0  0  0  0  0
  1  2  1  0  0  0  0
  2  3  2  0  0  0  0
  2  9  1  0  0  0  0
  3  7  1  0  0  0  0
  4  3  1  0  0  0  0
  5  4  2  0  0  0  0
  6  5  1  0  0  0  0
  6  1  2  0  0  0  0
  8  5  1  0  0  0  0
  9 19  2  0  0  0  0
  9 10  1  0  0  0  0
 10 12  2  0  0  0  0
 11 10  1  0  0  0  0
 12 13  1  0  0  0  0
 14 13  2  0  0  0  0
 14 15  1  0  0  0  0
 16 15  2  0  0  0  0
 17 16  1  0  0  0  0
 18 19  1  0  0  0  0
 18 17  2  0  0  0  0
 19 14  1  0  0  0  0
 20  1  1  0  0  0  0
 20 23  1  0  0  0  0
 21 22  1  0  0  0  0
 21 20  1  0  0  0  0
 22 26  1  0  0  0  0
 22 20  1  0  0  0  0
 24 21  1  0  0  0  0
 25 21  1  0  0  0  0
 27 22  1  0  0  0  0
M  END
>  <minimizedAffinity>
-5.08461094

$$$$

 OpenBabel03272508183D

 27 30  0  0  0  0  0  0  0  0999 V2000
   39.5470   22.7420   37.0290 C   0  0  0  0  0  0  0  0  0  0  0  0
   38.5730   23.3540   36.1980 C   0  0  0  0  0  0  0  0  0  0  0  0
   37.7010   24.2220   36.8340 C   0  0  0  0  0  0  0  0  0  0  0  0
   37.8180   24.4340   38.1620 N   0  0  0  0  0  0  0  0  0  0  0  0
   38.7570   23.8370   38.9290 C   0  0  0  0  0  0  0  0  0  0  0  0
   39.6240   22.9870   38.3580 N   0  0  0  0  0  0  0  0  0  0  0  0
   36.9380   24.7210   36.2710 H   0  0  0  0  0  0  0  0  0  0  0  0
   38.8420   24.0130   39.9910 H   0  0  0  0  0  0  0  0  0  0  0  0
   38.4830   23.0970   34.7650 C   0  0  0  0  0  0  0  0  0  0  0  0
   39.2650   23.7010   33.8070 C   0  0  0  0  0  0  0  0  0  0  0  0
   39.9950   24.4160   34.1520 H   0  0  0  0  0  0  0  0  0  0  0  0
   39.1460   23.4270   32.4610 C   0  0  0  0  0  3  0  0  0  0  0  0
   38.1840   22.4960   32.0920 C   0  0  0  0  0  3  0  0  0  0  0  0
   37.3950   21.8830   33.0320 C   0  0  0  0  0  0  0  0  0  0  0  0
   36.4640   20.9650   32.5560 C   0  0  0  0  0  3  0  0  0  0  0  0
   35.6510   20.3300   33.5010 C   0  0  0  0  0  3  0  0  0  0  0  0
   35.7580   20.5950   34.8680 C   0  0  0  0  0  3  0  0  0  0  0  0
   36.7000   21.5150   35.2800 C   0  0  0  0  0  3  0  0  0  0  0  0
   37.5350   22.1740   34.3730 C   0  0  0  0  0  0  0  0  0  0  0  0
   40.5330   21.8490   36.3010 C   0  0  0  0  0  0  0  0  0  0  0  0
   41.8870   22.3150   36.0670 C   0  0  0  0  0  0  0  0  0  0  0  0
   41.6610   21.3960   37.2420 C   0  0  0  0  0  0  0  0  0  0  0  0
   40.0530   20.8890   35.9500 H   0  0  0  0  0  0  0  0  0  0  0  0
   42.0860   23.3880   36.2520 H   0  0  0  0  0  0  0  0  0  0  0  0
   42.4010   21.9030   35.1500 H   0  0  0  0  0  0  0  0  0  0  0  0
   42.1310   20.4260   37.1270 H   0  0  0  0  0  0  0  0  0  0  0  0
   41.7590   21.8870   38.2310 H   0  0  0  0  0  0  0  0  0  0  0  0
  1  6  1  0  0  0  0
  2  3  1  0  0  0  0
  2  1  2  0  0  0  0
  3  4  2  0  0  0  0
  4  5  1  0  0  0  0
  5  8  1  0  0  0  0
  6  5  2  0  0  0  0
  7  3  1  0  0  0  0
  9  2  1  0  0  0  0
 10 11  1  0  0  0  0
 10  9  2  0  0  0  0
 12 10  1  0  0  0  0
 13 12  2  0  0  0  0
 13 14  1  0  0  0  0
 14 19  1  0  0  0  0
 15 14  2  0  0  0  0
 15 16  1  0  0  0  0
 16 17  2  0  0  0  0
 17 18  1  0  0  0  0
 19  9  1  0  0  0  0
 19 18  2  0  0  0  0
 20  1  1  0  0  0  0
 20 22  1  0  0  0  0
 21 24  1  0  0  0  0
 21 20  1  0  0  0  0
 21 22  1  0  0  0  0
 22 27  1  0  0  0  0
 23 20  1  0  0  0  0
 25 21  1  0  0  0  0
 26 22  1  0  0  0  0
M  END
>  <minimizedAffinity>
-5.05931711

$$$$
