
 OpenBabel03272505393D

 33 36  0  0  0  0  0  0  0  0999 V2000
   41.0150   25.0520   34.6860 C   0  0  0  0  0  0  0  0  0  0  0  0
   42.3260   24.6280   34.6750 C   0  0  0  0  0  0  0  0  0  0  0  0
   43.3450   25.4510   34.2590 C   0  0  0  0  0  0  0  0  0  0  0  0
   43.1170   26.7490   33.8300 C   0  0  0  0  0  0  0  0  0  0  0  0
   41.8160   27.1900   33.8340 C   0  0  0  0  0  0  0  0  0  0  0  0
   40.8130   26.3390   34.2570 C   0  0  0  0  0  0  0  0  0  0  0  0
   42.5760   23.6260   34.9990 H   0  0  0  0  0  0  0  0  0  0  0  0
   44.3860   25.0930   34.2590 H   0  0  0  0  0  0  0  0  0  0  0  0
   43.9530   27.3580   33.5120 H   0  0  0  0  0  0  0  0  0  0  0  0
   41.6300   28.1980   33.4990 H   0  0  0  0  0  0  0  0  0  0  0  0
   39.4450   26.8490   34.2450 C   0  0  0  0  0  0  0  0  0  0  0  0
   38.9810   27.3110   35.4780 C   0  0  0  0  0  0  0  0  0  0  0  0
   39.5250   27.3270   36.4150 H   0  0  0  0  0  0  0  0  0  0  0  0
   37.6930   27.8220   35.5990 C   0  0  0  0  0  3  0  0  0  0  0  0
   36.8930   27.8600   34.4800 C   0  0  0  0  0  3  0  0  0  0  0  0
   37.3420   27.4100   33.2750 C   0  0  0  0  0  0  0  0  0  0  0  0
   36.5510   27.4400   32.1420 C   0  0  0  0  0  3  0  0  0  0  0  0
   37.0850   26.9600   30.9450 C   0  0  0  0  0  3  0  0  0  0  0  0
   38.3460   26.4640   30.8430 C   0  0  0  0  0  3  0  0  0  0  0  0
   39.1660   26.4160   31.9530 C   0  0  0  0  0  3  0  0  0  0  0  0
   38.6230   26.8990   33.1440 C   0  0  0  0  0  0  0  0  0  0  0  0
   38.5250   23.3670   36.7620 C   0  0  0  0  0  0  0  0  0  0  0  0
   37.9390   22.4610   35.8720 C   0  0  0  0  0  0  0  0  0  0  0  0
   38.4160   22.4450   34.5590 C   0  0  0  0  0  0  0  0  0  0  0  0
   39.4130   23.3070   34.2320 N   0  0  0  0  0  0  0  0  0  0  0  0
   39.9550   24.1710   35.1260 C   0  0  0  0  0  0  0  0  0  0  0  0
   39.5110   24.1960   36.3740 N   0  0  0  0  0  0  0  0  0  0  0  0
   37.1490   21.7930   36.1630 H   0  0  0  0  0  0  0  0  0  0  0  0
   38.0090   21.7670   33.8080 H   0  0  0  0  0  0  0  0  0  0  0  0
   38.0140   23.3850   38.1700 C   0  0  0  0  0  0  0  0  0  0  0  0
   37.6690   24.6860   38.5210 F   0  0  0  0  0  0  0  0  0  0  0  0
   36.9690   22.5290   38.2520 F   0  0  0  0  0  0  0  0  0  0  0  0
   39.0620   23.0340   39.0110 F   0  0  0  0  0  0  0  0  0  0  0  0
  1 26  1  0  0  0  0
  2  1  1  0  0  0  0
  2  7  1  0  0  0  0
  3  2  2  0  0  0  0
  4  5  2  0  0  0  0
  4  3  1  0  0  0  0
  5  6  1  0  0  0  0
  6  1  2  0  0  0  0
  8  3  1  0  0  0  0
  9  4  1  0  0  0  0
 10  5  1  0  0  0  0
 11  6  1  0  0  0  0
 11 12  1  0  0  0  0
 12 14  2  0  0  0  0
 12 13  1  0  0  0  0
 15 14  1  0  0  0  0
 16 15  2  0  0  0  0
 17 16  1  0  0  0  0
 18 17  2  0  0  0  0
 19 18  1  0  0  0  0
 19 20  2  0  0  0  0
 20 21  1  0  0  0  0
 21 16  1  0  0  0  0
 21 11  2  0  0  0  0
 22 30  1  0  0  0  0
 23 28  1  0  0  0  0
 23 22  2  0  0  0  0
 24 23  1  0  0  0  0
 25 24  2  0  0  0  0
 25 26  1  0  0  0  0
 26 27  2  0  0  0  0
 27 22  1  0  0  0  0
 29 24  1  0  0  0  0
 30 32  1  0  0  0  0
 30 31  1  0  0  0  0
 30 33  1  0  0  0  0
M  END
>  <minimizedAffinity>
-6.88567019

$$$$

 OpenBabel03272505393D

 33 36  0  0  0  0  0  0  0  0999 V2000
   37.6840   24.6310   32.8630 C   0  0  0  0  0  0  0  0  0  0  0  0
   36.8400   25.4400   32.1320 C   0  0  0  0  0  0  0  0  0  0  0  0
   36.8300   26.8040   32.2970 C   0  0  0  0  0  0  0  0  0  0  0  0
   37.6630   27.4450   33.2020 C   0  0  0  0  0  0  0  0  0  0  0  0
   38.5110   26.6550   33.9390 C   0  0  0  0  0  0  0  0  0  0  0  0
   38.4980   25.2850   33.7510 C   0  0  0  0  0  0  0  0  0  0  0  0
   36.1630   25.0060   31.4070 H   0  0  0  0  0  0  0  0  0  0  0  0
   36.1490   27.4330   31.7040 H   0  0  0  0  0  0  0  0  0  0  0  0
   37.6180   28.5220   33.2950 H   0  0  0  0  0  0  0  0  0  0  0  0
   39.1610   27.1450   34.6460 H   0  0  0  0  0  0  0  0  0  0  0  0
   39.4160   24.4840   34.5550 C   0  0  0  0  0  0  0  0  0  0  0  0
   40.6240   24.1730   33.9300 C   0  0  0  0  0  0  0  0  0  0  0  0
   40.9360   24.4620   32.9330 H   0  0  0  0  0  0  0  0  0  0  0  0
   41.5840   23.4140   34.5920 C   0  0  0  0  0  3  0  0  0  0  0  0
   41.3140   22.9820   35.8690 C   0  0  0  0  0  3  0  0  0  0  0  0
   40.1360   23.2830   36.4830 C   0  0  0  0  0  0  0  0  0  0  0  0
   39.8490   22.8560   37.7660 C   0  0  0  0  0  3  0  0  0  0  0  0
   38.6200   23.2070   38.3240 C   0  0  0  0  0  3  0  0  0  0  0  0
   37.6910   23.9500   37.6650 C   0  0  0  0  0  3  0  0  0  0  0  0
   37.9410   24.3940   36.3820 C   0  0  0  0  0  3  0  0  0  0  0  0
   39.1730   24.0380   35.8330 C   0  0  0  0  0  0  0  0  0  0  0  0
   36.6990   21.1130   32.9350 C   0  0  0  0  0  0  0  0  0  0  0  0
   37.7560   20.4790   32.2750 C   0  0  0  0  0  0  0  0  0  0  0  0
   38.8010   21.2830   31.8100 C   0  0  0  0  0  0  0  0  0  0  0  0
   38.7240   22.6210   32.0290 N   0  0  0  0  0  0  0  0  0  0  0  0
   37.6790   23.1970   32.6760 C   0  0  0  0  0  0  0  0  0  0  0  0
   36.6830   22.4460   33.1210 N   0  0  0  0  0  0  0  0  0  0  0  0
   37.7860   19.4180   32.1160 H   0  0  0  0  0  0  0  0  0  0  0  0
   39.6600   20.8620   31.2860 H   0  0  0  0  0  0  0  0  0  0  0  0
   35.5790   20.2530   33.4330 C   0  0  0  0  0  0  0  0  0  0  0  0
   35.8920   18.9140   33.2180 F   0  0  0  0  0  0  0  0  0  0  0  0
   35.3750   20.5370   34.7410 F   0  0  0  0  0  0  0  0  0  0  0  0
   34.4610   20.5070   32.6480 F   0  0  0  0  0  0  0  0  0  0  0  0
  1  6  1  0  0  0  0
  2  3  1  0  0  0  0
  2  1  2  0  0  0  0
  3  4  2  0  0  0  0
  4  9  1  0  0  0  0
  4  5  1  0  0  0  0
  5 10  1  0  0  0  0
  6  5  2  0  0  0  0
  6 11  1  0  0  0  0
  7  2  1  0  0  0  0
  8  3  1  0  0  0  0
 11 21  1  0  0  0  0
 12 11  2  0  0  0  0
 12 14  1  0  0  0  0
 13 12  1  0  0  0  0
 14 15  2  0  0  0  0
 15 16  1  0  0  0  0
 16 17  1  0  0  0  0
 17 18  2  0  0  0  0
 19 18  1  0  0  0  0
 20 19  2  0  0  0  0
 21 20  1  0  0  0  0
 21 16  2  0  0  0  0
 22 27  1  0  0  0  0
 22 30  1  0  0  0  0
 23 22  2  0  0  0  0
 24 25  2  0  0  0  0
 24 23  1  0  0  0  0
 25 26  1  0  0  0  0
 26  1  1  0  0  0  0
 26 27  2  0  0  0  0
 28 23  1  0  0  0  0
 29 24  1  0  0  0  0
 30 32  1  0  0  0  0
 31 30  1  0  0  0  0
 33 30  1  0  0  0  0
M  END
>  <minimizedAffinity>
-6.5377903

$$$$

 OpenBabel03272505393D

 33 36  0  0  0  0  0  0  0  0999 V2000
   36.0650   26.2610   31.7610 C   0  0  0  0  0  0  0  0  0  0  0  0
   35.1630   25.6320   30.9290 C   0  0  0  0  0  0  0  0  0  0  0  0
   35.1170   24.2630   30.8220 C   0  0  0  0  0  0  0  0  0  0  0  0
   35.9670   23.4370   31.5400 C   0  0  0  0  0  0  0  0  0  0  0  0
   36.8730   24.0450   32.3750 C   0  0  0  0  0  0  0  0  0  0  0  0
   36.8960   25.4250   32.4610 C   0  0  0  0  0  0  0  0  0  0  0  0
   34.4680   26.2160   30.3400 H   0  0  0  0  0  0  0  0  0  0  0  0
   34.3890   23.7810   30.1520 H   0  0  0  0  0  0  0  0  0  0  0  0
   35.8920   22.3640   31.4210 H   0  0  0  0  0  0  0  0  0  0  0  0
   37.5400   23.4090   32.9360 H   0  0  0  0  0  0  0  0  0  0  0  0
   37.8740   26.0290   33.3610 C   0  0  0  0  0  0  0  0  0  0  0  0
   37.4560   26.1460   34.6880 C   0  0  0  0  0  0  0  0  0  0  0  0
   36.5020   25.8390   35.1010 H   0  0  0  0  0  0  0  0  0  0  0  0
   38.2970   26.7060   35.6440 C   0  0  0  0  0  3  0  0  0  0  0  0
   39.5430   27.1380   35.2510 C   0  0  0  0  0  3  0  0  0  0  0  0
   39.9550   27.0260   33.9580 C   0  0  0  0  0  0  0  0  0  0  0  0
   41.2030   27.4560   33.5470 C   0  0  0  0  0  3  0  0  0  0  0  0
   41.5480   27.3050   32.2040 C   0  0  0  0  0  3  0  0  0  0  0  0
   40.7160   26.7550   31.2800 C   0  0  0  0  0  3  0  0  0  0  0  0
   39.4610   26.3150   31.6520 C   0  0  0  0  0  3  0  0  0  0  0  0
   39.1240   26.4700   32.9970 C   0  0  0  0  0  0  0  0  0  0  0  0
   35.8190   29.6690   33.0550 C   0  0  0  0  0  0  0  0  0  0  0  0
   36.1940   30.4480   31.9560 C   0  0  0  0  0  0  0  0  0  0  0  0
   36.5290   29.7790   30.7750 C   0  0  0  0  0  0  0  0  0  0  0  0
   36.4690   28.4220   30.7710 N   0  0  0  0  0  0  0  0  0  0  0  0
   36.0990   27.7030   31.8610 C   0  0  0  0  0  0  0  0  0  0  0  0
   35.7800   28.3260   32.9850 N   0  0  0  0  0  0  0  0  0  0  0  0
   36.2320   31.5200   31.9930 H   0  0  0  0  0  0  0  0  0  0  0  0
   36.8310   30.3170   29.8770 H   0  0  0  0  0  0  0  0  0  0  0  0
   35.4600   30.3840   34.3210 C   0  0  0  0  0  0  0  0  0  0  0  0
   34.1150   30.1710   34.6090 F   0  0  0  0  0  0  0  0  0  0  0  0
   36.2790   29.9440   35.3040 F   0  0  0  0  0  0  0  0  0  0  0  0
   35.5820   31.7490   34.0920 F   0  0  0  0  0  0  0  0  0  0  0  0
  1 26  1  0  0  0  0
  1  6  1  0  0  0  0
  2  1  2  0  0  0  0
  3  2  1  0  0  0  0
  3  4  2  0  0  0  0
  4  5  1  0  0  0  0
  5  6  2  0  0  0  0
  5 10  1  0  0  0  0
  6 11  1  0  0  0  0
  7  2  1  0  0  0  0
  8  3  1  0  0  0  0
  9  4  1  0  0  0  0
 11 12  1  0  0  0  0
 12 13  1  0  0  0  0
 12 14  2  0  0  0  0
 15 14  1  0  0  0  0
 16 15  2  0  0  0  0
 17 16  1  0  0  0  0
 18 17  2  0  0  0  0
 19 20  2  0  0  0  0
 19 18  1  0  0  0  0
 20 21  1  0  0  0  0
 21 11  2  0  0  0  0
 21 16  1  0  0  0  0
 22 30  1  0  0  0  0
 23 28  1  0  0  0  0
 23 22  2  0  0  0  0
 24 23  1  0  0  0  0
 25 24  2  0  0  0  0
 25 26  1  0  0  0  0
 26 27  2  0  0  0  0
 27 22  1  0  0  0  0
 29 24  1  0  0  0  0
 30 31  1  0  0  0  0
 30 32  1  0  0  0  0
 33 30  1  0  0  0  0
M  END
>  <minimizedAffinity>
-6.4627223

$$$$

 OpenBabel03272505393D

 33 36  0  0  0  0  0  0  0  0999 V2000
   40.1480   21.9720   33.6840 C   0  0  0  0  0  0  0  0  0  0  0  0
   41.1140   21.2590   33.0070 C   0  0  0  0  0  0  0  0  0  0  0  0
   42.3910   21.1310   33.4980 C   0  0  0  0  0  0  0  0  0  0  0  0
   42.7820   21.7070   34.6960 C   0  0  0  0  0  0  0  0  0  0  0  0
   41.8340   22.4230   35.3860 C   0  0  0  0  0  0  0  0  0  0  0  0
   40.5570   22.5340   34.8660 C   0  0  0  0  0  0  0  0  0  0  0  0
   40.8770   20.7810   32.0650 H   0  0  0  0  0  0  0  0  0  0  0  0
   43.1470   20.5560   32.9420 H   0  0  0  0  0  0  0  0  0  0  0  0
   43.8000   21.5780   35.0410 H   0  0  0  0  0  0  0  0  0  0  0  0
   42.1300   22.8750   36.3190 H   0  0  0  0  0  0  0  0  0  0  0  0
   39.5810   23.3020   35.6320 C   0  0  0  0  0  0  0  0  0  0  0  0
   38.8090   22.5510   36.5200 C   0  0  0  0  0  0  0  0  0  0  0  0
   38.8650   21.4820   36.6900 H   0  0  0  0  0  0  0  0  0  0  0  0
   37.8420   23.1670   37.3080 C   0  0  0  0  0  3  0  0  0  0  0  0
   37.6680   24.5270   37.1910 C   0  0  0  0  0  3  0  0  0  0  0  0
   38.4180   25.2640   36.3260 C   0  0  0  0  0  0  0  0  0  0  0  0
   38.2550   26.6300   36.1960 C   0  0  0  0  0  3  0  0  0  0  0  0
   39.0640   27.3130   35.2870 C   0  0  0  0  0  3  0  0  0  0  0  0
   40.0060   26.6970   34.5240 C   0  0  0  0  0  3  0  0  0  0  0  0
   40.1970   25.3330   34.6250 C   0  0  0  0  0  3  0  0  0  0  0  0
   39.3840   24.6600   35.5360 C   0  0  0  0  0  0  0  0  0  0  0  0
   36.6160   21.3730   32.9680 C   0  0  0  0  0  0  0  0  0  0  0  0
   36.2950   22.4120   32.0890 C   0  0  0  0  0  0  0  0  0  0  0  0
   37.3110   23.3110   31.7540 C   0  0  0  0  0  0  0  0  0  0  0  0
   38.5390   23.1200   32.3020 N   0  0  0  0  0  0  0  0  0  0  0  0
   38.8090   22.0970   33.1510 C   0  0  0  0  0  0  0  0  0  0  0  0
   37.8550   21.2380   33.4760 N   0  0  0  0  0  0  0  0  0  0  0  0
   35.3120   22.5360   31.6750 H   0  0  0  0  0  0  0  0  0  0  0  0
   37.1380   24.1470   31.0760 H   0  0  0  0  0  0  0  0  0  0  0  0
   35.5280   20.4090   33.3270 C   0  0  0  0  0  0  0  0  0  0  0  0
   35.9310   19.1150   33.0110 F   0  0  0  0  0  0  0  0  0  0  0  0
   35.2450   20.5590   34.6430 F   0  0  0  0  0  0  0  0  0  0  0  0
   34.4350   20.6710   32.5100 F   0  0  0  0  0  0  0  0  0  0  0  0
  1  6  1  0  0  0  0
  2  3  1  0  0  0  0
  2  1  2  0  0  0  0
  3  4  2  0  0  0  0
  4  9  1  0  0  0  0
  4  5  1  0  0  0  0
  5 10  1  0  0  0  0
  6  5  2  0  0  0  0
  6 11  1  0  0  0  0
  7  2  1  0  0  0  0
  8  3  1  0  0  0  0
 11 12  1  0  0  0  0
 12 13  1  0  0  0  0
 12 14  2  0  0  0  0
 15 14  1  0  0  0  0
 16 15  2  0  0  0  0
 17 16  1  0  0  0  0
 18 17  2  0  0  0  0
 19 20  2  0  0  0  0
 19 18  1  0  0  0  0
 20 21  1  0  0  0  0
 21 11  2  0  0  0  0
 21 16  1  0  0  0  0
 22 30  1  0  0  0  0
 22 27  1  0  0  0  0
 23 22  2  0  0  0  0
 24 23  1  0  0  0  0
 24 25  2  0  0  0  0
 25 26  1  0  0  0  0
 26 27  2  0  0  0  0
 26  1  1  0  0  0  0
 28 23  1  0  0  0  0
 29 24  1  0  0  0  0
 30 32  1  0  0  0  0
 31 30  1  0  0  0  0
 33 30  1  0  0  0  0
M  END
>  <minimizedAffinity>
-6.39122772

$$$$

 OpenBabel03272505393D

 33 36  0  0  0  0  0  0  0  0999 V2000
   39.6710   24.9690   32.9080 C   0  0  0  0  0  0  0  0  0  0  0  0
   40.0740   25.7810   31.8690 C   0  0  0  0  0  0  0  0  0  0  0  0
   40.7150   26.9750   32.0970 C   0  0  0  0  0  0  0  0  0  0  0  0
   40.9940   27.4310   33.3760 C   0  0  0  0  0  0  0  0  0  0  0  0
   40.6010   26.6350   34.4240 C   0  0  0  0  0  0  0  0  0  0  0  0
   39.9580   25.4390   34.1640 C   0  0  0  0  0  0  0  0  0  0  0  0
   39.8880   25.4860   30.8450 H   0  0  0  0  0  0  0  0  0  0  0  0
   41.0280   27.6090   31.2540 H   0  0  0  0  0  0  0  0  0  0  0  0
   41.5020   28.3790   33.5030 H   0  0  0  0  0  0  0  0  0  0  0  0
   40.8130   26.9830   35.4220 H   0  0  0  0  0  0  0  0  0  0  0  0
   39.5570   24.6250   35.3070 C   0  0  0  0  0  0  0  0  0  0  0  0
   38.2640   24.8660   35.7740 C   0  0  0  0  0  0  0  0  0  0  0  0
   37.5500   25.5790   35.3790 H   0  0  0  0  0  0  0  0  0  0  0  0
   37.7630   24.1540   36.8600 C   0  0  0  0  0  3  0  0  0  0  0  0
   38.5700   23.2130   37.4570 C   0  0  0  0  0  3  0  0  0  0  0  0
   39.8320   22.9750   37.0040 C   0  0  0  0  0  0  0  0  0  0  0  0
   40.6550   22.0330   37.5940 C   0  0  0  0  0  3  0  0  0  0  0  0
   41.9360   21.8490   37.0700 C   0  0  0  0  0  3  0  0  0  0  0  0
   42.4110   22.5520   36.0080 C   0  0  0  0  0  3  0  0  0  0  0  0
   41.6190   23.5020   35.3940 C   0  0  0  0  0  3  0  0  0  0  0  0
   40.3410   23.6790   35.9240 C   0  0  0  0  0  0  0  0  0  0  0  0
   37.0900   22.4940   32.1580 C   0  0  0  0  0  0  0  0  0  0  0  0
   37.8010   21.2890   32.1680 C   0  0  0  0  0  0  0  0  0  0  0  0
   39.1710   21.3500   32.4340 C   0  0  0  0  0  0  0  0  0  0  0  0
   39.7230   22.5700   32.6670 N   0  0  0  0  0  0  0  0  0  0  0  0
   38.9970   23.7160   32.6490 C   0  0  0  0  0  0  0  0  0  0  0  0
   37.6970   23.6710   32.3970 N   0  0  0  0  0  0  0  0  0  0  0  0
   37.3340   20.3410   31.9780 H   0  0  0  0  0  0  0  0  0  0  0  0
   39.7920   20.4540   32.4590 H   0  0  0  0  0  0  0  0  0  0  0  0
   35.6220   22.4290   31.8720 C   0  0  0  0  0  0  0  0  0  0  0  0
   34.9860   21.7030   32.8750 F   0  0  0  0  0  0  0  0  0  0  0  0
   35.1540   23.6950   31.7690 F   0  0  0  0  0  0  0  0  0  0  0  0
   35.4430   21.6940   30.7070 F   0  0  0  0  0  0  0  0  0  0  0  0
  1  6  1  0  0  0  0
  2  3  1  0  0  0  0
  2  1  2  0  0  0  0
  3  4  2  0  0  0  0
  4  9  1  0  0  0  0
  4  5  1  0  0  0  0
  5 10  1  0  0  0  0
  6  5  2  0  0  0  0
  6 11  1  0  0  0  0
  7  2  1  0  0  0  0
  8  3  1  0  0  0  0
 11 12  2  0  0  0  0
 11 21  1  0  0  0  0
 12 14  1  0  0  0  0
 13 12  1  0  0  0  0
 14 15  2  0  0  0  0
 16 15  1  0  0  0  0
 16 17  1  0  0  0  0
 18 17  2  0  0  0  0
 19 18  1  0  0  0  0
 20 21  1  0  0  0  0
 20 19  2  0  0  0  0
 21 16  2  0  0  0  0
 22 23  2  0  0  0  0
 22 27  1  0  0  0  0
 23 24  1  0  0  0  0
 24 29  1  0  0  0  0
 24 25  2  0  0  0  0
 26 25  1  0  0  0  0
 26  1  1  0  0  0  0
 27 26  2  0  0  0  0
 28 23  1  0  0  0  0
 30 22  1  0  0  0  0
 30 31  1  0  0  0  0
 32 30  1  0  0  0  0
 33 30  1  0  0  0  0
M  END
>  <minimizedAffinity>
-6.38764572

$$$$

 OpenBabel03272505393D

 33 36  0  0  0  0  0  0  0  0999 V2000
   37.2800   21.9630   33.6280 C   0  0  0  0  0  0  0  0  0  0  0  0
   36.2700   21.0440   33.8190 C   0  0  0  0  0  0  0  0  0  0  0  0
   35.3530   20.7690   32.8330 C   0  0  0  0  0  0  0  0  0  0  0  0
   35.3880   21.3920   31.5960 C   0  0  0  0  0  0  0  0  0  0  0  0
   36.3880   22.3110   31.3870 C   0  0  0  0  0  0  0  0  0  0  0  0
   37.2960   22.5670   32.3970 C   0  0  0  0  0  0  0  0  0  0  0  0
   36.1830   20.5190   34.7610 H   0  0  0  0  0  0  0  0  0  0  0  0
   34.5540   20.0310   33.0060 H   0  0  0  0  0  0  0  0  0  0  0  0
   34.6430   21.1410   30.8520 H   0  0  0  0  0  0  0  0  0  0  0  0
   36.4220   22.8020   30.4270 H   0  0  0  0  0  0  0  0  0  0  0  0
   38.3420   23.5500   32.1320 C   0  0  0  0  0  0  0  0  0  0  0  0
   39.4750   23.0420   31.4940 C   0  0  0  0  0  0  0  0  0  0  0  0
   39.6460   22.0170   31.1860 H   0  0  0  0  0  0  0  0  0  0  0  0
   40.5440   23.8780   31.1860 C   0  0  0  0  0  3  0  0  0  0  0  0
   40.4550   25.2090   31.5230 C   0  0  0  0  0  3  0  0  0  0  0  0
   39.3520   25.7080   32.1460 C   0  0  0  0  0  0  0  0  0  0  0  0
   39.2480   27.0430   32.4920 C   0  0  0  0  0  3  0  0  0  0  0  0
   38.0840   27.4760   33.1280 C   0  0  0  0  0  3  0  0  0  0  0  0
   37.0480   26.6470   33.4230 C   0  0  0  0  0  3  0  0  0  0  0  0
   37.1150   25.3070   33.0930 C   0  0  0  0  0  3  0  0  0  0  0  0
   38.2820   24.8840   32.4580 C   0  0  0  0  0  0  0  0  0  0  0  0
   38.7720   23.0540   36.7790 C   0  0  0  0  0  0  0  0  0  0  0  0
   40.1220   22.7290   36.6150 C   0  0  0  0  0  0  0  0  0  0  0  0
   40.5000   22.1330   35.4080 C   0  0  0  0  0  0  0  0  0  0  0  0
   39.5370   21.9090   34.4780 N   0  0  0  0  0  0  0  0  0  0  0  0
   38.2360   22.2400   34.6770 C   0  0  0  0  0  0  0  0  0  0  0  0
   37.8660   22.8050   35.8170 N   0  0  0  0  0  0  0  0  0  0  0  0
   40.8590   22.9190   37.3720 H   0  0  0  0  0  0  0  0  0  0  0  0
   41.5340   21.8510   35.2060 H   0  0  0  0  0  0  0  0  0  0  0  0
   38.3660   23.6920   38.0720 C   0  0  0  0  0  0  0  0  0  0  0  0
   39.3960   23.5590   38.9980 F   0  0  0  0  0  0  0  0  0  0  0  0
   38.0500   24.9850   37.8260 F   0  0  0  0  0  0  0  0  0  0  0  0
   37.3000   22.9690   38.5920 F   0  0  0  0  0  0  0  0  0  0  0  0
  1  2  1  0  0  0  0
  1 26  1  0  0  0  0
  2  7  1  0  0  0  0
  3  8  1  0  0  0  0
  3  2  2  0  0  0  0
  4  3  1  0  0  0  0
  5  4  2  0  0  0  0
  5  6  1  0  0  0  0
  6  1  2  0  0  0  0
  9  4  1  0  0  0  0
 10  5  1  0  0  0  0
 11  6  1  0  0  0  0
 11 21  1  0  0  0  0
 12 11  2  0  0  0  0
 13 12  1  0  0  0  0
 14 12  1  0  0  0  0
 14 15  2  0  0  0  0
 15 16  1  0  0  0  0
 16 21  2  0  0  0  0
 16 17  1  0  0  0  0
 17 18  2  0  0  0  0
 18 19  1  0  0  0  0
 20 19  2  0  0  0  0
 21 20  1  0  0  0  0
 22 30  1  0  0  0  0
 23 22  1  0  0  0  0
 23 28  1  0  0  0  0
 24 23  2  0  0  0  0
 25 26  2  0  0  0  0
 25 24  1  0  0  0  0
 26 27  1  0  0  0  0
 27 22  2  0  0  0  0
 29 24  1  0  0  0  0
 30 33  1  0  0  0  0
 30 31  1  0  0  0  0
 32 30  1  0  0  0  0
M  END
>  <minimizedAffinity>
-6.33258963

$$$$

 OpenBabel03272505393D

 33 36  0  0  0  0  0  0  0  0999 V2000
   40.8680   24.7380   34.9140 C   0  0  0  0  0  0  0  0  0  0  0  0
   42.1550   24.2450   34.9810 C   0  0  0  0  0  0  0  0  0  0  0  0
   43.2390   25.0190   34.6430 C   0  0  0  0  0  0  0  0  0  0  0  0
   43.1070   26.3310   34.2180 C   0  0  0  0  0  0  0  0  0  0  0  0
   41.8330   26.8400   34.1450 C   0  0  0  0  0  0  0  0  0  0  0  0
   40.7610   26.0370   34.4910 C   0  0  0  0  0  0  0  0  0  0  0  0
   42.3310   23.2280   35.3060 H   0  0  0  0  0  0  0  0  0  0  0  0
   44.2580   24.6060   34.7040 H   0  0  0  0  0  0  0  0  0  0  0  0
   43.9920   26.8990   33.9630 H   0  0  0  0  0  0  0  0  0  0  0  0
   41.7210   27.8600   33.8140 H   0  0  0  0  0  0  0  0  0  0  0  0
   39.4250   26.6180   34.3990 C   0  0  0  0  0  0  0  0  0  0  0  0
   38.9580   27.2050   35.5760 C   0  0  0  0  0  0  0  0  0  0  0  0
   39.4800   27.2690   36.5240 H   0  0  0  0  0  0  0  0  0  0  0  0
   37.6980   27.7940   35.6180 C   0  0  0  0  0  3  0  0  0  0  0  0
   36.9300   27.7830   34.4780 C   0  0  0  0  0  3  0  0  0  0  0  0
   37.3810   27.2110   33.3270 C   0  0  0  0  0  0  0  0  0  0  0  0
   36.6210   27.1910   32.1720 C   0  0  0  0  0  3  0  0  0  0  0  0
   37.1560   26.5860   31.0350 C   0  0  0  0  0  3  0  0  0  0  0  0
   38.3890   26.0150   31.0080 C   0  0  0  0  0  3  0  0  0  0  0  0
   39.1780   26.0140   32.1420 C   0  0  0  0  0  3  0  0  0  0  0  0
   38.6350   26.6220   33.2740 C   0  0  0  0  0  0  0  0  0  0  0  0
   38.0300   22.4460   34.7180 C   0  0  0  0  0  0  0  0  0  0  0  0
   37.6050   22.3600   36.0480 C   0  0  0  0  0  0  0  0  0  0  0  0
   38.3110   23.1010   37.0000 C   0  0  0  0  0  0  0  0  0  0  0  0
   39.3600   23.8530   36.5740 N   0  0  0  0  0  0  0  0  0  0  0  0
   39.7390   23.9090   35.2730 C   0  0  0  0  0  0  0  0  0  0  0  0
   39.0780   23.2100   34.3620 N   0  0  0  0  0  0  0  0  0  0  0  0
   36.7730   21.7540   36.3520 H   0  0  0  0  0  0  0  0  0  0  0  0
   38.0410   23.0860   38.0560 H   0  0  0  0  0  0  0  0  0  0  0  0
   37.2740   21.6510   33.6980 C   0  0  0  0  0  0  0  0  0  0  0  0
   38.1550   20.8220   33.0110 F   0  0  0  0  0  0  0  0  0  0  0  0
   36.2990   20.9620   34.3350 F   0  0  0  0  0  0  0  0  0  0  0  0
   36.7750   22.5360   32.7490 F   0  0  0  0  0  0  0  0  0  0  0  0
  1  2  1  0  0  0  0
  1 26  1  0  0  0  0
  2  7  1  0  0  0  0
  3  8  1  0  0  0  0
  3  2  2  0  0  0  0
  4  3  1  0  0  0  0
  5  4  2  0  0  0  0
  5  6  1  0  0  0  0
  6  1  2  0  0  0  0
  9  4  1  0  0  0  0
 10  5  1  0  0  0  0
 11  6  1  0  0  0  0
 11 12  1  0  0  0  0
 12 14  2  0  0  0  0
 12 13  1  0  0  0  0
 15 14  1  0  0  0  0
 16 15  2  0  0  0  0
 17 16  1  0  0  0  0
 18 17  2  0  0  0  0
 19 18  1  0  0  0  0
 19 20  2  0  0  0  0
 20 21  1  0  0  0  0
 21 16  1  0  0  0  0
 21 11  2  0  0  0  0
 22 23  1  0  0  0  0
 23 28  1  0  0  0  0
 23 24  2  0  0  0  0
 24 29  1  0  0  0  0
 25 24  1  0  0  0  0
 26 25  2  0  0  0  0
 27 22  2  0  0  0  0
 27 26  1  0  0  0  0
 30 32  1  0  0  0  0
 30 22  1  0  0  0  0
 31 30  1  0  0  0  0
 33 30  1  0  0  0  0
M  END
>  <minimizedAffinity>
-6.32131863

$$$$

 OpenBabel03272505393D

 33 36  0  0  0  0  0  0  0  0999 V2000
   39.8980   26.9370   32.2270 C   0  0  0  0  0  0  0  0  0  0  0  0
   40.6870   27.4530   31.2210 C   0  0  0  0  0  0  0  0  0  0  0  0
   41.9940   27.8160   31.4450 C   0  0  0  0  0  0  0  0  0  0  0  0
   42.5930   27.6840   32.6880 C   0  0  0  0  0  0  0  0  0  0  0  0
   41.8230   27.1710   33.7040 C   0  0  0  0  0  0  0  0  0  0  0  0
   40.5120   26.8160   33.4470 C   0  0  0  0  0  0  0  0  0  0  0  0
   40.2830   27.5820   30.2250 H   0  0  0  0  0  0  0  0  0  0  0  0
   42.6070   28.2260   30.6280 H   0  0  0  0  0  0  0  0  0  0  0  0
   43.6260   27.9840   32.8150 H   0  0  0  0  0  0  0  0  0  0  0  0
   42.2820   27.0670   34.6740 H   0  0  0  0  0  0  0  0  0  0  0  0
   39.7300   26.2750   34.5540 C   0  0  0  0  0  0  0  0  0  0  0  0
   39.0060   27.2230   35.2790 C   0  0  0  0  0  0  0  0  0  0  0  0
   38.9710   28.2920   35.1020 H   0  0  0  0  0  0  0  0  0  0  0  0
   38.2210   26.8350   36.3600 C   0  0  0  0  0  3  0  0  0  0  0  0
   38.1760   25.5010   36.6930 C   0  0  0  0  0  3  0  0  0  0  0  0
   38.8800   24.5720   35.9890 C   0  0  0  0  0  0  0  0  0  0  0  0
   38.8460   23.2280   36.3120 C   0  0  0  0  0  3  0  0  0  0  0  0
   39.5970   22.3400   35.5400 C   0  0  0  0  0  3  0  0  0  0  0  0
   40.3590   22.7350   34.4860 C   0  0  0  0  0  3  0  0  0  0  0  0
   40.4200   24.0690   34.1340 C   0  0  0  0  0  3  0  0  0  0  0  0
   39.6660   24.9480   34.9110 C   0  0  0  0  0  0  0  0  0  0  0  0
   36.9000   24.9740   31.5170 C   0  0  0  0  0  0  0  0  0  0  0  0
   35.8910   25.9430   31.4950 C   0  0  0  0  0  0  0  0  0  0  0  0
   36.2640   27.2690   31.7280 C   0  0  0  0  0  0  0  0  0  0  0  0
   37.5760   27.5320   31.9590 N   0  0  0  0  0  0  0  0  0  0  0  0
   38.5250   26.5620   31.9710 C   0  0  0  0  0  0  0  0  0  0  0  0
   38.1830   25.3010   31.7520 N   0  0  0  0  0  0  0  0  0  0  0  0
   34.8610   25.7010   31.3110 H   0  0  0  0  0  0  0  0  0  0  0  0
   35.5350   28.0800   31.7270 H   0  0  0  0  0  0  0  0  0  0  0  0
   36.5000   23.5520   31.2680 C   0  0  0  0  0  0  0  0  0  0  0  0
   36.5670   22.8370   32.4600 F   0  0  0  0  0  0  0  0  0  0  0  0
   35.2590   23.5490   30.7270 F   0  0  0  0  0  0  0  0  0  0  0  0
   37.4510   22.9790   30.4340 F   0  0  0  0  0  0  0  0  0  0  0  0
  1  6  1  0  0  0  0
  2  3  1  0  0  0  0
  2  1  2  0  0  0  0
  3  4  2  0  0  0  0
  4  9  1  0  0  0  0
  4  5  1  0  0  0  0
  5 10  1  0  0  0  0
  6  5  2  0  0  0  0
  6 11  1  0  0  0  0
  7  2  1  0  0  0  0
  8  3  1  0  0  0  0
 11 21  2  0  0  0  0
 11 12  1  0  0  0  0
 12 14  2  0  0  0  0
 13 12  1  0  0  0  0
 14 15  1  0  0  0  0
 16 17  1  0  0  0  0
 16 15  2  0  0  0  0
 18 17  2  0  0  0  0
 19 18  1  0  0  0  0
 20 19  2  0  0  0  0
 20 21  1  0  0  0  0
 21 16  1  0  0  0  0
 22 27  1  0  0  0  0
 23 22  2  0  0  0  0
 23 24  1  0  0  0  0
 24 25  2  0  0  0  0
 25 26  1  0  0  0  0
 26  1  1  0  0  0  0
 27 26  2  0  0  0  0
 28 23  1  0  0  0  0
 29 24  1  0  0  0  0
 30 22  1  0  0  0  0
 30 31  1  0  0  0  0
 32 30  1  0  0  0  0
 33 30  1  0  0  0  0
M  END
>  <minimizedAffinity>
-6.26903725

$$$$

 OpenBabel03272505393D

 33 36  0  0  0  0  0  0  0  0999 V2000
   37.1930   26.7120   33.0020 C   0  0  0  0  0  0  0  0  0  0  0  0
   36.2930   27.6900   32.6350 C   0  0  0  0  0  0  0  0  0  0  0  0
   35.9590   28.7160   33.4860 C   0  0  0  0  0  0  0  0  0  0  0  0
   36.5030   28.8290   34.7550 C   0  0  0  0  0  0  0  0  0  0  0  0
   37.4020   27.8640   35.1400 C   0  0  0  0  0  0  0  0  0  0  0  0
   37.7180   26.8440   34.2610 C   0  0  0  0  0  0  0  0  0  0  0  0
   35.8300   27.6640   31.6570 H   0  0  0  0  0  0  0  0  0  0  0  0
   35.2380   29.4870   33.1730 H   0  0  0  0  0  0  0  0  0  0  0  0
   36.2080   29.6560   35.3890 H   0  0  0  0  0  0  0  0  0  0  0  0
   37.8290   27.9440   36.1260 H   0  0  0  0  0  0  0  0  0  0  0  0
   38.6780   25.8400   34.7100 C   0  0  0  0  0  0  0  0  0  0  0  0
   38.1130   24.7290   35.3400 C   0  0  0  0  0  0  0  0  0  0  0  0
   37.0600   24.5480   35.5220 H   0  0  0  0  0  0  0  0  0  0  0  0
   38.9220   23.7020   35.8140 C   0  0  0  0  0  3  0  0  0  0  0  0
   40.2840   23.8070   35.6470 C   0  0  0  0  0  3  0  0  0  0  0  0
   40.8390   24.8880   35.0330 C   0  0  0  0  0  0  0  0  0  0  0  0
   42.2050   25.0090   34.8570 C   0  0  0  0  0  3  0  0  0  0  0  0
   42.6950   26.1490   34.2180 C   0  0  0  0  0  3  0  0  0  0  0  0
   41.8910   27.1450   33.7590 C   0  0  0  0  0  3  0  0  0  0  0  0
   40.5220   27.0610   33.9170 C   0  0  0  0  0  3  0  0  0  0  0  0
   40.0420   25.9180   34.5570 C   0  0  0  0  0  0  0  0  0  0  0  0
   37.2170   23.4990   31.2620 C   0  0  0  0  0  0  0  0  0  0  0  0
   38.2450   23.6590   30.3270 C   0  0  0  0  0  0  0  0  0  0  0  0
   38.9180   24.8830   30.3100 C   0  0  0  0  0  0  0  0  0  0  0  0
   38.5340   25.8350   31.2000 N   0  0  0  0  0  0  0  0  0  0  0  0
   37.5320   25.6400   32.0930 C   0  0  0  0  0  0  0  0  0  0  0  0
   36.8850   24.4840   32.1180 N   0  0  0  0  0  0  0  0  0  0  0  0
   38.5220   22.8850   29.6350 H   0  0  0  0  0  0  0  0  0  0  0  0
   39.7300   25.0830   29.6100 H   0  0  0  0  0  0  0  0  0  0  0  0
   36.4950   22.1880   31.2800 C   0  0  0  0  0  0  0  0  0  0  0  0
   36.3860   21.7370   32.5920 F   0  0  0  0  0  0  0  0  0  0  0  0
   35.2900   22.3590   30.6870 F   0  0  0  0  0  0  0  0  0  0  0  0
   37.2870   21.2520   30.6270 F   0  0  0  0  0  0  0  0  0  0  0  0
  1  6  1  0  0  0  0
  2  1  2  0  0  0  0
  2  3  1  0  0  0  0
  3  4  2  0  0  0  0
  4  5  1  0  0  0  0
  4  9  1  0  0  0  0
  5 10  1  0  0  0  0
  6 11  1  0  0  0  0
  6  5  2  0  0  0  0
  7  2  1  0  0  0  0
  8  3  1  0  0  0  0
 11 12  1  0  0  0  0
 12 13  1  0  0  0  0
 12 14  2  0  0  0  0
 15 14  1  0  0  0  0
 16 15  2  0  0  0  0
 17 16  1  0  0  0  0
 18 17  2  0  0  0  0
 19 20  2  0  0  0  0
 19 18  1  0  0  0  0
 20 21  1  0  0  0  0
 21 11  2  0  0  0  0
 21 16  1  0  0  0  0
 22 30  1  0  0  0  0
 22 27  1  0  0  0  0
 23 22  2  0  0  0  0
 24 23  1  0  0  0  0
 24 25  2  0  0  0  0
 25 26  1  0  0  0  0
 26 27  2  0  0  0  0
 26  1  1  0  0  0  0
 28 23  1  0  0  0  0
 29 24  1  0  0  0  0
 30 31  1  0  0  0  0
 32 30  1  0  0  0  0
 33 30  1  0  0  0  0
M  END
>  <minimizedAffinity>
-6.18046618

$$$$
