
     RDKit          3D

 29 31  0  0  0  0  0  0  0  0999 V2000
   38.3049   31.2362   50.1169 C   0  0  0  0  0  0  0  0  0  0  0  0
   38.2840   31.5945   48.7705 C   0  0  0  0  0  0  0  0  0  0  0  0
   37.2065   31.2226   47.9853 C   0  0  0  0  0  0  0  0  0  0  0  0
   36.2345   30.5130   48.6237 N   0  0  0  0  0  0  0  0  0  0  0  0
   36.2563   30.1710   49.9070 C   0  0  0  0  0  0  0  0  0  0  0  0
   37.2974   30.5423   50.6333 N   0  0  0  0  0  0  0  0  0  0  0  0
   35.1216   29.3873   50.4571 C   0  0  0  0  0  0  0  0  0  0  0  0
   35.2716   29.1198   51.8067 F   0  0  0  0  0  0  0  0  0  0  0  0
   33.9167   30.0507   50.2926 F   0  0  0  0  0  0  0  0  0  0  0  0
   34.9556   28.1745   49.8110 F   0  0  0  0  0  0  0  0  0  0  0  0
   39.1454   31.5283   50.7308 H   0  0  0  0  0  0  0  0  0  0  0  0
   39.1416   32.1104   48.4043 H   0  0  0  0  0  0  0  0  0  0  0  0
   37.0131   31.4217   46.5704 C   0  0  0  0  0  0  0  0  0  0  0  0
   38.1739   31.5925   45.8058 C   0  0  0  0  0  0  0  0  0  0  0  0
   39.1486   31.5808   46.2792 H   0  0  0  0  0  0  0  0  0  0  0  0
   38.2046   31.7820   44.4562 C   0  0  0  0  0  0  0  0  0  0  0  0
   37.0247   31.8140   43.7482 C   0  0  0  0  0  0  0  0  0  0  0  0
   35.8586   31.6501   44.4381 C   0  0  0  0  0  0  0  0  0  0  0  0
   34.6630   31.6426   43.7575 C   0  0  0  0  0  0  0  0  0  0  0  0
   33.4511   31.4438   44.4063 C   0  0  0  0  0  0  0  0  0  0  0  0
   33.5070   31.2523   45.7731 C   0  0  0  0  0  0  0  0  0  0  0  0
   34.7028   31.2661   46.4169 C   0  0  0  0  0  0  0  0  0  0  0  0
   35.8866   31.4628   45.7916 C   0  0  0  0  0  0  0  0  0  0  0  0
   39.1135   31.9100   43.9045 H   0  0  0  0  0  0  0  0  0  0  0  0
   37.0491   31.9655   42.6808 H   0  0  0  0  0  0  0  0  0  0  0  0
   34.6378   31.7941   42.6816 H   0  0  0  0  0  0  0  0  0  0  0  0
   32.5437   31.4442   43.8517 H   0  0  0  0  0  0  0  0  0  0  0  0
   32.5467   31.0955   46.2715 H   0  0  0  0  0  0  0  0  0  0  0  0
   34.6398   31.0690   47.4549 H   0  0  0  0  0  0  0  0  0  0  0  0
  1  6  2  0
  2  1  1  0
  3  4  1  0
  3  2  2  0
  4  5  2  0
  5  7  1  0
  5  6  1  0
  7  8  1  0
  9  7  1  0
 10  7  1  0
  1 11  1  0
  2 12  1  0
 13 14  2  0
 14 15  1  0
 14 16  1  0
 16 17  2  0
 17 18  1  0
 18 19  2  0
 19 20  1  0
 20 21  2  0
 21 22  1  0
 22 23  2  0
 23 13  1  0
 23 18  1  0
 16 24  1  0
 17 25  1  0
 19 26  1  0
 20 27  1  0
 21 28  1  0
 22 29  1  0
  3 13  1  0
M  ISO  3  11  14  12  14  15  15
M  END
>  <DihAtoms>  (1) 
3,2,12,13

>  <DihDeg>  (1) 
-32.813208269965244

$$$$
