REMARK  Name = 
REMARK  1 active torsions:
REMARK  status: ('A' for Active; 'I' for Inactive)
REMARK    1  A    between atoms: C_3  and  C_12
REMARK                            x       y       z     vdW  Elec       q    Type
REMARK                         _______ _______ _______ _____ _____    ______ ____
ROOT
ATOM      1  C   UNL     1      37.310  30.216  51.420  0.00  0.00    +0.000 A 
ATOM      2  C   UNL     1      38.075  30.737  50.381  0.00  0.00    +0.000 A 
ATOM      3  C   UNL     1      37.750  30.427  49.058  0.00  0.00    +0.000 A 
ATOM      4  N   UNL     1      36.664  29.610  48.915  0.00  0.00    +0.000 NA
ATOM      5  C   UNL     1      35.934  29.115  49.913  0.00  0.00    +0.000 A 
ATOM      6  N   UNL     1      36.263  29.422  51.177  0.00  0.00    +0.000 NA
ATOM      7  N   UNL     1      34.845  28.284  49.535  0.00  0.00    +0.000 N 
ATOM      8  H   UNL     1      37.563  30.456  52.444  0.00  0.00    +0.000 HD
ATOM      9  H   UNL     1      38.848  31.384  50.653  0.00  0.00    +0.000 HD
ATOM     10  H   UNL     1      35.019  27.259  49.480  0.00  0.00    +0.000 HD
ATOM     11  H   UNL     1      33.999  28.882  49.364  0.00  0.00    +0.000 HD
ENDROOT
BRANCH   3  12
ATOM     12  C   UNL     1      38.363  30.917  47.847  0.00  0.00    +0.000 A 
ATOM     13  C   UNL     1      37.955  30.262  46.672  0.00  0.00    +0.000 A 
ATOM     14  H   UNL     1      37.219  29.448  46.703  0.00  0.00    +0.000 HD
ATOM     15  C   UNL     1      38.425  30.570  45.415  0.00  0.00    +0.000 A 
ATOM     16  C   UNL     1      39.348  31.567  45.255  0.00  0.00    +0.000 A 
ATOM     17  C   UNL     1      39.779  32.233  46.372  0.00  0.00    +0.000 A 
ATOM     18  C   UNL     1      40.732  33.219  46.249  0.00  0.00    +0.000 A 
ATOM     19  C   UNL     1      41.233  33.903  47.344  0.00  0.00    +0.000 A 
ATOM     20  C   UNL     1      40.712  33.530  48.589  0.00  0.00    +0.000 A 
ATOM     21  C   UNL     1      39.769  32.551  48.676  0.00  0.00    +0.000 A 
ATOM     22  C   UNL     1      39.277  31.885  47.599  0.00  0.00    +0.000 A 
ENDBRANCH   3  12
TORSDOF 1
