
 OpenBabel03272509133D

 42 46  0  0  1  0  0  0  0  0999 V2000
   36.2560   30.5110   46.7820 N   0  0  0  0  0  0  0  0  0  0  0  0
   37.1840   31.1440   47.7470 C   0  0  0  0  0  0  0  0  0  0  0  0
   37.1310   30.1930   48.9200 C   0  0  0  0  0  0  0  0  0  0  0  0
   35.7020   29.7090   48.9310 C   0  0  0  0  0  0  0  0  0  0  0  0
   35.1110   30.3290   47.6590 C   0  0  2  0  0  0  0  0  0  0  0  0
   38.1930   31.1700   47.3330 H   0  0  0  0  0  0  0  0  0  0  0  0
   36.7620   32.1230   48.0340 H   0  0  0  0  0  0  0  0  0  0  0  0
   37.4240   30.6650   49.8700 H   0  0  0  0  0  0  0  0  0  0  0  0
   37.7780   29.3160   48.6500 H   0  0  0  0  0  0  0  0  0  0  0  0
   35.2040   30.0410   49.8420 H   0  0  0  0  0  0  0  0  0  0  0  0
   35.6500   28.6040   48.9240 H   0  0  0  0  0  0  0  0  0  0  0  0
   34.7310   31.2890   48.0250 H   0  0  0  0  0  0  0  0  0  0  0  0
   34.1610   29.3460   47.1840 C   0  0  0  0  0  0  0  0  0  0  0  0
   34.3410   27.9990   47.4100 C   0  0  0  0  0  0  0  0  0  0  0  0
   35.1740   27.5810   47.9390 H   0  0  0  0  0  0  0  0  0  0  0  0
   33.4650   27.0220   46.9980 C   0  0  0  0  0  0  0  0  0  0  0  0
   32.3100   27.3390   46.3080 C   0  0  0  0  0  0  0  0  0  0  0  0
   32.0750   28.6760   46.0530 C   0  0  0  0  0  0  0  0  0  0  0  0
   30.9350   29.0280   45.3710 C   0  0  0  0  0  0  0  0  0  0  0  0
   30.6500   30.3470   45.0910 C   0  0  0  0  0  0  0  0  0  0  0  0
   31.5470   31.3310   45.5150 C   0  0  0  0  0  0  0  0  0  0  0  0
   32.6700   30.9040   46.1930 C   0  0  0  0  0  0  0  0  0  0  0  0
   33.0010   29.6160   46.4960 C   0  0  0  0  0  0  0  0  0  0  0  0
   35.1220   29.3720   45.0100 C   0  0  0  0  0  0  0  0  0  0  0  0
   36.2630   30.1250   45.4220 C   0  0  0  0  0  0  0  0  0  0  0  0
   37.2460   30.3880   44.4710 C   0  0  0  0  0  0  0  0  0  0  0  0
   37.0730   29.9160   43.2020 N   0  0  0  0  0  0  0  0  0  0  0  0
   35.9760   29.2050   42.8510 C   0  0  0  0  0  0  0  0  0  0  0  0
   35.0120   28.9360   43.7450 N   0  0  0  0  0  0  0  0  0  0  0  0
   34.3290   29.1410   45.7090 H   0  0  0  0  0  0  0  0  0  0  0  0
   35.8760   28.8420   41.8170 H   0  0  0  0  0  0  0  0  0  0  0  0
   38.4350   31.1370   44.7820 C   0  0  0  0  0  0  0  0  0  0  0  0
   38.4400   32.4760   44.5720 C   0  0  0  0  0  0  0  0  0  0  0  0
   39.5420   33.2720   44.8440 C   0  0  0  0  0  0  0  0  0  0  0  0
   40.6800   32.6220   45.3550 C   0  0  0  0  0  0  0  0  0  0  0  0
   40.7390   31.2360   45.5940 C   0  0  0  0  0  0  0  0  0  0  0  0
   39.5810   30.5260   45.2900 C   0  0  0  0  0  0  0  0  0  0  0  0
   37.6070   33.0400   44.1850 H   0  0  0  0  0  0  0  0  0  0  0  0
   39.5870   34.3380   44.6920 H   0  0  0  0  0  0  0  0  0  0  0  0
   41.5600   33.2210   45.5770 H   0  0  0  0  0  0  0  0  0  0  0  0
   41.6240   30.7960   45.9810 H   0  0  0  0  0  0  0  0  0  0  0  0
   39.6140   29.4610   45.4690 H   0  0  0  0  0  0  0  0  0  0  0  0
  1  5  1  0  0  0  0
  1  2  1  0  0  0  0
  2  7  1  0  0  0  0
  2  3  1  0  0  0  0
  3  4  1  0  0  0  0
  3  8  1  0  0  0  0
  4 10  1  0  0  0  0
  5 12  1  1  0  0  0
  5  4  1  0  0  0  0
  6  2  1  0  0  0  0
  9  3  1  0  0  0  0
 11  4  1  0  0  0  0
 13 14  1  0  0  0  0
 13  5  1  0  0  0  0
 14 15  1  0  0  0  0
 16 14  2  0  0  0  0
 17 16  1  0  0  0  0
 18 17  2  0  0  0  0
 18 23  1  0  0  0  0
 19 18  1  0  0  0  0
 20 19  2  0  0  0  0
 20 21  1  0  0  0  0
 21 22  2  0  0  0  0
 22 23  1  0  0  0  0
 23 13  2  0  0  0  0
 24 25  1  0  0  0  0
 24 30  1  0  0  0  0
 25  1  1  0  0  0  0
 26 32  1  0  0  0  0
 26 25  2  0  0  0  0
 27 26  1  0  0  0  0
 28 27  2  0  0  0  0
 28 29  1  0  0  0  0
 29 24  2  0  0  0  0
 31 28  1  0  0  0  0
 32 37  1  0  0  0  0
 33 32  2  0  0  0  0
 33 34  1  0  0  0  0
 34 35  2  0  0  0  0
 35 40  1  0  0  0  0
 35 36  1  0  0  0  0
 36 41  1  0  0  0  0
 37 42  1  0  0  0  0
 37 36  2  0  0  0  0
 38 33  1  0  0  0  0
 39 34  1  0  0  0  0
M  END
>  <minimizedAffinity>
-5.97798109

>  <minimizedRMSD>
3.2202754

$$$$
