
 OpenBabel03272509473D

 27 29  0  0  0  0  0  0  0  0999 V2000
   33.8460   27.1640   48.0060 C   0  0  0  0  0  0  0  0  0  0  0  0
   34.7440   26.5270   48.0270 H   0  0  0  0  0  0  0  0  0  0  0  0
   33.0800   26.5830   48.5980 H   0  0  0  0  0  0  0  0  0  0  0  0
   33.3480   27.3820   46.6330 C   0  0  0  0  0  0  0  0  0  0  0  0
   33.9840   28.3470   45.8620 C   0  0  0  0  0  0  0  0  0  0  0  0
   34.8250   28.8930   46.2760 H   0  0  0  0  0  0  0  0  0  0  0  0
   33.6510   28.7050   44.5760 C   0  0  0  0  0  3  0  0  0  0  0  0
   32.5700   28.0170   44.0140 C   0  0  0  0  0  3  0  0  0  0  0  0
   31.9080   27.0480   44.7440 C   0  0  0  0  0  0  0  0  0  0  0  0
   30.8390   26.3360   44.2390 C   0  0  0  0  0  3  0  0  0  0  0  0
   30.1590   25.3600   44.9400 C   0  0  0  0  0  3  0  0  0  0  0  0
   30.5900   25.0990   46.2120 C   0  0  0  0  0  3  0  0  0  0  0  0
   31.6450   25.7680   46.7730 C   0  0  0  0  0  3  0  0  0  0  0  0
   32.2900   26.7320   46.0380 C   0  0  0  0  0  0  0  0  0  0  0  0
   34.0540   28.4650   48.7060 C   0  0  0  0  0  0  0  0  0  0  0  0
   33.1230   29.0000   48.8650 H   0  0  0  0  0  0  0  0  0  0  0  0
   34.6560   29.1100   48.0090 H   0  0  0  0  0  0  0  0  0  0  0  0
   34.7670   28.2810   49.9140 O   0  0  0  0  0  0  0  0  0  0  0  0
   37.4170   30.2930   51.3800 C   0  0  0  0  0  0  0  0  0  0  0  0
   38.0750   30.7060   50.2240 C   0  0  0  0  0  0  0  0  0  0  0  0
   37.5870   30.2800   48.9910 C   0  0  0  0  0  0  0  0  0  0  0  0
   36.4760   29.4730   49.0220 N   0  0  0  0  0  0  0  0  0  0  0  0
   35.8670   29.0940   50.1460 C   0  0  0  0  0  0  0  0  0  0  0  0
   36.3430   29.5090   51.3290 N   0  0  0  0  0  0  0  0  0  0  0  0
   37.8350   30.6490   52.3020 H   0  0  0  0  0  0  0  0  0  0  0  0
   38.9530   31.3390   50.1510 H   0  0  0  0  0  0  0  0  0  0  0  0
   38.0200   30.5400   48.0210 H   0  0  0  0  0  0  0  0  0  0  0  0
  1  2  1  0  0  0  0
  1  3  1  0  0  0  0
  1 15  1  0  0  0  0
  4  1  1  0  0  0  0
  5  6  1  0  0  0  0
  5  4  2  0  0  0  0
  7  5  1  0  0  0  0
  8  7  2  0  0  0  0
  8  9  1  0  0  0  0
  9 14  1  0  0  0  0
 10  9  2  0  0  0  0
 10 11  1  0  0  0  0
 11 12  2  0  0  0  0
 12 13  1  0  0  0  0
 14  4  1  0  0  0  0
 14 13  2  0  0  0  0
 15 16  1  0  0  0  0
 15 18  1  0  0  0  0
 17 15  1  0  0  0  0
 18 23  1  0  0  0  0
 19 25  1  0  0  0  0
 20 19  2  0  0  0  0
 21 22  2  0  0  0  0
 21 20  1  0  0  0  0
 22 23  1  0  0  0  0
 23 24  2  0  0  0  0
 24 19  1  0  0  0  0
 26 20  1  0  0  0  0
 27 21  1  0  0  0  0
M  END
>  <minimizedAffinity>
-4.09284878

>  <minimizedRMSD>
0.474766463

$$$$
