
 OpenBabel03272510273D

 47 52  0  0  1  0  0  0  0  0999 V2000
   39.6730   31.7850   41.8990 N   0  0  0  0  0  0  0  0  0  0  0  0
   39.3390   33.2070   41.9830 C   0  0  1  0  0  0  0  0  0  0  0  0
   37.9710   33.4190   41.5350 C   0  0  0  0  0  0  0  0  0  0  0  0
   37.8670   33.0660   40.1800 O   0  0  0  0  0  0  0  0  0  0  0  0
   38.2930   31.7890   39.8820 C   0  0  0  0  0  0  0  0  0  0  0  0
   39.6590   31.5100   40.4780 C   0  0  2  0  0  0  0  0  0  0  0  0
   38.9750   31.1620   42.2820 H   0  0  0  0  0  0  0  0  0  0  0  0
   40.0540   33.7100   41.3040 H   0  0  0  0  0  0  0  0  0  0  0  0
   37.7960   34.5400   41.5200 H   0  0  0  0  0  0  0  0  0  0  0  0
   37.1080   32.9920   41.9700 H   0  0  0  0  0  0  0  0  0  0  0  0
   38.3510   31.7160   38.7920 H   0  0  0  0  0  0  0  0  0  0  0  0
   37.5840   31.0660   40.3410 H   0  0  0  0  0  0  0  0  0  0  0  0
   40.3710   32.2600   40.0700 H   0  0  0  0  0  0  0  0  0  0  0  0
   40.0530   30.1200   40.2690 C   0  0  0  0  0  0  0  0  0  0  0  0
   39.3600   28.9960   40.6280 C   0  0  0  0  0  0  0  0  0  0  0  0
   38.4030   29.0920   41.1200 H   0  0  0  0  0  0  0  0  0  0  0  0
   39.7530   27.6900   40.4270 C   0  0  0  0  0  3  0  0  0  0  0  0
   40.9610   27.4500   39.8040 C   0  0  0  0  0  3  0  0  0  0  0  0
   41.7080   28.5430   39.4170 C   0  0  0  0  0  0  0  0  0  0  0  0
   42.9030   28.2490   38.7990 C   0  0  0  0  0  3  0  0  0  0  0  0
   43.7180   29.2790   38.3740 C   0  0  0  0  0  3  0  0  0  0  0  0
   43.3180   30.5840   38.5770 C   0  0  0  0  0  3  0  0  0  0  0  0
   42.1260   30.8040   39.1940 C   0  0  0  0  0  3  0  0  0  0  0  0
   41.2520   29.8410   39.6510 C   0  0  0  0  0  0  0  0  0  0  0  0
   39.4940   33.5730   43.3440 O   0  0  0  0  0  0  0  0  0  0  0  0
   36.2200   30.2050   46.9130 C   0  0  0  0  0  0  0  0  0  0  0  0
   37.0640   30.7380   47.8690 C   0  0  0  0  0  0  0  0  0  0  0  0
   38.0770   31.6430   47.5170 C   0  0  0  0  0  0  0  0  0  0  0  0
   38.1650   31.9540   46.1660 C   0  0  0  0  0  0  0  0  0  0  0  0
   39.0630   32.8100   45.5780 N   0  0  0  0  0  0  0  0  0  0  0  0
   38.7780   32.8070   44.2650 C   0  0  0  0  0  0  0  0  0  0  0  0
   37.7670   32.0030   44.0330 N   0  0  0  0  0  0  0  0  0  0  0  0
   37.3500   31.4500   45.1830 C   0  0  0  0  0  0  0  0  0  0  0  0
   36.3500   30.5480   45.5740 C   0  0  0  0  0  0  0  0  0  0  0  0
   35.4280   29.5070   47.1360 H   0  0  0  0  0  0  0  0  0  0  0  0
   38.7410   32.0650   48.2550 H   0  0  0  0  0  0  0  0  0  0  0  0
   39.8170   33.3500   46.0780 H   0  0  0  0  0  0  0  0  0  0  0  0
   35.7050   30.1480   44.8040 H   0  0  0  0  0  0  0  0  0  0  0  0
   37.4390   30.1380   51.5660 C   0  0  0  0  0  0  0  0  0  0  0  0
   37.7560   30.5780   50.2840 C   0  0  0  0  0  0  0  0  0  0  0  0
   36.8820   30.3460   49.2530 C   0  0  0  0  0  0  0  0  0  0  0  0
   35.7140   29.6760   49.5560 N   0  0  0  0  0  0  0  0  0  0  0  0
   35.4160   29.2540   50.8000 C   0  0  0  0  0  0  0  0  0  0  0  0
   36.2660   29.4840   51.7830 N   0  0  0  0  0  0  0  0  0  0  0  0
   38.1510   30.3390   52.3530 H   0  0  0  0  0  0  0  0  0  0  0  0
   38.6610   31.0970   50.0510 H   0  0  0  0  0  0  0  0  0  0  0  0
   34.4690   28.7350   50.9340 H   0  0  0  0  0  0  0  0  0  0  0  0
  1  2  1  0  0  0  0
  1  7  1  0  0  0  0
  2  8  1  6  0  0  0
  2 25  1  0  0  0  0
  3 10  1  0  0  0  0
  3  2  1  0  0  0  0
  4  3  1  0  0  0  0
  5  4  1  0  0  0  0
  5 12  1  0  0  0  0
  5  6  1  0  0  0  0
  6 13  1  6  0  0  0
  6  1  1  0  0  0  0
  9  3  1  0  0  0  0
 11  5  1  0  0  0  0
 14  6  1  0  0  0  0
 14 15  1  0  0  0  0
 15 16  1  0  0  0  0
 17 15  2  0  0  0  0
 18 17  1  0  0  0  0
 19 24  1  0  0  0  0
 19 18  2  0  0  0  0
 20 19  1  0  0  0  0
 21 22  1  0  0  0  0
 21 20  2  0  0  0  0
 22 23  2  0  0  0  0
 23 24  1  0  0  0  0
 24 14  2  0  0  0  0
 25 31  1  0  0  0  0
 26 35  1  0  0  0  0
 26 27  1  0  0  0  0
 27 41  1  0  0  0  0
 28 27  2  0  0  0  0
 28 36  1  0  0  0  0
 29 28  1  0  0  0  0
 30 37  1  0  0  0  0
 30 29  1  0  0  0  0
 31 30  1  0  0  0  0
 32 31  2  0  0  0  0
 32 33  1  0  0  0  0
 33 34  1  0  0  0  0
 33 29  2  0  0  0  0
 34 26  2  0  0  0  0
 38 34  1  0  0  0  0
 39 44  1  0  0  0  0
 39 45  1  0  0  0  0
 40 39  2  0  0  0  0
 41 42  2  0  0  0  0
 41 40  1  0  0  0  0
 42 43  1  0  0  0  0
 43 47  1  0  0  0  0
 43 44  2  0  0  0  0
 46 40  1  0  0  0  0
M  END
>  <minimizedAffinity>
-6.58162498

>  <minimizedRMSD>
1.48680341

$$$$
