
 OpenBabel03272505283D

 33 36  0  0  0  0  0  0  0  0999 V2000
   37.3570   25.2060   32.3730 N   0  0  0  0  0  0  0  0  0  0  0  0
   38.3410   24.8250   33.2330 C   0  0  0  0  0  0  0  0  0  0  0  0
   38.5090   23.5030   33.6250 C   0  0  0  0  0  0  0  0  0  0  0  0
   37.6110   22.5600   33.0910 C   0  0  0  0  0  0  0  0  0  0  0  0
   37.7270   21.3570   33.4180 O   0  0  0  0  0  0  0  0  0  0  0  0
   36.6280   22.9470   32.2310 N   0  0  0  0  0  0  0  0  0  0  0  0
   36.5660   24.2480   31.9280 C   0  0  0  0  0  0  0  0  0  0  0  0
   35.6530   24.5630   31.1390 O   0  0  0  0  0  0  0  0  0  0  0  0
   39.0360   25.5570   33.6460 H   0  0  0  0  0  0  0  0  0  0  0  0
   39.5640   23.0910   34.5490 C   0  0  0  0  0  0  0  0  0  0  0  0
   40.8110   22.6100   34.1570 C   0  0  0  0  0  0  0  0  0  0  0  0
   40.9980   22.5420   33.0880 H   0  0  0  0  0  0  0  0  0  0  0  0
   41.7270   22.2520   35.1430 C   0  0  0  0  0  3  0  0  0  0  0  0
   41.4370   22.3600   36.4790 C   0  0  0  0  0  3  0  0  0  0  0  0
   40.1910   22.8400   36.8320 C   0  0  0  0  0  0  0  0  0  0  0  0
   39.8580   22.9630   38.1760 C   0  0  0  0  0  3  0  0  0  0  0  0
   38.6270   23.4380   38.5830 C   0  0  0  0  0  3  0  0  0  0  0  0
   37.6730   23.8110   37.6560 C   0  0  0  0  0  3  0  0  0  0  0  0
   38.0110   23.6850   36.3240 C   0  0  0  0  0  3  0  0  0  0  0  0
   39.2390   23.2120   35.9040 C   0  0  0  0  0  0  0  0  0  0  0  0
   36.3930   28.7920   32.3750 C   0  0  0  0  0  0  0  0  0  0  0  0
   36.5400   27.4530   32.7700 C   0  0  0  0  0  0  0  0  0  0  0  0
   37.1980   26.5410   31.9890 C   0  0  0  0  0  0  0  0  0  0  0  0
   37.7160   26.9710   30.7960 N   0  0  0  0  0  0  0  0  0  0  0  0
   37.5830   28.2700   30.3950 C   0  0  0  0  0  0  0  0  0  0  0  0
   36.9260   29.1780   31.1770 N   0  0  0  0  0  0  0  0  0  0  0  0
   35.9000   29.5570   32.9220 H   0  0  0  0  0  0  0  0  0  0  0  0
   36.0720   27.3000   33.7050 H   0  0  0  0  0  0  0  0  0  0  0  0
   37.9890   28.6160   29.4540 H   0  0  0  0  0  0  0  0  0  0  0  0
   35.7060   21.9700   31.6780 C   0  0  0  0  0  0  0  0  0  0  0  0
   36.3760   20.8390   31.3460 F   0  0  0  0  0  0  0  0  0  0  0  0
   35.0890   22.4180   30.5200 F   0  0  0  0  0  0  0  0  0  0  0  0
   34.7550   21.6540   32.6400 F   0  0  0  0  0  0  0  0  0  0  0  0
  1  2  1  0  0  0  0
  2  3  2  0  0  0  0
  2  9  1  0  0  0  0
  3 10  1  0  0  0  0
  4  5  2  0  0  0  0
  4  3  1  0  0  0  0
  6  4  1  0  0  0  0
  7  6  1  0  0  0  0
  7  1  1  0  0  0  0
  8  7  2  0  0  0  0
 10 20  1  0  0  0  0
 11 10  2  0  0  0  0
 11 13  1  0  0  0  0
 12 11  1  0  0  0  0
 13 14  2  0  0  0  0
 14 15  1  0  0  0  0
 15 16  1  0  0  0  0
 16 17  2  0  0  0  0
 18 17  1  0  0  0  0
 19 18  2  0  0  0  0
 20 19  1  0  0  0  0
 20 15  2  0  0  0  0
 21 22  1  0  0  0  0
 21 27  1  0  0  0  0
 22 28  1  0  0  0  0
 23  1  1  0  0  0  0
 23 22  2  0  0  0  0
 24 23  1  0  0  0  0
 25 24  2  0  0  0  0
 25 26  1  0  0  0  0
 26 21  2  0  0  0  0
 29 25  1  0  0  0  0
 30  6  1  0  0  0  0
 30 33  1  0  0  0  0
 31 30  1  0  0  0  0
 32 30  1  0  0  0  0
M  END
>  <minimizedAffinity>
-6.75133896

$$$$

 OpenBabel03272505283D

 33 36  0  0  0  0  0  0  0  0999 V2000
   38.1540   24.0590   34.8250 N   0  0  0  0  0  0  0  0  0  0  0  0
   38.2380   23.0780   33.8850 C   0  0  0  0  0  0  0  0  0  0  0  0
   37.9310   23.3070   32.5490 C   0  0  0  0  0  0  0  0  0  0  0  0
   37.5270   24.6090   32.2020 C   0  0  0  0  0  0  0  0  0  0  0  0
   37.2410   24.8590   31.0080 O   0  0  0  0  0  0  0  0  0  0  0  0
   37.4450   25.5860   33.1470 N   0  0  0  0  0  0  0  0  0  0  0  0
   37.7650   25.2450   34.4000 C   0  0  0  0  0  0  0  0  0  0  0  0
   37.6760   26.1670   35.2360 O   0  0  0  0  0  0  0  0  0  0  0  0
   38.5520   22.0700   34.1560 H   0  0  0  0  0  0  0  0  0  0  0  0
   38.0190   22.2560   31.5380 C   0  0  0  0  0  0  0  0  0  0  0  0
   38.9980   22.1950   30.5480 C   0  0  0  0  0  0  0  0  0  0  0  0
   39.7400   22.9910   30.5390 H   0  0  0  0  0  0  0  0  0  0  0  0
   38.9660   21.1360   29.6430 C   0  0  0  0  0  3  0  0  0  0  0  0
   38.0060   20.1590   29.7010 C   0  0  0  0  0  3  0  0  0  0  0  0
   37.0500   20.2510   30.6950 C   0  0  0  0  0  0  0  0  0  0  0  0
   36.0590   19.2810   30.7870 C   0  0  0  0  0  3  0  0  0  0  0  0
   35.0820   19.3250   31.7610 C   0  0  0  0  0  3  0  0  0  0  0  0
   35.0560   20.3480   32.6890 C   0  0  0  0  0  3  0  0  0  0  0  0
   36.0430   21.3070   32.5900 C   0  0  0  0  0  3  0  0  0  0  0  0
   37.0270   21.2750   31.6210 C   0  0  0  0  0  0  0  0  0  0  0  0
   39.9510   23.0210   37.9050 C   0  0  0  0  0  0  0  0  0  0  0  0
   39.6520   23.2560   36.5540 C   0  0  0  0  0  0  0  0  0  0  0  0
   38.4630   23.8130   36.1670 C   0  0  0  0  0  0  0  0  0  0  0  0
   37.5580   24.1400   37.1430 N   0  0  0  0  0  0  0  0  0  0  0  0
   37.8310   23.9190   38.4630 C   0  0  0  0  0  0  0  0  0  0  0  0
   39.0190   23.3630   38.8450 N   0  0  0  0  0  0  0  0  0  0  0  0
   40.8460   22.5960   38.2850 H   0  0  0  0  0  0  0  0  0  0  0  0
   40.4540   22.9340   35.9470 H   0  0  0  0  0  0  0  0  0  0  0  0
   37.1210   24.1750   39.2380 H   0  0  0  0  0  0  0  0  0  0  0  0
   37.0310   26.9310   32.7830 C   0  0  0  0  0  0  0  0  0  0  0  0
   36.6620   27.6160   33.8930 F   0  0  0  0  0  0  0  0  0  0  0  0
   35.9380   26.9390   31.9310 F   0  0  0  0  0  0  0  0  0  0  0  0
   38.1050   27.5880   32.1950 F   0  0  0  0  0  0  0  0  0  0  0  0
  1 23  1  0  0  0  0
  2  9  1  0  0  0  0
  2  1  1  0  0  0  0
  3  2  2  0  0  0  0
  4  3  1  0  0  0  0
  4  6  1  0  0  0  0
  5  4  2  0  0  0  0
  6  7  1  0  0  0  0
  7  1  1  0  0  0  0
  7  8  2  0  0  0  0
 10 20  1  0  0  0  0
 10  3  1  0  0  0  0
 11 10  2  0  0  0  0
 12 11  1  0  0  0  0
 13 14  2  0  0  0  0
 13 11  1  0  0  0  0
 14 15  1  0  0  0  0
 15 16  2  0  0  0  0
 15 20  1  0  0  0  0
 16 17  1  0  0  0  0
 17 18  2  0  0  0  0
 19 18  1  0  0  0  0
 20 19  2  0  0  0  0
 21 27  1  0  0  0  0
 21 26  1  0  0  0  0
 22 21  2  0  0  0  0
 23 22  1  0  0  0  0
 23 24  2  0  0  0  0
 24 25  1  0  0  0  0
 25 26  2  0  0  0  0
 25 29  1  0  0  0  0
 28 22  1  0  0  0  0
 30  6  1  0  0  0  0
 30 31  1  0  0  0  0
 32 30  1  0  0  0  0
 33 30  1  0  0  0  0
M  END
>  <minimizedAffinity>
-6.62835741

$$$$

 OpenBabel03272505283D

 33 36  0  0  0  0  0  0  0  0999 V2000
   37.4470   27.6640   32.8380 N   0  0  0  0  0  0  0  0  0  0  0  0
   36.3010   28.0900   33.4340 C   0  0  0  0  0  0  0  0  0  0  0  0
   35.4640   29.0280   32.8410 C   0  0  0  0  0  0  0  0  0  0  0  0
   35.8540   29.5250   31.5840 C   0  0  0  0  0  0  0  0  0  0  0  0
   35.1280   30.3720   31.0140 O   0  0  0  0  0  0  0  0  0  0  0  0
   37.0030   29.0950   30.9920 N   0  0  0  0  0  0  0  0  0  0  0  0
   37.7260   28.1900   31.6610 C   0  0  0  0  0  0  0  0  0  0  0  0
   38.7710   27.8220   31.0870 O   0  0  0  0  0  0  0  0  0  0  0  0
   36.0000   27.7040   34.4080 H   0  0  0  0  0  0  0  0  0  0  0  0
   34.2330   29.4880   33.4790 C   0  0  0  0  0  0  0  0  0  0  0  0
   32.9500   29.1320   33.0660 C   0  0  0  0  0  0  0  0  0  0  0  0
   32.8770   28.4650   32.2100 H   0  0  0  0  0  0  0  0  0  0  0  0
   31.8590   29.6430   33.7640 C   0  0  0  0  0  3  0  0  0  0  0  0
   32.0110   30.4810   34.8390 C   0  0  0  0  0  3  0  0  0  0  0  0
   33.2960   30.8150   35.2210 C   0  0  0  0  0  0  0  0  0  0  0  0
   33.4930   31.6620   36.3040 C   0  0  0  0  0  3  0  0  0  0  0  0
   34.7560   32.0260   36.7280 C   0  0  0  0  0  3  0  0  0  0  0  0
   35.8810   31.5540   36.0790 C   0  0  0  0  0  3  0  0  0  0  0  0
   35.6770   30.7140   35.0040 C   0  0  0  0  0  3  0  0  0  0  0  0
   34.4190   30.3410   34.5710 C   0  0  0  0  0  0  0  0  0  0  0  0
   40.1600   26.1280   34.8560 C   0  0  0  0  0  0  0  0  0  0  0  0
   39.3350   27.0840   34.2450 C   0  0  0  0  0  0  0  0  0  0  0  0
   38.2820   26.7210   33.4480 C   0  0  0  0  0  0  0  0  0  0  0  0
   38.0500   25.3840   33.2580 N   0  0  0  0  0  0  0  0  0  0  0  0
   38.8420   24.4390   33.8450 C   0  0  0  0  0  0  0  0  0  0  0  0
   39.8920   24.8050   34.6400 N   0  0  0  0  0  0  0  0  0  0  0  0
   40.9910   26.3260   35.4860 H   0  0  0  0  0  0  0  0  0  0  0  0
   39.6660   28.0560   34.4920 H   0  0  0  0  0  0  0  0  0  0  0  0
   38.6650   23.3820   33.6980 H   0  0  0  0  0  0  0  0  0  0  0  0
   37.3990   29.6070   29.6920 C   0  0  0  0  0  0  0  0  0  0  0  0
   38.7350   29.8320   29.6720 F   0  0  0  0  0  0  0  0  0  0  0  0
   36.7900   30.8140   29.3870 F   0  0  0  0  0  0  0  0  0  0  0  0
   37.0970   28.6580   28.7230 F   0  0  0  0  0  0  0  0  0  0  0  0
  1  2  1  0  0  0  0
  1 23  1  0  0  0  0
  2  9  1  0  0  0  0
  3  2  2  0  0  0  0
  3 10  1  0  0  0  0
  4  3  1  0  0  0  0
  5  4  2  0  0  0  0
  6  4  1  0  0  0  0
  6  7  1  0  0  0  0
  7  1  1  0  0  0  0
  8  7  2  0  0  0  0
 10 20  1  0  0  0  0
 11 10  2  0  0  0  0
 11 13  1  0  0  0  0
 12 11  1  0  0  0  0
 13 14  2  0  0  0  0
 14 15  1  0  0  0  0
 15 16  1  0  0  0  0
 16 17  2  0  0  0  0
 18 17  1  0  0  0  0
 19 18  2  0  0  0  0
 20 19  1  0  0  0  0
 20 15  2  0  0  0  0
 21 27  1  0  0  0  0
 22 28  1  0  0  0  0
 22 21  2  0  0  0  0
 23 22  1  0  0  0  0
 24 23  2  0  0  0  0
 24 25  1  0  0  0  0
 25 26  2  0  0  0  0
 26 21  1  0  0  0  0
 29 25  1  0  0  0  0
 30  6  1  0  0  0  0
 31 30  1  0  0  0  0
 32 30  1  0  0  0  0
 33 30  1  0  0  0  0
M  END
>  <minimizedAffinity>
-6.53257084

$$$$

 OpenBabel03272505283D

 33 36  0  0  0  0  0  0  0  0999 V2000
   38.0070   24.8630   32.3330 N   0  0  0  0  0  0  0  0  0  0  0  0
   38.3790   24.7290   33.6360 C   0  0  0  0  0  0  0  0  0  0  0  0
   38.0450   23.6090   34.3880 C   0  0  0  0  0  0  0  0  0  0  0  0
   37.2990   22.6060   33.7420 C   0  0  0  0  0  0  0  0  0  0  0  0
   36.9770   21.5800   34.3840 O   0  0  0  0  0  0  0  0  0  0  0  0
   36.9290   22.7450   32.4390 N   0  0  0  0  0  0  0  0  0  0  0  0
   37.3090   23.8680   31.8190 C   0  0  0  0  0  0  0  0  0  0  0  0
   36.9500   23.9600   30.6280 O   0  0  0  0  0  0  0  0  0  0  0  0
   38.9570   25.5070   34.1340 H   0  0  0  0  0  0  0  0  0  0  0  0
   38.4430   23.4630   35.7870 C   0  0  0  0  0  0  0  0  0  0  0  0
   37.7000   23.9290   36.8700 C   0  0  0  0  0  0  0  0  0  0  0  0
   36.7640   24.4350   36.6440 H   0  0  0  0  0  0  0  0  0  0  0  0
   38.1950   23.7230   38.1550 C   0  0  0  0  0  3  0  0  0  0  0  0
   39.3840   23.0770   38.3820 C   0  0  0  0  0  3  0  0  0  0  0  0
   40.0950   22.6290   37.2860 C   0  0  0  0  0  0  0  0  0  0  0  0
   41.3040   21.9710   37.4720 C   0  0  0  0  0  3  0  0  0  0  0  0
   42.0530   21.5020   36.4120 C   0  0  0  0  0  3  0  0  0  0  0  0
   41.6190   21.6740   35.1120 C   0  0  0  0  0  3  0  0  0  0  0  0
   40.4170   22.3290   34.9340 C   0  0  0  0  0  3  0  0  0  0  0  0
   39.6580   22.8020   35.9870 C   0  0  0  0  0  0  0  0  0  0  0  0
   37.9380   28.2650   30.8480 C   0  0  0  0  0  0  0  0  0  0  0  0
   37.5820   27.1320   31.5950 C   0  0  0  0  0  0  0  0  0  0  0  0
   38.3470   25.9970   31.5890 C   0  0  0  0  0  0  0  0  0  0  0  0
   39.4840   25.9920   30.8240 N   0  0  0  0  0  0  0  0  0  0  0  0
   39.8470   27.0850   30.0910 C   0  0  0  0  0  0  0  0  0  0  0  0
   39.0810   28.2170   30.1000 N   0  0  0  0  0  0  0  0  0  0  0  0
   37.4020   29.1800   30.8010 H   0  0  0  0  0  0  0  0  0  0  0  0
   36.6760   27.3110   32.1100 H   0  0  0  0  0  0  0  0  0  0  0  0
   40.7430   27.0880   29.4860 H   0  0  0  0  0  0  0  0  0  0  0  0
   36.1630   21.7050   31.7750 C   0  0  0  0  0  0  0  0  0  0  0  0
   35.3900   22.2500   30.8030 F   0  0  0  0  0  0  0  0  0  0  0  0
   35.3040   21.0430   32.6390 F   0  0  0  0  0  0  0  0  0  0  0  0
   37.0420   20.8050   31.1860 F   0  0  0  0  0  0  0  0  0  0  0  0
  1  2  1  0  0  0  0
  2  9  1  0  0  0  0
  2  3  2  0  0  0  0
  3 10  1  0  0  0  0
  4  5  2  0  0  0  0
  4  3  1  0  0  0  0
  6  4  1  0  0  0  0
  7  1  1  0  0  0  0
  7  6  1  0  0  0  0
  8  7  2  0  0  0  0
 10 20  2  0  0  0  0
 10 11  1  0  0  0  0
 11 13  2  0  0  0  0
 12 11  1  0  0  0  0
 13 14  1  0  0  0  0
 15 16  1  0  0  0  0
 15 14  2  0  0  0  0
 17 16  2  0  0  0  0
 18 17  1  0  0  0  0
 19 18  2  0  0  0  0
 19 20  1  0  0  0  0
 20 15  1  0  0  0  0
 21 22  1  0  0  0  0
 22 28  1  0  0  0  0
 23 22  2  0  0  0  0
 23  1  1  0  0  0  0
 24 23  1  0  0  0  0
 25 26  1  0  0  0  0
 25 24  2  0  0  0  0
 26 21  2  0  0  0  0
 27 21  1  0  0  0  0
 29 25  1  0  0  0  0
 30  6  1  0  0  0  0
 30 32  1  0  0  0  0
 31 30  1  0  0  0  0
 33 30  1  0  0  0  0
M  END
>  <minimizedAffinity>
-6.51402664

$$$$

 OpenBabel03272505283D

 33 36  0  0  0  0  0  0  0  0999 V2000
   36.2560   28.2020   32.3120 N   0  0  0  0  0  0  0  0  0  0  0  0
   35.7550   28.7550   33.4500 C   0  0  0  0  0  0  0  0  0  0  0  0
   35.5270   30.1210   33.5700 C   0  0  0  0  0  0  0  0  0  0  0  0
   35.8400   30.9200   32.4540 C   0  0  0  0  0  0  0  0  0  0  0  0
   35.6500   32.1560   32.5200 O   0  0  0  0  0  0  0  0  0  0  0  0
   36.3420   30.3610   31.3180 N   0  0  0  0  0  0  0  0  0  0  0  0
   36.5170   29.0350   31.3230 C   0  0  0  0  0  0  0  0  0  0  0  0
   36.9800   28.5600   30.2660 O   0  0  0  0  0  0  0  0  0  0  0  0
   35.5130   28.1350   34.3130 H   0  0  0  0  0  0  0  0  0  0  0  0
   34.9900   30.7180   34.7900 C   0  0  0  0  0  0  0  0  0  0  0  0
   35.7400   31.4550   35.7040 C   0  0  0  0  0  0  0  0  0  0  0  0
   36.7960   31.5870   35.4810 H   0  0  0  0  0  0  0  0  0  0  0  0
   35.1020   31.9700   36.8300 C   0  0  0  0  0  3  0  0  0  0  0  0
   33.7640   31.7730   37.0610 C   0  0  0  0  0  3  0  0  0  0  0  0
   33.0500   31.0370   36.1350 C   0  0  0  0  0  0  0  0  0  0  0  0
   31.6930   30.8130   36.3340 C   0  0  0  0  0  3  0  0  0  0  0  0
   30.9340   30.0860   35.4400 C   0  0  0  0  0  3  0  0  0  0  0  0
   31.5060   29.5480   34.3030 C   0  0  0  0  0  3  0  0  0  0  0  0
   32.8540   29.7730   34.1140 C   0  0  0  0  0  3  0  0  0  0  0  0
   33.6240   30.5000   35.0000 C   0  0  0  0  0  0  0  0  0  0  0  0
   37.7580   24.8290   32.7020 C   0  0  0  0  0  0  0  0  0  0  0  0
   37.5470   26.2120   32.8110 C   0  0  0  0  0  0  0  0  0  0  0  0
   36.4830   26.8260   32.2070 C   0  0  0  0  0  0  0  0  0  0  0  0
   35.6180   26.0490   31.4820 N   0  0  0  0  0  0  0  0  0  0  0  0
   35.8080   24.7010   31.3650 C   0  0  0  0  0  0  0  0  0  0  0  0
   36.8700   24.0920   31.9700 N   0  0  0  0  0  0  0  0  0  0  0  0
   38.5550   24.2790   33.1400 H   0  0  0  0  0  0  0  0  0  0  0  0
   38.3130   26.6480   33.3930 H   0  0  0  0  0  0  0  0  0  0  0  0
   35.1290   24.0820   30.7940 H   0  0  0  0  0  0  0  0  0  0  0  0
   36.6580   31.1880   30.1670 C   0  0  0  0  0  0  0  0  0  0  0  0
   35.6290   32.0310   29.9070 F   0  0  0  0  0  0  0  0  0  0  0  0
   36.8600   30.4420   29.0160 F   0  0  0  0  0  0  0  0  0  0  0  0
   37.7870   31.9450   30.4540 F   0  0  0  0  0  0  0  0  0  0  0  0
  1  2  1  0  0  0  0
  2  3  2  0  0  0  0
  2  9  1  0  0  0  0
  3 10  1  0  0  0  0
  4  5  2  0  0  0  0
  4  3  1  0  0  0  0
  6  7  1  0  0  0  0
  6  4  1  0  0  0  0
  7  1  1  0  0  0  0
  8  7  2  0  0  0  0
 10 20  2  0  0  0  0
 10 11  1  0  0  0  0
 11 13  2  0  0  0  0
 12 11  1  0  0  0  0
 13 14  1  0  0  0  0
 15 16  1  0  0  0  0
 15 14  2  0  0  0  0
 17 16  2  0  0  0  0
 18 17  1  0  0  0  0
 19 18  2  0  0  0  0
 19 20  1  0  0  0  0
 20 15  1  0  0  0  0
 21 22  1  0  0  0  0
 21 27  1  0  0  0  0
 22 28  1  0  0  0  0
 23  1  1  0  0  0  0
 23 22  2  0  0  0  0
 24 23  1  0  0  0  0
 25 24  2  0  0  0  0
 25 26  1  0  0  0  0
 26 21  2  0  0  0  0
 29 25  1  0  0  0  0
 30 33  1  0  0  0  0
 30  6  1  0  0  0  0
 31 30  1  0  0  0  0
 32 30  1  0  0  0  0
M  END
>  <minimizedAffinity>
-6.45734787

$$$$

 OpenBabel03272505283D

 33 36  0  0  0  0  0  0  0  0999 V2000
   37.8650   24.6760   32.3680 N   0  0  0  0  0  0  0  0  0  0  0  0
   38.2710   24.5890   33.6640 C   0  0  0  0  0  0  0  0  0  0  0  0
   37.9600   23.4960   34.4640 C   0  0  0  0  0  0  0  0  0  0  0  0
   37.2000   22.4690   33.8730 C   0  0  0  0  0  0  0  0  0  0  0  0
   36.8970   21.4650   34.5590 O   0  0  0  0  0  0  0  0  0  0  0  0
   36.7960   22.5620   32.5760 N   0  0  0  0  0  0  0  0  0  0  0  0
   37.1560   23.6630   31.9070 C   0  0  0  0  0  0  0  0  0  0  0  0
   36.7670   23.7110   30.7230 O   0  0  0  0  0  0  0  0  0  0  0  0
   38.8600   25.3850   34.1190 H   0  0  0  0  0  0  0  0  0  0  0  0
   38.3940   23.4000   35.8560 C   0  0  0  0  0  0  0  0  0  0  0  0
   37.6640   23.8740   36.9430 C   0  0  0  0  0  0  0  0  0  0  0  0
   36.7080   24.3460   36.7270 H   0  0  0  0  0  0  0  0  0  0  0  0
   38.1940   23.7180   38.2220 C   0  0  0  0  0  3  0  0  0  0  0  0
   39.4060   23.1130   38.4370 C   0  0  0  0  0  3  0  0  0  0  0  0
   40.1040   22.6550   37.3360 C   0  0  0  0  0  0  0  0  0  0  0  0
   41.3360   22.0370   37.5120 C   0  0  0  0  0  3  0  0  0  0  0  0
   42.0730   21.5600   36.4460 C   0  0  0  0  0  3  0  0  0  0  0  0
   41.6040   21.6840   35.1530 C   0  0  0  0  0  3  0  0  0  0  0  0
   40.3810   22.2990   34.9870 C   0  0  0  0  0  3  0  0  0  0  0  0
   39.6330   22.7790   36.0440 C   0  0  0  0  0  0  0  0  0  0  0  0
   39.6530   26.9800   30.0690 C   0  0  0  0  0  0  0  0  0  0  0  0
   39.3500   25.8650   30.8660 C   0  0  0  0  0  0  0  0  0  0  0  0
   38.1820   25.7840   31.5750 C   0  0  0  0  0  0  0  0  0  0  0  0
   37.3030   26.8320   31.4890 N   0  0  0  0  0  0  0  0  0  0  0  0
   37.5810   27.9250   30.7190 C   0  0  0  0  0  0  0  0  0  0  0  0
   38.7470   28.0020   30.0120 N   0  0  0  0  0  0  0  0  0  0  0  0
   40.5330   27.1180   29.4910 H   0  0  0  0  0  0  0  0  0  0  0  0
   40.1420   25.1650   30.8220 H   0  0  0  0  0  0  0  0  0  0  0  0
   36.8920   28.7550   30.6460 H   0  0  0  0  0  0  0  0  0  0  0  0
   36.0160   21.4980   31.9690 C   0  0  0  0  0  0  0  0  0  0  0  0
   36.6800   20.3210   32.0720 F   0  0  0  0  0  0  0  0  0  0  0  0
   35.7910   21.7080   30.6170 F   0  0  0  0  0  0  0  0  0  0  0  0
   34.8080   21.3830   32.6450 F   0  0  0  0  0  0  0  0  0  0  0  0
  1  2  1  0  0  0  0
  2  9  1  0  0  0  0
  2  3  2  0  0  0  0
  3 10  1  0  0  0  0
  4  3  1  0  0  0  0
  4  5  2  0  0  0  0
  6  4  1  0  0  0  0
  7  1  1  0  0  0  0
  7  6  1  0  0  0  0
  8  7  2  0  0  0  0
 10 20  2  0  0  0  0
 10 11  1  0  0  0  0
 11 13  2  0  0  0  0
 12 11  1  0  0  0  0
 13 14  1  0  0  0  0
 15 16  1  0  0  0  0
 15 14  2  0  0  0  0
 17 16  2  0  0  0  0
 18 17  1  0  0  0  0
 19 18  2  0  0  0  0
 19 20  1  0  0  0  0
 20 15  1  0  0  0  0
 21 22  1  0  0  0  0
 22 23  2  0  0  0  0
 23  1  1  0  0  0  0
 24 23  1  0  0  0  0
 25 24  2  0  0  0  0
 26 21  2  0  0  0  0
 26 25  1  0  0  0  0
 27 21  1  0  0  0  0
 28 22  1  0  0  0  0
 29 25  1  0  0  0  0
 30 31  1  0  0  0  0
 30  6  1  0  0  0  0
 30 33  1  0  0  0  0
 32 30  1  0  0  0  0
M  END
>  <minimizedAffinity>
-6.44269562

$$$$

 OpenBabel03272505283D

 33 36  0  0  0  0  0  0  0  0999 V2000
   38.1910   23.6090   34.4830 N   0  0  0  0  0  0  0  0  0  0  0  0
   38.5980   24.6700   33.7340 C   0  0  0  0  0  0  0  0  0  0  0  0
   38.2830   24.7850   32.3850 C   0  0  0  0  0  0  0  0  0  0  0  0
   37.5180   23.7490   31.8180 C   0  0  0  0  0  0  0  0  0  0  0  0
   37.2120   23.8120   30.6050 O   0  0  0  0  0  0  0  0  0  0  0  0
   37.1140   22.6900   32.5730 N   0  0  0  0  0  0  0  0  0  0  0  0
   37.4790   22.6900   33.8600 C   0  0  0  0  0  0  0  0  0  0  0  0
   37.0910   21.7040   34.5180 O   0  0  0  0  0  0  0  0  0  0  0  0
   39.1900   25.4710   34.1740 H   0  0  0  0  0  0  0  0  0  0  0  0
   38.7190   25.9210   31.5760 C   0  0  0  0  0  0  0  0  0  0  0  0
   39.9200   25.9730   30.8710 C   0  0  0  0  0  0  0  0  0  0  0  0
   40.5660   25.1010   30.9360 H   0  0  0  0  0  0  0  0  0  0  0  0
   40.2130   27.1200   30.1380 C   0  0  0  0  0  3  0  0  0  0  0  0
   39.3580   28.1920   30.0910 C   0  0  0  0  0  3  0  0  0  0  0  0
   38.1770   28.1070   30.8030 C   0  0  0  0  0  0  0  0  0  0  0  0
   37.2850   29.1720   30.7820 C   0  0  0  0  0  3  0  0  0  0  0  0
   36.0910   29.1390   31.4740 C   0  0  0  0  0  3  0  0  0  0  0  0
   35.7390   28.0310   32.2210 C   0  0  0  0  0  3  0  0  0  0  0  0
   36.6310   26.9780   32.2370 C   0  0  0  0  0  3  0  0  0  0  0  0
   37.8280   26.9990   31.5480 C   0  0  0  0  0  0  0  0  0  0  0  0
   38.0670   23.9220   38.1820 C   0  0  0  0  0  0  0  0  0  0  0  0
   37.7310   24.0400   36.8240 C   0  0  0  0  0  0  0  0  0  0  0  0
   38.5170   23.5050   35.8400 C   0  0  0  0  0  0  0  0  0  0  0  0
   39.6580   22.8440   36.2150 N   0  0  0  0  0  0  0  0  0  0  0  0
   40.0010   22.7190   37.5310 C   0  0  0  0  0  0  0  0  0  0  0  0
   39.2130   23.2540   38.5110 N   0  0  0  0  0  0  0  0  0  0  0  0
   37.5120   24.3060   39.0010 H   0  0  0  0  0  0  0  0  0  0  0  0
   36.8320   24.5860   36.7220 H   0  0  0  0  0  0  0  0  0  0  0  0
   40.9000   22.1990   37.8340 H   0  0  0  0  0  0  0  0  0  0  0  0
   36.3200   21.6250   31.9860 C   0  0  0  0  0  0  0  0  0  0  0  0
   35.7400   22.0590   30.8400 F   0  0  0  0  0  0  0  0  0  0  0  0
   35.2910   21.2090   32.8160 F   0  0  0  0  0  0  0  0  0  0  0  0
   37.1540   20.5570   31.6800 F   0  0  0  0  0  0  0  0  0  0  0  0
  1 23  1  0  0  0  0
  2  9  1  0  0  0  0
  2  1  1  0  0  0  0
  3  2  2  0  0  0  0
  4  3  1  0  0  0  0
  4  6  1  0  0  0  0
  5  4  2  0  0  0  0
  6  7  1  0  0  0  0
  7  1  1  0  0  0  0
  7  8  2  0  0  0  0
 10  3  1  0  0  0  0
 11 12  1  0  0  0  0
 11 10  2  0  0  0  0
 13 11  1  0  0  0  0
 14 13  2  0  0  0  0
 14 15  1  0  0  0  0
 15 20  1  0  0  0  0
 16 15  2  0  0  0  0
 16 17  1  0  0  0  0
 17 18  2  0  0  0  0
 18 19  1  0  0  0  0
 20 10  1  0  0  0  0
 20 19  2  0  0  0  0
 21 26  1  0  0  0  0
 21 27  1  0  0  0  0
 22 21  2  0  0  0  0
 23 24  2  0  0  0  0
 23 22  1  0  0  0  0
 24 25  1  0  0  0  0
 25 29  1  0  0  0  0
 25 26  2  0  0  0  0
 28 22  1  0  0  0  0
 30  6  1  0  0  0  0
 30 32  1  0  0  0  0
 31 30  1  0  0  0  0
 33 30  1  0  0  0  0
M  END
>  <minimizedAffinity>
-6.4240737

$$$$

 OpenBabel03272505283D

 33 36  0  0  0  0  0  0  0  0999 V2000
   37.3870   22.9040   32.4310 N   0  0  0  0  0  0  0  0  0  0  0  0
   37.7260   22.7400   33.7390 C   0  0  0  0  0  0  0  0  0  0  0  0
   38.0070   23.8170   34.5700 C   0  0  0  0  0  0  0  0  0  0  0  0
   37.9260   25.1010   34.0000 C   0  0  0  0  0  0  0  0  0  0  0  0
   38.1710   26.1010   34.7140 O   0  0  0  0  0  0  0  0  0  0  0  0
   37.5860   25.2600   32.6910 N   0  0  0  0  0  0  0  0  0  0  0  0
   37.3380   24.1470   31.9910 C   0  0  0  0  0  0  0  0  0  0  0  0
   37.0320   24.3330   30.7960 O   0  0  0  0  0  0  0  0  0  0  0  0
   37.7880   21.7450   34.1790 H   0  0  0  0  0  0  0  0  0  0  0  0
   38.3720   23.6450   35.9750 C   0  0  0  0  0  0  0  0  0  0  0  0
   37.6070   24.0940   37.0490 C   0  0  0  0  0  0  0  0  0  0  0  0
   36.6780   24.6070   36.8110 H   0  0  0  0  0  0  0  0  0  0  0  0
   38.0720   23.8630   38.3410 C   0  0  0  0  0  3  0  0  0  0  0  0
   39.2540   23.2100   38.5830 C   0  0  0  0  0  3  0  0  0  0  0  0
   39.9870   22.7780   37.4950 C   0  0  0  0  0  0  0  0  0  0  0  0
   41.1900   22.1130   37.6970 C   0  0  0  0  0  3  0  0  0  0  0  0
   41.9610   21.6600   36.6460 C   0  0  0  0  0  3  0  0  0  0  0  0
   41.5570   21.8570   35.3390 C   0  0  0  0  0  3  0  0  0  0  0  0
   40.3620   22.5190   35.1470 C   0  0  0  0  0  3  0  0  0  0  0  0
   39.5810   22.9760   36.1900 C   0  0  0  0  0  0  0  0  0  0  0  0
   37.7780   20.1180   30.0070 C   0  0  0  0  0  0  0  0  0  0  0  0
   38.0690   21.2200   30.8270 C   0  0  0  0  0  0  0  0  0  0  0  0
   37.1090   21.8100   31.6050 C   0  0  0  0  0  0  0  0  0  0  0  0
   35.8400   21.2950   31.5640 N   0  0  0  0  0  0  0  0  0  0  0  0
   35.5390   20.2230   30.7730 C   0  0  0  0  0  0  0  0  0  0  0  0
   36.4990   19.6360   29.9980 N   0  0  0  0  0  0  0  0  0  0  0  0
   38.4620   19.6060   29.3780 H   0  0  0  0  0  0  0  0  0  0  0  0
   39.0860   21.4870   30.7230 H   0  0  0  0  0  0  0  0  0  0  0  0
   34.5390   19.8110   30.7350 H   0  0  0  0  0  0  0  0  0  0  0  0
   37.4980   26.5870   32.1070 C   0  0  0  0  0  0  0  0  0  0  0  0
   36.6170   27.3420   32.8070 F   0  0  0  0  0  0  0  0  0  0  0  0
   37.0450   26.5630   30.7970 F   0  0  0  0  0  0  0  0  0  0  0  0
   38.7470   27.1910   32.1730 F   0  0  0  0  0  0  0  0  0  0  0  0
  1  2  1  0  0  0  0
  2  9  1  0  0  0  0
  2  3  2  0  0  0  0
  3 10  1  0  0  0  0
  4  3  1  0  0  0  0
  4  5  2  0  0  0  0
  6  4  1  0  0  0  0
  7  1  1  0  0  0  0
  7  6  1  0  0  0  0
  8  7  2  0  0  0  0
 10 20  2  0  0  0  0
 10 11  1  0  0  0  0
 11 13  2  0  0  0  0
 12 11  1  0  0  0  0
 13 14  1  0  0  0  0
 15 16  1  0  0  0  0
 15 14  2  0  0  0  0
 17 16  2  0  0  0  0
 18 17  1  0  0  0  0
 19 18  2  0  0  0  0
 19 20  1  0  0  0  0
 20 15  1  0  0  0  0
 21 22  1  0  0  0  0
 22 23  2  0  0  0  0
 23  1  1  0  0  0  0
 24 23  1  0  0  0  0
 25 24  2  0  0  0  0
 26 21  2  0  0  0  0
 26 25  1  0  0  0  0
 27 21  1  0  0  0  0
 28 22  1  0  0  0  0
 29 25  1  0  0  0  0
 30 33  1  0  0  0  0
 30  6  1  0  0  0  0
 30 31  1  0  0  0  0
 32 30  1  0  0  0  0
M  END
>  <minimizedAffinity>
-6.39991379

$$$$

 OpenBabel03272505283D

 33 36  0  0  0  0  0  0  0  0999 V2000
   37.8030   25.1990   33.1510 N   0  0  0  0  0  0  0  0  0  0  0  0
   37.9680   23.9640   32.6020 C   0  0  0  0  0  0  0  0  0  0  0  0
   38.2130   22.8380   33.3780 C   0  0  0  0  0  0  0  0  0  0  0  0
   38.2840   23.0260   34.7710 C   0  0  0  0  0  0  0  0  0  0  0  0
   38.5040   22.0360   35.5070 O   0  0  0  0  0  0  0  0  0  0  0  0
   38.1190   24.2630   35.3140 N   0  0  0  0  0  0  0  0  0  0  0  0
   37.8890   25.2710   34.4660 C   0  0  0  0  0  0  0  0  0  0  0  0
   37.7440   26.3890   35.0010 O   0  0  0  0  0  0  0  0  0  0  0  0
   37.9110   23.8210   31.5240 H   0  0  0  0  0  0  0  0  0  0  0  0
   38.3900   21.5110   32.7920 C   0  0  0  0  0  0  0  0  0  0  0  0
   39.6270   20.9280   32.5220 C   0  0  0  0  0  0  0  0  0  0  0  0
   40.5110   21.5110   32.7690 H   0  0  0  0  0  0  0  0  0  0  0  0
   39.6540   19.6530   31.9610 C   0  0  0  0  0  3  0  0  0  0  0  0
   38.5060   18.9620   31.6700 C   0  0  0  0  0  3  0  0  0  0  0  0
   37.2980   19.5700   31.9490 C   0  0  0  0  0  0  0  0  0  0  0  0
   36.1110   18.9040   31.6680 C   0  0  0  0  0  3  0  0  0  0  0  0
   34.8780   19.4650   31.9290 C   0  0  0  0  0  3  0  0  0  0  0  0
   34.7800   20.7260   32.4850 C   0  0  0  0  0  3  0  0  0  0  0  0
   35.9620   21.3820   32.7600 C   0  0  0  0  0  3  0  0  0  0  0  0
   37.2030   20.8310   32.5050 C   0  0  0  0  0  0  0  0  0  0  0  0
   38.3050   28.1200   30.9150 C   0  0  0  0  0  0  0  0  0  0  0  0
   38.5640   26.9950   31.7130 C   0  0  0  0  0  0  0  0  0  0  0  0
   37.5600   26.3250   32.3580 C   0  0  0  0  0  0  0  0  0  0  0  0
   36.2780   26.7840   32.2050 N   0  0  0  0  0  0  0  0  0  0  0  0
   36.0070   27.8770   31.4330 C   0  0  0  0  0  0  0  0  0  0  0  0
   37.0120   28.5440   30.7900 N   0  0  0  0  0  0  0  0  0  0  0  0
   39.0250   28.6920   30.3830 H   0  0  0  0  0  0  0  0  0  0  0  0
   39.6020   26.7940   31.7240 H   0  0  0  0  0  0  0  0  0  0  0  0
   34.9970   28.2450   31.3080 H   0  0  0  0  0  0  0  0  0  0  0  0
   38.1890   24.4520   36.7530 C   0  0  0  0  0  0  0  0  0  0  0  0
   37.0760   23.9490   37.3400 F   0  0  0  0  0  0  0  0  0  0  0  0
   38.2540   25.7900   37.1110 F   0  0  0  0  0  0  0  0  0  0  0  0
   39.2940   23.7680   37.2440 F   0  0  0  0  0  0  0  0  0  0  0  0
  1  7  1  0  0  0  0
  2  1  1  0  0  0  0
  2  3  2  0  0  0  0
  3  4  1  0  0  0  0
  4  6  1  0  0  0  0
  4  5  2  0  0  0  0
  6 30  1  0  0  0  0
  7  8  2  0  0  0  0
  7  6  1  0  0  0  0
  9  2  1  0  0  0  0
 10  3  1  0  0  0  0
 11 12  1  0  0  0  0
 11 10  1  0  0  0  0
 13 11  2  0  0  0  0
 14 15  2  0  0  0  0
 14 13  1  0  0  0  0
 15 20  1  0  0  0  0
 16 17  2  0  0  0  0
 16 15  1  0  0  0  0
 17 18  1  0  0  0  0
 18 19  2  0  0  0  0
 20 19  1  0  0  0  0
 20 10  2  0  0  0  0
 21 22  1  0  0  0  0
 22 28  1  0  0  0  0
 22 23  2  0  0  0  0
 23  1  1  0  0  0  0
 24 23  1  0  0  0  0
 25 24  2  0  0  0  0
 26 21  2  0  0  0  0
 26 25  1  0  0  0  0
 27 21  1  0  0  0  0
 29 25  1  0  0  0  0
 30 32  1  0  0  0  0
 30 33  1  0  0  0  0
 30 31  1  0  0  0  0
M  END
>  <minimizedAffinity>
-6.35853195

$$$$
