REMARK  Name = 
REMARK  4 active torsions:
REMARK  status: ('A' for Active; 'I' for Inactive)
REMARK    1  A    between atoms: C_1  and  C_15
REMARK    2  A    between atoms: C_4  and  C_7
REMARK    3  A    between atoms: C_15  and  C_17
REMARK    4  A    between atoms: C_21  and  C_32
REMARK                            x       y       z     vdW  Elec       q    Type
REMARK                         _______ _______ _______ _____ _____    ______ ____
ROOT
ATOM      1  C   UNL     1      35.851  29.131  49.802  0.00  0.00    +0.000 A 
ATOM      2  C   UNL     1      34.823  29.622  50.549  0.00  0.00    +0.000 A 
ATOM      3  C   UNL     1      33.648  29.038  50.061  0.00  0.00    +0.000 A 
ATOM      4  C   UNL     1      34.064  28.199  49.010  0.00  0.00    +0.000 A 
ATOM      5  O   UNL     1      35.353  28.310  48.925  0.00  0.00    +0.000 OA
ATOM      6  H   UNL     1      34.843  30.338  51.384  0.00  0.00    +0.000 HD
ATOM      7  H   UNL     1      32.676  29.248  50.469  0.00  0.00    +0.000 HD
ENDROOT
BRANCH   4   9
ATOM      8  C   UNL     1      33.528  26.432  47.342  0.00  0.00    +0.000 A 
ATOM      9  C   UNL     1      33.128  27.398  48.229  0.00  0.00    +0.000 A 
ATOM     10  C   UNL     1      31.783  27.672  48.435  0.00  0.00    +0.000 A 
ATOM     11  C   UNL     1      30.849  26.939  47.718  0.00  0.00    +0.000 A 
ATOM     12  N   UNL     1      29.505  26.988  47.716  0.00  0.00    +0.000 N 
ATOM     13  N   UNL     1      29.088  26.067  46.843  0.00  0.00    +0.000 NA
ATOM     14  C   UNL     1      30.155  25.443  46.299  0.00  0.00    +0.000 A 
ATOM     15  C   UNL     1      31.315  25.972  46.833  0.00  0.00    +0.000 A 
ATOM     16  C   UNL     1      32.645  25.695  46.623  0.00  0.00    +0.000 A 
ATOM     17  H   UNL     1      34.593  26.267  47.227  0.00  0.00    +0.000 HD
ATOM     18  H   UNL     1      31.379  28.425  49.123  0.00  0.00    +0.000 HD
ATOM     19  H   UNL     1      28.894  27.614  48.278  0.00  0.00    +0.000 HD
ATOM     20  H   UNL     1      30.111  24.640  45.549  0.00  0.00    +0.000 HD
ATOM     21  H   UNL     1      32.928  24.925  45.915  0.00  0.00    +0.000 HD
ENDBRANCH   4   9
BRANCH   1  22
ATOM     22  C   UNL     1      37.218  29.534  50.046  0.00  0.00    +0.000 C 
ATOM     23  O   UNL     1      37.870  28.959  50.963  0.00  0.00    +0.000 OA
BRANCH  22  24
ATOM     24  C   UNL     1      37.768  30.578  49.223  0.00  0.00    +0.000 A 
ATOM     25  C   UNL     1      38.138  31.759  49.822  0.00  0.00    +0.000 A 
ATOM     26  C   UNL     1      38.687  32.772  49.060  0.00  0.00    +0.000 A 
ATOM     27  N   UNL     1      38.829  32.520  47.716  0.00  0.00    +0.000 NA
ATOM     28  C   UNL     1      38.474  31.385  47.135  0.00  0.00    +0.000 A 
ATOM     29  N   UNL     1      37.949  30.446  47.923  0.00  0.00    +0.000 NA
ATOM     30  H   UNL     1      37.999  31.889  50.879  0.00  0.00    +0.000 HD
ATOM     31  H   UNL     1      38.981  33.694  49.500  0.00  0.00    +0.000 HD
BRANCH  28  32
ATOM     32  C   UNL     1      38.734  31.385  45.707  0.00  0.00    +0.000 A 
ATOM     33  C   UNL     1      38.429  30.288  44.932  0.00  0.00    +0.000 A 
ATOM     34  H   UNL     1      37.988  29.387  45.338  0.00  0.00    +0.000 HD
ATOM     35  C   UNL     1      38.649  30.224  43.579  0.00  0.00    +0.000 A 
ATOM     36  C   UNL     1      39.203  31.282  42.900  0.00  0.00    +0.000 A 
ATOM     37  C   UNL     1      39.527  32.404  43.624  0.00  0.00    +0.000 A 
ATOM     38  C   UNL     1      40.084  33.475  42.961  0.00  0.00    +0.000 A 
ATOM     39  C   UNL     1      40.432  34.630  43.628  0.00  0.00    +0.000 A 
ATOM     40  C   UNL     1      40.197  34.667  45.002  0.00  0.00    +0.000 A 
ATOM     41  C   UNL     1      39.639  33.570  45.615  0.00  0.00    +0.000 A 
ATOM     42  C   UNL     1      39.283  32.408  44.975  0.00  0.00    +0.000 A 
ENDBRANCH  28  32
ENDBRANCH  22  24
ENDBRANCH   1  22
TORSDOF 4
