
 OpenBabel03272509473D

 27 29  0  0  0  0  0  0  0  0999 V2000
   33.4650   27.7180   48.0090 C   0  0  0  0  0  0  0  0  0  0  0  0
   34.3640   27.3500   47.4890 H   0  0  0  0  0  0  0  0  0  0  0  0
   32.9520   26.7800   48.3730 H   0  0  0  0  0  0  0  0  0  0  0  0
   32.5600   28.4570   47.1060 C   0  0  0  0  0  0  0  0  0  0  0  0
   31.1950   28.3420   47.3280 C   0  0  0  0  0  0  0  0  0  0  0  0
   30.8360   27.7370   48.1550 H   0  0  0  0  0  0  0  0  0  0  0  0
   30.2000   28.9360   46.5850 C   0  0  0  0  0  3  0  0  0  0  0  0
   30.6320   29.7230   45.5130 C   0  0  0  0  0  3  0  0  0  0  0  0
   31.9810   29.8660   45.2530 C   0  0  0  0  0  0  0  0  0  0  0  0
   32.4630   30.6340   44.2130 C   0  0  0  0  0  3  0  0  0  0  0  0
   33.8050   30.8000   43.9300 C   0  0  0  0  0  3  0  0  0  0  0  0
   34.6920   30.1560   44.7480 C   0  0  0  0  0  3  0  0  0  0  0  0
   34.2810   29.3790   45.7980 C   0  0  0  0  0  3  0  0  0  0  0  0
   32.9370   29.2420   46.0400 C   0  0  0  0  0  0  0  0  0  0  0  0
   33.7980   28.5360   49.2110 C   0  0  0  0  0  0  0  0  0  0  0  0
   32.9710   28.5910   49.9130 H   0  0  0  0  0  0  0  0  0  0  0  0
   33.9540   29.5880   48.8480 H   0  0  0  0  0  0  0  0  0  0  0  0
   34.9810   28.0680   49.8290 O   0  0  0  0  0  0  0  0  0  0  0  0
   37.3600   30.3470   51.3690 C   0  0  0  0  0  0  0  0  0  0  0  0
   38.0040   30.8280   50.2330 C   0  0  0  0  0  0  0  0  0  0  0  0
   37.6010   30.3550   48.9860 C   0  0  0  0  0  0  0  0  0  0  0  0
   36.5800   29.4360   48.9860 N   0  0  0  0  0  0  0  0  0  0  0  0
   35.9820   28.9930   50.0920 C   0  0  0  0  0  0  0  0  0  0  0  0
   36.3770   29.4540   51.2880 N   0  0  0  0  0  0  0  0  0  0  0  0
   37.7110   30.7440   52.3030 H   0  0  0  0  0  0  0  0  0  0  0  0
   38.8130   31.5510   50.1850 H   0  0  0  0  0  0  0  0  0  0  0  0
   38.0330   30.6610   48.0290 H   0  0  0  0  0  0  0  0  0  0  0  0
  1  3  1  0  0  0  0
  1 15  1  0  0  0  0
  2  1  1  0  0  0  0
  4  5  1  0  0  0  0
  4  1  1  0  0  0  0
  5  6  1  0  0  0  0
  7  5  2  0  0  0  0
  8  7  1  0  0  0  0
  9  8  2  0  0  0  0
  9 14  1  0  0  0  0
 10  9  1  0  0  0  0
 11 10  2  0  0  0  0
 11 12  1  0  0  0  0
 12 13  2  0  0  0  0
 13 14  1  0  0  0  0
 14  4  2  0  0  0  0
 15 18  1  0  0  0  0
 15 16  1  0  0  0  0
 17 15  1  0  0  0  0
 18 23  1  0  0  0  0
 19 25  1  0  0  0  0
 20 19  2  0  0  0  0
 21 22  2  0  0  0  0
 21 20  1  0  0  0  0
 22 23  1  0  0  0  0
 23 24  2  0  0  0  0
 24 19  1  0  0  0  0
 26 20  1  0  0  0  0
 27 21  1  0  0  0  0
M  END
>  <minimizedAffinity>
-4.45302057

>  <minimizedRMSD>
1.60535967

$$$$
