REMARK  Name = 
REMARK  4 active torsions:
REMARK  status: ('A' for Active; 'I' for Inactive)
REMARK    1  A    between atoms: C_2  and  C_12
REMARK    2  A    between atoms: C_6  and  O_16
REMARK    3  A    between atoms: O_16  and  C_18
REMARK    4  A    between atoms: C_22  and  C_37
REMARK                            x       y       z     vdW  Elec       q    Type
REMARK                         _______ _______ _______ _____ _____    ______ ____
ROOT
ATOM      1  N   UNL     1      39.561  31.831  41.727  0.00  0.00    +0.000 NA
ATOM      2  C   UNL     1      39.207  33.243  41.873  0.00  0.00    +0.000 C 
ATOM      3  C   UNL     1      37.812  33.442  41.509  0.00  0.00    +0.000 C 
ATOM      4  O   UNL     1      37.638  33.127  40.152  0.00  0.00    +0.000 OA
ATOM      5  C   UNL     1      38.070  31.869  39.791  0.00  0.00    +0.000 C 
ATOM      6  C   UNL     1      39.472  31.599  40.301  0.00  0.00    +0.000 C 
ATOM      7  H   UNL     1      38.897  31.184  42.129  0.00  0.00    +0.000 HD
ATOM      8  H   UNL     1      39.873  33.781  41.172  0.00  0.00    +0.000 HD
ATOM      9  H   UNL     1      37.616  34.559  41.539  0.00  0.00    +0.000 HD
ATOM     10  H   UNL     1      36.983  32.985  41.979  0.00  0.00    +0.000 HD
ATOM     11  H   UNL     1      38.067  31.829  38.698  0.00  0.00    +0.000 HD
ATOM     12  H   UNL     1      37.401  31.118  40.266  0.00  0.00    +0.000 HD
ATOM     13  H   UNL     1      40.146  32.375  39.877  0.00  0.00    +0.000 HD
ENDROOT
BRANCH   6  14
ATOM     14  C   UNL     1      39.878  30.224  40.027  0.00  0.00    +0.000 A 
ATOM     15  C   UNL     1      39.069  29.158  39.744  0.00  0.00    +0.000 A 
ATOM     16  H   UNL     1      37.999  29.296  39.700  0.00  0.00    +0.000 HD
ATOM     17  C   UNL     1      39.474  27.864  39.495  0.00  0.00    +0.000 A 
ATOM     18  C   UNL     1      40.822  27.574  39.525  0.00  0.00    +0.000 A 
ATOM     19  C   UNL     1      41.691  28.607  39.805  0.00  0.00    +0.000 A 
ATOM     20  C   UNL     1      43.026  28.265  39.821  0.00  0.00    +0.000 A 
ATOM     21  C   UNL     1      43.971  29.233  40.090  0.00  0.00    +0.000 A 
ATOM     22  C   UNL     1      43.559  30.527  40.337  0.00  0.00    +0.000 A 
ATOM     23  C   UNL     1      42.227  30.797  40.307  0.00  0.00    +0.000 A 
ATOM     24  C   UNL     1      41.217  29.896  40.048  0.00  0.00    +0.000 A 
ENDBRANCH   6  14
BRANCH   2  25
ATOM     25  O   UNL     1      39.432  33.571  43.234  0.00  0.00    +0.000 OA
BRANCH  25  31
ATOM     26  C   UNL     1      36.223  30.202  46.861  0.00  0.00    +0.000 A 
ATOM     27  C   UNL     1      37.075  30.746  47.804  0.00  0.00    +0.000 A 
ATOM     28  C   UNL     1      38.078  31.655  47.435  0.00  0.00    +0.000 A 
ATOM     29  C   UNL     1      38.147  31.959  46.081  0.00  0.00    +0.000 A 
ATOM     30  N   UNL     1      39.033  32.818  45.478  0.00  0.00    +0.000 N 
ATOM     31  C   UNL     1      38.732  32.806  44.168  0.00  0.00    +0.000 A 
ATOM     32  N   UNL     1      37.723  31.994  43.953  0.00  0.00    +0.000 NA
ATOM     33  C   UNL     1      37.324  31.445  45.111  0.00  0.00    +0.000 A 
ATOM     34  C   UNL     1      36.335  30.539  45.519  0.00  0.00    +0.000 A 
ATOM     35  H   UNL     1      35.438  29.500  47.097  0.00  0.00    +0.000 HD
ATOM     36  H   UNL     1      38.748  32.085  48.162  0.00  0.00    +0.000 HD
ATOM     37  H   UNL     1      39.789  33.365  45.965  0.00  0.00    +0.000 HD
ATOM     38  H   UNL     1      35.683  30.130  44.759  0.00  0.00    +0.000 HD
BRANCH  27  41
ATOM     39  C   UNL     1      37.499  30.167  51.499  0.00  0.00    +0.000 A 
ATOM     40  C   UNL     1      37.798  30.602  50.211  0.00  0.00    +0.000 A 
ATOM     41  C   UNL     1      36.912  30.360  49.192  0.00  0.00    +0.000 A 
ATOM     42  N   UNL     1      35.752  29.686  49.513  0.00  0.00    +0.000 NA
ATOM     43  C   UNL     1      35.471  29.269  50.763  0.00  0.00    +0.000 A 
ATOM     44  N   UNL     1      36.332  29.508  51.734  0.00  0.00    +0.000 NA
ATOM     45  H   UNL     1      38.220  30.375  52.276  0.00  0.00    +0.000 HD
ATOM     46  H   UNL     1      38.698  31.124  49.964  0.00  0.00    +0.000 HD
ATOM     47  H   UNL     1      34.529  28.746  50.912  0.00  0.00    +0.000 HD
ENDBRANCH  27  41
ENDBRANCH  25  31
ENDBRANCH   2  25
TORSDOF 4
