
 OpenBabel03272510343D

 30 33  0  0  0  0  0  0  0  0999 V2000
   37.1220   30.7160   45.3910 C   0  0  0  0  0  0  0  0  0  0  0  0
   36.5410   30.2650   44.2420 C   0  0  0  0  0  0  0  0  0  0  0  0
   35.2750   29.7270   44.1990 C   0  0  0  0  0  0  0  0  0  0  0  0
   34.5870   29.6550   45.4000 C   0  0  0  0  0  0  0  0  0  0  0  0
   35.1360   30.1010   46.5920 C   0  0  0  0  0  0  0  0  0  0  0  0
   36.4140   30.6340   46.5790 C   0  0  0  0  0  0  0  0  0  0  0  0
   37.0970   30.3290   43.3020 H   0  0  0  0  0  0  0  0  0  0  0  0
   34.7910   29.3620   43.3060 H   0  0  0  0  0  0  0  0  0  0  0  0
   33.5760   29.2510   45.5110 H   0  0  0  0  0  0  0  0  0  0  0  0
   34.6420   30.0670   47.5530 H   0  0  0  0  0  0  0  0  0  0  0  0
   37.1330   31.1470   47.7510 C   0  0  0  0  0  0  0  0  0  0  0  0
   37.7870   32.3560   47.4810 C   0  0  0  0  0  0  0  0  0  0  0  0
   37.7710   32.8620   46.5220 H   0  0  0  0  0  0  0  0  0  0  0  0
   38.5040   32.9380   48.5200 C   0  0  0  0  0  3  0  0  0  0  0  0
   38.5780   32.3610   49.7730 C   0  0  0  0  0  3  0  0  0  0  0  0
   37.9150   31.1710   49.9800 C   0  0  0  0  0  0  0  0  0  0  0  0
   37.9300   30.5170   51.2020 C   0  0  0  0  0  3  0  0  0  0  0  0
   37.2620   29.3310   51.3860 C   0  0  0  0  0  3  0  0  0  0  0  0
   36.5390   28.7290   50.3660 C   0  0  0  0  0  3  0  0  0  0  0  0
   36.5090   29.3700   49.1280 C   0  0  0  0  0  3  0  0  0  0  0  0
   37.1830   30.5440   48.9790 C   0  0  0  0  0  0  0  0  0  0  0  0
   39.8060   33.0710   44.7000 C   0  0  0  0  0  0  0  0  0  0  0  0
   40.9620   32.4040   45.1260 C   0  0  0  0  0  0  0  0  0  0  0  0
   40.7920   31.1160   45.6600 C   0  0  0  0  0  0  0  0  0  0  0  0
   39.5500   30.5860   45.7400 N   0  0  0  0  0  0  0  0  0  0  0  0
   38.4640   31.2670   45.3160 C   0  0  0  0  0  0  0  0  0  0  0  0
   38.5810   32.5190   44.7900 N   0  0  0  0  0  0  0  0  0  0  0  0
   39.8430   34.0700   44.2740 H   0  0  0  0  0  0  0  0  0  0  0  0
   41.8920   32.9320   45.0100 H   0  0  0  0  0  0  0  0  0  0  0  0
   41.6950   30.6150   45.9850 H   0  0  0  0  0  0  0  0  0  0  0  0
  1  6  1  0  0  0  0
  2  1  2  0  0  0  0
  3  2  1  0  0  0  0
  3  4  2  0  0  0  0
  4  9  1  0  0  0  0
  4  5  1  0  0  0  0
  5 10  1  0  0  0  0
  6  5  2  0  0  0  0
  6 11  1  0  0  0  0
  7  2  1  0  0  0  0
  8  3  1  0  0  0  0
 11 21  1  0  0  0  0
 12 11  2  0  0  0  0
 12 14  1  0  0  0  0
 13 12  1  0  0  0  0
 14 15  2  0  0  0  0
 15 16  1  0  0  0  0
 16 17  1  0  0  0  0
 17 18  2  0  0  0  0
 19 18  1  0  0  0  0
 20 19  2  0  0  0  0
 21 20  1  0  0  0  0
 21 16  2  0  0  0  0
 22 27  2  0  0  0  0
 22 23  1  0  0  0  0
 23 24  2  0  0  0  0
 24 25  1  0  0  0  0
 24 30  1  0  0  0  0
 26  1  1  0  0  0  0
 26 25  2  0  0  0  0
 27 26  1  0  0  0  0
 28 22  1  0  0  0  0
 29 23  1  0  0  0  0
M  END
>  <minimizedAffinity>
-7.46299505

>  <minimizedRMSD>
3.68016648

$$$$
