
 OpenBabel03272502393D

 42 46  0  0  1  0  0  0  0  0999 V2000
   32.4350   27.9600   48.1030 N   0  0  0  0  0  0  0  0  0  0  0  0
   33.1610   27.7860   46.8630 C   0  0  0  0  0  0  0  0  0  0  0  0
   34.4540   28.5070   47.1140 C   0  0  0  0  0  0  0  0  0  0  0  0
   34.2370   29.2450   48.5110 C   0  0  1  0  0  0  0  0  0  0  0  0
   33.4020   28.2480   49.1850 C   0  0  0  0  0  0  0  0  0  0  0  0
   32.5750   28.3240   46.0860 H   0  0  0  0  0  0  0  0  0  0  0  0
   33.3130   26.7350   46.5770 H   0  0  0  0  0  0  0  0  0  0  0  0
   34.7370   29.2450   46.3570 H   0  0  0  0  0  0  0  0  0  0  0  0
   35.2700   27.7720   47.2730 H   0  0  0  0  0  0  0  0  0  0  0  0
   33.7500   30.1530   48.1150 H   0  0  0  0  0  0  0  0  0  0  0  0
   32.8530   28.6170   50.0770 H   0  0  0  0  0  0  0  0  0  0  0  0
   33.9550   27.3210   49.3920 H   0  0  0  0  0  0  0  0  0  0  0  0
   35.9910   31.1940   47.4240 F   0  0  0  0  0  0  0  0  0  0  0  0
   36.2990   30.4940   48.5390 C   0  0  0  0  0  0  0  0  0  0  0  0
   35.5560   29.4850   49.1090 C   0  0  0  0  0  0  0  0  0  0  0  0
   36.0620   28.8480   50.2550 C   0  0  0  0  0  0  0  0  0  0  0  0
   37.2740   29.2120   50.8070 C   0  0  0  0  0  0  0  0  0  0  0  0
   38.0090   30.2370   50.2120 C   0  0  0  0  0  0  0  0  0  0  0  0
   37.5070   30.8750   49.0690 C   0  0  0  0  0  0  0  0  0  0  0  0
   35.3920   28.0770   50.6070 H   0  0  0  0  0  0  0  0  0  0  0  0
   37.5710   28.6600   51.6870 H   0  0  0  0  0  0  0  0  0  0  0  0
   38.9450   30.4970   50.6640 H   0  0  0  0  0  0  0  0  0  0  0  0
   38.3560   31.9320   48.5270 C   0  0  0  0  0  0  0  0  0  0  0  0
   38.4550   33.0530   49.3530 C   0  0  0  0  0  0  0  0  0  0  0  0
   37.9510   33.1370   50.3060 H   0  0  0  0  0  0  0  0  0  0  0  0
   39.2490   34.0950   48.8940 C   0  0  0  0  0  0  0  0  0  0  0  0
   39.9190   34.0550   47.6900 C   0  0  0  0  0  0  0  0  0  0  0  0
   39.7760   32.9240   46.9320 C   0  0  0  0  0  0  0  0  0  0  0  0
   40.4170   32.8080   45.7090 C   0  0  0  0  0  0  0  0  0  0  0  0
   40.3290   31.7190   44.8940 C   0  0  0  0  0  0  0  0  0  0  0  0
   39.5420   30.6850   45.3480 C   0  0  0  0  0  0  0  0  0  0  0  0
   38.8500   30.6920   46.5620 C   0  0  0  0  0  0  0  0  0  0  0  0
   39.0060   31.8390   47.3120 C   0  0  0  0  0  0  0  0  0  0  0  0
   31.0410   27.8890   48.2860 C   0  0  0  0  0  0  0  0  0  0  0  0
   30.2480   28.3950   47.2430 C   0  0  0  0  0  0  0  0  0  0  0  0
   28.8590   28.3630   47.3740 C   0  0  0  0  0  0  0  0  0  0  0  0
   28.3570   27.8240   48.5450 N   0  0  0  0  0  0  0  0  0  0  0  0
   29.1400   27.3510   49.5160 C   0  0  0  0  0  0  0  0  0  0  0  0
   30.4950   27.3840   49.3850 N   0  0  0  0  0  0  0  0  0  0  0  0
   30.5960   28.8230   46.3130 H   0  0  0  0  0  0  0  0  0  0  0  0
   28.1850   28.7350   46.6110 H   0  0  0  0  0  0  0  0  0  0  0  0
   28.7260   26.9340   50.4250 H   0  0  0  0  0  0  0  0  0  0  0  0
  1 34  1  0  0  0  0
  1  5  1  0  0  0  0
  2  3  1  0  0  0  0
  2  1  1  0  0  0  0
  3  9  1  0  0  0  0
  3  4  1  0  0  0  0
  4 10  1  6  0  0  0
  4 15  1  0  0  0  0
  4  5  1  0  0  0  0
  5 12  1  0  0  0  0
  5 11  1  0  0  0  0
  6  2  1  0  0  0  0
  7  2  1  0  0  0  0
  8  3  1  0  0  0  0
 13 14  1  0  0  0  0
 14 19  2  0  0  0  0
 14 15  1  0  0  0  0
 15 16  2  0  0  0  0
 16 20  1  0  0  0  0
 16 17  1  0  0  0  0
 17 21  1  0  0  0  0
 18 22  1  0  0  0  0
 18 17  2  0  0  0  0
 19 18  1  0  0  0  0
 23 19  1  0  0  0  0
 23 24  1  0  0  0  0
 24 25  1  0  0  0  0
 26 24  2  0  0  0  0
 27 26  1  0  0  0  0
 28 33  1  0  0  0  0
 28 27  2  0  0  0  0
 29 28  1  0  0  0  0
 30 31  1  0  0  0  0
 30 29  2  0  0  0  0
 31 32  2  0  0  0  0
 32 33  1  0  0  0  0
 33 23  2  0  0  0  0
 34 39  1  0  0  0  0
 35 36  1  0  0  0  0
 35 34  2  0  0  0  0
 36 37  2  0  0  0  0
 37 38  1  0  0  0  0
 38 42  1  0  0  0  0
 39 38  2  0  0  0  0
 40 35  1  0  0  0  0
 41 36  1  0  0  0  0
M  END
>  <minimizedAffinity>
-8.81267643

>  <minimizedRMSD>
3.39805841

$$$$
