
 OpenBabel03272505523D

 46 50  0  0  1  0  0  0  0  0999 V2000
   37.3180   29.3150   50.5220 C   0  0  0  0  0  0  0  0  0  0  0  0
   37.4210   30.6970   50.7730 C   0  0  0  0  0  0  0  0  0  0  0  0
   36.5890   31.5360   50.0340 C   0  0  0  0  0  0  0  0  0  0  0  0
   35.7430   30.9770   49.1280 N   0  0  0  0  0  0  0  0  0  0  0  0
   35.6790   29.6660   48.9240 C   0  0  0  0  0  0  0  0  0  0  0  0
   36.4680   28.8280   49.6200 N   0  0  0  0  0  0  0  0  0  0  0  0
   34.7720   29.1400   47.9680 N   0  0  0  0  0  0  0  0  0  0  0  0
   34.2070   27.8110   48.1100 C   0  0  0  0  0  0  0  0  0  0  0  0
   32.7200   27.8630   48.0170 C   0  0  0  0  0  0  0  0  0  0  0  0
   32.1710   29.0340   47.5460 N   0  0  0  0  0  0  0  0  0  0  0  0
   32.9190   29.9370   46.7100 C   0  0  0  0  0  0  0  0  0  0  0  0
   34.3640   29.9090   46.8130 C   0  0  2  0  0  0  0  0  0  0  0  0
   37.9630   28.6500   51.0950 H   0  0  0  0  0  0  0  0  0  0  0  0
   38.0900   31.1320   51.4890 H   0  0  0  0  0  0  0  0  0  0  0  0
   36.5710   32.6090   50.1310 H   0  0  0  0  0  0  0  0  0  0  0  0
   34.7230   27.0190   47.5880 H   0  0  0  0  0  0  0  0  0  0  0  0
   34.4090   27.5490   49.2090 H   0  0  0  0  0  0  0  0  0  0  0  0
   32.1950   27.5620   48.9470 H   0  0  0  0  0  0  0  0  0  0  0  0
   32.4470   27.0340   47.2970 H   0  0  0  0  0  0  0  0  0  0  0  0
   31.2850   29.3940   47.9180 H   0  0  0  0  0  0  0  0  0  0  0  0
   32.6010   30.9440   47.1510 H   0  0  0  0  0  0  0  0  0  0  0  0
   32.3970   29.9480   45.7700 H   0  0  0  0  0  0  0  0  0  0  0  0
   34.8130   30.9420   46.9310 H   0  0  0  0  0  0  0  0  0  0  0  0
   35.0640   29.3320   45.6670 N   0  0  2  0  0  0  0  0  0  0  0  0
   36.1050   30.2400   45.1820 C   0  0  0  0  0  0  0  0  0  0  0  0
   36.0870   30.1800   43.6660 C   0  0  0  0  0  0  0  0  0  0  0  0
   35.1840   29.0380   43.3980 C   0  0  0  0  0  0  0  0  0  0  0  0
   34.1700   29.1170   44.5610 C   0  0  1  0  0  0  0  0  0  0  0  0
   37.0630   29.7900   45.4890 H   0  0  0  0  0  0  0  0  0  0  0  0
   36.0130   31.2570   45.5830 H   0  0  0  0  0  0  0  0  0  0  0  0
   37.0990   30.1030   43.2400 H   0  0  0  0  0  0  0  0  0  0  0  0
   35.5470   31.1130   43.3360 H   0  0  0  0  0  0  0  0  0  0  0  0
   34.6520   29.1630   42.4350 H   0  0  0  0  0  0  0  0  0  0  0  0
   35.7600   28.0940   43.4390 H   0  0  0  0  0  0  0  0  0  0  0  0
   33.6260   30.0090   44.2580 H   0  0  0  0  0  0  0  0  0  0  0  0
   33.5420   27.8150   44.4780 C   0  0  0  0  0  0  0  0  0  0  0  0
   34.2790   26.6860   44.7650 C   0  0  0  0  0  0  0  0  0  0  0  0
   35.3120   26.7550   45.0520 H   0  0  0  0  0  0  0  0  0  0  0  0
   33.7730   25.4060   44.6930 C   0  0  0  0  0  0  0  0  0  0  0  0
   32.4640   25.1870   44.3180 C   0  0  0  0  0  0  0  0  0  0  0  0
   31.6790   26.2790   44.0190 C   0  0  0  0  0  0  0  0  0  0  0  0
   30.3680   26.0850   43.6340 C   0  0  0  0  0  0  0  0  0  0  0  0
   29.5500   27.1620   43.3160 C   0  0  0  0  0  0  0  0  0  0  0  0
   30.1010   28.4470   43.4010 C   0  0  0  0  0  0  0  0  0  0  0  0
   31.4040   28.5750   43.7880 C   0  0  0  0  0  0  0  0  0  0  0  0
   32.2450   27.5340   44.1100 C   0  0  0  0  0  0  0  0  0  0  0  0
  1  2  1  0  0  0  0
  1 13  1  0  0  0  0
  2 14  1  0  0  0  0
  3 15  1  0  0  0  0
  3  2  2  0  0  0  0
  4  3  1  0  0  0  0
  5  4  2  0  0  0  0
  5  6  1  0  0  0  0
  6  1  2  0  0  0  0
  7  8  1  0  0  0  0
  7  5  1  0  0  0  0
  8 17  1  0  0  0  0
  9  8  1  0  0  0  0
  9 18  1  0  0  0  0
 10 20  1  0  0  0  0
 10  9  1  0  0  0  0
 11 12  1  0  0  0  0
 11 21  1  0  0  0  0
 11 10  1  0  0  0  0
 12 23  1  1  0  0  0
 12  7  1  0  0  0  0
 16  8  1  0  0  0  0
 19  9  1  0  0  0  0
 22 11  1  0  0  0  0
 24 25  1  6  0  0  0
 24 12  1  0  0  0  0
 25 29  1  0  0  0  0
 25 30  1  0  0  0  0
 26 25  1  0  0  0  0
 27 34  1  0  0  0  0
 27 26  1  0  0  0  0
 27 28  1  0  0  0  0
 28 35  1  6  0  0  0
 28 24  1  0  0  0  0
 31 26  1  0  0  0  0
 32 26  1  0  0  0  0
 33 27  1  0  0  0  0
 36 28  1  0  0  0  0
 36 37  1  0  0  0  0
 37 38  1  0  0  0  0
 39 37  2  0  0  0  0
 40 39  1  0  0  0  0
 41 46  1  0  0  0  0
 41 40  2  0  0  0  0
 42 41  1  0  0  0  0
 43 44  1  0  0  0  0
 43 42  2  0  0  0  0
 44 45  2  0  0  0  0
 45 46  1  0  0  0  0
 46 36  2  0  0  0  0
M  END
>  <minimizedAffinity>
-4.84159613

>  <minimizedRMSD>
1.8915205

$$$$
