
     RDKit          3D

 33 35  0  0  0  0  0  0  0  0999 V2000
   37.3267   30.2285   51.4118 C   0  0  0  0  0  0  0  0  0  0  0  0
   38.0466   30.6689   50.3053 C   0  0  0  0  0  0  0  0  0  0  0  0
   37.6208   30.2832   49.0358 C   0  0  0  0  0  0  0  0  0  0  0  0
   36.5037   29.4849   48.9855 N   0  0  0  0  0  0  0  0  0  0  0  0
   35.8346   29.0790   50.0647 C   0  0  0  0  0  0  0  0  0  0  0  0
   36.2523   29.4556   51.2830 N   0  0  0  0  0  0  0  0  0  0  0  0
   34.7433   28.2821   49.7534 O   0  0  0  0  0  0  0  0  0  0  0  0
   34.1938   28.3948   48.4538 C   0  0  0  0  0  0  0  0  0  0  0  0
   33.8332   27.0541   47.9087 C   0  0  0  0  0  0  0  0  0  0  0  0
   37.6986   30.5549   52.3651 H   0  0  0  0  0  0  0  0  0  0  0  0
   38.9321   31.2974   50.2963 H   0  0  0  0  0  0  0  0  0  0  0  0
   38.1062   30.5673   48.0977 H   0  0  0  0  0  0  0  0  0  0  0  0
   33.3586   29.0880   48.4275 H   0  0  0  0  0  0  0  0  0  0  0  0
   34.9638   28.8258   47.7567 H   0  0  0  0  0  0  0  0  0  0  0  0
   34.6762   26.3457   47.9430 H   0  0  0  0  0  0  0  0  0  0  0  0
   33.0654   26.6046   48.6045 H   0  0  0  0  0  0  0  0  0  0  0  0
   33.2597   27.1760   46.5536 C   0  0  0  0  0  0  0  0  0  0  0  0
   32.0041   26.6253   46.3338 C   0  0  0  0  0  0  0  0  0  0  0  0
   31.4806   26.1443   47.1536 H   0  0  0  0  0  0  0  0  0  0  0  0
   31.3194   26.6208   45.1412 C   0  0  0  0  0  0  0  0  0  0  0  0
   31.9694   27.2346   44.0649 C   0  0  0  0  0  0  0  0  0  0  0  0
   33.2196   27.7960   44.2374 C   0  0  0  0  0  0  0  0  0  0  0  0
   33.9050   28.4178   43.2133 C   0  0  0  0  0  0  0  0  0  0  0  0
   35.1531   28.9927   43.3537 C   0  0  0  0  0  0  0  0  0  0  0  0
   35.7255   28.9300   44.5947 C   0  0  0  0  0  0  0  0  0  0  0  0
   35.1002   28.3281   45.6531 C   0  0  0  0  0  0  0  0  0  0  0  0
   33.8603   27.7693   45.4660 C   0  0  0  0  0  0  0  0  0  0  0  0
   30.3458   26.1741   45.0390 H   0  0  0  0  0  0  0  0  0  0  0  0
   31.4982   27.2705   43.0996 H   0  0  0  0  0  0  0  0  0  0  0  0
   33.3713   28.4208   42.2608 H   0  0  0  0  0  0  0  0  0  0  0  0
   35.5924   29.4467   42.4967 H   0  0  0  0  0  0  0  0  0  0  0  0
   36.6973   29.3677   44.7428 H   0  0  0  0  0  0  0  0  0  0  0  0
   35.6092   28.3238   46.6025 H   0  0  0  0  0  0  0  0  0  0  0  0
  2  1  2  0
  3  2  1  0
  4  3  2  0
  4  5  1  0
  5  6  2  0
  6  1  1  0
  7  5  1  0
  8  7  1  0
  9  8  1  0
  1 10  1  0
  2 11  1  0
  3 12  1  0
  8 13  1  0
  8 14  1  0
  9 15  1  0
  9 16  1  0
 17 18  2  0
 18 19  1  0
 18 20  1  0
 20 21  2  0
 21 22  1  0
 22 23  2  0
 23 24  1  0
 24 25  2  0
 25 26  1  0
 26 27  2  0
 27 17  1  0
 27 22  1  0
 20 28  1  0
 21 29  1  0
 23 30  1  0
 24 31  1  0
 25 32  1  0
 26 33  1  0
  9 17  1  0
M  ISO  8  10  14  11  14  12  14  13   8  14   8  15   8  16   8  19  15
M  END
>  <DihAtoms>  (1) 
7,8,16,17

>  <DihDeg>  (1) 
100.56932808006867

$$$$
