
     RDKit          3D

 29 31  0  0  0  0  0  0  0  0999 V2000
   38.3049   31.2362   50.1169 C   0  0  0  0  0  0  0  0  0  0  0  0
   38.2840   31.5945   48.7705 C   0  0  0  0  0  0  0  0  0  0  0  0
   37.2065   31.2226   47.9853 C   0  0  0  0  0  0  0  0  0  0  0  0
   36.2345   30.5130   48.6237 N   0  0  0  0  0  0  0  0  0  0  0  0
   36.2563   30.1710   49.9070 C   0  0  0  0  0  0  0  0  0  0  0  0
   37.2974   30.5423   50.6333 N   0  0  0  0  0  0  0  0  0  0  0  0
   35.1216   29.3873   50.4571 C   0  0  0  0  0  0  0  0  0  0  0  0
   35.2716   29.1198   51.8067 F   0  0  0  0  0  0  0  0  0  0  0  0
   33.9167   30.0507   50.2926 F   0  0  0  0  0  0  0  0  0  0  0  0
   34.9556   28.1745   49.8110 F   0  0  0  0  0  0  0  0  0  0  0  0
   39.1454   31.5283   50.7308 H   0  0  0  0  0  0  0  0  0  0  0  0
   39.1416   32.1104   48.4043 H   0  0  0  0  0  0  0  0  0  0  0  0
   37.0131   31.4217   46.5704 C   0  0  0  0  0  0  0  0  0  0  0  0
   38.1475   31.2682   45.7637 C   0  0  0  0  0  0  0  0  0  0  0  0
   39.1058   31.0230   46.2065 H   0  0  0  0  0  0  0  0  0  0  0  0
   38.1710   31.4029   44.4075 C   0  0  0  0  0  0  0  0  0  0  0  0
   37.0102   31.7130   43.7360 C   0  0  0  0  0  0  0  0  0  0  0  0
   35.8694   31.8723   44.4679 C   0  0  0  0  0  0  0  0  0  0  0  0
   34.6845   32.1489   43.8258 C   0  0  0  0  0  0  0  0  0  0  0  0
   33.4888   32.2848   44.5195 C   0  0  0  0  0  0  0  0  0  0  0  0
   33.5494   32.1267   45.8904 C   0  0  0  0  0  0  0  0  0  0  0  0
   34.7345   31.8549   46.4955 C   0  0  0  0  0  0  0  0  0  0  0  0
   35.9033   31.7248   45.8262 C   0  0  0  0  0  0  0  0  0  0  0  0
   39.0597   31.2787   43.8230 H   0  0  0  0  0  0  0  0  0  0  0  0
   37.0292   31.8211   42.6632 H   0  0  0  0  0  0  0  0  0  0  0  0
   34.6552   32.2694   42.7461 H   0  0  0  0  0  0  0  0  0  0  0  0
   32.5896   32.4996   43.9940 H   0  0  0  0  0  0  0  0  0  0  0  0
   32.6015   32.2346   46.4243 H   0  0  0  0  0  0  0  0  0  0  0  0
   34.6655   31.7117   47.5418 H   0  0  0  0  0  0  0  0  0  0  0  0
  1  6  2  0
  2  1  1  0
  3  4  1  0
  3  2  2  0
  4  5  2  0
  5  7  1  0
  5  6  1  0
  7  8  1  0
  9  7  1  0
 10  7  1  0
  1 11  1  0
  2 12  1  0
 13 14  2  0
 14 15  1  0
 14 16  1  0
 16 17  2  0
 17 18  1  0
 18 19  2  0
 19 20  1  0
 20 21  2  0
 21 22  1  0
 22 23  2  0
 23 13  1  0
 23 18  1  0
 16 24  1  0
 17 25  1  0
 19 26  1  0
 20 27  1  0
 21 28  1  0
 22 29  1  0
  3 13  1  0
M  ISO  3  11  14  12  14  15  15
M  END
>  <DihAtoms>  (1) 
3,2,12,13

>  <DihDeg>  (1) 
-32.813208269965244

$$$$
