
 OpenBabel03272508413D

 44 48  0  0  1  0  0  0  0  0999 V2000
   31.4540   28.5530   46.7760 N   0  0  0  0  0  0  0  0  0  0  0  0
   32.6490   29.3900   46.7060 C   0  0  0  0  0  0  0  0  0  0  0  0
   33.6860   28.9050   45.7980 C   0  0  2  0  0  0  0  0  0  0  0  0
   33.9020   27.4360   45.9270 N   0  0  0  0  0  0  0  0  0  0  0  0
   32.5920   26.7880   45.7350 C   0  0  0  0  0  0  0  0  0  0  0  0
   31.8230   27.1950   46.9730 C   0  0  0  0  0  0  0  0  0  0  0  0
   32.3350   30.4120   46.5130 H   0  0  0  0  0  0  0  0  0  0  0  0
   33.0470   29.2370   47.7690 H   0  0  0  0  0  0  0  0  0  0  0  0
   33.4400   28.9670   44.7210 H   0  0  0  0  0  0  0  0  0  0  0  0
   34.4870   27.1300   45.1510 H   0  0  0  0  0  0  0  0  0  0  0  0
   32.7800   25.6940   45.7450 H   0  0  0  0  0  0  0  0  0  0  0  0
   32.1070   27.1100   44.8060 H   0  0  0  0  0  0  0  0  0  0  0  0
   32.5090   27.0180   47.8390 H   0  0  0  0  0  0  0  0  0  0  0  0
   30.9270   26.5620   47.1130 H   0  0  0  0  0  0  0  0  0  0  0  0
   35.4710   29.2060   43.4430 Cl  0  0  0  0  0  0  0  0  0  0  0  0
   35.8490   29.8280   45.0500 C   0  0  0  0  0  0  0  0  0  0  0  0
   34.9410   29.5910   46.0470 C   0  0  0  0  0  0  0  0  0  0  0  0
   35.0960   30.0240   47.3750 C   0  0  0  0  0  0  0  0  0  0  0  0
   36.2770   30.7360   47.6390 C   0  0  0  0  0  0  0  0  0  0  0  0
   37.2120   30.9790   46.6250 C   0  0  0  0  0  0  0  0  0  0  0  0
   36.9820   30.5250   45.3550 C   0  0  0  0  0  0  0  0  0  0  0  0
   34.5820   29.9940   48.3020 H   0  0  0  0  0  0  0  0  0  0  0  0
   36.6210   31.1640   48.5630 H   0  0  0  0  0  0  0  0  0  0  0  0
   38.1420   31.5150   46.7430 H   0  0  0  0  0  0  0  0  0  0  0  0
   37.9160   30.7500   44.2600 C   0  0  0  0  0  0  0  0  0  0  0  0
   39.0630   29.9870   44.2630 C   0  0  0  0  0  0  0  0  0  0  0  0
   39.2680   29.2510   45.0410 H   0  0  0  0  0  0  0  0  0  0  0  0
   40.0310   30.0850   43.3030 C   0  0  0  0  0  0  0  0  0  0  0  0
   39.8570   30.9980   42.2700 C   0  0  0  0  0  0  0  0  0  0  0  0
   38.7090   31.7680   42.2580 C   0  0  0  0  0  0  0  0  0  0  0  0
   38.5200   32.6910   41.2260 C   0  0  0  0  0  0  0  0  0  0  0  0
   37.3630   33.4560   41.2270 C   0  0  0  0  0  0  0  0  0  0  0  0
   36.4130   33.3200   42.2210 C   0  0  0  0  0  0  0  0  0  0  0  0
   36.5850   32.4090   43.2550 C   0  0  0  0  0  0  0  0  0  0  0  0
   37.7330   31.6640   43.2330 C   0  0  0  0  0  0  0  0  0  0  0  0
   30.1450   29.0790   46.6690 C   0  0  0  0  0  0  0  0  0  0  0  0
   29.7260   29.8130   45.5540 C   0  0  0  0  0  0  0  0  0  0  0  0
   28.4250   30.2920   45.5270 C   0  0  0  0  0  0  0  0  0  0  0  0
   27.6030   30.0170   46.6110 N   0  0  0  0  0  0  0  0  0  0  0  0
   28.0560   29.3050   47.6640 C   0  0  0  0  0  0  0  0  0  0  0  0
   29.2970   28.8390   47.7050 N   0  0  0  0  0  0  0  0  0  0  0  0
   30.4610   29.9590   44.7740 H   0  0  0  0  0  0  0  0  0  0  0  0
   28.1040   30.8500   44.6800 H   0  0  0  0  0  0  0  0  0  0  0  0
   27.3580   29.1350   48.4630 H   0  0  0  0  0  0  0  0  0  0  0  0
  1  6  1  0  0  0  0
  2  1  1  0  0  0  0
  2  8  1  0  0  0  0
  3  9  1  6  0  0  0
  3  4  1  0  0  0  0
  3 17  1  0  0  0  0
  3  2  1  0  0  0  0
  5 11  1  0  0  0  0
  5  4  1  0  0  0  0
  5  6  1  0  0  0  0
  6 14  1  0  0  0  0
  6 13  1  0  0  0  0
  7  2  1  0  0  0  0
 10  4  1  0  0  0  0
 12  5  1  0  0  0  0
 15 16  1  0  0  0  0
 16 21  2  0  0  0  0
 16 17  1  0  0  0  0
 17 18  2  0  0  0  0
 18 19  1  0  0  0  0
 18 22  1  0  0  0  0
 19 23  1  0  0  0  0
 20 24  1  0  0  0  0
 20 19  2  0  0  0  0
 21 20  1  0  0  0  0
 25 26  1  0  0  0  0
 25 21  1  0  0  0  0
 26 27  1  0  0  0  0
 28 26  2  0  0  0  0
 29 28  1  0  0  0  0
 30 29  2  0  0  0  0
 30 35  1  0  0  0  0
 31 32  2  0  0  0  0
 31 30  1  0  0  0  0
 32 33  1  0  0  0  0
 33 34  2  0  0  0  0
 35 34  1  0  0  0  0
 35 25  2  0  0  0  0
 36  1  1  0  0  0  0
 36 41  1  0  0  0  0
 37 36  2  0  0  0  0
 38 37  1  0  0  0  0
 38 39  2  0  0  0  0
 39 40  1  0  0  0  0
 40 41  2  0  0  0  0
 40 44  1  0  0  0  0
 42 37  1  0  0  0  0
 43 38  1  0  0  0  0
M  END
>  <minimizedAffinity>
-5.34978771

>  <minimizedRMSD>
6.3074379

$$$$
