REMARK  Name = 
REMARK  3 active torsions:
REMARK  status: ('A' for Active; 'I' for Inactive)
REMARK    1  A    between atoms: C_3  and  C_10
REMARK    2  A    between atoms: C_7  and  N_14
REMARK    3  A    between atoms: C_19  and  C_34
REMARK                            x       y       z     vdW  Elec       q    Type
REMARK                         _______ _______ _______ _____ _____    ______ ____
ROOT
ATOM      1  N   UNL     1      38.455  31.401  44.911  0.00  0.00    +0.000 N 
ATOM      2  C   UNL     1      38.757  32.818  44.832  0.00  0.00    +0.000 C 
ATOM      3  C   UNL     1      40.049  32.974  44.081  0.00  0.00    +0.000 C 
ATOM      4  N   UNL     1      39.941  32.228  42.867  0.00  0.00    +0.000 NA
ATOM      5  C   UNL     1      39.808  30.823  43.043  0.00  0.00    +0.000 C 
ATOM      6  C   UNL     1      39.513  30.526  44.518  0.00  0.00    +0.000 C 
ATOM      7  H   UNL     1      38.846  33.259  45.860  0.00  0.00    +0.000 HD
ATOM      8  H   UNL     1      37.966  33.338  44.230  0.00  0.00    +0.000 HD
ATOM      9  H   UNL     1      40.048  34.061  43.748  0.00  0.00    +0.000 HD
ATOM     10  H   UNL     1      40.963  32.877  44.653  0.00  0.00    +0.000 HD
ATOM     11  H   UNL     1      40.755  32.484  42.249  0.00  0.00    +0.000 HD
ATOM     12  H   UNL     1      40.719  30.242  42.773  0.00  0.00    +0.000 HD
ATOM     13  H   UNL     1      39.003  30.488  42.384  0.00  0.00    +0.000 HD
ATOM     14  H   UNL     1      40.452  30.952  44.955  0.00  0.00    +0.000 HD
ENDROOT
BRANCH   6  15
ATOM     15  C   UNL     1      39.365  29.099  44.726  0.00  0.00    +0.000 A 
ATOM     16  C   UNL     1      39.546  28.525  45.968  0.00  0.00    +0.000 A 
ATOM     17  H   UNL     1      39.814  29.048  46.847  0.00  0.00    +0.000 HD
ATOM     18  C   UNL     1      39.375  27.159  46.224  0.00  0.00    +0.000 A 
ATOM     19  C   UNL     1      39.006  26.305  45.215  0.00  0.00    +0.000 A 
ATOM     20  C   UNL     1      38.815  26.820  43.972  0.00  0.00    +0.000 A 
ATOM     21  C   UNL     1      38.447  25.962  42.956  0.00  0.00    +0.000 A 
ATOM     22  C   UNL     1      38.241  26.416  41.673  0.00  0.00    +0.000 A 
ATOM     23  C   UNL     1      38.417  27.784  41.433  0.00  0.00    +0.000 A 
ATOM     24  C   UNL     1      38.785  28.601  42.480  0.00  0.00    +0.000 A 
ATOM     25  C   UNL     1      38.994  28.160  43.771  0.00  0.00    +0.000 A 
ENDBRANCH   6  15
BRANCH   1  32
ATOM     26 CL   UNL     1      38.235  31.041  47.834  0.00  0.00    +0.000 Cl
ATOM     27  C   UNL     1      36.983  30.608  46.701  0.00  0.00    +0.000 A 
ATOM     28  C   UNL     1      35.828  30.074  47.161  0.00  0.00    +0.000 A 
ATOM     29  C   UNL     1      34.861  29.807  46.193  0.00  0.00    +0.000 A 
ATOM     30  C   UNL     1      35.009  30.045  44.860  0.00  0.00    +0.000 A 
ATOM     31  C   UNL     1      36.200  30.587  44.442  0.00  0.00    +0.000 A 
ATOM     32  C   UNL     1      37.204  30.876  45.349  0.00  0.00    +0.000 A 
ATOM     33  H   UNL     1      33.913  29.376  46.517  0.00  0.00    +0.000 HD
ATOM     34  H   UNL     1      34.213  29.814  44.157  0.00  0.00    +0.000 HD
ATOM     35  H   UNL     1      36.343  30.785  43.388  0.00  0.00    +0.000 HD
BRANCH  28  38
ATOM     36  C   UNL     1      36.528  29.162  50.742  0.00  0.00    +0.000 A 
ATOM     37  C   UNL     1      36.720  29.402  49.376  0.00  0.00    +0.000 A 
ATOM     38  C   UNL     1      35.657  29.809  48.566  0.00  0.00    +0.000 A 
ATOM     39  N   UNL     1      34.455  29.950  49.180  0.00  0.00    +0.000 NA
ATOM     40  C   UNL     1      34.259  29.721  50.489  0.00  0.00    +0.000 A 
ATOM     41  N   UNL     1      35.297  29.326  51.276  0.00  0.00    +0.000 NA
ATOM     42  H   UNL     1      37.290  28.849  51.437  0.00  0.00    +0.000 HD
ATOM     43  H   UNL     1      37.737  29.192  49.113  0.00  0.00    +0.000 HD
ATOM     44  H   UNL     1      33.234  29.887  50.785  0.00  0.00    +0.000 HD
ENDBRANCH  28  38
ENDBRANCH   1  32
TORSDOF 3
