REMARK  Name = 
REMARK  2 active torsions:
REMARK  status: ('A' for Active; 'I' for Inactive)
REMARK    1  A    between atoms: C_3  and  C_13
REMARK    2  A    between atoms: C_5  and  C_7
REMARK                            x       y       z     vdW  Elec       q    Type
REMARK                         _______ _______ _______ _____ _____    ______ ____
ROOT
ATOM      1  C   UNL     1      38.305  31.236  50.117  0.00  0.00    +0.000 A 
ATOM      2  C   UNL     1      38.284  31.595  48.770  0.00  0.00    +0.000 A 
ATOM      3  C   UNL     1      37.206  31.223  47.985  0.00  0.00    +0.000 A 
ATOM      4  N   UNL     1      36.234  30.513  48.624  0.00  0.00    +0.000 NA
ATOM      5  C   UNL     1      36.256  30.171  49.907  0.00  0.00    +0.000 A 
ATOM      6  N   UNL     1      37.297  30.542  50.633  0.00  0.00    +0.000 NA
ATOM      7  H   UNL     1      39.145  31.528  50.731  0.00  0.00    +0.000 HD
ATOM      8  H   UNL     1      39.142  32.110  48.404  0.00  0.00    +0.000 HD
ENDROOT
BRANCH   3   9
ATOM      9  C   UNL     1      37.013  31.422  46.570  0.00  0.00    +0.000 A 
ATOM     10  C   UNL     1      38.148  31.268  45.764  0.00  0.00    +0.000 A 
ATOM     11  H   UNL     1      39.106  31.023  46.206  0.00  0.00    +0.000 HD
ATOM     12  C   UNL     1      38.171  31.403  44.407  0.00  0.00    +0.000 A 
ATOM     13  C   UNL     1      37.010  31.713  43.736  0.00  0.00    +0.000 A 
ATOM     14  C   UNL     1      35.869  31.872  44.468  0.00  0.00    +0.000 A 
ATOM     15  C   UNL     1      34.684  32.149  43.826  0.00  0.00    +0.000 A 
ATOM     16  C   UNL     1      33.489  32.285  44.520  0.00  0.00    +0.000 A 
ATOM     17  C   UNL     1      33.549  32.127  45.890  0.00  0.00    +0.000 A 
ATOM     18  C   UNL     1      34.734  31.855  46.495  0.00  0.00    +0.000 A 
ATOM     19  C   UNL     1      35.903  31.725  45.826  0.00  0.00    +0.000 A 
ENDBRANCH   3   9
BRANCH   5  20
ATOM     20  C   UNL     1      35.122  29.387  50.457  0.00  0.00    +0.000 C 
ATOM     21  F   UNL     1      35.272  29.120  51.807  0.00  0.00    +0.000 F 
ATOM     22  F   UNL     1      33.917  30.051  50.293  0.00  0.00    +0.000 F 
ATOM     23  F   UNL     1      34.956  28.174  49.811  0.00  0.00    +0.000 F 
ENDBRANCH   5  20
TORSDOF 2
