
 OpenBabel03262521203D

 31 33  0  0  0  0  0  0  0  0999 V2000
   37.3430   25.5340   32.7690 C   0  0  0  0  0  0  0  0  0  0  0  0
   38.0580   26.5940   32.2720 C   0  0  0  0  0  0  0  0  0  0  0  0
   39.1270   27.0810   33.0520 C   0  0  0  0  0  0  0  0  0  0  0  0
   39.3820   26.4750   34.2420 N   0  0  0  0  0  0  0  0  0  0  0  0
   38.6650   25.4370   34.7070 C   0  0  0  0  0  0  0  0  0  0  0  0
   37.6880   25.0300   33.9420 N   0  0  0  0  0  0  0  0  0  0  0  0
   37.9660   27.1630   31.3570 H   0  0  0  0  0  0  0  0  0  0  0  0
   39.7560   27.8940   32.7770 H   0  0  0  0  0  0  0  0  0  0  0  0
   38.7830   24.6770   35.9340 C   0  0  0  0  0  0  0  0  0  0  0  0
   37.9530   24.8720   37.0450 C   0  0  0  0  0  0  0  0  0  0  0  0
   37.1750   25.6470   36.9630 H   0  0  0  0  0  0  0  0  0  0  0  0
   38.0420   24.1720   38.2160 C   0  0  0  0  0  3  0  0  0  0  0  0
   39.0000   23.1980   38.3560 C   0  0  0  0  0  3  0  0  0  0  0  0
   39.8510   22.9500   37.3070 C   0  0  0  0  0  0  0  0  0  0  0  0
   40.7920   21.9650   37.5010 C   0  0  0  0  0  3  0  0  0  0  0  0
   41.6810   21.6640   36.4920 C   0  0  0  0  0  3  0  0  0  0  0  0
   41.5800   22.3880   35.3020 C   0  0  0  0  0  3  0  0  0  0  0  0
   40.6120   23.3590   35.1820 C   0  0  0  0  0  3  0  0  0  0  0  0
   39.7100   23.6880   36.1580 C   0  0  0  0  0  0  0  0  0  0  0  0
   36.3200   25.1240   31.9430 O   0  0  0  0  0  0  0  0  0  0  0  0
   36.5710   24.1000   31.0470 C   0  0  0  0  0  0  0  0  0  0  0  0
   36.4100   24.5140   30.0260 H   0  0  0  0  0  0  0  0  0  0  0  0
   37.6160   23.7230   31.0390 H   0  0  0  0  0  0  0  0  0  0  0  0
   35.6370   23.2380   31.4980 C   0  0  0  0  0  0  0  0  0  0  0  0
   34.5730   23.5060   31.2540 H   0  0  0  0  0  0  0  0  0  0  0  0
   35.5820   23.2900   32.6350 H   0  0  0  0  0  0  0  0  0  0  0  0
   35.7790   21.7900   31.1650 C   0  0  0  0  0  0  0  0  0  0  0  0
   36.8840   21.5790   31.1480 H   0  0  0  0  0  0  0  0  0  0  0  0
   35.4540   21.5440   30.1210 H   0  0  0  0  0  0  0  0  0  0  0  0
   35.0620   20.7080   32.3950 S   0  0  0  0  0  0  0  0  0  0  0  0
   33.7010   21.0450   32.5910 H   0  0  0  0  0  0  0  0  0  0  0  0
  1  6  1  0  0  0  0
  2  1  2  0  0  0  0
  2  3  1  0  0  0  0
  3  4  2  0  0  0  0
  4  5  1  0  0  0  0
  5  9  1  0  0  0  0
  6  5  2  0  0  0  0
  7  2  1  0  0  0  0
  8  3  1  0  0  0  0
  9 19  2  0  0  0  0
  9 10  1  0  0  0  0
 10 12  2  0  0  0  0
 11 10  1  0  0  0  0
 12 13  1  0  0  0  0
 14 15  1  0  0  0  0
 14 13  2  0  0  0  0
 16 15  2  0  0  0  0
 17 16  1  0  0  0  0
 18 17  2  0  0  0  0
 18 19  1  0  0  0  0
 19 14  1  0  0  0  0
 20  1  1  0  0  0  0
 21 24  1  0  0  0  0
 21 20  1  0  0  0  0
 22 21  1  0  0  0  0
 23 21  1  0  0  0  0
 24 26  1  0  0  0  0
 25 24  1  0  0  0  0
 27 24  1  0  0  0  0
 27 30  1  0  0  0  0
 28 27  1  0  0  0  0
 29 27  1  0  0  0  0
 30 31  1  0  0  0  0
M  END
>  <minimizedAffinity>
-5.40106201

$$$$

 OpenBabel03262521203D

 31 33  0  0  0  0  0  0  0  0999 V2000
   36.8880   27.6060   33.8390 C   0  0  0  0  0  0  0  0  0  0  0  0
   36.6800   27.5080   32.4870 C   0  0  0  0  0  0  0  0  0  0  0  0
   35.8610   28.4840   31.8810 C   0  0  0  0  0  0  0  0  0  0  0  0
   35.3320   29.4570   32.6700 N   0  0  0  0  0  0  0  0  0  0  0  0
   35.5510   29.5300   33.9950 C   0  0  0  0  0  0  0  0  0  0  0  0
   36.3160   28.6000   34.4980 N   0  0  0  0  0  0  0  0  0  0  0  0
   37.0320   26.7990   31.7500 H   0  0  0  0  0  0  0  0  0  0  0  0
   35.6250   28.5180   30.8440 H   0  0  0  0  0  0  0  0  0  0  0  0
   35.0760   30.4760   34.9830 C   0  0  0  0  0  0  0  0  0  0  0  0
   35.8600   31.5190   35.4920 C   0  0  0  0  0  0  0  0  0  0  0  0
   36.8890   31.6090   35.1100 H   0  0  0  0  0  0  0  0  0  0  0  0
   35.4390   32.4260   36.4240 C   0  0  0  0  0  3  0  0  0  0  0  0
   34.1630   32.3460   36.9240 C   0  0  0  0  0  3  0  0  0  0  0  0
   33.3350   31.3490   36.4710 C   0  0  0  0  0  0  0  0  0  0  0  0
   32.0670   31.3140   37.0070 C   0  0  0  0  0  3  0  0  0  0  0  0
   31.1830   30.3390   36.5990 C   0  0  0  0  0  3  0  0  0  0  0  0
   31.6260   29.4180   35.6470 C   0  0  0  0  0  3  0  0  0  0  0  0
   32.9090   29.5170   35.1580 C   0  0  0  0  0  3  0  0  0  0  0  0
   33.8180   30.4700   35.5340 C   0  0  0  0  0  0  0  0  0  0  0  0
   37.6980   26.6140   34.3450 O   0  0  0  0  0  0  0  0  0  0  0  0
   38.7290   26.9780   35.1940 C   0  0  0  0  0  0  0  0  0  0  0  0
   39.6740   26.6130   34.7320 H   0  0  0  0  0  0  0  0  0  0  0  0
   38.8770   28.0730   35.3160 H   0  0  0  0  0  0  0  0  0  0  0  0
   38.3000   26.3150   36.2870 C   0  0  0  0  0  0  0  0  0  0  0  0
   37.3500   26.7020   36.7460 H   0  0  0  0  0  0  0  0  0  0  0  0
   39.0130   26.5040   37.1550 H   0  0  0  0  0  0  0  0  0  0  0  0
   38.1410   24.8330   36.2070 C   0  0  0  0  0  0  0  0  0  0  0  0
   39.1030   24.4370   35.7800 H   0  0  0  0  0  0  0  0  0  0  0  0
   37.3730   24.5120   35.4550 H   0  0  0  0  0  0  0  0  0  0  0  0
   37.9230   24.0590   37.8050 S   0  0  0  0  0  0  0  0  0  0  0  0
   36.8220   24.6460   38.4720 H   0  0  0  0  0  0  0  0  0  0  0  0
  1 20  1  0  0  0  0
  1  6  1  0  0  0  0
  2  1  2  0  0  0  0
  3  2  1  0  0  0  0
  3  4  2  0  0  0  0
  4  5  1  0  0  0  0
  5  6  2  0  0  0  0
  5  9  1  0  0  0  0
  7  2  1  0  0  0  0
  8  3  1  0  0  0  0
  9 10  2  0  0  0  0
  9 19  1  0  0  0  0
 10 12  1  0  0  0  0
 11 10  1  0  0  0  0
 12 13  2  0  0  0  0
 14 13  1  0  0  0  0
 14 15  1  0  0  0  0
 16 15  2  0  0  0  0
 17 16  1  0  0  0  0
 18 19  1  0  0  0  0
 18 17  2  0  0  0  0
 19 14  2  0  0  0  0
 20 21  1  0  0  0  0
 21 23  1  0  0  0  0
 21 24  1  0  0  0  0
 22 21  1  0  0  0  0
 24 25  1  0  0  0  0
 24 26  1  0  0  0  0
 27 24  1  0  0  0  0
 27 30  1  0  0  0  0
 28 27  1  0  0  0  0
 29 27  1  0  0  0  0
 30 31  1  0  0  0  0
M  END
>  <minimizedAffinity>
-5.38958168

$$$$

 OpenBabel03262521203D

 31 33  0  0  0  0  0  0  0  0999 V2000
   36.6280   28.1510   33.4560 C   0  0  0  0  0  0  0  0  0  0  0  0
   36.6530   28.4240   32.1120 C   0  0  0  0  0  0  0  0  0  0  0  0
   35.6610   29.2880   31.6030 C   0  0  0  0  0  0  0  0  0  0  0  0
   34.7450   29.7950   32.4720 N   0  0  0  0  0  0  0  0  0  0  0  0
   34.7420   29.5110   33.7870 C   0  0  0  0  0  0  0  0  0  0  0  0
   35.6840   28.7060   34.1980 N   0  0  0  0  0  0  0  0  0  0  0  0
   37.3110   28.0960   31.3190 H   0  0  0  0  0  0  0  0  0  0  0  0
   35.5740   29.5770   30.5830 H   0  0  0  0  0  0  0  0  0  0  0  0
   33.8580   29.9460   34.8480 C   0  0  0  0  0  0  0  0  0  0  0  0
   32.6760   29.2770   35.1890 C   0  0  0  0  0  0  0  0  0  0  0  0
   32.4220   28.3750   34.6110 H   0  0  0  0  0  0  0  0  0  0  0  0
   31.8220   29.6640   36.1850 C   0  0  0  0  0  3  0  0  0  0  0  0
   32.1050   30.7840   36.9270 C   0  0  0  0  0  3  0  0  0  0  0  0
   33.2490   31.4920   36.6500 C   0  0  0  0  0  0  0  0  0  0  0  0
   33.4830   32.6060   37.4230 C   0  0  0  0  0  3  0  0  0  0  0  0
   34.6100   33.3650   37.1980 C   0  0  0  0  0  3  0  0  0  0  0  0
   35.4730   32.9590   36.1780 C   0  0  0  0  0  3  0  0  0  0  0  0
   35.1720   31.8330   35.4470 C   0  0  0  0  0  3  0  0  0  0  0  0
   34.0650   31.0510   35.6380 C   0  0  0  0  0  0  0  0  0  0  0  0
   37.6310   27.3010   33.8640 O   0  0  0  0  0  0  0  0  0  0  0  0
   37.5690   26.7810   35.1450 C   0  0  0  0  0  0  0  0  0  0  0  0
   36.6600   27.2070   35.6260 H   0  0  0  0  0  0  0  0  0  0  0  0
   37.4320   25.6800   35.2030 H   0  0  0  0  0  0  0  0  0  0  0  0
   38.7550   27.2510   35.5840 C   0  0  0  0  0  0  0  0  0  0  0  0
   38.9160   27.1970   36.6950 H   0  0  0  0  0  0  0  0  0  0  0  0
   38.7950   28.3810   35.4490 H   0  0  0  0  0  0  0  0  0  0  0  0
   40.0070   26.7250   34.9640 C   0  0  0  0  0  0  0  0  0  0  0  0
   40.8530   27.0770   35.6160 H   0  0  0  0  0  0  0  0  0  0  0  0
   40.2360   27.1910   33.9700 H   0  0  0  0  0  0  0  0  0  0  0  0
   40.0820   24.9380   34.9330 S   0  0  0  0  0  0  0  0  0  0  0  0
   38.9400   24.4250   34.2720 H   0  0  0  0  0  0  0  0  0  0  0  0
  1 20  1  0  0  0  0
  1  6  1  0  0  0  0
  2  1  2  0  0  0  0
  3  2  1  0  0  0  0
  3  4  2  0  0  0  0
  4  5  1  0  0  0  0
  5  6  2  0  0  0  0
  5  9  1  0  0  0  0
  7  2  1  0  0  0  0
  8  3  1  0  0  0  0
  9 10  2  0  0  0  0
  9 19  1  0  0  0  0
 10 12  1  0  0  0  0
 11 10  1  0  0  0  0
 12 13  2  0  0  0  0
 14 13  1  0  0  0  0
 14 15  1  0  0  0  0
 16 15  2  0  0  0  0
 17 16  1  0  0  0  0
 18 19  1  0  0  0  0
 18 17  2  0  0  0  0
 19 14  2  0  0  0  0
 20 21  1  0  0  0  0
 21 23  1  0  0  0  0
 21 24  1  0  0  0  0
 21 22  1  0  0  0  0
 24 25  1  0  0  0  0
 26 24  1  0  0  0  0
 27 24  1  0  0  0  0
 27 28  1  0  0  0  0
 29 27  1  0  0  0  0
 30 27  1  0  0  0  0
 31 30  1  0  0  0  0
M  END
>  <minimizedAffinity>
-5.24440241

$$$$

 OpenBabel03262521203D

 31 33  0  0  0  0  0  0  0  0999 V2000
   35.8600   23.9310   31.5190 C   0  0  0  0  0  0  0  0  0  0  0  0
   35.0150   24.6910   30.7500 C   0  0  0  0  0  0  0  0  0  0  0  0
   35.0840   26.0920   30.8960 C   0  0  0  0  0  0  0  0  0  0  0  0
   35.9780   26.6010   31.7850 N   0  0  0  0  0  0  0  0  0  0  0  0
   36.7960   25.8340   32.5280 C   0  0  0  0  0  0  0  0  0  0  0  0
   36.6860   24.5460   32.3500 N   0  0  0  0  0  0  0  0  0  0  0  0
   34.2670   24.4230   30.0170 H   0  0  0  0  0  0  0  0  0  0  0  0
   34.4840   26.7870   30.3580 H   0  0  0  0  0  0  0  0  0  0  0  0
   37.7940   26.1920   33.5140 C   0  0  0  0  0  0  0  0  0  0  0  0
   37.5610   26.1560   34.8940 C   0  0  0  0  0  0  0  0  0  0  0  0
   36.5620   25.8370   35.2290 H   0  0  0  0  0  0  0  0  0  0  0  0
   38.4830   26.4890   35.8480 C   0  0  0  0  0  3  0  0  0  0  0  0
   39.7400   26.8920   35.4690 C   0  0  0  0  0  3  0  0  0  0  0  0
   40.0420   26.9510   34.1300 C   0  0  0  0  0  0  0  0  0  0  0  0
   41.3140   27.3630   33.8060 C   0  0  0  0  0  3  0  0  0  0  0  0
   41.6850   27.4480   32.4820 C   0  0  0  0  0  3  0  0  0  0  0  0
   40.7340   27.1070   31.5190 C   0  0  0  0  0  3  0  0  0  0  0  0
   39.4810   26.7030   31.9200 C   0  0  0  0  0  3  0  0  0  0  0  0
   39.0720   26.6040   33.2230 C   0  0  0  0  0  0  0  0  0  0  0  0
   35.7250   22.5770   31.3120 O   0  0  0  0  0  0  0  0  0  0  0  0
   35.9160   21.7260   32.3870 C   0  0  0  0  0  0  0  0  0  0  0  0
   36.9340   21.2890   32.2780 H   0  0  0  0  0  0  0  0  0  0  0  0
   35.9220   22.2170   33.3840 H   0  0  0  0  0  0  0  0  0  0  0  0
   34.8790   20.8980   32.1430 C   0  0  0  0  0  0  0  0  0  0  0  0
   34.2320   21.1780   31.2680 H   0  0  0  0  0  0  0  0  0  0  0  0
   34.1090   20.9910   32.9770 H   0  0  0  0  0  0  0  0  0  0  0  0
   35.1490   19.4370   32.0000 C   0  0  0  0  0  0  0  0  0  0  0  0
   34.1950   18.9770   31.6220 H   0  0  0  0  0  0  0  0  0  0  0  0
   35.3120   18.9210   32.9830 H   0  0  0  0  0  0  0  0  0  0  0  0
   36.4190   19.0680   30.7970 S   0  0  0  0  0  0  0  0  0  0  0  0
   37.6050   19.7670   31.1260 H   0  0  0  0  0  0  0  0  0  0  0  0
  1  6  1  0  0  0  0
  2  3  1  0  0  0  0
  2  1  2  0  0  0  0
  3  4  2  0  0  0  0
  4  5  1  0  0  0  0
  5  9  1  0  0  0  0
  6  5  2  0  0  0  0
  7  2  1  0  0  0  0
  8  3  1  0  0  0  0
  9 10  1  0  0  0  0
 10 11  1  0  0  0  0
 10 12  2  0  0  0  0
 13 12  1  0  0  0  0
 14 13  2  0  0  0  0
 15 14  1  0  0  0  0
 16 15  2  0  0  0  0
 17 18  2  0  0  0  0
 17 16  1  0  0  0  0
 18 19  1  0  0  0  0
 19  9  2  0  0  0  0
 19 14  1  0  0  0  0
 20  1  1  0  0  0  0
 20 21  1  0  0  0  0
 21 23  1  0  0  0  0
 22 21  1  0  0  0  0
 24 21  1  0  0  0  0
 24 26  1  0  0  0  0
 25 24  1  0  0  0  0
 27 24  1  0  0  0  0
 27 29  1  0  0  0  0
 28 27  1  0  0  0  0
 30 31  1  0  0  0  0
 30 27  1  0  0  0  0
M  END
>  <minimizedAffinity>
-5.08647966

$$$$

 OpenBabel03262521203D

 31 33  0  0  0  0  0  0  0  0999 V2000
   37.4150   26.0600   33.0470 C   0  0  0  0  0  0  0  0  0  0  0  0
   37.1790   25.2750   31.9470 C   0  0  0  0  0  0  0  0  0  0  0  0
   37.3430   23.8820   32.0930 C   0  0  0  0  0  0  0  0  0  0  0  0
   37.7240   23.4050   33.3090 N   0  0  0  0  0  0  0  0  0  0  0  0
   37.9500   24.1970   34.3720 C   0  0  0  0  0  0  0  0  0  0  0  0
   37.7820   25.4770   34.1760 N   0  0  0  0  0  0  0  0  0  0  0  0
   36.8770   25.5170   30.9370 H   0  0  0  0  0  0  0  0  0  0  0  0
   37.1900   23.1690   31.3190 H   0  0  0  0  0  0  0  0  0  0  0  0
   38.3590   23.8750   35.7230 C   0  0  0  0  0  0  0  0  0  0  0  0
   37.6650   24.3030   36.8620 C   0  0  0  0  0  0  0  0  0  0  0  0
   36.7640   24.9160   36.7020 H   0  0  0  0  0  0  0  0  0  0  0  0
   38.0280   24.0160   38.1490 C   0  0  0  0  0  3  0  0  0  0  0  0
   39.1450   23.2550   38.3870 C   0  0  0  0  0  3  0  0  0  0  0  0
   39.8770   22.7980   37.3190 C   0  0  0  0  0  0  0  0  0  0  0  0
   40.9880   22.0420   37.6150 C   0  0  0  0  0  3  0  0  0  0  0  0
   41.7710   21.5530   36.5920 C   0  0  0  0  0  3  0  0  0  0  0  0
   41.3900   21.8550   35.2820 C   0  0  0  0  0  3  0  0  0  0  0  0
   40.2650   22.6170   35.0650 C   0  0  0  0  0  3  0  0  0  0  0  0
   39.4600   23.1220   36.0510 C   0  0  0  0  0  0  0  0  0  0  0  0
   37.2310   27.4050   32.8130 O   0  0  0  0  0  0  0  0  0  0  0  0
   36.1550   27.7940   32.0350 C   0  0  0  0  0  0  0  0  0  0  0  0
   36.2720   27.2950   31.0460 H   0  0  0  0  0  0  0  0  0  0  0  0
   35.1600   27.4640   32.4040 H   0  0  0  0  0  0  0  0  0  0  0  0
   36.3850   29.1230   32.0670 C   0  0  0  0  0  0  0  0  0  0  0  0
   37.2040   29.4550   32.7610 H   0  0  0  0  0  0  0  0  0  0  0  0
   35.5050   29.6540   32.5560 H   0  0  0  0  0  0  0  0  0  0  0  0
   36.6260   29.8380   30.7790 C   0  0  0  0  0  0  0  0  0  0  0  0
   37.3940   30.6290   30.9990 H   0  0  0  0  0  0  0  0  0  0  0  0
   35.7390   30.4290   30.4310 H   0  0  0  0  0  0  0  0  0  0  0  0
   37.3110   28.7860   29.5050 S   0  0  0  0  0  0  0  0  0  0  0  0
   36.4680   27.6670   29.3070 H   0  0  0  0  0  0  0  0  0  0  0  0
  1  6  1  0  0  0  0
  2  3  1  0  0  0  0
  2  1  2  0  0  0  0
  3  4  2  0  0  0  0
  4  5  1  0  0  0  0
  5  9  1  0  0  0  0
  6  5  2  0  0  0  0
  7  2  1  0  0  0  0
  8  3  1  0  0  0  0
  9 19  2  0  0  0  0
  9 10  1  0  0  0  0
 10 12  2  0  0  0  0
 11 10  1  0  0  0  0
 12 13  1  0  0  0  0
 14 15  1  0  0  0  0
 14 13  2  0  0  0  0
 16 15  2  0  0  0  0
 17 16  1  0  0  0  0
 18 17  2  0  0  0  0
 18 19  1  0  0  0  0
 19 14  1  0  0  0  0
 20  1  1  0  0  0  0
 21 24  1  0  0  0  0
 21 23  1  0  0  0  0
 21 20  1  0  0  0  0
 22 21  1  0  0  0  0
 24 26  1  0  0  0  0
 24 25  1  0  0  0  0
 27 28  1  0  0  0  0
 27 24  1  0  0  0  0
 29 27  1  0  0  0  0
 30 27  1  0  0  0  0
 31 30  1  0  0  0  0
M  END
>  <minimizedAffinity>
-5.03173256

$$$$

 OpenBabel03262521203D

 31 33  0  0  0  0  0  0  0  0999 V2000
   36.8480   25.2630   32.4050 C   0  0  0  0  0  0  0  0  0  0  0  0
   36.7730   26.6250   32.2570 C   0  0  0  0  0  0  0  0  0  0  0  0
   37.7000   27.4110   32.9730 C   0  0  0  0  0  0  0  0  0  0  0  0
   38.6060   26.7740   33.7620 N   0  0  0  0  0  0  0  0  0  0  0  0
   38.6580   25.4360   33.8910 C   0  0  0  0  0  0  0  0  0  0  0  0
   37.7760   24.7630   33.2040 N   0  0  0  0  0  0  0  0  0  0  0  0
   36.1140   27.2540   31.6740 H   0  0  0  0  0  0  0  0  0  0  0  0
   37.7450   28.4730   32.9420 H   0  0  0  0  0  0  0  0  0  0  0  0
   39.5370   24.5940   34.6750 C   0  0  0  0  0  0  0  0  0  0  0  0
   40.7610   24.1040   34.2030 C   0  0  0  0  0  0  0  0  0  0  0  0
   41.0540   24.3840   33.1790 H   0  0  0  0  0  0  0  0  0  0  0  0
   41.6090   23.3070   34.9200 C   0  0  0  0  0  3  0  0  0  0  0  0
   41.2770   22.9360   36.1990 C   0  0  0  0  0  3  0  0  0  0  0  0
   40.0910   23.3790   36.7310 C   0  0  0  0  0  0  0  0  0  0  0  0
   39.8070   22.9770   38.0160 C   0  0  0  0  0  3  0  0  0  0  0  0
   38.6330   23.3820   38.6130 C   0  0  0  0  0  3  0  0  0  0  0  0
   37.7750   24.1950   37.8690 C   0  0  0  0  0  3  0  0  0  0  0  0
   38.1270   24.5560   36.5890 C   0  0  0  0  0  3  0  0  0  0  0  0
   39.2830   24.1770   35.9600 C   0  0  0  0  0  0  0  0  0  0  0  0
   35.9080   24.5770   31.6710 O   0  0  0  0  0  0  0  0  0  0  0  0
   36.3000   23.4200   31.0190 C   0  0  0  0  0  0  0  0  0  0  0  0
   36.0650   23.5600   29.9400 H   0  0  0  0  0  0  0  0  0  0  0  0
   37.3900   23.2080   31.0490 H   0  0  0  0  0  0  0  0  0  0  0  0
   35.5130   22.5600   31.6980 C   0  0  0  0  0  0  0  0  0  0  0  0
   34.5850   22.2250   31.1580 H   0  0  0  0  0  0  0  0  0  0  0  0
   35.0280   23.0950   32.5790 H   0  0  0  0  0  0  0  0  0  0  0  0
   36.1270   21.3220   32.2620 C   0  0  0  0  0  0  0  0  0  0  0  0
   35.5500   21.0840   33.1980 H   0  0  0  0  0  0  0  0  0  0  0  0
   37.1720   21.4800   32.6370 H   0  0  0  0  0  0  0  0  0  0  0  0
   35.9780   19.9050   31.1830 S   0  0  0  0  0  0  0  0  0  0  0  0
   36.5350   20.2090   29.9170 H   0  0  0  0  0  0  0  0  0  0  0  0
  1  6  1  0  0  0  0
  2  1  2  0  0  0  0
  2  3  1  0  0  0  0
  3  4  2  0  0  0  0
  4  5  1  0  0  0  0
  5  9  1  0  0  0  0
  6  5  2  0  0  0  0
  7  2  1  0  0  0  0
  8  3  1  0  0  0  0
  9 19  1  0  0  0  0
 10  9  2  0  0  0  0
 10 12  1  0  0  0  0
 11 10  1  0  0  0  0
 12 13  2  0  0  0  0
 13 14  1  0  0  0  0
 14 15  1  0  0  0  0
 15 16  2  0  0  0  0
 17 16  1  0  0  0  0
 18 17  2  0  0  0  0
 19 18  1  0  0  0  0
 19 14  2  0  0  0  0
 20  1  1  0  0  0  0
 21 23  1  0  0  0  0
 21 20  1  0  0  0  0
 21 24  1  0  0  0  0
 22 21  1  0  0  0  0
 24 27  1  0  0  0  0
 24 26  1  0  0  0  0
 25 24  1  0  0  0  0
 27 29  1  0  0  0  0
 27 28  1  0  0  0  0
 30 27  1  0  0  0  0
 31 30  1  0  0  0  0
M  END
>  <minimizedAffinity>
-4.97511768

$$$$

 OpenBabel03262521203D

 31 33  0  0  0  0  0  0  0  0999 V2000
   36.6620   27.8510   33.2160 C   0  0  0  0  0  0  0  0  0  0  0  0
   36.7440   28.1810   31.8870 C   0  0  0  0  0  0  0  0  0  0  0  0
   36.1920   29.4160   31.4870 C   0  0  0  0  0  0  0  0  0  0  0  0
   35.6160   30.2000   32.4380 N   0  0  0  0  0  0  0  0  0  0  0  0
   35.5490   29.8520   33.7350 C   0  0  0  0  0  0  0  0  0  0  0  0
   36.0760   28.6990   34.0450 N   0  0  0  0  0  0  0  0  0  0  0  0
   37.1660   27.6620   31.0370 H   0  0  0  0  0  0  0  0  0  0  0  0
   36.1930   29.7850   30.4890 H   0  0  0  0  0  0  0  0  0  0  0  0
   34.9790   30.5450   34.8730 C   0  0  0  0  0  0  0  0  0  0  0  0
   35.7010   31.4410   35.6700 C   0  0  0  0  0  0  0  0  0  0  0  0
   36.7550   31.6170   35.4040 H   0  0  0  0  0  0  0  0  0  0  0  0
   35.1910   32.1080   36.7500 C   0  0  0  0  0  3  0  0  0  0  0  0
   33.8810   31.9150   37.1120 C   0  0  0  0  0  3  0  0  0  0  0  0
   33.1100   31.0490   36.3760 C   0  0  0  0  0  0  0  0  0  0  0  0
   31.8050   30.8910   36.7850 C   0  0  0  0  0  3  0  0  0  0  0  0
   30.9750   30.0360   36.0940 C   0  0  0  0  0  3  0  0  0  0  0  0
   31.5090   29.3610   34.9940 C   0  0  0  0  0  3  0  0  0  0  0  0
   32.8240   29.5700   34.6460 C   0  0  0  0  0  3  0  0  0  0  0  0
   33.6820   30.4100   35.3040 C   0  0  0  0  0  0  0  0  0  0  0  0
   37.2260   26.6320   33.5160 O   0  0  0  0  0  0  0  0  0  0  0  0
   37.8950   25.9530   32.5130 C   0  0  0  0  0  0  0  0  0  0  0  0
   37.6650   26.4770   31.5570 H   0  0  0  0  0  0  0  0  0  0  0  0
   39.0030   25.9710   32.5870 H   0  0  0  0  0  0  0  0  0  0  0  0
   37.3110   24.7500   32.6930 C   0  0  0  0  0  0  0  0  0  0  0  0
   36.2700   24.7770   33.1170 H   0  0  0  0  0  0  0  0  0  0  0  0
   37.8360   24.1900   33.5340 H   0  0  0  0  0  0  0  0  0  0  0  0
   37.2600   23.8010   31.5430 C   0  0  0  0  0  0  0  0  0  0  0  0
   38.1320   23.1030   31.6720 H   0  0  0  0  0  0  0  0  0  0  0  0
   37.4670   24.2920   30.5560 H   0  0  0  0  0  0  0  0  0  0  0  0
   35.7830   22.7920   31.5250 S   0  0  0  0  0  0  0  0  0  0  0  0
   34.6380   23.6230   31.5400 H   0  0  0  0  0  0  0  0  0  0  0  0
  1 20  1  0  0  0  0
  1  6  1  0  0  0  0
  2  1  2  0  0  0  0
  3  2  1  0  0  0  0
  3  4  2  0  0  0  0
  4  5  1  0  0  0  0
  5  6  2  0  0  0  0
  5  9  1  0  0  0  0
  7  2  1  0  0  0  0
  8  3  1  0  0  0  0
  9 19  2  0  0  0  0
  9 10  1  0  0  0  0
 10 12  2  0  0  0  0
 11 10  1  0  0  0  0
 12 13  1  0  0  0  0
 14 15  1  0  0  0  0
 14 13  2  0  0  0  0
 16 15  2  0  0  0  0
 17 16  1  0  0  0  0
 18 17  2  0  0  0  0
 18 19  1  0  0  0  0
 19 14  1  0  0  0  0
 21 23  1  0  0  0  0
 21 24  1  0  0  0  0
 21 20  1  0  0  0  0
 22 21  1  0  0  0  0
 24 25  1  0  0  0  0
 24 26  1  0  0  0  0
 27 28  1  0  0  0  0
 27 24  1  0  0  0  0
 29 27  1  0  0  0  0
 30 31  1  0  0  0  0
 30 27  1  0  0  0  0
M  END
>  <minimizedAffinity>
-4.95521545

$$$$

 OpenBabel03262521203D

 31 33  0  0  0  0  0  0  0  0999 V2000
   36.6350   27.7820   31.5620 C   0  0  0  0  0  0  0  0  0  0  0  0
   37.0620   28.5340   30.4970 C   0  0  0  0  0  0  0  0  0  0  0  0
   36.4880   29.8110   30.3290 C   0  0  0  0  0  0  0  0  0  0  0  0
   35.5500   30.2160   31.2270 N   0  0  0  0  0  0  0  0  0  0  0  0
   35.1480   29.4590   32.2630 C   0  0  0  0  0  0  0  0  0  0  0  0
   35.7150   28.2880   32.3670 N   0  0  0  0  0  0  0  0  0  0  0  0
   37.7880   28.3390   29.7190 H   0  0  0  0  0  0  0  0  0  0  0  0
   36.7340   30.4880   29.5460 H   0  0  0  0  0  0  0  0  0  0  0  0
   34.1730   29.7160   33.3020 C   0  0  0  0  0  0  0  0  0  0  0  0
   32.8570   29.2400   33.2610 C   0  0  0  0  0  0  0  0  0  0  0  0
   32.5660   28.6390   32.3850 H   0  0  0  0  0  0  0  0  0  0  0  0
   31.9160   29.4670   34.2260 C   0  0  0  0  0  3  0  0  0  0  0  0
   32.2420   30.2120   35.3320 C   0  0  0  0  0  3  0  0  0  0  0  0
   33.5150   30.7120   35.4430 C   0  0  0  0  0  0  0  0  0  0  0  0
   33.7880   31.4530   36.5710 C   0  0  0  0  0  3  0  0  0  0  0  0
   35.0450   31.9880   36.7470 C   0  0  0  0  0  3  0  0  0  0  0  0
   35.9960   31.7490   35.7530 C   0  0  0  0  0  3  0  0  0  0  0  0
   35.6500   30.9990   34.6520 C   0  0  0  0  0  3  0  0  0  0  0  0
   34.4140   30.4480   34.4390 C   0  0  0  0  0  0  0  0  0  0  0  0
   37.2490   26.5530   31.6500 O   0  0  0  0  0  0  0  0  0  0  0  0
   36.5820   25.5310   32.3030 C   0  0  0  0  0  0  0  0  0  0  0  0
   37.3480   24.9440   32.8570 H   0  0  0  0  0  0  0  0  0  0  0  0
   35.8580   25.8600   33.0800 H   0  0  0  0  0  0  0  0  0  0  0  0
   36.0490   24.9430   31.2120 C   0  0  0  0  0  0  0  0  0  0  0  0
   36.5540   25.1830   30.2380 H   0  0  0  0  0  0  0  0  0  0  0  0
   35.0220   25.3860   30.9990 H   0  0  0  0  0  0  0  0  0  0  0  0
   35.8580   23.4630   31.2200 C   0  0  0  0  0  0  0  0  0  0  0  0
   36.0900   23.1110   30.1770 H   0  0  0  0  0  0  0  0  0  0  0  0
   34.7890   23.1560   31.3630 H   0  0  0  0  0  0  0  0  0  0  0  0
   36.9840   22.6110   32.3180 S   0  0  0  0  0  0  0  0  0  0  0  0
   36.8620   23.1390   33.6260 H   0  0  0  0  0  0  0  0  0  0  0  0
  1 20  1  0  0  0  0
  1  6  1  0  0  0  0
  2  1  2  0  0  0  0
  3  2  1  0  0  0  0
  3  4  2  0  0  0  0
  4  5  1  0  0  0  0
  5  6  2  0  0  0  0
  5  9  1  0  0  0  0
  7  2  1  0  0  0  0
  8  3  1  0  0  0  0
  9 19  1  0  0  0  0
 10  9  2  0  0  0  0
 10 12  1  0  0  0  0
 11 10  1  0  0  0  0
 12 13  2  0  0  0  0
 13 14  1  0  0  0  0
 14 15  1  0  0  0  0
 15 16  2  0  0  0  0
 17 16  1  0  0  0  0
 18 17  2  0  0  0  0
 19 18  1  0  0  0  0
 19 14  2  0  0  0  0
 20 21  1  0  0  0  0
 21 22  1  0  0  0  0
 21 23  1  0  0  0  0
 24 27  1  0  0  0  0
 24 21  1  0  0  0  0
 25 24  1  0  0  0  0
 26 24  1  0  0  0  0
 27 29  1  0  0  0  0
 27 30  1  0  0  0  0
 28 27  1  0  0  0  0
 30 31  1  0  0  0  0
M  END
>  <minimizedAffinity>
-4.93504667

$$$$

 OpenBabel03262521203D

 31 33  0  0  0  0  0  0  0  0999 V2000
   38.0510   24.8580   35.1380 C   0  0  0  0  0  0  0  0  0  0  0  0
   38.1590   23.8230   34.2440 C   0  0  0  0  0  0  0  0  0  0  0  0
   37.7480   24.0630   32.9160 C   0  0  0  0  0  0  0  0  0  0  0  0
   37.2720   25.2990   32.6060 N   0  0  0  0  0  0  0  0  0  0  0  0
   37.1750   26.2960   33.5020 C   0  0  0  0  0  0  0  0  0  0  0  0
   37.5700   26.0150   34.7140 N   0  0  0  0  0  0  0  0  0  0  0  0
   38.5140   22.8070   34.3520 H   0  0  0  0  0  0  0  0  0  0  0  0
   37.7840   23.3450   32.1310 H   0  0  0  0  0  0  0  0  0  0  0  0
   36.6950   27.6550   33.3580 C   0  0  0  0  0  0  0  0  0  0  0  0
   36.0920   28.3740   34.3980 C   0  0  0  0  0  0  0  0  0  0  0  0
   35.9860   27.8640   35.3680 H   0  0  0  0  0  0  0  0  0  0  0  0
   35.6300   29.6570   34.2920 C   0  0  0  0  0  3  0  0  0  0  0  0
   35.7450   30.3250   33.0990 C   0  0  0  0  0  3  0  0  0  0  0  0
   36.3270   29.6840   32.0330 C   0  0  0  0  0  0  0  0  0  0  0  0
   36.4150   30.3990   30.8600 C   0  0  0  0  0  3  0  0  0  0  0  0
   36.9850   29.8170   29.7490 C   0  0  0  0  0  3  0  0  0  0  0  0
   37.4520   28.5070   29.8710 C   0  0  0  0  0  3  0  0  0  0  0  0
   37.3290   27.8550   31.0770 C   0  0  0  0  0  3  0  0  0  0  0  0
   36.7710   28.3960   32.2040 C   0  0  0  0  0  0  0  0  0  0  0  0
   38.4750   24.5350   36.4070 O   0  0  0  0  0  0  0  0  0  0  0  0
   38.4410   23.2060   36.7930 C   0  0  0  0  0  0  0  0  0  0  0  0
   37.4280   23.0150   37.2130 H   0  0  0  0  0  0  0  0  0  0  0  0
   38.5500   22.4710   35.9660 H   0  0  0  0  0  0  0  0  0  0  0  0
   39.4590   23.2530   37.6770 C   0  0  0  0  0  0  0  0  0  0  0  0
   39.1590   23.2420   38.7600 H   0  0  0  0  0  0  0  0  0  0  0  0
   39.9570   24.2770   37.6360 H   0  0  0  0  0  0  0  0  0  0  0  0
   40.5640   22.2590   37.5490 C   0  0  0  0  0  0  0  0  0  0  0  0
   40.1000   21.2490   37.7240 H   0  0  0  0  0  0  0  0  0  0  0  0
   41.3260   22.3370   38.3680 H   0  0  0  0  0  0  0  0  0  0  0  0
   41.2940   22.2200   35.9160 S   0  0  0  0  0  0  0  0  0  0  0  0
   41.7420   23.5160   35.5650 H   0  0  0  0  0  0  0  0  0  0  0  0
  1 20  1  0  0  0  0
  2  7  1  0  0  0  0
  2  1  2  0  0  0  0
  3  2  1  0  0  0  0
  4  3  2  0  0  0  0
  4  5  1  0  0  0  0
  5  6  2  0  0  0  0
  6  1  1  0  0  0  0
  8  3  1  0  0  0  0
  9  5  1  0  0  0  0
  9 10  1  0  0  0  0
 10 11  1  0  0  0  0
 12 10  2  0  0  0  0
 13 12  1  0  0  0  0
 14 19  1  0  0  0  0
 14 13  2  0  0  0  0
 15 14  1  0  0  0  0
 16 17  1  0  0  0  0
 16 15  2  0  0  0  0
 17 18  2  0  0  0  0
 18 19  1  0  0  0  0
 19  9  2  0  0  0  0
 20 21  1  0  0  0  0
 21 22  1  0  0  0  0
 21 24  1  0  0  0  0
 23 21  1  0  0  0  0
 24 25  1  0  0  0  0
 26 24  1  0  0  0  0
 27 24  1  0  0  0  0
 27 28  1  0  0  0  0
 27 29  1  0  0  0  0
 30 27  1  0  0  0  0
 31 30  1  0  0  0  0
M  END
>  <minimizedAffinity>
-4.92483664

$$$$
