
 OpenBabel03262522523D

 35 39  0  0  0  0  0  0  0  0999 V2000
   32.8550   27.7120   48.5180 C   0  0  0  0  0  0  0  0  0  0  0  0
   32.8730   26.7180   47.6260 C   0  0  0  0  0  0  0  0  0  0  0  0
   31.6970   26.0390   47.4270 C   0  0  0  0  0  0  0  0  0  0  0  0
   30.5500   26.3480   48.0990 N   0  0  0  0  0  0  0  0  0  0  0  0
   30.6110   27.3740   48.9910 C   0  0  0  0  0  0  0  0  0  0  0  0
   31.7520   28.0110   49.1660 N   0  0  0  0  0  0  0  0  0  0  0  0
   33.7300   26.4200   47.0650 H   0  0  0  0  0  0  0  0  0  0  0  0
   31.6820   25.2220   46.7040 H   0  0  0  0  0  0  0  0  0  0  0  0
   29.3220   27.5930   49.6320 C   0  0  0  0  0  0  0  0  0  0  0  0
   28.9910   26.9610   50.8100 C   0  0  0  0  0  0  0  0  0  0  0  0
   29.6680   26.2700   51.3240 H   0  0  0  0  0  0  0  0  0  0  0  0
   27.8010   27.1120   51.4780 C   0  0  0  0  0  0  0  0  0  0  0  0
   26.8400   27.9450   50.9700 C   0  0  0  0  0  0  0  0  0  0  0  0
   27.1090   28.6060   49.7930 C   0  0  0  0  0  0  0  0  0  0  0  0
   26.1360   29.4390   49.2920 C   0  0  0  0  0  0  0  0  0  0  0  0
   26.3280   30.1280   48.1330 C   0  0  0  0  0  0  0  0  0  0  0  0
   27.5480   29.9510   47.4820 C   0  0  0  0  0  0  0  0  0  0  0  0
   28.4900   29.1060   48.0220 C   0  0  0  0  0  0  0  0  0  0  0  0
   28.3200   28.4030   49.1850 C   0  0  0  0  0  0  0  0  0  0  0  0
   36.0840   30.1660   48.8910 C   0  0  0  0  0  0  0  0  0  0  0  0
   36.0000   29.2470   49.8500 C   0  0  0  0  0  0  0  0  0  0  0  0
   34.9460   28.3560   49.8360 C   0  0  0  0  0  0  0  0  0  0  0  0
   34.0490   28.4920   48.8080 C   0  0  0  0  0  0  0  0  0  0  0  0
   34.7300   29.8920   47.8850 S   0  0  0  0  0  0  0  0  0  0  0  0
   36.7640   29.2030   50.6460 H   0  0  0  0  0  0  0  0  0  0  0  0
   34.7810   27.5690   50.5680 H   0  0  0  0  0  0  0  0  0  0  0  0
   38.0670   33.1780   49.3890 C   0  0  0  0  0  0  0  0  0  0  0  0
   39.0070   33.1310   48.3370 C   0  0  0  0  0  0  0  0  0  0  0  0
   38.9480   32.0370   47.4430 C   0  0  0  0  0  0  0  0  0  0  0  0
   37.9820   31.0900   47.6520 N   0  0  0  0  0  0  0  0  0  0  0  0
   37.1050   31.2060   48.6970 C   0  0  0  0  0  0  0  0  0  0  0  0
   37.1280   32.2190   49.5600 N   0  0  0  0  0  0  0  0  0  0  0  0
   38.0760   34.0000   50.0990 H   0  0  0  0  0  0  0  0  0  0  0  0
   39.7420   33.9180   48.2350 H   0  0  0  0  0  0  0  0  0  0  0  0
   39.6460   31.9760   46.6380 H   0  0  0  0  0  0  0  0  0  0  0  0
  1 23  1  0  0  0  0
  1  6  1  0  0  0  0
  2  1  2  0  0  0  0
  3  2  1  0  0  0  0
  3  4  2  0  0  0  0
  4  5  1  0  0  0  0
  5  6  2  0  0  0  0
  5  9  1  0  0  0  0
  7  2  1  0  0  0  0
  8  3  1  0  0  0  0
  9 10  1  0  0  0  0
 10 11  1  0  0  0  0
 10 12  2  0  0  0  0
 13 12  1  0  0  0  0
 14 13  2  0  0  0  0
 15 14  1  0  0  0  0
 16 15  2  0  0  0  0
 17 18  2  0  0  0  0
 17 16  1  0  0  0  0
 18 19  1  0  0  0  0
 19  9  2  0  0  0  0
 19 14  1  0  0  0  0
 20 21  2  0  0  0  0
 21 25  1  0  0  0  0
 22 21  1  0  0  0  0
 22 26  1  0  0  0  0
 23 22  2  0  0  0  0
 24 23  1  0  0  0  0
 24 20  1  0  0  0  0
 27 32  1  0  0  0  0
 27 33  1  0  0  0  0
 28 27  2  0  0  0  0
 29 30  2  0  0  0  0
 29 28  1  0  0  0  0
 30 31  1  0  0  0  0
 31 20  1  0  0  0  0
 31 32  2  0  0  0  0
 34 28  1  0  0  0  0
 35 29  1  0  0  0  0
M  END
>  <minimizedAffinity>
-8.61961746

>  <minimizedRMSD>
1.16744781

$$$$
