
 OpenBabel03272507133D

 42 47  0  0  0  0  0  0  0  0999 V2000
   35.4820   29.0520   49.9130 C   0  0  0  0  0  0  0  0  0  0  0  0
   34.4700   29.5310   50.6900 C   0  0  0  0  0  0  0  0  0  0  0  0
   33.2830   28.9710   50.2040 C   0  0  0  0  0  0  0  0  0  0  0  0
   33.6750   28.1570   49.1240 C   0  0  0  0  0  0  0  0  0  0  0  0
   34.9630   28.2600   49.0220 O   0  0  0  0  0  0  0  0  0  0  0  0
   34.5100   30.2230   51.5440 H   0  0  0  0  0  0  0  0  0  0  0  0
   32.3190   29.1770   50.6330 H   0  0  0  0  0  0  0  0  0  0  0  0
   33.0960   26.4200   47.4390 C   0  0  0  0  0  0  0  0  0  0  0  0
   32.7200   27.3860   48.3370 C   0  0  0  0  0  0  0  0  0  0  0  0
   31.3810   27.6880   48.5480 C   0  0  0  0  0  0  0  0  0  0  0  0
   30.4300   26.9840   47.8250 C   0  0  0  0  0  0  0  0  0  0  0  0
   29.0870   27.0640   47.8250 N   0  0  0  0  0  0  0  0  0  0  0  0
   28.6480   26.1620   46.9440 N   0  0  0  0  0  0  0  0  0  0  0  0
   29.7000   25.5200   46.3910 C   0  0  0  0  0  0  0  0  0  0  0  0
   30.8730   26.0160   46.9290 C   0  0  0  0  0  0  0  0  0  0  0  0
   32.1960   25.7110   46.7140 C   0  0  0  0  0  0  0  0  0  0  0  0
   34.1570   26.2320   47.3210 H   0  0  0  0  0  0  0  0  0  0  0  0
   30.9960   28.4430   49.2440 H   0  0  0  0  0  0  0  0  0  0  0  0
   28.4920   27.6980   48.3950 H   0  0  0  0  0  0  0  0  0  0  0  0
   29.6370   24.7260   45.6330 H   0  0  0  0  0  0  0  0  0  0  0  0
   32.4600   24.9430   45.9970 H   0  0  0  0  0  0  0  0  0  0  0  0
   36.8560   29.4370   50.1470 C   0  0  0  0  0  0  0  0  0  0  0  0
   37.4930   28.8860   51.0890 O   0  0  0  0  0  0  0  0  0  0  0  0
   37.4310   30.4340   49.2840 C   0  0  0  0  0  0  0  0  0  0  0  0
   38.2090   31.4180   49.8470 C   0  0  0  0  0  0  0  0  0  0  0  0
   38.7890   32.3780   49.0410 C   0  0  0  0  0  0  0  0  0  0  0  0
   38.5400   32.2790   47.6920 N   0  0  0  0  0  0  0  0  0  0  0  0
   37.7920   31.3340   47.1460 C   0  0  0  0  0  0  0  0  0  0  0  0
   37.2580   30.4370   47.9760 N   0  0  0  0  0  0  0  0  0  0  0  0
   38.3620   31.4360   50.9090 H   0  0  0  0  0  0  0  0  0  0  0  0
   39.3950   33.1490   49.4520 H   0  0  0  0  0  0  0  0  0  0  0  0
   37.6950   31.4640   45.7040 C   0  0  0  0  0  0  0  0  0  0  0  0
   36.7510   30.7570   44.9920 C   0  0  0  0  0  0  0  0  0  0  0  0
   36.0460   30.0820   45.4590 H   0  0  0  0  0  0  0  0  0  0  0  0
   36.6080   30.8350   43.6290 C   0  0  0  0  0  3  0  0  0  0  0  0
   37.4210   31.6460   42.8750 C   0  0  0  0  0  3  0  0  0  0  0  0
   38.3810   32.3740   43.5350 C   0  0  0  0  0  0  0  0  0  0  0  0
   39.2060   33.1930   42.7950 C   0  0  0  0  0  3  0  0  0  0  0  0
   40.1900   33.9500   43.3950 C   0  0  0  0  0  3  0  0  0  0  0  0
   40.3130   33.8510   44.7810 C   0  0  0  0  0  3  0  0  0  0  0  0
   39.4630   33.0190   45.4710 C   0  0  0  0  0  3  0  0  0  0  0  0
   38.4770   32.2550   44.8990 C   0  0  0  0  0  0  0  0  0  0  0  0
  1 22  1  0  0  0  0
  1  2  2  0  0  0  0
  2  6  1  0  0  0  0
  3  7  1  0  0  0  0
  3  2  1  0  0  0  0
  4  3  2  0  0  0  0
  5  4  1  0  0  0  0
  5  1  1  0  0  0  0
  8  9  1  0  0  0  0
  9 10  2  0  0  0  0
  9  4  1  0  0  0  0
 10 18  1  0  0  0  0
 11 10  1  0  0  0  0
 12 11  1  0  0  0  0
 12 19  1  0  0  0  0
 13 12  1  0  0  0  0
 14 15  1  0  0  0  0
 14 13  2  0  0  0  0
 15 11  2  0  0  0  0
 16 15  1  0  0  0  0
 16  8  2  0  0  0  0
 17  8  1  0  0  0  0
 20 14  1  0  0  0  0
 21 16  1  0  0  0  0
 22 23  2  0  0  0  0
 24 25  1  0  0  0  0
 24 22  1  0  0  0  0
 25 30  1  0  0  0  0
 26 31  1  0  0  0  0
 26 25  2  0  0  0  0
 27 26  1  0  0  0  0
 28 27  2  0  0  0  0
 28 29  1  0  0  0  0
 29 24  2  0  0  0  0
 32 28  1  0  0  0  0
 33 34  1  0  0  0  0
 33 32  1  0  0  0  0
 35 33  2  0  0  0  0
 36 37  2  0  0  0  0
 36 35  1  0  0  0  0
 37 42  1  0  0  0  0
 38 39  2  0  0  0  0
 38 37  1  0  0  0  0
 39 40  1  0  0  0  0
 40 41  2  0  0  0  0
 42 41  1  0  0  0  0
 42 32  2  0  0  0  0
M  END
>  <minimizedAffinity>
-6.96127987

>  <minimizedRMSD>
0.824946702

$$$$
