
 OpenBabel03272510343D

 30 33  0  0  0  0  0  0  0  0999 V2000
   35.9260   29.7220   48.4550 C   0  0  0  0  0  0  0  0  0  0  0  0
   35.1990   29.6360   47.3040 C   0  0  0  0  0  0  0  0  0  0  0  0
   34.2250   28.6860   47.0980 C   0  0  0  0  0  0  0  0  0  0  0  0
   33.9990   27.7900   48.1320 C   0  0  0  0  0  0  0  0  0  0  0  0
   34.7130   27.8380   49.3190 C   0  0  0  0  0  0  0  0  0  0  0  0
   35.6820   28.8150   49.4730 C   0  0  0  0  0  0  0  0  0  0  0  0
   35.3880   30.3500   46.4980 H   0  0  0  0  0  0  0  0  0  0  0  0
   33.6340   28.5950   46.1990 H   0  0  0  0  0  0  0  0  0  0  0  0
   33.2560   26.9870   48.1030 H   0  0  0  0  0  0  0  0  0  0  0  0
   34.5750   27.1640   50.1530 H   0  0  0  0  0  0  0  0  0  0  0  0
   36.5210   28.9980   50.6640 C   0  0  0  0  0  0  0  0  0  0  0  0
   36.2000   30.1690   51.3600 C   0  0  0  0  0  0  0  0  0  0  0  0
   35.4240   30.8660   51.0640 H   0  0  0  0  0  0  0  0  0  0  0  0
   36.9310   30.4490   52.5090 C   0  0  0  0  0  3  0  0  0  0  0  0
   37.9360   29.6160   52.9580 C   0  0  0  0  0  3  0  0  0  0  0  0
   38.2090   28.4760   52.2330 C   0  0  0  0  0  0  0  0  0  0  0  0
   39.1980   27.5790   52.6040 C   0  0  0  0  0  3  0  0  0  0  0  0
   39.4530   26.4500   51.8650 C   0  0  0  0  0  3  0  0  0  0  0  0
   38.7370   26.1480   50.7150 C   0  0  0  0  0  3  0  0  0  0  0  0
   37.7370   27.0360   50.3220 C   0  0  0  0  0  3  0  0  0  0  0  0
   37.5100   28.1470   51.0770 C   0  0  0  0  0  0  0  0  0  0  0  0
   37.5020   32.8440   49.4540 C   0  0  0  0  0  0  0  0  0  0  0  0
   38.7560   32.8070   48.8300 C   0  0  0  0  0  0  0  0  0  0  0  0
   39.0460   31.6730   48.0530 C   0  0  0  0  0  0  0  0  0  0  0  0
   38.1260   30.6870   47.9420 N   0  0  0  0  0  0  0  0  0  0  0  0
   36.9290   30.7670   48.5620 C   0  0  0  0  0  0  0  0  0  0  0  0
   36.6040   31.8480   49.3250 N   0  0  0  0  0  0  0  0  0  0  0  0
   37.1930   33.6810   50.0730 H   0  0  0  0  0  0  0  0  0  0  0  0
   39.4000   33.6520   48.9950 H   0  0  0  0  0  0  0  0  0  0  0  0
   40.0190   31.6600   47.5780 H   0  0  0  0  0  0  0  0  0  0  0  0
  1 26  1  0  0  0  0
  1  6  1  0  0  0  0
  2  1  2  0  0  0  0
  3  2  1  0  0  0  0
  3  4  2  0  0  0  0
  4  5  1  0  0  0  0
  5  6  2  0  0  0  0
  5 10  1  0  0  0  0
  6 11  1  0  0  0  0
  7  2  1  0  0  0  0
  8  3  1  0  0  0  0
  9  4  1  0  0  0  0
 11 21  2  0  0  0  0
 11 12  1  0  0  0  0
 12 14  2  0  0  0  0
 13 12  1  0  0  0  0
 14 15  1  0  0  0  0
 16 17  1  0  0  0  0
 16 15  2  0  0  0  0
 18 17  2  0  0  0  0
 19 18  1  0  0  0  0
 20 19  2  0  0  0  0
 20 21  1  0  0  0  0
 21 16  1  0  0  0  0
 22 28  1  0  0  0  0
 23 29  1  0  0  0  0
 23 22  2  0  0  0  0
 24 23  1  0  0  0  0
 25 24  2  0  0  0  0
 25 26  1  0  0  0  0
 26 27  2  0  0  0  0
 27 22  1  0  0  0  0
 30 24  1  0  0  0  0
M  END
>  <minimizedAffinity>
3.6768477

>  <minimizedRMSD>
0.737918854

$$$$
