
 OpenBabel03272510023D

 23 25  0  0  0  0  0  0  0  0999 V2000
   38.3320   31.2160   50.4160 C   0  0  0  0  0  0  0  0  0  0  0  0
   38.4650   31.5460   49.0680 C   0  0  0  0  0  0  0  0  0  0  0  0
   37.4810   31.1590   48.1740 C   0  0  0  0  0  0  0  0  0  0  0  0
   36.4400   30.4650   48.7130 N   0  0  0  0  0  0  0  0  0  0  0  0
   36.3150   30.1510   49.9970 C   0  0  0  0  0  0  0  0  0  0  0  0
   37.2690   30.5350   50.8290 N   0  0  0  0  0  0  0  0  0  0  0  0
   39.0980   31.5190   51.1150 H   0  0  0  0  0  0  0  0  0  0  0  0
   39.3610   32.0510   48.7900 H   0  0  0  0  0  0  0  0  0  0  0  0
   37.4510   31.3270   46.7420 C   0  0  0  0  0  0  0  0  0  0  0  0
   38.4510   32.1390   46.1940 C   0  0  0  0  0  0  0  0  0  0  0  0
   39.1880   32.6090   46.8350 H   0  0  0  0  0  0  0  0  0  0  0  0
   38.6010   32.4140   44.8670 C   0  0  0  0  0  3  0  0  0  0  0  0
   37.7220   31.8690   43.9590 C   0  0  0  0  0  3  0  0  0  0  0  0
   36.7260   31.0660   44.4320 C   0  0  0  0  0  0  0  0  0  0  0  0
   35.8500   30.4780   43.5490 C   0  0  0  0  0  3  0  0  0  0  0  0
   34.8420   29.6240   43.9740 C   0  0  0  0  0  3  0  0  0  0  0  0
   34.7630   29.3920   45.3340 C   0  0  0  0  0  3  0  0  0  0  0  0
   35.6410   29.9880   46.1810 C   0  0  0  0  0  3  0  0  0  0  0  0
   36.6230   30.8240   45.7730 C   0  0  0  0  0  0  0  0  0  0  0  0
   35.1220   29.3810   50.4320 C   0  0  0  0  0  0  0  0  0  0  0  0
   35.1580   29.0710   51.7800 F   0  0  0  0  0  0  0  0  0  0  0  0
   33.9510   30.0810   50.1950 F   0  0  0  0  0  0  0  0  0  0  0  0
   34.9790   28.1920   49.7370 F   0  0  0  0  0  0  0  0  0  0  0  0
  1  6  1  0  0  0  0
  1  7  1  0  0  0  0
  2  1  2  0  0  0  0
  3  4  2  0  0  0  0
  3  2  1  0  0  0  0
  4  5  1  0  0  0  0
  5 20  1  0  0  0  0
  5  6  2  0  0  0  0
  8  2  1  0  0  0  0
  9  3  1  0  0  0  0
 10  9  1  0  0  0  0
 10 11  1  0  0  0  0
 12 10  2  0  0  0  0
 13 14  2  0  0  0  0
 13 12  1  0  0  0  0
 14 19  1  0  0  0  0
 15 16  2  0  0  0  0
 15 14  1  0  0  0  0
 16 17  1  0  0  0  0
 17 18  2  0  0  0  0
 19 18  1  0  0  0  0
 19  9  2  0  0  0  0
 20 21  1  0  0  0  0
 22 20  1  0  0  0  0
 23 20  1  0  0  0  0
M  END
>  <minimizedAffinity>
-5.95111847

>  <minimizedRMSD>
0.612262726

$$$$
