
 OpenBabel03272503233D

 32 35  0  0  1  0  0  0  0  0999 V2000
   37.9340   25.0310   33.4950 N   0  0  0  0  0  0  0  0  0  0  0  0
   39.1320   25.1780   34.3110 C   0  0  1  0  0  0  0  0  0  0  0  0
   39.3440   26.6680   34.3060 C   0  0  0  0  0  0  0  0  0  0  0  0
   38.2910   27.2600   33.3730 C   0  0  0  0  0  0  0  0  0  0  0  0
   37.1790   26.2720   33.5540 C   0  0  0  0  0  0  0  0  0  0  0  0
   39.9360   24.7470   33.6960 H   0  0  0  0  0  0  0  0  0  0  0  0
   40.3200   26.9890   33.8920 H   0  0  0  0  0  0  0  0  0  0  0  0
   39.2710   27.0960   35.3230 H   0  0  0  0  0  0  0  0  0  0  0  0
   38.6070   27.3360   32.3350 H   0  0  0  0  0  0  0  0  0  0  0  0
   37.9650   28.2110   33.8470 H   0  0  0  0  0  0  0  0  0  0  0  0
   36.5370   26.3990   34.4080 H   0  0  0  0  0  0  0  0  0  0  0  0
   36.5330   26.3650   32.6440 H   0  0  0  0  0  0  0  0  0  0  0  0
   39.0390   24.5550   35.6160 C   0  0  0  0  0  0  0  0  0  0  0  0
   38.0920   24.8240   36.5820 C   0  0  0  0  0  0  0  0  0  0  0  0
   37.3390   25.5710   36.3730 H   0  0  0  0  0  0  0  0  0  0  0  0
   37.9990   24.2260   37.8230 C   0  0  0  0  0  3  0  0  0  0  0  0
   38.9200   23.2690   38.1540 C   0  0  0  0  0  3  0  0  0  0  0  0
   39.9010   22.9400   37.2410 C   0  0  0  0  0  0  0  0  0  0  0  0
   40.7910   21.9800   37.6310 C   0  0  0  0  0  3  0  0  0  0  0  0
   41.8020   21.5990   36.7760 C   0  0  0  0  0  3  0  0  0  0  0  0
   41.9000   22.1950   35.5330 C   0  0  0  0  0  3  0  0  0  0  0  0
   40.9750   23.1510   35.2070 C   0  0  0  0  0  3  0  0  0  0  0  0
   39.9400   23.5790   36.0140 C   0  0  0  0  0  0  0  0  0  0  0  0
   37.5290   23.9020   32.7420 C   0  0  0  0  0  0  0  0  0  0  0  0
   36.3900   24.0700   31.9410 C   0  0  0  0  0  0  0  0  0  0  0  0
   35.9200   23.0030   31.1740 C   0  0  0  0  0  0  0  0  0  0  0  0
   36.6420   21.8270   31.2710 N   0  0  0  0  0  0  0  0  0  0  0  0
   37.7300   21.7040   32.0500 C   0  0  0  0  0  0  0  0  0  0  0  0
   38.1870   22.7520   32.7990 N   0  0  0  0  0  0  0  0  0  0  0  0
   35.7920   24.9590   31.8290 H   0  0  0  0  0  0  0  0  0  0  0  0
   35.0650   23.0520   30.5440 H   0  0  0  0  0  0  0  0  0  0  0  0
   38.1970   20.7400   32.0330 H   0  0  0  0  0  0  0  0  0  0  0  0
  1  5  1  0  0  0  0
  1  2  1  0  0  0  0
  2  6  1  6  0  0  0
  2 13  1  0  0  0  0
  3  2  1  0  0  0  0
  3  8  1  0  0  0  0
  4  5  1  0  0  0  0
  4 10  1  0  0  0  0
  4  3  1  0  0  0  0
  5 11  1  0  0  0  0
  7  3  1  0  0  0  0
  9  4  1  0  0  0  0
 12  5  1  0  0  0  0
 13 23  2  0  0  0  0
 13 14  1  0  0  0  0
 14 16  2  0  0  0  0
 15 14  1  0  0  0  0
 16 17  1  0  0  0  0
 18 19  1  0  0  0  0
 18 17  2  0  0  0  0
 20 19  2  0  0  0  0
 21 20  1  0  0  0  0
 22 21  2  0  0  0  0
 22 23  1  0  0  0  0
 23 18  1  0  0  0  0
 24 29  1  0  0  0  0
 24  1  1  0  0  0  0
 25 24  2  0  0  0  0
 26 27  2  0  0  0  0
 26 25  1  0  0  0  0
 27 28  1  0  0  0  0
 28 29  2  0  0  0  0
 30 25  1  0  0  0  0
 31 26  1  0  0  0  0
 32 28  1  0  0  0  0
M  END
>  <minimizedAffinity>
-5.89688778

$$$$

 OpenBabel03272503233D

 32 35  0  0  1  0  0  0  0  0999 V2000
   36.4170   27.9670   32.6000 N   0  0  0  0  0  0  0  0  0  0  0  0
   35.9980   29.3610   32.6660 C   0  0  1  0  0  0  0  0  0  0  0  0
   36.0420   29.7780   31.2200 C   0  0  0  0  0  0  0  0  0  0  0  0
   36.6040   28.5960   30.4360 C   0  0  0  0  0  0  0  0  0  0  0  0
   36.1120   27.4540   31.2740 C   0  0  0  0  0  0  0  0  0  0  0  0
   36.8340   29.8750   33.1630 H   0  0  0  0  0  0  0  0  0  0  0  0
   36.7270   30.6240   31.0100 H   0  0  0  0  0  0  0  0  0  0  0  0
   35.0440   30.0740   30.8480 H   0  0  0  0  0  0  0  0  0  0  0  0
   37.6880   28.5970   30.3430 H   0  0  0  0  0  0  0  0  0  0  0  0
   36.0390   28.5670   29.4800 H   0  0  0  0  0  0  0  0  0  0  0  0
   35.1030   27.1200   31.1130 H   0  0  0  0  0  0  0  0  0  0  0  0
   36.7830   26.5890   31.0410 H   0  0  0  0  0  0  0  0  0  0  0  0
   34.7360   29.5690   33.3480 C   0  0  0  0  0  0  0  0  0  0  0  0
   33.5130   29.0490   32.9750 C   0  0  0  0  0  0  0  0  0  0  0  0
   33.4640   28.4300   32.0910 H   0  0  0  0  0  0  0  0  0  0  0  0
   32.3130   29.2410   33.6270 C   0  0  0  0  0  3  0  0  0  0  0  0
   32.3030   30.0150   34.7570 C   0  0  0  0  0  3  0  0  0  0  0  0
   33.4860   30.5710   35.1980 C   0  0  0  0  0  0  0  0  0  0  0  0
   33.4100   31.3340   36.3280 C   0  0  0  0  0  3  0  0  0  0  0  0
   34.5490   31.9270   36.8290 C   0  0  0  0  0  3  0  0  0  0  0  0
   35.7540   31.7380   36.1790 C   0  0  0  0  0  3  0  0  0  0  0  0
   35.7580   30.9620   35.0510 C   0  0  0  0  0  3  0  0  0  0  0  0
   34.6570   30.3410   34.4960 C   0  0  0  0  0  0  0  0  0  0  0  0
   37.0310   27.1960   33.6170 C   0  0  0  0  0  0  0  0  0  0  0  0
   37.4460   27.8970   34.7590 C   0  0  0  0  0  0  0  0  0  0  0  0
   38.0670   27.2090   35.8030 C   0  0  0  0  0  0  0  0  0  0  0  0
   38.2270   25.8480   35.6190 N   0  0  0  0  0  0  0  0  0  0  0  0
   37.8150   25.2120   34.5100 C   0  0  0  0  0  0  0  0  0  0  0  0
   37.2070   25.8880   33.4890 N   0  0  0  0  0  0  0  0  0  0  0  0
   37.3470   28.9510   34.9540 H   0  0  0  0  0  0  0  0  0  0  0  0
   38.4090   27.6700   36.6980 H   0  0  0  0  0  0  0  0  0  0  0  0
   37.9990   24.1560   34.4940 H   0  0  0  0  0  0  0  0  0  0  0  0
  1  2  1  0  0  0  0
  1 24  1  0  0  0  0
  2  6  1  1  0  0  0
  2 13  1  0  0  0  0
  3  2  1  0  0  0  0
  4  3  1  0  0  0  0
  4  5  1  0  0  0  0
  5  1  1  0  0  0  0
  7  3  1  0  0  0  0
  8  3  1  0  0  0  0
  9  4  1  0  0  0  0
 10  4  1  0  0  0  0
 11  5  1  0  0  0  0
 12  5  1  0  0  0  0
 13 23  1  0  0  0  0
 14 13  2  0  0  0  0
 14 16  1  0  0  0  0
 15 14  1  0  0  0  0
 16 17  2  0  0  0  0
 17 18  1  0  0  0  0
 18 19  1  0  0  0  0
 19 20  2  0  0  0  0
 21 20  1  0  0  0  0
 22 21  2  0  0  0  0
 23 22  1  0  0  0  0
 23 18  2  0  0  0  0
 24 25  1  0  0  0  0
 25 30  1  0  0  0  0
 25 26  2  0  0  0  0
 26 31  1  0  0  0  0
 27 26  1  0  0  0  0
 28 27  2  0  0  0  0
 29 24  2  0  0  0  0
 29 28  1  0  0  0  0
 32 28  1  0  0  0  0
M  END
>  <minimizedAffinity>
-5.85530424

$$$$

 OpenBabel03272503233D

 32 35  0  0  1  0  0  0  0  0999 V2000
   38.2920   22.7290   34.6260 N   0  0  0  0  0  0  0  0  0  0  0  0
   38.8370   23.4370   33.4750 C   0  0  1  0  0  0  0  0  0  0  0  0
   38.6010   22.4600   32.3550 C   0  0  0  0  0  0  0  0  0  0  0  0
   38.0290   21.1940   32.9870 C   0  0  0  0  0  0  0  0  0  0  0  0
   37.2960   21.7790   34.1550 C   0  0  0  0  0  0  0  0  0  0  0  0
   39.9230   23.4510   33.6510 H   0  0  0  0  0  0  0  0  0  0  0  0
   39.5220   22.1370   31.8290 H   0  0  0  0  0  0  0  0  0  0  0  0
   37.9220   22.8720   31.5870 H   0  0  0  0  0  0  0  0  0  0  0  0
   38.7810   20.4700   33.2950 H   0  0  0  0  0  0  0  0  0  0  0  0
   37.2630   20.8170   32.2750 H   0  0  0  0  0  0  0  0  0  0  0  0
   36.3110   22.1720   33.9770 H   0  0  0  0  0  0  0  0  0  0  0  0
   37.1870   20.9490   34.8980 H   0  0  0  0  0  0  0  0  0  0  0  0
   38.2900   24.7650   33.2830 C   0  0  0  0  0  0  0  0  0  0  0  0
   38.7700   25.9330   33.8400 C   0  0  0  0  0  0  0  0  0  0  0  0
   39.6330   25.8780   34.4890 H   0  0  0  0  0  0  0  0  0  0  0  0
   38.2540   27.1990   33.6530 C   0  0  0  0  0  3  0  0  0  0  0  0
   37.1610   27.3410   32.8400 C   0  0  0  0  0  3  0  0  0  0  0  0
   36.6200   26.2210   32.2430 C   0  0  0  0  0  0  0  0  0  0  0  0
   35.5300   26.4290   31.4470 C   0  0  0  0  0  3  0  0  0  0  0  0
   34.9310   25.3590   30.8180 C   0  0  0  0  0  3  0  0  0  0  0  0
   35.4440   24.0890   31.0030 C   0  0  0  0  0  3  0  0  0  0  0  0
   36.5380   23.9530   31.8150 C   0  0  0  0  0  3  0  0  0  0  0  0
   37.1850   24.9790   32.4740 C   0  0  0  0  0  0  0  0  0  0  0  0
   38.6420   22.8880   35.9890 C   0  0  0  0  0  0  0  0  0  0  0  0
   37.6850   23.5110   36.8030 C   0  0  0  0  0  0  0  0  0  0  0  0
   37.9570   23.7120   38.1580 C   0  0  0  0  0  0  0  0  0  0  0  0
   39.1890   23.2640   38.6000 N   0  0  0  0  0  0  0  0  0  0  0  0
   40.0790   22.6710   37.7870 C   0  0  0  0  0  0  0  0  0  0  0  0
   39.8100   22.4750   36.4610 N   0  0  0  0  0  0  0  0  0  0  0  0
   36.7160   23.8780   36.5140 H   0  0  0  0  0  0  0  0  0  0  0  0
   37.2840   24.1760   38.8370 H   0  0  0  0  0  0  0  0  0  0  0  0
   40.9960   22.3710   38.2560 H   0  0  0  0  0  0  0  0  0  0  0  0
  1 24  1  0  0  0  0
  2  6  1  1  0  0  0
  2  1  1  0  0  0  0
  3  4  1  0  0  0  0
  3  2  1  0  0  0  0
  4  9  1  0  0  0  0
  4  5  1  0  0  0  0
  5  1  1  0  0  0  0
  5 12  1  0  0  0  0
  7  3  1  0  0  0  0
  8  3  1  0  0  0  0
 10  4  1  0  0  0  0
 11  5  1  0  0  0  0
 13  2  1  0  0  0  0
 13 14  1  0  0  0  0
 14 15  1  0  0  0  0
 16 14  2  0  0  0  0
 17 16  1  0  0  0  0
 18 23  1  0  0  0  0
 18 17  2  0  0  0  0
 19 18  1  0  0  0  0
 20 21  1  0  0  0  0
 20 19  2  0  0  0  0
 21 22  2  0  0  0  0
 22 23  1  0  0  0  0
 23 13  2  0  0  0  0
 24 29  2  0  0  0  0
 24 25  1  0  0  0  0
 25 26  2  0  0  0  0
 26 27  1  0  0  0  0
 26 31  1  0  0  0  0
 28 32  1  0  0  0  0
 28 27  2  0  0  0  0
 29 28  1  0  0  0  0
 30 25  1  0  0  0  0
M  END
>  <minimizedAffinity>
-5.75898075

$$$$

 OpenBabel03272503233D

 32 35  0  0  1  0  0  0  0  0999 V2000
   38.5490   23.9260   35.9280 N   0  0  0  0  0  0  0  0  0  0  0  0
   38.8790   22.6880   35.2360 C   0  0  1  0  0  0  0  0  0  0  0  0
   39.7980   22.0070   36.2140 C   0  0  0  0  0  0  0  0  0  0  0  0
   40.0180   22.9830   37.3660 C   0  0  0  0  0  0  0  0  0  0  0  0
   38.7090   23.7140   37.3580 C   0  0  0  0  0  0  0  0  0  0  0  0
   39.5050   23.0060   34.3900 H   0  0  0  0  0  0  0  0  0  0  0  0
   40.8090   21.7900   35.8150 H   0  0  0  0  0  0  0  0  0  0  0  0
   39.3810   21.0470   36.5690 H   0  0  0  0  0  0  0  0  0  0  0  0
   40.8620   23.6550   37.2280 H   0  0  0  0  0  0  0  0  0  0  0  0
   40.0420   22.3650   38.2890 H   0  0  0  0  0  0  0  0  0  0  0  0
   37.8810   23.2530   37.8660 H   0  0  0  0  0  0  0  0  0  0  0  0
   38.8990   24.6930   37.8670 H   0  0  0  0  0  0  0  0  0  0  0  0
   37.7240   21.9210   34.8130 C   0  0  0  0  0  0  0  0  0  0  0  0
   36.7320   21.4210   35.6320 C   0  0  0  0  0  0  0  0  0  0  0  0
   36.8040   21.5990   36.6960 H   0  0  0  0  0  0  0  0  0  0  0  0
   35.6290   20.6970   35.2290 C   0  0  0  0  0  3  0  0  0  0  0  0
   35.4750   20.4360   33.8930 C   0  0  0  0  0  3  0  0  0  0  0  0
   36.4230   20.9030   33.0070 C   0  0  0  0  0  0  0  0  0  0  0  0
   36.2140   20.6080   31.6900 C   0  0  0  0  0  3  0  0  0  0  0  0
   37.1190   21.0370   30.7430 C   0  0  0  0  0  3  0  0  0  0  0  0
   38.2260   21.7620   31.1410 C   0  0  0  0  0  3  0  0  0  0  0  0
   38.3730   22.0210   32.4780 C   0  0  0  0  0  3  0  0  0  0  0  0
   37.5090   21.6220   33.4760 C   0  0  0  0  0  0  0  0  0  0  0  0
   38.1490   25.1600   35.3600 C   0  0  0  0  0  0  0  0  0  0  0  0
   38.3740   26.3030   36.1410 C   0  0  0  0  0  0  0  0  0  0  0  0
   37.9990   27.5570   35.6550 C   0  0  0  0  0  0  0  0  0  0  0  0
   37.4170   27.5690   34.4000 N   0  0  0  0  0  0  0  0  0  0  0  0
   37.2180   26.4510   33.6820 C   0  0  0  0  0  0  0  0  0  0  0  0
   37.5870   25.2250   34.1600 N   0  0  0  0  0  0  0  0  0  0  0  0
   38.8210   26.3510   37.1190 H   0  0  0  0  0  0  0  0  0  0  0  0
   38.1370   28.4670   36.1870 H   0  0  0  0  0  0  0  0  0  0  0  0
   36.7580   26.6000   32.7250 H   0  0  0  0  0  0  0  0  0  0  0  0
  1  5  1  0  0  0  0
  2  6  1  6  0  0  0
  2  1  1  0  0  0  0
  2  3  1  0  0  0  0
  3  8  1  0  0  0  0
  3  4  1  0  0  0  0
  4 10  1  0  0  0  0
  5  4  1  0  0  0  0
  5 11  1  0  0  0  0
  5 12  1  0  0  0  0
  7  3  1  0  0  0  0
  9  4  1  0  0  0  0
 13  2  1  0  0  0  0
 13 14  1  0  0  0  0
 14 15  1  0  0  0  0
 16 14  2  0  0  0  0
 17 16  1  0  0  0  0
 18 23  1  0  0  0  0
 18 17  2  0  0  0  0
 19 18  1  0  0  0  0
 20 21  1  0  0  0  0
 20 19  2  0  0  0  0
 21 22  2  0  0  0  0
 22 23  1  0  0  0  0
 23 13  2  0  0  0  0
 24  1  1  0  0  0  0
 24 25  1  0  0  0  0
 25 30  1  0  0  0  0
 26 25  2  0  0  0  0
 26 31  1  0  0  0  0
 27 26  1  0  0  0  0
 28 29  1  0  0  0  0
 28 27  2  0  0  0  0
 29 24  2  0  0  0  0
 32 28  1  0  0  0  0
M  END
>  <minimizedAffinity>
-5.6949892

$$$$

 OpenBabel03272503233D

 32 35  0  0  1  0  0  0  0  0999 V2000
   36.9610   25.4550   32.4680 N   0  0  0  0  0  0  0  0  0  0  0  0
   36.1300   24.4510   31.8180 C   0  0  1  0  0  0  0  0  0  0  0  0
   35.3410   25.2740   30.8350 C   0  0  0  0  0  0  0  0  0  0  0  0
   35.7100   26.7330   31.0850 C   0  0  0  0  0  0  0  0  0  0  0  0
   37.1230   26.5800   31.5610 C   0  0  0  0  0  0  0  0  0  0  0  0
   35.4220   24.1340   32.5970 H   0  0  0  0  0  0  0  0  0  0  0  0
   34.2430   25.2190   30.9720 H   0  0  0  0  0  0  0  0  0  0  0  0
   35.5490   24.9760   29.7910 H   0  0  0  0  0  0  0  0  0  0  0  0
   35.0820   27.2320   31.8200 H   0  0  0  0  0  0  0  0  0  0  0  0
   35.7520   27.2130   30.0830 H   0  0  0  0  0  0  0  0  0  0  0  0
   37.8900   26.4830   30.8140 H   0  0  0  0  0  0  0  0  0  0  0  0
   37.3530   27.5060   32.1470 H   0  0  0  0  0  0  0  0  0  0  0  0
   36.8730   23.3380   31.2600 C   0  0  0  0  0  0  0  0  0  0  0  0
   38.0720   23.4170   30.5810 C   0  0  0  0  0  0  0  0  0  0  0  0
   38.5170   24.3910   30.4320 H   0  0  0  0  0  0  0  0  0  0  0  0
   38.7830   22.3580   30.0560 C   0  0  0  0  0  3  0  0  0  0  0  0
   38.2770   21.0940   30.2110 C   0  0  0  0  0  3  0  0  0  0  0  0
   37.0820   20.9290   30.8800 C   0  0  0  0  0  0  0  0  0  0  0  0
   36.6290   19.6460   30.9990 C   0  0  0  0  0  3  0  0  0  0  0  0
   35.4410   19.4000   31.6510 C   0  0  0  0  0  3  0  0  0  0  0  0
   34.7240   20.4580   32.1780 C   0  0  0  0  0  3  0  0  0  0  0  0
   35.2360   21.7180   32.0220 C   0  0  0  0  0  3  0  0  0  0  0  0
   36.4160   22.0350   31.3810 C   0  0  0  0  0  0  0  0  0  0  0  0
   37.5310   25.4040   33.7640 C   0  0  0  0  0  0  0  0  0  0  0  0
   37.5000   26.5980   34.4990 C   0  0  0  0  0  0  0  0  0  0  0  0
   38.0490   26.6330   35.7820 C   0  0  0  0  0  0  0  0  0  0  0  0
   38.5970   25.4470   36.2380 N   0  0  0  0  0  0  0  0  0  0  0  0
   38.6070   24.3230   35.5020 C   0  0  0  0  0  0  0  0  0  0  0  0
   38.0680   24.2920   34.2460 N   0  0  0  0  0  0  0  0  0  0  0  0
   37.0890   27.5450   34.1950 H   0  0  0  0  0  0  0  0  0  0  0  0
   38.0640   27.4980   36.4000 H   0  0  0  0  0  0  0  0  0  0  0  0
   39.0610   23.4740   35.9730 H   0  0  0  0  0  0  0  0  0  0  0  0
  1 24  1  0  0  0  0
  2  1  1  0  0  0  0
  2  6  1  1  0  0  0
  3  7  1  0  0  0  0
  3  4  1  0  0  0  0
  3  2  1  0  0  0  0
  4  5  1  0  0  0  0
  4  9  1  0  0  0  0
  5 12  1  0  0  0  0
  5  1  1  0  0  0  0
  8  3  1  0  0  0  0
 10  4  1  0  0  0  0
 11  5  1  0  0  0  0
 13 23  1  0  0  0  0
 13  2  1  0  0  0  0
 14 13  2  0  0  0  0
 15 14  1  0  0  0  0
 16 17  2  0  0  0  0
 16 14  1  0  0  0  0
 17 18  1  0  0  0  0
 18 19  2  0  0  0  0
 18 23  1  0  0  0  0
 19 20  1  0  0  0  0
 20 21  2  0  0  0  0
 22 21  1  0  0  0  0
 23 22  2  0  0  0  0
 24 29  2  0  0  0  0
 24 25  1  0  0  0  0
 25 26  2  0  0  0  0
 26 27  1  0  0  0  0
 26 31  1  0  0  0  0
 28 32  1  0  0  0  0
 28 27  2  0  0  0  0
 29 28  1  0  0  0  0
 30 25  1  0  0  0  0
M  END
>  <minimizedAffinity>
-5.62432718

$$$$

 OpenBabel03272503233D

 32 35  0  0  1  0  0  0  0  0999 V2000
   38.6600   24.5450   34.4730 N   0  0  0  0  0  0  0  0  0  0  0  0
   38.8460   23.1690   34.0310 C   0  0  1  0  0  0  0  0  0  0  0  0
   40.1790   22.8150   34.6340 C   0  0  0  0  0  0  0  0  0  0  0  0
   40.7160   24.0820   35.2940 C   0  0  0  0  0  0  0  0  0  0  0  0
   39.4330   24.7490   35.6890 C   0  0  0  0  0  0  0  0  0  0  0  0
   39.0060   23.2500   32.9470 H   0  0  0  0  0  0  0  0  0  0  0  0
   40.9490   22.5180   33.8950 H   0  0  0  0  0  0  0  0  0  0  0  0
   40.0940   21.9850   35.3590 H   0  0  0  0  0  0  0  0  0  0  0  0
   41.3170   24.7060   34.6370 H   0  0  0  0  0  0  0  0  0  0  0  0
   41.2140   23.7500   36.2300 H   0  0  0  0  0  0  0  0  0  0  0  0
   38.9710   24.4310   36.6060 H   0  0  0  0  0  0  0  0  0  0  0  0
   39.6740   25.8360   35.8050 H   0  0  0  0  0  0  0  0  0  0  0  0
   37.7450   22.2870   34.3640 C   0  0  0  0  0  0  0  0  0  0  0  0
   37.3250   21.9520   35.6350 C   0  0  0  0  0  0  0  0  0  0  0  0
   37.8540   22.3690   36.4800 H   0  0  0  0  0  0  0  0  0  0  0  0
   36.2730   21.1170   35.9520 C   0  0  0  0  0  3  0  0  0  0  0  0
   35.5570   20.5550   34.9290 C   0  0  0  0  0  3  0  0  0  0  0  0
   35.9130   20.8410   33.6270 C   0  0  0  0  0  0  0  0  0  0  0  0
   35.1630   20.2480   32.6520 C   0  0  0  0  0  3  0  0  0  0  0  0
   35.4580   20.4830   31.3270 C   0  0  0  0  0  3  0  0  0  0  0  0
   36.5110   21.3170   31.0030 C   0  0  0  0  0  3  0  0  0  0  0  0
   37.2220   21.8780   32.0310 C   0  0  0  0  0  3  0  0  0  0  0  0
   36.9810   21.6860   33.3760 C   0  0  0  0  0  0  0  0  0  0  0  0
   37.8830   25.5570   33.8600 C   0  0  0  0  0  0  0  0  0  0  0  0
   37.5470   26.6530   34.6690 C   0  0  0  0  0  0  0  0  0  0  0  0
   36.7760   27.6900   34.1410 C   0  0  0  0  0  0  0  0  0  0  0  0
   36.3940   27.5470   32.8190 N   0  0  0  0  0  0  0  0  0  0  0  0
   36.7370   26.4810   32.0760 C   0  0  0  0  0  0  0  0  0  0  0  0
   37.4930   25.4670   32.5960 N   0  0  0  0  0  0  0  0  0  0  0  0
   37.8150   26.8150   35.6980 H   0  0  0  0  0  0  0  0  0  0  0  0
   36.4810   28.5510   34.6900 H   0  0  0  0  0  0  0  0  0  0  0  0
   36.3770   26.4930   31.0670 H   0  0  0  0  0  0  0  0  0  0  0  0
  1  5  1  0  0  0  0
  2  6  1  6  0  0  0
  2 13  1  0  0  0  0
  2  1  1  0  0  0  0
  2  3  1  0  0  0  0
  3  4  1  0  0  0  0
  3  8  1  0  0  0  0
  4  5  1  0  0  0  0
  4 10  1  0  0  0  0
  5 12  1  0  0  0  0
  5 11  1  0  0  0  0
  7  3  1  0  0  0  0
  9  4  1  0  0  0  0
 13 14  1  0  0  0  0
 14 16  2  0  0  0  0
 14 15  1  0  0  0  0
 17 16  1  0  0  0  0
 18 17  2  0  0  0  0
 19 18  1  0  0  0  0
 20 19  2  0  0  0  0
 21 20  1  0  0  0  0
 21 22  2  0  0  0  0
 22 23  1  0  0  0  0
 23 18  1  0  0  0  0
 23 13  2  0  0  0  0
 24  1  1  0  0  0  0
 24 25  1  0  0  0  0
 25 30  1  0  0  0  0
 26 25  2  0  0  0  0
 26 31  1  0  0  0  0
 27 26  1  0  0  0  0
 28 29  1  0  0  0  0
 28 27  2  0  0  0  0
 29 24  2  0  0  0  0
 32 28  1  0  0  0  0
M  END
>  <minimizedAffinity>
-5.37255287

$$$$

 OpenBabel03272503233D

 32 35  0  0  1  0  0  0  0  0999 V2000
   37.3810   23.3160   32.6270 N   0  0  0  0  0  0  0  0  0  0  0  0
   37.4280   22.3250   33.6940 C   0  0  1  0  0  0  0  0  0  0  0  0
   36.9990   21.0680   32.9860 C   0  0  0  0  0  0  0  0  0  0  0  0
   36.6210   21.4700   31.5630 C   0  0  0  0  0  0  0  0  0  0  0  0
   37.5450   22.6320   31.3540 C   0  0  0  0  0  0  0  0  0  0  0  0
   36.6010   22.6040   34.3630 H   0  0  0  0  0  0  0  0  0  0  0  0
   36.0910   20.5940   33.4090 H   0  0  0  0  0  0  0  0  0  0  0  0
   37.7940   20.3010   32.9940 H   0  0  0  0  0  0  0  0  0  0  0  0
   35.5770   21.7500   31.4410 H   0  0  0  0  0  0  0  0  0  0  0  0
   36.9790   20.6460   30.9090 H   0  0  0  0  0  0  0  0  0  0  0  0
   38.5560   22.4150   31.0570 H   0  0  0  0  0  0  0  0  0  0  0  0
   37.0890   23.2450   30.5350 H   0  0  0  0  0  0  0  0  0  0  0  0
   38.7010   22.2600   34.3850 C   0  0  0  0  0  0  0  0  0  0  0  0
   39.9100   21.8930   33.8330 C   0  0  0  0  0  0  0  0  0  0  0  0
   39.9370   21.6170   32.7880 H   0  0  0  0  0  0  0  0  0  0  0  0
   41.1230   21.8370   34.4880 C   0  0  0  0  0  3  0  0  0  0  0  0
   41.1610   22.1760   35.8150 C   0  0  0  0  0  3  0  0  0  0  0  0
   39.9930   22.5560   36.4420 C   0  0  0  0  0  0  0  0  0  0  0  0
   40.0970   22.8800   37.7650 C   0  0  0  0  0  3  0  0  0  0  0  0
   38.9730   23.2670   38.4630 C   0  0  0  0  0  3  0  0  0  0  0  0
   37.7560   23.3230   37.8110 C   0  0  0  0  0  3  0  0  0  0  0  0
   37.7240   22.9850   36.4840 C   0  0  0  0  0  3  0  0  0  0  0  0
   38.8080   22.5900   35.7280 C   0  0  0  0  0  0  0  0  0  0  0  0
   37.1970   24.7150   32.7470 C   0  0  0  0  0  0  0  0  0  0  0  0
   36.3740   25.3140   31.7830 C   0  0  0  0  0  0  0  0  0  0  0  0
   36.1490   26.6920   31.8270 C   0  0  0  0  0  0  0  0  0  0  0  0
   36.7770   27.3740   32.8530 N   0  0  0  0  0  0  0  0  0  0  0  0
   37.5590   26.7630   33.7590 C   0  0  0  0  0  0  0  0  0  0  0  0
   37.7770   25.4140   33.7130 N   0  0  0  0  0  0  0  0  0  0  0  0
   35.8630   24.8340   30.9660 H   0  0  0  0  0  0  0  0  0  0  0  0
   35.5390   27.2180   31.1330 H   0  0  0  0  0  0  0  0  0  0  0  0
   37.9850   27.4060   34.5020 H   0  0  0  0  0  0  0  0  0  0  0  0
  1 24  1  0  0  0  0
  1  2  1  0  0  0  0
  2  6  1  1  0  0  0
  2 13  1  0  0  0  0
  3  8  1  0  0  0  0
  3  7  1  0  0  0  0
  3  2  1  0  0  0  0
  4  3  1  0  0  0  0
  5  4  1  0  0  0  0
  5  1  1  0  0  0  0
  9  4  1  0  0  0  0
 10  4  1  0  0  0  0
 11  5  1  0  0  0  0
 12  5  1  0  0  0  0
 13 23  1  0  0  0  0
 14 13  2  0  0  0  0
 14 16  1  0  0  0  0
 15 14  1  0  0  0  0
 16 17  2  0  0  0  0
 17 18  1  0  0  0  0
 18 19  1  0  0  0  0
 19 20  2  0  0  0  0
 21 20  1  0  0  0  0
 22 21  2  0  0  0  0
 23 18  2  0  0  0  0
 23 22  1  0  0  0  0
 24 29  1  0  0  0  0
 25 26  1  0  0  0  0
 25 24  2  0  0  0  0
 26 27  2  0  0  0  0
 27 28  1  0  0  0  0
 28 32  1  0  0  0  0
 29 28  2  0  0  0  0
 30 25  1  0  0  0  0
 31 26  1  0  0  0  0
M  END
>  <minimizedAffinity>
-5.30280113

$$$$

 OpenBabel03272503233D

 32 35  0  0  1  0  0  0  0  0999 V2000
   38.5590   23.1160   35.4220 N   0  0  0  0  0  0  0  0  0  0  0  0
   38.1290   24.5030   35.5410 C   0  0  1  0  0  0  0  0  0  0  0  0
   38.1200   24.7100   37.0320 C   0  0  0  0  0  0  0  0  0  0  0  0
   38.4430   23.3610   37.6670 C   0  0  0  0  0  0  0  0  0  0  0  0
   39.3220   22.7650   36.6100 C   0  0  0  0  0  0  0  0  0  0  0  0
   37.0770   24.4910   35.2220 H   0  0  0  0  0  0  0  0  0  0  0  0
   37.1340   25.0020   37.4450 H   0  0  0  0  0  0  0  0  0  0  0  0
   38.8410   25.4880   37.3420 H   0  0  0  0  0  0  0  0  0  0  0  0
   37.5710   22.7430   37.8710 H   0  0  0  0  0  0  0  0  0  0  0  0
   39.0900   23.5840   38.5430 H   0  0  0  0  0  0  0  0  0  0  0  0
   40.3600   23.0480   36.6100 H   0  0  0  0  0  0  0  0  0  0  0  0
   39.2860   21.6570   36.7670 H   0  0  0  0  0  0  0  0  0  0  0  0
   38.9290   25.4380   34.7760 C   0  0  0  0  0  0  0  0  0  0  0  0
   40.1970   25.8790   35.0960 C   0  0  0  0  0  0  0  0  0  0  0  0
   40.6570   25.5110   36.0030 H   0  0  0  0  0  0  0  0  0  0  0  0
   40.9620   26.7640   34.3650 C   0  0  0  0  0  3  0  0  0  0  0  0
   40.4400   27.2690   33.2030 C   0  0  0  0  0  3  0  0  0  0  0  0
   39.1770   26.8770   32.8110 C   0  0  0  0  0  0  0  0  0  0  0  0
   38.7120   27.4170   31.6460 C   0  0  0  0  0  3  0  0  0  0  0  0
   37.4580   27.0760   31.1890 C   0  0  0  0  0  3  0  0  0  0  0  0
   36.6870   26.1900   31.9180 C   0  0  0  0  0  3  0  0  0  0  0  0
   37.2150   25.6880   33.0780 C   0  0  0  0  0  3  0  0  0  0  0  0
   38.4600   25.9860   33.5920 C   0  0  0  0  0  0  0  0  0  0  0  0
   38.2990   22.2130   34.3630 C   0  0  0  0  0  0  0  0  0  0  0  0
   39.4080   21.8210   33.5990 C   0  0  0  0  0  0  0  0  0  0  0  0
   39.2340   20.9390   32.5310 C   0  0  0  0  0  0  0  0  0  0  0  0
   37.9390   20.5100   32.3060 N   0  0  0  0  0  0  0  0  0  0  0  0
   36.9010   20.9090   33.0610 C   0  0  0  0  0  0  0  0  0  0  0  0
   37.0750   21.7720   34.1070 N   0  0  0  0  0  0  0  0  0  0  0  0
   40.4330   22.1230   33.7280 H   0  0  0  0  0  0  0  0  0  0  0  0
   40.0240   20.5970   31.9070 H   0  0  0  0  0  0  0  0  0  0  0  0
   35.9500   20.5020   32.7810 H   0  0  0  0  0  0  0  0  0  0  0  0
  1  2  1  0  0  0  0
  1  5  1  0  0  0  0
  2  6  1  6  0  0  0
  2  3  1  0  0  0  0
  3  8  1  0  0  0  0
  3  7  1  0  0  0  0
  3  4  1  0  0  0  0
  4  9  1  0  0  0  0
  4 10  1  0  0  0  0
  5 11  1  0  0  0  0
  5 12  1  0  0  0  0
  5  4  1  0  0  0  0
 13 14  1  0  0  0  0
 13  2  1  0  0  0  0
 14 15  1  0  0  0  0
 16 14  2  0  0  0  0
 17 16  1  0  0  0  0
 18 17  2  0  0  0  0
 18 23  1  0  0  0  0
 19 18  1  0  0  0  0
 20 19  2  0  0  0  0
 20 21  1  0  0  0  0
 21 22  2  0  0  0  0
 22 23  1  0  0  0  0
 23 13  2  0  0  0  0
 24  1  1  0  0  0  0
 25 30  1  0  0  0  0
 25 24  2  0  0  0  0
 26 25  1  0  0  0  0
 27 26  2  0  0  0  0
 27 28  1  0  0  0  0
 28 29  2  0  0  0  0
 29 24  1  0  0  0  0
 31 26  1  0  0  0  0
 32 28  1  0  0  0  0
M  END
>  <minimizedAffinity>
-5.2781415

$$$$

 OpenBabel03272503233D

 32 35  0  0  1  0  0  0  0  0999 V2000
   36.4010   29.3190   31.8450 N   0  0  0  0  0  0  0  0  0  0  0  0
   35.9850   30.3460   32.7910 C   0  0  1  0  0  0  0  0  0  0  0  0
   36.1690   31.6100   31.9940 C   0  0  0  0  0  0  0  0  0  0  0  0
   36.7990   31.2060   30.6640 C   0  0  0  0  0  0  0  0  0  0  0  0
   36.2220   29.8320   30.4960 C   0  0  0  0  0  0  0  0  0  0  0  0
   36.7710   30.3450   33.5590 H   0  0  0  0  0  0  0  0  0  0  0  0
   36.8750   32.3350   32.4460 H   0  0  0  0  0  0  0  0  0  0  0  0
   35.2140   32.1450   31.8450 H   0  0  0  0  0  0  0  0  0  0  0  0
   37.8860   31.1960   30.6700 H   0  0  0  0  0  0  0  0  0  0  0  0
   36.3270   31.8550   29.8940 H   0  0  0  0  0  0  0  0  0  0  0  0
   35.2320   29.7570   30.0850 H   0  0  0  0  0  0  0  0  0  0  0  0
   36.9080   29.2940   29.7940 H   0  0  0  0  0  0  0  0  0  0  0  0
   34.6640   30.1360   33.3490 C   0  0  0  0  0  0  0  0  0  0  0  0
   33.6270   29.4470   32.7550 C   0  0  0  0  0  0  0  0  0  0  0  0
   33.7880   29.0180   31.7760 H   0  0  0  0  0  0  0  0  0  0  0  0
   32.3720   29.2410   33.2890 C   0  0  0  0  0  3  0  0  0  0  0  0
   32.1000   29.7570   34.5280 C   0  0  0  0  0  3  0  0  0  0  0  0
   33.0850   30.4600   35.1910 C   0  0  0  0  0  0  0  0  0  0  0  0
   32.7510   30.9510   36.4210 C   0  0  0  0  0  3  0  0  0  0  0  0
   33.6800   31.6670   37.1450 C   0  0  0  0  0  3  0  0  0  0  0  0
   34.9380   31.8760   36.6140 C   0  0  0  0  0  3  0  0  0  0  0  0
   35.2050   31.3560   35.3750 C   0  0  0  0  0  3  0  0  0  0  0  0
   34.3230   30.6330   34.5990 C   0  0  0  0  0  0  0  0  0  0  0  0
   36.9100   28.0290   32.1320 C   0  0  0  0  0  0  0  0  0  0  0  0
   37.5990   27.3920   31.0900 C   0  0  0  0  0  0  0  0  0  0  0  0
   38.1250   26.1140   31.2900 C   0  0  0  0  0  0  0  0  0  0  0  0
   37.9160   25.5640   32.5420 N   0  0  0  0  0  0  0  0  0  0  0  0
   37.2490   26.2070   33.5150 C   0  0  0  0  0  0  0  0  0  0  0  0
   36.7360   27.4580   33.3160 N   0  0  0  0  0  0  0  0  0  0  0  0
   37.7910   27.7710   30.1010 H   0  0  0  0  0  0  0  0  0  0  0  0
   38.6590   25.5680   30.5510 H   0  0  0  0  0  0  0  0  0  0  0  0
   37.1580   25.6690   34.4380 H   0  0  0  0  0  0  0  0  0  0  0  0
  1 24  1  0  0  0  0
  1  2  1  0  0  0  0
  2 13  1  0  0  0  0
  2  6  1  1  0  0  0
  3  7  1  0  0  0  0
  3  2  1  0  0  0  0
  4  9  1  0  0  0  0
  4  3  1  0  0  0  0
  5  4  1  0  0  0  0
  5  1  1  0  0  0  0
  8  3  1  0  0  0  0
 10  4  1  0  0  0  0
 11  5  1  0  0  0  0
 12  5  1  0  0  0  0
 13 23  1  0  0  0  0
 14 16  1  0  0  0  0
 14 13  2  0  0  0  0
 15 14  1  0  0  0  0
 16 17  2  0  0  0  0
 17 18  1  0  0  0  0
 18 19  1  0  0  0  0
 19 20  2  0  0  0  0
 21 20  1  0  0  0  0
 22 21  2  0  0  0  0
 23 18  2  0  0  0  0
 23 22  1  0  0  0  0
 24 29  1  0  0  0  0
 25 26  1  0  0  0  0
 25 24  2  0  0  0  0
 26 27  2  0  0  0  0
 27 28  1  0  0  0  0
 28 32  1  0  0  0  0
 29 28  2  0  0  0  0
 30 25  1  0  0  0  0
 31 26  1  0  0  0  0
M  END
>  <minimizedAffinity>
-5.24172401

$$$$
