REMARK  Name = 
REMARK  3 active torsions:
REMARK  status: ('A' for Active; 'I' for Inactive)
REMARK    1  A    between atoms: N_1  and  C_16
REMARK    2  A    between atoms: C_4  and  C_8
REMARK    3  A    between atoms: C_20  and  C_38
REMARK                            x       y       z     vdW  Elec       q    Type
REMARK                         _______ _______ _______ _____ _____    ______ ____
ROOT
ATOM      1  N   UNL     1      32.701  28.214  47.436  0.00  0.00    +0.000 N 
ATOM      2  C   UNL     1      33.295  27.766  48.645  0.00  0.00    +0.000 C 
ATOM      3  C   UNL     1      34.477  28.519  49.141  0.00  0.00    +0.000 C 
ATOM      4  C   UNL     1      35.414  29.006  48.131  0.00  0.00    +0.000 C 
ATOM      5  C   UNL     1      34.724  29.399  46.816  0.00  0.00    +0.000 C 
ATOM      6  C   UNL     1      33.753  28.270  46.448  0.00  0.00    +0.000 C 
ATOM      7  H   UNL     1      33.624  26.710  48.488  0.00  0.00    +0.000 HD
ATOM      8  H   UNL     1      32.562  27.700  49.481  0.00  0.00    +0.000 HD
ATOM      9  H   UNL     1      34.940  27.990  49.971  0.00  0.00    +0.000 HD
ATOM     10  H   UNL     1      33.983  29.446  49.588  0.00  0.00    +0.000 HD
ATOM     11  H   UNL     1      36.152  28.224  47.795  0.00  0.00    +0.000 HD
ATOM     12  H   UNL     1      35.468  29.416  46.007  0.00  0.00    +0.000 HD
ATOM     13  H   UNL     1      34.144  30.315  46.912  0.00  0.00    +0.000 HD
ATOM     14  H   UNL     1      33.278  28.550  45.486  0.00  0.00    +0.000 HD
ATOM     15  H   UNL     1      34.282  27.304  46.313  0.00  0.00    +0.000 HD
ENDROOT
BRANCH   4  17
ATOM     16  C   UNL     1      35.944  30.738  49.780  0.00  0.00    +0.000 A 
ATOM     17  C   UNL     1      36.193  30.205  48.530  0.00  0.00    +0.000 A 
ATOM     18  C   UNL     1      37.093  30.735  47.643  0.00  0.00    +0.000 A 
ATOM     19  C   UNL     1      37.791  31.874  48.029  0.00  0.00    +0.000 A 
ATOM     20  C   UNL     1      37.542  32.406  49.275  0.00  0.00    +0.000 A 
ATOM     21  C   UNL     1      36.633  31.872  50.175  0.00  0.00    +0.000 A 
ATOM     22  O   UNL     1      38.341  33.549  49.475  0.00  0.00    +0.000 OA
ATOM     23  C   UNL     1      39.333  33.476  48.460  0.00  0.00    +0.000 C 
ATOM     24  O   UNL     1      38.761  32.694  47.441  0.00  0.00    +0.000 OA
ATOM     25  H   UNL     1      35.277  30.408  50.564  0.00  0.00    +0.000 HD
ATOM     26  H   UNL     1      37.265  30.304  46.687  0.00  0.00    +0.000 HD
ATOM     27  H   UNL     1      36.489  32.355  51.156  0.00  0.00    +0.000 HD
ATOM     28  H   UNL     1      39.582  34.484  48.072  0.00  0.00    +0.000 HD
ATOM     29  H   UNL     1      40.240  32.972  48.890  0.00  0.00    +0.000 HD
ENDBRANCH   4  17
BRANCH   1  30
ATOM     30  C   UNL     1      31.348  28.550  47.190  0.00  0.00    +0.000 A 
ATOM     31  C   UNL     1      30.871  29.343  46.157  0.00  0.00    +0.000 A 
ATOM     32  C   UNL     1      29.498  29.551  46.106  0.00  0.00    +0.000 A 
ATOM     33  N   UNL     1      28.695  28.979  47.057  0.00  0.00    +0.000 NA
ATOM     34  C   UNL     1      29.196  28.216  48.045  0.00  0.00    +0.000 A 
ATOM     35  N   UNL     1      30.479  28.047  48.055  0.00  0.00    +0.000 NA
ATOM     36  H   UNL     1      31.602  29.731  45.479  0.00  0.00    +0.000 HD
ATOM     37  H   UNL     1      29.122  30.155  45.320  0.00  0.00    +0.000 HD
BRANCH  34  38
ATOM     38  C   UNL     1      28.143  27.733  48.921  0.00  0.00    +0.000 A 
ATOM     39  C   UNL     1      27.470  26.555  48.666  0.00  0.00    +0.000 A 
ATOM     40  H   UNL     1      27.691  25.934  47.803  0.00  0.00    +0.000 HD
ATOM     41  C   UNL     1      26.464  26.040  49.454  0.00  0.00    +0.000 A 
ATOM     42  C   UNL     1      26.067  26.710  50.585  0.00  0.00    +0.000 A 
ATOM     43  C   UNL     1      26.697  27.879  50.886  0.00  0.00    +0.000 A 
ATOM     44  C   UNL     1      26.290  28.539  52.024  0.00  0.00    +0.000 A 
ATOM     45  C   UNL     1      26.878  29.730  52.404  0.00  0.00    +0.000 A 
ATOM     46  C   UNL     1      27.884  30.205  51.579  0.00  0.00    +0.000 A 
ATOM     47  C   UNL     1      28.259  29.522  50.459  0.00  0.00    +0.000 A 
ATOM     48  C   UNL     1      27.697  28.349  50.064  0.00  0.00    +0.000 A 
ENDBRANCH  34  38
ENDBRANCH   1  30
TORSDOF 3
