
 OpenBabel03272509253D

 26 28  0  0  0  0  0  0  0  0999 V2000
   37.6770   31.8070   47.3790 C   0  0  0  0  0  0  0  0  0  0  0  0
   36.6710   31.4190   47.1340 H   0  0  0  0  0  0  0  0  0  0  0  0
   37.6030   32.7440   47.9810 H   0  0  0  0  0  0  0  0  0  0  0  0
   38.4830   32.1490   46.1620 C   0  0  0  0  0  0  0  0  0  0  0  0
   39.6760   32.8690   46.2170 C   0  0  0  0  0  0  0  0  0  0  0  0
   40.0210   33.2120   47.2010 H   0  0  0  0  0  0  0  0  0  0  0  0
   40.3660   33.1210   45.0540 C   0  0  0  0  0  3  0  0  0  0  0  0
   39.9470   32.6980   43.8110 C   0  0  0  0  0  3  0  0  0  0  0  0
   38.7650   31.9860   43.7560 C   0  0  0  0  0  0  0  0  0  0  0  0
   38.3280   31.5620   42.5180 C   0  0  0  0  0  3  0  0  0  0  0  0
   37.1430   30.8470   42.3980 C   0  0  0  0  0  3  0  0  0  0  0  0
   36.4000   30.5610   43.5350 C   0  0  0  0  0  3  0  0  0  0  0  0
   36.8880   31.0140   44.7640 C   0  0  0  0  0  3  0  0  0  0  0  0
   38.0700   31.7310   44.9150 C   0  0  0  0  0  0  0  0  0  0  0  0
   38.4990   30.7970   48.1790 C   0  0  0  0  0  0  0  0  0  0  0  0
   39.3310   31.3930   48.6720 H   0  0  0  0  0  0  0  0  0  0  0  0
   38.8760   29.9610   47.6060 H   0  0  0  0  0  0  0  0  0  0  0  0
   37.0950   30.0460   51.6240 C   0  0  0  0  0  0  0  0  0  0  0  0
   37.9720   30.5740   50.6590 C   0  0  0  0  0  0  0  0  0  0  0  0
   37.6790   30.3140   49.3340 C   0  0  0  0  0  0  0  0  0  0  0  0
   36.5680   29.5680   49.0400 N   0  0  0  0  0  0  0  0  0  0  0  0
   35.7530   29.0800   49.9880 C   0  0  0  0  0  0  0  0  0  0  0  0
   36.0150   29.3190   51.2860 N   0  0  0  0  0  0  0  0  0  0  0  0
   37.3150   30.2450   52.6630 H   0  0  0  0  0  0  0  0  0  0  0  0
   38.8420   31.1600   50.8920 H   0  0  0  0  0  0  0  0  0  0  0  0
   34.9180   28.5080   49.5780 H   0  0  0  0  0  0  0  0  0  0  0  0
  1  3  1  0  0  0  0
  1 15  1  0  0  0  0
  2  1  1  0  0  0  0
  4  5  1  0  0  0  0
  4  1  1  0  0  0  0
  5  6  1  0  0  0  0
  7  5  2  0  0  0  0
  8  7  1  0  0  0  0
  9  8  2  0  0  0  0
  9 14  1  0  0  0  0
 10  9  1  0  0  0  0
 11 10  2  0  0  0  0
 11 12  1  0  0  0  0
 12 13  2  0  0  0  0
 13 14  1  0  0  0  0
 14  4  2  0  0  0  0
 15 16  1  0  0  0  0
 15 20  1  0  0  0  0
 17 15  1  0  0  0  0
 18 24  1  0  0  0  0
 19 25  1  0  0  0  0
 19 18  2  0  0  0  0
 20 19  1  0  0  0  0
 21 20  2  0  0  0  0
 21 22  1  0  0  0  0
 22 23  2  0  0  0  0
 23 18  1  0  0  0  0
 26 22  1  0  0  0  0
M  END
>  <minimizedAffinity>
-5.31242943

>  <minimizedRMSD>
1.3037852

$$$$
