
 OpenBabel03272510273D

 47 52  0  0  1  0  0  0  0  0999 V2000
   39.6970   31.8150   41.9090 N   0  0  0  0  0  0  0  0  0  0  0  0
   39.3360   33.2300   41.9930 C   0  0  1  0  0  0  0  0  0  0  0  0
   37.9620   33.4160   41.5500 C   0  0  0  0  0  0  0  0  0  0  0  0
   37.8610   33.0600   40.1960 O   0  0  0  0  0  0  0  0  0  0  0  0
   38.3110   31.7930   39.8960 C   0  0  0  0  0  0  0  0  0  0  0  0
   39.6840   31.5400   40.4880 C   0  0  2  0  0  0  0  0  0  0  0  0
   39.0120   31.1790   42.2940 H   0  0  0  0  0  0  0  0  0  0  0  0
   40.0390   33.7480   41.3130 H   0  0  0  0  0  0  0  0  0  0  0  0
   37.7650   34.5330   41.5360 H   0  0  0  0  0  0  0  0  0  0  0  0
   37.1090   32.9720   41.9890 H   0  0  0  0  0  0  0  0  0  0  0  0
   38.3660   31.7200   38.8060 H   0  0  0  0  0  0  0  0  0  0  0  0
   37.6180   31.0550   40.3570 H   0  0  0  0  0  0  0  0  0  0  0  0
   40.3800   32.3040   40.0770 H   0  0  0  0  0  0  0  0  0  0  0  0
   40.1040   30.1580   40.2770 C   0  0  0  0  0  0  0  0  0  0  0  0
   40.8430   29.6620   39.2380 C   0  0  0  0  0  0  0  0  0  0  0  0
   41.1850   30.3280   38.4600 H   0  0  0  0  0  0  0  0  0  0  0  0
   41.2230   28.3500   39.0540 C   0  0  0  0  0  3  0  0  0  0  0  0
   40.8400   27.4120   39.9900 C   0  0  0  0  0  3  0  0  0  0  0  0
   40.0930   27.8490   41.0630 C   0  0  0  0  0  0  0  0  0  0  0  0
   39.7380   26.8730   41.9700 C   0  0  0  0  0  3  0  0  0  0  0  0
   38.9920   27.2170   43.0780 C   0  0  0  0  0  3  0  0  0  0  0  0
   38.6140   28.5320   43.2560 C   0  0  0  0  0  3  0  0  0  0  0  0
   38.9970   29.4450   42.3250 C   0  0  0  0  0  3  0  0  0  0  0  0
   39.7400   29.1930   41.1910 C   0  0  0  0  0  0  0  0  0  0  0  0
   39.4880   33.5990   43.3540 O   0  0  0  0  0  0  0  0  0  0  0  0
   36.2130   30.2350   46.9260 C   0  0  0  0  0  0  0  0  0  0  0  0
   37.0680   30.7550   47.8790 C   0  0  0  0  0  0  0  0  0  0  0  0
   38.0870   31.6530   47.5260 C   0  0  0  0  0  0  0  0  0  0  0  0
   38.1660   31.9720   46.1760 C   0  0  0  0  0  0  0  0  0  0  0  0
   39.0680   32.8250   45.5870 N   0  0  0  0  0  0  0  0  0  0  0  0
   38.7730   32.8330   44.2760 C   0  0  0  0  0  0  0  0  0  0  0  0
   37.7530   32.0390   44.0470 N   0  0  0  0  0  0  0  0  0  0  0  0
   37.3400   31.4820   45.1960 C   0  0  0  0  0  0  0  0  0  0  0  0
   36.3360   30.5860   45.5890 C   0  0  0  0  0  0  0  0  0  0  0  0
   35.4160   29.5420   47.1500 H   0  0  0  0  0  0  0  0  0  0  0  0
   38.7600   32.0640   48.2610 H   0  0  0  0  0  0  0  0  0  0  0  0
   39.8300   33.3550   46.0840 H   0  0  0  0  0  0  0  0  0  0  0  0
   35.6810   30.1960   44.8210 H   0  0  0  0  0  0  0  0  0  0  0  0
   37.4620   30.1350   51.5710 C   0  0  0  0  0  0  0  0  0  0  0  0
   37.7730   30.5820   50.2900 C   0  0  0  0  0  0  0  0  0  0  0  0
   36.8930   30.3550   49.2620 C   0  0  0  0  0  0  0  0  0  0  0  0
   35.7280   29.6830   49.5670 N   0  0  0  0  0  0  0  0  0  0  0  0
   35.4360   29.2540   50.8100 C   0  0  0  0  0  0  0  0  0  0  0  0
   36.2910   29.4780   51.7900 N   0  0  0  0  0  0  0  0  0  0  0  0
   38.1780   30.3310   52.3560 H   0  0  0  0  0  0  0  0  0  0  0  0
   38.6770   31.1030   50.0550 H   0  0  0  0  0  0  0  0  0  0  0  0
   34.4900   28.7330   50.9470 H   0  0  0  0  0  0  0  0  0  0  0  0
  1  2  1  0  0  0  0
  1  7  1  0  0  0  0
  2  8  1  6  0  0  0
  2 25  1  0  0  0  0
  3 10  1  0  0  0  0
  3  2  1  0  0  0  0
  4  3  1  0  0  0  0
  5  4  1  0  0  0  0
  5 12  1  0  0  0  0
  5  6  1  0  0  0  0
  6 13  1  6  0  0  0
  6  1  1  0  0  0  0
  9  3  1  0  0  0  0
 11  5  1  0  0  0  0
 14  6  1  0  0  0  0
 14 24  1  0  0  0  0
 15 14  2  0  0  0  0
 16 15  1  0  0  0  0
 17 15  1  0  0  0  0
 17 18  2  0  0  0  0
 18 19  1  0  0  0  0
 19 24  2  0  0  0  0
 19 20  1  0  0  0  0
 20 21  2  0  0  0  0
 21 22  1  0  0  0  0
 23 22  2  0  0  0  0
 24 23  1  0  0  0  0
 25 31  1  0  0  0  0
 26 35  1  0  0  0  0
 26 27  1  0  0  0  0
 27 41  1  0  0  0  0
 28 27  2  0  0  0  0
 28 36  1  0  0  0  0
 29 28  1  0  0  0  0
 30 37  1  0  0  0  0
 30 29  1  0  0  0  0
 31 30  1  0  0  0  0
 32 31  2  0  0  0  0
 32 33  1  0  0  0  0
 33 34  1  0  0  0  0
 33 29  2  0  0  0  0
 34 26  2  0  0  0  0
 38 34  1  0  0  0  0
 39 44  1  0  0  0  0
 39 45  1  0  0  0  0
 40 39  2  0  0  0  0
 41 42  2  0  0  0  0
 41 40  1  0  0  0  0
 42 43  1  0  0  0  0
 43 47  1  0  0  0  0
 43 44  2  0  0  0  0
 46 40  1  0  0  0  0
M  END
>  <minimizedAffinity>
-6.79084015

>  <minimizedRMSD>
0.878636777

$$$$
