
     RDKit          3D

 50 54  0  0  0  0  0  0  0  0999 V2000
   34.6273   30.0464   45.6584 N   0  0  0  0  0  0  0  0  0  0  0  0
   35.0348   30.0686   47.0600 C   0  0  0  0  0  0  0  0  0  0  0  0
   36.2709   30.8019   47.3270 C   0  0  2  0  0  0  0  0  0  0  0  0
   37.3312   30.4978   46.3255 N   0  0  0  0  0  0  0  0  0  0  0  0
   36.7556   30.7660   44.9936 C   0  0  0  0  0  0  0  0  0  0  0  0
   35.7246   29.6696   44.8379 C   0  0  0  0  0  0  0  0  0  0  0  0
   33.3102   30.3512   45.2404 C   0  0  0  0  0  0  0  0  0  0  0  0
   33.0477   31.0653   44.0652 C   0  0  0  0  0  0  0  0  0  0  0  0
   31.7280   31.3206   43.7257 C   0  0  0  0  0  0  0  0  0  0  0  0
   30.7319   30.8533   44.5714 N   0  0  0  0  0  0  0  0  0  0  0  0
   31.0373   30.1688   45.6940 C   0  0  0  0  0  0  0  0  0  0  0  0
   32.2938   29.9161   46.0334 N   0  0  0  0  0  0  0  0  0  0  0  0
   38.2384   32.7274   48.4452 Cl  0  0  0  0  0  0  0  0  0  0  0  0
   37.6596   31.3002   49.3057 C   0  0  0  0  0  0  0  0  0  0  0  0
   36.7711   30.4867   48.6538 C   0  0  0  0  0  0  0  0  0  0  0  0
   36.2182   29.3188   49.2063 C   0  0  0  0  0  0  0  0  0  0  0  0
   36.6424   29.0130   50.5078 C   0  0  0  0  0  0  0  0  0  0  0  0
   37.5528   29.8375   51.1802 C   0  0  0  0  0  0  0  0  0  0  0  0
   38.0421   30.9610   50.5713 C   0  0  0  0  0  0  0  0  0  0  0  0
   34.1879   30.4013   47.6533 H   0  0  0  0  0  0  0  0  0  0  0  0
   35.2748   28.9593   47.2026 H   0  0  0  0  0  0  0  0  0  0  0  0
   36.2062   31.9000   47.2092 H   0  0  0  0  0  0  0  0  0  0  0  0
   38.0876   31.1695   46.4476 H   0  0  0  0  0  0  0  0  0  0  0  0
   37.5795   30.6223   44.2634 H   0  0  0  0  0  0  0  0  0  0  0  0
   36.3237   31.7713   44.9276 H   0  0  0  0  0  0  0  0  0  0  0  0
   36.2315   28.7190   45.1424 H   0  0  0  0  0  0  0  0  0  0  0  0
   35.4092   29.5647   43.7831 H   0  0  0  0  0  0  0  0  0  0  0  0
   33.9109   31.3750   43.4915 H   0  0  0  0  0  0  0  0  0  0  0  0
   31.5270   31.8628   42.8334 H   0  0  0  0  0  0  0  0  0  0  0  0
   30.2091   29.8413   46.2951 H   0  0  0  0  0  0  0  0  0  0  0  0
   35.5391   28.5448   48.9497 H   0  0  0  0  0  0  0  0  0  0  0  0
   36.3679   28.1842   51.1362 H   0  0  0  0  0  0  0  0  0  0  0  0
   37.9302   29.6745   52.1787 H   0  0  0  0  0  0  0  0  0  0  0  0
   38.9889   31.8572   51.2212 C   0  0  0  0  0  0  0  0  0  0  0  0
   40.0433   31.2646   51.8801 C   0  0  0  0  0  0  0  0  0  0  0  0
   40.1700   30.1819   51.9181 H   0  0  0  0  0  0  0  0  0  0  0  0
   41.0116   31.9725   52.5363 C   0  0  0  0  0  0  0  0  0  0  0  0
   40.9329   33.3612   52.5418 C   0  0  0  0  0  0  0  0  0  0  0  0
   39.8794   33.9646   51.8838 C   0  0  0  0  0  0  0  0  0  0  0  0
   39.7874   35.3588   51.8811 C   0  0  0  0  0  0  0  0  0  0  0  0
   38.7235   35.9506   51.2159 C   0  0  0  0  0  0  0  0  0  0  0  0
   37.7700   35.1895   50.5672 C   0  0  0  0  0  0  0  0  0  0  0  0
   37.8447   33.8029   50.5591 C   0  0  0  0  0  0  0  0  0  0  0  0
   38.9021   33.2410   51.2212 C   0  0  0  0  0  0  0  0  0  0  0  0
   41.8622   31.5786   53.0713 H   0  0  0  0  0  0  0  0  0  0  0  0
   41.6474   34.0173   53.0314 H   0  0  0  0  0  0  0  0  0  0  0  0
   40.5339   35.9500   52.3888 H   0  0  0  0  0  0  0  0  0  0  0  0
   38.7093   37.0356   51.2510 H   0  0  0  0  0  0  0  0  0  0  0  0
   36.9442   35.6988   50.0530 H   0  0  0  0  0  0  0  0  0  0  0  0
   37.0969   33.2091   50.0505 H   0  0  0  0  0  0  0  0  0  0  0  0
  1  2  1  0
  2  3  1  0
  3 15  1  0
  4  3  1  0
  5  4  1  0
  6  5  1  0
  6  1  1  0
  7  1  1  0
  7 12  1  0
  8  7  2  0
  9  8  1  0
  9 10  2  0
 10 11  1  0
 11 12  2  0
 13 14  1  0
 14 19  2  0
 15 16  2  0
 15 14  1  0
 16 17  1  0
 17 18  2  0
 19 18  1  0
  2 20  1  0
  2 21  1  0
  3 22  1  1
  4 23  1  0
  5 24  1  0
  5 25  1  0
  6 26  1  0
  6 27  1  0
  8 28  1  0
  9 29  1  0
 11 30  1  0
 16 31  1  0
 17 32  1  0
 18 33  1  0
 34 35  2  0
 35 36  1  0
 35 37  1  0
 37 38  2  0
 38 39  1  0
 39 40  2  0
 40 41  1  0
 41 42  2  0
 42 43  1  0
 43 44  2  0
 44 34  1  0
 44 39  1  0
 37 45  1  0
 38 46  1  0
 40 47  1  0
 41 48  1  0
 42 49  1  0
 43 50  1  0
 19 34  1  0
M  ISO  8  20  13  21  13  22  13  23   5  24  13  25  13  26  13  27  13
M  ISO  7  28  14  29  14  30  14  31  14  32  14  33  14  36  15
M  END
>  <DihAtoms>  (1) 
13,18,33,34

>  <DihDeg>  (1) 
89.99972552321091

$$$$
