
 OpenBabel03272508063D

 37 41  0  0  0  0  0  0  0  0999 V2000
   38.8450   30.9030   45.8610 C   0  0  0  0  0  0  0  0  0  0  0  0
   40.0250   31.5900   46.1150 C   0  0  0  0  0  0  0  0  0  0  0  0
   40.8740   31.5420   45.0110 C   0  0  0  0  0  0  0  0  0  0  0  0
   40.1510   30.8110   44.1220 N   0  0  0  0  0  0  0  0  0  0  0  0
   38.9830   30.4400   44.6030 N   0  0  0  0  0  0  0  0  0  0  0  0
   40.2690   32.0990   47.0380 H   0  0  0  0  0  0  0  0  0  0  0  0
   41.8420   31.9510   44.8550 H   0  0  0  0  0  0  0  0  0  0  0  0
   37.7190   30.7320   46.7580 C   0  0  0  0  0  0  0  0  0  0  0  0
   37.9350   30.9260   48.1510 C   0  0  0  0  0  0  0  0  0  0  0  0
   36.8360   30.7580   48.9920 C   0  0  0  0  0  0  0  0  0  0  0  0
   35.6400   30.4230   48.4460 N   0  0  0  0  0  0  0  0  0  0  0  0
   35.4660   30.2460   47.1180 C   0  0  0  0  0  0  0  0  0  0  0  0
   36.5160   30.4040   46.2860 N   0  0  0  0  0  0  0  0  0  0  0  0
   38.9130   31.1930   48.5320 H   0  0  0  0  0  0  0  0  0  0  0  0
   34.4970   29.9790   46.7180 H   0  0  0  0  0  0  0  0  0  0  0  0
   37.0420   30.9570   50.4610 C   0  0  0  0  0  0  0  0  0  0  0  0
   36.5510   32.2090   50.7330 F   0  0  0  0  0  0  0  0  0  0  0  0
   36.3460   30.0160   51.2200 F   0  0  0  0  0  0  0  0  0  0  0  0
   38.3860   30.9210   50.8060 F   0  0  0  0  0  0  0  0  0  0  0  0
   40.5340   30.4410   42.7660 C   0  0  0  0  0  0  0  0  0  0  0  0
   40.1450   31.1920   41.6520 C   0  0  0  0  0  0  0  0  0  0  0  0
   40.5380   30.8070   40.4070 C   0  0  0  0  0  0  0  0  0  0  0  0
   41.3310   29.6560   40.2340 C   0  0  0  0  0  0  0  0  0  0  0  0
   41.5020   29.1250   41.9970 S   0  0  0  0  0  0  0  0  0  0  0  0
   39.5200   32.0900   41.8000 H   0  0  0  0  0  0  0  0  0  0  0  0
   40.2750   31.4020   39.5620 H   0  0  0  0  0  0  0  0  0  0  0  0
   41.9950   28.9160   39.2770 C   0  0  0  0  0  0  0  0  0  0  0  0
   41.5210   27.6280   38.9720 C   0  0  0  0  0  0  0  0  0  0  0  0
   40.6580   27.1490   39.4470 H   0  0  0  0  0  0  0  0  0  0  0  0
   42.0920   26.8010   38.0310 C   0  0  0  0  0  3  0  0  0  0  0  0
   43.1860   27.2410   37.3410 C   0  0  0  0  0  3  0  0  0  0  0  0
   43.7250   28.4830   37.5600 C   0  0  0  0  0  0  0  0  0  0  0  0
   44.8070   28.8960   36.8200 C   0  0  0  0  0  3  0  0  0  0  0  0
   45.3280   30.1590   37.0170 C   0  0  0  0  0  3  0  0  0  0  0  0
   44.7010   30.9370   37.9730 C   0  0  0  0  0  3  0  0  0  0  0  0
   43.6200   30.4780   38.6880 C   0  0  0  0  0  3  0  0  0  0  0  0
   43.0900   29.2310   38.5130 C   0  0  0  0  0  0  0  0  0  0  0  0
  1  2  1  0  0  0  0
  1  8  1  0  0  0  0
  2  6  1  0  0  0  0
  3  2  2  0  0  0  0
  4  5  1  0  0  0  0
  4  3  1  0  0  0  0
  5  1  2  0  0  0  0
  7  3  1  0  0  0  0
  8  9  1  0  0  0  0
  9 14  1  0  0  0  0
  9 10  2  0  0  0  0
 10 16  1  0  0  0  0
 11 10  1  0  0  0  0
 12 11  2  0  0  0  0
 13  8  2  0  0  0  0
 13 12  1  0  0  0  0
 15 12  1  0  0  0  0
 16 17  1  0  0  0  0
 16 19  1  0  0  0  0
 16 18  1  0  0  0  0
 20  4  1  0  0  0  0
 21 25  1  0  0  0  0
 21 20  2  0  0  0  0
 22 21  1  0  0  0  0
 23 22  2  0  0  0  0
 23 24  1  0  0  0  0
 24 20  1  0  0  0  0
 26 22  1  0  0  0  0
 27 23  1  0  0  0  0
 28 27  1  0  0  0  0
 28 29  1  0  0  0  0
 30 28  2  0  0  0  0
 31 32  2  0  0  0  0
 31 30  1  0  0  0  0
 32 37  1  0  0  0  0
 33 34  2  0  0  0  0
 33 32  1  0  0  0  0
 34 35  1  0  0  0  0
 35 36  2  0  0  0  0
 37 36  1  0  0  0  0
 37 27  2  0  0  0  0
M  END
>  <minimizedAffinity>
-6.82419872

>  <minimizedRMSD>
0.292310029

$$$$
