
 OpenBabel03272509143D

 42 46  0  0  1  0  0  0  0  0999 V2000
   40.4680   24.6090   33.4840 N   0  0  0  0  0  0  0  0  0  0  0  0
   41.8960   24.3400   33.7670 C   0  0  0  0  0  0  0  0  0  0  0  0
   42.1500   25.1860   34.9920 C   0  0  0  0  0  0  0  0  0  0  0  0
   41.2870   26.4060   34.7770 C   0  0  0  0  0  0  0  0  0  0  0  0
   40.5070   26.0620   33.5020 C   0  0  2  0  0  0  0  0  0  0  0  0
   42.0380   23.2850   34.0070 H   0  0  0  0  0  0  0  0  0  0  0  0
   42.4900   24.7180   32.9170 H   0  0  0  0  0  0  0  0  0  0  0  0
   43.2130   25.4400   35.1290 H   0  0  0  0  0  0  0  0  0  0  0  0
   41.7200   24.6240   35.8640 H   0  0  0  0  0  0  0  0  0  0  0  0
   41.9150   27.2910   34.6720 H   0  0  0  0  0  0  0  0  0  0  0  0
   40.6220   26.5870   35.6420 H   0  0  0  0  0  0  0  0  0  0  0  0
   41.1630   26.4550   32.7180 H   0  0  0  0  0  0  0  0  0  0  0  0
   39.2120   26.6790   33.6930 C   0  0  0  0  0  0  0  0  0  0  0  0
   38.6530   26.8140   34.9460 C   0  0  0  0  0  0  0  0  0  0  0  0
   39.1160   26.4820   35.8530 H   0  0  0  0  0  0  0  0  0  0  0  0
   37.4350   27.4050   35.1890 C   0  0  0  0  0  3  0  0  0  0  0  0
   36.6690   27.9200   34.1600 C   0  0  0  0  0  3  0  0  0  0  0  0
   37.1790   27.8140   32.8810 C   0  0  0  0  0  0  0  0  0  0  0  0
   36.4450   28.3170   31.8330 C   0  0  0  0  0  3  0  0  0  0  0  0
   36.9060   28.2400   30.5370 C   0  0  0  0  0  3  0  0  0  0  0  0
   38.1450   27.6380   30.3020 C   0  0  0  0  0  3  0  0  0  0  0  0
   38.8260   27.1560   31.4000 C   0  0  0  0  0  3  0  0  0  0  0  0
   38.4170   27.2040   32.7010 C   0  0  0  0  0  0  0  0  0  0  0  0
   38.9090   23.7910   31.8650 C   0  0  0  0  0  0  0  0  0  0  0  0
   39.2910   23.8650   33.2390 C   0  0  0  0  0  0  0  0  0  0  0  0
   38.4840   23.2230   34.1740 C   0  0  0  0  0  0  0  0  0  0  0  0
   37.3740   22.5600   33.7360 N   0  0  0  0  0  0  0  0  0  0  0  0
   37.0440   22.5130   32.4240 C   0  0  0  0  0  0  0  0  0  0  0  0
   37.8040   23.1230   31.4990 N   0  0  0  0  0  0  0  0  0  0  0  0
   39.5020   24.2720   31.0980 H   0  0  0  0  0  0  0  0  0  0  0  0
   36.1410   21.9690   32.1140 H   0  0  0  0  0  0  0  0  0  0  0  0
   38.7800   23.2360   35.5820 C   0  0  0  0  0  0  0  0  0  0  0  0
   37.9730   23.9360   36.4160 C   0  0  0  0  0  0  0  0  0  0  0  0
   38.1870   24.0010   37.7840 C   0  0  0  0  0  0  0  0  0  0  0  0
   39.2980   23.2990   38.2840 C   0  0  0  0  0  0  0  0  0  0  0  0
   40.1750   22.5550   37.4720 C   0  0  0  0  0  0  0  0  0  0  0  0
   39.8730   22.5510   36.1130 C   0  0  0  0  0  0  0  0  0  0  0  0
   37.1060   24.4960   36.1050 H   0  0  0  0  0  0  0  0  0  0  0  0
   37.5690   24.5450   38.4810 H   0  0  0  0  0  0  0  0  0  0  0  0
   39.4910   23.3320   39.3550 H   0  0  0  0  0  0  0  0  0  0  0  0
   40.9990   22.0430   37.9010 H   0  0  0  0  0  0  0  0  0  0  0  0
   40.5400   21.9840   35.4790 H   0  0  0  0  0  0  0  0  0  0  0  0
  1  5  1  0  0  0  0
  1  2  1  0  0  0  0
  2  6  1  0  0  0  0
  2  3  1  0  0  0  0
  3  8  1  0  0  0  0
  3  9  1  0  0  0  0
  4  3  1  0  0  0  0
  4 11  1  0  0  0  0
  5 12  1  6  0  0  0
  5 13  1  0  0  0  0
  5  4  1  0  0  0  0
  7  2  1  0  0  0  0
 10  4  1  0  0  0  0
 13 14  1  0  0  0  0
 14 16  2  0  0  0  0
 14 15  1  0  0  0  0
 17 16  1  0  0  0  0
 18 17  2  0  0  0  0
 19 18  1  0  0  0  0
 20 19  2  0  0  0  0
 21 20  1  0  0  0  0
 21 22  2  0  0  0  0
 22 23  1  0  0  0  0
 23 18  1  0  0  0  0
 23 13  2  0  0  0  0
 24 25  1  0  0  0  0
 25  1  1  0  0  0  0
 25 26  2  0  0  0  0
 26 32  1  0  0  0  0
 27 26  1  0  0  0  0
 28 27  2  0  0  0  0
 29 24  2  0  0  0  0
 29 28  1  0  0  0  0
 30 24  1  0  0  0  0
 31 28  1  0  0  0  0
 32 37  2  0  0  0  0
 32 33  1  0  0  0  0
 33 34  2  0  0  0  0
 34 35  1  0  0  0  0
 34 39  1  0  0  0  0
 35 40  1  0  0  0  0
 36 41  1  0  0  0  0
 36 35  2  0  0  0  0
 37 36  1  0  0  0  0
 38 33  1  0  0  0  0
 42 37  1  0  0  0  0
M  END
>  <minimizedAffinity>
-6.65312243

$$$$

 OpenBabel03272509143D

 42 46  0  0  1  0  0  0  0  0999 V2000
   39.8190   23.7780   32.8650 N   0  0  0  0  0  0  0  0  0  0  0  0
   38.7800   23.7830   31.8110 C   0  0  0  0  0  0  0  0  0  0  0  0
   37.5100   23.5910   32.6060 C   0  0  0  0  0  0  0  0  0  0  0  0
   37.9210   22.6780   33.7350 C   0  0  0  0  0  0  0  0  0  0  0  0
   39.4390   22.5540   33.5500 C   0  0  2  0  0  0  0  0  0  0  0  0
   38.7620   24.7500   31.3070 H   0  0  0  0  0  0  0  0  0  0  0  0
   38.9520   22.9090   31.1580 H   0  0  0  0  0  0  0  0  0  0  0  0
   36.6840   23.1760   32.0070 H   0  0  0  0  0  0  0  0  0  0  0  0
   37.2620   24.5890   33.0580 H   0  0  0  0  0  0  0  0  0  0  0  0
   37.3990   21.7250   33.6500 H   0  0  0  0  0  0  0  0  0  0  0  0
   37.6500   23.1050   34.7190 H   0  0  0  0  0  0  0  0  0  0  0  0
   39.5200   21.6840   32.8880 H   0  0  0  0  0  0  0  0  0  0  0  0
   39.9600   22.4490   34.8950 C   0  0  0  0  0  0  0  0  0  0  0  0
   41.1780   21.8580   35.1550 C   0  0  0  0  0  0  0  0  0  0  0  0
   41.8180   21.4400   34.4050 H   0  0  0  0  0  0  0  0  0  0  0  0
   41.7300   21.7450   36.4090 C   0  0  0  0  0  3  0  0  0  0  0  0
   41.0780   22.2320   37.5270 C   0  0  0  0  0  3  0  0  0  0  0  0
   39.8520   22.8360   37.3280 C   0  0  0  0  0  0  0  0  0  0  0  0
   39.1770   23.3330   38.4170 C   0  0  0  0  0  3  0  0  0  0  0  0
   37.9520   23.9480   38.2770 C   0  0  0  0  0  3  0  0  0  0  0  0
   37.4000   24.0580   36.9980 C   0  0  0  0  0  3  0  0  0  0  0  0
   38.1330   23.5360   35.9520 C   0  0  0  0  0  3  0  0  0  0  0  0
   39.3480   22.9190   36.0340 C   0  0  0  0  0  0  0  0  0  0  0  0
   42.1960   24.0250   32.9740 C   0  0  0  0  0  0  0  0  0  0  0  0
   40.9130   24.5830   33.2600 C   0  0  0  0  0  0  0  0  0  0  0  0
   40.8690   25.8230   33.8900 C   0  0  0  0  0  0  0  0  0  0  0  0
   42.0450   26.4410   34.2030 N   0  0  0  0  0  0  0  0  0  0  0  0
   43.2420   25.8800   33.9160 C   0  0  0  0  0  0  0  0  0  0  0  0
   43.3170   24.6850   33.3080 N   0  0  0  0  0  0  0  0  0  0  0  0
   42.2860   23.0650   32.4850 H   0  0  0  0  0  0  0  0  0  0  0  0
   44.1660   26.4120   34.1860 H   0  0  0  0  0  0  0  0  0  0  0  0
   39.6280   26.4720   34.2230 C   0  0  0  0  0  0  0  0  0  0  0  0
   39.3550   26.7400   35.5230 C   0  0  0  0  0  0  0  0  0  0  0  0
   38.1850   27.3620   35.9290 C   0  0  0  0  0  0  0  0  0  0  0  0
   37.2710   27.7090   34.9190 C   0  0  0  0  0  0  0  0  0  0  0  0
   37.4940   27.4580   33.5520 C   0  0  0  0  0  0  0  0  0  0  0  0
   38.6980   26.8310   33.2470 C   0  0  0  0  0  0  0  0  0  0  0  0
   40.0060   26.5030   36.3490 H   0  0  0  0  0  0  0  0  0  0  0  0
   37.9300   27.5930   36.9510 H   0  0  0  0  0  0  0  0  0  0  0  0
   36.3420   28.1990   35.2090 H   0  0  0  0  0  0  0  0  0  0  0  0
   36.7690   27.7420   32.8290 H   0  0  0  0  0  0  0  0  0  0  0  0
   38.8810   26.6330   32.2000 H   0  0  0  0  0  0  0  0  0  0  0  0
  1 25  1  0  0  0  0
  1  5  1  0  0  0  0
  2  3  1  0  0  0  0
  2  1  1  0  0  0  0
  3  9  1  0  0  0  0
  3  4  1  0  0  0  0
  4 11  1  0  0  0  0
  5 12  1  6  0  0  0
  5  4  1  0  0  0  0
  5 13  1  0  0  0  0
  6  2  1  0  0  0  0
  7  2  1  0  0  0  0
  8  3  1  0  0  0  0
 10  4  1  0  0  0  0
 13 14  2  0  0  0  0
 13 23  1  0  0  0  0
 14 16  1  0  0  0  0
 15 14  1  0  0  0  0
 16 17  2  0  0  0  0
 18 17  1  0  0  0  0
 18 19  1  0  0  0  0
 20 19  2  0  0  0  0
 21 20  1  0  0  0  0
 22 23  1  0  0  0  0
 22 21  2  0  0  0  0
 23 18  2  0  0  0  0
 24 25  2  0  0  0  0
 24 29  1  0  0  0  0
 25 26  1  0  0  0  0
 26 27  2  0  0  0  0
 26 32  1  0  0  0  0
 28 31  1  0  0  0  0
 28 27  1  0  0  0  0
 29 28  2  0  0  0  0
 30 24  1  0  0  0  0
 32 33  1  0  0  0  0
 33 34  2  0  0  0  0
 33 38  1  0  0  0  0
 34 39  1  0  0  0  0
 35 40  1  0  0  0  0
 35 34  1  0  0  0  0
 36 35  2  0  0  0  0
 37 36  1  0  0  0  0
 37 32  2  0  0  0  0
 41 36  1  0  0  0  0
 42 37  1  0  0  0  0
M  END
>  <minimizedAffinity>
-6.56554985

$$$$

 OpenBabel03272509143D

 42 46  0  0  1  0  0  0  0  0999 V2000
   38.9220   22.8490   31.6530 N   0  0  0  0  0  0  0  0  0  0  0  0
   39.7650   21.9770   30.8040 C   0  0  0  0  0  0  0  0  0  0  0  0
   40.0200   20.7930   31.7060 C   0  0  0  0  0  0  0  0  0  0  0  0
   40.1110   21.3990   33.0860 C   0  0  0  0  0  0  0  0  0  0  0  0
   39.7510   22.8700   32.8460 C   0  0  2  0  0  0  0  0  0  0  0  0
   39.2080   21.6600   29.9220 H   0  0  0  0  0  0  0  0  0  0  0  0
   40.7120   22.5100   30.6030 H   0  0  0  0  0  0  0  0  0  0  0  0
   40.9250   20.2280   31.4330 H   0  0  0  0  0  0  0  0  0  0  0  0
   39.0900   20.1650   31.6800 H   0  0  0  0  0  0  0  0  0  0  0  0
   41.1160   21.2620   33.4860 H   0  0  0  0  0  0  0  0  0  0  0  0
   39.4160   20.9050   33.7910 H   0  0  0  0  0  0  0  0  0  0  0  0
   40.7300   23.3170   32.6440 H   0  0  0  0  0  0  0  0  0  0  0  0
   39.0430   23.2690   34.0440 C   0  0  0  0  0  0  0  0  0  0  0  0
   38.3260   22.3640   34.7960 C   0  0  0  0  0  0  0  0  0  0  0  0
   38.2360   21.3220   34.5620 H   0  0  0  0  0  0  0  0  0  0  0  0
   37.6490   22.6810   35.9490 C   0  0  0  0  0  3  0  0  0  0  0  0
   37.6430   23.9720   36.4450 C   0  0  0  0  0  3  0  0  0  0  0  0
   38.3460   24.9240   35.7330 C   0  0  0  0  0  0  0  0  0  0  0  0
   38.3630   26.2170   36.1990 C   0  0  0  0  0  3  0  0  0  0  0  0
   39.0510   27.2070   35.5300 C   0  0  0  0  0  3  0  0  0  0  0  0
   39.7360   26.8720   34.3600 C   0  0  0  0  0  3  0  0  0  0  0  0
   39.6740   25.5560   33.9510 C   0  0  0  0  0  3  0  0  0  0  0  0
   39.0110   24.5380   34.5730 C   0  0  0  0  0  0  0  0  0  0  0  0
   37.8190   24.9440   31.3120 C   0  0  0  0  0  0  0  0  0  0  0  0
   37.6930   23.5410   31.5460 C   0  0  0  0  0  0  0  0  0  0  0  0
   36.4100   23.0120   31.6530 C   0  0  0  0  0  0  0  0  0  0  0  0
   35.3420   23.8540   31.5310 N   0  0  0  0  0  0  0  0  0  0  0  0
   35.5020   25.1790   31.3090 C   0  0  0  0  0  0  0  0  0  0  0  0
   36.7280   25.7180   31.2010 N   0  0  0  0  0  0  0  0  0  0  0  0
   38.7930   25.4050   31.2200 H   0  0  0  0  0  0  0  0  0  0  0  0
   34.6150   25.8220   31.2180 H   0  0  0  0  0  0  0  0  0  0  0  0
   36.1730   21.6120   31.8890 C   0  0  0  0  0  0  0  0  0  0  0  0
   36.3420   20.7370   30.8680 C   0  0  0  0  0  0  0  0  0  0  0  0
   36.1340   19.3740   31.0090 C   0  0  0  0  0  0  0  0  0  0  0  0
   35.7320   18.9240   32.2790 C   0  0  0  0  0  0  0  0  0  0  0  0
   35.5380   19.7810   33.3800 C   0  0  0  0  0  0  0  0  0  0  0  0
   35.7730   21.1310   33.1350 C   0  0  0  0  0  0  0  0  0  0  0  0
   36.6480   21.0090   29.8710 H   0  0  0  0  0  0  0  0  0  0  0  0
   36.2570   18.6460   30.2240 H   0  0  0  0  0  0  0  0  0  0  0  0
   35.5610   17.8590   32.4200 H   0  0  0  0  0  0  0  0  0  0  0  0
   35.2340   19.3890   34.3180 H   0  0  0  0  0  0  0  0  0  0  0  0
   35.6280   21.7990   33.9730 H   0  0  0  0  0  0  0  0  0  0  0  0
  1  5  1  0  0  0  0
  2  1  1  0  0  0  0
  2  3  1  0  0  0  0
  3  4  1  0  0  0  0
  4 10  1  0  0  0  0
  4 11  1  0  0  0  0
  5 12  1  6  0  0  0
  5  4  1  0  0  0  0
  5 13  1  0  0  0  0
  6  2  1  0  0  0  0
  7  2  1  0  0  0  0
  8  3  1  0  0  0  0
  9  3  1  0  0  0  0
 13 23  2  0  0  0  0
 13 14  1  0  0  0  0
 14 16  2  0  0  0  0
 15 14  1  0  0  0  0
 16 17  1  0  0  0  0
 18 19  1  0  0  0  0
 18 17  2  0  0  0  0
 20 19  2  0  0  0  0
 21 20  1  0  0  0  0
 22 21  2  0  0  0  0
 22 23  1  0  0  0  0
 23 18  1  0  0  0  0
 24 25  1  0  0  0  0
 25 26  2  0  0  0  0
 25  1  1  0  0  0  0
 26 32  1  0  0  0  0
 27 26  1  0  0  0  0
 28 27  2  0  0  0  0
 29 28  1  0  0  0  0
 29 24  2  0  0  0  0
 30 24  1  0  0  0  0
 31 28  1  0  0  0  0
 32 37  1  0  0  0  0
 33 34  1  0  0  0  0
 33 32  2  0  0  0  0
 34 35  2  0  0  0  0
 35 40  1  0  0  0  0
 35 36  1  0  0  0  0
 36 41  1  0  0  0  0
 37 36  2  0  0  0  0
 37 42  1  0  0  0  0
 38 33  1  0  0  0  0
 39 34  1  0  0  0  0
M  END
>  <minimizedAffinity>
-6.4523797

$$$$

 OpenBabel03272509143D

 42 46  0  0  1  0  0  0  0  0999 V2000
   37.2700   25.2450   31.7700 N   0  0  0  0  0  0  0  0  0  0  0  0
   36.5970   23.9270   31.8210 C   0  0  0  0  0  0  0  0  0  0  0  0
   35.5010   24.0820   30.7940 C   0  0  0  0  0  0  0  0  0  0  0  0
   35.0880   25.5280   30.9180 C   0  0  0  0  0  0  0  0  0  0  0  0
   36.1030   26.0980   31.9160 C   0  0  2  0  0  0  0  0  0  0  0  0
   37.2890   23.1420   31.5130 H   0  0  0  0  0  0  0  0  0  0  0  0
   36.1590   23.8070   32.8280 H   0  0  0  0  0  0  0  0  0  0  0  0
   34.6600   23.3880   30.9530 H   0  0  0  0  0  0  0  0  0  0  0  0
   35.9850   23.9580   29.7890 H   0  0  0  0  0  0  0  0  0  0  0  0
   34.0570   25.5910   31.2690 H   0  0  0  0  0  0  0  0  0  0  0  0
   35.1240   26.0430   29.9390 H   0  0  0  0  0  0  0  0  0  0  0  0
   35.6020   25.9300   32.8760 H   0  0  0  0  0  0  0  0  0  0  0  0
   36.3150   27.4610   31.4780 C   0  0  0  0  0  0  0  0  0  0  0  0
   36.7500   27.7510   30.2020 C   0  0  0  0  0  0  0  0  0  0  0  0
   36.9610   27.0140   29.4540 H   0  0  0  0  0  0  0  0  0  0  0  0
   36.9530   29.0250   29.7260 C   0  0  0  0  0  3  0  0  0  0  0  0
   36.7270   30.1330   30.5210 C   0  0  0  0  0  3  0  0  0  0  0  0
   36.2890   29.9040   31.8110 C   0  0  0  0  0  0  0  0  0  0  0  0
   36.0520   30.9830   32.6290 C   0  0  0  0  0  3  0  0  0  0  0  0
   35.6120   30.8130   33.9240 C   0  0  0  0  0  3  0  0  0  0  0  0
   35.4080   29.5140   34.3970 C   0  0  0  0  0  3  0  0  0  0  0  0
   35.6660   28.4800   33.5210 C   0  0  0  0  0  3  0  0  0  0  0  0
   36.1020   28.5910   32.2330 C   0  0  0  0  0  0  0  0  0  0  0  0
   39.0830   25.7620   30.2970 C   0  0  0  0  0  0  0  0  0  0  0  0
   38.5860   25.7440   31.6360 C   0  0  0  0  0  0  0  0  0  0  0  0
   39.4280   26.1980   32.6480 C   0  0  0  0  0  0  0  0  0  0  0  0
   40.6780   26.6340   32.3140 N   0  0  0  0  0  0  0  0  0  0  0  0
   41.1130   26.6350   31.0330 C   0  0  0  0  0  0  0  0  0  0  0  0
   40.3240   26.2030   30.0360 N   0  0  0  0  0  0  0  0  0  0  0  0
   38.4690   25.4200   29.4740 H   0  0  0  0  0  0  0  0  0  0  0  0
   42.1270   26.9930   30.8070 H   0  0  0  0  0  0  0  0  0  0  0  0
   39.0250   26.2230   34.0300 C   0  0  0  0  0  0  0  0  0  0  0  0
   38.7910   27.4180   34.6240 C   0  0  0  0  0  0  0  0  0  0  0  0
   38.4010   27.5310   35.9490 C   0  0  0  0  0  0  0  0  0  0  0  0
   38.2550   26.3320   36.6690 C   0  0  0  0  0  0  0  0  0  0  0  0
   38.4830   25.0590   36.1100 C   0  0  0  0  0  0  0  0  0  0  0  0
   38.8700   25.0530   34.7740 C   0  0  0  0  0  0  0  0  0  0  0  0
   38.8820   28.3750   34.1360 H   0  0  0  0  0  0  0  0  0  0  0  0
   38.2050   28.4600   36.4590 H   0  0  0  0  0  0  0  0  0  0  0  0
   37.9490   26.3890   37.7120 H   0  0  0  0  0  0  0  0  0  0  0  0
   38.3570   24.1850   36.6990 H   0  0  0  0  0  0  0  0  0  0  0  0
   39.0480   24.0820   34.3340 H   0  0  0  0  0  0  0  0  0  0  0  0
  1  2  1  0  0  0  0
  1  5  1  0  0  0  0
  2  7  1  0  0  0  0
  3  4  1  0  0  0  0
  3  8  1  0  0  0  0
  3  2  1  0  0  0  0
  4 10  1  0  0  0  0
  4  5  1  0  0  0  0
  5 12  1  1  0  0  0
  6  2  1  0  0  0  0
  9  3  1  0  0  0  0
 11  4  1  0  0  0  0
 13  5  1  0  0  0  0
 13 23  1  0  0  0  0
 14 13  2  0  0  0  0
 15 14  1  0  0  0  0
 16 14  1  0  0  0  0
 16 17  2  0  0  0  0
 17 18  1  0  0  0  0
 18 23  2  0  0  0  0
 18 19  1  0  0  0  0
 19 20  2  0  0  0  0
 20 21  1  0  0  0  0
 22 21  2  0  0  0  0
 23 22  1  0  0  0  0
 24 25  1  0  0  0  0
 25  1  1  0  0  0  0
 25 26  2  0  0  0  0
 26 32  1  0  0  0  0
 27 26  1  0  0  0  0
 28 27  2  0  0  0  0
 29 24  2  0  0  0  0
 29 28  1  0  0  0  0
 30 24  1  0  0  0  0
 31 28  1  0  0  0  0
 32 33  2  0  0  0  0
 32 37  1  0  0  0  0
 33 34  1  0  0  0  0
 34 39  1  0  0  0  0
 34 35  2  0  0  0  0
 35 40  1  0  0  0  0
 36 35  1  0  0  0  0
 36 41  1  0  0  0  0
 37 36  2  0  0  0  0
 38 33  1  0  0  0  0
 42 37  1  0  0  0  0
M  END
>  <minimizedAffinity>
-6.09181786

$$$$

 OpenBabel03272509143D

 42 46  0  0  1  0  0  0  0  0999 V2000
   37.2050   26.9690   32.3540 N   0  0  0  0  0  0  0  0  0  0  0  0
   35.9230   27.7050   32.4380 C   0  0  0  0  0  0  0  0  0  0  0  0
   36.1590   28.6340   33.6060 C   0  0  0  0  0  0  0  0  0  0  0  0
   37.0240   27.8280   34.5440 C   0  0  0  0  0  0  0  0  0  0  0  0
   37.3180   26.5540   33.7420 C   0  0  2  0  0  0  0  0  0  0  0  0
   35.7630   28.2840   31.5280 H   0  0  0  0  0  0  0  0  0  0  0  0
   35.1290   26.9790   32.6870 H   0  0  0  0  0  0  0  0  0  0  0  0
   35.2260   28.9760   34.0800 H   0  0  0  0  0  0  0  0  0  0  0  0
   36.7870   29.4800   33.2190 H   0  0  0  0  0  0  0  0  0  0  0  0
   36.4850   27.6360   35.4720 H   0  0  0  0  0  0  0  0  0  0  0  0
   37.9450   28.3760   34.8160 H   0  0  0  0  0  0  0  0  0  0  0  0
   36.4870   25.9020   34.0330 H   0  0  0  0  0  0  0  0  0  0  0  0
   38.6590   26.1810   34.1350 C   0  0  0  0  0  0  0  0  0  0  0  0
   39.7200   27.0520   34.0050 C   0  0  0  0  0  0  0  0  0  0  0  0
   39.6400   28.0460   33.6140 H   0  0  0  0  0  0  0  0  0  0  0  0
   41.0110   26.7590   34.3760 C   0  0  0  0  0  3  0  0  0  0  0  0
   41.3400   25.5320   34.9200 C   0  0  0  0  0  3  0  0  0  0  0  0
   40.3170   24.6170   35.0750 C   0  0  0  0  0  0  0  0  0  0  0  0
   40.6080   23.3860   35.6150 C   0  0  0  0  0  3  0  0  0  0  0  0
   39.6260   22.4360   35.7950 C   0  0  0  0  0  3  0  0  0  0  0  0
   38.3170   22.7460   35.4150 C   0  0  0  0  0  3  0  0  0  0  0  0
   38.0990   23.9980   34.8800 C   0  0  0  0  0  3  0  0  0  0  0  0
   39.0310   24.9740   34.6800 C   0  0  0  0  0  0  0  0  0  0  0  0
   38.9580   27.7460   30.9230 C   0  0  0  0  0  0  0  0  0  0  0  0
   38.1630   26.6450   31.3650 C   0  0  0  0  0  0  0  0  0  0  0  0
   38.3980   25.4000   30.7880 C   0  0  0  0  0  0  0  0  0  0  0  0
   39.3680   25.2930   29.8340 N   0  0  0  0  0  0  0  0  0  0  0  0
   40.1010   26.3610   29.4400 C   0  0  0  0  0  0  0  0  0  0  0  0
   39.8970   27.5740   29.9790 N   0  0  0  0  0  0  0  0  0  0  0  0
   38.8160   28.7340   31.3400 H   0  0  0  0  0  0  0  0  0  0  0  0
   40.8720   26.2310   28.6680 H   0  0  0  0  0  0  0  0  0  0  0  0
   37.6530   24.2260   31.1620 C   0  0  0  0  0  0  0  0  0  0  0  0
   38.3280   23.1000   31.4980 C   0  0  0  0  0  0  0  0  0  0  0  0
   37.6890   21.9280   31.8700 C   0  0  0  0  0  0  0  0  0  0  0  0
   36.2830   21.9520   31.8830 C   0  0  0  0  0  0  0  0  0  0  0  0
   35.5240   23.0880   31.5450 C   0  0  0  0  0  0  0  0  0  0  0  0
   36.2590   24.2140   31.1870 C   0  0  0  0  0  0  0  0  0  0  0  0
   39.4020   23.0090   31.5100 H   0  0  0  0  0  0  0  0  0  0  0  0
   38.1880   21.0120   32.1440 H   0  0  0  0  0  0  0  0  0  0  0  0
   35.7540   21.0450   32.1710 H   0  0  0  0  0  0  0  0  0  0  0  0
   34.4630   23.0520   31.5730 H   0  0  0  0  0  0  0  0  0  0  0  0
   35.6860   25.0930   30.9250 H   0  0  0  0  0  0  0  0  0  0  0  0
  1  2  1  0  0  0  0
  1  5  1  0  0  0  0
  2  7  1  0  0  0  0
  2  3  1  0  0  0  0
  3  8  1  0  0  0  0
  3  4  1  0  0  0  0
  4 11  1  0  0  0  0
  4 10  1  0  0  0  0
  5 12  1  1  0  0  0
  5 13  1  0  0  0  0
  5  4  1  0  0  0  0
  6  2  1  0  0  0  0
  9  3  1  0  0  0  0
 13 23  1  0  0  0  0
 14 13  2  0  0  0  0
 14 16  1  0  0  0  0
 15 14  1  0  0  0  0
 16 17  2  0  0  0  0
 17 18  1  0  0  0  0
 18 19  1  0  0  0  0
 19 20  2  0  0  0  0
 21 20  1  0  0  0  0
 22 21  2  0  0  0  0
 23 22  1  0  0  0  0
 23 18  2  0  0  0  0
 24 30  1  0  0  0  0
 24 25  1  0  0  0  0
 25  1  1  0  0  0  0
 26 32  1  0  0  0  0
 26 25  2  0  0  0  0
 27 26  1  0  0  0  0
 28 27  2  0  0  0  0
 28 29  1  0  0  0  0
 29 24  2  0  0  0  0
 31 28  1  0  0  0  0
 32 37  2  0  0  0  0
 32 33  1  0  0  0  0
 33 38  1  0  0  0  0
 33 34  2  0  0  0  0
 34 35  1  0  0  0  0
 34 39  1  0  0  0  0
 35 40  1  0  0  0  0
 36 41  1  0  0  0  0
 36 35  2  0  0  0  0
 37 36  1  0  0  0  0
 42 37  1  0  0  0  0
M  END
>  <minimizedAffinity>
-6.0769105

$$$$

 OpenBabel03272509143D

 42 46  0  0  1  0  0  0  0  0999 V2000
   40.9860   24.6190   34.1590 N   0  0  0  0  0  0  0  0  0  0  0  0
   42.4530   24.5030   33.9960 C   0  0  0  0  0  0  0  0  0  0  0  0
   42.9540   25.7710   34.6460 C   0  0  0  0  0  0  0  0  0  0  0  0
   41.8930   26.7920   34.3170 C   0  0  0  0  0  0  0  0  0  0  0  0
   40.8070   25.9590   33.6250 C   0  0  2  0  0  0  0  0  0  0  0  0
   42.8230   23.6330   34.5410 H   0  0  0  0  0  0  0  0  0  0  0  0
   42.6790   24.5180   32.9150 H   0  0  0  0  0  0  0  0  0  0  0  0
   43.9530   26.0720   34.2920 H   0  0  0  0  0  0  0  0  0  0  0  0
   42.9170   25.5980   35.7540 H   0  0  0  0  0  0  0  0  0  0  0  0
   42.3110   27.5690   33.6770 H   0  0  0  0  0  0  0  0  0  0  0  0
   41.5200   27.2960   35.2290 H   0  0  0  0  0  0  0  0  0  0  0  0
   41.1090   26.0140   32.5730 H   0  0  0  0  0  0  0  0  0  0  0  0
   39.5640   26.5850   34.0200 C   0  0  0  0  0  0  0  0  0  0  0  0
   39.2310   26.7590   35.3460 C   0  0  0  0  0  0  0  0  0  0  0  0
   39.8460   26.4530   36.1680 H   0  0  0  0  0  0  0  0  0  0  0  0
   38.0730   27.3600   35.7800 C   0  0  0  0  0  3  0  0  0  0  0  0
   37.1380   27.8450   34.8850 C   0  0  0  0  0  3  0  0  0  0  0  0
   37.4170   27.6990   33.5410 C   0  0  0  0  0  0  0  0  0  0  0  0
   36.5100   28.1720   32.6220 C   0  0  0  0  0  3  0  0  0  0  0  0
   36.7380   28.0550   31.2690 C   0  0  0  0  0  3  0  0  0  0  0  0
   37.9190   27.4430   30.8390 C   0  0  0  0  0  3  0  0  0  0  0  0
   38.7830   26.9920   31.8160 C   0  0  0  0  0  3  0  0  0  0  0  0
   38.6070   27.0810   33.1660 C   0  0  0  0  0  0  0  0  0  0  0  0
   39.9190   23.6230   36.0540 C   0  0  0  0  0  0  0  0  0  0  0  0
   39.9210   23.8240   34.6410 C   0  0  0  0  0  0  0  0  0  0  0  0
   38.9060   23.2270   33.8980 C   0  0  0  0  0  0  0  0  0  0  0  0
   37.9670   22.4820   34.5510 N   0  0  0  0  0  0  0  0  0  0  0  0
   38.0000   22.3130   35.8940 C   0  0  0  0  0  0  0  0  0  0  0  0
   38.9660   22.8780   36.6360 N   0  0  0  0  0  0  0  0  0  0  0  0
   40.6850   24.0650   36.6770 H   0  0  0  0  0  0  0  0  0  0  0  0
   37.2250   21.7050   36.3800 H   0  0  0  0  0  0  0  0  0  0  0  0
   38.8160   23.3670   32.4680 C   0  0  0  0  0  0  0  0  0  0  0  0
   37.6270   23.7150   31.9170 C   0  0  0  0  0  0  0  0  0  0  0  0
   37.4540   23.8710   30.5510 C   0  0  0  0  0  0  0  0  0  0  0  0
   38.5810   23.6480   29.7410 C   0  0  0  0  0  0  0  0  0  0  0  0
   39.8420   23.2840   30.2510 C   0  0  0  0  0  0  0  0  0  0  0  0
   39.9130   23.1540   31.6340 C   0  0  0  0  0  0  0  0  0  0  0  0
   36.7240   23.9020   32.4730 H   0  0  0  0  0  0  0  0  0  0  0  0
   36.5270   24.1470   30.0730 H   0  0  0  0  0  0  0  0  0  0  0  0
   38.4750   23.7630   28.6640 H   0  0  0  0  0  0  0  0  0  0  0  0
   40.6620   23.1280   29.5940 H   0  0  0  0  0  0  0  0  0  0  0  0
   40.8760   22.8740   32.0380 H   0  0  0  0  0  0  0  0  0  0  0  0
  1 25  1  0  0  0  0
  2  1  1  0  0  0  0
  2  6  1  0  0  0  0
  2  3  1  0  0  0  0
  3  9  1  0  0  0  0
  4  3  1  0  0  0  0
  4 11  1  0  0  0  0
  5 12  1  6  0  0  0
  5 13  1  0  0  0  0
  5  1  1  0  0  0  0
  5  4  1  0  0  0  0
  7  2  1  0  0  0  0
  8  3  1  0  0  0  0
 10  4  1  0  0  0  0
 13 14  1  0  0  0  0
 14 16  2  0  0  0  0
 14 15  1  0  0  0  0
 17 16  1  0  0  0  0
 18 17  2  0  0  0  0
 19 18  1  0  0  0  0
 20 19  2  0  0  0  0
 21 20  1  0  0  0  0
 21 22  2  0  0  0  0
 22 23  1  0  0  0  0
 23 18  1  0  0  0  0
 23 13  2  0  0  0  0
 24 29  1  0  0  0  0
 24 30  1  0  0  0  0
 25 24  2  0  0  0  0
 26 27  2  0  0  0  0
 26 25  1  0  0  0  0
 27 28  1  0  0  0  0
 28 31  1  0  0  0  0
 28 29  2  0  0  0  0
 32 26  1  0  0  0  0
 33 32  1  0  0  0  0
 33 38  1  0  0  0  0
 34 33  2  0  0  0  0
 35 36  2  0  0  0  0
 35 34  1  0  0  0  0
 36 37  1  0  0  0  0
 37 42  1  0  0  0  0
 37 32  2  0  0  0  0
 39 34  1  0  0  0  0
 40 35  1  0  0  0  0
 41 36  1  0  0  0  0
M  END
>  <minimizedAffinity>
-6.04623938

$$$$

 OpenBabel03272509143D

 42 46  0  0  1  0  0  0  0  0999 V2000
   39.5670   24.2180   32.5110 N   0  0  0  0  0  0  0  0  0  0  0  0
   38.8880   24.0620   31.2040 C   0  0  0  0  0  0  0  0  0  0  0  0
   37.4360   23.9480   31.6040 C   0  0  0  0  0  0  0  0  0  0  0  0
   37.4770   23.1990   32.9140 C   0  0  0  0  0  0  0  0  0  0  0  0
   38.9780   23.0850   33.2060 C   0  0  2  0  0  0  0  0  0  0  0  0
   39.0380   24.9550   30.5960 H   0  0  0  0  0  0  0  0  0  0  0  0
   39.2310   23.1150   30.7520 H   0  0  0  0  0  0  0  0  0  0  0  0
   36.8180   23.4410   30.8470 H   0  0  0  0  0  0  0  0  0  0  0  0
   37.0830   24.9900   31.8280 H   0  0  0  0  0  0  0  0  0  0  0  0
   36.9860   22.2320   32.8030 H   0  0  0  0  0  0  0  0  0  0  0  0
   36.9330   23.7450   33.7080 H   0  0  0  0  0  0  0  0  0  0  0  0
   39.2370   22.1390   32.7180 H   0  0  0  0  0  0  0  0  0  0  0  0
   39.0740   23.1690   34.6470 C   0  0  0  0  0  0  0  0  0  0  0  0
   38.1480   23.8650   35.3940 C   0  0  0  0  0  0  0  0  0  0  0  0
   37.3080   24.3860   34.9820 H   0  0  0  0  0  0  0  0  0  0  0  0
   38.1790   23.9650   36.7650 C   0  0  0  0  0  3  0  0  0  0  0  0
   39.1730   23.3540   37.5070 C   0  0  0  0  0  3  0  0  0  0  0  0
   40.1290   22.6400   36.8120 C   0  0  0  0  0  0  0  0  0  0  0  0
   41.1310   22.0170   37.5180 C   0  0  0  0  0  3  0  0  0  0  0  0
   42.1100   21.2900   36.8760 C   0  0  0  0  0  3  0  0  0  0  0  0
   42.0680   21.1950   35.4820 C   0  0  0  0  0  3  0  0  0  0  0  0
   41.0350   21.8450   34.8400 C   0  0  0  0  0  3  0  0  0  0  0  0
   40.0420   22.5770   35.4240 C   0  0  0  0  0  0  0  0  0  0  0  0
   41.8410   24.5820   33.1580 C   0  0  0  0  0  0  0  0  0  0  0  0
   40.5080   25.0910   33.1040 C   0  0  0  0  0  0  0  0  0  0  0  0
   40.2730   26.3560   33.6340 C   0  0  0  0  0  0  0  0  0  0  0  0
   41.3200   27.0430   34.1780 N   0  0  0  0  0  0  0  0  0  0  0  0
   42.5710   26.5260   34.2110 C   0  0  0  0  0  0  0  0  0  0  0  0
   42.8270   25.3090   33.7070 N   0  0  0  0  0  0  0  0  0  0  0  0
   42.0770   23.6040   32.7590 H   0  0  0  0  0  0  0  0  0  0  0  0
   43.3850   27.1130   34.6590 H   0  0  0  0  0  0  0  0  0  0  0  0
   38.9670   26.9610   33.6300 C   0  0  0  0  0  0  0  0  0  0  0  0
   38.3180   27.1310   34.8080 C   0  0  0  0  0  0  0  0  0  0  0  0
   37.0600   27.7040   34.8920 C   0  0  0  0  0  0  0  0  0  0  0  0
   36.4670   28.1100   33.6830 C   0  0  0  0  0  0  0  0  0  0  0  0
   37.0880   27.9620   32.4280 C   0  0  0  0  0  0  0  0  0  0  0  0
   38.3500   27.3760   32.4500 C   0  0  0  0  0  0  0  0  0  0  0  0
   38.7090   26.8450   35.7710 H   0  0  0  0  0  0  0  0  0  0  0  0
   36.5100   27.8570   35.8070 H   0  0  0  0  0  0  0  0  0  0  0  0
   35.4780   28.5630   33.7190 H   0  0  0  0  0  0  0  0  0  0  0  0
   36.5960   28.2860   31.5450 H   0  0  0  0  0  0  0  0  0  0  0  0
   38.8360   27.2560   31.4920 H   0  0  0  0  0  0  0  0  0  0  0  0
  1 25  1  0  0  0  0
  1  5  1  0  0  0  0
  2  3  1  0  0  0  0
  2  1  1  0  0  0  0
  3  9  1  0  0  0  0
  3  4  1  0  0  0  0
  4  5  1  0  0  0  0
  4 11  1  0  0  0  0
  5 12  1  6  0  0  0
  5 13  1  0  0  0  0
  6  2  1  0  0  0  0
  7  2  1  0  0  0  0
  8  3  1  0  0  0  0
 10  4  1  0  0  0  0
 13 14  2  0  0  0  0
 13 23  1  0  0  0  0
 14 16  1  0  0  0  0
 15 14  1  0  0  0  0
 16 17  2  0  0  0  0
 18 17  1  0  0  0  0
 18 19  1  0  0  0  0
 20 19  2  0  0  0  0
 21 20  1  0  0  0  0
 22 23  1  0  0  0  0
 22 21  2  0  0  0  0
 23 18  2  0  0  0  0
 24 29  1  0  0  0  0
 25 24  2  0  0  0  0
 25 26  1  0  0  0  0
 26 27  2  0  0  0  0
 27 28  1  0  0  0  0
 28 31  1  0  0  0  0
 29 28  2  0  0  0  0
 30 24  1  0  0  0  0
 32 26  1  0  0  0  0
 32 33  1  0  0  0  0
 33 34  2  0  0  0  0
 33 38  1  0  0  0  0
 34 39  1  0  0  0  0
 35 40  1  0  0  0  0
 35 34  1  0  0  0  0
 36 37  1  0  0  0  0
 36 35  2  0  0  0  0
 37 32  2  0  0  0  0
 41 36  1  0  0  0  0
 42 37  1  0  0  0  0
M  END
>  <minimizedAffinity>
-5.99024153

$$$$

 OpenBabel03272509143D

 42 46  0  0  1  0  0  0  0  0999 V2000
   38.4150   23.0070   35.9290 N   0  0  0  0  0  0  0  0  0  0  0  0
   37.2870   23.1180   36.8810 C   0  0  0  0  0  0  0  0  0  0  0  0
   37.8290   24.0750   37.9160 C   0  0  0  0  0  0  0  0  0  0  0  0
   39.2980   23.7370   37.9920 C   0  0  0  0  0  0  0  0  0  0  0  0
   39.4770   22.7030   36.8730 C   0  0  2  0  0  0  0  0  0  0  0  0
   36.4200   23.5560   36.3860 H   0  0  0  0  0  0  0  0  0  0  0  0
   37.1240   22.1240   37.3340 H   0  0  0  0  0  0  0  0  0  0  0  0
   37.3240   23.9880   38.8910 H   0  0  0  0  0  0  0  0  0  0  0  0
   37.7470   25.1040   37.4740 H   0  0  0  0  0  0  0  0  0  0  0  0
   39.5380   23.3450   38.9810 H   0  0  0  0  0  0  0  0  0  0  0  0
   39.9270   24.6340   37.8420 H   0  0  0  0  0  0  0  0  0  0  0  0
   39.2880   21.7600   37.3980 H   0  0  0  0  0  0  0  0  0  0  0  0
   40.8060   22.9530   36.3600 C   0  0  0  0  0  0  0  0  0  0  0  0
   41.1440   24.1580   35.7830 C   0  0  0  0  0  0  0  0  0  0  0  0
   40.4710   24.9830   35.6700 H   0  0  0  0  0  0  0  0  0  0  0  0
   42.3930   24.4580   35.2930 C   0  0  0  0  0  3  0  0  0  0  0  0
   43.4250   23.5390   35.3490 C   0  0  0  0  0  3  0  0  0  0  0  0
   43.1460   22.3110   35.9170 C   0  0  0  0  0  0  0  0  0  0  0  0
   44.1490   21.3740   35.9910 C   0  0  0  0  0  3  0  0  0  0  0  0
   43.9260   20.1350   36.5500 C   0  0  0  0  0  3  0  0  0  0  0  0
   42.6530   19.8420   37.0460 C   0  0  0  0  0  3  0  0  0  0  0  0
   41.6960   20.8290   36.9370 C   0  0  0  0  0  3  0  0  0  0  0  0
   41.8610   22.0700   36.3950 C   0  0  0  0  0  0  0  0  0  0  0  0
   38.9500   21.8850   33.8840 C   0  0  0  0  0  0  0  0  0  0  0  0
   38.6210   23.1140   34.5340 C   0  0  0  0  0  0  0  0  0  0  0  0
   38.5490   24.2640   33.7530 C   0  0  0  0  0  0  0  0  0  0  0  0
   38.7940   24.1620   32.4140 N   0  0  0  0  0  0  0  0  0  0  0  0
   39.1040   22.9790   31.8340 C   0  0  0  0  0  0  0  0  0  0  0  0
   39.1810   21.8530   32.5620 N   0  0  0  0  0  0  0  0  0  0  0  0
   39.0180   20.9630   34.4460 H   0  0  0  0  0  0  0  0  0  0  0  0
   39.2950   22.9420   30.7520 H   0  0  0  0  0  0  0  0  0  0  0  0
   38.2250   25.5520   34.3080 C   0  0  0  0  0  0  0  0  0  0  0  0
   37.1070   26.1880   33.8820 C   0  0  0  0  0  0  0  0  0  0  0  0
   36.7230   27.4290   34.3640 C   0  0  0  0  0  0  0  0  0  0  0  0
   37.5580   28.0170   35.3320 C   0  0  0  0  0  0  0  0  0  0  0  0
   38.7320   27.4090   35.8150 C   0  0  0  0  0  0  0  0  0  0  0  0
   39.0290   26.1640   35.2690 C   0  0  0  0  0  0  0  0  0  0  0  0
   36.4220   25.8000   33.1460 H   0  0  0  0  0  0  0  0  0  0  0  0
   35.8430   27.9680   34.0530 H   0  0  0  0  0  0  0  0  0  0  0  0
   37.2810   28.9920   35.7290 H   0  0  0  0  0  0  0  0  0  0  0  0
   39.3260   27.8970   36.5470 H   0  0  0  0  0  0  0  0  0  0  0  0
   39.9290   25.6870   35.6320 H   0  0  0  0  0  0  0  0  0  0  0  0
  1  5  1  0  0  0  0
  1  2  1  0  0  0  0
  2  7  1  0  0  0  0
  2  3  1  0  0  0  0
  3  4  1  0  0  0  0
  3  8  1  0  0  0  0
  4 10  1  0  0  0  0
  5 12  1  1  0  0  0
  5  4  1  0  0  0  0
  6  2  1  0  0  0  0
  9  3  1  0  0  0  0
 11  4  1  0  0  0  0
 13 23  1  0  0  0  0
 13  5  1  0  0  0  0
 14 13  2  0  0  0  0
 15 14  1  0  0  0  0
 16 17  2  0  0  0  0
 16 14  1  0  0  0  0
 17 18  1  0  0  0  0
 18 19  2  0  0  0  0
 18 23  1  0  0  0  0
 19 20  1  0  0  0  0
 20 21  2  0  0  0  0
 22 21  1  0  0  0  0
 23 22  2  0  0  0  0
 24 30  1  0  0  0  0
 24 25  1  0  0  0  0
 25  1  1  0  0  0  0
 26 32  1  0  0  0  0
 26 25  2  0  0  0  0
 27 26  1  0  0  0  0
 28 27  2  0  0  0  0
 28 29  1  0  0  0  0
 29 24  2  0  0  0  0
 31 28  1  0  0  0  0
 32 37  1  0  0  0  0
 33 32  2  0  0  0  0
 33 34  1  0  0  0  0
 34 35  2  0  0  0  0
 35 40  1  0  0  0  0
 35 36  1  0  0  0  0
 36 41  1  0  0  0  0
 37 42  1  0  0  0  0
 37 36  2  0  0  0  0
 38 33  1  0  0  0  0
 39 34  1  0  0  0  0
M  END
>  <minimizedAffinity>
-5.83969641

$$$$

 OpenBabel03272509143D

 42 46  0  0  1  0  0  0  0  0999 V2000
   37.9830   25.2200   34.6410 N   0  0  0  0  0  0  0  0  0  0  0  0
   37.0690   26.2940   35.0900 C   0  0  0  0  0  0  0  0  0  0  0  0
   37.9780   27.5000   35.1300 C   0  0  0  0  0  0  0  0  0  0  0  0
   39.3090   26.9380   35.5690 C   0  0  0  0  0  0  0  0  0  0  0  0
   39.0570   25.4250   35.5980 C   0  0  2  0  0  0  0  0  0  0  0  0
   36.2790   26.4470   34.3530 H   0  0  0  0  0  0  0  0  0  0  0  0
   36.7260   26.0460   36.1100 H   0  0  0  0  0  0  0  0  0  0  0  0
   37.6140   28.2940   35.7990 H   0  0  0  0  0  0  0  0  0  0  0  0
   38.0970   27.8450   34.0680 H   0  0  0  0  0  0  0  0  0  0  0  0
   39.5810   27.3470   36.5420 H   0  0  0  0  0  0  0  0  0  0  0  0
   40.1170   27.2170   34.8670 H   0  0  0  0  0  0  0  0  0  0  0  0
   38.7130   25.2680   36.6260 H   0  0  0  0  0  0  0  0  0  0  0  0
   40.3190   24.8410   35.1960 C   0  0  0  0  0  0  0  0  0  0  0  0
   41.0750   25.3830   34.1790 C   0  0  0  0  0  0  0  0  0  0  0  0
   40.7990   26.2530   33.6190 H   0  0  0  0  0  0  0  0  0  0  0  0
   42.2870   24.8820   33.7650 C   0  0  0  0  0  3  0  0  0  0  0  0
   42.8430   23.7660   34.3620 C   0  0  0  0  0  3  0  0  0  0  0  0
   42.1300   23.1790   35.3900 C   0  0  0  0  0  0  0  0  0  0  0  0
   42.6540   22.0690   36.0080 C   0  0  0  0  0  3  0  0  0  0  0  0
   41.9870   21.4450   37.0400 C   0  0  0  0  0  3  0  0  0  0  0  0
   40.7570   21.9640   37.4520 C   0  0  0  0  0  3  0  0  0  0  0  0
   40.2920   23.0790   36.7860 C   0  0  0  0  0  3  0  0  0  0  0  0
   40.9090   23.7350   35.7620 C   0  0  0  0  0  0  0  0  0  0  0  0
   37.8940   22.8810   34.1470 C   0  0  0  0  0  0  0  0  0  0  0  0
   38.0080   24.2140   33.6480 C   0  0  0  0  0  0  0  0  0  0  0  0
   38.1380   24.3840   32.2720 C   0  0  0  0  0  0  0  0  0  0  0  0
   38.1510   23.2780   31.4730 N   0  0  0  0  0  0  0  0  0  0  0  0
   38.0410   22.0290   31.9850 C   0  0  0  0  0  0  0  0  0  0  0  0
   37.9140   21.8340   33.3070 N   0  0  0  0  0  0  0  0  0  0  0  0
   37.7900   22.6940   35.2070 H   0  0  0  0  0  0  0  0  0  0  0  0
   38.0580   21.1650   31.3060 H   0  0  0  0  0  0  0  0  0  0  0  0
   38.2590   25.6850   31.6670 C   0  0  0  0  0  0  0  0  0  0  0  0
   37.1330   26.3770   31.3680 C   0  0  0  0  0  0  0  0  0  0  0  0
   37.1610   27.6340   30.7850 C   0  0  0  0  0  0  0  0  0  0  0  0
   38.4290   28.1740   30.5060 C   0  0  0  0  0  0  0  0  0  0  0  0
   39.6350   27.5060   30.7910 C   0  0  0  0  0  0  0  0  0  0  0  0
   39.5000   26.2510   31.3770 C   0  0  0  0  0  0  0  0  0  0  0  0
   36.1310   26.0280   31.5530 H   0  0  0  0  0  0  0  0  0  0  0  0
   36.2900   28.2170   30.5320 H   0  0  0  0  0  0  0  0  0  0  0  0
   38.4810   29.1590   30.0470 H   0  0  0  0  0  0  0  0  0  0  0  0
   40.5670   27.9590   30.5600 H   0  0  0  0  0  0  0  0  0  0  0  0
   40.4200   25.7280   31.6000 H   0  0  0  0  0  0  0  0  0  0  0  0
  1  2  1  0  0  0  0
  1  5  1  0  0  0  0
  2  3  1  0  0  0  0
  2  7  1  0  0  0  0
  3  4  1  0  0  0  0
  3  8  1  0  0  0  0
  4  5  1  0  0  0  0
  4 10  1  0  0  0  0
  5 12  1  1  0  0  0
  6  2  1  0  0  0  0
  9  3  1  0  0  0  0
 11  4  1  0  0  0  0
 13  5  1  0  0  0  0
 13 23  1  0  0  0  0
 14 13  2  0  0  0  0
 15 14  1  0  0  0  0
 16 14  1  0  0  0  0
 16 17  2  0  0  0  0
 17 18  1  0  0  0  0
 18 23  2  0  0  0  0
 18 19  1  0  0  0  0
 19 20  2  0  0  0  0
 20 21  1  0  0  0  0
 22 21  2  0  0  0  0
 23 22  1  0  0  0  0
 24 30  1  0  0  0  0
 25 24  1  0  0  0  0
 25  1  1  0  0  0  0
 26 25  2  0  0  0  0
 27 28  2  0  0  0  0
 27 26  1  0  0  0  0
 28 29  1  0  0  0  0
 29 24  2  0  0  0  0
 31 28  1  0  0  0  0
 32 26  1  0  0  0  0
 33 38  1  0  0  0  0
 33 32  2  0  0  0  0
 34 33  1  0  0  0  0
 35 34  2  0  0  0  0
 35 36  1  0  0  0  0
 36 37  2  0  0  0  0
 37 42  1  0  0  0  0
 37 32  1  0  0  0  0
 39 34  1  0  0  0  0
 40 35  1  0  0  0  0
 41 36  1  0  0  0  0
M  END
>  <minimizedAffinity>
-5.79922247

$$$$
