
     RDKit          3D

 29 31  0  0  0  0  0  0  0  0999 V2000
   38.3049   31.2362   50.1169 C   0  0  0  0  0  0  0  0  0  0  0  0
   38.2840   31.5945   48.7705 C   0  0  0  0  0  0  0  0  0  0  0  0
   37.2065   31.2226   47.9853 C   0  0  0  0  0  0  0  0  0  0  0  0
   36.2345   30.5130   48.6237 N   0  0  0  0  0  0  0  0  0  0  0  0
   36.2563   30.1710   49.9070 C   0  0  0  0  0  0  0  0  0  0  0  0
   37.2974   30.5423   50.6333 N   0  0  0  0  0  0  0  0  0  0  0  0
   35.1216   29.3873   50.4571 C   0  0  0  0  0  0  0  0  0  0  0  0
   35.2716   29.1198   51.8067 F   0  0  0  0  0  0  0  0  0  0  0  0
   33.9167   30.0507   50.2926 F   0  0  0  0  0  0  0  0  0  0  0  0
   34.9556   28.1745   49.8110 F   0  0  0  0  0  0  0  0  0  0  0  0
   39.1454   31.5283   50.7308 H   0  0  0  0  0  0  0  0  0  0  0  0
   39.1416   32.1104   48.4043 H   0  0  0  0  0  0  0  0  0  0  0  0
   37.0131   31.4217   46.5704 C   0  0  0  0  0  0  0  0  0  0  0  0
   36.8682   32.7487   46.1469 C   0  0  0  0  0  0  0  0  0  0  0  0
   36.8943   33.5593   46.8657 H   0  0  0  0  0  0  0  0  0  0  0  0
   36.6880   33.1458   44.8554 C   0  0  0  0  0  0  0  0  0  0  0  0
   36.6393   32.2013   43.8554 C   0  0  0  0  0  0  0  0  0  0  0  0
   36.7777   30.8895   44.2054 C   0  0  0  0  0  0  0  0  0  0  0  0
   36.7681   29.9218   43.2276 C   0  0  0  0  0  0  0  0  0  0  0  0
   36.9409   28.5762   43.5257 C   0  0  0  0  0  0  0  0  0  0  0  0
   37.1245   28.2579   44.8573 C   0  0  0  0  0  0  0  0  0  0  0  0
   37.1281   29.2358   45.7997 C   0  0  0  0  0  0  0  0  0  0  0  0
   36.9568   30.5479   45.5166 C   0  0  0  0  0  0  0  0  0  0  0  0
   36.5799   34.1720   44.5691 H   0  0  0  0  0  0  0  0  0  0  0  0
   36.4952   32.5155   42.8339 H   0  0  0  0  0  0  0  0  0  0  0  0
   36.6231   30.1905   42.1846 H   0  0  0  0  0  0  0  0  0  0  0  0
   36.9277   27.8522   42.7470 H   0  0  0  0  0  0  0  0  0  0  0  0
   37.2608   27.1960   45.0784 H   0  0  0  0  0  0  0  0  0  0  0  0
   37.3173   28.8916   46.7825 H   0  0  0  0  0  0  0  0  0  0  0  0
  1  6  2  0
  2  1  1  0
  3  4  1  0
  3  2  2  0
  4  5  2  0
  5  7  1  0
  5  6  1  0
  7  8  1  0
  9  7  1  0
 10  7  1  0
  1 11  1  0
  2 12  1  0
 13 14  2  0
 14 15  1  0
 14 16  1  0
 16 17  2  0
 17 18  1  0
 18 19  2  0
 19 20  1  0
 20 21  2  0
 21 22  1  0
 22 23  2  0
 23 13  1  0
 23 18  1  0
 16 24  1  0
 17 25  1  0
 19 26  1  0
 20 27  1  0
 21 28  1  0
 22 29  1  0
  3 13  1  0
M  ISO  3  11  14  12  14  15  15
M  END
>  <DihAtoms>  (1) 
3,2,12,13

>  <DihDeg>  (1) 
-32.813208269965244

$$$$
