REMARK  Name = 
REMARK  6 active torsions:
REMARK  status: ('A' for Active; 'I' for Inactive)
REMARK    1  A    between atoms: C_3  and  C_9
REMARK    2  A    between atoms: C_5  and  O_14
REMARK    3  A    between atoms: O_14  and  C_15
REMARK    4  A    between atoms: C_15  and  C_16
REMARK    5  A    between atoms: C_16  and  C_17
REMARK    6  A    between atoms: C_21  and  C_35
REMARK                            x       y       z     vdW  Elec       q    Type
REMARK                         _______ _______ _______ _____ _____    ______ ____
ROOT
ATOM      1  C   UNL     1      34.448  28.660  48.154  0.00  0.00    +0.000 C 
ATOM      2  H   UNL     1      35.218  28.955  47.423  0.00  0.00    +0.000 HD
ATOM      3  H   UNL     1      33.798  29.551  48.319  0.00  0.00    +0.000 HD
ENDROOT
BRANCH   1   4
ATOM      4  C   UNL     1      33.568  27.548  47.693  0.00  0.00    +0.000 C 
ATOM      5  H   UNL     1      33.809  27.332  46.629  0.00  0.00    +0.000 HD
ATOM      6  H   UNL     1      33.725  26.599  48.241  0.00  0.00    +0.000 HD
BRANCH   4   7
ATOM      7  C   UNL     1      32.120  27.905  47.718  0.00  0.00    +0.000 A 
ATOM      8  C   UNL     1      31.353  27.511  48.788  0.00  0.00    +0.000 A 
ATOM      9  C   UNL     1      30.030  27.801  48.852  0.00  0.00    +0.000 A 
ATOM     10  N   UNL     1      29.459  28.471  47.878  0.00  0.00    +0.000 NA
ATOM     11  C   UNL     1      30.186  28.877  46.808  0.00  0.00    +0.000 A 
ATOM     12  N   UNL     1      31.510  28.587  46.742  0.00  0.00    +0.000 NA
ATOM     13  H   UNL     1      31.834  26.962  49.577  0.00  0.00    +0.000 HD
ATOM     14  H   UNL     1      29.390  27.509  49.675  0.00  0.00    +0.000 HD
BRANCH  11  15
ATOM     15  C   UNL     1      29.778  29.631  45.608  0.00  0.00    +0.000 A 
ATOM     16  C   UNL     1      30.488  30.687  45.074  0.00  0.00    +0.000 A 
ATOM     17  H   UNL     1      31.421  30.989  45.575  0.00  0.00    +0.000 HD
ATOM     18  C   UNL     1      30.116  31.391  43.962  0.00  0.00    +0.000 A 
ATOM     19  C   UNL     1      28.963  31.064  43.294  0.00  0.00    +0.000 A 
ATOM     20  C   UNL     1      28.213  30.020  43.776  0.00  0.00    +0.000 A 
ATOM     21  C   UNL     1      27.068  29.738  43.066  0.00  0.00    +0.000 A 
ATOM     22  C   UNL     1      26.253  28.706  43.478  0.00  0.00    +0.000 A 
ATOM     23  C   UNL     1      26.646  27.997  44.614  0.00  0.00    +0.000 A 
ATOM     24  C   UNL     1      27.802  28.339  45.270  0.00  0.00    +0.000 A 
ATOM     25  C   UNL     1      28.637  29.360  44.887  0.00  0.00    +0.000 A 
ENDBRANCH  11  15
ENDBRANCH   4   7
ENDBRANCH   1   4
BRANCH   1  26
ATOM     26  O   UNL     1      35.001  28.367  49.443  0.00  0.00    +0.000 OA
BRANCH  26  31
ATOM     27  C   UNL     1      37.325  30.176  51.515  0.00  0.00    +0.000 A 
ATOM     28  C   UNL     1      38.071  30.866  50.518  0.00  0.00    +0.000 A 
ATOM     29  C   UNL     1      37.708  30.651  49.205  0.00  0.00    +0.000 A 
ATOM     30  N   UNL     1      36.668  29.794  48.977  0.00  0.00    +0.000 NA
ATOM     31  C   UNL     1      35.989  29.162  49.931  0.00  0.00    +0.000 A 
ATOM     32  N   UNL     1      36.327  29.359  51.217  0.00  0.00    +0.000 NA
ATOM     33  H   UNL     1      37.635  30.366  52.547  0.00  0.00    +0.000 HD
ATOM     34  H   UNL     1      38.885  31.536  50.710  0.00  0.00    +0.000 HD
BRANCH  29  37
ATOM     35  F   UNL     1      38.946  33.258  49.010  0.00  0.00    +0.000 F 
ATOM     36  C   UNL     1      38.920  32.470  47.934  0.00  0.00    +0.000 A 
ATOM     37  C   UNL     1      38.341  31.260  48.050  0.00  0.00    +0.000 A 
ATOM     38  C   UNL     1      38.372  30.521  46.860  0.00  0.00    +0.000 A 
ATOM     39  C   UNL     1      38.936  30.985  45.697  0.00  0.00    +0.000 A 
ATOM     40  C   UNL     1      39.510  32.221  45.638  0.00  0.00    +0.000 A 
ATOM     41  C   UNL     1      39.500  32.983  46.791  0.00  0.00    +0.000 A 
ATOM     42  H   UNL     1      37.942  29.519  46.795  0.00  0.00    +0.000 HD
ATOM     43  H   UNL     1      38.945  30.390  44.793  0.00  0.00    +0.000 HD
ATOM     44  H   UNL     1      39.954  32.601  44.744  0.00  0.00    +0.000 HD
ATOM     45  H   UNL     1      39.945  33.962  46.776  0.00  0.00    +0.000 HD
ENDBRANCH  29  37
ENDBRANCH  26  31
ENDBRANCH   1  26
TORSDOF 6
