
 OpenBabel03262521383D

 31 33  0  0  0  0  0  0  0  0999 V2000
   35.9860   28.0120   34.7640 F   0  0  0  0  0  0  0  0  0  0  0  0
   36.1500   28.7070   33.5810 C   0  0  0  0  0  0  0  0  0  0  0  0
   36.8380   28.1770   32.4950 C   0  0  0  0  0  0  0  0  0  0  0  0
   36.9670   28.9200   31.3440 C   0  0  0  0  0  0  0  0  0  0  0  0
   36.4220   30.1930   31.2490 C   0  0  0  0  0  0  0  0  0  0  0  0
   35.7410   30.6800   32.3680 C   0  0  0  0  0  0  0  0  0  0  0  0
   35.5930   29.9680   33.5310 C   0  0  0  0  0  0  0  0  0  0  0  0
   37.5210   28.4400   30.5260 H   0  0  0  0  0  0  0  0  0  0  0  0
   36.5430   30.7480   30.3310 H   0  0  0  0  0  0  0  0  0  0  0  0
   35.3320   31.6820   32.2430 H   0  0  0  0  0  0  0  0  0  0  0  0
   36.5590   25.8260   32.2000 C   0  0  0  0  0  0  0  0  0  0  0  0
   37.3710   26.8520   32.6770 C   0  0  0  0  0  0  0  0  0  0  0  0
   38.5740   26.4860   33.2590 C   0  0  0  0  0  0  0  0  0  0  0  0
   38.9020   25.1650   33.3390 N   0  0  0  0  0  0  0  0  0  0  0  0
   38.0920   24.2080   32.8670 C   0  0  0  0  0  0  0  0  0  0  0  0
   36.9140   24.5300   32.2940 N   0  0  0  0  0  0  0  0  0  0  0  0
   35.5910   26.0120   31.7250 H   0  0  0  0  0  0  0  0  0  0  0  0
   39.1720   27.3120   33.6140 H   0  0  0  0  0  0  0  0  0  0  0  0
   38.5120   23.2270   33.0150 H   0  0  0  0  0  0  0  0  0  0  0  0
   33.5440   30.4230   34.9930 C   0  0  0  0  0  0  0  0  0  0  0  0
   34.8650   30.5370   34.6700 C   0  0  0  0  0  0  0  0  0  0  0  0
   35.7070   31.2880   35.4920 C   0  0  0  0  0  0  0  0  0  0  0  0
   36.7800   31.4540   35.3430 H   0  0  0  0  0  0  0  0  0  0  0  0
   35.2430   31.9190   36.6230 C   0  0  0  0  0  0  0  0  0  0  0  0
   35.8570   32.5100   37.2910 H   0  0  0  0  0  0  0  0  0  0  0  0
   33.8900   31.7880   36.9340 C   0  0  0  0  0  3  0  0  0  0  0  0
   33.0540   31.0410   36.1140 C   0  0  0  0  0  3  0  0  0  0  0  0
   33.3460   28.5060   33.2590 H   0  0  0  0  0  0  0  0  0  0  0  0
   32.6060   29.4610   33.8850 S   0  0  0  0  0  0  0  0  0  0  0  0
   31.3870   28.8820   34.5190 O   0  0  0  0  0  0  0  0  0  0  0  0
   32.1150   30.4140   32.8070 O   0  0  0  0  0  0  0  0  0  0  0  0
  2  1  1  0  0  0  0
  3 12  1  0  0  0  0
  3  2  2  0  0  0  0
  4  3  1  0  0  0  0
  5  4  2  0  0  0  0
  5  6  1  0  0  0  0
  6  7  2  0  0  0  0
  7  2  1  0  0  0  0
  7 21  1  0  0  0  0
  8  4  1  0  0  0  0
  9  5  1  0  0  0  0
 10  6  1  0  0  0  0
 11 16  2  0  0  0  0
 11 12  1  0  0  0  0
 12 13  2  0  0  0  0
 13 14  1  0  0  0  0
 13 18  1  0  0  0  0
 15 19  1  0  0  0  0
 15 14  2  0  0  0  0
 16 15  1  0  0  0  0
 17 11  1  0  0  0  0
 20 27  1  0  0  0  0
 21 20  2  0  0  0  0
 21 22  1  0  0  0  0
 22 24  2  0  0  0  0
 23 22  1  0  0  0  0
 24 26  1  0  0  0  0
 24 25  1  0  0  0  0
 27 26  2  0  0  0  0
 28 29  1  0  0  0  0
 29 30  2  0  0  0  0
 29 20  1  0  0  0  0
 31 29  2  0  0  0  0
M  END
>  <minimizedAffinity>
-5.53860474

$$$$

 OpenBabel03262521383D

 31 33  0  0  0  0  0  0  0  0999 V2000
   37.7410   23.2550   33.2490 F   0  0  0  0  0  0  0  0  0  0  0  0
   36.8910   23.9980   32.4530 C   0  0  0  0  0  0  0  0  0  0  0  0
   35.9930   23.4080   31.5700 C   0  0  0  0  0  0  0  0  0  0  0  0
   35.1720   24.2030   30.8030 C   0  0  0  0  0  0  0  0  0  0  0  0
   35.2250   25.5870   30.8980 C   0  0  0  0  0  0  0  0  0  0  0  0
   36.1440   26.1300   31.8000 C   0  0  0  0  0  0  0  0  0  0  0  0
   36.9780   25.3680   32.5780 C   0  0  0  0  0  0  0  0  0  0  0  0
   34.4880   23.6710   30.1280 H   0  0  0  0  0  0  0  0  0  0  0  0
   34.5660   26.1790   30.2810 H   0  0  0  0  0  0  0  0  0  0  0  0
   36.1470   27.2190   31.8360 H   0  0  0  0  0  0  0  0  0  0  0  0
   35.0200   21.3600   32.3110 C   0  0  0  0  0  0  0  0  0  0  0  0
   36.0030   21.9680   31.5350 C   0  0  0  0  0  0  0  0  0  0  0  0
   36.8580   21.1350   30.8310 C   0  0  0  0  0  0  0  0  0  0  0  0
   36.7040   19.7840   30.9300 N   0  0  0  0  0  0  0  0  0  0  0  0
   35.7440   19.2380   31.6890 C   0  0  0  0  0  0  0  0  0  0  0  0
   34.8940   20.0210   32.3850 N   0  0  0  0  0  0  0  0  0  0  0  0
   34.2970   21.9300   32.9010 H   0  0  0  0  0  0  0  0  0  0  0  0
   37.6040   21.6490   30.2430 H   0  0  0  0  0  0  0  0  0  0  0  0
   35.7720   18.1620   31.6460 H   0  0  0  0  0  0  0  0  0  0  0  0
   39.2370   26.3080   33.3240 C   0  0  0  0  0  0  0  0  0  0  0  0
   37.9200   26.0010   33.5070 C   0  0  0  0  0  0  0  0  0  0  0  0
   37.3120   26.3000   34.7280 C   0  0  0  0  0  0  0  0  0  0  0  0
   36.2680   26.1060   34.9970 H   0  0  0  0  0  0  0  0  0  0  0  0
   38.0040   26.8980   35.7550 C   0  0  0  0  0  0  0  0  0  0  0  0
   37.5770   27.1500   36.7170 H   0  0  0  0  0  0  0  0  0  0  0  0
   39.3480   27.2040   35.5450 C   0  0  0  0  0  3  0  0  0  0  0  0
   39.9510   26.9040   34.3300 C   0  0  0  0  0  3  0  0  0  0  0  0
   38.9110   25.8390   30.7950 H   0  0  0  0  0  0  0  0  0  0  0  0
   39.8710   25.8810   31.7590 S   0  0  0  0  0  0  0  0  0  0  0  0
   41.0190   26.7400   31.3520 O   0  0  0  0  0  0  0  0  0  0  0  0
   40.4200   24.4700   31.8940 O   0  0  0  0  0  0  0  0  0  0  0  0
  2  7  1  0  0  0  0
  2  1  1  0  0  0  0
  3  2  2  0  0  0  0
  4  5  2  0  0  0  0
  4  3  1  0  0  0  0
  5  6  1  0  0  0  0
  6 10  1  0  0  0  0
  6  7  2  0  0  0  0
  7 21  1  0  0  0  0
  8  4  1  0  0  0  0
  9  5  1  0  0  0  0
 11 16  1  0  0  0  0
 11 17  1  0  0  0  0
 12  3  1  0  0  0  0
 12 11  2  0  0  0  0
 13 14  2  0  0  0  0
 13 12  1  0  0  0  0
 14 15  1  0  0  0  0
 15 16  2  0  0  0  0
 18 13  1  0  0  0  0
 19 15  1  0  0  0  0
 20 21  2  0  0  0  0
 20 27  1  0  0  0  0
 21 22  1  0  0  0  0
 22 23  1  0  0  0  0
 22 24  2  0  0  0  0
 24 25  1  0  0  0  0
 26 24  1  0  0  0  0
 27 26  2  0  0  0  0
 28 29  1  0  0  0  0
 29 31  2  0  0  0  0
 29 20  1  0  0  0  0
 30 29  2  0  0  0  0
M  END
>  <minimizedAffinity>
-5.34806442

$$$$

 OpenBabel03262521383D

 31 33  0  0  0  0  0  0  0  0999 V2000
   35.9830   27.7310   34.8730 F   0  0  0  0  0  0  0  0  0  0  0  0
   36.2180   28.4110   33.6930 C   0  0  0  0  0  0  0  0  0  0  0  0
   35.7820   29.7160   33.4870 C   0  0  0  0  0  0  0  0  0  0  0  0
   36.0490   30.3390   32.2900 C   0  0  0  0  0  0  0  0  0  0  0  0
   36.7460   29.6860   31.2820 C   0  0  0  0  0  0  0  0  0  0  0  0
   37.1610   28.3770   31.5400 C   0  0  0  0  0  0  0  0  0  0  0  0
   36.9130   27.7250   32.7200 C   0  0  0  0  0  0  0  0  0  0  0  0
   35.6750   31.3680   32.1940 H   0  0  0  0  0  0  0  0  0  0  0  0
   36.9360   30.2070   30.3550 H   0  0  0  0  0  0  0  0  0  0  0  0
   37.7040   27.9090   30.7190 H   0  0  0  0  0  0  0  0  0  0  0  0
   35.8490   31.1020   35.4270 C   0  0  0  0  0  0  0  0  0  0  0  0
   35.0680   30.3180   34.5820 C   0  0  0  0  0  0  0  0  0  0  0  0
   33.7200   30.2120   34.8860 C   0  0  0  0  0  0  0  0  0  0  0  0
   33.2290   30.8650   35.9780 N   0  0  0  0  0  0  0  0  0  0  0  0
   34.0150   31.6110   36.7660 C   0  0  0  0  0  0  0  0  0  0  0  0
   35.3310   31.7350   36.4980 N   0  0  0  0  0  0  0  0  0  0  0  0
   36.9220   31.2490   35.2720 H   0  0  0  0  0  0  0  0  0  0  0  0
   33.1520   29.5960   34.2050 H   0  0  0  0  0  0  0  0  0  0  0  0
   33.4580   32.0500   37.5760 H   0  0  0  0  0  0  0  0  0  0  0  0
   38.4270   25.8970   33.6760 C   0  0  0  0  0  0  0  0  0  0  0  0
   37.3790   26.3500   32.9280 C   0  0  0  0  0  0  0  0  0  0  0  0
   36.5930   25.4330   32.2280 C   0  0  0  0  0  0  0  0  0  0  0  0
   35.7280   25.6680   31.5970 H   0  0  0  0  0  0  0  0  0  0  0  0
   36.8420   24.0800   32.2730 C   0  0  0  0  0  0  0  0  0  0  0  0
   36.2610   23.3320   31.7490 H   0  0  0  0  0  0  0  0  0  0  0  0
   37.9170   23.6410   33.0450 C   0  0  0  0  0  3  0  0  0  0  0  0
   38.6990   24.5550   33.7380 C   0  0  0  0  0  3  0  0  0  0  0  0
   39.3350   28.3220   33.8140 H   0  0  0  0  0  0  0  0  0  0  0  0
   39.3250   27.1430   34.4960 S   0  0  0  0  0  0  0  0  0  0  0  0
   38.8880   27.3310   35.9080 O   0  0  0  0  0  0  0  0  0  0  0  0
   40.7650   26.6580   34.5550 O   0  0  0  0  0  0  0  0  0  0  0  0
  2  1  1  0  0  0  0
  3  2  1  0  0  0  0
  3 12  1  0  0  0  0
  4  3  2  0  0  0  0
  5  6  2  0  0  0  0
  5  4  1  0  0  0  0
  6  7  1  0  0  0  0
  7 21  1  0  0  0  0
  7  2  2  0  0  0  0
  8  4  1  0  0  0  0
  9  5  1  0  0  0  0
 10  6  1  0  0  0  0
 11 16  1  0  0  0  0
 12 13  1  0  0  0  0
 12 11  2  0  0  0  0
 13 14  2  0  0  0  0
 14 15  1  0  0  0  0
 15 19  1  0  0  0  0
 16 15  2  0  0  0  0
 17 11  1  0  0  0  0
 18 13  1  0  0  0  0
 20 27  1  0  0  0  0
 20 29  1  0  0  0  0
 21 20  2  0  0  0  0
 22 24  2  0  0  0  0
 22 21  1  0  0  0  0
 23 22  1  0  0  0  0
 24 26  1  0  0  0  0
 25 24  1  0  0  0  0
 26 27  2  0  0  0  0
 28 29  1  0  0  0  0
 29 31  2  0  0  0  0
 29 30  2  0  0  0  0
M  END
>  <minimizedAffinity>
-5.33669233

$$$$

 OpenBabel03262521383D

 31 33  0  0  0  0  0  0  0  0999 V2000
   38.3370   23.3920   32.8090 F   0  0  0  0  0  0  0  0  0  0  0  0
   37.3530   24.1740   32.2350 C   0  0  0  0  0  0  0  0  0  0  0  0
   36.1850   23.6330   31.7090 C   0  0  0  0  0  0  0  0  0  0  0  0
   35.2420   24.4650   31.1510 C   0  0  0  0  0  0  0  0  0  0  0  0
   35.4380   25.8390   31.1040 C   0  0  0  0  0  0  0  0  0  0  0  0
   36.6280   26.3320   31.6470 C   0  0  0  0  0  0  0  0  0  0  0  0
   37.5890   25.5320   32.2100 C   0  0  0  0  0  0  0  0  0  0  0  0
   34.3450   23.9720   30.7540 H   0  0  0  0  0  0  0  0  0  0  0  0
   34.6770   26.4610   30.6580 H   0  0  0  0  0  0  0  0  0  0  0  0
   36.7340   27.4150   31.5850 H   0  0  0  0  0  0  0  0  0  0  0  0
   36.7800   21.4930   30.8380 C   0  0  0  0  0  0  0  0  0  0  0  0
   36.0620   22.2010   31.7980 C   0  0  0  0  0  0  0  0  0  0  0  0
   35.3280   21.4610   32.7110 C   0  0  0  0  0  0  0  0  0  0  0  0
   35.3390   20.1000   32.6290 N   0  0  0  0  0  0  0  0  0  0  0  0
   36.0440   19.4560   31.6880 C   0  0  0  0  0  0  0  0  0  0  0  0
   36.7700   20.1470   30.7860 N   0  0  0  0  0  0  0  0  0  0  0  0
   37.3900   21.9850   30.0750 H   0  0  0  0  0  0  0  0  0  0  0  0
   34.7870   22.0490   33.4370 H   0  0  0  0  0  0  0  0  0  0  0  0
   35.9360   18.3880   31.7760 H   0  0  0  0  0  0  0  0  0  0  0  0
   39.1210   26.4150   34.0590 C   0  0  0  0  0  0  0  0  0  0  0  0
   38.8160   26.1140   32.7630 C   0  0  0  0  0  0  0  0  0  0  0  0
   39.7570   26.3690   31.7640 C   0  0  0  0  0  0  0  0  0  0  0  0
   39.6360   26.1720   30.6920 H   0  0  0  0  0  0  0  0  0  0  0  0
   40.9870   26.9160   32.0480 C   0  0  0  0  0  0  0  0  0  0  0  0
   41.7490   27.1310   31.3090 H   0  0  0  0  0  0  0  0  0  0  0  0
   41.2760   27.2150   33.3790 C   0  0  0  0  0  3  0  0  0  0  0  0
   40.3380   26.9610   34.3710 C   0  0  0  0  0  3  0  0  0  0  0  0
   36.6190   26.3540   34.7380 H   0  0  0  0  0  0  0  0  0  0  0  0
   37.8610   26.0490   35.2040 S   0  0  0  0  0  0  0  0  0  0  0  0
   37.9290   24.6460   35.7030 O   0  0  0  0  0  0  0  0  0  0  0  0
   38.1090   26.9420   36.4090 O   0  0  0  0  0  0  0  0  0  0  0  0
  2  1  1  0  0  0  0
  3 12  1  0  0  0  0
  3  2  2  0  0  0  0
  4  3  1  0  0  0  0
  5  4  2  0  0  0  0
  5  6  1  0  0  0  0
  6  7  2  0  0  0  0
  7  2  1  0  0  0  0
  7 21  1  0  0  0  0
  8  4  1  0  0  0  0
  9  5  1  0  0  0  0
 10  6  1  0  0  0  0
 11 12  1  0  0  0  0
 12 13  2  0  0  0  0
 13 18  1  0  0  0  0
 14 13  1  0  0  0  0
 15 19  1  0  0  0  0
 15 14  2  0  0  0  0
 16 11  2  0  0  0  0
 16 15  1  0  0  0  0
 17 11  1  0  0  0  0
 20 27  1  0  0  0  0
 20 29  1  0  0  0  0
 21 20  2  0  0  0  0
 22 24  2  0  0  0  0
 22 21  1  0  0  0  0
 23 22  1  0  0  0  0
 24 26  1  0  0  0  0
 25 24  1  0  0  0  0
 26 27  2  0  0  0  0
 28 29  1  0  0  0  0
 29 30  2  0  0  0  0
 29 31  2  0  0  0  0
M  END
>  <minimizedAffinity>
-5.27960873

$$$$

 OpenBabel03262521383D

 31 33  0  0  0  0  0  0  0  0999 V2000
   35.5780   28.1610   34.2920 F   0  0  0  0  0  0  0  0  0  0  0  0
   35.8350   28.9910   33.2170 C   0  0  0  0  0  0  0  0  0  0  0  0
   35.6600   30.3680   33.2810 C   0  0  0  0  0  0  0  0  0  0  0  0
   35.9340   31.1400   32.1750 C   0  0  0  0  0  0  0  0  0  0  0  0
   36.3820   30.5640   30.9940 C   0  0  0  0  0  0  0  0  0  0  0  0
   36.5410   29.1760   30.9820 C   0  0  0  0  0  0  0  0  0  0  0  0
   36.2780   28.3760   32.0650 C   0  0  0  0  0  0  0  0  0  0  0  0
   35.7740   32.2200   32.2950 H   0  0  0  0  0  0  0  0  0  0  0  0
   36.5870   31.2000   30.1460 H   0  0  0  0  0  0  0  0  0  0  0  0
   36.8950   28.7730   30.0330 H   0  0  0  0  0  0  0  0  0  0  0  0
   33.8110   30.8460   34.7100 C   0  0  0  0  0  0  0  0  0  0  0  0
   35.1930   30.8830   34.5420 C   0  0  0  0  0  0  0  0  0  0  0  0
   35.9430   31.3990   35.5870 C   0  0  0  0  0  0  0  0  0  0  0  0
   35.3080   31.8400   36.7090 N   0  0  0  0  0  0  0  0  0  0  0  0
   33.9740   31.7880   36.8320 C   0  0  0  0  0  0  0  0  0  0  0  0
   33.2150   31.2910   35.8340 N   0  0  0  0  0  0  0  0  0  0  0  0
   33.1330   30.4570   33.9450 H   0  0  0  0  0  0  0  0  0  0  0  0
   37.0090   31.4080   35.4140 H   0  0  0  0  0  0  0  0  0  0  0  0
   33.6500   32.1780   37.7820 H   0  0  0  0  0  0  0  0  0  0  0  0
   37.5100   26.1640   32.4310 C   0  0  0  0  0  0  0  0  0  0  0  0
   36.4660   26.9240   31.9860 C   0  0  0  0  0  0  0  0  0  0  0  0
   35.3890   26.3010   31.3540 C   0  0  0  0  0  0  0  0  0  0  0  0
   34.4960   26.7960   30.9550 H   0  0  0  0  0  0  0  0  0  0  0  0
   35.3470   24.9390   31.1660 C   0  0  0  0  0  0  0  0  0  0  0  0
   34.5340   24.4110   30.6830 H   0  0  0  0  0  0  0  0  0  0  0  0
   36.4230   24.1830   31.6300 C   0  0  0  0  0  3  0  0  0  0  0  0
   37.4940   24.8050   32.2580 C   0  0  0  0  0  3  0  0  0  0  0  0
   39.0060   28.2740   32.6150 H   0  0  0  0  0  0  0  0  0  0  0  0
   38.7870   27.0640   33.2000 S   0  0  0  0  0  0  0  0  0  0  0  0
   38.5920   27.1950   34.6720 O   0  0  0  0  0  0  0  0  0  0  0  0
   40.0560   26.2480   33.0080 O   0  0  0  0  0  0  0  0  0  0  0  0
  2  3  1  0  0  0  0
  2  1  1  0  0  0  0
  3 12  1  0  0  0  0
  4  8  1  0  0  0  0
  4  3  2  0  0  0  0
  5  4  1  0  0  0  0
  6  5  2  0  0  0  0
  6  7  1  0  0  0  0
  7  2  2  0  0  0  0
  9  5  1  0  0  0  0
 10  6  1  0  0  0  0
 11 16  1  0  0  0  0
 12 11  2  0  0  0  0
 12 13  1  0  0  0  0
 13 14  2  0  0  0  0
 14 15  1  0  0  0  0
 15 19  1  0  0  0  0
 16 15  2  0  0  0  0
 17 11  1  0  0  0  0
 18 13  1  0  0  0  0
 20 29  1  0  0  0  0
 21  7  1  0  0  0  0
 21 20  2  0  0  0  0
 22 21  1  0  0  0  0
 23 22  1  0  0  0  0
 24 22  2  0  0  0  0
 24 26  1  0  0  0  0
 25 24  1  0  0  0  0
 26 27  2  0  0  0  0
 27 20  1  0  0  0  0
 28 29  1  0  0  0  0
 29 30  2  0  0  0  0
 31 29  2  0  0  0  0
M  END
>  <minimizedAffinity>
-5.23222113

$$$$

 OpenBabel03262521383D

 31 33  0  0  0  0  0  0  0  0999 V2000
   37.6600   21.5740   34.4910 F   0  0  0  0  0  0  0  0  0  0  0  0
   37.8000   22.8010   33.8710 C   0  0  0  0  0  0  0  0  0  0  0  0
   37.4630   23.0040   32.5380 C   0  0  0  0  0  0  0  0  0  0  0  0
   37.6260   24.2510   31.9780 C   0  0  0  0  0  0  0  0  0  0  0  0
   38.1230   25.3100   32.7250 C   0  0  0  0  0  0  0  0  0  0  0  0
   38.4470   25.0540   34.0600 C   0  0  0  0  0  0  0  0  0  0  0  0
   38.2980   23.8250   34.6490 C   0  0  0  0  0  0  0  0  0  0  0  0
   37.3400   24.3410   30.9220 H   0  0  0  0  0  0  0  0  0  0  0  0
   38.2380   26.2750   32.2520 H   0  0  0  0  0  0  0  0  0  0  0  0
   38.8320   25.9170   34.6020 H   0  0  0  0  0  0  0  0  0  0  0  0
   37.8810   21.2170   31.0140 C   0  0  0  0  0  0  0  0  0  0  0  0
   36.9550   21.8530   31.8370 C   0  0  0  0  0  0  0  0  0  0  0  0
   35.6790   21.3150   31.8870 C   0  0  0  0  0  0  0  0  0  0  0  0
   35.3920   20.2100   31.1410 N   0  0  0  0  0  0  0  0  0  0  0  0
   36.3120   19.6280   30.3600 C   0  0  0  0  0  0  0  0  0  0  0  0
   37.5630   20.1260   30.2900 N   0  0  0  0  0  0  0  0  0  0  0  0
   38.9120   21.5640   30.9070 H   0  0  0  0  0  0  0  0  0  0  0  0
   34.9950   21.8390   32.5380 H   0  0  0  0  0  0  0  0  0  0  0  0
   35.9080   18.7710   29.8480 H   0  0  0  0  0  0  0  0  0  0  0  0
   39.7650   23.0290   36.5890 C   0  0  0  0  0  0  0  0  0  0  0  0
   38.6560   23.6220   36.0570 C   0  0  0  0  0  0  0  0  0  0  0  0
   37.6780   24.1310   36.9130 C   0  0  0  0  0  0  0  0  0  0  0  0
   36.7480   24.6280   36.6120 H   0  0  0  0  0  0  0  0  0  0  0  0
   37.7980   24.0530   38.2810 C   0  0  0  0  0  0  0  0  0  0  0  0
   37.0680   24.4330   38.9840 H   0  0  0  0  0  0  0  0  0  0  0  0
   38.9400   23.4440   38.8010 C   0  0  0  0  0  3  0  0  0  0  0  0
   39.9110   22.9370   37.9480 C   0  0  0  0  0  3  0  0  0  0  0  0
   40.3040   21.8100   34.3640 H   0  0  0  0  0  0  0  0  0  0  0  0
   40.9050   22.4360   35.4130 S   0  0  0  0  0  0  0  0  0  0  0  0
   41.8530   23.4900   34.9520 O   0  0  0  0  0  0  0  0  0  0  0  0
   41.7450   21.3890   36.1270 O   0  0  0  0  0  0  0  0  0  0  0  0
  2  1  1  0  0  0  0
  2  7  1  0  0  0  0
  3  2  2  0  0  0  0
  4  3  1  0  0  0  0
  4  5  2  0  0  0  0
  5  6  1  0  0  0  0
  6 10  1  0  0  0  0
  6  7  2  0  0  0  0
  7 21  1  0  0  0  0
  8  4  1  0  0  0  0
  9  5  1  0  0  0  0
 11 12  1  0  0  0  0
 12 13  2  0  0  0  0
 12  3  1  0  0  0  0
 13 18  1  0  0  0  0
 14 13  1  0  0  0  0
 15 14  2  0  0  0  0
 16 15  1  0  0  0  0
 16 11  2  0  0  0  0
 17 11  1  0  0  0  0
 19 15  1  0  0  0  0
 20 27  1  0  0  0  0
 21 20  2  0  0  0  0
 21 22  1  0  0  0  0
 22 24  2  0  0  0  0
 23 22  1  0  0  0  0
 24 26  1  0  0  0  0
 24 25  1  0  0  0  0
 27 26  2  0  0  0  0
 28 29  1  0  0  0  0
 29 31  2  0  0  0  0
 29 20  1  0  0  0  0
 30 29  2  0  0  0  0
M  END
>  <minimizedAffinity>
-5.16039801

$$$$

 OpenBabel03262521383D

 31 33  0  0  0  0  0  0  0  0999 V2000
   36.5970   27.7320   34.9360 F   0  0  0  0  0  0  0  0  0  0  0  0
   36.6930   28.1970   33.6380 C   0  0  0  0  0  0  0  0  0  0  0  0
   35.8790   29.2130   33.1490 C   0  0  0  0  0  0  0  0  0  0  0  0
   36.0240   29.6310   31.8460 C   0  0  0  0  0  0  0  0  0  0  0  0
   36.9700   29.0540   31.0100 C   0  0  0  0  0  0  0  0  0  0  0  0
   37.7630   28.0370   31.5500 C   0  0  0  0  0  0  0  0  0  0  0  0
   37.6450   27.5950   32.8430 C   0  0  0  0  0  0  0  0  0  0  0  0
   35.3500   30.4360   31.5260 H   0  0  0  0  0  0  0  0  0  0  0  0
   37.0560   29.4070   29.9930 H   0  0  0  0  0  0  0  0  0  0  0  0
   38.4890   27.6170   30.8540 H   0  0  0  0  0  0  0  0  0  0  0  0
   35.4350   30.7310   34.9340 C   0  0  0  0  0  0  0  0  0  0  0  0
   34.9260   29.7560   34.0810 C   0  0  0  0  0  0  0  0  0  0  0  0
   33.5870   29.4280   34.2240 C   0  0  0  0  0  0  0  0  0  0  0  0
   32.8440   30.0610   35.1760 N   0  0  0  0  0  0  0  0  0  0  0  0
   33.3720   30.9950   35.9780 C   0  0  0  0  0  0  0  0  0  0  0  0
   34.6720   31.3380   35.8630 N   0  0  0  0  0  0  0  0  0  0  0  0
   36.4780   31.0600   34.8990 H   0  0  0  0  0  0  0  0  0  0  0  0
   33.2340   28.6680   33.5430 H   0  0  0  0  0  0  0  0  0  0  0  0
   32.6410   31.3850   36.6650 H   0  0  0  0  0  0  0  0  0  0  0  0
   38.3980   25.1730   33.1800 C   0  0  0  0  0  0  0  0  0  0  0  0
   38.5090   26.5240   33.3480 C   0  0  0  0  0  0  0  0  0  0  0  0
   39.5710   27.0320   34.0990 C   0  0  0  0  0  0  0  0  0  0  0  0
   39.7710   28.0900   34.3050 H   0  0  0  0  0  0  0  0  0  0  0  0
   40.5120   26.2110   34.6750 C   0  0  0  0  0  0  0  0  0  0  0  0
   41.3520   26.5580   35.2630 H   0  0  0  0  0  0  0  0  0  0  0  0
   40.3780   24.8350   34.4880 C   0  0  0  0  0  3  0  0  0  0  0  0
   39.3210   24.3310   33.7430 C   0  0  0  0  0  3  0  0  0  0  0  0
   35.8920   25.3500   32.5370 H   0  0  0  0  0  0  0  0  0  0  0  0
   37.0310   24.6710   32.2250 S   0  0  0  0  0  0  0  0  0  0  0  0
   37.3080   24.7100   30.7610 O   0  0  0  0  0  0  0  0  0  0  0  0
   36.7820   23.2130   32.5750 O   0  0  0  0  0  0  0  0  0  0  0  0
  2  1  1  0  0  0  0
  3  2  1  0  0  0  0
  3 12  1  0  0  0  0
  4  3  2  0  0  0  0
  5  6  2  0  0  0  0
  5  4  1  0  0  0  0
  6  7  1  0  0  0  0
  7 21  1  0  0  0  0
  7  2  2  0  0  0  0
  8  4  1  0  0  0  0
  9  5  1  0  0  0  0
 10  6  1  0  0  0  0
 11 16  1  0  0  0  0
 12 13  1  0  0  0  0
 12 11  2  0  0  0  0
 13 14  2  0  0  0  0
 14 15  1  0  0  0  0
 15 19  1  0  0  0  0
 16 15  2  0  0  0  0
 17 11  1  0  0  0  0
 18 13  1  0  0  0  0
 20 21  2  0  0  0  0
 20 27  1  0  0  0  0
 21 22  1  0  0  0  0
 22 23  1  0  0  0  0
 22 24  2  0  0  0  0
 24 25  1  0  0  0  0
 26 24  1  0  0  0  0
 27 26  2  0  0  0  0
 29 28  1  0  0  0  0
 29 31  2  0  0  0  0
 29 20  1  0  0  0  0
 30 29  2  0  0  0  0
M  END
>  <minimizedAffinity>
-5.11096096

$$$$

 OpenBabel03262521383D

 31 33  0  0  0  0  0  0  0  0999 V2000
   36.0400   27.9140   30.6700 F   0  0  0  0  0  0  0  0  0  0  0  0
   36.3210   27.8900   32.0230 C   0  0  0  0  0  0  0  0  0  0  0  0
   35.7130   28.7550   32.9250 C   0  0  0  0  0  0  0  0  0  0  0  0
   36.0360   28.6810   34.2610 C   0  0  0  0  0  0  0  0  0  0  0  0
   36.9600   27.7540   34.7230 C   0  0  0  0  0  0  0  0  0  0  0  0
   37.5420   26.9070   33.7760 C   0  0  0  0  0  0  0  0  0  0  0  0
   37.2450   26.9540   32.4380 C   0  0  0  0  0  0  0  0  0  0  0  0
   35.5190   29.3940   34.9170 H   0  0  0  0  0  0  0  0  0  0  0  0
   37.1890   27.7240   35.7780 H   0  0  0  0  0  0  0  0  0  0  0  0
   38.2600   26.1980   34.1890 H   0  0  0  0  0  0  0  0  0  0  0  0
   33.4460   29.4740   32.7460 C   0  0  0  0  0  0  0  0  0  0  0  0
   34.7680   29.6850   32.3630 C   0  0  0  0  0  0  0  0  0  0  0  0
   35.0160   30.7430   31.5040 C   0  0  0  0  0  0  0  0  0  0  0  0
   33.9750   31.5150   31.0790 N   0  0  0  0  0  0  0  0  0  0  0  0
   32.7160   31.2790   31.4710 C   0  0  0  0  0  0  0  0  0  0  0  0
   32.4410   30.2570   32.3080 N   0  0  0  0  0  0  0  0  0  0  0  0
   33.1480   28.6670   33.4210 H   0  0  0  0  0  0  0  0  0  0  0  0
   36.0540   30.8700   31.2330 H   0  0  0  0  0  0  0  0  0  0  0  0
   32.0290   31.9850   31.0380 H   0  0  0  0  0  0  0  0  0  0  0  0
   37.4190   24.8680   30.9660 C   0  0  0  0  0  0  0  0  0  0  0  0
   37.8910   26.0350   31.4950 C   0  0  0  0  0  0  0  0  0  0  0  0
   39.1640   26.4810   31.1370 C   0  0  0  0  0  0  0  0  0  0  0  0
   39.6540   27.3960   31.4890 H   0  0  0  0  0  0  0  0  0  0  0  0
   39.9600   25.7780   30.2610 C   0  0  0  0  0  0  0  0  0  0  0  0
   40.9510   26.0840   29.9530 H   0  0  0  0  0  0  0  0  0  0  0  0
   39.4560   24.5900   29.7330 C   0  0  0  0  0  3  0  0  0  0  0  0
   38.1890   24.1470   30.0920 C   0  0  0  0  0  3  0  0  0  0  0  0
   35.6230   24.6510   32.8250 H   0  0  0  0  0  0  0  0  0  0  0  0
   35.8200   24.4260   31.4960 S   0  0  0  0  0  0  0  0  0  0  0  0
   34.7480   25.0510   30.6700 O   0  0  0  0  0  0  0  0  0  0  0  0
   35.7030   22.9250   31.2830 O   0  0  0  0  0  0  0  0  0  0  0  0
  1  2  1  0  0  0  0
  2  7  2  0  0  0  0
  2  3  1  0  0  0  0
  3  4  2  0  0  0  0
  4  5  1  0  0  0  0
  4  8  1  0  0  0  0
  5  9  1  0  0  0  0
  6 10  1  0  0  0  0
  6  5  2  0  0  0  0
  7  6  1  0  0  0  0
 11 17  1  0  0  0  0
 12 11  1  0  0  0  0
 12  3  1  0  0  0  0
 13 12  2  0  0  0  0
 14 15  2  0  0  0  0
 14 13  1  0  0  0  0
 15 16  1  0  0  0  0
 16 11  2  0  0  0  0
 18 13  1  0  0  0  0
 19 15  1  0  0  0  0
 20 21  1  0  0  0  0
 20 29  1  0  0  0  0
 21  7  1  0  0  0  0
 22 23  1  0  0  0  0
 22 21  2  0  0  0  0
 24 22  1  0  0  0  0
 25 24  1  0  0  0  0
 26 27  1  0  0  0  0
 26 24  2  0  0  0  0
 27 20  2  0  0  0  0
 29 28  1  0  0  0  0
 30 29  2  0  0  0  0
 31 29  2  0  0  0  0
M  END
>  <minimizedAffinity>
-5.09317064

$$$$

 OpenBabel03262521383D

 31 33  0  0  0  0  0  0  0  0999 V2000
   38.4290   25.3380   34.3770 F   0  0  0  0  0  0  0  0  0  0  0  0
   37.9250   24.1690   33.8410 C   0  0  0  0  0  0  0  0  0  0  0  0
   37.4240   24.0990   32.5460 C   0  0  0  0  0  0  0  0  0  0  0  0
   36.9360   22.9030   32.0710 C   0  0  0  0  0  0  0  0  0  0  0  0
   36.9360   21.7640   32.8640 C   0  0  0  0  0  0  0  0  0  0  0  0
   37.4520   21.8870   34.1570 C   0  0  0  0  0  0  0  0  0  0  0  0
   37.9450   23.0620   34.6630 C   0  0  0  0  0  0  0  0  0  0  0  0
   36.5550   22.9190   31.0410 H   0  0  0  0  0  0  0  0  0  0  0  0
   36.5450   20.8430   32.4570 H   0  0  0  0  0  0  0  0  0  0  0  0
   37.4300   20.9660   34.7380 H   0  0  0  0  0  0  0  0  0  0  0  0
   36.2730   26.0520   31.8040 C   0  0  0  0  0  0  0  0  0  0  0  0
   37.4610   25.3250   31.7920 C   0  0  0  0  0  0  0  0  0  0  0  0
   38.5190   25.8550   31.0720 C   0  0  0  0  0  0  0  0  0  0  0  0
   38.3540   27.0410   30.4190 N   0  0  0  0  0  0  0  0  0  0  0  0
   37.1940   27.7100   30.4550 C   0  0  0  0  0  0  0  0  0  0  0  0
   36.1440   27.2220   31.1480 N   0  0  0  0  0  0  0  0  0  0  0  0
   35.3820   25.7190   32.3440 H   0  0  0  0  0  0  0  0  0  0  0  0
   39.4200   25.2590   31.0910 H   0  0  0  0  0  0  0  0  0  0  0  0
   37.2470   28.6220   29.8850 H   0  0  0  0  0  0  0  0  0  0  0  0
   39.7220   22.8150   36.4880 C   0  0  0  0  0  0  0  0  0  0  0  0
   38.4730   23.1240   36.0300 C   0  0  0  0  0  0  0  0  0  0  0  0
   37.5050   23.5680   36.9330 C   0  0  0  0  0  0  0  0  0  0  0  0
   36.4730   23.8470   36.6930 H   0  0  0  0  0  0  0  0  0  0  0  0
   37.7740   23.7040   38.2760 C   0  0  0  0  0  0  0  0  0  0  0  0
   37.0580   24.0450   39.0130 H   0  0  0  0  0  0  0  0  0  0  0  0
   39.0560   23.3840   38.7200 C   0  0  0  0  0  3  0  0  0  0  0  0
   40.0170   22.9420   37.8200 C   0  0  0  0  0  3  0  0  0  0  0  0
   40.2620   21.4030   34.3810 H   0  0  0  0  0  0  0  0  0  0  0  0
   40.8310   22.2740   35.2600 S   0  0  0  0  0  0  0  0  0  0  0  0
   41.5020   23.4030   34.5550 O   0  0  0  0  0  0  0  0  0  0  0  0
   41.9280   21.5120   35.9860 O   0  0  0  0  0  0  0  0  0  0  0  0
  2  1  1  0  0  0  0
  2  7  1  0  0  0  0
  3  2  2  0  0  0  0
  4  3  1  0  0  0  0
  4  5  2  0  0  0  0
  5  6  1  0  0  0  0
  6  7  2  0  0  0  0
  6 10  1  0  0  0  0
  7 21  1  0  0  0  0
  8  4  1  0  0  0  0
  9  5  1  0  0  0  0
 11 17  1  0  0  0  0
 12 11  1  0  0  0  0
 12  3  1  0  0  0  0
 13 18  1  0  0  0  0
 13 12  2  0  0  0  0
 14 15  2  0  0  0  0
 14 13  1  0  0  0  0
 15 16  1  0  0  0  0
 16 11  2  0  0  0  0
 19 15  1  0  0  0  0
 20 27  1  0  0  0  0
 21 20  2  0  0  0  0
 21 22  1  0  0  0  0
 22 24  2  0  0  0  0
 23 22  1  0  0  0  0
 24 26  1  0  0  0  0
 24 25  1  0  0  0  0
 27 26  2  0  0  0  0
 28 29  1  0  0  0  0
 29 31  2  0  0  0  0
 29 20  1  0  0  0  0
 30 29  2  0  0  0  0
M  END
>  <minimizedAffinity>
-5.08773994

$$$$
