REMARK  Name = 
REMARK  7 active torsions:
REMARK  status: ('A' for Active; 'I' for Inactive)
REMARK    1  A    between atoms: C_1  and  C_4
REMARK    2  A    between atoms: C_3  and  O_11
REMARK    3  A    between atoms: O_11  and  P_13
REMARK    4  A    between atoms: P_13  and  O_14
REMARK    5  A    between atoms: P_13  and  O_15
REMARK    6  A    between atoms: O_15  and  C_30
REMARK    7  A    between atoms: S_26  and  C_29
REMARK                            x       y       z     vdW  Elec       q    Type
REMARK                         _______ _______ _______ _____ _____    ______ ____
ROOT
ATOM      1  C   UNL     1      36.978  31.569  48.650  0.00  0.00    +0.000 C 
ATOM      2  C   UNL     1      36.253  30.889  47.597  0.00  0.00    +0.000 C 
ATOM      3  C   UNL     1      37.174  30.131  48.465  0.00  0.00    +0.000 C 
ATOM      4  H   UNL     1      36.502  31.835  49.654  0.00  0.00    +0.000 HD
ATOM      5  H   UNL     1      36.627  31.069  46.560  0.00  0.00    +0.000 HD
ATOM      6  H   UNL     1      35.243  31.212  47.649  0.00  0.00    +0.000 HD
ATOM      7  H   UNL     1      37.935  29.632  47.891  0.00  0.00    +0.000 HD
ENDROOT
BRANCH   1   8
ATOM      8  C   UNL     1      38.137  32.461  48.316  0.00  0.00    +0.000 A 
ATOM      9  C   UNL     1      38.507  33.388  49.319  0.00  0.00    +0.000 A 
ATOM     10  C   UNL     1      39.579  34.188  48.985  0.00  0.00    +0.000 A 
ATOM     11  N   UNL     1      40.196  34.052  47.769  0.00  0.00    +0.000 NA
ATOM     12  C   UNL     1      39.803  33.152  46.850  0.00  0.00    +0.000 A 
ATOM     13  N   UNL     1      38.742  32.337  47.138  0.00  0.00    +0.000 NA
ATOM     14  N   UNL     1      40.435  32.992  45.612  0.00  0.00    +0.000 N 
ATOM     15  H   UNL     1      38.012  33.483  50.272  0.00  0.00    +0.000 HD
ATOM     16  H   UNL     1      39.937  34.935  49.699  0.00  0.00    +0.000 HD
ATOM     17  H   UNL     1      40.935  33.851  45.246  0.00  0.00    +0.000 HD
ATOM     18  H   UNL     1      40.396  32.076  45.110  0.00  0.00    +0.000 HD
ENDBRANCH   1   8
BRANCH   3  19
ATOM     19  O   UNL     1      36.594  29.299  49.421  0.00  0.00    +0.000 OA
BRANCH  19  21
ATOM     20  O   UNL     1      34.642  27.667  49.686  0.00  0.00    +0.000 OA
ATOM     21  P   UNL     1      34.974  28.991  49.010  0.00  0.00    +0.000 P 
BRANCH  21  22
ATOM     22  O   UNL     1      34.011  30.121  49.811  0.00  0.00    +0.000 OA
ATOM     23  H   UNL     1      34.268  31.033  49.820  0.00  0.00    +0.000 HD
ENDBRANCH  21  22
BRANCH  21  24
ATOM     24  O   UNL     1      34.829  28.972  47.385  0.00  0.00    +0.000 OA
BRANCH  24  26
ATOM     25  C   UNL     1      33.757  29.023  45.124  0.00  0.00    +0.000 A 
ATOM     26  C   UNL     1      34.044  28.612  46.398  0.00  0.00    +0.000 A 
ATOM     27  C   UNL     1      33.317  27.483  46.827  0.00  0.00    +0.000 A 
ATOM     28  H   UNL     1      33.339  26.949  47.773  0.00  0.00    +0.000 HD
ATOM     29  C   UNL     1      32.378  26.843  46.000  0.00  0.00    +0.000 A 
ATOM     30  H   UNL     1      31.778  25.984  46.231  0.00  0.00    +0.000 HD
ATOM     31  C   UNL     1      32.182  27.360  44.730  0.00  0.00    +0.000 A 
ATOM     32  C   UNL     1      32.859  28.459  44.252  0.00  0.00    +0.000 A 
BRANCH  25  34
ATOM     33  H   UNL     1      35.932  30.454  45.041  0.00  0.00    +0.000 HD
ATOM     34  S   UNL     1      34.658  30.405  44.622  0.00  0.00    +0.000 S 
ATOM     35  O   UNL     1      34.727  30.477  43.095  0.00  0.00    +0.000 OA
ATOM     36  O   UNL     1      33.845  31.627  45.016  0.00  0.00    +0.000 OA
ENDBRANCH  25  34
ENDBRANCH  24  26
ENDBRANCH  21  24
ENDBRANCH  19  21
ENDBRANCH   3  19
TORSDOF 7
