REMARK  Name = 
REMARK  4 active torsions:
REMARK  status: ('A' for Active; 'I' for Inactive)
REMARK    1  A    between atoms: C_2  and  C_14
REMARK    2  A    between atoms: C_3  and  C_8
REMARK    3  A    between atoms: C_12  and  C_29
REMARK    4  A    between atoms: S_25  and  C_28
REMARK                            x       y       z     vdW  Elec       q    Type
REMARK                         _______ _______ _______ _____ _____    ______ ____
ROOT
ATOM      1  C   UNL     1      37.224  31.467  48.597  0.00  0.00    +0.000 A 
ATOM      2  C   UNL     1      37.191  32.506  49.509  0.00  0.00    +0.000 A 
ATOM      3  C   UNL     1      38.151  33.503  49.444  0.00  0.00    +0.000 A 
ATOM      4  C   UNL     1      39.133  33.444  48.464  0.00  0.00    +0.000 A 
ATOM      5  C   UNL     1      39.145  32.402  47.570  0.00  0.00    +0.000 A 
ATOM      6  N   UNL     1      38.196  31.473  47.683  0.00  0.00    +0.000 NA
ATOM      7  H   UNL     1      36.463  32.645  50.311  0.00  0.00    +0.000 HD
ATOM      8  H   UNL     1      38.155  34.342  50.151  0.00  0.00    +0.000 HD
ATOM      9  H   UNL     1      39.848  34.228  48.452  0.00  0.00    +0.000 HD
ENDROOT
BRANCH   1  12
ATOM     10  C   UNL     1      35.173  28.666  50.020  0.00  0.00    +0.000 A 
ATOM     11  C   UNL     1      36.241  29.595  49.849  0.00  0.00    +0.000 A 
ATOM     12  C   UNL     1      36.153  30.505  48.802  0.00  0.00    +0.000 A 
ATOM     13  N   UNL     1      35.053  30.464  47.993  0.00  0.00    +0.000 NA
ATOM     14  C   UNL     1      34.057  29.555  48.199  0.00  0.00    +0.000 A 
ATOM     15  N   UNL     1      34.111  28.671  49.192  0.00  0.00    +0.000 NA
ATOM     16  N   UNL     1      33.028  29.711  47.236  0.00  0.00    +0.000 N 
ATOM     17  H   UNL     1      35.232  27.951  50.835  0.00  0.00    +0.000 HD
ATOM     18  H   UNL     1      32.757  29.003  46.540  0.00  0.00    +0.000 HD
ATOM     19  H   UNL     1      32.484  30.607  47.209  0.00  0.00    +0.000 HD
BRANCH  11  20
ATOM     20  C   UNL     1      37.388  29.540  50.798  0.00  0.00    +0.000 C 
ATOM     21  F   UNL     1      38.581  29.819  50.164  0.00  0.00    +0.000 F 
ATOM     22  F   UNL     1      37.184  30.501  51.765  0.00  0.00    +0.000 F 
ATOM     23  F   UNL     1      37.519  28.329  51.429  0.00  0.00    +0.000 F 
ENDBRANCH  11  20
ENDBRANCH   1  12
BRANCH   5  25
ATOM     24  C   UNL     1      41.302  33.052  46.576  0.00  0.00    +0.000 A 
ATOM     25  C   UNL     1      40.152  32.291  46.523  0.00  0.00    +0.000 A 
ATOM     26  C   UNL     1      40.003  31.435  45.452  0.00  0.00    +0.000 A 
ATOM     27  H   UNL     1      39.144  30.810  45.335  0.00  0.00    +0.000 HD
ATOM     28  C   UNL     1      40.934  31.307  44.449  0.00  0.00    +0.000 A 
ATOM     29  H   UNL     1      40.816  30.632  43.606  0.00  0.00    +0.000 HD
ATOM     30  C   UNL     1      42.085  32.050  44.475  0.00  0.00    +0.000 A 
ATOM     31  C   UNL     1      42.237  32.907  45.544  0.00  0.00    +0.000 A 
BRANCH  24  33
ATOM     32  H   UNL     1      40.637  35.116  47.972  0.00  0.00    +0.000 HD
ATOM     33  S   UNL     1      41.629  34.177  47.865  0.00  0.00    +0.000 S 
ATOM     34  O   UNL     1      42.883  34.968  47.522  0.00  0.00    +0.000 OA
ATOM     35  O   UNL     1      41.919  33.502  49.176  0.00  0.00    +0.000 OA
ENDBRANCH  24  33
ENDBRANCH   5  25
TORSDOF 4
