REMARK  Name = 
REMARK  2 active torsions:
REMARK  status: ('A' for Active; 'I' for Inactive)
REMARK    1  A    between atoms: C_11  and  C_27
REMARK    2  A    between atoms: S_23  and  C_26
REMARK                            x       y       z     vdW  Elec       q    Type
REMARK                         _______ _______ _______ _____ _____    ______ ____
ROOT
ATOM      1  C   UNL     1      37.315  30.178  51.414  0.00  0.00    +0.000 A 
ATOM      2  C   UNL     1      38.018  30.827  50.374  0.00  0.00    +0.000 A 
ATOM      3  C   UNL     1      37.609  30.580  49.070  0.00  0.00    +0.000 A 
ATOM      4  N   UNL     1      36.575  29.742  48.909  0.00  0.00    +0.000 NA
ATOM      5  C   UNL     1      35.900  29.121  49.896  0.00  0.00    +0.000 A 
ATOM      6  N   UNL     1      36.290  29.354  51.162  0.00  0.00    +0.000 NA
ATOM      7  N   UNL     1      38.234  31.170  47.959  0.00  0.00    +0.000 N 
ATOM      8  C   UNL     1      38.897  32.477  47.996  0.00  0.00    +0.000 C 
ATOM      9  C   UNL     1      39.347  32.742  46.587  0.00  0.00    +0.000 C 
ATOM     10  C   UNL     1      38.367  31.924  45.806  0.00  0.00    +0.000 C 
ATOM     11  C   UNL     1      38.361  30.666  46.650  0.00  0.00    +0.000 C 
ATOM     12  H   UNL     1      37.657  30.390  52.419  0.00  0.00    +0.000 HD
ATOM     13  H   UNL     1      38.847  31.494  50.574  0.00  0.00    +0.000 HD
ATOM     14  H   UNL     1      35.081  28.467  49.621  0.00  0.00    +0.000 HD
ATOM     15  H   UNL     1      39.695  32.522  48.741  0.00  0.00    +0.000 HD
ATOM     16  H   UNL     1      38.133  33.241  48.270  0.00  0.00    +0.000 HD
ATOM     17  H   UNL     1      39.205  33.807  46.295  0.00  0.00    +0.000 HD
ATOM     18  H   UNL     1      40.389  32.469  46.380  0.00  0.00    +0.000 HD
ATOM     19  H   UNL     1      37.386  32.392  45.721  0.00  0.00    +0.000 HD
ATOM     20  H   UNL     1      38.772  31.651  44.794  0.00  0.00    +0.000 HD
ATOM     21  H   UNL     1      39.378  30.209  46.569  0.00  0.00    +0.000 HD
ENDROOT
BRANCH  11  23
ATOM     22  C   UNL     1      37.650  28.654  45.341  0.00  0.00    +0.000 A 
ATOM     23  C   UNL     1      37.341  29.715  46.174  0.00  0.00    +0.000 A 
ATOM     24  C   UNL     1      35.998  29.782  46.462  0.00  0.00    +0.000 A 
ATOM     25  H   UNL     1      35.624  30.583  47.098  0.00  0.00    +0.000 HD
ATOM     26  C   UNL     1      35.029  28.929  46.010  0.00  0.00    +0.000 A 
ATOM     27  H   UNL     1      33.980  29.038  46.277  0.00  0.00    +0.000 HD
ATOM     28  C   UNL     1      35.408  27.890  45.181  0.00  0.00    +0.000 A 
ATOM     29  C   UNL     1      36.734  27.762  44.850  0.00  0.00    +0.000 A 
BRANCH  22  31
ATOM     30  H   UNL     1      39.861  29.608  44.363  0.00  0.00    +0.000 HD
ATOM     31  S   UNL     1      39.342  28.431  44.875  0.00  0.00    +0.000 S 
ATOM     32  O   UNL     1      40.074  28.053  46.143  0.00  0.00    +0.000 OA
ATOM     33  O   UNL     1      39.475  27.388  43.831  0.00  0.00    +0.000 OA
ENDBRANCH  22  31
ENDBRANCH  11  23
TORSDOF 2
