
 OpenBabel03272507473D

 49 53  0  0  1  0  0  0  0  0999 V2000
   31.9760   28.2090   47.3690 N   0  0  0  0  0  0  0  0  0  0  0  0
   32.2310   27.8900   48.7260 C   0  0  0  0  0  0  0  0  0  0  0  0
   33.4740   28.4340   49.3220 C   0  0  0  0  0  0  0  0  0  0  0  0
   34.6610   28.4490   48.4680 C   0  0  1  0  0  0  0  0  0  0  0  0
   34.3150   28.7210   46.9940 C   0  0  0  0  0  0  0  0  0  0  0  0
   33.1480   27.7880   46.6270 C   0  0  0  0  0  0  0  0  0  0  0  0
   32.3090   26.7650   48.8020 H   0  0  0  0  0  0  0  0  0  0  0  0
   31.3830   28.1450   49.3810 H   0  0  0  0  0  0  0  0  0  0  0  0
   33.6580   27.9570   50.2990 H   0  0  0  0  0  0  0  0  0  0  0  0
   33.1870   29.5250   49.4940 H   0  0  0  0  0  0  0  0  0  0  0  0
   35.1680   27.4570   48.4350 H   0  0  0  0  0  0  0  0  0  0  0  0
   33.9280   29.7540   46.8710 H   0  0  0  0  0  0  0  0  0  0  0  0
   35.2040   28.4890   46.4110 H   0  0  0  0  0  0  0  0  0  0  0  0
   33.3900   26.7290   46.7830 H   0  0  0  0  0  0  0  0  0  0  0  0
   32.8890   27.9030   45.5590 H   0  0  0  0  0  0  0  0  0  0  0  0
   36.0030   29.6180   50.1550 C   0  0  0  0  0  0  0  0  0  0  0  0
   35.6690   29.4800   48.8170 C   0  0  0  0  0  0  0  0  0  0  0  0
   36.1980   30.2520   47.8180 C   0  0  0  0  0  0  0  0  0  0  0  0
   37.1210   31.2320   48.1770 C   0  0  0  0  0  0  0  0  0  0  0  0
   37.4520   31.3720   49.5050 C   0  0  0  0  0  0  0  0  0  0  0  0
   36.9190   30.5900   50.5230 C   0  0  0  0  0  0  0  0  0  0  0  0
   38.3870   32.4030   49.6670 O   0  0  0  0  0  0  0  0  0  0  0  0
   38.8710   32.6550   48.3480 C   0  0  0  0  0  0  0  0  0  0  0  0
   37.8690   32.1930   47.4860 O   0  0  0  0  0  0  0  0  0  0  0  0
   35.6630   29.0640   51.0190 H   0  0  0  0  0  0  0  0  0  0  0  0
   35.9270   30.1270   46.7980 H   0  0  0  0  0  0  0  0  0  0  0  0
   37.2300   30.7560   51.5680 H   0  0  0  0  0  0  0  0  0  0  0  0
   38.9090   33.7620   48.2630 H   0  0  0  0  0  0  0  0  0  0  0  0
   39.8560   32.1630   48.1950 H   0  0  0  0  0  0  0  0  0  0  0  0
   30.8180   28.8130   46.8010 C   0  0  0  0  0  0  0  0  0  0  0  0
   30.7320   29.3220   45.5090 C   0  0  0  0  0  0  0  0  0  0  0  0
   29.5050   29.8620   45.1200 C   0  0  0  0  0  0  0  0  0  0  0  0
   28.4660   29.8640   46.0220 N   0  0  0  0  0  0  0  0  0  0  0  0
   28.6110   29.3570   47.2600 C   0  0  0  0  0  0  0  0  0  0  0  0
   29.7550   28.8460   47.6380 N   0  0  0  0  0  0  0  0  0  0  0  0
   31.6100   29.2590   44.9150 H   0  0  0  0  0  0  0  0  0  0  0  0
   29.4480   30.2490   44.1310 H   0  0  0  0  0  0  0  0  0  0  0  0
   26.8370   28.4990   48.8540 C   0  0  0  0  0  0  0  0  0  0  0  0
   27.3730   29.4560   48.0240 C   0  0  0  0  0  0  0  0  0  0  0  0
   26.5860   30.5890   47.9730 C   0  0  0  0  0  0  0  0  0  0  0  0
   26.8470   31.4500   47.3710 H   0  0  0  0  0  0  0  0  0  0  0  0
   25.4040   30.7610   48.6600 C   0  0  0  0  0  0  0  0  0  0  0  0
   24.8090   31.6600   48.6000 H   0  0  0  0  0  0  0  0  0  0  0  0
   24.9340   29.7540   49.4700 C   0  0  0  0  0  3  0  0  0  0  0  0
   25.6760   28.6010   49.5620 C   0  0  0  0  0  3  0  0  0  0  0  0
   29.0510   27.3380   48.8590 H   0  0  0  0  0  0  0  0  0  0  0  0
   27.7200   27.0020   49.0470 S   0  0  0  0  0  0  0  0  0  0  0  0
   27.5820   26.4420   50.4380 O   0  0  0  0  0  0  0  0  0  0  0  0
   27.3100   26.0160   48.0230 O   0  0  0  0  0  0  0  0  0  0  0  0
  1  2  1  0  0  0  0
  2  7  1  0  0  0  0
  2  3  1  0  0  0  0
  2  8  1  0  0  0  0
  3 10  1  0  0  0  0
  3  9  1  0  0  0  0
  4 11  1  1  0  0  0
  4 17  1  0  0  0  0
  4  3  1  0  0  0  0
  5  4  1  0  0  0  0
  6 14  1  0  0  0  0
  6  5  1  0  0  0  0
  6  1  1  0  0  0  0
 12  5  1  0  0  0  0
 13  5  1  0  0  0  0
 15  6  1  0  0  0  0
 16 21  1  0  0  0  0
 16 25  1  0  0  0  0
 17 16  2  0  0  0  0
 18 19  2  0  0  0  0
 18 17  1  0  0  0  0
 19 20  1  0  0  0  0
 20 22  1  0  0  0  0
 20 21  2  0  0  0  0
 21 27  1  0  0  0  0
 23 22  1  0  0  0  0
 24 19  1  0  0  0  0
 24 23  1  0  0  0  0
 26 18  1  0  0  0  0
 28 23  1  0  0  0  0
 29 23  1  0  0  0  0
 30  1  1  0  0  0  0
 30 35  1  0  0  0  0
 31 30  2  0  0  0  0
 32 31  1  0  0  0  0
 32 33  2  0  0  0  0
 33 34  1  0  0  0  0
 34 35  2  0  0  0  0
 34 39  1  0  0  0  0
 36 31  1  0  0  0  0
 37 32  1  0  0  0  0
 38 47  1  0  0  0  0
 38 45  1  0  0  0  0
 39 38  2  0  0  0  0
 40 39  1  0  0  0  0
 40 42  2  0  0  0  0
 41 40  1  0  0  0  0
 42 44  1  0  0  0  0
 43 42  1  0  0  0  0
 44 45  2  0  0  0  0
 46 47  1  0  0  0  0
 47 48  2  0  0  0  0
 49 47  2  0  0  0  0
M  END
>  <minimizedAffinity>
-8.09126663

>  <minimizedRMSD>
2.02327871

$$$$
