
 OpenBabel03262520473D

 37 39  0  0  1  0  0  0  0  0999 V2000
   35.6070   29.0010   34.3520 C   0  0  1  0  0  0  0  0  0  0  0  0
   35.7920   28.3850   32.9570 C   0  0  0  0  0  0  0  0  0  0  0  0
   36.7980   28.2030   34.0080 C   0  0  2  0  0  0  0  0  0  0  0  0
   34.8050   28.5460   34.9410 H   0  0  0  0  0  0  0  0  0  0  0  0
   35.1020   27.5730   32.6700 H   0  0  0  0  0  0  0  0  0  0  0  0
   36.0100   29.0700   32.1090 H   0  0  0  0  0  0  0  0  0  0  0  0
   37.7390   28.8120   33.8780 H   0  0  0  0  0  0  0  0  0  0  0  0
   35.6690   30.5130   34.3590 C   0  0  0  0  0  0  0  0  0  0  0  0
   36.7270   30.8200   34.4950 H   0  0  0  0  0  0  0  0  0  0  0  0
   35.3270   30.8490   33.3500 H   0  0  0  0  0  0  0  0  0  0  0  0
   34.5790   32.6880   37.2050 C   0  0  0  0  0  0  0  0  0  0  0  0
   35.3700   32.1080   36.1680 C   0  0  0  0  0  0  0  0  0  0  0  0
   34.8170   31.0890   35.4250 C   0  0  0  0  0  0  0  0  0  0  0  0
   33.5600   30.6780   35.6960 N   0  0  0  0  0  0  0  0  0  0  0  0
   32.8270   31.2360   36.6800 C   0  0  0  0  0  0  0  0  0  0  0  0
   33.3390   32.2350   37.4240 N   0  0  0  0  0  0  0  0  0  0  0  0
   35.0470   33.4740   37.7570 H   0  0  0  0  0  0  0  0  0  0  0  0
   36.3770   32.4600   35.9750 H   0  0  0  0  0  0  0  0  0  0  0  0
   31.8210   30.8930   36.8830 H   0  0  0  0  0  0  0  0  0  0  0  0
   36.9620   26.9200   34.7780 C   0  0  0  0  0  0  0  0  0  0  0  0
   36.0820   26.8060   35.4690 H   0  0  0  0  0  0  0  0  0  0  0  0
   36.9050   26.0510   34.1120 H   0  0  0  0  0  0  0  0  0  0  0  0
   38.1680   26.9020   35.6740 C   0  0  0  0  0  0  0  0  0  0  0  0
   37.8250   27.4030   36.6300 H   0  0  0  0  0  0  0  0  0  0  0  0
   38.9850   27.5630   35.3270 H   0  0  0  0  0  0  0  0  0  0  0  0
   39.6010   24.8510   35.4390 C   0  0  0  0  0  0  0  0  0  0  0  0
   38.5690   25.5470   36.0590 C   0  0  0  0  0  0  0  0  0  0  0  0
   37.9560   24.8320   37.0800 C   0  0  0  0  0  0  0  0  0  0  0  0
   37.1340   25.3720   37.5800 H   0  0  0  0  0  0  0  0  0  0  0  0
   38.2370   23.5640   37.5350 C   0  0  0  0  0  0  0  0  0  0  0  0
   37.6590   23.1580   38.3420 H   0  0  0  0  0  0  0  0  0  0  0  0
   39.2750   22.9260   36.8760 C   0  0  0  0  0  3  0  0  0  0  0  0
   39.9560   23.5560   35.8360 C   0  0  0  0  0  3  0  0  0  0  0  0
   41.4760   24.6320   33.7990 H   0  0  0  0  0  0  0  0  0  0  0  0
   40.4900   25.5550   34.1460 S   0  0  0  0  0  0  0  0  0  0  0  0
   39.6790   25.6880   32.8650 O   0  0  0  0  0  0  0  0  0  0  0  0
   41.2300   26.7960   34.4590 O   0  0  0  0  0  0  0  0  0  0  0  0
  1  8  1  0  0  0  0
  1  4  1  1  0  0  0
  2  3  1  0  0  0  0
  2  1  1  0  0  0  0
  3  7  1  6  0  0  0
  3  1  1  0  0  0  0
  3 20  1  0  0  0  0
  5  2  1  0  0  0  0
  6  2  1  0  0  0  0
  8  9  1  0  0  0  0
  8 13  1  0  0  0  0
 10  8  1  0  0  0  0
 11 16  1  0  0  0  0
 11 17  1  0  0  0  0
 12 11  2  0  0  0  0
 13 14  2  0  0  0  0
 13 12  1  0  0  0  0
 14 15  1  0  0  0  0
 15 19  1  0  0  0  0
 15 16  2  0  0  0  0
 18 12  1  0  0  0  0
 20 21  1  0  0  0  0
 20 23  1  0  0  0  0
 22 20  1  0  0  0  0
 23 27  1  0  0  0  0
 23 24  1  0  0  0  0
 25 23  1  0  0  0  0
 26 33  2  0  0  0  0
 26 27  1  0  0  0  0
 27 28  2  0  0  0  0
 28 30  1  0  0  0  0
 28 29  1  0  0  0  0
 30 31  1  0  0  0  0
 32 30  2  0  0  0  0
 33 32  1  0  0  0  0
 34 35  1  0  0  0  0
 35 37  2  0  0  0  0
 35 26  1  0  0  0  0
 36 35  2  0  0  0  0
M  END
>  <minimizedAffinity>
-5.08386278

$$$$

 OpenBabel03262520473D

 37 39  0  0  1  0  0  0  0  0999 V2000
   35.4670   29.0740   34.1930 C   0  0  1  0  0  0  0  0  0  0  0  0
   35.5800   28.6280   32.7280 C   0  0  0  0  0  0  0  0  0  0  0  0
   36.6550   28.3610   33.6890 C   0  0  2  0  0  0  0  0  0  0  0  0
   34.7160   28.5260   34.7720 H   0  0  0  0  0  0  0  0  0  0  0  0
   34.8960   27.8310   32.3890 H   0  0  0  0  0  0  0  0  0  0  0  0
   35.7270   29.4130   31.9540 H   0  0  0  0  0  0  0  0  0  0  0  0
   37.5690   29.0120   33.5750 H   0  0  0  0  0  0  0  0  0  0  0  0
   35.4880   30.5750   34.3730 C   0  0  0  0  0  0  0  0  0  0  0  0
   36.5250   30.8830   34.6270 H   0  0  0  0  0  0  0  0  0  0  0  0
   35.2170   31.0170   33.3840 H   0  0  0  0  0  0  0  0  0  0  0  0
   32.3700   30.7960   36.4340 C   0  0  0  0  0  0  0  0  0  0  0  0
   33.3090   30.4010   35.4340 C   0  0  0  0  0  0  0  0  0  0  0  0
   34.5420   31.0130   35.4260 C   0  0  0  0  0  0  0  0  0  0  0  0
   34.8210   31.9540   36.3520 N   0  0  0  0  0  0  0  0  0  0  0  0
   33.9230   32.3170   37.2890 C   0  0  0  0  0  0  0  0  0  0  0  0
   32.7080   31.7370   37.3240 N   0  0  0  0  0  0  0  0  0  0  0  0
   31.4260   30.2970   36.4040 H   0  0  0  0  0  0  0  0  0  0  0  0
   33.0550   29.6420   34.7030 H   0  0  0  0  0  0  0  0  0  0  0  0
   34.1640   33.0740   38.0240 H   0  0  0  0  0  0  0  0  0  0  0  0
   36.9020   27.0040   34.2930 C   0  0  0  0  0  0  0  0  0  0  0  0
   35.9250   26.6080   34.6850 H   0  0  0  0  0  0  0  0  0  0  0  0
   37.2050   26.2820   33.5260 H   0  0  0  0  0  0  0  0  0  0  0  0
   37.8200   27.0290   35.4820 C   0  0  0  0  0  0  0  0  0  0  0  0
   37.2870   26.4150   36.2700 H   0  0  0  0  0  0  0  0  0  0  0  0
   37.9010   28.0250   35.9550 H   0  0  0  0  0  0  0  0  0  0  0  0
   39.3160   25.0120   35.5780 C   0  0  0  0  0  0  0  0  0  0  0  0
   39.0880   26.3400   35.2330 C   0  0  0  0  0  0  0  0  0  0  0  0
   40.1800   26.9470   34.6260 C   0  0  0  0  0  0  0  0  0  0  0  0
   40.0130   28.0010   34.3470 H   0  0  0  0  0  0  0  0  0  0  0  0
   41.4150   26.4130   34.3380 C   0  0  0  0  0  0  0  0  0  0  0  0
   42.1530   27.0280   33.8630 H   0  0  0  0  0  0  0  0  0  0  0  0
   41.5760   25.0880   34.7080 C   0  0  0  0  0  3  0  0  0  0  0  0
   40.5420   24.3850   35.3220 C   0  0  0  0  0  3  0  0  0  0  0  0
   36.8740   24.5340   35.8410 H   0  0  0  0  0  0  0  0  0  0  0  0
   38.0920   24.0750   36.3430 S   0  0  0  0  0  0  0  0  0  0  0  0
   38.1070   22.6130   35.9200 O   0  0  0  0  0  0  0  0  0  0  0  0
   37.9740   24.2220   37.8080 O   0  0  0  0  0  0  0  0  0  0  0  0
  1  8  1  0  0  0  0
  1  4  1  1  0  0  0
  2  3  1  0  0  0  0
  2  1  1  0  0  0  0
  3  7  1  6  0  0  0
  3  1  1  0  0  0  0
  3 20  1  0  0  0  0
  5  2  1  0  0  0  0
  6  2  1  0  0  0  0
  8  9  1  0  0  0  0
  8 13  1  0  0  0  0
 10  8  1  0  0  0  0
 11 16  1  0  0  0  0
 12 11  2  0  0  0  0
 13 12  1  0  0  0  0
 13 14  2  0  0  0  0
 14 15  1  0  0  0  0
 15 16  2  0  0  0  0
 15 19  1  0  0  0  0
 17 11  1  0  0  0  0
 18 12  1  0  0  0  0
 20 21  1  0  0  0  0
 20 23  1  0  0  0  0
 22 20  1  0  0  0  0
 23 25  1  0  0  0  0
 23 24  1  0  0  0  0
 26 35  1  0  0  0  0
 27 23  1  0  0  0  0
 27 26  2  0  0  0  0
 28 27  1  0  0  0  0
 29 28  1  0  0  0  0
 30 28  2  0  0  0  0
 30 32  1  0  0  0  0
 31 30  1  0  0  0  0
 32 33  2  0  0  0  0
 33 26  1  0  0  0  0
 34 35  1  0  0  0  0
 35 37  2  0  0  0  0
 36 35  2  0  0  0  0
M  END
>  <minimizedAffinity>
-5.01620865

$$$$

 OpenBabel03262520473D

 37 39  0  0  1  0  0  0  0  0999 V2000
   38.3110   26.9340   33.7050 C   0  0  1  0  0  0  0  0  0  0  0  0
   37.6530   27.5130   32.4440 C   0  0  0  0  0  0  0  0  0  0  0  0
   36.8800   27.2860   33.6690 C   0  0  2  0  0  0  0  0  0  0  0  0
   39.0200   27.6110   34.1930 H   0  0  0  0  0  0  0  0  0  0  0  0
   37.9630   28.5260   32.1340 H   0  0  0  0  0  0  0  0  0  0  0  0
   37.5050   26.8340   31.5750 H   0  0  0  0  0  0  0  0  0  0  0  0
   36.1870   26.3970   33.6380 H   0  0  0  0  0  0  0  0  0  0  0  0
   38.7540   25.4960   33.5520 C   0  0  0  0  0  0  0  0  0  0  0  0
   38.2730   25.0760   32.6430 H   0  0  0  0  0  0  0  0  0  0  0  0
   39.8590   25.5200   33.3920 H   0  0  0  0  0  0  0  0  0  0  0  0
   37.8590   22.5340   35.6600 C   0  0  0  0  0  0  0  0  0  0  0  0
   38.1930   23.3450   34.5340 C   0  0  0  0  0  0  0  0  0  0  0  0
   38.4100   24.6880   34.7450 C   0  0  0  0  0  0  0  0  0  0  0  0
   38.3020   25.1890   35.9940 N   0  0  0  0  0  0  0  0  0  0  0  0
   37.9850   24.4090   37.0470 C   0  0  0  0  0  0  0  0  0  0  0  0
   37.7670   23.0920   36.8740 N   0  0  0  0  0  0  0  0  0  0  0  0
   37.6980   21.4990   35.4520 H   0  0  0  0  0  0  0  0  0  0  0  0
   38.2710   22.9130   33.5430 H   0  0  0  0  0  0  0  0  0  0  0  0
   37.9030   24.8280   38.0410 H   0  0  0  0  0  0  0  0  0  0  0  0
   36.4620   28.3970   34.5960 C   0  0  0  0  0  0  0  0  0  0  0  0
   35.8290   27.9560   35.4140 H   0  0  0  0  0  0  0  0  0  0  0  0
   37.3280   28.8220   35.1160 H   0  0  0  0  0  0  0  0  0  0  0  0
   35.5930   29.4340   33.9430 C   0  0  0  0  0  0  0  0  0  0  0  0
   34.6940   28.8590   33.5630 H   0  0  0  0  0  0  0  0  0  0  0  0
   36.0280   29.8560   33.0180 H   0  0  0  0  0  0  0  0  0  0  0  0
   33.7170   30.4920   35.2390 C   0  0  0  0  0  0  0  0  0  0  0  0
   35.0630   30.4110   34.8970 C   0  0  0  0  0  0  0  0  0  0  0  0
   35.8550   31.3450   35.5520 C   0  0  0  0  0  0  0  0  0  0  0  0
   36.9250   31.2930   35.2900 H   0  0  0  0  0  0  0  0  0  0  0  0
   35.4820   32.3070   36.4630 C   0  0  0  0  0  0  0  0  0  0  0  0
   36.2300   32.9550   36.8750 H   0  0  0  0  0  0  0  0  0  0  0  0
   34.1290   32.3340   36.7590 C   0  0  0  0  0  3  0  0  0  0  0  0
   33.2470   31.4380   36.1580 C   0  0  0  0  0  3  0  0  0  0  0  0
   33.2890   28.4670   33.8330 H   0  0  0  0  0  0  0  0  0  0  0  0
   32.5620   29.4250   34.5400 S   0  0  0  0  0  0  0  0  0  0  0  0
   31.8150   28.5930   35.5740 O   0  0  0  0  0  0  0  0  0  0  0  0
   31.6460   30.0140   33.5420 O   0  0  0  0  0  0  0  0  0  0  0  0
  1  4  1  1  0  0  0
  2  3  1  0  0  0  0
  2  1  1  0  0  0  0
  3  7  1  6  0  0  0
  3  1  1  0  0  0  0
  3 20  1  0  0  0  0
  5  2  1  0  0  0  0
  6  2  1  0  0  0  0
  8  1  1  0  0  0  0
  8 13  1  0  0  0  0
  9  8  1  0  0  0  0
 10  8  1  0  0  0  0
 11 16  1  0  0  0  0
 12 13  1  0  0  0  0
 12 11  2  0  0  0  0
 13 14  2  0  0  0  0
 14 15  1  0  0  0  0
 15 19  1  0  0  0  0
 16 15  2  0  0  0  0
 17 11  1  0  0  0  0
 18 12  1  0  0  0  0
 20 22  1  0  0  0  0
 20 21  1  0  0  0  0
 23 20  1  0  0  0  0
 23 27  1  0  0  0  0
 24 23  1  0  0  0  0
 25 23  1  0  0  0  0
 26 33  1  0  0  0  0
 27 26  2  0  0  0  0
 27 28  1  0  0  0  0
 28 30  2  0  0  0  0
 29 28  1  0  0  0  0
 30 32  1  0  0  0  0
 30 31  1  0  0  0  0
 33 32  2  0  0  0  0
 34 35  1  0  0  0  0
 35 26  1  0  0  0  0
 35 36  2  0  0  0  0
 37 35  2  0  0  0  0
M  END
>  <minimizedAffinity>
-4.99128962

$$$$

 OpenBabel03262520473D

 37 39  0  0  1  0  0  0  0  0999 V2000
   37.6850   27.4080   34.4700 C   0  0  1  0  0  0  0  0  0  0  0  0
   38.4190   27.1820   35.8000 C   0  0  0  0  0  0  0  0  0  0  0  0
   37.7400   26.0810   35.1090 C   0  0  2  0  0  0  0  0  0  0  0  0
   38.3460   27.6270   33.6240 H   0  0  0  0  0  0  0  0  0  0  0  0
   39.5180   27.2800   35.7920 H   0  0  0  0  0  0  0  0  0  0  0  0
   37.9660   27.6050   36.7240 H   0  0  0  0  0  0  0  0  0  0  0  0
   36.7670   25.7530   35.5760 H   0  0  0  0  0  0  0  0  0  0  0  0
   36.4520   28.2750   34.5980 C   0  0  0  0  0  0  0  0  0  0  0  0
   35.6160   27.6420   34.9660 H   0  0  0  0  0  0  0  0  0  0  0  0
   36.6840   29.0450   35.3730 H   0  0  0  0  0  0  0  0  0  0  0  0
   34.6720   30.4340   32.1110 C   0  0  0  0  0  0  0  0  0  0  0  0
   35.0450   29.8010   33.3340 C   0  0  0  0  0  0  0  0  0  0  0  0
   36.0960   28.9120   33.3090 C   0  0  0  0  0  0  0  0  0  0  0  0
   36.7320   28.6710   32.1430 N   0  0  0  0  0  0  0  0  0  0  0  0
   36.3670   29.2780   30.9960 C   0  0  0  0  0  0  0  0  0  0  0  0
   35.3440   30.1530   30.9870 N   0  0  0  0  0  0  0  0  0  0  0  0
   33.8520   31.1160   32.1750 H   0  0  0  0  0  0  0  0  0  0  0  0
   34.5130   30.0140   34.2540 H   0  0  0  0  0  0  0  0  0  0  0  0
   36.8900   29.0720   30.0710 H   0  0  0  0  0  0  0  0  0  0  0  0
   38.4740   25.0180   34.3350 C   0  0  0  0  0  0  0  0  0  0  0  0
   38.1010   25.0320   33.2740 H   0  0  0  0  0  0  0  0  0  0  0  0
   39.5410   25.2550   34.2560 H   0  0  0  0  0  0  0  0  0  0  0  0
   38.2090   23.6230   34.8250 C   0  0  0  0  0  0  0  0  0  0  0  0
   38.1980   22.9860   33.8880 H   0  0  0  0  0  0  0  0  0  0  0  0
   37.1900   23.4840   35.2320 H   0  0  0  0  0  0  0  0  0  0  0  0
   39.2590   23.0610   37.0380 C   0  0  0  0  0  0  0  0  0  0  0  0
   39.3000   23.0960   35.6480 C   0  0  0  0  0  0  0  0  0  0  0  0
   40.4750   22.5790   35.1180 C   0  0  0  0  0  0  0  0  0  0  0  0
   40.5210   22.6000   34.0160 H   0  0  0  0  0  0  0  0  0  0  0  0
   41.5640   22.0560   35.7790 C   0  0  0  0  0  0  0  0  0  0  0  0
   42.3980   21.6980   35.2090 H   0  0  0  0  0  0  0  0  0  0  0  0
   41.4590   22.0520   37.1600 C   0  0  0  0  0  3  0  0  0  0  0  0
   40.3210   22.5480   37.7930 C   0  0  0  0  0  3  0  0  0  0  0  0
   36.9040   23.9000   36.9430 H   0  0  0  0  0  0  0  0  0  0  0  0
   37.8920   23.6560   37.8970 S   0  0  0  0  0  0  0  0  0  0  0  0
   37.2490   22.6090   38.7960 O   0  0  0  0  0  0  0  0  0  0  0  0
   38.0670   24.9460   38.5950 O   0  0  0  0  0  0  0  0  0  0  0  0
  1  4  1  6  0  0  0
  1  8  1  0  0  0  0
  1  3  1  0  0  0  0
  1  2  1  0  0  0  0
  2  6  1  0  0  0  0
  3  7  1  1  0  0  0
  3  2  1  0  0  0  0
  5  2  1  0  0  0  0
  8  9  1  0  0  0  0
  8 10  1  0  0  0  0
 11 17  1  0  0  0  0
 11 12  1  0  0  0  0
 12 18  1  0  0  0  0
 13 12  2  0  0  0  0
 13  8  1  0  0  0  0
 14 13  1  0  0  0  0
 15 14  2  0  0  0  0
 16 15  1  0  0  0  0
 16 11  2  0  0  0  0
 19 15  1  0  0  0  0
 20 23  1  0  0  0  0
 20  3  1  0  0  0  0
 21 20  1  0  0  0  0
 22 20  1  0  0  0  0
 23 25  1  0  0  0  0
 23 27  1  0  0  0  0
 24 23  1  0  0  0  0
 26 33  1  0  0  0  0
 26 35  1  0  0  0  0
 27 26  2  0  0  0  0
 28 27  1  0  0  0  0
 28 30  2  0  0  0  0
 29 28  1  0  0  0  0
 30 32  1  0  0  0  0
 31 30  1  0  0  0  0
 32 33  2  0  0  0  0
 34 35  1  0  0  0  0
 35 37  2  0  0  0  0
 35 36  2  0  0  0  0
M  END
>  <minimizedAffinity>
-4.97876072

$$$$

 OpenBabel03262520473D

 37 39  0  0  1  0  0  0  0  0999 V2000
   39.1240   26.5520   34.0670 C   0  0  1  0  0  0  0  0  0  0  0  0
   40.5560   27.0810   34.2310 C   0  0  0  0  0  0  0  0  0  0  0  0
   40.1690   25.7640   34.7450 C   0  0  2  0  0  0  0  0  0  0  0  0
   38.8500   26.3090   33.0350 H   0  0  0  0  0  0  0  0  0  0  0  0
   41.1610   27.1900   33.3150 H   0  0  0  0  0  0  0  0  0  0  0  0
   40.7250   27.9150   34.9480 H   0  0  0  0  0  0  0  0  0  0  0  0
   40.0490   25.7040   35.8650 H   0  0  0  0  0  0  0  0  0  0  0  0
   38.0980   27.3210   34.8700 C   0  0  0  0  0  0  0  0  0  0  0  0
   37.7130   26.6580   35.6730 H   0  0  0  0  0  0  0  0  0  0  0  0
   38.6400   28.1750   35.3410 H   0  0  0  0  0  0  0  0  0  0  0  0
   35.8220   27.6730   31.9170 C   0  0  0  0  0  0  0  0  0  0  0  0
   36.8800   27.2320   32.7680 C   0  0  0  0  0  0  0  0  0  0  0  0
   36.9880   27.8050   34.0160 C   0  0  0  0  0  0  0  0  0  0  0  0
   36.1010   28.7510   34.3900 N   0  0  0  0  0  0  0  0  0  0  0  0
   35.1080   29.1570   33.5730 C   0  0  0  0  0  0  0  0  0  0  0  0
   34.9750   28.6170   32.3470 N   0  0  0  0  0  0  0  0  0  0  0  0
   35.7750   27.2040   30.9590 H   0  0  0  0  0  0  0  0  0  0  0  0
   37.5770   26.4700   32.4390 H   0  0  0  0  0  0  0  0  0  0  0  0
   34.4070   29.9180   33.8900 H   0  0  0  0  0  0  0  0  0  0  0  0
   40.5480   24.4730   34.0680 C   0  0  0  0  0  0  0  0  0  0  0  0
   40.3690   24.5850   32.9640 H   0  0  0  0  0  0  0  0  0  0  0  0
   41.6240   24.2840   34.1560 H   0  0  0  0  0  0  0  0  0  0  0  0
   39.7040   23.3010   34.4850 C   0  0  0  0  0  0  0  0  0  0  0  0
   40.3880   22.4040   34.3870 H   0  0  0  0  0  0  0  0  0  0  0  0
   38.8880   23.0710   33.7750 H   0  0  0  0  0  0  0  0  0  0  0  0
   40.1270   22.8840   36.9270 C   0  0  0  0  0  0  0  0  0  0  0  0
   39.3200   23.3540   35.8970 C   0  0  0  0  0  0  0  0  0  0  0  0
   38.1130   23.8820   36.3400 C   0  0  0  0  0  0  0  0  0  0  0  0
   37.4620   24.2590   35.5330 H   0  0  0  0  0  0  0  0  0  0  0  0
   37.6390   23.9900   37.6270 C   0  0  0  0  0  0  0  0  0  0  0  0
   36.6740   24.4270   37.7940 H   0  0  0  0  0  0  0  0  0  0  0  0
   38.4910   23.5020   38.6040 C   0  0  0  0  0  3  0  0  0  0  0  0
   39.7260   22.9520   38.2670 C   0  0  0  0  0  3  0  0  0  0  0  0
   41.6050   21.7030   35.2890 H   0  0  0  0  0  0  0  0  0  0  0  0
   41.6660   22.1880   36.5950 S   0  0  0  0  0  0  0  0  0  0  0  0
   42.7850   23.2180   36.5260 O   0  0  0  0  0  0  0  0  0  0  0  0
   42.0450   21.0180   37.4140 O   0  0  0  0  0  0  0  0  0  0  0  0
  1  4  1  6  0  0  0
  1  2  1  0  0  0  0
  1  3  1  0  0  0  0
  1  8  1  0  0  0  0
  2  3  1  0  0  0  0
  2  6  1  0  0  0  0
  3  7  1  1  0  0  0
  5  2  1  0  0  0  0
  8 10  1  0  0  0  0
  8  9  1  0  0  0  0
 11 16  2  0  0  0  0
 11 12  1  0  0  0  0
 12 13  2  0  0  0  0
 13 14  1  0  0  0  0
 13  8  1  0  0  0  0
 15 19  1  0  0  0  0
 15 14  2  0  0  0  0
 16 15  1  0  0  0  0
 17 11  1  0  0  0  0
 18 12  1  0  0  0  0
 20 22  1  0  0  0  0
 20 23  1  0  0  0  0
 20  3  1  0  0  0  0
 21 20  1  0  0  0  0
 23 27  1  0  0  0  0
 24 23  1  0  0  0  0
 25 23  1  0  0  0  0
 26 33  1  0  0  0  0
 27 28  1  0  0  0  0
 27 26  2  0  0  0  0
 28 30  2  0  0  0  0
 29 28  1  0  0  0  0
 30 31  1  0  0  0  0
 30 32  1  0  0  0  0
 33 32  2  0  0  0  0
 34 35  1  0  0  0  0
 35 26  1  0  0  0  0
 35 37  2  0  0  0  0
 36 35  2  0  0  0  0
M  END
>  <minimizedAffinity>
-4.95103264

$$$$

 OpenBabel03262520473D

 37 39  0  0  1  0  0  0  0  0999 V2000
   39.5610   26.1750   32.9610 C   0  0  1  0  0  0  0  0  0  0  0  0
   40.5940   27.2160   33.4160 C   0  0  0  0  0  0  0  0  0  0  0  0
   39.3420   27.0170   34.1520 C   0  0  2  0  0  0  0  0  0  0  0  0
   39.8840   25.1370   33.0880 H   0  0  0  0  0  0  0  0  0  0  0  0
   41.5570   26.8360   33.7990 H   0  0  0  0  0  0  0  0  0  0  0  0
   40.7200   28.1320   32.7960 H   0  0  0  0  0  0  0  0  0  0  0  0
   38.5700   27.8270   34.0080 H   0  0  0  0  0  0  0  0  0  0  0  0
   38.8970   26.5150   31.6450 C   0  0  0  0  0  0  0  0  0  0  0  0
   38.7560   27.6160   31.5980 H   0  0  0  0  0  0  0  0  0  0  0  0
   39.6110   26.2120   30.8420 H   0  0  0  0  0  0  0  0  0  0  0  0
   36.3640   23.7580   31.6200 C   0  0  0  0  0  0  0  0  0  0  0  0
   37.5960   24.4660   31.7580 C   0  0  0  0  0  0  0  0  0  0  0  0
   37.6000   25.8160   31.4910 C   0  0  0  0  0  0  0  0  0  0  0  0
   36.4530   26.4210   31.1140 N   0  0  0  0  0  0  0  0  0  0  0  0
   35.2980   25.7380   30.9880 C   0  0  0  0  0  0  0  0  0  0  0  0
   35.2610   24.4160   31.2420 N   0  0  0  0  0  0  0  0  0  0  0  0
   36.4060   22.7130   31.8360 H   0  0  0  0  0  0  0  0  0  0  0  0
   38.5010   23.9520   32.0620 H   0  0  0  0  0  0  0  0  0  0  0  0
   34.3890   26.2390   30.6840 H   0  0  0  0  0  0  0  0  0  0  0  0
   39.2650   26.2790   35.4620 C   0  0  0  0  0  0  0  0  0  0  0  0
   40.2940   26.2530   35.9150 H   0  0  0  0  0  0  0  0  0  0  0  0
   38.6570   26.8290   36.1880 H   0  0  0  0  0  0  0  0  0  0  0  0
   38.8630   24.8380   35.3210 C   0  0  0  0  0  0  0  0  0  0  0  0
   38.8520   24.6500   34.2050 H   0  0  0  0  0  0  0  0  0  0  0  0
   37.8160   24.6410   35.6180 H   0  0  0  0  0  0  0  0  0  0  0  0
   39.6580   23.1660   37.0210 C   0  0  0  0  0  0  0  0  0  0  0  0
   39.8610   23.9160   35.8680 C   0  0  0  0  0  0  0  0  0  0  0  0
   41.1040   23.7030   35.2830 C   0  0  0  0  0  0  0  0  0  0  0  0
   41.2790   24.2920   34.3680 H   0  0  0  0  0  0  0  0  0  0  0  0
   42.1190   22.8690   35.6940 C   0  0  0  0  0  0  0  0  0  0  0  0
   43.0240   22.8260   35.1200 H   0  0  0  0  0  0  0  0  0  0  0  0
   41.8520   22.1520   36.8480 C   0  0  0  0  0  3  0  0  0  0  0  0
   40.6350   22.2920   37.5120 C   0  0  0  0  0  3  0  0  0  0  0  0
   38.3060   22.4160   38.9880 H   0  0  0  0  0  0  0  0  0  0  0  0
   38.1840   23.2820   37.9010 S   0  0  0  0  0  0  0  0  0  0  0  0
   37.9900   24.6380   38.5650 O   0  0  0  0  0  0  0  0  0  0  0  0
   36.9640   22.8340   37.1990 O   0  0  0  0  0  0  0  0  0  0  0  0
  1  4  1  1  0  0  0
  1  2  1  0  0  0  0
  1  3  1  0  0  0  0
  2  5  1  0  0  0  0
  2  3  1  0  0  0  0
  3  7  1  6  0  0  0
  3 20  1  0  0  0  0
  6  2  1  0  0  0  0
  8  1  1  0  0  0  0
  9  8  1  0  0  0  0
 10  8  1  0  0  0  0
 11 12  1  0  0  0  0
 11 17  1  0  0  0  0
 12 18  1  0  0  0  0
 13  8  1  0  0  0  0
 13 12  2  0  0  0  0
 14 13  1  0  0  0  0
 15 14  2  0  0  0  0
 15 16  1  0  0  0  0
 16 11  2  0  0  0  0
 19 15  1  0  0  0  0
 20 21  1  0  0  0  0
 20 22  1  0  0  0  0
 23 20  1  0  0  0  0
 23 25  1  0  0  0  0
 23 27  1  0  0  0  0
 24 23  1  0  0  0  0
 26 33  1  0  0  0  0
 26 35  1  0  0  0  0
 27 26  2  0  0  0  0
 28 30  2  0  0  0  0
 28 27  1  0  0  0  0
 29 28  1  0  0  0  0
 30 32  1  0  0  0  0
 31 30  1  0  0  0  0
 32 33  2  0  0  0  0
 35 36  2  0  0  0  0
 35 34  1  0  0  0  0
 37 35  2  0  0  0  0
M  END
>  <minimizedAffinity>
-4.92018366

$$$$

 OpenBabel03262520473D

 37 39  0  0  1  0  0  0  0  0999 V2000
   36.9360   26.3420   32.9250 C   0  0  1  0  0  0  0  0  0  0  0  0
   38.2160   27.1890   32.9700 C   0  0  0  0  0  0  0  0  0  0  0  0
   36.8930   27.8150   32.8710 C   0  0  2  0  0  0  0  0  0  0  0  0
   36.7030   25.8310   33.8650 H   0  0  0  0  0  0  0  0  0  0  0  0
   38.7870   27.1900   33.9140 H   0  0  0  0  0  0  0  0  0  0  0  0
   38.8790   27.1790   32.0770 H   0  0  0  0  0  0  0  0  0  0  0  0
   36.6370   28.2320   31.8550 H   0  0  0  0  0  0  0  0  0  0  0  0
   36.7960   25.5210   31.6630 C   0  0  0  0  0  0  0  0  0  0  0  0
   35.9040   25.8800   31.1080 H   0  0  0  0  0  0  0  0  0  0  0  0
   37.7060   25.7270   31.0480 H   0  0  0  0  0  0  0  0  0  0  0  0
   35.6040   21.9760   31.4910 C   0  0  0  0  0  0  0  0  0  0  0  0
   35.7470   23.3720   31.2300 C   0  0  0  0  0  0  0  0  0  0  0  0
   36.6770   24.0750   31.9620 C   0  0  0  0  0  0  0  0  0  0  0  0
   37.4150   23.4300   32.8910 N   0  0  0  0  0  0  0  0  0  0  0  0
   37.2670   22.1110   33.1250 C   0  0  0  0  0  0  0  0  0  0  0  0
   36.3660   21.3950   32.4260 N   0  0  0  0  0  0  0  0  0  0  0  0
   34.8710   21.4690   30.9010 H   0  0  0  0  0  0  0  0  0  0  0  0
   35.1390   23.8620   30.4780 H   0  0  0  0  0  0  0  0  0  0  0  0
   37.8670   21.6100   33.8740 H   0  0  0  0  0  0  0  0  0  0  0  0
   36.2110   28.4870   34.0340 C   0  0  0  0  0  0  0  0  0  0  0  0
   35.5570   27.7290   34.5470 H   0  0  0  0  0  0  0  0  0  0  0  0
   36.9390   28.7860   34.7970 H   0  0  0  0  0  0  0  0  0  0  0  0
   35.2840   29.5970   33.6300 C   0  0  0  0  0  0  0  0  0  0  0  0
   34.3620   29.0730   33.2330 H   0  0  0  0  0  0  0  0  0  0  0  0
   35.6390   30.1730   32.7550 H   0  0  0  0  0  0  0  0  0  0  0  0
   33.5110   30.3870   35.2270 C   0  0  0  0  0  0  0  0  0  0  0  0
   34.8240   30.3940   34.7700 C   0  0  0  0  0  0  0  0  0  0  0  0
   35.6590   31.2290   35.5030 C   0  0  0  0  0  0  0  0  0  0  0  0
   36.7040   31.2450   35.1500 H   0  0  0  0  0  0  0  0  0  0  0  0
   35.3530   32.0220   36.5860 C   0  0  0  0  0  0  0  0  0  0  0  0
   36.1260   32.6120   37.0360 H   0  0  0  0  0  0  0  0  0  0  0  0
   34.0290   31.9690   36.9890 C   0  0  0  0  0  3  0  0  0  0  0  0
   33.1090   31.1610   36.3230 C   0  0  0  0  0  3  0  0  0  0  0  0
   33.0000   28.4630   33.7120 H   0  0  0  0  0  0  0  0  0  0  0  0
   32.3130   29.4200   34.4590 S   0  0  0  0  0  0  0  0  0  0  0  0
   31.5070   28.5770   35.4380 O   0  0  0  0  0  0  0  0  0  0  0  0
   31.4440   30.1080   33.4820 O   0  0  0  0  0  0  0  0  0  0  0  0
  1  2  1  0  0  0  0
  1  4  1  1  0  0  0
  2  5  1  0  0  0  0
  3  7  1  6  0  0  0
  3  1  1  0  0  0  0
  3  2  1  0  0  0  0
  3 20  1  0  0  0  0
  6  2  1  0  0  0  0
  8 13  1  0  0  0  0
  8  1  1  0  0  0  0
  9  8  1  0  0  0  0
 10  8  1  0  0  0  0
 11 16  1  0  0  0  0
 12 11  2  0  0  0  0
 12 13  1  0  0  0  0
 13 14  2  0  0  0  0
 14 15  1  0  0  0  0
 15 19  1  0  0  0  0
 16 15  2  0  0  0  0
 17 11  1  0  0  0  0
 18 12  1  0  0  0  0
 20 21  1  0  0  0  0
 20 22  1  0  0  0  0
 23 20  1  0  0  0  0
 23 27  1  0  0  0  0
 24 23  1  0  0  0  0
 25 23  1  0  0  0  0
 26 33  1  0  0  0  0
 27 26  2  0  0  0  0
 27 28  1  0  0  0  0
 28 30  2  0  0  0  0
 29 28  1  0  0  0  0
 30 32  1  0  0  0  0
 30 31  1  0  0  0  0
 33 32  2  0  0  0  0
 34 35  1  0  0  0  0
 35 26  1  0  0  0  0
 35 36  2  0  0  0  0
 37 35  2  0  0  0  0
M  END
>  <minimizedAffinity>
-4.91991615

$$$$

 OpenBabel03262520473D

 37 39  0  0  1  0  0  0  0  0999 V2000
   36.4510   28.4830   32.6660 C   0  0  1  0  0  0  0  0  0  0  0  0
   36.6020   29.2830   31.3640 C   0  0  0  0  0  0  0  0  0  0  0  0
   35.2790   28.9470   31.9000 C   0  0  2  0  0  0  0  0  0  0  0  0
   36.7560   29.0280   33.5660 H   0  0  0  0  0  0  0  0  0  0  0  0
   37.0170   30.3020   31.4440 H   0  0  0  0  0  0  0  0  0  0  0  0
   36.9750   28.7470   30.4630 H   0  0  0  0  0  0  0  0  0  0  0  0
   34.7350   28.1270   31.3490 H   0  0  0  0  0  0  0  0  0  0  0  0
   36.9240   27.0510   32.5570 C   0  0  0  0  0  0  0  0  0  0  0  0
   36.0710   26.4240   32.2240 H   0  0  0  0  0  0  0  0  0  0  0  0
   37.7090   27.0370   31.7620 H   0  0  0  0  0  0  0  0  0  0  0  0
   38.1890   27.0560   36.0810 C   0  0  0  0  0  0  0  0  0  0  0  0
   37.6690   27.4970   34.8270 C   0  0  0  0  0  0  0  0  0  0  0  0
   37.4650   26.5550   33.8440 C   0  0  0  0  0  0  0  0  0  0  0  0
   37.7600   25.2610   34.0940 N   0  0  0  0  0  0  0  0  0  0  0  0
   38.2510   24.8620   35.2830 C   0  0  0  0  0  0  0  0  0  0  0  0
   38.4610   25.7590   36.2660 N   0  0  0  0  0  0  0  0  0  0  0  0
   38.3320   27.8190   36.8150 H   0  0  0  0  0  0  0  0  0  0  0  0
   37.4420   28.5430   34.6570 H   0  0  0  0  0  0  0  0  0  0  0  0
   38.4820   23.8200   35.4660 H   0  0  0  0  0  0  0  0  0  0  0  0
   34.3980   29.9460   32.6040 C   0  0  0  0  0  0  0  0  0  0  0  0
   34.9980   30.8790   32.7900 H   0  0  0  0  0  0  0  0  0  0  0  0
   33.5760   30.2700   31.9570 H   0  0  0  0  0  0  0  0  0  0  0  0
   33.9420   29.4960   33.9630 C   0  0  0  0  0  0  0  0  0  0  0  0
   34.5800   28.5900   34.1970 H   0  0  0  0  0  0  0  0  0  0  0  0
   32.9150   29.0860   33.9700 H   0  0  0  0  0  0  0  0  0  0  0  0
   33.3430   30.8160   36.0160 C   0  0  0  0  0  0  0  0  0  0  0  0
   34.2420   30.4730   35.0130 C   0  0  0  0  0  0  0  0  0  0  0  0
   35.4550   31.1440   35.1060 C   0  0  0  0  0  0  0  0  0  0  0  0
   36.1780   30.8820   34.3150 H   0  0  0  0  0  0  0  0  0  0  0  0
   35.8570   32.0750   36.0360 C   0  0  0  0  0  0  0  0  0  0  0  0
   36.8380   32.5010   35.9590 H   0  0  0  0  0  0  0  0  0  0  0  0
   34.9150   32.3730   37.0070 C   0  0  0  0  0  3  0  0  0  0  0  0
   33.6660   31.7540   37.0050 C   0  0  0  0  0  3  0  0  0  0  0  0
   31.4440   29.7640   34.7740 H   0  0  0  0  0  0  0  0  0  0  0  0
   31.7800   30.1000   36.0840 S   0  0  0  0  0  0  0  0  0  0  0  0
   31.7690   28.7550   36.7970 O   0  0  0  0  0  0  0  0  0  0  0  0
   30.6790   30.9730   36.5430 O   0  0  0  0  0  0  0  0  0  0  0  0
  1  4  1  1  0  0  0
  2  5  1  0  0  0  0
  2  3  1  0  0  0  0
  2  1  1  0  0  0  0
  3  7  1  6  0  0  0
  3 20  1  0  0  0  0
  3  1  1  0  0  0  0
  6  2  1  0  0  0  0
  8  1  1  0  0  0  0
  8 13  1  0  0  0  0
  9  8  1  0  0  0  0
 10  8  1  0  0  0  0
 11 16  1  0  0  0  0
 11 17  1  0  0  0  0
 12 11  2  0  0  0  0
 13 14  2  0  0  0  0
 13 12  1  0  0  0  0
 14 15  1  0  0  0  0
 15 19  1  0  0  0  0
 15 16  2  0  0  0  0
 18 12  1  0  0  0  0
 20 21  1  0  0  0  0
 20 23  1  0  0  0  0
 22 20  1  0  0  0  0
 23 25  1  0  0  0  0
 23 24  1  0  0  0  0
 23 27  1  0  0  0  0
 26 35  1  0  0  0  0
 26 33  1  0  0  0  0
 27 28  1  0  0  0  0
 27 26  2  0  0  0  0
 28 30  2  0  0  0  0
 29 28  1  0  0  0  0
 30 32  1  0  0  0  0
 31 30  1  0  0  0  0
 33 32  2  0  0  0  0
 34 35  1  0  0  0  0
 35 37  2  0  0  0  0
 35 36  2  0  0  0  0
M  END
>  <minimizedAffinity>
-4.88532495

$$$$

 OpenBabel03262520473D

 37 39  0  0  1  0  0  0  0  0999 V2000
   41.7990   23.7380   35.4220 C   0  0  1  0  0  0  0  0  0  0  0  0
   42.7380   23.5300   34.2240 C   0  0  0  0  0  0  0  0  0  0  0  0
   41.7340   24.5990   34.2270 C   0  0  2  0  0  0  0  0  0  0  0  0
   42.2980   24.1060   36.3240 H   0  0  0  0  0  0  0  0  0  0  0  0
   43.8090   23.7420   34.3810 H   0  0  0  0  0  0  0  0  0  0  0  0
   42.5760   22.6340   33.5840 H   0  0  0  0  0  0  0  0  0  0  0  0
   40.8350   24.4110   33.5710 H   0  0  0  0  0  0  0  0  0  0  0  0
   40.8060   22.6130   35.6160 C   0  0  0  0  0  0  0  0  0  0  0  0
   40.3760   22.3510   34.6270 H   0  0  0  0  0  0  0  0  0  0  0  0
   41.3880   21.7390   35.9950 H   0  0  0  0  0  0  0  0  0  0  0  0
   37.4940   23.7920   36.9030 C   0  0  0  0  0  0  0  0  0  0  0  0
   38.5500   23.4210   36.0180 C   0  0  0  0  0  0  0  0  0  0  0  0
   39.7350   22.9890   36.5680 C   0  0  0  0  0  0  0  0  0  0  0  0
   39.8600   22.9300   37.9110 N   0  0  0  0  0  0  0  0  0  0  0  0
   38.8530   23.2850   38.7340 C   0  0  0  0  0  0  0  0  0  0  0  0
   37.6800   23.7110   38.2270 N   0  0  0  0  0  0  0  0  0  0  0  0
   36.5920   24.1220   36.4350 H   0  0  0  0  0  0  0  0  0  0  0  0
   38.4190   23.4800   34.9430 H   0  0  0  0  0  0  0  0  0  0  0  0
   38.9710   23.2320   39.8080 H   0  0  0  0  0  0  0  0  0  0  0  0
   42.0750   26.0480   34.4520 C   0  0  0  0  0  0  0  0  0  0  0  0
   41.8430   26.3040   35.5220 H   0  0  0  0  0  0  0  0  0  0  0  0
   43.1530   26.2180   34.3540 H   0  0  0  0  0  0  0  0  0  0  0  0
   41.2470   26.9980   33.6330 C   0  0  0  0  0  0  0  0  0  0  0  0
   41.2610   26.5640   32.5870 H   0  0  0  0  0  0  0  0  0  0  0  0
   41.7190   27.9900   33.4980 H   0  0  0  0  0  0  0  0  0  0  0  0
   38.7860   26.8920   33.1370 C   0  0  0  0  0  0  0  0  0  0  0  0
   39.8390   27.0140   34.0360 C   0  0  0  0  0  0  0  0  0  0  0  0
   39.4250   27.1510   35.3550 C   0  0  0  0  0  0  0  0  0  0  0  0
   40.2500   27.2490   36.0800 H   0  0  0  0  0  0  0  0  0  0  0  0
   38.1450   27.1790   35.8590 C   0  0  0  0  0  0  0  0  0  0  0  0
   38.0010   27.2940   36.9160 H   0  0  0  0  0  0  0  0  0  0  0  0
   37.1430   27.0540   34.9110 C   0  0  0  0  0  3  0  0  0  0  0  0
   37.4510   26.9110   33.5590 C   0  0  0  0  0  3  0  0  0  0  0  0
   40.2490   25.9630   31.3320 H   0  0  0  0  0  0  0  0  0  0  0  0
   39.0800   26.7150   31.4510 S   0  0  0  0  0  0  0  0  0  0  0  0
   38.0430   25.8480   30.7510 O   0  0  0  0  0  0  0  0  0  0  0  0
   39.3550   27.9570   30.6990 O   0  0  0  0  0  0  0  0  0  0  0  0
  1  8  1  0  0  0  0
  1  4  1  1  0  0  0
  2  3  1  0  0  0  0
  2  5  1  0  0  0  0
  2  1  1  0  0  0  0
  3  7  1  6  0  0  0
  3 20  1  0  0  0  0
  3  1  1  0  0  0  0
  6  2  1  0  0  0  0
  8 10  1  0  0  0  0
  8 13  1  0  0  0  0
  9  8  1  0  0  0  0
 11 16  1  0  0  0  0
 12 13  1  0  0  0  0
 12 11  2  0  0  0  0
 13 14  2  0  0  0  0
 14 15  1  0  0  0  0
 15 19  1  0  0  0  0
 16 15  2  0  0  0  0
 17 11  1  0  0  0  0
 18 12  1  0  0  0  0
 20 21  1  0  0  0  0
 22 20  1  0  0  0  0
 23 27  1  0  0  0  0
 23 20  1  0  0  0  0
 24 23  1  0  0  0  0
 25 23  1  0  0  0  0
 26 33  2  0  0  0  0
 26 27  1  0  0  0  0
 27 28  2  0  0  0  0
 28 30  1  0  0  0  0
 28 29  1  0  0  0  0
 30 31  1  0  0  0  0
 32 30  2  0  0  0  0
 33 32  1  0  0  0  0
 34 35  1  0  0  0  0
 35 26  1  0  0  0  0
 36 35  2  0  0  0  0
 37 35  2  0  0  0  0
M  END
>  <minimizedAffinity>
-4.8704133

$$$$
