REMARK  Name = 
REMARK  4 active torsions:
REMARK  status: ('A' for Active; 'I' for Inactive)
REMARK    1  A    between atoms: C_1  and  C_8
REMARK    2  A    between atoms: C_4  and  O_13
REMARK    3  A    between atoms: O_13  and  C_25
REMARK    4  A    between atoms: S_21  and  C_24
REMARK                            x       y       z     vdW  Elec       q    Type
REMARK                         _______ _______ _______ _____ _____    ______ ____
ROOT
ATOM      1  C   UNL     1      37.569  31.660  48.942  0.00  0.00    +0.000 A 
ATOM      2  C   UNL     1      38.188  32.731  49.506  0.00  0.00    +0.000 A 
ATOM      3  C   UNL     1      39.061  33.561  48.819  0.00  0.00    +0.000 A 
ATOM      4  C   UNL     1      39.344  33.319  47.490  0.00  0.00    +0.000 A 
ATOM      5  C   UNL     1      38.702  32.223  46.934  0.00  0.00    +0.000 A 
ATOM      6  N   UNL     1      37.861  31.445  47.643  0.00  0.00    +0.000 NA
ATOM      7  H   UNL     1      38.017  32.983  50.540  0.00  0.00    +0.000 HD
ATOM      8  H   UNL     1      39.558  34.417  49.265  0.00  0.00    +0.000 HD
ATOM      9  H   UNL     1      38.836  31.925  45.908  0.00  0.00    +0.000 HD
ENDROOT
BRANCH   1  11
ATOM     10  C   UNL     1      36.959  30.166  50.872  0.00  0.00    +0.000 A 
ATOM     11  C   UNL     1      36.655  30.793  49.662  0.00  0.00    +0.000 A 
ATOM     12  C   UNL     1      35.391  30.570  49.114  0.00  0.00    +0.000 A 
ATOM     13  N   UNL     1      34.514  29.758  49.775  0.00  0.00    +0.000 NA
ATOM     14  C   UNL     1      34.852  29.173  50.941  0.00  0.00    +0.000 A 
ATOM     15  N   UNL     1      36.071  29.370  51.498  0.00  0.00    +0.000 NA
ATOM     16  H   UNL     1      37.949  30.378  51.242  0.00  0.00    +0.000 HD
ATOM     17  H   UNL     1      35.036  31.002  48.178  0.00  0.00    +0.000 HD
ATOM     18  H   UNL     1      34.130  28.530  51.443  0.00  0.00    +0.000 HD
ENDBRANCH   1  11
BRANCH   4  19
ATOM     19  O   UNL     1      40.200  34.085  46.714  0.00  0.00    +0.000 OA
BRANCH  19  21
ATOM     20  C   UNL     1      42.364  34.205  47.634  0.00  0.00    +0.000 A 
ATOM     21  C   UNL     1      41.542  33.859  46.580  0.00  0.00    +0.000 A 
ATOM     22  C   UNL     1      42.076  33.303  45.432  0.00  0.00    +0.000 A 
ATOM     23  H   UNL     1      41.437  33.022  44.585  0.00  0.00    +0.000 HD
ATOM     24  C   UNL     1      43.452  33.106  45.374  0.00  0.00    +0.000 A 
ATOM     25  H   UNL     1      43.889  32.664  44.466  0.00  0.00    +0.000 HD
ATOM     26  C   UNL     1      44.303  33.443  46.416  0.00  0.00    +0.000 A 
ATOM     27  C   UNL     1      43.743  34.000  47.558  0.00  0.00    +0.000 A 
BRANCH  20  29
ATOM     28  H   UNL     1      41.292  36.209  48.832  0.00  0.00    +0.000 HD
ATOM     29  S   UNL     1      41.679  34.908  49.081  0.00  0.00    +0.000 S 
ATOM     30  O   UNL     1      40.514  34.053  49.490  0.00  0.00    +0.000 OA
ATOM     31  O   UNL     1      42.695  34.856  50.183  0.00  0.00    +0.000 OA
ENDBRANCH  20  29
ENDBRANCH  19  21
ENDBRANCH   4  19
TORSDOF 4
