
 OpenBabel03272504563D

 36 38  0  0  1  0  0  0  0  0999 V2000
   37.0710   31.6330   48.6480 C   0  0  1  0  0  0  0  0  0  0  0  0
   36.3530   30.7920   47.7140 C   0  0  0  0  0  0  0  0  0  0  0  0
   37.2770   30.1850   48.6900 C   0  0  2  0  0  0  0  0  0  0  0  0
   36.5910   32.0490   49.5980 H   0  0  0  0  0  0  0  0  0  0  0  0
   36.7280   30.8100   46.6620 H   0  0  0  0  0  0  0  0  0  0  0  0
   35.3410   31.1120   47.7130 H   0  0  0  0  0  0  0  0  0  0  0  0
   38.0420   29.6070   48.2020 H   0  0  0  0  0  0  0  0  0  0  0  0
   38.2250   32.4690   48.1810 C   0  0  0  0  0  0  0  0  0  0  0  0
   38.6780   33.4540   49.0910 C   0  0  0  0  0  0  0  0  0  0  0  0
   39.7430   34.2010   48.6350 C   0  0  0  0  0  0  0  0  0  0  0  0
   40.2780   33.9650   47.3950 N   0  0  0  0  0  0  0  0  0  0  0  0
   39.8090   33.0140   46.5690 C   0  0  0  0  0  0  0  0  0  0  0  0
   38.7510   32.2480   46.9790 N   0  0  0  0  0  0  0  0  0  0  0  0
   40.3570   32.7520   45.3080 N   0  0  0  0  0  0  0  0  0  0  0  0
   38.2470   33.6270   50.0630 H   0  0  0  0  0  0  0  0  0  0  0  0
   40.1620   34.9860   49.2700 H   0  0  0  0  0  0  0  0  0  0  0  0
   40.8510   33.5710   44.8520 H   0  0  0  0  0  0  0  0  0  0  0  0
   40.2660   31.8050   44.8760 H   0  0  0  0  0  0  0  0  0  0  0  0
   36.7000   29.5080   49.7640 O   0  0  0  0  0  0  0  0  0  0  0  0
   34.5500   28.4460   50.6540 O   0  0  0  0  0  0  0  0  0  0  0  0
   35.0430   29.2700   49.4710 P   0  0  1  0  0  0  0  0  0  0  0  0
   34.2660   30.7570   49.6460 O   0  0  0  0  0  0  0  0  0  0  0  0
   34.6460   31.5330   49.2580 H   0  0  0  0  0  0  0  0  0  0  0  0
   34.8550   28.5460   48.0210 O   0  0  0  0  0  0  0  0  0  0  0  0
   33.2690   28.2460   46.1090 C   0  0  0  0  0  0  0  0  0  0  0  0
   33.9830   27.9550   47.2400 C   0  0  0  0  0  0  0  0  0  0  0  0
   33.7570   26.6650   47.7600 C   0  0  0  0  0  0  0  0  0  0  0  0
   34.1790   26.1720   48.6330 H   0  0  0  0  0  0  0  0  0  0  0  0
   32.8670   25.7620   47.1540 C   0  0  0  0  0  0  0  0  0  0  0  0
   32.6260   24.7650   47.4690 H   0  0  0  0  0  0  0  0  0  0  0  0
   32.2050   26.1810   46.0100 C   0  0  0  0  0  3  0  0  0  0  0  0
   32.3830   27.4270   45.4530 C   0  0  0  0  0  3  0  0  0  0  0  0
   34.8500   30.1450   45.2870 H   0  0  0  0  0  0  0  0  0  0  0  0
   33.5620   29.8290   45.4920 S   0  0  0  0  0  0  0  0  0  0  0  0
   32.8760   30.0140   44.1360 O   0  0  0  0  0  0  0  0  0  0  0  0
   32.8380   30.8000   46.4100 O   0  0  0  0  0  0  0  0  0  0  0  0
  1  3  1  0  0  0  0
  1  4  1  1  0  0  0
  2  1  1  0  0  0  0
  2  3  1  0  0  0  0
  3  7  1  6  0  0  0
  3 19  1  0  0  0  0
  5  2  1  0  0  0  0
  6  2  1  0  0  0  0
  8  1  1  0  0  0  0
  8  9  1  0  0  0  0
  9 15  1  0  0  0  0
 10  9  2  0  0  0  0
 10 16  1  0  0  0  0
 11 10  1  0  0  0  0
 12 13  1  0  0  0  0
 12 11  2  0  0  0  0
 13  8  2  0  0  0  0
 14 12  1  0  0  0  0
 17 14  1  0  0  0  0
 18 14  1  0  0  0  0
 21 22  1  0  0  0  0
 21 19  1  0  0  0  0
 21 20  2  1  0  0  0
 23 22  1  0  0  0  0
 24 21  1  0  0  0  0
 25 26  1  0  0  0  0
 26 27  2  0  0  0  0
 26 24  1  0  0  0  0
 27 28  1  0  0  0  0
 29 30  1  0  0  0  0
 29 27  1  0  0  0  0
 31 29  2  0  0  0  0
 32 31  1  0  0  0  0
 32 25  2  0  0  0  0
 33 34  1  0  0  0  0
 34 25  1  0  0  0  0
 34 36  2  0  0  0  0
 35 34  2  0  0  0  0
M  END
>  <minimizedAffinity>
-4.91122293

>  <minimizedRMSD>
1.00327408

$$$$
