
 OpenBabel03272504573D

 36 38  0  0  1  0  0  0  0  0999 V2000
   37.0080   31.5480   48.6060 C   0  0  1  0  0  0  0  0  0  0  0  0
   36.3250   30.8190   47.5580 C   0  0  0  0  0  0  0  0  0  0  0  0
   37.2370   30.1090   48.4750 C   0  0  2  0  0  0  0  0  0  0  0  0
   36.5010   31.8380   49.5880 H   0  0  0  0  0  0  0  0  0  0  0  0
   36.7230   30.9720   46.5260 H   0  0  0  0  0  0  0  0  0  0  0  0
   35.3080   31.1240   47.5730 H   0  0  0  0  0  0  0  0  0  0  0  0
   38.0220   29.6070   47.9380 H   0  0  0  0  0  0  0  0  0  0  0  0
   38.1590   32.4520   48.2730 C   0  0  0  0  0  0  0  0  0  0  0  0
   38.5160   33.3860   49.2740 C   0  0  0  0  0  0  0  0  0  0  0  0
   39.5800   34.1960   48.9410 C   0  0  0  0  0  0  0  0  0  0  0  0
   40.2020   34.0630   47.7270 N   0  0  0  0  0  0  0  0  0  0  0  0
   39.8220   33.1560   46.8100 C   0  0  0  0  0  0  0  0  0  0  0  0
   38.7690   32.3300   47.0970 N   0  0  0  0  0  0  0  0  0  0  0  0
   40.4590   32.9990   45.5740 N   0  0  0  0  0  0  0  0  0  0  0  0
   38.0170   33.4780   50.2250 H   0  0  0  0  0  0  0  0  0  0  0  0
   39.9280   34.9490   49.6530 H   0  0  0  0  0  0  0  0  0  0  0  0
   40.9510   33.8620   45.2070 H   0  0  0  0  0  0  0  0  0  0  0  0
   40.4320   32.0810   45.0750 H   0  0  0  0  0  0  0  0  0  0  0  0
   36.6470   29.2980   49.4430 O   0  0  0  0  0  0  0  0  0  0  0  0
   34.4600   28.2160   50.2120 O   0  0  0  0  0  0  0  0  0  0  0  0
   34.9690   29.2190   49.1850 P   0  0  1  0  0  0  0  0  0  0  0  0
   34.3000   30.6900   49.6700 O   0  0  0  0  0  0  0  0  0  0  0  0
   34.7180   31.5010   49.4170 H   0  0  0  0  0  0  0  0  0  0  0  0
   34.6860   28.7970   47.6340 O   0  0  0  0  0  0  0  0  0  0  0  0
   33.0990   27.2820   46.4300 C   0  0  0  0  0  0  0  0  0  0  0  0
   33.7490   28.4310   46.7930 C   0  0  0  0  0  0  0  0  0  0  0  0
   33.3340   29.5840   46.0970 C   0  0  0  0  0  0  0  0  0  0  0  0
   33.6700   30.6150   46.1760 H   0  0  0  0  0  0  0  0  0  0  0  0
   32.3330   29.5400   45.1120 C   0  0  0  0  0  0  0  0  0  0  0  0
   31.9480   30.3540   44.5280 H   0  0  0  0  0  0  0  0  0  0  0  0
   31.7540   28.3110   44.8380 C   0  0  0  0  0  3  0  0  0  0  0  0
   32.1140   27.1500   45.4830 C   0  0  0  0  0  3  0  0  0  0  0  0
   34.2350   26.1220   48.4670 H   0  0  0  0  0  0  0  0  0  0  0  0
   33.6240   25.8860   47.2950 S   0  0  0  0  0  0  0  0  0  0  0  0
   32.4350   24.9820   47.6280 O   0  0  0  0  0  0  0  0  0  0  0  0
   34.4620   25.0610   46.3330 O   0  0  0  0  0  0  0  0  0  0  0  0
  1  4  1  1  0  0  0
  2  6  1  0  0  0  0
  2  3  1  0  0  0  0
  2  1  1  0  0  0  0
  3  7  1  6  0  0  0
  3  1  1  0  0  0  0
  3 19  1  0  0  0  0
  5  2  1  0  0  0  0
  8  1  1  0  0  0  0
  8  9  1  0  0  0  0
  9 15  1  0  0  0  0
 10  9  2  0  0  0  0
 10 16  1  0  0  0  0
 11 10  1  0  0  0  0
 12 13  1  0  0  0  0
 12 11  2  0  0  0  0
 13  8  2  0  0  0  0
 14 12  1  0  0  0  0
 17 14  1  0  0  0  0
 18 14  1  0  0  0  0
 21 19  1  0  0  0  0
 21 22  1  0  0  0  0
 21 20  2  1  0  0  0
 23 22  1  0  0  0  0
 24 21  1  0  0  0  0
 25 26  1  0  0  0  0
 25 34  1  0  0  0  0
 26 24  1  0  0  0  0
 27 28  1  0  0  0  0
 27 26  2  0  0  0  0
 29 27  1  0  0  0  0
 30 29  1  0  0  0  0
 31 29  2  0  0  0  0
 31 32  1  0  0  0  0
 32 25  2  0  0  0  0
 34 35  2  0  0  0  0
 34 33  1  0  0  0  0
 36 34  2  0  0  0  0
M  END
>  <minimizedAffinity>
-4.81461525

>  <minimizedRMSD>
0.540163457

$$$$
