
 OpenBabel03272507133D

 43 47  0  0  0  0  0  0  0  0999 V2000
   37.1030   29.5470   49.9130 C   0  0  0  0  0  0  0  0  0  0  0  0
   37.8060   29.0010   50.8020 O   0  0  0  0  0  0  0  0  0  0  0  0
   37.5890   30.5880   49.0430 C   0  0  0  0  0  0  0  0  0  0  0  0
   38.2330   31.6730   49.6470 C   0  0  0  0  0  0  0  0  0  0  0  0
   38.7210   32.7030   48.8520 C   0  0  0  0  0  0  0  0  0  0  0  0
   38.5310   32.5740   47.5050 N   0  0  0  0  0  0  0  0  0  0  0  0
   37.9140   31.5310   46.9450 C   0  0  0  0  0  0  0  0  0  0  0  0
   37.4470   30.5470   47.7100 N   0  0  0  0  0  0  0  0  0  0  0  0
   38.3750   31.7620   50.7020 H   0  0  0  0  0  0  0  0  0  0  0  0
   39.2230   33.5620   49.2410 H   0  0  0  0  0  0  0  0  0  0  0  0
   38.6810   32.2450   44.6600 C   0  0  0  0  0  0  0  0  0  0  0  0
   37.8130   31.5770   45.4930 C   0  0  0  0  0  0  0  0  0  0  0  0
   36.7880   30.9200   44.8510 C   0  0  0  0  0  0  0  0  0  0  0  0
   36.0240   30.3480   45.3960 H   0  0  0  0  0  0  0  0  0  0  0  0
   36.6250   30.9200   43.4710 C   0  0  0  0  0  0  0  0  0  0  0  0
   35.8160   30.3980   43.0030 H   0  0  0  0  0  0  0  0  0  0  0  0
   37.5130   31.5980   42.6690 C   0  0  0  0  0  0  0  0  0  0  0  0
   38.5460   32.2610   43.2980 C   0  0  0  0  0  0  0  0  0  0  0  0
   39.7340   33.4180   46.6510 H   0  0  0  0  0  0  0  0  0  0  0  0
   40.0120   33.1070   45.3600 S   0  0  0  0  0  0  0  0  0  0  0  0
   40.2840   34.3950   44.6170 O   0  0  0  0  0  0  0  0  0  0  0  0
   41.2630   32.2900   45.3200 O   0  0  0  0  0  0  0  0  0  0  0  0
   35.7240   29.1180   49.7370 C   0  0  0  0  0  0  0  0  0  0  0  0
   34.7250   29.5470   50.5400 C   0  0  0  0  0  0  0  0  0  0  0  0
   33.5420   28.9430   50.0900 C   0  0  0  0  0  0  0  0  0  0  0  0
   33.9260   28.1580   49.0000 C   0  0  0  0  0  0  0  0  0  0  0  0
   35.2040   28.3170   48.8650 O   0  0  0  0  0  0  0  0  0  0  0  0
   34.7880   30.2350   51.3890 H   0  0  0  0  0  0  0  0  0  0  0  0
   32.5870   29.1160   50.5590 H   0  0  0  0  0  0  0  0  0  0  0  0
   33.3590   26.3220   47.4180 C   0  0  0  0  0  0  0  0  0  0  0  0
   32.9680   27.3510   48.2350 C   0  0  0  0  0  0  0  0  0  0  0  0
   31.6470   27.6880   48.3940 C   0  0  0  0  0  0  0  0  0  0  0  0
   30.7050   26.9570   47.7030 C   0  0  0  0  0  0  0  0  0  0  0  0
   29.3570   27.0510   47.6640 N   0  0  0  0  0  0  0  0  0  0  0  0
   28.9110   26.1030   46.8440 N   0  0  0  0  0  0  0  0  0  0  0  0
   29.9470   25.4130   46.3630 C   0  0  0  0  0  0  0  0  0  0  0  0
   31.1210   25.9290   46.8910 C   0  0  0  0  0  0  0  0  0  0  0  0
   32.4470   25.5770   46.7190 C   0  0  0  0  0  0  0  0  0  0  0  0
   34.4180   26.0890   47.3200 H   0  0  0  0  0  0  0  0  0  0  0  0
   31.2530   28.4990   49.0290 H   0  0  0  0  0  0  0  0  0  0  0  0
   28.7500   27.7480   48.1870 H   0  0  0  0  0  0  0  0  0  0  0  0
   29.8540   24.5720   45.6610 H   0  0  0  0  0  0  0  0  0  0  0  0
   32.7290   24.7570   46.0650 H   0  0  0  0  0  0  0  0  0  0  0  0
  1  2  2  0  0  0  0
  3  4  1  0  0  0  0
  3  1  1  0  0  0  0
  4  9  1  0  0  0  0
  5 10  1  0  0  0  0
  5  4  2  0  0  0  0
  6  5  1  0  0  0  0
  7  6  2  0  0  0  0
  7  8  1  0  0  0  0
  8  3  2  0  0  0  0
 11 20  1  0  0  0  0
 11 12  1  0  0  0  0
 12  7  1  0  0  0  0
 13 14  1  0  0  0  0
 13 12  2  0  0  0  0
 15 13  1  0  0  0  0
 16 15  1  0  0  0  0
 17 18  1  0  0  0  0
 17 15  2  0  0  0  0
 18 11  2  0  0  0  0
 20 19  1  0  0  0  0
 21 20  2  0  0  0  0
 22 20  2  0  0  0  0
 23  1  1  0  0  0  0
 23 24  2  0  0  0  0
 24 28  1  0  0  0  0
 25 24  1  0  0  0  0
 25 29  1  0  0  0  0
 26 25  2  0  0  0  0
 27 26  1  0  0  0  0
 27 23  1  0  0  0  0
 30 31  1  0  0  0  0
 31 32  2  0  0  0  0
 31 26  1  0  0  0  0
 32 40  1  0  0  0  0
 33 32  1  0  0  0  0
 34 33  1  0  0  0  0
 34 41  1  0  0  0  0
 35 34  1  0  0  0  0
 36 35  2  0  0  0  0
 36 37  1  0  0  0  0
 37 33  2  0  0  0  0
 38 37  1  0  0  0  0
 38 30  2  0  0  0  0
 39 30  1  0  0  0  0
 42 36  1  0  0  0  0
 43 38  1  0  0  0  0
M  END
>  <minimizedAffinity>
-7.0844326

>  <minimizedRMSD>
1.05955625

$$$$
