
 OpenBabel03272509473D

 28 29  0  0  0  0  0  0  0  0999 V2000
   32.9360   27.5760   48.4280 C   0  0  0  0  0  0  0  0  0  0  0  0
   33.3280   27.5620   47.3810 H   0  0  0  0  0  0  0  0  0  0  0  0
   33.0990   26.5500   48.8070 H   0  0  0  0  0  0  0  0  0  0  0  0
   31.1020   28.4760   47.2080 C   0  0  0  0  0  0  0  0  0  0  0  0
   31.4820   27.8630   48.4080 C   0  0  0  0  0  0  0  0  0  0  0  0
   30.5340   27.6090   49.3680 C   0  0  0  0  0  0  0  0  0  0  0  0
   30.9330   27.1360   50.2520 H   0  0  0  0  0  0  0  0  0  0  0  0
   29.2160   27.9510   49.1640 C   0  0  0  0  0  0  0  0  0  0  0  0
   28.5070   27.7220   49.9690 H   0  0  0  0  0  0  0  0  0  0  0  0
   28.7950   28.5560   47.9990 C   0  0  0  0  0  0  0  0  0  0  0  0
   29.7590   28.8150   47.0190 C   0  0  0  0  0  0  0  0  0  0  0  0
   33.2320   28.1720   45.7630 H   0  0  0  0  0  0  0  0  0  0  0  0
   32.0840   28.9080   45.8450 S   0  0  0  0  0  0  0  0  0  0  0  0
   31.3350   28.8380   44.5320 O   0  0  0  0  0  0  0  0  0  0  0  0
   32.5440   30.3400   46.0630 O   0  0  0  0  0  0  0  0  0  0  0  0
   33.7070   28.5770   49.2380 C   0  0  0  0  0  0  0  0  0  0  0  0
   33.7780   29.5020   48.5930 H   0  0  0  0  0  0  0  0  0  0  0  0
   33.1330   28.8940   50.1180 H   0  0  0  0  0  0  0  0  0  0  0  0
   35.0050   28.1010   49.5220 O   0  0  0  0  0  0  0  0  0  0  0  0
   37.2420   30.2560   51.3660 C   0  0  0  0  0  0  0  0  0  0  0  0
   37.9770   30.8100   50.2960 C   0  0  0  0  0  0  0  0  0  0  0  0
   37.6600   30.4100   49.0010 C   0  0  0  0  0  0  0  0  0  0  0  0
   36.6490   29.4990   48.8520 N   0  0  0  0  0  0  0  0  0  0  0  0
   35.9750   28.9980   49.9020 C   0  0  0  0  0  0  0  0  0  0  0  0
   36.2770   29.3810   51.1630 N   0  0  0  0  0  0  0  0  0  0  0  0
   37.4590   30.5430   52.3760 H   0  0  0  0  0  0  0  0  0  0  0  0
   38.7710   31.5290   50.4690 H   0  0  0  0  0  0  0  0  0  0  0  0
   38.1840   30.7940   48.1350 H   0  0  0  0  0  0  0  0  0  0  0  0
  1  3  1  0  0  0  0
  1 16  1  0  0  0  0
  2  1  1  0  0  0  0
  4  5  1  0  0  0  0
  5  1  1  0  0  0  0
  5  6  2  0  0  0  0
  6  7  1  0  0  0  0
  8  6  1  0  0  0  0
  8  9  1  0  0  0  0
 10  8  2  0  0  0  0
 11  4  2  0  0  0  0
 11 10  1  0  0  0  0
 12 13  1  0  0  0  0
 13 15  2  0  0  0  0
 13  4  1  0  0  0  0
 14 13  2  0  0  0  0
 16 19  1  0  0  0  0
 16 18  1  0  0  0  0
 17 16  1  0  0  0  0
 19 24  1  0  0  0  0
 20 26  1  0  0  0  0
 21 27  1  0  0  0  0
 21 20  2  0  0  0  0
 22 21  1  0  0  0  0
 23 22  2  0  0  0  0
 23 24  1  0  0  0  0
 24 25  2  0  0  0  0
 25 20  1  0  0  0  0
 28 22  1  0  0  0  0
M  END
>  <minimizedAffinity>
-4.57274818

>  <minimizedRMSD>
2.99187851

$$$$
