
 OpenBabel03272503143D

 49 53  0  0  0  0  0  0  0  0999 V2000
   36.2990   28.1080   34.3140 C   0  0  0  0  0  0  0  0  0  0  0  0
   37.3640   27.3250   33.9340 C   0  0  0  0  0  0  0  0  0  0  0  0
   37.9260   27.3790   32.6970 C   0  0  0  0  0  0  0  0  0  0  0  0
   37.4150   28.2600   31.7550 C   0  0  0  0  0  0  0  0  0  0  0  0
   37.7490   28.5310   30.4890 N   0  0  0  0  0  0  0  0  0  0  0  0
   36.9200   29.4710   30.0470 C   0  0  0  0  0  0  0  0  0  0  0  0
   36.0520   29.8050   31.0350 N   0  0  0  0  0  0  0  0  0  0  0  0
   36.3520   29.0500   32.1180 C   0  0  0  0  0  0  0  0  0  0  0  0
   35.7600   29.0090   33.3870 C   0  0  0  0  0  0  0  0  0  0  0  0
   35.8770   28.0390   35.3080 H   0  0  0  0  0  0  0  0  0  0  0  0
   38.7600   26.7490   32.4340 H   0  0  0  0  0  0  0  0  0  0  0  0
   38.5150   28.1030   29.9130 H   0  0  0  0  0  0  0  0  0  0  0  0
   36.8720   29.9510   29.0760 H   0  0  0  0  0  0  0  0  0  0  0  0
   37.8800   26.4100   34.9390 C   0  0  0  0  0  0  0  0  0  0  0  0
   38.5600   26.8930   35.9150 O   0  0  0  0  0  0  0  0  0  0  0  0
   37.7070   25.0060   34.9520 N   0  0  0  0  0  0  0  0  0  0  0  0
   37.1620   24.5860   34.1750 H   0  0  0  0  0  0  0  0  0  0  0  0
   40.1630   23.8780   34.7170 F   0  0  0  0  0  0  0  0  0  0  0  0
   39.5780   23.7930   35.9340 C   0  0  0  0  0  0  0  0  0  0  0  0
   40.2170   23.1690   36.9630 C   0  0  0  0  0  0  0  0  0  0  0  0
   39.5620   23.1210   38.1760 C   0  0  0  0  0  0  0  0  0  0  0  0
   38.3150   23.6720   38.3650 C   0  0  0  0  0  0  0  0  0  0  0  0
   37.6840   24.3040   37.3000 C   0  0  0  0  0  0  0  0  0  0  0  0
   38.3310   24.3590   36.0740 C   0  0  0  0  0  0  0  0  0  0  0  0
   40.0600   22.6260   39.0010 H   0  0  0  0  0  0  0  0  0  0  0  0
   37.8210   23.6230   39.3210 H   0  0  0  0  0  0  0  0  0  0  0  0
   36.7020   24.7560   37.3870 H   0  0  0  0  0  0  0  0  0  0  0  0
   43.0570   20.7140   36.4970 C   0  0  0  0  0  0  0  0  0  0  0  0
   41.7750   21.2440   36.7420 C   0  0  0  0  0  0  0  0  0  0  0  0
   41.5400   22.6000   36.7100 C   0  0  0  0  0  0  0  0  0  0  0  0
   42.6100   23.4150   36.4300 N   0  0  0  0  0  0  0  0  0  0  0  0
   43.8290   22.9140   36.1960 C   0  0  0  0  0  0  0  0  0  0  0  0
   44.0510   21.6000   36.2270 N   0  0  0  0  0  0  0  0  0  0  0  0
   43.1160   19.6400   36.5490 H   0  0  0  0  0  0  0  0  0  0  0  0
   40.8960   20.6490   36.9690 H   0  0  0  0  0  0  0  0  0  0  0  0
   44.6780   23.5530   35.9730 H   0  0  0  0  0  0  0  0  0  0  0  0
   34.6950   29.8020   33.7460 O   0  0  0  0  0  0  0  0  0  0  0  0
   33.6600   30.7510   35.8200 C   0  0  0  0  0  0  0  0  0  0  0  0
   34.6230   30.6270   34.8420 C   0  0  0  0  0  0  0  0  0  0  0  0
   35.7480   31.4540   34.9180 C   0  0  0  0  0  0  0  0  0  0  0  0
   36.5880   31.4700   34.2180 H   0  0  0  0  0  0  0  0  0  0  0  0
   35.9050   32.3790   35.9420 C   0  0  0  0  0  0  0  0  0  0  0  0
   36.7580   33.0320   36.0320 H   0  0  0  0  0  0  0  0  0  0  0  0
   34.9250   32.4820   36.9080 C   0  0  0  0  0  3  0  0  0  0  0  0
   33.8130   31.6680   36.8370 C   0  0  0  0  0  3  0  0  0  0  0  0
   32.7000   28.3920   35.2720 H   0  0  0  0  0  0  0  0  0  0  0  0
   32.3090   29.6610   35.6060 S   0  0  0  0  0  0  0  0  0  0  0  0
   31.5810   29.5980   36.9420 O   0  0  0  0  0  0  0  0  0  0  0  0
   31.3190   30.2270   34.6270 O   0  0  0  0  0  0  0  0  0  0  0  0
  1 10  1  0  0  0  0
  2  1  1  0  0  0  0
  2 14  1  0  0  0  0
  3  2  2  0  0  0  0
  4  8  2  0  0  0  0
  4  3  1  0  0  0  0
  5  4  1  0  0  0  0
  6  5  1  0  0  0  0
  6  7  2  0  0  0  0
  7  8  1  0  0  0  0
  8  9  1  0  0  0  0
  9 37  1  0  0  0  0
  9  1  2  0  0  0  0
 11  3  1  0  0  0  0
 12  5  1  0  0  0  0
 13  6  1  0  0  0  0
 14 16  1  0  0  0  0
 14 15  2  0  0  0  0
 16 24  1  0  0  0  0
 17 16  1  0  0  0  0
 18 19  1  0  0  0  0
 19 24  2  0  0  0  0
 19 20  1  0  0  0  0
 20 21  2  0  0  0  0
 21 22  1  0  0  0  0
 21 25  1  0  0  0  0
 22 26  1  0  0  0  0
 23 27  1  0  0  0  0
 23 22  2  0  0  0  0
 24 23  1  0  0  0  0
 28 34  1  0  0  0  0
 28 29  1  0  0  0  0
 29 35  1  0  0  0  0
 30 29  2  0  0  0  0
 30 20  1  0  0  0  0
 31 30  1  0  0  0  0
 32 33  1  0  0  0  0
 32 31  2  0  0  0  0
 33 28  2  0  0  0  0
 36 32  1  0  0  0  0
 37 39  1  0  0  0  0
 38 45  1  0  0  0  0
 39 40  1  0  0  0  0
 39 38  2  0  0  0  0
 40 42  2  0  0  0  0
 41 40  1  0  0  0  0
 42 43  1  0  0  0  0
 42 44  1  0  0  0  0
 45 44  2  0  0  0  0
 46 47  1  0  0  0  0
 47 38  1  0  0  0  0
 47 48  2  0  0  0  0
 49 47  2  0  0  0  0
M  END
>  <minimizedAffinity>
-7.64501619

$$$$

 OpenBabel03272503143D

 49 53  0  0  0  0  0  0  0  0999 V2000
   37.7220   23.6550   33.2190 C   0  0  0  0  0  0  0  0  0  0  0  0
   36.8370   24.0840   32.2570 C   0  0  0  0  0  0  0  0  0  0  0  0
   36.2080   23.2430   31.3930 C   0  0  0  0  0  0  0  0  0  0  0  0
   36.4570   21.8800   31.4670 C   0  0  0  0  0  0  0  0  0  0  0  0
   36.0010   20.8340   30.7710 N   0  0  0  0  0  0  0  0  0  0  0  0
   36.5740   19.7410   31.2660 C   0  0  0  0  0  0  0  0  0  0  0  0
   37.4010   20.0890   32.2840 N   0  0  0  0  0  0  0  0  0  0  0  0
   37.3380   21.4350   32.4230 C   0  0  0  0  0  0  0  0  0  0  0  0
   37.9940   22.2850   33.3210 C   0  0  0  0  0  0  0  0  0  0  0  0
   38.2040   24.3530   33.8900 H   0  0  0  0  0  0  0  0  0  0  0  0
   35.5220   23.6150   30.6500 H   0  0  0  0  0  0  0  0  0  0  0  0
   35.3170   20.8310   29.9750 H   0  0  0  0  0  0  0  0  0  0  0  0
   36.4600   18.7050   30.9690 H   0  0  0  0  0  0  0  0  0  0  0  0
   36.5940   25.5160   32.1990 C   0  0  0  0  0  0  0  0  0  0  0  0
   35.5410   25.9350   31.5980 O   0  0  0  0  0  0  0  0  0  0  0  0
   37.4220   26.5220   32.7520 N   0  0  0  0  0  0  0  0  0  0  0  0
   38.2820   26.2140   33.2440 H   0  0  0  0  0  0  0  0  0  0  0  0
   36.1520   27.8680   34.7350 F   0  0  0  0  0  0  0  0  0  0  0  0
   36.2870   28.5210   33.5580 C   0  0  0  0  0  0  0  0  0  0  0  0
   35.8000   29.7860   33.4130 C   0  0  0  0  0  0  0  0  0  0  0  0
   35.9740   30.3910   32.1860 C   0  0  0  0  0  0  0  0  0  0  0  0
   36.6080   29.7660   31.1370 C   0  0  0  0  0  0  0  0  0  0  0  0
   37.0970   28.4770   31.3100 C   0  0  0  0  0  0  0  0  0  0  0  0
   36.9280   27.8550   32.5390 C   0  0  0  0  0  0  0  0  0  0  0  0
   35.5910   31.3960   32.0580 H   0  0  0  0  0  0  0  0  0  0  0  0
   36.7340   30.2580   30.1850 H   0  0  0  0  0  0  0  0  0  0  0  0
   37.6050   27.9330   30.5200 H   0  0  0  0  0  0  0  0  0  0  0  0
   35.1460   31.8020   36.5460 C   0  0  0  0  0  0  0  0  0  0  0  0
   35.8040   31.2140   35.4480 C   0  0  0  0  0  0  0  0  0  0  0  0
   35.1340   30.4050   34.5580 C   0  0  0  0  0  0  0  0  0  0  0  0
   33.7960   30.1950   34.7860 N   0  0  0  0  0  0  0  0  0  0  0  0
   33.1690   30.7520   35.8290 C   0  0  0  0  0  0  0  0  0  0  0  0
   33.8210   31.5360   36.6880 N   0  0  0  0  0  0  0  0  0  0  0  0
   35.7750   32.4140   37.1700 H   0  0  0  0  0  0  0  0  0  0  0  0
   36.8570   31.3440   35.2190 H   0  0  0  0  0  0  0  0  0  0  0  0
   32.1110   30.5900   36.0150 H   0  0  0  0  0  0  0  0  0  0  0  0
   38.8760   21.8340   34.2760 O   0  0  0  0  0  0  0  0  0  0  0  0
   40.0740   22.4310   36.3940 C   0  0  0  0  0  0  0  0  0  0  0  0
   38.9780   22.2830   35.5710 C   0  0  0  0  0  0  0  0  0  0  0  0
   37.7230   22.6310   36.0790 C   0  0  0  0  0  0  0  0  0  0  0  0
   36.7690   22.5680   35.5470 H   0  0  0  0  0  0  0  0  0  0  0  0
   37.5670   23.1140   37.3720 C   0  0  0  0  0  0  0  0  0  0  0  0
   36.6160   23.3920   37.7960 H   0  0  0  0  0  0  0  0  0  0  0  0
   38.6820   23.2510   38.1730 C   0  0  0  0  0  3  0  0  0  0  0  0
   39.9230   22.9080   37.6780 C   0  0  0  0  0  3  0  0  0  0  0  0
   41.4580   20.8260   34.8780 H   0  0  0  0  0  0  0  0  0  0  0  0
   41.5780   21.9590   35.6370 S   0  0  0  0  0  0  0  0  0  0  0  0
   41.9850   23.1040   34.7190 O   0  0  0  0  0  0  0  0  0  0  0  0
   42.6740   21.8460   36.6580 O   0  0  0  0  0  0  0  0  0  0  0  0
  1  9  1  0  0  0  0
  1 10  1  0  0  0  0
  2  1  2  0  0  0  0
  3  4  2  0  0  0  0
  3  2  1  0  0  0  0
  4  8  1  0  0  0  0
  5  6  1  0  0  0  0
  5  4  1  0  0  0  0
  6  7  2  0  0  0  0
  7  8  1  0  0  0  0
  8  9  2  0  0  0  0
  9 37  1  0  0  0  0
 11  3  1  0  0  0  0
 12  5  1  0  0  0  0
 13  6  1  0  0  0  0
 14  2  1  0  0  0  0
 14 16  1  0  0  0  0
 15 14  2  0  0  0  0
 16 17  1  0  0  0  0
 19 18  1  0  0  0  0
 20 19  1  0  0  0  0
 20 30  1  0  0  0  0
 21 20  2  0  0  0  0
 22 23  2  0  0  0  0
 22 21  1  0  0  0  0
 23 24  1  0  0  0  0
 24 16  1  0  0  0  0
 24 19  2  0  0  0  0
 25 21  1  0  0  0  0
 26 22  1  0  0  0  0
 27 23  1  0  0  0  0
 28 33  1  0  0  0  0
 28 34  1  0  0  0  0
 29 28  2  0  0  0  0
 30 31  2  0  0  0  0
 30 29  1  0  0  0  0
 31 32  1  0  0  0  0
 32 36  1  0  0  0  0
 32 33  2  0  0  0  0
 35 29  1  0  0  0  0
 37 39  1  0  0  0  0
 38 45  1  0  0  0  0
 39 40  1  0  0  0  0
 39 38  2  0  0  0  0
 40 42  2  0  0  0  0
 41 40  1  0  0  0  0
 42 43  1  0  0  0  0
 42 44  1  0  0  0  0
 45 44  2  0  0  0  0
 46 47  1  0  0  0  0
 47 38  1  0  0  0  0
 47 49  2  0  0  0  0
 48 47  2  0  0  0  0
M  END
>  <minimizedAffinity>
-7.41263914

$$$$

 OpenBabel03272503143D

 49 53  0  0  0  0  0  0  0  0999 V2000
   35.3700   28.3150   32.5620 C   0  0  0  0  0  0  0  0  0  0  0  0
   36.2600   28.0950   31.5370 C   0  0  0  0  0  0  0  0  0  0  0  0
   36.5630   29.0320   30.5980 C   0  0  0  0  0  0  0  0  0  0  0  0
   35.9550   30.2770   30.6580 C   0  0  0  0  0  0  0  0  0  0  0  0
   36.0490   31.3720   29.8970 N   0  0  0  0  0  0  0  0  0  0  0  0
   35.2380   32.2900   30.4110 C   0  0  0  0  0  0  0  0  0  0  0  0
   34.6220   31.7810   31.5080 N   0  0  0  0  0  0  0  0  0  0  0  0
   35.0640   30.5130   31.6760 C   0  0  0  0  0  0  0  0  0  0  0  0
   34.7390   29.5620   32.6520 C   0  0  0  0  0  0  0  0  0  0  0  0
   35.1530   27.5460   33.2920 H   0  0  0  0  0  0  0  0  0  0  0  0
   37.2660   28.8230   29.8080 H   0  0  0  0  0  0  0  0  0  0  0  0
   36.6410   31.5200   29.0430 H   0  0  0  0  0  0  0  0  0  0  0  0
   35.0380   33.3020   30.0780 H   0  0  0  0  0  0  0  0  0  0  0  0
   36.8830   26.7820   31.4960 C   0  0  0  0  0  0  0  0  0  0  0  0
   37.5670   26.3970   32.5120 O   0  0  0  0  0  0  0  0  0  0  0  0
   36.8130   25.8620   30.4240 N   0  0  0  0  0  0  0  0  0  0  0  0
   36.2670   26.1450   29.5880 H   0  0  0  0  0  0  0  0  0  0  0  0
   35.5430   23.6800   31.4160 F   0  0  0  0  0  0  0  0  0  0  0  0
   36.8670   23.5430   31.1690 C   0  0  0  0  0  0  0  0  0  0  0  0
   37.4950   22.3590   31.4170 C   0  0  0  0  0  0  0  0  0  0  0  0
   38.8440   22.2920   31.1410 C   0  0  0  0  0  0  0  0  0  0  0  0
   39.5500   23.3610   30.6380 C   0  0  0  0  0  0  0  0  0  0  0  0
   38.8870   24.5570   30.3930 C   0  0  0  0  0  0  0  0  0  0  0  0
   37.5290   24.6390   30.6660 C   0  0  0  0  0  0  0  0  0  0  0  0
   39.3550   21.3560   31.3350 H   0  0  0  0  0  0  0  0  0  0  0  0
   40.6050   23.2860   30.4300 H   0  0  0  0  0  0  0  0  0  0  0  0
   39.3890   25.4340   29.9980 H   0  0  0  0  0  0  0  0  0  0  0  0
   35.4900   19.1640   31.6940 C   0  0  0  0  0  0  0  0  0  0  0  0
   36.2550   20.2200   31.1620 C   0  0  0  0  0  0  0  0  0  0  0  0
   36.7000   21.2540   31.9520 C   0  0  0  0  0  0  0  0  0  0  0  0
   36.3660   21.2140   33.2840 N   0  0  0  0  0  0  0  0  0  0  0  0
   35.6380   20.2130   33.7930 C   0  0  0  0  0  0  0  0  0  0  0  0
   35.2100   19.2120   33.0230 N   0  0  0  0  0  0  0  0  0  0  0  0
   35.2010   18.4130   30.9780 H   0  0  0  0  0  0  0  0  0  0  0  0
   36.5480   20.3030   30.1190 H   0  0  0  0  0  0  0  0  0  0  0  0
   35.3710   20.1750   34.8440 H   0  0  0  0  0  0  0  0  0  0  0  0
   33.8460   29.8030   33.6700 O   0  0  0  0  0  0  0  0  0  0  0  0
   33.2240   30.9590   35.8030 C   0  0  0  0  0  0  0  0  0  0  0  0
   34.0760   30.5510   34.7990 C   0  0  0  0  0  0  0  0  0  0  0  0
   35.4190   30.9270   34.8830 C   0  0  0  0  0  0  0  0  0  0  0  0
   36.2070   30.6790   34.1650 H   0  0  0  0  0  0  0  0  0  0  0  0
   35.8990   31.6910   35.9390 C   0  0  0  0  0  0  0  0  0  0  0  0
   36.9270   31.9990   36.0360 H   0  0  0  0  0  0  0  0  0  0  0  0
   35.0230   32.0870   36.9300 C   0  0  0  0  0  3  0  0  0  0  0  0
   33.6960   31.7180   36.8520 C   0  0  0  0  0  3  0  0  0  0  0  0
   31.2270   30.3250   34.2560 H   0  0  0  0  0  0  0  0  0  0  0  0
   31.5760   30.4220   35.5760 S   0  0  0  0  0  0  0  0  0  0  0  0
   31.4770   29.0350   36.1960 O   0  0  0  0  0  0  0  0  0  0  0  0
   30.6230   31.2860   36.3530 O   0  0  0  0  0  0  0  0  0  0  0  0
  1  9  1  0  0  0  0
  1 10  1  0  0  0  0
  2  1  2  0  0  0  0
  3  4  2  0  0  0  0
  3  2  1  0  0  0  0
  4  8  1  0  0  0  0
  5  6  1  0  0  0  0
  5  4  1  0  0  0  0
  6  7  2  0  0  0  0
  7  8  1  0  0  0  0
  8  9  2  0  0  0  0
  9 37  1  0  0  0  0
 11  3  1  0  0  0  0
 12  5  1  0  0  0  0
 13  6  1  0  0  0  0
 14  2  1  0  0  0  0
 14 15  2  0  0  0  0
 16 24  1  0  0  0  0
 16 14  1  0  0  0  0
 17 16  1  0  0  0  0
 19 18  1  0  0  0  0
 19 20  1  0  0  0  0
 20 30  1  0  0  0  0
 21 25  1  0  0  0  0
 21 20  2  0  0  0  0
 22 21  1  0  0  0  0
 23 22  2  0  0  0  0
 23 24  1  0  0  0  0
 24 19  2  0  0  0  0
 26 22  1  0  0  0  0
 27 23  1  0  0  0  0
 28 33  1  0  0  0  0
 29 28  2  0  0  0  0
 29 30  1  0  0  0  0
 30 31  2  0  0  0  0
 31 32  1  0  0  0  0
 32 36  1  0  0  0  0
 33 32  2  0  0  0  0
 34 28  1  0  0  0  0
 35 29  1  0  0  0  0
 37 39  1  0  0  0  0
 38 45  1  0  0  0  0
 39 40  1  0  0  0  0
 39 38  2  0  0  0  0
 40 42  2  0  0  0  0
 41 40  1  0  0  0  0
 42 43  1  0  0  0  0
 42 44  1  0  0  0  0
 45 44  2  0  0  0  0
 46 47  1  0  0  0  0
 47 38  1  0  0  0  0
 47 48  2  0  0  0  0
 47 49  2  0  0  0  0
M  END
>  <minimizedAffinity>
-6.890203

$$$$

 OpenBabel03272503143D

 49 53  0  0  0  0  0  0  0  0999 V2000
   37.4460   23.6110   33.2730 C   0  0  0  0  0  0  0  0  0  0  0  0
   36.7140   24.0810   32.2070 C   0  0  0  0  0  0  0  0  0  0  0  0
   36.2080   23.2740   31.2360 C   0  0  0  0  0  0  0  0  0  0  0  0
   36.4300   21.9070   31.3030 C   0  0  0  0  0  0  0  0  0  0  0  0
   36.0690   20.8880   30.5170 N   0  0  0  0  0  0  0  0  0  0  0  0
   36.5530   19.7730   31.0550 C   0  0  0  0  0  0  0  0  0  0  0  0
   37.2270   20.0790   32.1920 N   0  0  0  0  0  0  0  0  0  0  0  0
   37.1580   21.4210   32.3620 C   0  0  0  0  0  0  0  0  0  0  0  0
   37.6860   22.2350   33.3710 C   0  0  0  0  0  0  0  0  0  0  0  0
   37.8320   24.2820   34.0280 H   0  0  0  0  0  0  0  0  0  0  0  0
   35.6400   23.6780   30.4130 H   0  0  0  0  0  0  0  0  0  0  0  0
   35.5080   20.9180   29.6300 H   0  0  0  0  0  0  0  0  0  0  0  0
   36.4720   18.7470   30.7130 H   0  0  0  0  0  0  0  0  0  0  0  0
   36.4970   25.5180   32.1590 C   0  0  0  0  0  0  0  0  0  0  0  0
   35.4420   25.9580   31.5770 O   0  0  0  0  0  0  0  0  0  0  0  0
   37.3520   26.5060   32.7020 N   0  0  0  0  0  0  0  0  0  0  0  0
   38.2130   26.1800   33.1800 H   0  0  0  0  0  0  0  0  0  0  0  0
   36.1090   27.8540   34.7010 F   0  0  0  0  0  0  0  0  0  0  0  0
   36.2510   28.5160   33.5290 C   0  0  0  0  0  0  0  0  0  0  0  0
   35.7840   29.7890   33.3970 C   0  0  0  0  0  0  0  0  0  0  0  0
   35.9660   30.4030   32.1750 C   0  0  0  0  0  0  0  0  0  0  0  0
   36.5870   29.7770   31.1190 C   0  0  0  0  0  0  0  0  0  0  0  0
   37.0550   28.4780   31.2790 C   0  0  0  0  0  0  0  0  0  0  0  0
   36.8790   27.8480   32.5030 C   0  0  0  0  0  0  0  0  0  0  0  0
   35.5980   31.4150   32.0570 H   0  0  0  0  0  0  0  0  0  0  0  0
   36.7180   30.2760   30.1720 H   0  0  0  0  0  0  0  0  0  0  0  0
   37.5520   27.9330   30.4830 H   0  0  0  0  0  0  0  0  0  0  0  0
   35.1710   31.7900   36.5470 C   0  0  0  0  0  0  0  0  0  0  0  0
   35.8160   31.2020   35.4420 C   0  0  0  0  0  0  0  0  0  0  0  0
   35.1320   30.4090   34.5490 C   0  0  0  0  0  0  0  0  0  0  0  0
   33.7920   30.2150   34.7820 N   0  0  0  0  0  0  0  0  0  0  0  0
   33.1760   30.7730   35.8310 C   0  0  0  0  0  0  0  0  0  0  0  0
   33.8430   31.5410   36.6930 N   0  0  0  0  0  0  0  0  0  0  0  0
   35.8100   32.3890   37.1740 H   0  0  0  0  0  0  0  0  0  0  0  0
   36.8700   31.3200   35.2100 H   0  0  0  0  0  0  0  0  0  0  0  0
   32.1180   30.6240   36.0200 H   0  0  0  0  0  0  0  0  0  0  0  0
   38.4150   21.7440   34.4300 O   0  0  0  0  0  0  0  0  0  0  0  0
   39.9690   22.9200   36.0040 C   0  0  0  0  0  0  0  0  0  0  0  0
   39.6290   22.2100   34.8720 C   0  0  0  0  0  0  0  0  0  0  0  0
   40.6500   21.8730   33.9780 C   0  0  0  0  0  0  0  0  0  0  0  0
   40.5330   21.3150   33.0430 H   0  0  0  0  0  0  0  0  0  0  0  0
   41.9710   22.2350   34.2070 C   0  0  0  0  0  0  0  0  0  0  0  0
   42.7820   21.9920   33.5390 H   0  0  0  0  0  0  0  0  0  0  0  0
   42.2810   22.9460   35.3480 C   0  0  0  0  0  3  0  0  0  0  0  0
   41.2780   23.2820   36.2340 C   0  0  0  0  0  3  0  0  0  0  0  0
   37.6120   22.3340   36.9480 H   0  0  0  0  0  0  0  0  0  0  0  0
   38.6020   23.2760   37.0350 S   0  0  0  0  0  0  0  0  0  0  0  0
   39.1230   23.2870   38.4650 O   0  0  0  0  0  0  0  0  0  0  0  0
   38.0890   24.6650   36.7770 O   0  0  0  0  0  0  0  0  0  0  0  0
  1  9  1  0  0  0  0
  1 10  1  0  0  0  0
  2  1  2  0  0  0  0
  3  4  2  0  0  0  0
  3  2  1  0  0  0  0
  4  8  1  0  0  0  0
  5  6  1  0  0  0  0
  5  4  1  0  0  0  0
  6  7  2  0  0  0  0
  7  8  1  0  0  0  0
  8  9  2  0  0  0  0
  9 37  1  0  0  0  0
 11  3  1  0  0  0  0
 12  5  1  0  0  0  0
 13  6  1  0  0  0  0
 14  2  1  0  0  0  0
 14 16  1  0  0  0  0
 15 14  2  0  0  0  0
 16 17  1  0  0  0  0
 19 18  1  0  0  0  0
 20 19  1  0  0  0  0
 20 30  1  0  0  0  0
 21 20  2  0  0  0  0
 22 23  2  0  0  0  0
 22 21  1  0  0  0  0
 23 24  1  0  0  0  0
 24 16  1  0  0  0  0
 24 19  2  0  0  0  0
 25 21  1  0  0  0  0
 26 22  1  0  0  0  0
 27 23  1  0  0  0  0
 28 33  1  0  0  0  0
 28 34  1  0  0  0  0
 29 28  2  0  0  0  0
 30 31  2  0  0  0  0
 30 29  1  0  0  0  0
 31 32  1  0  0  0  0
 32 36  1  0  0  0  0
 32 33  2  0  0  0  0
 35 29  1  0  0  0  0
 37 39  1  0  0  0  0
 38 45  1  0  0  0  0
 38 47  1  0  0  0  0
 39 38  2  0  0  0  0
 40 42  2  0  0  0  0
 40 39  1  0  0  0  0
 41 40  1  0  0  0  0
 42 44  1  0  0  0  0
 43 42  1  0  0  0  0
 44 45  2  0  0  0  0
 46 47  1  0  0  0  0
 47 48  2  0  0  0  0
 49 47  2  0  0  0  0
M  END
>  <minimizedAffinity>
-6.8727107

$$$$

 OpenBabel03272503143D

 49 53  0  0  0  0  0  0  0  0999 V2000
   34.5690   29.1350   32.7010 C   0  0  0  0  0  0  0  0  0  0  0  0
   35.7170   28.8990   31.9790 C   0  0  0  0  0  0  0  0  0  0  0  0
   36.1940   29.7540   31.0350 C   0  0  0  0  0  0  0  0  0  0  0  0
   35.5050   30.9280   30.7700 C   0  0  0  0  0  0  0  0  0  0  0  0
   35.7230   31.9380   29.9210 N   0  0  0  0  0  0  0  0  0  0  0  0
   34.7400   32.8170   30.0800 C   0  0  0  0  0  0  0  0  0  0  0  0
   33.8880   32.3700   31.0380 N   0  0  0  0  0  0  0  0  0  0  0  0
   34.3580   31.1800   31.4820 C   0  0  0  0  0  0  0  0  0  0  0  0
   33.8510   30.3120   32.4580 C   0  0  0  0  0  0  0  0  0  0  0  0
   34.2200   28.4330   33.4450 H   0  0  0  0  0  0  0  0  0  0  0  0
   37.0970   29.5350   30.4880 H   0  0  0  0  0  0  0  0  0  0  0  0
   36.5110   32.0530   29.2370 H   0  0  0  0  0  0  0  0  0  0  0  0
   34.5660   33.7610   29.5760 H   0  0  0  0  0  0  0  0  0  0  0  0
   36.4200   27.6610   32.2760 C   0  0  0  0  0  0  0  0  0  0  0  0
   35.7990   26.5510   32.1090 O   0  0  0  0  0  0  0  0  0  0  0  0
   37.7510   27.5530   32.7420 N   0  0  0  0  0  0  0  0  0  0  0  0
   38.2790   28.4350   32.8860 H   0  0  0  0  0  0  0  0  0  0  0  0
   37.9730   26.5310   35.2440 F   0  0  0  0  0  0  0  0  0  0  0  0
   38.2860   25.6960   34.2260 C   0  0  0  0  0  0  0  0  0  0  0  0
   38.6860   24.4190   34.4810 C   0  0  0  0  0  0  0  0  0  0  0  0
   38.9870   23.6240   33.3940 C   0  0  0  0  0  0  0  0  0  0  0  0
   38.8970   24.0790   32.0980 C   0  0  0  0  0  0  0  0  0  0  0  0
   38.4860   25.3860   31.8650 C   0  0  0  0  0  0  0  0  0  0  0  0
   38.1800   26.1970   32.9480 C   0  0  0  0  0  0  0  0  0  0  0  0
   39.3070   22.6070   33.5830 H   0  0  0  0  0  0  0  0  0  0  0  0
   39.1380   23.4410   31.2630 H   0  0  0  0  0  0  0  0  0  0  0  0
   38.3960   25.8010   30.8660 H   0  0  0  0  0  0  0  0  0  0  0  0
   37.8360   23.7720   38.1090 C   0  0  0  0  0  0  0  0  0  0  0  0
   37.7410   24.1960   36.7690 C   0  0  0  0  0  0  0  0  0  0  0  0
   38.7650   23.9850   35.8750 C   0  0  0  0  0  0  0  0  0  0  0  0
   39.8850   23.3420   36.3440 N   0  0  0  0  0  0  0  0  0  0  0  0
   39.9770   22.9370   37.6170 C   0  0  0  0  0  0  0  0  0  0  0  0
   38.9820   23.1440   38.4790 N   0  0  0  0  0  0  0  0  0  0  0  0
   36.9720   23.9930   38.7120 H   0  0  0  0  0  0  0  0  0  0  0  0
   36.8830   24.7090   36.3450 H   0  0  0  0  0  0  0  0  0  0  0  0
   40.8590   22.4280   37.9930 H   0  0  0  0  0  0  0  0  0  0  0  0
   32.7010   30.5690   33.1680 O   0  0  0  0  0  0  0  0  0  0  0  0
   32.3850   29.9880   35.5840 C   0  0  0  0  0  0  0  0  0  0  0  0
   32.2130   29.8390   34.2250 C   0  0  0  0  0  0  0  0  0  0  0  0
   31.4160   28.7820   33.7750 C   0  0  0  0  0  0  0  0  0  0  0  0
   31.1900   28.5400   32.7320 H   0  0  0  0  0  0  0  0  0  0  0  0
   30.8080   27.9000   34.6580 C   0  0  0  0  0  0  0  0  0  0  0  0
   30.1870   27.0750   34.3480 H   0  0  0  0  0  0  0  0  0  0  0  0
   30.9980   28.0730   36.0140 C   0  0  0  0  0  3  0  0  0  0  0  0
   31.7840   29.1140   36.4640 C   0  0  0  0  0  3  0  0  0  0  0  0
   33.0250   32.5060   35.3900 H   0  0  0  0  0  0  0  0  0  0  0  0
   33.4030   31.3450   36.0100 S   0  0  0  0  0  0  0  0  0  0  0  0
   33.2640   31.5420   37.5130 O   0  0  0  0  0  0  0  0  0  0  0  0
   34.8500   31.0190   35.7730 O   0  0  0  0  0  0  0  0  0  0  0  0
  1 10  1  0  0  0  0
  2 14  1  0  0  0  0
  2  1  2  0  0  0  0
  3  2  1  0  0  0  0
  4  3  2  0  0  0  0
  4  8  1  0  0  0  0
  5  6  1  0  0  0  0
  5  4  1  0  0  0  0
  6  7  2  0  0  0  0
  7  8  1  0  0  0  0
  8  9  2  0  0  0  0
  9  1  1  0  0  0  0
  9 37  1  0  0  0  0
 11  3  1  0  0  0  0
 12  5  1  0  0  0  0
 13  6  1  0  0  0  0
 14 16  1  0  0  0  0
 15 14  2  0  0  0  0
 16 17  1  0  0  0  0
 16 24  1  0  0  0  0
 19 20  1  0  0  0  0
 19 18  1  0  0  0  0
 20 30  1  0  0  0  0
 21 25  1  0  0  0  0
 21 20  2  0  0  0  0
 22 21  1  0  0  0  0
 23 22  2  0  0  0  0
 23 24  1  0  0  0  0
 24 19  2  0  0  0  0
 26 22  1  0  0  0  0
 27 23  1  0  0  0  0
 28 33  1  0  0  0  0
 28 34  1  0  0  0  0
 29 28  2  0  0  0  0
 30 31  2  0  0  0  0
 30 29  1  0  0  0  0
 31 32  1  0  0  0  0
 32 36  1  0  0  0  0
 32 33  2  0  0  0  0
 35 29  1  0  0  0  0
 37 39  1  0  0  0  0
 38 47  1  0  0  0  0
 38 45  1  0  0  0  0
 39 38  2  0  0  0  0
 40 39  1  0  0  0  0
 40 42  2  0  0  0  0
 41 40  1  0  0  0  0
 42 44  1  0  0  0  0
 43 42  1  0  0  0  0
 44 45  2  0  0  0  0
 46 47  1  0  0  0  0
 47 48  2  0  0  0  0
 49 47  2  0  0  0  0
M  END
>  <minimizedAffinity>
-6.64655495

$$$$

 OpenBabel03272503143D

 49 53  0  0  0  0  0  0  0  0999 V2000
   37.6950   24.5230   33.0020 C   0  0  0  0  0  0  0  0  0  0  0  0
   37.4960   25.1900   31.8150 C   0  0  0  0  0  0  0  0  0  0  0  0
   37.9140   24.7140   30.6120 C   0  0  0  0  0  0  0  0  0  0  0  0
   38.5770   23.4970   30.5550 C   0  0  0  0  0  0  0  0  0  0  0  0
   39.0930   22.7890   29.5450 N   0  0  0  0  0  0  0  0  0  0  0  0
   39.6200   21.6820   30.0570 C   0  0  0  0  0  0  0  0  0  0  0  0
   39.4390   21.6790   31.4020 N   0  0  0  0  0  0  0  0  0  0  0  0
   38.7830   22.8170   31.7310 C   0  0  0  0  0  0  0  0  0  0  0  0
   38.3600   23.2910   32.9790 C   0  0  0  0  0  0  0  0  0  0  0  0
   37.3480   24.9320   33.9410 H   0  0  0  0  0  0  0  0  0  0  0  0
   37.7420   25.2650   29.7020 H   0  0  0  0  0  0  0  0  0  0  0  0
   39.1030   23.0280   28.5230 H   0  0  0  0  0  0  0  0  0  0  0  0
   40.1270   20.8620   29.5610 H   0  0  0  0  0  0  0  0  0  0  0  0
   36.8000   26.4640   31.9020 C   0  0  0  0  0  0  0  0  0  0  0  0
   35.5980   26.5360   31.4600 O   0  0  0  0  0  0  0  0  0  0  0  0
   37.3260   27.6640   32.4370 N   0  0  0  0  0  0  0  0  0  0  0  0
   38.2970   27.6370   32.8020 H   0  0  0  0  0  0  0  0  0  0  0  0
   36.0780   28.5290   34.6840 F   0  0  0  0  0  0  0  0  0  0  0  0
   35.7830   29.1910   33.5410 C   0  0  0  0  0  0  0  0  0  0  0  0
   34.9030   30.2320   33.5560 C   0  0  0  0  0  0  0  0  0  0  0  0
   34.6510   30.8610   32.3550 C   0  0  0  0  0  0  0  0  0  0  0  0
   35.2490   30.4740   31.1780 C   0  0  0  0  0  0  0  0  0  0  0  0
   36.1430   29.4100   31.1890 C   0  0  0  0  0  0  0  0  0  0  0  0
   36.4060   28.7670   32.3900 C   0  0  0  0  0  0  0  0  0  0  0  0
   33.9530   31.6890   32.3540 H   0  0  0  0  0  0  0  0  0  0  0  0
   35.0370   30.9800   30.2500 H   0  0  0  0  0  0  0  0  0  0  0  0
   36.6450   29.0580   30.2930 H   0  0  0  0  0  0  0  0  0  0  0  0
   32.5100   30.4720   36.4750 C   0  0  0  0  0  0  0  0  0  0  0  0
   33.0810   30.1020   35.2420 C   0  0  0  0  0  0  0  0  0  0  0  0
   34.2950   30.6040   34.8330 C   0  0  0  0  0  0  0  0  0  0  0  0
   34.9270   31.4820   35.6790 N   0  0  0  0  0  0  0  0  0  0  0  0
   34.3870   31.8360   36.8510 C   0  0  0  0  0  0  0  0  0  0  0  0
   33.2110   31.3470   37.2440 N   0  0  0  0  0  0  0  0  0  0  0  0
   31.5580   30.0130   36.6850 H   0  0  0  0  0  0  0  0  0  0  0  0
   32.6260   29.4140   34.5350 H   0  0  0  0  0  0  0  0  0  0  0  0
   34.8820   32.5300   37.5240 H   0  0  0  0  0  0  0  0  0  0  0  0
   38.5690   22.6070   34.1540 O   0  0  0  0  0  0  0  0  0  0  0  0
   37.3860   22.3830   36.3500 C   0  0  0  0  0  0  0  0  0  0  0  0
   37.6020   22.1400   35.0110 C   0  0  0  0  0  0  0  0  0  0  0  0
   36.7210   21.2800   34.3480 C   0  0  0  0  0  0  0  0  0  0  0  0
   36.7660   20.9940   33.2930 H   0  0  0  0  0  0  0  0  0  0  0  0
   35.6550   20.6790   35.0060 C   0  0  0  0  0  0  0  0  0  0  0  0
   34.9570   20.0110   34.5270 H   0  0  0  0  0  0  0  0  0  0  0  0
   35.4640   20.9400   36.3470 C   0  0  0  0  0  3  0  0  0  0  0  0
   36.3300   21.7870   37.0060 C   0  0  0  0  0  3  0  0  0  0  0  0
   38.9650   24.4480   36.1850 H   0  0  0  0  0  0  0  0  0  0  0  0
   38.5570   23.4730   37.0550 S   0  0  0  0  0  0  0  0  0  0  0  0
   37.8740   24.1470   38.2370 O   0  0  0  0  0  0  0  0  0  0  0  0
   39.7140   22.7090   37.6340 O   0  0  0  0  0  0  0  0  0  0  0  0
  1 10  1  0  0  0  0
  2 14  1  0  0  0  0
  2  1  2  0  0  0  0
  3  2  1  0  0  0  0
  4  3  2  0  0  0  0
  4  8  1  0  0  0  0
  5  6  1  0  0  0  0
  5  4  1  0  0  0  0
  6  7  2  0  0  0  0
  7  8  1  0  0  0  0
  8  9  2  0  0  0  0
  9  1  1  0  0  0  0
  9 37  1  0  0  0  0
 11  3  1  0  0  0  0
 12  5  1  0  0  0  0
 13  6  1  0  0  0  0
 14 16  1  0  0  0  0
 15 14  2  0  0  0  0
 16 17  1  0  0  0  0
 19 20  1  0  0  0  0
 19 18  1  0  0  0  0
 20 30  1  0  0  0  0
 21 20  2  0  0  0  0
 22 23  2  0  0  0  0
 22 21  1  0  0  0  0
 23 24  1  0  0  0  0
 24 16  1  0  0  0  0
 24 19  2  0  0  0  0
 25 21  1  0  0  0  0
 26 22  1  0  0  0  0
 27 23  1  0  0  0  0
 28 34  1  0  0  0  0
 28 33  1  0  0  0  0
 29 28  2  0  0  0  0
 30 29  1  0  0  0  0
 30 31  2  0  0  0  0
 31 32  1  0  0  0  0
 32 33  2  0  0  0  0
 32 36  1  0  0  0  0
 35 29  1  0  0  0  0
 37 39  1  0  0  0  0
 38 45  1  0  0  0  0
 38 47  1  0  0  0  0
 39 38  2  0  0  0  0
 40 42  2  0  0  0  0
 40 39  1  0  0  0  0
 41 40  1  0  0  0  0
 42 44  1  0  0  0  0
 43 42  1  0  0  0  0
 44 45  2  0  0  0  0
 46 47  1  0  0  0  0
 47 49  2  0  0  0  0
 47 48  2  0  0  0  0
M  END
>  <minimizedAffinity>
-6.63830948

$$$$

 OpenBabel03272503143D

 49 53  0  0  0  0  0  0  0  0999 V2000
   36.6250   28.4700   31.9100 C   0  0  0  0  0  0  0  0  0  0  0  0
   36.2030   29.7750   32.0150 C   0  0  0  0  0  0  0  0  0  0  0  0
   36.3580   30.6930   31.0240 C   0  0  0  0  0  0  0  0  0  0  0  0
   36.9710   30.3150   29.8380 C   0  0  0  0  0  0  0  0  0  0  0  0
   37.2580   30.9770   28.7120 N   0  0  0  0  0  0  0  0  0  0  0  0
   37.8550   30.1260   27.8860 C   0  0  0  0  0  0  0  0  0  0  0  0
   37.9510   28.9110   28.4840 N   0  0  0  0  0  0  0  0  0  0  0  0
   37.3980   29.0150   29.7160 C   0  0  0  0  0  0  0  0  0  0  0  0
   37.2460   28.0570   30.7260 C   0  0  0  0  0  0  0  0  0  0  0  0
   36.4840   27.7670   32.7200 H   0  0  0  0  0  0  0  0  0  0  0  0
   36.0160   31.7080   31.1430 H   0  0  0  0  0  0  0  0  0  0  0  0
   37.0650   31.9830   28.4830 H   0  0  0  0  0  0  0  0  0  0  0  0
   38.2350   30.2840   26.8830 H   0  0  0  0  0  0  0  0  0  0  0  0
   35.5640   30.1450   33.2680 C   0  0  0  0  0  0  0  0  0  0  0  0
   35.8520   29.4740   34.3230 O   0  0  0  0  0  0  0  0  0  0  0  0
   34.6340   31.1960   33.4480 N   0  0  0  0  0  0  0  0  0  0  0  0
   34.3820   31.7570   32.6130 H   0  0  0  0  0  0  0  0  0  0  0  0
   32.4080   29.8930   34.2880 F   0  0  0  0  0  0  0  0  0  0  0  0
   33.0380   30.6580   35.2090 C   0  0  0  0  0  0  0  0  0  0  0  0
   32.5530   30.7460   36.4800 C   0  0  0  0  0  0  0  0  0  0  0  0
   33.2470   31.5430   37.3660 C   0  0  0  0  0  0  0  0  0  0  0  0
   34.3830   32.2320   37.0060 C   0  0  0  0  0  0  0  0  0  0  0  0
   34.8580   32.1260   35.7040 C   0  0  0  0  0  0  0  0  0  0  0  0
   34.1690   31.3280   34.8020 C   0  0  0  0  0  0  0  0  0  0  0  0
   32.8710   31.6210   38.3780 H   0  0  0  0  0  0  0  0  0  0  0  0
   34.9100   32.8500   37.7150 H   0  0  0  0  0  0  0  0  0  0  0  0
   35.7470   32.6460   35.3620 H   0  0  0  0  0  0  0  0  0  0  0  0
   30.2130   28.0460   37.7200 C   0  0  0  0  0  0  0  0  0  0  0  0
   31.3890   28.7560   37.4090 C   0  0  0  0  0  0  0  0  0  0  0  0
   31.3430   29.9940   36.8100 C   0  0  0  0  0  0  0  0  0  0  0  0
   30.1020   30.5090   36.5280 N   0  0  0  0  0  0  0  0  0  0  0  0
   28.9820   29.8360   36.8220 C   0  0  0  0  0  0  0  0  0  0  0  0
   29.0310   28.6370   37.4030 N   0  0  0  0  0  0  0  0  0  0  0  0
   30.3760   27.0890   38.1860 H   0  0  0  0  0  0  0  0  0  0  0  0
   32.3950   28.3990   37.6080 H   0  0  0  0  0  0  0  0  0  0  0  0
   27.9980   30.2380   36.6010 H   0  0  0  0  0  0  0  0  0  0  0  0
   37.6760   26.7560   30.5980 O   0  0  0  0  0  0  0  0  0  0  0  0
   37.4020   24.7380   32.0570 C   0  0  0  0  0  0  0  0  0  0  0  0
   38.0030   25.8990   31.6210 C   0  0  0  0  0  0  0  0  0  0  0  0
   39.1480   26.3380   32.2920 C   0  0  0  0  0  0  0  0  0  0  0  0
   39.7300   27.2360   32.0620 H   0  0  0  0  0  0  0  0  0  0  0  0
   39.6780   25.6370   33.3680 C   0  0  0  0  0  0  0  0  0  0  0  0
   40.5580   25.9450   33.9090 H   0  0  0  0  0  0  0  0  0  0  0  0
   39.0540   24.4780   33.7830 C   0  0  0  0  0  3  0  0  0  0  0  0
   37.9230   24.0400   33.1250 C   0  0  0  0  0  3  0  0  0  0  0  0
   36.2570   24.0790   29.8110 H   0  0  0  0  0  0  0  0  0  0  0  0
   35.9820   24.3040   31.1330 S   0  0  0  0  0  0  0  0  0  0  0  0
   35.4470   23.0110   31.7340 O   0  0  0  0  0  0  0  0  0  0  0  0
   34.8930   25.3220   31.3210 O   0  0  0  0  0  0  0  0  0  0  0  0
  1  2  1  0  0  0  0
  1 10  1  0  0  0  0
  2 14  1  0  0  0  0
  3 11  1  0  0  0  0
  3  2  2  0  0  0  0
  4  3  1  0  0  0  0
  5  4  1  0  0  0  0
  6  7  2  0  0  0  0
  6  5  1  0  0  0  0
  7  8  1  0  0  0  0
  8  4  2  0  0  0  0
  8  9  1  0  0  0  0
  9  1  2  0  0  0  0
 12  5  1  0  0  0  0
 13  6  1  0  0  0  0
 14 16  1  0  0  0  0
 14 15  2  0  0  0  0
 16 24  1  0  0  0  0
 17 16  1  0  0  0  0
 18 19  1  0  0  0  0
 19 20  1  0  0  0  0
 20 30  1  0  0  0  0
 20 21  2  0  0  0  0
 21 25  1  0  0  0  0
 22 21  1  0  0  0  0
 22 26  1  0  0  0  0
 23 22  2  0  0  0  0
 24 19  2  0  0  0  0
 24 23  1  0  0  0  0
 27 23  1  0  0  0  0
 28 34  1  0  0  0  0
 29 35  1  0  0  0  0
 29 28  1  0  0  0  0
 30 29  2  0  0  0  0
 31 30  1  0  0  0  0
 31 32  2  0  0  0  0
 32 33  1  0  0  0  0
 33 28  2  0  0  0  0
 36 32  1  0  0  0  0
 37  9  1  0  0  0  0
 37 39  1  0  0  0  0
 38 45  1  0  0  0  0
 39 38  2  0  0  0  0
 39 40  1  0  0  0  0
 40 42  2  0  0  0  0
 41 40  1  0  0  0  0
 42 44  1  0  0  0  0
 42 43  1  0  0  0  0
 45 44  2  0  0  0  0
 46 47  1  0  0  0  0
 47 49  2  0  0  0  0
 47 48  2  0  0  0  0
 47 38  1  0  0  0  0
M  END
>  <minimizedAffinity>
-6.63636017

$$$$

 OpenBabel03272503143D

 49 53  0  0  0  0  0  0  0  0999 V2000
   37.6210   25.7150   33.5990 C   0  0  0  0  0  0  0  0  0  0  0  0
   37.3150   26.8940   32.9590 C   0  0  0  0  0  0  0  0  0  0  0  0
   37.6380   27.1460   31.6630 C   0  0  0  0  0  0  0  0  0  0  0  0
   38.3110   26.1790   30.9300 C   0  0  0  0  0  0  0  0  0  0  0  0
   38.7530   26.1380   29.6680 N   0  0  0  0  0  0  0  0  0  0  0  0
   39.3360   24.9590   29.4840 C   0  0  0  0  0  0  0  0  0  0  0  0
   39.2670   24.2390   30.6330 N   0  0  0  0  0  0  0  0  0  0  0  0
   38.6240   24.9960   31.5530 C   0  0  0  0  0  0  0  0  0  0  0  0
   38.2990   24.7190   32.8870 C   0  0  0  0  0  0  0  0  0  0  0  0
   37.3470   25.5500   34.6320 H   0  0  0  0  0  0  0  0  0  0  0  0
   37.3830   28.0830   31.1950 H   0  0  0  0  0  0  0  0  0  0  0  0
   38.6740   26.8790   28.9290 H   0  0  0  0  0  0  0  0  0  0  0  0
   39.8120   24.5520   28.5990 H   0  0  0  0  0  0  0  0  0  0  0  0
   36.6100   27.8910   33.7500 C   0  0  0  0  0  0  0  0  0  0  0  0
   36.5100   27.7080   35.0160 O   0  0  0  0  0  0  0  0  0  0  0  0
   36.0070   29.0710   33.2540 N   0  0  0  0  0  0  0  0  0  0  0  0
   36.0710   29.2450   32.2330 H   0  0  0  0  0  0  0  0  0  0  0  0
   33.3330   28.9280   33.6820 F   0  0  0  0  0  0  0  0  0  0  0  0
   34.0220   29.7820   34.4740 C   0  0  0  0  0  0  0  0  0  0  0  0
   33.3760   30.5140   35.4250 C   0  0  0  0  0  0  0  0  0  0  0  0
   34.1420   31.3630   36.1960 C   0  0  0  0  0  0  0  0  0  0  0  0
   35.5030   31.4850   36.0310 C   0  0  0  0  0  0  0  0  0  0  0  0
   36.1390   30.7270   35.0550 C   0  0  0  0  0  0  0  0  0  0  0  0
   35.3800   29.8690   34.2710 C   0  0  0  0  0  0  0  0  0  0  0  0
   33.6400   31.9500   36.9550 H   0  0  0  0  0  0  0  0  0  0  0  0
   36.0830   32.1550   36.6450 H   0  0  0  0  0  0  0  0  0  0  0  0
   37.2080   30.7800   34.8770 H   0  0  0  0  0  0  0  0  0  0  0  0
   29.9720   29.4310   36.6680 C   0  0  0  0  0  0  0  0  0  0  0  0
   31.3680   29.5800   36.5540 C   0  0  0  0  0  0  0  0  0  0  0  0
   31.9290   30.3480   35.5590 C   0  0  0  0  0  0  0  0  0  0  0  0
   31.0700   30.9620   34.6810 N   0  0  0  0  0  0  0  0  0  0  0  0
   29.7430   30.8220   34.7860 C   0  0  0  0  0  0  0  0  0  0  0  0
   29.2040   30.0780   35.7520 N   0  0  0  0  0  0  0  0  0  0  0  0
   29.6520   28.8080   37.4860 H   0  0  0  0  0  0  0  0  0  0  0  0
   32.0920   29.1190   37.2180 H   0  0  0  0  0  0  0  0  0  0  0  0
   29.0590   31.3050   34.0950 H   0  0  0  0  0  0  0  0  0  0  0  0
   38.6140   23.5320   33.5070 O   0  0  0  0  0  0  0  0  0  0  0  0
   37.4940   22.2440   35.3410 C   0  0  0  0  0  0  0  0  0  0  0  0
   37.7280   22.6260   34.0370 C   0  0  0  0  0  0  0  0  0  0  0  0
   36.9650   22.0260   33.0300 C   0  0  0  0  0  0  0  0  0  0  0  0
   37.0380   22.2260   31.9570 H   0  0  0  0  0  0  0  0  0  0  0  0
   35.9970   21.0720   33.3180 C   0  0  0  0  0  0  0  0  0  0  0  0
   35.3920   20.5900   32.5670 H   0  0  0  0  0  0  0  0  0  0  0  0
   35.7860   20.7090   34.6320 C   0  0  0  0  0  3  0  0  0  0  0  0
   36.5350   21.2970   35.6300 C   0  0  0  0  0  3  0  0  0  0  0  0
   38.8310   24.3430   36.1110 H   0  0  0  0  0  0  0  0  0  0  0  0
   38.5140   23.0680   36.4980 S   0  0  0  0  0  0  0  0  0  0  0  0
   37.7250   23.1490   37.7980 O   0  0  0  0  0  0  0  0  0  0  0  0
   39.7340   22.2490   36.8110 O   0  0  0  0  0  0  0  0  0  0  0  0
  1 10  1  0  0  0  0
  2  1  1  0  0  0  0
  2 14  1  0  0  0  0
  3  2  2  0  0  0  0
  4  8  2  0  0  0  0
  4  3  1  0  0  0  0
  5  4  1  0  0  0  0
  6  5  1  0  0  0  0
  6  7  2  0  0  0  0
  7  8  1  0  0  0  0
  8  9  1  0  0  0  0
  9 37  1  0  0  0  0
  9  1  2  0  0  0  0
 11  3  1  0  0  0  0
 12  5  1  0  0  0  0
 13  6  1  0  0  0  0
 14 15  2  0  0  0  0
 16 14  1  0  0  0  0
 16 24  1  0  0  0  0
 17 16  1  0  0  0  0
 18 19  1  0  0  0  0
 19 20  1  0  0  0  0
 20 30  1  0  0  0  0
 20 21  2  0  0  0  0
 21 25  1  0  0  0  0
 22 21  1  0  0  0  0
 22 26  1  0  0  0  0
 23 22  2  0  0  0  0
 24 19  2  0  0  0  0
 24 23  1  0  0  0  0
 27 23  1  0  0  0  0
 28 34  1  0  0  0  0
 29 28  1  0  0  0  0
 29 35  1  0  0  0  0
 30 29  2  0  0  0  0
 31 32  2  0  0  0  0
 31 30  1  0  0  0  0
 32 33  1  0  0  0  0
 33 28  2  0  0  0  0
 36 32  1  0  0  0  0
 37 39  1  0  0  0  0
 38 45  1  0  0  0  0
 38 47  1  0  0  0  0
 39 38  2  0  0  0  0
 40 42  2  0  0  0  0
 40 39  1  0  0  0  0
 41 40  1  0  0  0  0
 42 44  1  0  0  0  0
 43 42  1  0  0  0  0
 44 45  2  0  0  0  0
 46 47  1  0  0  0  0
 47 49  2  0  0  0  0
 47 48  2  0  0  0  0
M  END
>  <minimizedAffinity>
-6.61324692

$$$$

 OpenBabel03272503143D

 49 53  0  0  0  0  0  0  0  0999 V2000
   36.2540   28.4920   33.2960 C   0  0  0  0  0  0  0  0  0  0  0  0
   37.2570   27.6580   32.8600 C   0  0  0  0  0  0  0  0  0  0  0  0
   37.8830   27.8060   31.6620 C   0  0  0  0  0  0  0  0  0  0  0  0
   37.5070   28.8430   30.8210 C   0  0  0  0  0  0  0  0  0  0  0  0
   37.9280   29.2330   29.6140 N   0  0  0  0  0  0  0  0  0  0  0  0
   37.2170   30.2990   29.2640 C   0  0  0  0  0  0  0  0  0  0  0  0
   36.3360   30.5950   30.2530 N   0  0  0  0  0  0  0  0  0  0  0  0
   36.5070   29.6860   31.2420 C   0  0  0  0  0  0  0  0  0  0  0  0
   35.8510   29.5490   32.4720 C   0  0  0  0  0  0  0  0  0  0  0  0
   35.7790   28.3440   34.2560 H   0  0  0  0  0  0  0  0  0  0  0  0
   38.6650   27.1310   31.3530 H   0  0  0  0  0  0  0  0  0  0  0  0
   38.6780   28.8030   29.0180 H   0  0  0  0  0  0  0  0  0  0  0  0
   37.2640   30.8970   28.3610 H   0  0  0  0  0  0  0  0  0  0  0  0
   37.6330   26.5780   33.7590 C   0  0  0  0  0  0  0  0  0  0  0  0
   37.2600   25.3850   33.4710 O   0  0  0  0  0  0  0  0  0  0  0  0
   38.3850   26.7120   34.9500 N   0  0  0  0  0  0  0  0  0  0  0  0
   38.7010   27.6660   35.2090 H   0  0  0  0  0  0  0  0  0  0  0  0
   40.6310   25.2560   34.5110 F   0  0  0  0  0  0  0  0  0  0  0  0
   39.7480   24.7440   35.4000 C   0  0  0  0  0  0  0  0  0  0  0  0
   40.0070   23.5600   36.0230 C   0  0  0  0  0  0  0  0  0  0  0  0
   39.0640   23.0990   36.9180 C   0  0  0  0  0  0  0  0  0  0  0  0
   37.9030   23.7870   37.1880 C   0  0  0  0  0  0  0  0  0  0  0  0
   37.6630   24.9930   36.5400 C   0  0  0  0  0  0  0  0  0  0  0  0
   38.6020   25.4680   35.6360 C   0  0  0  0  0  0  0  0  0  0  0  0
   39.2580   22.1590   37.4200 H   0  0  0  0  0  0  0  0  0  0  0  0
   37.1790   23.4090   37.8910 H   0  0  0  0  0  0  0  0  0  0  0  0
   36.7660   25.5800   36.7100 H   0  0  0  0  0  0  0  0  0  0  0  0
   42.5330   21.2260   34.4490 C   0  0  0  0  0  0  0  0  0  0  0  0
   41.3220   21.8820   34.7450 C   0  0  0  0  0  0  0  0  0  0  0  0
   41.2550   22.8680   35.7020 C   0  0  0  0  0  0  0  0  0  0  0  0
   42.4190   23.1870   36.3570 N   0  0  0  0  0  0  0  0  0  0  0  0
   43.5720   22.5660   36.0770 C   0  0  0  0  0  0  0  0  0  0  0  0
   43.6320   21.6110   35.1490 N   0  0  0  0  0  0  0  0  0  0  0  0
   42.4600   20.4730   33.6820 H   0  0  0  0  0  0  0  0  0  0  0  0
   40.3740   21.6710   34.2610 H   0  0  0  0  0  0  0  0  0  0  0  0
   44.4950   22.8140   36.5910 H   0  0  0  0  0  0  0  0  0  0  0  0
   34.8500   30.3960   32.8880 O   0  0  0  0  0  0  0  0  0  0  0  0
   33.4930   30.8530   34.9430 C   0  0  0  0  0  0  0  0  0  0  0  0
   34.6340   30.8380   34.1710 C   0  0  0  0  0  0  0  0  0  0  0  0
   35.8120   31.3450   34.7290 C   0  0  0  0  0  0  0  0  0  0  0  0
   36.7890   31.3980   34.2400 H   0  0  0  0  0  0  0  0  0  0  0  0
   35.8470   31.8520   36.0210 C   0  0  0  0  0  0  0  0  0  0  0  0
   36.7360   32.2510   36.4830 H   0  0  0  0  0  0  0  0  0  0  0  0
   34.6890   31.8550   36.7710 C   0  0  0  0  0  3  0  0  0  0  0  0
   33.5240   31.3570   36.2250 C   0  0  0  0  0  3  0  0  0  0  0  0
   31.0030   30.0850   34.9460 H   0  0  0  0  0  0  0  0  0  0  0  0
   32.0950   30.1920   34.1270 S   0  0  0  0  0  0  0  0  0  0  0  0
   31.7490   31.1550   32.9990 O   0  0  0  0  0  0  0  0  0  0  0  0
   32.4340   28.8890   33.4600 O   0  0  0  0  0  0  0  0  0  0  0  0
  1 10  1  0  0  0  0
  2  1  1  0  0  0  0
  2 14  1  0  0  0  0
  3  2  2  0  0  0  0
  4  8  2  0  0  0  0
  4  3  1  0  0  0  0
  5  4  1  0  0  0  0
  6  5  1  0  0  0  0
  6  7  2  0  0  0  0
  7  8  1  0  0  0  0
  8  9  1  0  0  0  0
  9 37  1  0  0  0  0
  9  1  2  0  0  0  0
 11  3  1  0  0  0  0
 12  5  1  0  0  0  0
 13  6  1  0  0  0  0
 14 16  1  0  0  0  0
 15 14  2  0  0  0  0
 16 17  1  0  0  0  0
 16 24  1  0  0  0  0
 18 19  1  0  0  0  0
 19 24  2  0  0  0  0
 19 20  1  0  0  0  0
 20 21  2  0  0  0  0
 21 22  1  0  0  0  0
 21 25  1  0  0  0  0
 22 26  1  0  0  0  0
 23 27  1  0  0  0  0
 23 22  2  0  0  0  0
 24 23  1  0  0  0  0
 28 29  2  0  0  0  0
 28 33  1  0  0  0  0
 29 30  1  0  0  0  0
 30 20  1  0  0  0  0
 30 31  2  0  0  0  0
 32 31  1  0  0  0  0
 32 36  1  0  0  0  0
 33 32  2  0  0  0  0
 34 28  1  0  0  0  0
 35 29  1  0  0  0  0
 37 39  1  0  0  0  0
 38 45  1  0  0  0  0
 39 40  1  0  0  0  0
 39 38  2  0  0  0  0
 40 42  2  0  0  0  0
 41 40  1  0  0  0  0
 42 43  1  0  0  0  0
 42 44  1  0  0  0  0
 45 44  2  0  0  0  0
 47 38  1  0  0  0  0
 47 46  1  0  0  0  0
 48 47  2  0  0  0  0
 49 47  2  0  0  0  0
M  END
>  <minimizedAffinity>
-6.59864807

$$$$
