
 OpenBabel03272505263D

 34 36  0  0  0  0  0  0  0  0999 V2000
   37.9340   30.8840   47.1290 N   0  0  0  0  0  0  0  0  0  0  0  0
   37.7120   30.1220   46.0230 C   0  0  0  0  0  0  0  0  0  0  0  0
   38.3430   30.3820   44.8150 C   0  0  0  0  0  0  0  0  0  0  0  0
   39.2320   31.4720   44.7720 C   0  0  0  0  0  0  0  0  0  0  0  0
   39.8210   31.7390   43.7010 O   0  0  0  0  0  0  0  0  0  0  0  0
   39.4490   32.2290   45.8840 N   0  0  0  0  0  0  0  0  0  0  0  0
   38.7830   31.8820   46.9920 C   0  0  0  0  0  0  0  0  0  0  0  0
   39.0070   32.6010   47.9880 O   0  0  0  0  0  0  0  0  0  0  0  0
   37.0180   29.2880   46.0960 H   0  0  0  0  0  0  0  0  0  0  0  0
   37.3060   29.9170   50.6600 C   0  0  0  0  0  0  0  0  0  0  0  0
   37.9680   30.1760   49.4490 C   0  0  0  0  0  0  0  0  0  0  0  0
   37.2890   30.6140   48.3400 C   0  0  0  0  0  0  0  0  0  0  0  0
   35.9390   30.7880   48.4550 N   0  0  0  0  0  0  0  0  0  0  0  0
   35.2730   30.5420   49.6220 C   0  0  0  0  0  0  0  0  0  0  0  0
   35.9700   30.1070   50.7150 N   0  0  0  0  0  0  0  0  0  0  0  0
   37.7740   29.5760   51.5570 H   0  0  0  0  0  0  0  0  0  0  0  0
   39.0180   29.9720   49.5450 H   0  0  0  0  0  0  0  0  0  0  0  0
   34.1930   30.6970   49.6650 H   0  0  0  0  0  0  0  0  0  0  0  0
   37.0690   29.7120   42.7270 C   0  0  0  0  0  0  0  0  0  0  0  0
   38.1010   29.5630   43.6320 C   0  0  0  0  0  0  0  0  0  0  0  0
   39.0320   28.5400   43.4390 C   0  0  0  0  0  0  0  0  0  0  0  0
   39.8770   28.3300   44.0780 H   0  0  0  0  0  0  0  0  0  0  0  0
   38.9300   27.6880   42.3650 C   0  0  0  0  0  0  0  0  0  0  0  0
   39.6270   26.8790   42.1710 H   0  0  0  0  0  0  0  0  0  0  0  0
   37.8990   27.8320   41.4550 C   0  0  0  0  0  3  0  0  0  0  0  0
   36.9740   28.8470   41.6440 C   0  0  0  0  0  3  0  0  0  0  0  0
   35.0760   31.1470   41.9630 H   0  0  0  0  0  0  0  0  0  0  0  0
   35.9490   31.0070   43.0330 S   0  0  0  0  0  0  0  0  0  0  0  0
   35.1170   30.6690   44.2240 O   0  0  0  0  0  0  0  0  0  0  0  0
   36.6310   32.3320   43.1920 O   0  0  0  0  0  0  0  0  0  0  0  0
   40.3670   33.3520   45.8430 C   0  0  0  0  0  0  0  0  0  0  0  0
   40.0010   34.2140   44.8620 F   0  0  0  0  0  0  0  0  0  0  0  0
   41.6700   32.9710   45.5570 F   0  0  0  0  0  0  0  0  0  0  0  0
   40.3190   34.0210   47.0600 F   0  0  0  0  0  0  0  0  0  0  0  0
  1 12  1  0  0  0  0
  2  9  1  0  0  0  0
  2  1  1  0  0  0  0
  3  2  2  0  0  0  0
  4  3  1  0  0  0  0
  4  6  1  0  0  0  0
  5  4  2  0  0  0  0
  6  7  1  0  0  0  0
  7  1  1  0  0  0  0
  7  8  2  0  0  0  0
 10 15  1  0  0  0  0
 10 16  1  0  0  0  0
 11 17  1  0  0  0  0
 11 10  2  0  0  0  0
 12 13  2  0  0  0  0
 12 11  1  0  0  0  0
 13 14  1  0  0  0  0
 14 18  1  0  0  0  0
 14 15  2  0  0  0  0
 19 28  1  0  0  0  0
 19 20  1  0  0  0  0
 20  3  1  0  0  0  0
 21 20  2  0  0  0  0
 21 22  1  0  0  0  0
 23 21  1  0  0  0  0
 24 23  1  0  0  0  0
 25 26  1  0  0  0  0
 25 23  2  0  0  0  0
 26 19  2  0  0  0  0
 27 28  1  0  0  0  0
 28 30  2  0  0  0  0
 28 29  2  0  0  0  0
 31  6  1  0  0  0  0
 31 34  1  0  0  0  0
 32 31  1  0  0  0  0
 33 31  1  0  0  0  0
M  END
>  <minimizedAffinity>
-6.00673628

>  <minimizedRMSD>
1.79389906

$$$$
