
 OpenBabel03272509253D

 27 28  0  0  0  0  0  0  0  0999 V2000
   37.9100   25.2380   34.1380 C   0  0  0  0  0  0  0  0  0  0  0  0
   38.9820   25.2100   33.9420 H   0  0  0  0  0  0  0  0  0  0  0  0
   37.4340   24.2640   33.8970 H   0  0  0  0  0  0  0  0  0  0  0  0
   36.5920   25.8490   32.1180 C   0  0  0  0  0  0  0  0  0  0  0  0
   37.1820   26.2640   33.3120 C   0  0  0  0  0  0  0  0  0  0  0  0
   37.0580   27.5910   33.6520 C   0  0  0  0  0  0  0  0  0  0  0  0
   37.5190   27.8840   34.5720 H   0  0  0  0  0  0  0  0  0  0  0  0
   36.3940   28.4990   32.8870 C   0  0  0  0  0  0  0  0  0  0  0  0
   36.3140   29.5390   33.1860 H   0  0  0  0  0  0  0  0  0  0  0  0
   35.8120   28.0890   31.7110 C   0  0  0  0  0  3  0  0  0  0  0  0
   35.9050   26.7610   31.3160 C   0  0  0  0  0  3  0  0  0  0  0  0
   37.2990   23.4180   32.6740 H   0  0  0  0  0  0  0  0  0  0  0  0
   36.7380   24.1550   31.6610 S   0  0  0  0  0  0  0  0  0  0  0  0
   37.5820   24.1030   30.3990 O   0  0  0  0  0  0  0  0  0  0  0  0
   35.3650   23.6060   31.3960 O   0  0  0  0  0  0  0  0  0  0  0  0
   37.6820   25.5810   35.6020 C   0  0  0  0  0  0  0  0  0  0  0  0
   38.0650   26.5900   35.8110 H   0  0  0  0  0  0  0  0  0  0  0  0
   36.5940   25.4890   35.8600 H   0  0  0  0  0  0  0  0  0  0  0  0
   38.7790   23.3600   38.4690 C   0  0  0  0  0  0  0  0  0  0  0  0
   38.0060   24.3140   37.7710 C   0  0  0  0  0  0  0  0  0  0  0  0
   38.3850   24.6030   36.4700 C   0  0  0  0  0  0  0  0  0  0  0  0
   39.4720   23.9620   35.9280 N   0  0  0  0  0  0  0  0  0  0  0  0
   40.1840   23.0520   36.6370 C   0  0  0  0  0  0  0  0  0  0  0  0
   39.8370   22.7530   37.9030 N   0  0  0  0  0  0  0  0  0  0  0  0
   38.4970   23.1190   39.4920 H   0  0  0  0  0  0  0  0  0  0  0  0
   37.1660   24.8090   38.1910 H   0  0  0  0  0  0  0  0  0  0  0  0
   41.0120   22.6280   36.0850 H   0  0  0  0  0  0  0  0  0  0  0  0
  1 16  1  0  0  0  0
  2  1  1  0  0  0  0
  3  1  1  0  0  0  0
  4  5  1  0  0  0  0
  5  6  2  0  0  0  0
  5  1  1  0  0  0  0
  6  7  1  0  0  0  0
  8  9  1  0  0  0  0
  8  6  1  0  0  0  0
 10  8  2  0  0  0  0
 11 10  1  0  0  0  0
 11  4  2  0  0  0  0
 13  4  1  0  0  0  0
 13 12  1  0  0  0  0
 14 13  2  0  0  0  0
 15 13  2  0  0  0  0
 16 17  1  0  0  0  0
 16 18  1  0  0  0  0
 16 21  1  0  0  0  0
 19 25  1  0  0  0  0
 20 26  1  0  0  0  0
 20 19  2  0  0  0  0
 21 20  1  0  0  0  0
 22 21  2  0  0  0  0
 22 23  1  0  0  0  0
 23 24  2  0  0  0  0
 24 19  1  0  0  0  0
 27 23  1  0  0  0  0
M  END
>  <minimizedAffinity>
-4.66462755

$$$$

 OpenBabel03272509253D

 27 28  0  0  0  0  0  0  0  0999 V2000
   38.6220   23.4130   33.6410 C   0  0  0  0  0  0  0  0  0  0  0  0
   39.0650   23.9330   32.7920 H   0  0  0  0  0  0  0  0  0  0  0  0
   39.3430   22.7030   34.0960 H   0  0  0  0  0  0  0  0  0  0  0  0
   36.6970   22.9550   32.1320 C   0  0  0  0  0  0  0  0  0  0  0  0
   37.4180   22.5890   33.2690 C   0  0  0  0  0  0  0  0  0  0  0  0
   36.9750   21.4950   33.9760 C   0  0  0  0  0  0  0  0  0  0  0  0
   37.5460   21.2360   34.8430 H   0  0  0  0  0  0  0  0  0  0  0  0
   35.8830   20.7670   33.6190 C   0  0  0  0  0  0  0  0  0  0  0  0
   35.5620   19.9080   34.1990 H   0  0  0  0  0  0  0  0  0  0  0  0
   35.1730   21.1270   32.4980 C   0  0  0  0  0  3  0  0  0  0  0  0
   35.5730   22.2230   31.7440 C   0  0  0  0  0  3  0  0  0  0  0  0
   38.0660   25.1480   31.9670 H   0  0  0  0  0  0  0  0  0  0  0  0
   37.2440   24.3520   31.2110 S   0  0  0  0  0  0  0  0  0  0  0  0
   36.0030   25.1020   30.7580 O   0  0  0  0  0  0  0  0  0  0  0  0
   38.0290   23.8700   30.0240 O   0  0  0  0  0  0  0  0  0  0  0  0
   38.1760   24.4370   34.6740 C   0  0  0  0  0  0  0  0  0  0  0  0
   38.6630   25.4020   34.4740 H   0  0  0  0  0  0  0  0  0  0  0  0
   37.0580   24.5300   34.6750 H   0  0  0  0  0  0  0  0  0  0  0  0
   39.8530   22.8210   37.6620 C   0  0  0  0  0  0  0  0  0  0  0  0
   39.6370   23.1750   36.3110 C   0  0  0  0  0  0  0  0  0  0  0  0
   38.5430   23.9780   36.0370 C   0  0  0  0  0  0  0  0  0  0  0  0
   37.7330   24.3870   37.0680 N   0  0  0  0  0  0  0  0  0  0  0  0
   37.9790   24.0220   38.3500 C   0  0  0  0  0  0  0  0  0  0  0  0
   39.0370   23.2420   38.6440 N   0  0  0  0  0  0  0  0  0  0  0  0
   40.7090   22.1910   37.8980 H   0  0  0  0  0  0  0  0  0  0  0  0
   40.2640   22.8580   35.5160 H   0  0  0  0  0  0  0  0  0  0  0  0
   37.2610   24.4160   39.0570 H   0  0  0  0  0  0  0  0  0  0  0  0
  1  3  1  0  0  0  0
  1 16  1  0  0  0  0
  2  1  1  0  0  0  0
  4  5  1  0  0  0  0
  5  1  1  0  0  0  0
  5  6  2  0  0  0  0
  6  7  1  0  0  0  0
  8  6  1  0  0  0  0
  8  9  1  0  0  0  0
 10  8  2  0  0  0  0
 11  4  2  0  0  0  0
 11 10  1  0  0  0  0
 13 12  1  0  0  0  0
 13  4  1  0  0  0  0
 14 13  2  0  0  0  0
 15 13  2  0  0  0  0
 16 18  1  0  0  0  0
 16 21  1  0  0  0  0
 17 16  1  0  0  0  0
 19 25  1  0  0  0  0
 19 24  1  0  0  0  0
 20 19  2  0  0  0  0
 21 20  1  0  0  0  0
 21 22  2  0  0  0  0
 22 23  1  0  0  0  0
 23 24  2  0  0  0  0
 23 27  1  0  0  0  0
 26 20  1  0  0  0  0
M  END
>  <minimizedAffinity>
-4.57561922

$$$$

 OpenBabel03272509253D

 27 28  0  0  0  0  0  0  0  0999 V2000
   38.1490   23.1820   34.7490 C   0  0  0  0  0  0  0  0  0  0  0  0
   37.2690   22.7270   35.2030 H   0  0  0  0  0  0  0  0  0  0  0  0
   39.0820   22.7540   35.1690 H   0  0  0  0  0  0  0  0  0  0  0  0
   38.2350   25.1230   36.3040 C   0  0  0  0  0  0  0  0  0  0  0  0
   38.2390   24.6660   34.9870 C   0  0  0  0  0  0  0  0  0  0  0  0
   38.3230   25.6100   33.9890 C   0  0  0  0  0  0  0  0  0  0  0  0
   38.3240   25.2340   32.9870 H   0  0  0  0  0  0  0  0  0  0  0  0
   38.4030   26.9460   34.2300 C   0  0  0  0  0  0  0  0  0  0  0  0
   38.4700   27.6640   33.4190 H   0  0  0  0  0  0  0  0  0  0  0  0
   38.4000   27.3960   35.5300 C   0  0  0  0  0  3  0  0  0  0  0  0
   38.3170   26.4900   36.5780 C   0  0  0  0  0  3  0  0  0  0  0  0
   37.1280   23.0270   37.3510 H   0  0  0  0  0  0  0  0  0  0  0  0
   38.1270   23.9340   37.5990 S   0  0  0  0  0  0  0  0  0  0  0  0
   37.8810   24.6980   38.8880 O   0  0  0  0  0  0  0  0  0  0  0  0
   39.4260   23.1830   37.6730 O   0  0  0  0  0  0  0  0  0  0  0  0
   38.1040   22.9600   33.2450 C   0  0  0  0  0  0  0  0  0  0  0  0
   37.9520   23.9210   32.7330 H   0  0  0  0  0  0  0  0  0  0  0  0
   39.0390   22.4480   32.8980 H   0  0  0  0  0  0  0  0  0  0  0  0
   35.3710   20.3370   33.3110 C   0  0  0  0  0  0  0  0  0  0  0  0
   36.4240   21.1470   33.7930 C   0  0  0  0  0  0  0  0  0  0  0  0
   36.9900   22.0420   32.9000 C   0  0  0  0  0  0  0  0  0  0  0  0
   36.5110   22.1020   31.6140 N   0  0  0  0  0  0  0  0  0  0  0  0
   35.4970   21.3060   31.1970 C   0  0  0  0  0  0  0  0  0  0  0  0
   34.9300   20.4270   32.0440 N   0  0  0  0  0  0  0  0  0  0  0  0
   34.9120   19.6270   33.9980 H   0  0  0  0  0  0  0  0  0  0  0  0
   36.7920   21.0980   34.7870 H   0  0  0  0  0  0  0  0  0  0  0  0
   35.2240   21.4610   30.1610 H   0  0  0  0  0  0  0  0  0  0  0  0
  1  5  1  0  0  0  0
  1  3  1  0  0  0  0
  1  2  1  0  0  0  0
  4 11  1  0  0  0  0
  4 13  1  0  0  0  0
  5  4  2  0  0  0  0
  6  8  2  0  0  0  0
  6  5  1  0  0  0  0
  7  6  1  0  0  0  0
  8 10  1  0  0  0  0
  9  8  1  0  0  0  0
 10 11  2  0  0  0  0
 12 13  1  0  0  0  0
 13 15  2  0  0  0  0
 13 14  2  0  0  0  0
 16  1  1  0  0  0  0
 17 16  1  0  0  0  0
 18 16  1  0  0  0  0
 19 20  1  0  0  0  0
 19 25  1  0  0  0  0
 20 26  1  0  0  0  0
 21 16  1  0  0  0  0
 21 20  2  0  0  0  0
 22 21  1  0  0  0  0
 23 22  2  0  0  0  0
 23 24  1  0  0  0  0
 24 19  2  0  0  0  0
 27 23  1  0  0  0  0
M  END
>  <minimizedAffinity>
-4.50131893

$$$$

 OpenBabel03272509253D

 27 28  0  0  0  0  0  0  0  0999 V2000
   35.5020   28.7530   34.0660 C   0  0  0  0  0  0  0  0  0  0  0  0
   34.8030   28.4850   34.8590 H   0  0  0  0  0  0  0  0  0  0  0  0
   35.0940   28.4890   33.0680 H   0  0  0  0  0  0  0  0  0  0  0  0
   37.3380   27.4390   33.0220 C   0  0  0  0  0  0  0  0  0  0  0  0
   36.8210   28.0360   34.1710 C   0  0  0  0  0  0  0  0  0  0  0  0
   37.5570   27.9270   35.3280 C   0  0  0  0  0  0  0  0  0  0  0  0
   37.1390   28.3940   36.1950 H   0  0  0  0  0  0  0  0  0  0  0  0
   38.7480   27.2720   35.3970 C   0  0  0  0  0  0  0  0  0  0  0  0
   39.3030   27.2060   36.3260 H   0  0  0  0  0  0  0  0  0  0  0  0
   39.2570   26.6840   34.2630 C   0  0  0  0  0  3  0  0  0  0  0  0
   38.5580   26.7610   33.0660 C   0  0  0  0  0  3  0  0  0  0  0  0
   35.5450   28.6250   31.5760 H   0  0  0  0  0  0  0  0  0  0  0  0
   36.4140   27.5640   31.5280 S   0  0  0  0  0  0  0  0  0  0  0  0
   35.6790   26.2480   31.3450 O   0  0  0  0  0  0  0  0  0  0  0  0
   37.3660   27.7960   30.3900 O   0  0  0  0  0  0  0  0  0  0  0  0
   35.7840   30.2460   34.1350 C   0  0  0  0  0  0  0  0  0  0  0  0
   36.8570   30.4130   34.3060 H   0  0  0  0  0  0  0  0  0  0  0  0
   35.4280   30.7550   33.2020 H   0  0  0  0  0  0  0  0  0  0  0  0
   34.6740   32.2800   37.1330 C   0  0  0  0  0  0  0  0  0  0  0  0
   35.5360   31.7910   36.1260 C   0  0  0  0  0  0  0  0  0  0  0  0
   35.0120   30.8590   35.2460 C   0  0  0  0  0  0  0  0  0  0  0  0
   33.7050   30.4600   35.3880 N   0  0  0  0  0  0  0  0  0  0  0  0
   32.9150   30.9570   36.3700 C   0  0  0  0  0  0  0  0  0  0  0  0
   33.3990   31.8650   37.2390 N   0  0  0  0  0  0  0  0  0  0  0  0
   35.0670   33.0140   37.8340 H   0  0  0  0  0  0  0  0  0  0  0  0
   36.5450   32.1010   36.0180 H   0  0  0  0  0  0  0  0  0  0  0  0
   31.9110   30.5540   36.3620 H   0  0  0  0  0  0  0  0  0  0  0  0
  1 16  1  0  0  0  0
  1  5  1  0  0  0  0
  1  2  1  0  0  0  0
  3  1  1  0  0  0  0
  4 11  2  0  0  0  0
  4  5  1  0  0  0  0
  5  6  2  0  0  0  0
  6  8  1  0  0  0  0
  6  7  1  0  0  0  0
  8  9  1  0  0  0  0
 10  8  2  0  0  0  0
 11 10  1  0  0  0  0
 13 12  1  0  0  0  0
 13  4  1  0  0  0  0
 14 13  2  0  0  0  0
 15 13  2  0  0  0  0
 16 17  1  0  0  0  0
 16 21  1  0  0  0  0
 18 16  1  0  0  0  0
 19 24  1  0  0  0  0
 19 25  1  0  0  0  0
 20 19  2  0  0  0  0
 21 22  2  0  0  0  0
 21 20  1  0  0  0  0
 22 23  1  0  0  0  0
 23 24  2  0  0  0  0
 26 20  1  0  0  0  0
 27 23  1  0  0  0  0
M  END
>  <minimizedAffinity>
-4.49860239

$$$$

 OpenBabel03272509253D

 27 28  0  0  0  0  0  0  0  0999 V2000
   38.6610   26.9130   35.6230 C   0  0  0  0  0  0  0  0  0  0  0  0
   38.4480   27.8090   36.2060 H   0  0  0  0  0  0  0  0  0  0  0  0
   39.6900   26.5450   35.8160 H   0  0  0  0  0  0  0  0  0  0  0  0
   39.7500   27.0070   33.3880 C   0  0  0  0  0  0  0  0  0  0  0  0
   38.5810   27.1400   34.1370 C   0  0  0  0  0  0  0  0  0  0  0  0
   37.4300   27.4730   33.4610 C   0  0  0  0  0  0  0  0  0  0  0  0
   36.5470   27.5690   34.0590 H   0  0  0  0  0  0  0  0  0  0  0  0
   37.3840   27.6730   32.1170 C   0  0  0  0  0  0  0  0  0  0  0  0
   36.4580   27.9340   31.6150 H   0  0  0  0  0  0  0  0  0  0  0  0
   38.5370   27.5410   31.3780 C   0  0  0  0  0  3  0  0  0  0  0  0
   39.7290   27.2070   32.0060 C   0  0  0  0  0  3  0  0  0  0  0  0
   41.0920   26.7270   35.5870 H   0  0  0  0  0  0  0  0  0  0  0  0
   41.2370   26.5820   34.2300 S   0  0  0  0  0  0  0  0  0  0  0  0
   42.3320   27.4830   33.6860 O   0  0  0  0  0  0  0  0  0  0  0  0
   41.5550   25.1410   33.9500 O   0  0  0  0  0  0  0  0  0  0  0  0
   37.6470   25.8370   35.9780 C   0  0  0  0  0  0  0  0  0  0  0  0
   36.8510   26.2680   36.6020 H   0  0  0  0  0  0  0  0  0  0  0  0
   37.2350   25.3660   35.0470 H   0  0  0  0  0  0  0  0  0  0  0  0
   38.7580   23.3570   38.6180 C   0  0  0  0  0  0  0  0  0  0  0  0
   38.0400   24.4320   38.0470 C   0  0  0  0  0  0  0  0  0  0  0  0
   38.3110   24.7390   36.7240 C   0  0  0  0  0  0  0  0  0  0  0  0
   39.2450   23.9990   36.0390 N   0  0  0  0  0  0  0  0  0  0  0  0
   39.9090   22.9760   36.6290 C   0  0  0  0  0  0  0  0  0  0  0  0
   39.6650   22.6560   37.9140 N   0  0  0  0  0  0  0  0  0  0  0  0
   38.5590   23.1000   39.6570 H   0  0  0  0  0  0  0  0  0  0  0  0
   37.3190   25.0020   38.5780 H   0  0  0  0  0  0  0  0  0  0  0  0
   40.6130   22.4830   35.9720 H   0  0  0  0  0  0  0  0  0  0  0  0
  1  3  1  0  0  0  0
  1 16  1  0  0  0  0
  1  2  1  0  0  0  0
  4  5  1  0  0  0  0
  4 13  1  0  0  0  0
  5  1  1  0  0  0  0
  6  7  1  0  0  0  0
  6  5  2  0  0  0  0
  8  6  1  0  0  0  0
  9  8  1  0  0  0  0
 10 11  1  0  0  0  0
 10  8  2  0  0  0  0
 11  4  2  0  0  0  0
 13 12  1  0  0  0  0
 14 13  2  0  0  0  0
 15 13  2  0  0  0  0
 16 17  1  0  0  0  0
 16 21  1  0  0  0  0
 18 16  1  0  0  0  0
 19 25  1  0  0  0  0
 20 26  1  0  0  0  0
 20 19  1  0  0  0  0
 21 20  2  0  0  0  0
 22 23  2  0  0  0  0
 22 21  1  0  0  0  0
 23 24  1  0  0  0  0
 24 19  2  0  0  0  0
 27 23  1  0  0  0  0
M  END
>  <minimizedAffinity>
-4.49590778

$$$$

 OpenBabel03272509253D

 27 28  0  0  0  0  0  0  0  0999 V2000
   38.7820   24.7640   34.5930 C   0  0  0  0  0  0  0  0  0  0  0  0
   38.1650   24.1600   33.9290 H   0  0  0  0  0  0  0  0  0  0  0  0
   39.8430   24.7600   34.2680 H   0  0  0  0  0  0  0  0  0  0  0  0
   39.8100   23.3960   36.4000 C   0  0  0  0  0  0  0  0  0  0  0  0
   38.7890   24.2640   36.0130 C   0  0  0  0  0  0  0  0  0  0  0  0
   37.8540   24.6050   36.9630 C   0  0  0  0  0  0  0  0  0  0  0  0
   37.0820   25.2730   36.6410 H   0  0  0  0  0  0  0  0  0  0  0  0
   37.8820   24.1390   38.2400 C   0  0  0  0  0  0  0  0  0  0  0  0
   37.1280   24.4290   38.9650 H   0  0  0  0  0  0  0  0  0  0  0  0
   38.8890   23.2830   38.6210 C   0  0  0  0  0  3  0  0  0  0  0  0
   39.8620   22.9040   37.7050 C   0  0  0  0  0  3  0  0  0  0  0  0
   40.4920   22.9760   33.9350 H   0  0  0  0  0  0  0  0  0  0  0  0
   41.0190   22.9450   35.2020 S   0  0  0  0  0  0  0  0  0  0  0  0
   41.5140   21.5560   35.5670 O   0  0  0  0  0  0  0  0  0  0  0  0
   42.1470   23.9350   35.2580 O   0  0  0  0  0  0  0  0  0  0  0  0
   38.2470   26.1880   34.6100 C   0  0  0  0  0  0  0  0  0  0  0  0
   37.7030   26.3680   35.5490 H   0  0  0  0  0  0  0  0  0  0  0  0
   39.0830   26.9210   34.4680 H   0  0  0  0  0  0  0  0  0  0  0  0
   35.9400   27.6710   31.9960 C   0  0  0  0  0  0  0  0  0  0  0  0
   36.8050   27.6330   33.1130 C   0  0  0  0  0  0  0  0  0  0  0  0
   37.3270   26.3990   33.4650 C   0  0  0  0  0  0  0  0  0  0  0  0
   36.9890   25.2910   32.7270 N   0  0  0  0  0  0  0  0  0  0  0  0
   36.1550   25.3750   31.6620 C   0  0  0  0  0  0  0  0  0  0  0  0
   35.6330   26.5620   31.2990 N   0  0  0  0  0  0  0  0  0  0  0  0
   35.5190   28.6310   31.7040 H   0  0  0  0  0  0  0  0  0  0  0  0
   37.0640   28.4910   33.6820 H   0  0  0  0  0  0  0  0  0  0  0  0
   35.9780   24.4250   31.1760 H   0  0  0  0  0  0  0  0  0  0  0  0
  1 16  1  0  0  0  0
  1  5  1  0  0  0  0
  2  1  1  0  0  0  0
  3  1  1  0  0  0  0
  4 11  1  0  0  0  0
  5  4  2  0  0  0  0
  5  6  1  0  0  0  0
  6  8  2  0  0  0  0
  7  6  1  0  0  0  0
  8 10  1  0  0  0  0
  8  9  1  0  0  0  0
 11 10  2  0  0  0  0
 12 13  1  0  0  0  0
 13 15  2  0  0  0  0
 13 14  2  0  0  0  0
 13  4  1  0  0  0  0
 16 17  1  0  0  0  0
 18 16  1  0  0  0  0
 19 20  1  0  0  0  0
 20 21  2  0  0  0  0
 20 26  1  0  0  0  0
 21 16  1  0  0  0  0
 22 21  1  0  0  0  0
 23 22  2  0  0  0  0
 24 23  1  0  0  0  0
 24 19  2  0  0  0  0
 25 19  1  0  0  0  0
 27 23  1  0  0  0  0
M  END
>  <minimizedAffinity>
-4.47497702

$$$$

 OpenBabel03272509253D

 27 28  0  0  0  0  0  0  0  0999 V2000
   38.5230   22.8500   33.5430 C   0  0  0  0  0  0  0  0  0  0  0  0
   39.1780   23.5890   34.0040 H   0  0  0  0  0  0  0  0  0  0  0  0
   39.0930   22.1760   32.8690 H   0  0  0  0  0  0  0  0  0  0  0  0
   37.2840   24.8470   32.7280 C   0  0  0  0  0  0  0  0  0  0  0  0
   37.4440   23.4620   32.6900 C   0  0  0  0  0  0  0  0  0  0  0  0
   36.5990   22.7480   31.8730 C   0  0  0  0  0  0  0  0  0  0  0  0
   36.7430   21.6870   31.8620 H   0  0  0  0  0  0  0  0  0  0  0  0
   35.6310   23.3260   31.1120 C   0  0  0  0  0  0  0  0  0  0  0  0
   34.9810   22.7320   30.4770 H   0  0  0  0  0  0  0  0  0  0  0  0
   35.4730   24.6910   31.1490 C   0  0  0  0  0  3  0  0  0  0  0  0
   36.2970   25.4640   31.9560 C   0  0  0  0  0  3  0  0  0  0  0  0
   39.5670   25.1600   33.9120 H   0  0  0  0  0  0  0  0  0  0  0  0
   38.3530   25.7830   33.7670 S   0  0  0  0  0  0  0  0  0  0  0  0
   37.6470   25.9490   35.1010 O   0  0  0  0  0  0  0  0  0  0  0  0
   38.5940   27.1220   33.1300 O   0  0  0  0  0  0  0  0  0  0  0  0
   37.8410   22.0390   34.6350 C   0  0  0  0  0  0  0  0  0  0  0  0
   36.7560   22.2090   34.5990 H   0  0  0  0  0  0  0  0  0  0  0  0
   38.0950   20.9520   34.5300 H   0  0  0  0  0  0  0  0  0  0  0  0
   40.0080   22.7270   37.6650 C   0  0  0  0  0  0  0  0  0  0  0  0
   39.6740   22.2920   36.3630 C   0  0  0  0  0  0  0  0  0  0  0  0
   38.3560   22.4460   35.9660 C   0  0  0  0  0  0  0  0  0  0  0  0
   37.4520   23.0040   36.8370 N   0  0  0  0  0  0  0  0  0  0  0  0
   37.8190   23.4070   38.0780 C   0  0  0  0  0  0  0  0  0  0  0  0
   39.0930   23.2690   38.4890 N   0  0  0  0  0  0  0  0  0  0  0  0
   41.0390   22.6150   37.9960 H   0  0  0  0  0  0  0  0  0  0  0  0
   40.3740   21.8610   35.6920 H   0  0  0  0  0  0  0  0  0  0  0  0
   37.0050   23.8270   38.6540 H   0  0  0  0  0  0  0  0  0  0  0  0
  1  2  1  0  0  0  0
  1 16  1  0  0  0  0
  3  1  1  0  0  0  0
  4 13  1  0  0  0  0
  5  4  1  0  0  0  0
  5  1  1  0  0  0  0
  6  5  2  0  0  0  0
  7  6  1  0  0  0  0
  8 10  2  0  0  0  0
  8  6  1  0  0  0  0
  9  8  1  0  0  0  0
 10 11  1  0  0  0  0
 11  4  2  0  0  0  0
 13 12  1  0  0  0  0
 13 14  2  0  0  0  0
 15 13  2  0  0  0  0
 16 21  1  0  0  0  0
 17 16  1  0  0  0  0
 18 16  1  0  0  0  0
 19 25  1  0  0  0  0
 19 24  1  0  0  0  0
 20 19  2  0  0  0  0
 21 20  1  0  0  0  0
 21 22  2  0  0  0  0
 22 23  1  0  0  0  0
 23 24  2  0  0  0  0
 23 27  1  0  0  0  0
 26 20  1  0  0  0  0
M  END
>  <minimizedAffinity>
-4.44986486

$$$$

 OpenBabel03272509253D

 27 28  0  0  0  0  0  0  0  0999 V2000
   38.3710   23.4180   33.5910 C   0  0  0  0  0  0  0  0  0  0  0  0
   39.1290   22.8870   33.0150 H   0  0  0  0  0  0  0  0  0  0  0  0
   37.7910   22.7190   34.2280 H   0  0  0  0  0  0  0  0  0  0  0  0
   36.4530   23.3440   32.0080 C   0  0  0  0  0  0  0  0  0  0  0  0
   37.3570   24.1230   32.7290 C   0  0  0  0  0  0  0  0  0  0  0  0
   37.2610   25.4890   32.6020 C   0  0  0  0  0  0  0  0  0  0  0  0
   37.9660   26.0640   33.1650 H   0  0  0  0  0  0  0  0  0  0  0  0
   36.3350   26.1020   31.8150 C   0  0  0  0  0  0  0  0  0  0  0  0
   36.2850   27.1830   31.7380 H   0  0  0  0  0  0  0  0  0  0  0  0
   35.4430   25.3340   31.1050 C   0  0  0  0  0  3  0  0  0  0  0  0
   35.4930   23.9490   31.1940 C   0  0  0  0  0  3  0  0  0  0  0  0
   37.8220   21.2050   32.5190 H   0  0  0  0  0  0  0  0  0  0  0  0
   36.5570   21.5930   32.1540 S   0  0  0  0  0  0  0  0  0  0  0  0
   36.1590   21.0070   30.8110 O   0  0  0  0  0  0  0  0  0  0  0  0
   35.6070   21.1400   33.2260 O   0  0  0  0  0  0  0  0  0  0  0  0
   39.0500   24.4700   34.4550 C   0  0  0  0  0  0  0  0  0  0  0  0
   40.1150   24.5360   34.1910 H   0  0  0  0  0  0  0  0  0  0  0  0
   38.5330   25.4590   34.3440 H   0  0  0  0  0  0  0  0  0  0  0  0
   37.9590   24.1730   38.0710 C   0  0  0  0  0  0  0  0  0  0  0  0
   37.9450   24.6140   36.7290 C   0  0  0  0  0  0  0  0  0  0  0  0
   38.9240   24.1080   35.8890 C   0  0  0  0  0  0  0  0  0  0  0  0
   39.8450   23.2190   36.3880 N   0  0  0  0  0  0  0  0  0  0  0  0
   39.8190   22.8240   37.6840 C   0  0  0  0  0  0  0  0  0  0  0  0
   38.8780   23.3010   38.5220 N   0  0  0  0  0  0  0  0  0  0  0  0
   37.1980   24.5590   38.7470 H   0  0  0  0  0  0  0  0  0  0  0  0
   37.2330   25.3010   36.3450 H   0  0  0  0  0  0  0  0  0  0  0  0
   40.6020   22.1220   37.9370 H   0  0  0  0  0  0  0  0  0  0  0  0
  1  3  1  0  0  0  0
  1 16  1  0  0  0  0
  2  1  1  0  0  0  0
  4 13  1  0  0  0  0
  4  5  1  0  0  0  0
  5  1  1  0  0  0  0
  6  5  2  0  0  0  0
  6  7  1  0  0  0  0
  8  6  1  0  0  0  0
  9  8  1  0  0  0  0
 10 11  1  0  0  0  0
 10  8  2  0  0  0  0
 11  4  2  0  0  0  0
 13 12  1  0  0  0  0
 13 15  2  0  0  0  0
 14 13  2  0  0  0  0
 16 21  1  0  0  0  0
 17 16  1  0  0  0  0
 18 16  1  0  0  0  0
 19 24  1  0  0  0  0
 19 25  1  0  0  0  0
 20 19  2  0  0  0  0
 21 22  2  0  0  0  0
 21 20  1  0  0  0  0
 22 23  1  0  0  0  0
 23 27  1  0  0  0  0
 23 24  2  0  0  0  0
 26 20  1  0  0  0  0
M  END
>  <minimizedAffinity>
-4.44983387

$$$$

 OpenBabel03272509253D

 27 28  0  0  0  0  0  0  0  0999 V2000
   37.7830   26.0990   35.4610 C   0  0  0  0  0  0  0  0  0  0  0  0
   37.3950   25.7880   36.4310 H   0  0  0  0  0  0  0  0  0  0  0  0
   37.2320   25.6070   34.6330 H   0  0  0  0  0  0  0  0  0  0  0  0
   39.6300   24.4340   35.5490 C   0  0  0  0  0  0  0  0  0  0  0  0
   39.2310   25.7380   35.2580 C   0  0  0  0  0  0  0  0  0  0  0  0
   40.1930   26.6100   34.8050 C   0  0  0  0  0  0  0  0  0  0  0  0
   39.8610   27.6040   34.5890 H   0  0  0  0  0  0  0  0  0  0  0  0
   41.4960   26.2590   34.6310 C   0  0  0  0  0  0  0  0  0  0  0  0
   42.2300   26.9720   34.2700 H   0  0  0  0  0  0  0  0  0  0  0  0
   41.8890   24.9720   34.9170 C   0  0  0  0  0  3  0  0  0  0  0  0
   40.9610   24.0480   35.3780 C   0  0  0  0  0  3  0  0  0  0  0  0
   37.1490   23.7500   35.8540 H   0  0  0  0  0  0  0  0  0  0  0  0
   38.4160   23.3000   36.1310 S   0  0  0  0  0  0  0  0  0  0  0  0
   38.6360   23.1360   37.6250 O   0  0  0  0  0  0  0  0  0  0  0  0
   38.6040   21.9870   35.4260 O   0  0  0  0  0  0  0  0  0  0  0  0
   37.6660   27.6110   35.3400 C   0  0  0  0  0  0  0  0  0  0  0  0
   37.2780   28.0290   36.2790 H   0  0  0  0  0  0  0  0  0  0  0  0
   38.6560   28.0580   35.0640 H   0  0  0  0  0  0  0  0  0  0  0  0
   35.8300   27.8090   32.0310 C   0  0  0  0  0  0  0  0  0  0  0  0
   36.7750   27.3640   32.9820 C   0  0  0  0  0  0  0  0  0  0  0  0
   36.7430   27.9620   34.2310 C   0  0  0  0  0  0  0  0  0  0  0  0
   35.8120   28.9400   34.4850 N   0  0  0  0  0  0  0  0  0  0  0  0
   34.9240   29.3350   33.5410 C   0  0  0  0  0  0  0  0  0  0  0  0
   34.9340   28.7710   32.3180 N   0  0  0  0  0  0  0  0  0  0  0  0
   35.8390   27.3520   31.0430 H   0  0  0  0  0  0  0  0  0  0  0  0
   37.4930   26.6080   32.7840 H   0  0  0  0  0  0  0  0  0  0  0  0
   34.2510   30.1120   33.8790 H   0  0  0  0  0  0  0  0  0  0  0  0
  1  2  1  0  0  0  0
  3  1  1  0  0  0  0
  4 13  1  0  0  0  0
  5  1  1  0  0  0  0
  5  4  2  0  0  0  0
  6  5  1  0  0  0  0
  7  6  1  0  0  0  0
  8  6  2  0  0  0  0
  8 10  1  0  0  0  0
  9  8  1  0  0  0  0
 10 11  2  0  0  0  0
 11  4  1  0  0  0  0
 12 13  1  0  0  0  0
 13 14  2  0  0  0  0
 15 13  2  0  0  0  0
 16  1  1  0  0  0  0
 16 17  1  0  0  0  0
 18 16  1  0  0  0  0
 19 24  2  0  0  0  0
 19 20  1  0  0  0  0
 20 21  2  0  0  0  0
 21 22  1  0  0  0  0
 21 16  1  0  0  0  0
 23 27  1  0  0  0  0
 23 22  2  0  0  0  0
 24 23  1  0  0  0  0
 25 19  1  0  0  0  0
 26 20  1  0  0  0  0
M  END
>  <minimizedAffinity>
-4.38005781

$$$$
