REMARK  Name = 
REMARK  4 active torsions:
REMARK  status: ('A' for Active; 'I' for Inactive)
REMARK    1  A    between atoms: N_1  and  C_16
REMARK    2  A    between atoms: C_4  and  C_8
REMARK    3  A    between atoms: C_20  and  C_43
REMARK    4  A    between atoms: S_39  and  C_42
REMARK                            x       y       z     vdW  Elec       q    Type
REMARK                         _______ _______ _______ _____ _____    ______ ____
ROOT
ATOM      1  N   UNL     1      32.702  28.211  47.439  0.00  0.00    +0.000 N 
ATOM      2  C   UNL     1      33.307  27.753  48.636  0.00  0.00    +0.000 C 
ATOM      3  C   UNL     1      34.478  28.515  49.131  0.00  0.00    +0.000 C 
ATOM      4  C   UNL     1      35.418  29.005  48.123  0.00  0.00    +0.000 C 
ATOM      5  C   UNL     1      34.713  29.413  46.818  0.00  0.00    +0.000 C 
ATOM      6  C   UNL     1      33.757  28.266  46.447  0.00  0.00    +0.000 C 
ATOM      7  H   UNL     1      33.670  26.698  48.451  0.00  0.00    +0.000 HD
ATOM      8  H   UNL     1      32.581  27.647  49.457  0.00  0.00    +0.000 HD
ATOM      9  H   UNL     1      34.974  27.951  49.938  0.00  0.00    +0.000 HD
ATOM     10  H   UNL     1      33.978  29.437  49.580  0.00  0.00    +0.000 HD
ATOM     11  H   UNL     1      36.132  28.214  47.794  0.00  0.00    +0.000 HD
ATOM     12  H   UNL     1      34.070  30.302  46.987  0.00  0.00    +0.000 HD
ATOM     13  H   UNL     1      35.488  29.540  46.065  0.00  0.00    +0.000 HD
ATOM     14  H   UNL     1      34.276  27.307  46.327  0.00  0.00    +0.000 HD
ATOM     15  H   UNL     1      33.258  28.482  45.485  0.00  0.00    +0.000 HD
ENDROOT
BRANCH   4  17
ATOM     16  C   UNL     1      35.946  30.735  49.779  0.00  0.00    +0.000 A 
ATOM     17  C   UNL     1      36.196  30.202  48.524  0.00  0.00    +0.000 A 
ATOM     18  C   UNL     1      37.095  30.733  47.639  0.00  0.00    +0.000 A 
ATOM     19  C   UNL     1      37.792  31.874  48.030  0.00  0.00    +0.000 A 
ATOM     20  C   UNL     1      37.544  32.405  49.274  0.00  0.00    +0.000 A 
ATOM     21  C   UNL     1      36.633  31.870  50.177  0.00  0.00    +0.000 A 
ATOM     22  O   UNL     1      38.333  33.544  49.483  0.00  0.00    +0.000 OA
ATOM     23  C   UNL     1      39.321  33.486  48.455  0.00  0.00    +0.000 C 
ATOM     24  O   UNL     1      38.764  32.694  47.443  0.00  0.00    +0.000 OA
ATOM     25  H   UNL     1      35.276  30.398  50.558  0.00  0.00    +0.000 HD
ATOM     26  H   UNL     1      37.271  30.306  46.682  0.00  0.00    +0.000 HD
ATOM     27  H   UNL     1      36.483  32.347  51.160  0.00  0.00    +0.000 HD
ATOM     28  H   UNL     1      39.397  34.525  48.070  0.00  0.00    +0.000 HD
ATOM     29  H   UNL     1      40.279  33.090  48.858  0.00  0.00    +0.000 HD
ENDBRANCH   4  17
BRANCH   1  30
ATOM     30  C   UNL     1      31.339  28.554  47.208  0.00  0.00    +0.000 A 
ATOM     31  C   UNL     1      30.877  29.336  46.154  0.00  0.00    +0.000 A 
ATOM     32  C   UNL     1      29.500  29.551  46.080  0.00  0.00    +0.000 A 
ATOM     33  N   UNL     1      28.688  28.989  47.038  0.00  0.00    +0.000 NA
ATOM     34  C   UNL     1      29.195  28.241  48.036  0.00  0.00    +0.000 A 
ATOM     35  N   UNL     1      30.484  28.030  48.118  0.00  0.00    +0.000 NA
ATOM     36  H   UNL     1      31.611  29.710  45.484  0.00  0.00    +0.000 HD
ATOM     37  H   UNL     1      29.155  30.150  45.271  0.00  0.00    +0.000 HD
BRANCH  34  39
ATOM     38  C   UNL     1      27.815  28.222  50.160  0.00  0.00    +0.000 A 
ATOM     39  C   UNL     1      28.143  27.743  48.914  0.00  0.00    +0.000 A 
ATOM     40  C   UNL     1      27.340  26.683  48.545  0.00  0.00    +0.000 A 
ATOM     41  H   UNL     1      27.451  26.176  47.595  0.00  0.00    +0.000 HD
ATOM     42  C   UNL     1      26.329  26.153  49.316  0.00  0.00    +0.000 A 
ATOM     43  H   UNL     1      25.717  25.320  48.999  0.00  0.00    +0.000 HD
ATOM     44  C   UNL     1      26.062  26.688  50.553  0.00  0.00    +0.000 A 
ATOM     45  C   UNL     1      26.830  27.748  50.976  0.00  0.00    +0.000 A 
BRANCH  38  47
ATOM     46  H   UNL     1      28.574  30.581  49.829  0.00  0.00    +0.000 HD
ATOM     47  S   UNL     1      28.726  29.582  50.777  0.00  0.00    +0.000 S 
ATOM     48  O   UNL     1      28.163  30.096  52.076  0.00  0.00    +0.000 OA
ATOM     49  O   UNL     1      30.158  29.238  50.905  0.00  0.00    +0.000 OA
ENDBRANCH  38  47
ENDBRANCH  34  39
ENDBRANCH   1  30
TORSDOF 4
