
     RDKit          3D

 26 27  0  0  0  0  0  0  0  0999 V2000
   38.3013   31.2456   50.1229 C   0  0  0  0  0  0  0  0  0  0  0  0
   38.2799   31.6138   48.7586 C   0  0  0  0  0  0  0  0  0  0  0  0
   37.2004   31.2205   47.9863 C   0  0  0  0  0  0  0  0  0  0  0  0
   36.2408   30.5040   48.6162 N   0  0  0  0  0  0  0  0  0  0  0  0
   36.2697   30.1612   49.9046 C   0  0  0  0  0  0  0  0  0  0  0  0
   37.3020   30.5347   50.6524 N   0  0  0  0  0  0  0  0  0  0  0  0
   35.1339   29.3738   50.4352 C   0  0  0  0  0  0  0  0  0  0  0  0
   35.2601   29.1157   51.7980 F   0  0  0  0  0  0  0  0  0  0  0  0
   33.9224   30.0724   50.3010 F   0  0  0  0  0  0  0  0  0  0  0  0
   34.9384   28.1701   49.8289 F   0  0  0  0  0  0  0  0  0  0  0  0
   39.0969   31.5124   50.7747 H   0  0  0  0  0  0  0  0  0  0  0  0
   39.0960   32.1866   48.3544 H   0  0  0  0  0  0  0  0  0  0  0  0
   39.9754   32.5930   47.5606 H   0  0  0  0  0  0  0  0  0  0  0  0
   39.0747   33.4004   46.9458 S   0  0  0  0  0  0  0  0  0  0  0  0
   38.3903   34.3576   47.9128 O   0  0  0  0  0  0  0  0  0  0  0  0
   39.8755   34.2990   46.0301 O   0  0  0  0  0  0  0  0  0  0  0  0
   37.8876   32.5164   46.0150 C   0  0  0  0  0  0  0  0  0  0  0  0
   37.0903   31.5531   46.5734 C   0  0  0  0  0  0  0  0  0  0  0  0
   36.1997   30.9331   45.7367 C   0  0  0  0  0  0  0  0  0  0  0  0
   35.5273   30.1601   46.0815 H   0  0  0  0  0  0  0  0  0  0  0  0
   36.0565   31.2110   44.3938 C   0  0  0  0  0  0  0  0  0  0  0  0
   35.3507   30.7140   43.7493 H   0  0  0  0  0  0  0  0  0  0  0  0
   36.8559   32.1797   43.8252 C   0  0  0  0  0  0  0  0  0  0  0  0
   37.7559   32.8104   44.6569 C   0  0  0  0  0  0  0  0  0  0  0  0
   36.7825   32.4341   42.7781 H   0  0  0  0  0  0  0  0  0  0  0  0
   38.3739   33.5737   44.1713 H   0  0  0  0  0  0  0  0  0  0  0  0
  1  6  2  0
  2  1  1  0
  3  4  1  0
  3  2  2  0
  4  5  2  0
  5  7  1  0
  5  6  1  0
  7  8  1  0
  9  7  1  0
 10  7  1  0
  1 11  1  0
  2 12  1  0
 13 14  1  0
 14 15  2  0
 14 16  2  0
 14 17  1  0
 17 18  2  0
 18 19  1  0
 19 20  1  0
 19 21  2  0
 21 22  1  0
 21 23  1  0
 23 24  2  0
 24 17  1  0
 23 25  1  0
 24 26  1  0
  3 18  1  0
M  ISO  5  11  14  12  14  13  12  20  15  22  16
M  END
>  <DihAtoms>  (1) 
3,2,17,16

>  <DihDeg>  (1) 
0.058799441221521184

$$$$
