
 OpenBabel03272504173D

 29 30  0  0  0  0  0  0  0  0999 V2000
   35.4480   29.9300   46.2550 O   0  0  0  0  0  0  0  0  0  0  0  0
   34.4290   29.7420   47.3360 P   0  0  1  0  0  0  0  0  0  0  0  0
   34.4180   28.1600   47.9480 O   0  0  0  0  0  0  0  0  0  0  0  0
   33.7180   28.1160   48.6330 H   0  0  0  0  0  0  0  0  0  0  0  0
   34.7370   30.7670   48.6920 O   0  0  0  0  0  0  0  0  0  0  0  0
   35.9380   30.7350   49.3850 C   0  0  0  0  0  0  0  0  0  0  0  0
   36.2150   29.9630   50.5030 C   0  0  0  0  0  0  0  0  0  0  0  0
   37.4660   30.0430   51.0830 C   0  0  0  0  0  0  0  0  0  0  0  0
   38.3980   30.8810   50.5380 N   0  0  0  0  0  0  0  0  0  0  0  0
   38.0950   31.6310   49.4320 C   0  0  0  0  0  0  0  0  0  0  0  0
   36.8630   31.5520   48.8610 N   0  0  0  0  0  0  0  0  0  0  0  0
   37.6280   29.4300   51.9390 H   0  0  0  0  0  0  0  0  0  0  0  0
   38.8520   32.2890   49.0160 H   0  0  0  0  0  0  0  0  0  0  0  0
   35.1540   29.1510   50.9470 N   0  0  0  0  0  0  0  0  0  0  0  0
   35.3610   28.2200   51.3480 H   0  0  0  0  0  0  0  0  0  0  0  0
   34.1560   29.4650   50.8820 H   0  0  0  0  0  0  0  0  0  0  0  0
   32.9440   30.1610   46.6550 O   0  0  0  0  0  0  0  0  0  0  0  0
   32.0030   29.0490   44.8450 C   0  0  0  0  0  0  0  0  0  0  0  0
   32.0820   29.1540   46.2390 C   0  0  0  0  0  0  0  0  0  0  0  0
   31.3490   28.3080   47.0460 C   0  0  0  0  0  0  0  0  0  0  0  0
   31.4650   28.4540   48.1110 H   0  0  0  0  0  0  0  0  0  0  0  0
   30.5230   27.3430   46.5050 C   0  0  0  0  0  0  0  0  0  0  0  0
   29.9650   26.7000   47.1770 H   0  0  0  0  0  0  0  0  0  0  0  0
   30.4280   27.2180   45.1140 C   0  0  0  0  0  3  0  0  0  0  0  0
   31.1690   28.0730   44.3240 C   0  0  0  0  0  3  0  0  0  0  0  0
   34.1080   30.4090   44.1980 H   0  0  0  0  0  0  0  0  0  0  0  0
   32.8750   30.0540   43.7310 S   0  0  0  0  0  0  0  0  0  0  0  0
   32.1210   31.3130   43.3980 O   0  0  0  0  0  0  0  0  0  0  0  0
   33.0920   29.3360   42.4060 O   0  0  0  0  0  0  0  0  0  0  0  0
  2  1  2  6  0  0  0
  2  3  1  0  0  0  0
  2  5  1  0  0  0  0
  3  4  1  0  0  0  0
  5  6  1  0  0  0  0
  6  7  1  0  0  0  0
  7 14  1  0  0  0  0
  7  8  2  0  0  0  0
  8 12  1  0  0  0  0
  9  8  1  0  0  0  0
 10  9  2  0  0  0  0
 11  6  2  0  0  0  0
 11 10  1  0  0  0  0
 13 10  1  0  0  0  0
 14 15  1  0  0  0  0
 16 14  1  0  0  0  0
 17  2  1  0  0  0  0
 18 19  1  0  0  0  0
 19 17  1  0  0  0  0
 19 20  2  0  0  0  0
 20 21  1  0  0  0  0
 22 20  1  0  0  0  0
 22 23  1  0  0  0  0
 24 22  2  0  0  0  0
 25 18  2  0  0  0  0
 25 24  1  0  0  0  0
 27 26  1  0  0  0  0
 27 18  1  0  0  0  0
 28 27  2  0  0  0  0
 29 27  2  0  0  0  0
M  END
>  <minimizedAffinity>
-3.87264323

>  <minimizedRMSD>
1.49561548

$$$$
