
     RDKit          3D

 28 29  0  0  0  0  0  0  0  0999 V2000
   35.6372   29.0005   50.1737 C   0  0  0  0  0  0  0  0  0  0  0  0
   36.3010   30.1447   49.6414 C   0  0  0  0  0  0  0  0  0  0  0  0
   36.0455   30.5196   48.3253 C   0  0  0  0  0  0  0  0  0  0  0  0
   35.1560   29.7502   47.6128 N   0  0  0  0  0  0  0  0  0  0  0  0
   34.5401   28.6693   48.1414 C   0  0  0  0  0  0  0  0  0  0  0  0
   34.7721   28.2885   49.4139 N   0  0  0  0  0  0  0  0  0  0  0  0
   33.6777   28.0198   47.2228 N   0  0  0  0  0  0  0  0  0  0  0  0
   37.2288   30.8986   50.5348 C   0  0  0  0  0  0  0  0  0  0  0  0
   38.5278   30.7849   50.1205 F   0  0  0  0  0  0  0  0  0  0  0  0
   36.8536   32.2385   50.5026 F   0  0  0  0  0  0  0  0  0  0  0  0
   37.1733   30.4783   51.8546 F   0  0  0  0  0  0  0  0  0  0  0  0
   35.8465   28.7231   51.1884 H   0  0  0  0  0  0  0  0  0  0  0  0
   34.0969   27.1501   46.8323 H   0  0  0  0  0  0  0  0  0  0  0  0
   32.7353   28.2174   46.8685 H   0  0  0  0  0  0  0  0  0  0  0  0
   36.7729   30.5977   44.0393 H   0  0  0  0  0  0  0  0  0  0  0  0
   36.0282   30.7118   45.1976 S   0  0  0  0  0  0  0  0  0  0  0  0
   34.6651   31.2233   44.7663 O   0  0  0  0  0  0  0  0  0  0  0  0
   35.8294   29.3522   45.7508 O   0  0  0  0  0  0  0  0  0  0  0  0
   36.7360   31.8235   46.3418 C   0  0  0  0  0  0  0  0  0  0  0  0
   36.6363   31.6701   47.7063 C   0  0  0  0  0  0  0  0  0  0  0  0
   37.1953   32.6123   48.5444 C   0  0  0  0  0  0  0  0  0  0  0  0
   37.2225   32.6200   49.6455 H   0  0  0  0  0  0  0  0  0  0  0  0
   37.8713   33.7369   48.0439 C   0  0  0  0  0  0  0  0  0  0  0  0
   38.3295   34.4960   48.6684 H   0  0  0  0  0  0  0  0  0  0  0  0
   37.9351   33.8299   46.6681 C   0  0  0  0  0  0  0  0  0  0  0  0
   37.3978   32.9252   45.7694 C   0  0  0  0  0  0  0  0  0  0  0  0
   38.4591   34.6956   46.2597 H   0  0  0  0  0  0  0  0  0  0  0  0
   37.4907   33.0740   44.7054 H   0  0  0  0  0  0  0  0  0  0  0  0
  2  1  2  0
  2  8  1  0
  3  2  1  0
  4  5  1  0
  4  3  2  0
  5  6  2  0
  6  1  1  0
  7  5  1  0
  8 11  1  0
  9  8  1  0
 10  8  1  0
  1 12  1  0
  7 13  1  0
  7 14  1  0
 15 16  1  0
 16 17  2  0
 16 18  2  0
 16 19  1  0
 19 20  2  0
 20 21  1  0
 21 22  1  0
 21 23  2  0
 23 24  1  0
 23 25  1  0
 25 26  2  0
 26 19  1  0
 25 27  1  0
 26 28  1  0
  3 20  1  0
M  ISO  4  12  14  15  12  22  15  24  16
M  END
>  <DihAtoms>  (1) 
1,2,19,18

>  <DihDeg>  (1) 
-110.9525043752166

$$$$
