
 OpenBabel03272503273D

 33 35  0  0  1  0  0  0  0  0999 V2000
   35.7370   29.5860   47.9270 N   0  0  0  0  0  0  0  0  0  0  0  0
   36.8750   30.2030   47.2710 C   0  0  0  0  0  0  0  0  0  0  0  0
   37.7820   30.5280   48.4460 C   0  0  2  0  0  0  0  0  0  0  0  0
   37.0050   30.2010   49.6960 C   0  0  0  0  0  0  0  0  0  0  0  0
   36.2340   28.9880   49.1600 C   0  0  0  0  0  0  0  0  0  0  0  0
   37.2870   29.4780   46.5710 H   0  0  0  0  0  0  0  0  0  0  0  0
   36.5600   31.1450   46.7900 H   0  0  0  0  0  0  0  0  0  0  0  0
   38.5860   29.7390   48.3950 H   0  0  0  0  0  0  0  0  0  0  0  0
   36.2210   30.9200   49.9560 H   0  0  0  0  0  0  0  0  0  0  0  0
   37.6520   29.9050   50.5370 H   0  0  0  0  0  0  0  0  0  0  0  0
   35.3750   28.7830   49.8340 H   0  0  0  0  0  0  0  0  0  0  0  0
   36.8780   28.1270   48.9820 H   0  0  0  0  0  0  0  0  0  0  0  0
   34.3840   29.5600   47.4700 C   0  0  0  0  0  0  0  0  0  0  0  0
   34.0100   30.5670   46.5840 C   0  0  0  0  0  0  0  0  0  0  0  0
   32.6900   30.5750   46.1140 C   0  0  0  0  0  0  0  0  0  0  0  0
   31.8580   29.5810   46.5650 N   0  0  0  0  0  0  0  0  0  0  0  0
   32.2680   28.6180   47.4320 C   0  0  0  0  0  0  0  0  0  0  0  0
   33.5460   28.6180   47.8820 N   0  0  0  0  0  0  0  0  0  0  0  0
   34.6160   31.3540   46.2090 H   0  0  0  0  0  0  0  0  0  0  0  0
   32.3060   31.3160   45.4230 H   0  0  0  0  0  0  0  0  0  0  0  0
   31.5570   27.8560   47.7530 H   0  0  0  0  0  0  0  0  0  0  0  0
   39.0070   32.4080   47.3050 C   0  0  0  0  0  0  0  0  0  0  0  0
   38.4150   31.8270   48.4080 C   0  0  0  0  0  0  0  0  0  0  0  0
   38.4300   32.5600   49.5840 C   0  0  0  0  0  0  0  0  0  0  0  0
   38.0170   32.2530   50.5210 H   0  0  0  0  0  0  0  0  0  0  0  0
   39.0110   33.8160   49.6560 C   0  0  0  0  0  0  0  0  0  0  0  0
   39.0440   34.4220   50.5600 H   0  0  0  0  0  0  0  0  0  0  0  0
   39.6040   34.3940   48.5460 C   0  0  0  0  0  0  0  0  0  0  0  0
   39.5920   33.6760   47.3830 C   0  0  0  0  0  0  0  0  0  0  0  0
   39.8480   32.1520   44.9220 H   0  0  0  0  0  0  0  0  0  0  0  0
   39.0000   31.5010   45.8060 S   0  0  0  0  0  0  0  0  0  0  0  0
   37.6740   31.4560   45.1450 O   0  0  0  0  0  0  0  0  0  0  0  0
   39.6280   30.1390   45.9930 O   0  0  0  0  0  0  0  0  0  0  0  0
  1  5  1  0  0  0  0
  2  1  1  0  0  0  0
  2  3  1  0  0  0  0
  3  8  1  6  0  0  0
  3  4  1  0  0  0  0
  4  9  1  0  0  0  0
  4 10  1  0  0  0  0
  5  4  1  0  0  0  0
  5 11  1  0  0  0  0
  6  2  1  0  0  0  0
  7  2  1  0  0  0  0
 12  5  1  0  0  0  0
 13 18  1  0  0  0  0
 13  1  1  0  0  0  0
 14 13  2  0  0  0  0
 15 16  2  0  0  0  0
 15 14  1  0  0  0  0
 16 17  1  0  0  0  0
 17 21  1  0  0  0  0
 17 18  2  0  0  0  0
 19 14  1  0  0  0  0
 20 15  1  0  0  0  0
 22 29  2  0  0  0  0
 22 23  1  0  0  0  0
 23  3  1  0  0  0  0
 23 24  2  0  0  0  0
 24 26  1  0  0  0  0
 24 25  1  0  0  0  0
 26 27  1  0  0  0  0
 28 26  2  0  0  0  0
 29 28  1  0  0  0  0
 30 31  1  0  0  0  0
 31 33  2  0  0  0  0
 31 22  1  0  0  0  0
 32 31  2  0  0  0  0
M  END
>  <minimizedAffinity>
-4.8560071

>  <minimizedRMSD>
2.45338345

$$$$
