
     RDKit          3D

 35 37  0  0  0  0  0  0  0  0999 V2000
   37.7494   31.0720   47.3867 C   0  0  0  0  0  0  0  0  0  0  0  0
   36.9947   30.7415   46.2616 C   0  0  0  0  0  0  0  0  0  0  0  0
   37.3007   31.2166   45.0012 C   0  0  0  0  0  0  0  0  0  0  0  0
   38.3724   32.0344   44.8450 N   0  0  0  0  0  0  0  0  0  0  0  0
   39.0794   32.3352   45.9425 C   0  0  0  0  0  0  0  0  0  0  0  0
   38.7990   31.8840   47.1771 N   0  0  0  0  0  0  0  0  0  0  0  0
   37.6028   30.3471   51.0712 C   0  0  0  0  0  0  0  0  0  0  0  0
   38.0492   30.9115   49.8528 C   0  0  0  0  0  0  0  0  0  0  0  0
   37.3794   30.5476   48.6861 C   0  0  0  0  0  0  0  0  0  0  0  0
   36.3613   29.6880   48.8080 N   0  0  0  0  0  0  0  0  0  0  0  0
   35.9521   29.1615   49.9778 C   0  0  0  0  0  0  0  0  0  0  0  0
   36.5827   29.4998   51.1093 N   0  0  0  0  0  0  0  0  0  0  0  0
   34.8835   28.2916   49.8913 O   0  0  0  0  0  0  0  0  0  0  0  0
   40.2588   33.2300   45.8035 C   0  0  0  0  0  0  0  0  0  0  0  0
   40.3887   33.9590   46.9954 F   0  0  0  0  0  0  0  0  0  0  0  0
   41.3987   32.5124   45.5437 F   0  0  0  0  0  0  0  0  0  0  0  0
   40.0772   34.1746   44.8198 F   0  0  0  0  0  0  0  0  0  0  0  0
   36.1495   30.0878   46.4292 H   0  0  0  0  0  0  0  0  0  0  0  0
   36.6792   30.9270   44.1626 H   0  0  0  0  0  0  0  0  0  0  0  0
   38.1603   30.6652   51.9507 H   0  0  0  0  0  0  0  0  0  0  0  0
   38.8827   31.6075   49.7964 H   0  0  0  0  0  0  0  0  0  0  0  0
   32.1412   25.6869   50.5784 H   0  0  0  0  0  0  0  0  0  0  0  0
   32.1410   27.0075   50.2594 S   0  0  0  0  0  0  0  0  0  0  0  0
   32.5154   27.9007   51.4266 O   0  0  0  0  0  0  0  0  0  0  0  0
   30.6757   27.3506   50.0032 O   0  0  0  0  0  0  0  0  0  0  0  0
   33.0366   27.3812   48.8182 C   0  0  0  0  0  0  0  0  0  0  0  0
   34.2764   27.9678   48.6880 C   0  0  0  0  0  0  0  0  0  0  0  0
   34.8442   28.2039   47.4755 C   0  0  0  0  0  0  0  0  0  0  0  0
   35.8056   28.6609   47.4412 H   0  0  0  0  0  0  0  0  0  0  0  0
   34.1833   27.8563   46.3185 C   0  0  0  0  0  0  0  0  0  0  0  0
   34.6383   28.0456   45.3489 H   0  0  0  0  0  0  0  0  0  0  0  0
   32.9384   27.2650   46.3809 C   0  0  0  0  0  0  0  0  0  0  0  0
   32.3890   27.0388   47.6254 C   0  0  0  0  0  0  0  0  0  0  0  0
   32.4310   26.9973   45.4649 H   0  0  0  0  0  0  0  0  0  0  0  0
   31.4072   26.5701   47.5939 H   0  0  0  0  0  0  0  0  0  0  0  0
  1  9  1  0
  2  1  2  0
  3  2  1  0
  4  3  2  0
  4  5  1  0
  5  6  2  0
  6  1  1  0
  7 12  2  0
  8  7  1  0
  9 10  1  0
  9  8  2  0
 10 11  2  0
 11 12  1  0
 13 11  1  0
 14  5  1  0
 14 15  1  0
 16 14  1  0
 17 14  1  0
  2 18  1  0
  3 19  1  0
  7 20  1  0
  8 21  1  0
 22 23  1  0
 23 24  2  0
 23 25  2  0
 23 26  1  0
 26 27  2  0
 27 28  1  0
 28 29  1  0
 28 30  2  0
 30 31  1  0
 30 32  1  0
 32 33  2  0
 33 26  1  0
 32 34  1  0
 33 35  1  0
 13 27  1  0
M  ISO  7  18  14  19  14  20  14  21  14  22  12  29  15  31  16
M  END
>  <DihAtoms>  (1) 
10,12,26,25

>  <DihDeg>  (1) 
61.17817223432527

$$$$
