
 OpenBabel03272509363D

 50 54  0  0  1  0  0  0  0  0999 V2000
   36.9250   28.2280   30.3830 C   0  0  0  0  0  0  0  0  0  0  0  0
   37.7960   27.5710   31.2990 C   0  0  0  0  0  0  0  0  0  0  0  0
   37.6160   27.7580   32.6350 C   0  0  0  0  0  0  0  0  0  0  0  0
   36.5760   28.5920   33.0020 N   0  0  0  0  0  0  0  0  0  0  0  0
   35.7670   29.2020   32.1310 C   0  0  0  0  0  0  0  0  0  0  0  0
   35.9250   29.0320   30.8100 N   0  0  0  0  0  0  0  0  0  0  0  0
   37.0600   28.0840   29.3180 H   0  0  0  0  0  0  0  0  0  0  0  0
   38.5610   26.9520   30.8750 H   0  0  0  0  0  0  0  0  0  0  0  0
   38.5190   27.0980   33.6120 C   0  0  1  0  0  0  0  0  0  0  0  0
   38.1560   27.2090   35.0490 C   0  0  0  0  0  0  0  0  0  0  0  0
   37.7650   25.9590   34.4330 C   0  0  2  0  0  0  0  0  0  0  0  0
   39.4800   26.7820   33.2320 H   0  0  0  0  0  0  0  0  0  0  0  0
   37.2930   27.9390   35.2450 H   0  0  0  0  0  0  0  0  0  0  0  0
   39.0290   27.4900   35.6260 H   0  0  0  0  0  0  0  0  0  0  0  0
   36.8810   25.6810   33.8720 H   0  0  0  0  0  0  0  0  0  0  0  0
   38.6130   24.8210   34.9230 C   0  0  0  0  0  0  0  0  0  0  0  0
   39.4510   24.3650   33.8990 C   0  0  0  0  0  0  0  0  0  0  0  0
   40.3840   23.3940   34.1600 C   0  0  0  0  0  0  0  0  0  0  0  0
   40.5230   22.8400   35.4390 C   0  0  0  0  0  0  0  0  0  0  0  0
   39.6760   23.3180   36.4270 C   0  0  0  0  0  0  0  0  0  0  0  0
   39.7060   22.8570   37.7170 C   0  0  0  0  0  0  0  0  0  0  0  0
   38.8740   23.3120   38.7090 C   0  0  0  0  0  0  0  0  0  0  0  0
   37.9470   24.2960   38.3930 C   0  0  0  0  0  0  0  0  0  0  0  0
   37.9150   24.7620   37.0960 C   0  0  0  0  0  0  0  0  0  0  0  0
   38.7700   24.2750   36.1340 C   0  0  0  0  0  0  0  0  0  0  0  0
   39.6040   24.5830   32.8630 H   0  0  0  0  0  0  0  0  0  0  0  0
   41.1060   22.9240   33.5060 H   0  0  0  0  0  0  0  0  0  0  0  0
   41.2110   22.0740   35.7790 H   0  0  0  0  0  0  0  0  0  0  0  0
   40.4270   22.0870   37.9790 H   0  0  0  0  0  0  0  0  0  0  0  0
   38.9430   22.9100   39.7150 H   0  0  0  0  0  0  0  0  0  0  0  0
   37.2670   24.6960   39.1180 H   0  0  0  0  0  0  0  0  0  0  0  0
   37.1700   25.5440   36.8650 H   0  0  0  0  0  0  0  0  0  0  0  0
   34.6790   30.0840   32.6950 C   0  0  0  0  0  0  0  0  0  0  0  0
   34.9560   31.1360   32.7320 H   0  0  0  0  0  0  0  0  0  0  0  0
   33.7620   29.9690   32.0690 H   0  0  0  0  0  0  0  0  0  0  0  0
   34.3080   29.5110   34.0750 C   0  0  0  0  0  0  0  0  0  0  0  0
   35.0030   28.6880   34.3190 H   0  0  0  0  0  0  0  0  0  0  0  0
   33.3110   29.0690   34.0110 H   0  0  0  0  0  0  0  0  0  0  0  0
   33.3180   30.7130   35.9150 C   0  0  0  0  0  0  0  0  0  0  0  0
   34.4320   30.5680   35.1150 C   0  0  0  0  0  0  0  0  0  0  0  0
   35.5430   31.3620   35.3090 C   0  0  0  0  0  0  0  0  0  0  0  0
   36.3920   31.2070   34.6510 H   0  0  0  0  0  0  0  0  0  0  0  0
   35.5680   32.3210   36.3080 C   0  0  0  0  0  0  0  0  0  0  0  0
   36.4610   32.9460   36.4490 H   0  0  0  0  0  0  0  0  0  0  0  0
   34.4560   32.4710   37.1130 C   0  0  0  0  0  3  0  0  0  0  0  0
   33.3320   31.6710   36.9190 C   0  0  0  0  0  3  0  0  0  0  0  0
   31.2940   29.7450   34.6010 H   0  0  0  0  0  0  0  0  0  0  0  0
   31.8130   29.8340   35.8580 S   0  0  0  0  0  0  0  0  0  0  0  0
   30.7770   30.5870   36.6710 O   0  0  0  0  0  0  0  0  0  0  0  0
   31.9240   28.4670   36.5110 O   0  0  0  0  0  0  0  0  0  0  0  0
  1  6  2  0  0  0  0
  1  2  1  0  0  0  0
  2  3  2  0  0  0  0
  3  4  1  0  0  0  0
  3  9  1  0  0  0  0
  5 33  1  0  0  0  0
  5  4  2  0  0  0  0
  6  5  1  0  0  0  0
  7  1  1  0  0  0  0
  8  2  1  0  0  0  0
  9 12  1  6  0  0  0
  9 11  1  0  0  0  0
  9 10  1  0  0  0  0
 10 13  1  0  0  0  0
 10 14  1  0  0  0  0
 11 15  1  6  0  0  0
 11 16  1  0  0  0  0
 11 10  1  0  0  0  0
 16 25  1  0  0  0  0
 17 18  1  0  0  0  0
 17 16  2  0  0  0  0
 18 19  2  0  0  0  0
 19 28  1  0  0  0  0
 19 20  1  0  0  0  0
 20 21  1  0  0  0  0
 21 29  1  0  0  0  0
 21 22  2  0  0  0  0
 22 30  1  0  0  0  0
 23 22  1  0  0  0  0
 23 31  1  0  0  0  0
 24 23  2  0  0  0  0
 25 20  2  0  0  0  0
 25 24  1  0  0  0  0
 26 17  1  0  0  0  0
 27 18  1  0  0  0  0
 32 24  1  0  0  0  0
 33 34  1  0  0  0  0
 33 36  1  0  0  0  0
 35 33  1  0  0  0  0
 36 37  1  0  0  0  0
 36 40  1  0  0  0  0
 38 36  1  0  0  0  0
 39 46  1  0  0  0  0
 40 41  1  0  0  0  0
 40 39  2  0  0  0  0
 41 43  2  0  0  0  0
 42 41  1  0  0  0  0
 43 44  1  0  0  0  0
 43 45  1  0  0  0  0
 46 45  2  0  0  0  0
 47 48  1  0  0  0  0
 48 39  1  0  0  0  0
 48 50  2  0  0  0  0
 48 49  2  0  0  0  0
M  END
>  <minimizedAffinity>
-7.13713026

$$$$

 OpenBabel03272509363D

 50 54  0  0  1  0  0  0  0  0999 V2000
   37.3660   27.0640   31.0710 C   0  0  0  0  0  0  0  0  0  0  0  0
   38.0910   26.5990   32.2050 C   0  0  0  0  0  0  0  0  0  0  0  0
   37.8650   27.1740   33.4180 C   0  0  0  0  0  0  0  0  0  0  0  0
   36.9260   28.1890   33.4480 N   0  0  0  0  0  0  0  0  0  0  0  0
   36.2540   28.6160   32.3750 C   0  0  0  0  0  0  0  0  0  0  0  0
   36.4610   28.0630   31.1700 N   0  0  0  0  0  0  0  0  0  0  0  0
   37.5390   26.6120   30.1020 H   0  0  0  0  0  0  0  0  0  0  0  0
   38.7890   25.8040   32.0370 H   0  0  0  0  0  0  0  0  0  0  0  0
   38.6170   26.7200   34.6150 C   0  0  1  0  0  0  0  0  0  0  0  0
   38.0600   27.0860   35.9430 C   0  0  0  0  0  0  0  0  0  0  0  0
   37.7470   25.7380   35.5190 C   0  0  2  0  0  0  0  0  0  0  0  0
   39.6190   26.3560   34.4360 H   0  0  0  0  0  0  0  0  0  0  0  0
   37.1840   27.8250   35.8800 H   0  0  0  0  0  0  0  0  0  0  0  0
   38.8470   27.4820   36.5730 H   0  0  0  0  0  0  0  0  0  0  0  0
   36.9470   25.3470   34.9020 H   0  0  0  0  0  0  0  0  0  0  0  0
   38.5080   24.7230   36.3220 C   0  0  0  0  0  0  0  0  0  0  0  0
   38.0350   24.6940   37.6400 C   0  0  0  0  0  0  0  0  0  0  0  0
   38.5240   23.7640   38.5210 C   0  0  0  0  0  0  0  0  0  0  0  0
   39.4950   22.8320   38.1350 C   0  0  0  0  0  0  0  0  0  0  0  0
   39.9380   22.8910   36.8230 C   0  0  0  0  0  0  0  0  0  0  0  0
   40.8880   22.0400   36.3210 C   0  0  0  0  0  0  0  0  0  0  0  0
   41.3430   22.0850   35.0270 C   0  0  0  0  0  0  0  0  0  0  0  0
   40.8170   23.0460   34.1750 C   0  0  0  0  0  0  0  0  0  0  0  0
   39.8610   23.9030   34.6770 C   0  0  0  0  0  0  0  0  0  0  0  0
   39.4340   23.8200   35.9830 C   0  0  0  0  0  0  0  0  0  0  0  0
   37.3170   25.2330   38.2210 H   0  0  0  0  0  0  0  0  0  0  0  0
   38.2830   23.5930   39.5610 H   0  0  0  0  0  0  0  0  0  0  0  0
   39.9630   22.0520   38.7250 H   0  0  0  0  0  0  0  0  0  0  0  0
   41.3090   21.2830   36.9770 H   0  0  0  0  0  0  0  0  0  0  0  0
   42.0980   21.3840   34.6830 H   0  0  0  0  0  0  0  0  0  0  0  0
   41.1280   23.1370   33.1530 H   0  0  0  0  0  0  0  0  0  0  0  0
   39.4550   24.6590   33.9820 H   0  0  0  0  0  0  0  0  0  0  0  0
   35.2640   29.7370   32.5770 C   0  0  0  0  0  0  0  0  0  0  0  0
   35.7350   30.7140   32.6620 H   0  0  0  0  0  0  0  0  0  0  0  0
   34.5510   29.7470   31.7180 H   0  0  0  0  0  0  0  0  0  0  0  0
   34.4160   29.3690   33.8090 C   0  0  0  0  0  0  0  0  0  0  0  0
   34.7610   28.3970   34.2040 H   0  0  0  0  0  0  0  0  0  0  0  0
   33.3820   29.2260   33.4880 H   0  0  0  0  0  0  0  0  0  0  0  0
   33.4750   30.5720   35.6740 C   0  0  0  0  0  0  0  0  0  0  0  0
   34.5800   30.4030   34.8660 C   0  0  0  0  0  0  0  0  0  0  0  0
   35.7190   31.1550   35.0700 C   0  0  0  0  0  0  0  0  0  0  0  0
   36.5590   30.9810   34.4060 H   0  0  0  0  0  0  0  0  0  0  0  0
   35.7800   32.0940   36.0850 C   0  0  0  0  0  0  0  0  0  0  0  0
   36.6960   32.6850   36.2330 H   0  0  0  0  0  0  0  0  0  0  0  0
   34.6770   32.2690   36.8970 C   0  0  0  0  0  3  0  0  0  0  0  0
   33.5260   31.5120   36.6940 C   0  0  0  0  0  3  0  0  0  0  0  0
   31.3920   29.7390   34.3600 H   0  0  0  0  0  0  0  0  0  0  0  0
   31.9400   29.7470   35.6080 S   0  0  0  0  0  0  0  0  0  0  0  0
   30.9470   30.4920   36.4810 O   0  0  0  0  0  0  0  0  0  0  0  0
   32.0180   28.3470   36.1890 O   0  0  0  0  0  0  0  0  0  0  0  0
  1  6  2  0  0  0  0
  1  2  1  0  0  0  0
  2  3  2  0  0  0  0
  3  4  1  0  0  0  0
  3  9  1  0  0  0  0
  5 33  1  0  0  0  0
  5  4  2  0  0  0  0
  6  5  1  0  0  0  0
  7  1  1  0  0  0  0
  8  2  1  0  0  0  0
  9 12  1  6  0  0  0
  9 11  1  0  0  0  0
  9 10  1  0  0  0  0
 10 14  1  0  0  0  0
 11 15  1  6  0  0  0
 11 10  1  0  0  0  0
 11 16  1  0  0  0  0
 13 10  1  0  0  0  0
 16 17  1  0  0  0  0
 17 26  1  0  0  0  0
 17 18  2  0  0  0  0
 18 27  1  0  0  0  0
 19 18  1  0  0  0  0
 19 28  1  0  0  0  0
 20 19  2  0  0  0  0
 21 20  1  0  0  0  0
 21 29  1  0  0  0  0
 22 21  2  0  0  0  0
 23 24  2  0  0  0  0
 23 22  1  0  0  0  0
 24 25  1  0  0  0  0
 25 16  2  0  0  0  0
 25 20  1  0  0  0  0
 30 22  1  0  0  0  0
 31 23  1  0  0  0  0
 32 24  1  0  0  0  0
 33 34  1  0  0  0  0
 33 36  1  0  0  0  0
 35 33  1  0  0  0  0
 36 37  1  0  0  0  0
 36 40  1  0  0  0  0
 38 36  1  0  0  0  0
 39 46  1  0  0  0  0
 40 41  1  0  0  0  0
 40 39  2  0  0  0  0
 41 43  2  0  0  0  0
 42 41  1  0  0  0  0
 43 44  1  0  0  0  0
 43 45  1  0  0  0  0
 46 45  2  0  0  0  0
 47 48  1  0  0  0  0
 48 39  1  0  0  0  0
 48 50  2  0  0  0  0
 48 49  2  0  0  0  0
M  END
>  <minimizedAffinity>
-7.05621481

$$$$

 OpenBabel03272509363D

 50 54  0  0  1  0  0  0  0  0999 V2000
   36.1070   25.6830   31.1400 C   0  0  0  0  0  0  0  0  0  0  0  0
   35.9750   26.9990   31.6680 C   0  0  0  0  0  0  0  0  0  0  0  0
   36.5940   27.3090   32.8400 C   0  0  0  0  0  0  0  0  0  0  0  0
   37.3180   26.2920   33.4370 N   0  0  0  0  0  0  0  0  0  0  0  0
   37.4330   25.0620   32.9300 C   0  0  0  0  0  0  0  0  0  0  0  0
   36.8320   24.7350   31.7760 N   0  0  0  0  0  0  0  0  0  0  0  0
   35.6200   25.4280   30.2070 H   0  0  0  0  0  0  0  0  0  0  0  0
   35.3820   27.6880   31.1000 H   0  0  0  0  0  0  0  0  0  0  0  0
   36.4600   28.6680   33.4220 C   0  0  1  0  0  0  0  0  0  0  0  0
   35.7030   29.6710   32.6280 C   0  0  0  0  0  0  0  0  0  0  0  0
   34.9340   29.0470   33.6850 C   0  0  2  0  0  0  0  0  0  0  0  0
   37.1040   28.8920   34.2610 H   0  0  0  0  0  0  0  0  0  0  0  0
   35.4430   29.3110   31.5700 H   0  0  0  0  0  0  0  0  0  0  0  0
   36.2570   30.6010   32.5880 H   0  0  0  0  0  0  0  0  0  0  0  0
   34.3680   28.1250   33.7120 H   0  0  0  0  0  0  0  0  0  0  0  0
   34.6730   30.0090   34.8080 C   0  0  0  0  0  0  0  0  0  0  0  0
   35.8330   30.7350   35.1050 C   0  0  0  0  0  0  0  0  0  0  0  0
   35.7900   31.7430   36.0340 C   0  0  0  0  0  0  0  0  0  0  0  0
   34.6030   32.0700   36.7020 C   0  0  0  0  0  0  0  0  0  0  0  0
   33.4750   31.3300   36.3800 C   0  0  0  0  0  0  0  0  0  0  0  0
   32.2550   31.5470   36.9640 C   0  0  0  0  0  0  0  0  0  0  0  0
   31.1280   30.8230   36.6650 C   0  0  0  0  0  0  0  0  0  0  0  0
   31.2240   29.8130   35.7170 C   0  0  0  0  0  0  0  0  0  0  0  0
   32.4510   29.5930   35.1280 C   0  0  0  0  0  0  0  0  0  0  0  0
   33.5550   30.3450   35.4610 C   0  0  0  0  0  0  0  0  0  0  0  0
   36.8500   30.7450   34.7750 H   0  0  0  0  0  0  0  0  0  0  0  0
   36.5720   32.4010   36.3880 H   0  0  0  0  0  0  0  0  0  0  0  0
   34.4310   32.8350   37.4510 H   0  0  0  0  0  0  0  0  0  0  0  0
   32.1640   32.3340   37.7080 H   0  0  0  0  0  0  0  0  0  0  0  0
   30.1850   31.0380   37.1590 H   0  0  0  0  0  0  0  0  0  0  0  0
   30.3840   29.2090   35.4360 H   0  0  0  0  0  0  0  0  0  0  0  0
   32.5070   28.7850   34.3770 H   0  0  0  0  0  0  0  0  0  0  0  0
   38.2590   24.0650   33.7070 C   0  0  0  0  0  0  0  0  0  0  0  0
   37.6580   23.3110   34.2100 H   0  0  0  0  0  0  0  0  0  0  0  0
   38.9680   23.5620   33.0070 H   0  0  0  0  0  0  0  0  0  0  0  0
   39.1430   24.8750   34.6740 C   0  0  0  0  0  0  0  0  0  0  0  0
   38.4940   25.4690   35.3410 H   0  0  0  0  0  0  0  0  0  0  0  0
   39.7300   25.5890   34.0920 H   0  0  0  0  0  0  0  0  0  0  0  0
   39.3560   23.5290   36.6630 C   0  0  0  0  0  0  0  0  0  0  0  0
   39.9670   23.9530   35.5020 C   0  0  0  0  0  0  0  0  0  0  0  0
   41.2390   23.5230   35.1810 C   0  0  0  0  0  0  0  0  0  0  0  0
   41.6730   23.8870   34.2570 H   0  0  0  0  0  0  0  0  0  0  0  0
   41.9290   22.6590   36.0150 C   0  0  0  0  0  0  0  0  0  0  0  0
   42.9420   22.3270   35.7450 H   0  0  0  0  0  0  0  0  0  0  0  0
   41.3230   22.2310   37.1790 C   0  0  0  0  0  3  0  0  0  0  0  0
   40.0390   22.6640   37.5050 C   0  0  0  0  0  3  0  0  0  0  0  0
   37.2130   25.0020   36.6350 H   0  0  0  0  0  0  0  0  0  0  0  0
   37.7720   23.9350   37.2720 S   0  0  0  0  0  0  0  0  0  0  0  0
   37.9010   24.3530   38.7250 O   0  0  0  0  0  0  0  0  0  0  0  0
   36.8380   22.7380   37.2770 O   0  0  0  0  0  0  0  0  0  0  0  0
  1  2  2  0  0  0  0
  1  6  1  0  0  0  0
  2  3  1  0  0  0  0
  3  9  1  0  0  0  0
  3  4  2  0  0  0  0
  5  4  1  0  0  0  0
  5 33  1  0  0  0  0
  6  5  2  0  0  0  0
  7  1  1  0  0  0  0
  8  2  1  0  0  0  0
  9 11  1  0  0  0  0
  9 12  1  1  0  0  0
 10  9  1  0  0  0  0
 10 11  1  0  0  0  0
 11 15  1  6  0  0  0
 11 16  1  0  0  0  0
 13 10  1  0  0  0  0
 14 10  1  0  0  0  0
 16 17  2  0  0  0  0
 16 25  1  0  0  0  0
 17 18  1  0  0  0  0
 18 27  1  0  0  0  0
 18 19  2  0  0  0  0
 19 28  1  0  0  0  0
 20 19  1  0  0  0  0
 20 21  1  0  0  0  0
 21 29  1  0  0  0  0
 22 21  2  0  0  0  0
 22 30  1  0  0  0  0
 23 22  1  0  0  0  0
 24 25  1  0  0  0  0
 24 23  2  0  0  0  0
 25 20  2  0  0  0  0
 26 17  1  0  0  0  0
 31 23  1  0  0  0  0
 32 24  1  0  0  0  0
 33 34  1  0  0  0  0
 33 36  1  0  0  0  0
 35 33  1  0  0  0  0
 36 37  1  0  0  0  0
 36 40  1  0  0  0  0
 38 36  1  0  0  0  0
 39 48  1  0  0  0  0
 39 46  1  0  0  0  0
 40 39  2  0  0  0  0
 41 40  1  0  0  0  0
 41 43  2  0  0  0  0
 42 41  1  0  0  0  0
 43 45  1  0  0  0  0
 44 43  1  0  0  0  0
 45 46  2  0  0  0  0
 47 48  1  0  0  0  0
 48 50  2  0  0  0  0
 48 49  2  0  0  0  0
M  END
>  <minimizedAffinity>
-7.03952932

$$$$

 OpenBabel03272509363D

 50 54  0  0  1  0  0  0  0  0999 V2000
   39.0510   22.9810   37.0930 C   0  0  0  0  0  0  0  0  0  0  0  0
   38.3320   24.2020   36.9420 C   0  0  0  0  0  0  0  0  0  0  0  0
   38.1700   24.7260   35.6960 C   0  0  0  0  0  0  0  0  0  0  0  0
   38.7320   24.0120   34.6530 N   0  0  0  0  0  0  0  0  0  0  0  0
   39.4040   22.8670   34.8100 C   0  0  0  0  0  0  0  0  0  0  0  0
   39.5750   22.3320   36.0290 N   0  0  0  0  0  0  0  0  0  0  0  0
   39.1840   22.5560   38.0800 H   0  0  0  0  0  0  0  0  0  0  0  0
   37.9510   24.6490   37.8370 H   0  0  0  0  0  0  0  0  0  0  0  0
   37.4390   26.0050   35.5110 C   0  0  1  0  0  0  0  0  0  0  0  0
   38.1910   27.2580   35.7820 C   0  0  0  0  0  0  0  0  0  0  0  0
   38.1080   26.9060   34.3800 C   0  0  2  0  0  0  0  0  0  0  0  0
   36.3660   25.9290   35.4130 H   0  0  0  0  0  0  0  0  0  0  0  0
   39.2180   27.0780   36.2620 H   0  0  0  0  0  0  0  0  0  0  0  0
   37.5930   27.9180   36.3990 H   0  0  0  0  0  0  0  0  0  0  0  0
   38.7210   26.2590   33.7650 H   0  0  0  0  0  0  0  0  0  0  0  0
   37.1890   27.8340   33.6390 C   0  0  0  0  0  0  0  0  0  0  0  0
   36.3490   28.5040   34.5370 C   0  0  0  0  0  0  0  0  0  0  0  0
   35.4970   29.4760   34.0800 C   0  0  0  0  0  0  0  0  0  0  0  0
   35.4440   29.8230   32.7240 C   0  0  0  0  0  0  0  0  0  0  0  0
   36.2920   29.1390   31.8660 C   0  0  0  0  0  0  0  0  0  0  0  0
   36.3340   29.3800   30.5180 C   0  0  0  0  0  0  0  0  0  0  0  0
   37.1610   28.7120   29.6510 C   0  0  0  0  0  0  0  0  0  0  0  0
   38.0050   27.7350   30.1630 C   0  0  0  0  0  0  0  0  0  0  0  0
   37.9650   27.4920   31.5190 C   0  0  0  0  0  0  0  0  0  0  0  0
   37.1170   28.1880   32.3510 C   0  0  0  0  0  0  0  0  0  0  0  0
   36.1650   28.4870   35.5900 H   0  0  0  0  0  0  0  0  0  0  0  0
   34.7860   30.0900   34.6160 H   0  0  0  0  0  0  0  0  0  0  0  0
   34.8230   30.5650   32.2350 H   0  0  0  0  0  0  0  0  0  0  0  0
   35.6790   30.1420   30.1030 H   0  0  0  0  0  0  0  0  0  0  0  0
   37.1530   28.9440   28.5900 H   0  0  0  0  0  0  0  0  0  0  0  0
   38.6750   27.1750   29.5420 H   0  0  0  0  0  0  0  0  0  0  0  0
   38.6430   26.7110   31.9060 H   0  0  0  0  0  0  0  0  0  0  0  0
   39.9580   22.2120   33.5680 C   0  0  0  0  0  0  0  0  0  0  0  0
   40.3430   22.9260   32.8430 H   0  0  0  0  0  0  0  0  0  0  0  0
   40.7760   21.5130   33.8650 H   0  0  0  0  0  0  0  0  0  0  0  0
   38.8410   21.3180   32.9990 C   0  0  0  0  0  0  0  0  0  0  0  0
   38.3350   20.8010   33.8330 H   0  0  0  0  0  0  0  0  0  0  0  0
   39.2980   20.5420   32.3810 H   0  0  0  0  0  0  0  0  0  0  0  0
   36.5400   21.7140   32.3970 C   0  0  0  0  0  0  0  0  0  0  0  0
   37.8420   22.1510   32.2750 C   0  0  0  0  0  0  0  0  0  0  0  0
   38.1380   23.2760   31.5330 C   0  0  0  0  0  0  0  0  0  0  0  0
   39.1790   23.5750   31.4690 H   0  0  0  0  0  0  0  0  0  0  0  0
   37.1380   23.9920   30.8960 C   0  0  0  0  0  0  0  0  0  0  0  0
   37.3910   24.8860   30.3080 H   0  0  0  0  0  0  0  0  0  0  0  0
   35.8320   23.5600   31.0140 C   0  0  0  0  0  3  0  0  0  0  0  0
   35.5310   22.4240   31.7620 C   0  0  0  0  0  3  0  0  0  0  0  0
   36.8160   19.2990   33.3180 H   0  0  0  0  0  0  0  0  0  0  0  0
   35.9310   20.3340   33.2720 S   0  0  0  0  0  0  0  0  0  0  0  0
   34.7140   19.7930   32.5440 O   0  0  0  0  0  0  0  0  0  0  0  0
   35.4390   20.7070   34.6590 O   0  0  0  0  0  0  0  0  0  0  0  0
  1  7  1  0  0  0  0
  2  1  1  0  0  0  0
  2  8  1  0  0  0  0
  3  2  2  0  0  0  0
  4  5  2  0  0  0  0
  4  3  1  0  0  0  0
  5  6  1  0  0  0  0
  6  1  2  0  0  0  0
  9 12  1  1  0  0  0
  9  3  1  0  0  0  0
  9 10  1  0  0  0  0
 10 13  1  0  0  0  0
 10 14  1  0  0  0  0
 11 15  1  6  0  0  0
 11  9  1  0  0  0  0
 11 10  1  0  0  0  0
 16 11  1  0  0  0  0
 16 17  1  0  0  0  0
 17 26  1  0  0  0  0
 18 17  2  0  0  0  0
 18 27  1  0  0  0  0
 19 18  1  0  0  0  0
 20 25  1  0  0  0  0
 20 19  2  0  0  0  0
 21 20  1  0  0  0  0
 22 23  1  0  0  0  0
 22 21  2  0  0  0  0
 23 24  2  0  0  0  0
 24 32  1  0  0  0  0
 24 25  1  0  0  0  0
 25 16  2  0  0  0  0
 28 19  1  0  0  0  0
 29 21  1  0  0  0  0
 30 22  1  0  0  0  0
 31 23  1  0  0  0  0
 33 35  1  0  0  0  0
 33  5  1  0  0  0  0
 34 33  1  0  0  0  0
 36 33  1  0  0  0  0
 36 37  1  0  0  0  0
 38 36  1  0  0  0  0
 39 48  1  0  0  0  0
 40 39  1  0  0  0  0
 40 36  1  0  0  0  0
 41 40  2  0  0  0  0
 42 41  1  0  0  0  0
 43 45  2  0  0  0  0
 43 41  1  0  0  0  0
 44 43  1  0  0  0  0
 45 46  1  0  0  0  0
 46 39  2  0  0  0  0
 48 47  1  0  0  0  0
 48 50  2  0  0  0  0
 49 48  2  0  0  0  0
M  END
>  <minimizedAffinity>
-6.86168528

$$$$

 OpenBabel03272509363D

 50 54  0  0  1  0  0  0  0  0999 V2000
   40.0990   27.1750   31.0940 C   0  0  0  0  0  0  0  0  0  0  0  0
   40.1130   26.8390   32.4780 C   0  0  0  0  0  0  0  0  0  0  0  0
   38.9970   27.0600   33.2250 C   0  0  0  0  0  0  0  0  0  0  0  0
   37.9140   27.6070   32.5600 N   0  0  0  0  0  0  0  0  0  0  0  0
   37.9160   27.9170   31.2600 C   0  0  0  0  0  0  0  0  0  0  0  0
   39.0050   27.7070   30.5050 N   0  0  0  0  0  0  0  0  0  0  0  0
   40.9830   27.0010   30.4910 H   0  0  0  0  0  0  0  0  0  0  0  0
   41.0220   26.4220   32.8630 H   0  0  0  0  0  0  0  0  0  0  0  0
   38.9880   26.7340   34.6740 C   0  0  1  0  0  0  0  0  0  0  0  0
   37.6640   26.6690   35.3430 C   0  0  0  0  0  0  0  0  0  0  0  0
   38.2030   25.3800   34.9670 C   0  0  2  0  0  0  0  0  0  0  0  0
   39.9420   26.7900   35.1780 H   0  0  0  0  0  0  0  0  0  0  0  0
   36.8010   27.0410   34.6830 H   0  0  0  0  0  0  0  0  0  0  0  0
   37.6960   27.2240   36.2740 H   0  0  0  0  0  0  0  0  0  0  0  0
   38.1510   24.8230   34.0400 H   0  0  0  0  0  0  0  0  0  0  0  0
   38.6460   24.6020   36.1720 C   0  0  0  0  0  0  0  0  0  0  0  0
   37.8280   24.8990   37.2690 C   0  0  0  0  0  0  0  0  0  0  0  0
   37.9940   24.2210   38.4490 C   0  0  0  0  0  0  0  0  0  0  0  0
   38.9710   23.2270   38.5900 C   0  0  0  0  0  0  0  0  0  0  0  0
   39.7600   22.9600   37.4820 C   0  0  0  0  0  0  0  0  0  0  0  0
   40.7540   22.0160   37.4890 C   0  0  0  0  0  0  0  0  0  0  0  0
   41.5500   21.7400   36.4050 C   0  0  0  0  0  0  0  0  0  0  0  0
   41.3420   22.4550   35.2340 C   0  0  0  0  0  0  0  0  0  0  0  0
   40.3430   23.4050   35.2240 C   0  0  0  0  0  0  0  0  0  0  0  0
   39.5690   23.6480   36.3360 C   0  0  0  0  0  0  0  0  0  0  0  0
   37.0140   25.5620   37.4760 H   0  0  0  0  0  0  0  0  0  0  0  0
   37.4650   24.3130   39.3880 H   0  0  0  0  0  0  0  0  0  0  0  0
   39.2060   22.6210   39.4570 H   0  0  0  0  0  0  0  0  0  0  0  0
   40.9280   21.4490   38.3990 H   0  0  0  0  0  0  0  0  0  0  0  0
   42.3230   20.9800   36.4680 H   0  0  0  0  0  0  0  0  0  0  0  0
   41.9270   22.2900   34.3510 H   0  0  0  0  0  0  0  0  0  0  0  0
   40.1930   23.9620   34.2820 H   0  0  0  0  0  0  0  0  0  0  0  0
   36.6520   28.5090   30.6870 C   0  0  0  0  0  0  0  0  0  0  0  0
   36.8370   29.2010   29.8670 H   0  0  0  0  0  0  0  0  0  0  0  0
   35.9970   27.6800   30.3260 H   0  0  0  0  0  0  0  0  0  0  0  0
   35.8890   29.1550   31.8580 C   0  0  0  0  0  0  0  0  0  0  0  0
   36.2360   28.7040   32.8040 H   0  0  0  0  0  0  0  0  0  0  0  0
   34.8300   28.9040   31.7630 H   0  0  0  0  0  0  0  0  0  0  0  0
   35.9130   31.2110   33.1170 C   0  0  0  0  0  0  0  0  0  0  0  0
   36.1590   30.6180   31.8960 C   0  0  0  0  0  0  0  0  0  0  0  0
   36.6210   31.3660   30.8330 C   0  0  0  0  0  0  0  0  0  0  0  0
   36.7980   30.8500   29.8960 H   0  0  0  0  0  0  0  0  0  0  0  0
   36.8470   32.7260   30.9650 C   0  0  0  0  0  0  0  0  0  0  0  0
   37.2150   33.3080   30.1080 H   0  0  0  0  0  0  0  0  0  0  0  0
   36.6030   33.3260   32.1840 C   0  0  0  0  0  3  0  0  0  0  0  0
   36.1360   32.5730   33.2600 C   0  0  0  0  0  3  0  0  0  0  0  0
   35.3510   29.1150   34.5490 H   0  0  0  0  0  0  0  0  0  0  0  0
   35.3310   30.4770   34.5880 S   0  0  0  0  0  0  0  0  0  0  0  0
   33.8740   30.8550   34.7790 O   0  0  0  0  0  0  0  0  0  0  0  0
   36.0510   31.0080   35.8150 O   0  0  0  0  0  0  0  0  0  0  0  0
  1  2  1  0  0  0  0
  2  8  1  0  0  0  0
  2  3  2  0  0  0  0
  3  9  1  0  0  0  0
  4  3  1  0  0  0  0
  5  4  2  0  0  0  0
  6  1  2  0  0  0  0
  6  5  1  0  0  0  0
  7  1  1  0  0  0  0
  9 11  1  0  0  0  0
  9 12  1  1  0  0  0
  9 10  1  0  0  0  0
 10 14  1  0  0  0  0
 11 15  1  6  0  0  0
 11 10  1  0  0  0  0
 11 16  1  0  0  0  0
 13 10  1  0  0  0  0
 16 25  2  0  0  0  0
 16 17  1  0  0  0  0
 17 26  1  0  0  0  0
 17 18  2  0  0  0  0
 18 19  1  0  0  0  0
 18 27  1  0  0  0  0
 19 28  1  0  0  0  0
 20 21  1  0  0  0  0
 20 19  2  0  0  0  0
 21 29  1  0  0  0  0
 22 30  1  0  0  0  0
 22 21  2  0  0  0  0
 23 22  1  0  0  0  0
 24 23  2  0  0  0  0
 24 25  1  0  0  0  0
 25 20  1  0  0  0  0
 31 23  1  0  0  0  0
 32 24  1  0  0  0  0
 33  5  1  0  0  0  0
 33 36  1  0  0  0  0
 34 33  1  0  0  0  0
 35 33  1  0  0  0  0
 36 40  1  0  0  0  0
 36 37  1  0  0  0  0
 38 36  1  0  0  0  0
 39 46  1  0  0  0  0
 39 48  1  0  0  0  0
 40 39  2  0  0  0  0
 41 43  2  0  0  0  0
 41 40  1  0  0  0  0
 42 41  1  0  0  0  0
 43 45  1  0  0  0  0
 44 43  1  0  0  0  0
 45 46  2  0  0  0  0
 47 48  1  0  0  0  0
 48 49  2  0  0  0  0
 48 50  2  0  0  0  0
M  END
>  <minimizedAffinity>
-6.74979258

$$$$

 OpenBabel03272509363D

 50 54  0  0  1  0  0  0  0  0999 V2000
   38.9760   26.9700   30.8600 C   0  0  0  0  0  0  0  0  0  0  0  0
   39.3220   26.6150   32.1960 C   0  0  0  0  0  0  0  0  0  0  0  0
   38.5600   27.0780   33.2240 C   0  0  0  0  0  0  0  0  0  0  0  0
   37.4850   27.8760   32.8770 N   0  0  0  0  0  0  0  0  0  0  0  0
   37.1720   28.2010   31.6190 C   0  0  0  0  0  0  0  0  0  0  0  0
   37.9090   27.7550   30.5910 N   0  0  0  0  0  0  0  0  0  0  0  0
   39.5770   26.6050   30.0360 H   0  0  0  0  0  0  0  0  0  0  0  0
   40.1830   25.9890   32.3190 H   0  0  0  0  0  0  0  0  0  0  0  0
   38.9070   26.7370   34.6270 C   0  0  1  0  0  0  0  0  0  0  0  0
   37.8720   26.9980   35.6610 C   0  0  0  0  0  0  0  0  0  0  0  0
   37.9350   25.6210   35.2180 C   0  0  2  0  0  0  0  0  0  0  0  0
   39.9510   26.5380   34.8230 H   0  0  0  0  0  0  0  0  0  0  0  0
   36.9720   27.5900   35.2650 H   0  0  0  0  0  0  0  0  0  0  0  0
   38.3200   27.5080   36.5060 H   0  0  0  0  0  0  0  0  0  0  0  0
   37.4700   25.1150   34.3820 H   0  0  0  0  0  0  0  0  0  0  0  0
   38.5130   24.7330   36.2810 C   0  0  0  0  0  0  0  0  0  0  0  0
   37.8420   24.9290   37.4950 C   0  0  0  0  0  0  0  0  0  0  0  0
   38.1430   24.1440   38.5780 C   0  0  0  0  0  0  0  0  0  0  0  0
   39.1130   23.1370   38.5030 C   0  0  0  0  0  0  0  0  0  0  0  0
   39.7550   22.9710   37.2840 C   0  0  0  0  0  0  0  0  0  0  0  0
   40.7260   22.0260   37.0800 C   0  0  0  0  0  0  0  0  0  0  0  0
   41.3760   21.8490   35.8840 C   0  0  0  0  0  0  0  0  0  0  0  0
   41.0350   22.6700   34.8190 C   0  0  0  0  0  0  0  0  0  0  0  0
   40.0580   23.6210   35.0220 C   0  0  0  0  0  0  0  0  0  0  0  0
   39.4330   23.7630   36.2400 C   0  0  0  0  0  0  0  0  0  0  0  0
   37.0720   25.5740   37.8620 H   0  0  0  0  0  0  0  0  0  0  0  0
   37.7370   24.1500   39.5800 H   0  0  0  0  0  0  0  0  0  0  0  0
   39.4460   22.4520   39.2740 H   0  0  0  0  0  0  0  0  0  0  0  0
   41.0030   21.3760   37.9050 H   0  0  0  0  0  0  0  0  0  0  0  0
   42.1390   21.0820   35.7800 H   0  0  0  0  0  0  0  0  0  0  0  0
   41.5040   22.5860   33.8590 H   0  0  0  0  0  0  0  0  0  0  0  0
   39.8020   24.2650   34.1610 H   0  0  0  0  0  0  0  0  0  0  0  0
   35.9660   29.0840   31.4100 C   0  0  0  0  0  0  0  0  0  0  0  0
   35.9790   29.6080   30.4570 H   0  0  0  0  0  0  0  0  0  0  0  0
   35.0450   28.4550   31.4700 H   0  0  0  0  0  0  0  0  0  0  0  0
   35.8930   30.0350   32.6190 C   0  0  0  0  0  0  0  0  0  0  0  0
   36.0150   31.0740   32.2660 H   0  0  0  0  0  0  0  0  0  0  0  0
   36.7410   29.8270   33.2760 H   0  0  0  0  0  0  0  0  0  0  0  0
   34.5020   30.4930   34.5340 C   0  0  0  0  0  0  0  0  0  0  0  0
   34.5690   29.9080   33.2870 C   0  0  0  0  0  0  0  0  0  0  0  0
   33.4690   29.2720   32.7500 C   0  0  0  0  0  0  0  0  0  0  0  0
   33.5760   28.8290   31.7660 H   0  0  0  0  0  0  0  0  0  0  0  0
   32.2740   29.2070   33.4470 C   0  0  0  0  0  0  0  0  0  0  0  0
   31.4060   28.6970   33.0050 H   0  0  0  0  0  0  0  0  0  0  0  0
   32.1990   29.7910   34.6960 C   0  0  0  0  0  3  0  0  0  0  0  0
   33.3090   30.4330   35.2410 C   0  0  0  0  0  3  0  0  0  0  0  0
   36.8540   30.5770   35.6390 H   0  0  0  0  0  0  0  0  0  0  0  0
   35.7500   31.3410   35.4090 S   0  0  0  0  0  0  0  0  0  0  0  0
   35.2190   31.7090   36.7820 O   0  0  0  0  0  0  0  0  0  0  0  0
   36.1140   32.6600   34.7500 O   0  0  0  0  0  0  0  0  0  0  0  0
  1  2  1  0  0  0  0
  2  8  1  0  0  0  0
  2  3  2  0  0  0  0
  3  9  1  0  0  0  0
  4  3  1  0  0  0  0
  5  4  2  0  0  0  0
  6  1  2  0  0  0  0
  6  5  1  0  0  0  0
  7  1  1  0  0  0  0
  9 12  1  1  0  0  0
  9 11  1  0  0  0  0
  9 10  1  0  0  0  0
 10 14  1  0  0  0  0
 11 15  1  6  0  0  0
 11 10  1  0  0  0  0
 11 16  1  0  0  0  0
 13 10  1  0  0  0  0
 16 17  1  0  0  0  0
 17 26  1  0  0  0  0
 17 18  2  0  0  0  0
 18 27  1  0  0  0  0
 19 18  1  0  0  0  0
 19 28  1  0  0  0  0
 20 19  2  0  0  0  0
 21 20  1  0  0  0  0
 21 29  1  0  0  0  0
 22 21  2  0  0  0  0
 23 24  2  0  0  0  0
 23 22  1  0  0  0  0
 24 25  1  0  0  0  0
 25 16  2  0  0  0  0
 25 20  1  0  0  0  0
 30 22  1  0  0  0  0
 31 23  1  0  0  0  0
 32 24  1  0  0  0  0
 33 35  1  0  0  0  0
 33  5  1  0  0  0  0
 33 36  1  0  0  0  0
 34 33  1  0  0  0  0
 36 38  1  0  0  0  0
 36 40  1  0  0  0  0
 37 36  1  0  0  0  0
 39 46  1  0  0  0  0
 39 48  1  0  0  0  0
 40 39  2  0  0  0  0
 41 40  1  0  0  0  0
 41 43  2  0  0  0  0
 42 41  1  0  0  0  0
 43 45  1  0  0  0  0
 44 43  1  0  0  0  0
 45 46  2  0  0  0  0
 48 47  1  0  0  0  0
 48 49  2  0  0  0  0
 50 48  2  0  0  0  0
M  END
>  <minimizedAffinity>
-6.74001122

$$$$

 OpenBabel03272509363D

 50 54  0  0  1  0  0  0  0  0999 V2000
   38.9780   23.0820   37.2280 C   0  0  0  0  0  0  0  0  0  0  0  0
   38.3370   24.3380   37.0270 C   0  0  0  0  0  0  0  0  0  0  0  0
   38.0610   24.7450   35.7570 C   0  0  0  0  0  0  0  0  0  0  0  0
   38.4360   23.8830   34.7430 N   0  0  0  0  0  0  0  0  0  0  0  0
   39.0360   22.7070   34.9480 C   0  0  0  0  0  0  0  0  0  0  0  0
   39.3180   22.2860   36.1900 N   0  0  0  0  0  0  0  0  0  0  0  0
   39.2000   22.7490   38.2350 H   0  0  0  0  0  0  0  0  0  0  0  0
   38.1030   24.9050   37.9050 H   0  0  0  0  0  0  0  0  0  0  0  0
   37.4080   26.0570   35.5170 C   0  0  1  0  0  0  0  0  0  0  0  0
   38.2360   27.2720   35.7270 C   0  0  0  0  0  0  0  0  0  0  0  0
   38.1230   26.8630   34.3430 C   0  0  2  0  0  0  0  0  0  0  0  0
   36.3310   26.0420   35.4270 H   0  0  0  0  0  0  0  0  0  0  0  0
   39.2530   27.0510   36.2120 H   0  0  0  0  0  0  0  0  0  0  0  0
   37.6840   27.9950   36.3160 H   0  0  0  0  0  0  0  0  0  0  0  0
   38.6910   26.1520   33.7560 H   0  0  0  0  0  0  0  0  0  0  0  0
   37.2580   27.8100   33.5640 C   0  0  0  0  0  0  0  0  0  0  0  0
   36.3780   28.4810   34.4220 C   0  0  0  0  0  0  0  0  0  0  0  0
   35.5640   29.4700   33.9320 C   0  0  0  0  0  0  0  0  0  0  0  0
   35.5900   29.8320   32.5790 C   0  0  0  0  0  0  0  0  0  0  0  0
   36.4740   29.1460   31.7600 C   0  0  0  0  0  0  0  0  0  0  0  0
   36.5930   29.4010   30.4190 C   0  0  0  0  0  0  0  0  0  0  0  0
   37.4580   28.7310   29.5900 C   0  0  0  0  0  0  0  0  0  0  0  0
   38.2600   27.7380   30.1360 C   0  0  0  0  0  0  0  0  0  0  0  0
   38.1430   27.4810   31.4860 C   0  0  0  0  0  0  0  0  0  0  0  0
   37.2600   28.1790   32.2780 C   0  0  0  0  0  0  0  0  0  0  0  0
   36.1370   28.4560   35.4640 H   0  0  0  0  0  0  0  0  0  0  0  0
   34.8330   30.0870   34.4350 H   0  0  0  0  0  0  0  0  0  0  0  0
   35.0060   30.5870   32.0650 H   0  0  0  0  0  0  0  0  0  0  0  0
   35.9720   30.1750   29.9780 H   0  0  0  0  0  0  0  0  0  0  0  0
   37.5110   28.9750   28.5330 H   0  0  0  0  0  0  0  0  0  0  0  0
   38.9570   27.1760   29.5470 H   0  0  0  0  0  0  0  0  0  0  0  0
   38.7890   26.6870   31.9000 H   0  0  0  0  0  0  0  0  0  0  0  0
   39.3830   21.8830   33.7310 C   0  0  0  0  0  0  0  0  0  0  0  0
   40.4490   21.8670   33.5140 H   0  0  0  0  0  0  0  0  0  0  0  0
   39.0250   20.8380   33.8900 H   0  0  0  0  0  0  0  0  0  0  0  0
   38.5400   22.4330   32.5650 C   0  0  0  0  0  0  0  0  0  0  0  0
   39.1610   22.4510   31.6520 H   0  0  0  0  0  0  0  0  0  0  0  0
   38.2780   23.4700   32.7850 H   0  0  0  0  0  0  0  0  0  0  0  0
   36.3170   22.1650   31.6720 C   0  0  0  0  0  0  0  0  0  0  0  0
   37.3640   21.5520   32.3280 C   0  0  0  0  0  0  0  0  0  0  0  0
   37.2760   20.2290   32.7090 C   0  0  0  0  0  0  0  0  0  0  0  0
   38.1280   19.7970   33.2220 H   0  0  0  0  0  0  0  0  0  0  0  0
   36.1380   19.4860   32.4410 C   0  0  0  0  0  0  0  0  0  0  0  0
   36.0840   18.4320   32.7520 H   0  0  0  0  0  0  0  0  0  0  0  0
   35.0860   20.0930   31.7840 C   0  0  0  0  0  3  0  0  0  0  0  0
   35.1720   21.4290   31.3990 C   0  0  0  0  0  3  0  0  0  0  0  0
   35.1680   24.0000   30.2330 H   0  0  0  0  0  0  0  0  0  0  0  0
   36.2000   23.8090   31.1010 S   0  0  0  0  0  0  0  0  0  0  0  0
   37.4550   24.1430   30.3160 O   0  0  0  0  0  0  0  0  0  0  0  0
   36.1590   24.8080   32.2430 O   0  0  0  0  0  0  0  0  0  0  0  0
  1  7  1  0  0  0  0
  2  1  1  0  0  0  0
  2  8  1  0  0  0  0
  3  2  2  0  0  0  0
  4  5  2  0  0  0  0
  4  3  1  0  0  0  0
  5  6  1  0  0  0  0
  6  1  2  0  0  0  0
  9 12  1  1  0  0  0
  9 10  1  0  0  0  0
  9  3  1  0  0  0  0
 10 13  1  0  0  0  0
 10 14  1  0  0  0  0
 11 15  1  6  0  0  0
 11  9  1  0  0  0  0
 11 10  1  0  0  0  0
 16 11  1  0  0  0  0
 16 17  1  0  0  0  0
 17 26  1  0  0  0  0
 18 17  2  0  0  0  0
 18 27  1  0  0  0  0
 19 18  1  0  0  0  0
 20 25  1  0  0  0  0
 20 19  2  0  0  0  0
 21 20  1  0  0  0  0
 22 23  1  0  0  0  0
 22 21  2  0  0  0  0
 23 24  2  0  0  0  0
 24 32  1  0  0  0  0
 24 25  1  0  0  0  0
 25 16  2  0  0  0  0
 28 19  1  0  0  0  0
 29 21  1  0  0  0  0
 30 22  1  0  0  0  0
 31 23  1  0  0  0  0
 33 35  1  0  0  0  0
 33  5  1  0  0  0  0
 34 33  1  0  0  0  0
 36 38  1  0  0  0  0
 36 33  1  0  0  0  0
 37 36  1  0  0  0  0
 39 40  1  0  0  0  0
 40 36  1  0  0  0  0
 40 41  2  0  0  0  0
 41 42  1  0  0  0  0
 43 41  1  0  0  0  0
 43 44  1  0  0  0  0
 45 43  2  0  0  0  0
 46 39  2  0  0  0  0
 46 45  1  0  0  0  0
 47 48  1  0  0  0  0
 48 39  1  0  0  0  0
 48 50  2  0  0  0  0
 49 48  2  0  0  0  0
M  END
>  <minimizedAffinity>
-6.68494225

$$$$

 OpenBabel03272509363D

 50 54  0  0  1  0  0  0  0  0999 V2000
   37.7350   29.5750   29.9020 C   0  0  0  0  0  0  0  0  0  0  0  0
   38.0700   28.2290   30.2210 C   0  0  0  0  0  0  0  0  0  0  0  0
   37.4860   27.6380   31.3000 C   0  0  0  0  0  0  0  0  0  0  0  0
   36.5940   28.4150   32.0150 N   0  0  0  0  0  0  0  0  0  0  0  0
   36.2890   29.6780   31.7030 C   0  0  0  0  0  0  0  0  0  0  0  0
   36.8520   30.2800   30.6440 N   0  0  0  0  0  0  0  0  0  0  0  0
   38.1930   30.0530   29.0450 H   0  0  0  0  0  0  0  0  0  0  0  0
   38.7790   27.7440   29.5800 H   0  0  0  0  0  0  0  0  0  0  0  0
   37.8290   26.2400   31.6650 C   0  0  1  0  0  0  0  0  0  0  0  0
   36.8540   25.5040   32.5110 C   0  0  0  0  0  0  0  0  0  0  0  0
   36.7590   25.2050   31.0980 C   0  0  2  0  0  0  0  0  0  0  0  0
   38.8510   25.9380   31.4820 H   0  0  0  0  0  0  0  0  0  0  0  0
   36.0120   26.1700   32.9180 H   0  0  0  0  0  0  0  0  0  0  0  0
   37.3730   25.0090   33.3230 H   0  0  0  0  0  0  0  0  0  0  0  0
   36.2230   25.6940   30.2950 H   0  0  0  0  0  0  0  0  0  0  0  0
   37.2650   23.8230   30.7990 C   0  0  0  0  0  0  0  0  0  0  0  0
   38.4910   23.8900   30.1260 C   0  0  0  0  0  0  0  0  0  0  0  0
   39.1810   22.7390   29.8450 C   0  0  0  0  0  0  0  0  0  0  0  0
   38.6880   21.4830   30.2190 C   0  0  0  0  0  0  0  0  0  0  0  0
   37.4720   21.4570   30.8850 C   0  0  0  0  0  0  0  0  0  0  0  0
   36.8790   20.2930   31.3000 C   0  0  0  0  0  0  0  0  0  0  0  0
   35.6740   20.2440   31.9550 C   0  0  0  0  0  0  0  0  0  0  0  0
   35.0150   21.4380   32.2150 C   0  0  0  0  0  0  0  0  0  0  0  0
   35.6100   22.6100   31.7990 C   0  0  0  0  0  0  0  0  0  0  0  0
   36.8200   22.6100   31.1440 C   0  0  0  0  0  0  0  0  0  0  0  0
   39.1220   24.6600   29.7350 H   0  0  0  0  0  0  0  0  0  0  0  0
   40.1270   22.5970   29.3410 H   0  0  0  0  0  0  0  0  0  0  0  0
   39.1270   20.5040   30.0600 H   0  0  0  0  0  0  0  0  0  0  0  0
   37.3830   19.3510   31.1030 H   0  0  0  0  0  0  0  0  0  0  0  0
   35.2500   19.2920   32.2620 H   0  0  0  0  0  0  0  0  0  0  0  0
   34.0710   21.4720   32.7220 H   0  0  0  0  0  0  0  0  0  0  0  0
   35.0690   23.5480   32.0150 H   0  0  0  0  0  0  0  0  0  0  0  0
   35.2950   30.3910   32.5880 C   0  0  0  0  0  0  0  0  0  0  0  0
   35.4900   31.4580   32.6790 H   0  0  0  0  0  0  0  0  0  0  0  0
   34.2700   30.2400   32.1720 H   0  0  0  0  0  0  0  0  0  0  0  0
   35.2990   29.6610   33.9440 C   0  0  0  0  0  0  0  0  0  0  0  0
   36.3170   29.2850   34.1450 H   0  0  0  0  0  0  0  0  0  0  0  0
   34.6520   28.7840   33.8680 H   0  0  0  0  0  0  0  0  0  0  0  0
   33.6080   30.4670   35.4610 C   0  0  0  0  0  0  0  0  0  0  0  0
   34.9110   30.6020   35.0290 C   0  0  0  0  0  0  0  0  0  0  0  0
   35.7430   31.5460   35.5950 C   0  0  0  0  0  0  0  0  0  0  0  0
   36.7580   31.6100   35.2170 H   0  0  0  0  0  0  0  0  0  0  0  0
   35.2920   32.3780   36.6060 C   0  0  0  0  0  0  0  0  0  0  0  0
   35.9680   33.1250   37.0460 H   0  0  0  0  0  0  0  0  0  0  0  0
   33.9890   32.2480   37.0430 C   0  0  0  0  0  3  0  0  0  0  0  0
   33.1470   31.2960   36.4740 C   0  0  0  0  0  3  0  0  0  0  0  0
   32.7340   28.7100   33.7560 H   0  0  0  0  0  0  0  0  0  0  0  0
   32.3840   29.3580   34.9020 S   0  0  0  0  0  0  0  0  0  0  0  0
   31.1340   30.1450   34.5550 O   0  0  0  0  0  0  0  0  0  0  0  0
   31.9590   28.3810   35.9850 O   0  0  0  0  0  0  0  0  0  0  0  0
  1  2  2  0  0  0  0
  1  6  1  0  0  0  0
  2  3  1  0  0  0  0
  3  9  1  0  0  0  0
  3  4  2  0  0  0  0
  5  4  1  0  0  0  0
  5 33  1  0  0  0  0
  6  5  2  0  0  0  0
  7  1  1  0  0  0  0
  8  2  1  0  0  0  0
  9 12  1  1  0  0  0
  9 10  1  0  0  0  0
 10 13  1  0  0  0  0
 10 14  1  0  0  0  0
 11 15  1  6  0  0  0
 11  9  1  0  0  0  0
 11 10  1  0  0  0  0
 16 11  1  0  0  0  0
 16 25  1  0  0  0  0
 17 16  2  0  0  0  0
 18 17  1  0  0  0  0
 18 19  2  0  0  0  0
 19 20  1  0  0  0  0
 20 25  2  0  0  0  0
 20 21  1  0  0  0  0
 21 22  2  0  0  0  0
 22 23  1  0  0  0  0
 22 30  1  0  0  0  0
 23 31  1  0  0  0  0
 24 32  1  0  0  0  0
 24 23  2  0  0  0  0
 25 24  1  0  0  0  0
 26 17  1  0  0  0  0
 27 18  1  0  0  0  0
 28 19  1  0  0  0  0
 29 21  1  0  0  0  0
 33 34  1  0  0  0  0
 33 36  1  0  0  0  0
 35 33  1  0  0  0  0
 36 37  1  0  0  0  0
 36 40  1  0  0  0  0
 38 36  1  0  0  0  0
 39 46  1  0  0  0  0
 40 39  2  0  0  0  0
 40 41  1  0  0  0  0
 41 43  2  0  0  0  0
 42 41  1  0  0  0  0
 43 45  1  0  0  0  0
 43 44  1  0  0  0  0
 46 45  2  0  0  0  0
 47 48  1  0  0  0  0
 48 39  1  0  0  0  0
 48 50  2  0  0  0  0
 49 48  2  0  0  0  0
M  END
>  <minimizedAffinity>
-6.44842243

$$$$

 OpenBabel03272509363D

 50 54  0  0  1  0  0  0  0  0999 V2000
   36.3180   28.0900   31.1060 C   0  0  0  0  0  0  0  0  0  0  0  0
   36.8680   26.8090   31.3970 C   0  0  0  0  0  0  0  0  0  0  0  0
   37.0970   26.4640   32.6940 C   0  0  0  0  0  0  0  0  0  0  0  0
   36.7680   27.4120   33.6460 N   0  0  0  0  0  0  0  0  0  0  0  0
   36.2530   28.6110   33.3580 C   0  0  0  0  0  0  0  0  0  0  0  0
   36.0180   28.9710   32.0870 N   0  0  0  0  0  0  0  0  0  0  0  0
   36.1310   28.3720   30.0770 H   0  0  0  0  0  0  0  0  0  0  0  0
   37.0760   26.1730   30.5600 H   0  0  0  0  0  0  0  0  0  0  0  0
   37.6850   25.1420   33.0250 C   0  0  1  0  0  0  0  0  0  0  0  0
   38.9530   24.7760   32.3420 C   0  0  0  0  0  0  0  0  0  0  0  0
   39.1280   25.2880   33.6850 C   0  0  2  0  0  0  0  0  0  0  0  0
   37.0410   24.4560   33.5580 H   0  0  0  0  0  0  0  0  0  0  0  0
   39.2470   25.5070   31.5070 H   0  0  0  0  0  0  0  0  0  0  0  0
   38.8820   23.7660   31.9560 H   0  0  0  0  0  0  0  0  0  0  0  0
   39.2150   26.2990   34.0610 H   0  0  0  0  0  0  0  0  0  0  0  0
   39.5380   24.1990   34.6340 C   0  0  0  0  0  0  0  0  0  0  0  0
   40.4800   23.3580   34.0280 C   0  0  0  0  0  0  0  0  0  0  0  0
   41.0660   22.3530   34.7540 C   0  0  0  0  0  0  0  0  0  0  0  0
   40.7460   22.1430   36.1020 C   0  0  0  0  0  0  0  0  0  0  0  0
   39.8110   22.9980   36.6660 C   0  0  0  0  0  0  0  0  0  0  0  0
   39.4070   22.8960   37.9720 C   0  0  0  0  0  0  0  0  0  0  0  0
   38.4800   23.7280   38.5490 C   0  0  0  0  0  0  0  0  0  0  0  0
   37.9150   24.7280   37.7710 C   0  0  0  0  0  0  0  0  0  0  0  0
   38.3200   24.8330   36.4570 C   0  0  0  0  0  0  0  0  0  0  0  0
   39.2540   23.9750   35.9210 C   0  0  0  0  0  0  0  0  0  0  0  0
   40.9350   23.2660   33.0650 H   0  0  0  0  0  0  0  0  0  0  0  0
   41.8010   21.6160   34.4610 H   0  0  0  0  0  0  0  0  0  0  0  0
   41.1300   21.3940   36.7850 H   0  0  0  0  0  0  0  0  0  0  0  0
   39.8410   22.1170   38.5940 H   0  0  0  0  0  0  0  0  0  0  0  0
   38.1970   23.6010   39.5900 H   0  0  0  0  0  0  0  0  0  0  0  0
   37.1860   25.4110   38.1580 H   0  0  0  0  0  0  0  0  0  0  0  0
   37.8590   25.6350   35.8550 H   0  0  0  0  0  0  0  0  0  0  0  0
   35.9510   29.5320   34.5150 C   0  0  0  0  0  0  0  0  0  0  0  0
   35.8100   29.0050   35.4570 H   0  0  0  0  0  0  0  0  0  0  0  0
   36.7900   30.2600   34.6240 H   0  0  0  0  0  0  0  0  0  0  0  0
   34.7270   30.3740   34.1090 C   0  0  0  0  0  0  0  0  0  0  0  0
   34.3250   29.9860   33.1570 H   0  0  0  0  0  0  0  0  0  0  0  0
   35.0590   31.3970   33.9130 H   0  0  0  0  0  0  0  0  0  0  0  0
   33.7160   31.2700   36.1050 C   0  0  0  0  0  0  0  0  0  0  0  0
   33.6720   30.2740   35.1530 C   0  0  0  0  0  0  0  0  0  0  0  0
   32.7040   29.2920   35.2090 C   0  0  0  0  0  0  0  0  0  0  0  0
   32.7140   28.5330   34.4350 H   0  0  0  0  0  0  0  0  0  0  0  0
   31.7570   29.2830   36.2200 C   0  0  0  0  0  0  0  0  0  0  0  0
   30.9930   28.4930   36.2510 H   0  0  0  0  0  0  0  0  0  0  0  0
   31.7960   30.2780   37.1770 C   0  0  0  0  0  3  0  0  0  0  0  0
   32.7720   31.2700   37.1230 C   0  0  0  0  0  3  0  0  0  0  0  0
   36.1290   32.1990   36.3800 H   0  0  0  0  0  0  0  0  0  0  0  0
   34.8350   32.6010   36.2390 S   0  0  0  0  0  0  0  0  0  0  0  0
   34.5150   33.3830   37.5000 O   0  0  0  0  0  0  0  0  0  0  0  0
   34.6830   33.5930   35.0990 O   0  0  0  0  0  0  0  0  0  0  0  0
  1  2  2  0  0  0  0
  1  6  1  0  0  0  0
  2  3  1  0  0  0  0
  3  9  1  0  0  0  0
  3  4  2  0  0  0  0
  5  4  1  0  0  0  0
  5 33  1  0  0  0  0
  6  5  2  0  0  0  0
  7  1  1  0  0  0  0
  8  2  1  0  0  0  0
  9 12  1  1  0  0  0
  9 11  1  0  0  0  0
 10  9  1  0  0  0  0
 10 11  1  0  0  0  0
 11 15  1  1  0  0  0
 11 16  1  0  0  0  0
 13 10  1  0  0  0  0
 14 10  1  0  0  0  0
 16 25  1  0  0  0  0
 17 16  2  0  0  0  0
 17 18  1  0  0  0  0
 18 19  2  0  0  0  0
 19 20  1  0  0  0  0
 19 28  1  0  0  0  0
 20 21  1  0  0  0  0
 21 22  2  0  0  0  0
 21 29  1  0  0  0  0
 22 30  1  0  0  0  0
 23 31  1  0  0  0  0
 23 22  1  0  0  0  0
 24 23  2  0  0  0  0
 25 24  1  0  0  0  0
 25 20  2  0  0  0  0
 26 17  1  0  0  0  0
 27 18  1  0  0  0  0
 32 24  1  0  0  0  0
 33 35  1  0  0  0  0
 33 34  1  0  0  0  0
 36 33  1  0  0  0  0
 36 40  1  0  0  0  0
 37 36  1  0  0  0  0
 38 36  1  0  0  0  0
 39 48  1  0  0  0  0
 39 46  1  0  0  0  0
 40 41  1  0  0  0  0
 40 39  2  0  0  0  0
 41 43  2  0  0  0  0
 42 41  1  0  0  0  0
 43 44  1  0  0  0  0
 43 45  1  0  0  0  0
 46 45  2  0  0  0  0
 48 47  1  0  0  0  0
 48 49  2  0  0  0  0
 50 48  2  0  0  0  0
M  END
>  <minimizedAffinity>
-6.43474865

$$$$
