REMARK  Name = 
REMARK  8 active torsions:
REMARK  status: ('A' for Active; 'I' for Inactive)
REMARK    1  A    between atoms: C_3  and  C_12
REMARK    2  A    between atoms: C_7  and  C_14
REMARK    3  A    between atoms: C_14  and  C_15
REMARK    4  A    between atoms: C_15  and  N_16
REMARK    5  A    between atoms: N_16  and  C_17
REMARK    6  A    between atoms: C_17  and  C_18
REMARK    7  A    between atoms: C_18  and  C_39
REMARK    8  A    between atoms: S_35  and  C_38
REMARK                            x       y       z     vdW  Elec       q    Type
REMARK                         _______ _______ _______ _____ _____    ______ ____
ROOT
ATOM      1  C   UNL     1      34.107  29.353  49.547  0.00  0.00    +0.000 C 
ATOM      2  H   UNL     1      33.901  29.473  50.666  0.00  0.00    +0.000 HD
ATOM      3  H   UNL     1      33.184  29.648  49.089  0.00  0.00    +0.000 HD
ENDROOT
BRANCH   1   4
ATOM      4  C   UNL     1      35.217  30.308  49.296  0.00  0.00    +0.000 C 
ATOM      5  H   UNL     1      36.084  30.039  49.939  0.00  0.00    +0.000 HD
ATOM      6  H   UNL     1      34.902  31.335  49.638  0.00  0.00    +0.000 HD
BRANCH   4  13
ATOM      7 BR   UNL     1      38.127  31.470  48.941  0.00  0.00    +0.000 Br
ATOM      8  C   UNL     1      36.931  30.878  47.547  0.00  0.00    +0.000 A 
ATOM      9  C   UNL     1      37.307  30.935  46.226  0.00  0.00    +0.000 A 
ATOM     10  C   UNL     1      36.419  30.506  45.290  0.00  0.00    +0.000 A 
ATOM     11  C   UNL     1      35.165  30.022  45.628  0.00  0.00    +0.000 A 
ATOM     12  C   UNL     1      34.814  29.978  46.974  0.00  0.00    +0.000 A 
ATOM     13  C   UNL     1      35.703  30.407  47.922  0.00  0.00    +0.000 A 
ATOM     14  H   UNL     1      36.768  30.571  44.248  0.00  0.00    +0.000 HD
ATOM     15  H   UNL     1      34.581  29.724  44.772  0.00  0.00    +0.000 HD
ATOM     16  H   UNL     1      33.831  29.601  47.039  0.00  0.00    +0.000 HD
BRANCH   9  21
ATOM     17  C   UNL     1      39.877  33.281  45.116  0.00  0.00    +0.000 A 
ATOM     18  C   UNL     1      41.071  32.487  45.101  0.00  0.00    +0.000 A 
ATOM     19  C   UNL     1      40.947  31.175  45.473  0.00  0.00    +0.000 A 
ATOM     20  N   UNL     1      39.721  30.665  45.840  0.00  0.00    +0.000 NA
ATOM     21  C   UNL     1      38.628  31.451  45.838  0.00  0.00    +0.000 A 
ATOM     22  N   UNL     1      38.720  32.741  45.478  0.00  0.00    +0.000 NA
ATOM     23  H   UNL     1      40.026  34.307  44.815  0.00  0.00    +0.000 HD
ATOM     24  H   UNL     1      42.052  32.818  44.828  0.00  0.00    +0.000 HD
ATOM     25  H   UNL     1      41.718  30.421  45.528  0.00  0.00    +0.000 HD
ENDBRANCH   9  21
ENDBRANCH   4  13
ENDBRANCH   1   4
BRANCH   1  26
ATOM     26  N   UNL     1      34.597  28.032  49.416  0.00  0.00    +0.000 NA
ATOM     27  H   UNL     1      35.631  27.968  49.371  0.00  0.00    +0.000 HD
BRANCH  26  28
ATOM     28  C   UNL     1      33.905  27.142  48.553  0.00  0.00    +0.000 C 
ATOM     29  H   UNL     1      34.327  27.086  47.552  0.00  0.00    +0.000 HD
ATOM     30  H   UNL     1      33.984  26.110  48.987  0.00  0.00    +0.000 HD
BRANCH  28  31
ATOM     31  C   UNL     1      32.470  27.572  48.508  0.00  0.00    +0.000 C 
ATOM     32  H   UNL     1      31.983  27.517  49.517  0.00  0.00    +0.000 HD
ATOM     33  H   UNL     1      32.216  28.473  47.969  0.00  0.00    +0.000 HD
BRANCH  31  35
ATOM     34  C   UNL     1      32.235  25.264  47.258  0.00  0.00    +0.000 A 
ATOM     35  C   UNL     1      31.786  26.464  47.717  0.00  0.00    +0.000 A 
ATOM     36  C   UNL     1      30.419  26.667  47.429  0.00  0.00    +0.000 A 
ATOM     37  H   UNL     1      29.919  27.600  47.742  0.00  0.00    +0.000 HD
ATOM     38  C   UNL     1      29.566  25.809  46.770  0.00  0.00    +0.000 A 
ATOM     39  H   UNL     1      28.528  26.044  46.591  0.00  0.00    +0.000 HD
ATOM     40  C   UNL     1      30.130  24.625  46.354  0.00  0.00    +0.000 A 
ATOM     41  C   UNL     1      31.456  24.372  46.605  0.00  0.00    +0.000 A 
BRANCH  34  43
ATOM     42  H   UNL     1      34.285  24.779  48.801  0.00  0.00    +0.000 HD
ATOM     43  S   UNL     1      33.918  24.941  47.520  0.00  0.00    +0.000 S 
ATOM     44  O   UNL     1      34.271  23.692  46.714  0.00  0.00    +0.000 OA
ATOM     45  O   UNL     1      34.770  26.030  46.883  0.00  0.00    +0.000 OA
ENDBRANCH  34  43
ENDBRANCH  31  35
ENDBRANCH  28  31
ENDBRANCH  26  28
ENDBRANCH   1  26
TORSDOF 8
