
 OpenBabel03262521183D

 32 33  0  0  0  0  0  0  0  0999 V2000
   38.3820   32.2710   46.6440 C   0  0  0  0  0  0  0  0  0  0  0  0
   39.6140   32.8870   46.7200 C   0  0  0  0  0  0  0  0  0  0  0  0
   40.2630   33.2460   45.5450 C   0  0  0  0  0  0  0  0  0  0  0  0
   39.6250   32.9600   44.3700 N   0  0  0  0  0  0  0  0  0  0  0  0
   38.4230   32.3590   44.3100 C   0  0  0  0  0  0  0  0  0  0  0  0
   37.8510   32.0380   45.4430 N   0  0  0  0  0  0  0  0  0  0  0  0
   40.1490   33.1300   47.6270 H   0  0  0  0  0  0  0  0  0  0  0  0
   41.2290   33.7310   45.5430 H   0  0  0  0  0  0  0  0  0  0  0  0
   38.0580   30.9190   42.3280 C   0  0  0  0  0  0  0  0  0  0  0  0
   37.7380   32.0490   43.0760 C   0  0  0  0  0  0  0  0  0  0  0  0
   36.7250   32.8740   42.5870 C   0  0  0  0  0  0  0  0  0  0  0  0
   36.4790   33.7630   43.1840 H   0  0  0  0  0  0  0  0  0  0  0  0
   36.0260   32.6460   41.4210 C   0  0  0  0  0  0  0  0  0  0  0  0
   35.2620   33.3240   41.1090 H   0  0  0  0  0  0  0  0  0  0  0  0
   36.3250   31.5330   40.6620 C   0  0  0  0  0  0  0  0  0  0  0  0
   37.3270   30.7210   41.1500 C   0  0  0  0  0  0  0  0  0  0  0  0
   39.2760   28.7480   41.9280 H   0  0  0  0  0  0  0  0  0  0  0  0
   39.3030   29.8100   42.8310 S   0  0  0  0  0  0  0  0  0  0  0  0
   40.6870   30.3710   42.7010 O   0  0  0  0  0  0  0  0  0  0  0  0
   39.0330   29.1800   44.1630 O   0  0  0  0  0  0  0  0  0  0  0  0
   37.8380   31.9620   47.8790 O   0  0  0  0  0  0  0  0  0  0  0  0
   36.9030   30.9450   47.9390 C   0  0  0  0  0  0  0  0  0  0  0  0
   35.9420   31.3680   48.3060 H   0  0  0  0  0  0  0  0  0  0  0  0
   36.6610   30.4870   46.9460 H   0  0  0  0  0  0  0  0  0  0  0  0
   37.5600   30.1380   48.8000 C   0  0  0  0  0  0  0  0  0  0  0  0
   38.4510   29.5980   48.3790 H   0  0  0  0  0  0  0  0  0  0  0  0
   36.9090   29.2420   49.0590 H   0  0  0  0  0  0  0  0  0  0  0  0
   38.0150   30.7140   50.0990 C   0  0  0  0  0  0  0  0  0  0  0  0
   37.6790   31.7920   50.0940 H   0  0  0  0  0  0  0  0  0  0  0  0
   39.1130   30.7420   50.2350 H   0  0  0  0  0  0  0  0  0  0  0  0
   37.2470   29.9470   51.5160 S   0  0  0  0  0  0  0  0  0  0  0  0
   36.4140   28.9070   51.0380 H   0  0  0  0  0  0  0  0  0  0  0  0
  1  2  1  0  0  0  0
  1 21  1  0  0  0  0
  2  7  1  0  0  0  0
  3  2  2  0  0  0  0
  4  3  1  0  0  0  0
  5  4  2  0  0  0  0
  5  6  1  0  0  0  0
  6  1  2  0  0  0  0
  8  3  1  0  0  0  0
  9 18  1  0  0  0  0
  9 10  1  0  0  0  0
 10  5  1  0  0  0  0
 11 10  2  0  0  0  0
 11 12  1  0  0  0  0
 13 11  1  0  0  0  0
 14 13  1  0  0  0  0
 15 16  1  0  0  0  0
 15 13  2  0  0  0  0
 16  9  2  0  0  0  0
 17 18  1  0  0  0  0
 18 20  2  0  0  0  0
 19 18  2  0  0  0  0
 21 22  1  0  0  0  0
 22 23  1  0  0  0  0
 22 25  1  0  0  0  0
 24 22  1  0  0  0  0
 25 27  1  0  0  0  0
 25 28  1  0  0  0  0
 26 25  1  0  0  0  0
 28 30  1  0  0  0  0
 28 31  1  0  0  0  0
 29 28  1  0  0  0  0
 32 31  1  0  0  0  0
M  END
>  <minimizedAffinity>
-4.43748617

>  <minimizedRMSD>
1.43434465

$$$$
