
     RDKit          3D

 28 29  0  0  0  0  0  0  0  0999 V2000
   35.6372   29.0005   50.1737 C   0  0  0  0  0  0  0  0  0  0  0  0
   36.3010   30.1447   49.6414 C   0  0  0  0  0  0  0  0  0  0  0  0
   36.0455   30.5196   48.3253 C   0  0  0  0  0  0  0  0  0  0  0  0
   35.1560   29.7502   47.6128 N   0  0  0  0  0  0  0  0  0  0  0  0
   34.5401   28.6693   48.1414 C   0  0  0  0  0  0  0  0  0  0  0  0
   34.7721   28.2885   49.4139 N   0  0  0  0  0  0  0  0  0  0  0  0
   33.6777   28.0198   47.2228 N   0  0  0  0  0  0  0  0  0  0  0  0
   37.2288   30.8986   50.5348 C   0  0  0  0  0  0  0  0  0  0  0  0
   38.5278   30.7849   50.1205 F   0  0  0  0  0  0  0  0  0  0  0  0
   36.8536   32.2385   50.5026 F   0  0  0  0  0  0  0  0  0  0  0  0
   37.1733   30.4783   51.8546 F   0  0  0  0  0  0  0  0  0  0  0  0
   35.8465   28.7231   51.1884 H   0  0  0  0  0  0  0  0  0  0  0  0
   34.0969   27.1501   46.8323 H   0  0  0  0  0  0  0  0  0  0  0  0
   32.7353   28.2174   46.8685 H   0  0  0  0  0  0  0  0  0  0  0  0
   35.0949   31.5511   44.2098 H   0  0  0  0  0  0  0  0  0  0  0  0
   34.8998   31.4951   45.5766 S   0  0  0  0  0  0  0  0  0  0  0  0
   33.6586   32.3249   45.8533 O   0  0  0  0  0  0  0  0  0  0  0  0
   34.5782   30.0949   45.9370 O   0  0  0  0  0  0  0  0  0  0  0  0
   36.2499   32.1435   46.4726 C   0  0  0  0  0  0  0  0  0  0  0  0
   36.6363   31.6701   47.7063 C   0  0  0  0  0  0  0  0  0  0  0  0
   37.6946   32.2598   48.3659 C   0  0  0  0  0  0  0  0  0  0  0  0
   38.1362   31.9846   49.3366 H   0  0  0  0  0  0  0  0  0  0  0  0
   38.3990   33.3412   47.8121 C   0  0  0  0  0  0  0  0  0  0  0  0
   39.2394   33.8278   48.2949 H   0  0  0  0  0  0  0  0  0  0  0  0
   37.9607   33.7661   46.5740 C   0  0  0  0  0  0  0  0  0  0  0  0
   36.9087   33.2236   45.8572 C   0  0  0  0  0  0  0  0  0  0  0  0
   38.4975   34.6037   46.1255 H   0  0  0  0  0  0  0  0  0  0  0  0
   36.6284   33.6180   44.8935 H   0  0  0  0  0  0  0  0  0  0  0  0
  2  1  2  0
  2  8  1  0
  3  2  1  0
  4  5  1  0
  4  3  2  0
  5  6  2  0
  6  1  1  0
  7  5  1  0
  8 11  1  0
  9  8  1  0
 10  8  1  0
  1 12  1  0
  7 13  1  0
  7 14  1  0
 15 16  1  0
 16 17  2  0
 16 18  2  0
 16 19  1  0
 19 20  2  0
 20 21  1  0
 21 22  1  0
 21 23  2  0
 23 24  1  0
 23 25  1  0
 25 26  2  0
 26 19  1  0
 25 27  1  0
 26 28  1  0
  3 20  1  0
M  ISO  4  12  14  15  12  22  15  24  16
M  END
>  <DihAtoms>  (1) 
1,2,19,18

>  <DihDeg>  (1) 
-110.9525043752166

$$$$
