
 OpenBabel03272510233D

 34 37  0  0  0  0  0  0  0  0999 V2000
   35.4890   29.7250   47.0150 C   0  0  0  0  0  0  0  0  0  0  0  0
   36.5050   30.4200   47.6550 C   0  0  0  0  0  0  0  0  0  0  0  0
   37.3110   31.3000   46.9460 C   0  0  0  0  0  0  0  0  0  0  0  0
   37.0330   31.4300   45.5790 C   0  0  0  0  0  0  0  0  0  0  0  0
   37.6690   32.2150   44.6840 N   0  0  0  0  0  0  0  0  0  0  0  0
   37.1040   32.0520   43.5080 C   0  0  0  0  0  0  0  0  0  0  0  0
   36.1130   31.1720   43.6290 N   0  0  0  0  0  0  0  0  0  0  0  0
   36.0330   30.7590   44.9050 C   0  0  0  0  0  0  0  0  0  0  0  0
   35.2480   29.8880   45.6510 C   0  0  0  0  0  0  0  0  0  0  0  0
   34.8290   29.0260   47.5230 H   0  0  0  0  0  0  0  0  0  0  0  0
   38.1030   31.8450   47.4320 H   0  0  0  0  0  0  0  0  0  0  0  0
   38.4630   32.8100   44.8950 H   0  0  0  0  0  0  0  0  0  0  0  0
   34.4600   29.3520   45.1430 H   0  0  0  0  0  0  0  0  0  0  0  0
   37.8670   30.3260   51.1700 C   0  0  0  0  0  0  0  0  0  0  0  0
   37.7980   30.5940   49.8070 C   0  0  0  0  0  0  0  0  0  0  0  0
   36.6850   30.1920   49.0850 C   0  0  0  0  0  0  0  0  0  0  0  0
   35.6810   29.5400   49.7410 N   0  0  0  0  0  0  0  0  0  0  0  0
   35.7730   29.2900   51.0750 C   0  0  0  0  0  0  0  0  0  0  0  0
   36.8510   29.6810   51.7670 N   0  0  0  0  0  0  0  0  0  0  0  0
   38.7720   30.6770   51.6460 H   0  0  0  0  0  0  0  0  0  0  0  0
   38.5810   31.1030   49.2920 H   0  0  0  0  0  0  0  0  0  0  0  0
   34.9500   28.7660   51.5650 H   0  0  0  0  0  0  0  0  0  0  0  0
   36.4470   33.5060   41.5440 C   0  0  0  0  0  0  0  0  0  0  0  0
   37.2910   32.6350   42.1870 C   0  0  0  0  0  0  0  0  0  0  0  0
   38.4530   32.3980   41.4400 C   0  0  0  0  0  0  0  0  0  0  0  0
   39.2310   31.7170   41.8250 H   0  0  0  0  0  0  0  0  0  0  0  0
   38.7740   32.9300   40.2210 C   0  0  0  0  0  0  0  0  0  0  0  0
   39.6900   32.6970   39.7140 H   0  0  0  0  0  0  0  0  0  0  0  0
   37.8870   33.7960   39.6350 C   0  0  0  0  0  3  0  0  0  0  0  0
   36.7260   34.0680   40.3190 C   0  0  0  0  0  3  0  0  0  0  0  0
   34.9730   33.8990   43.5720 H   0  0  0  0  0  0  0  0  0  0  0  0
   34.9050   33.9290   42.2150 S   0  0  0  0  0  0  0  0  0  0  0  0
   33.7690   33.1160   41.6600 O   0  0  0  0  0  0  0  0  0  0  0  0
   34.5450   35.3760   41.8570 O   0  0  0  0  0  0  0  0  0  0  0  0
  1 10  1  0  0  0  0
  1  2  1  0  0  0  0
  2 16  1  0  0  0  0
  3 11  1  0  0  0  0
  3  2  2  0  0  0  0
  4  3  1  0  0  0  0
  5 12  1  0  0  0  0
  5  4  1  0  0  0  0
  6  7  2  0  0  0  0
  6  5  1  0  0  0  0
  7  8  1  0  0  0  0
  8  4  2  0  0  0  0
  8  9  1  0  0  0  0
  9  1  2  0  0  0  0
 13  9  1  0  0  0  0
 14 20  1  0  0  0  0
 14 19  1  0  0  0  0
 15 14  2  0  0  0  0
 16 17  2  0  0  0  0
 16 15  1  0  0  0  0
 17 18  1  0  0  0  0
 18 22  1  0  0  0  0
 18 19  2  0  0  0  0
 21 15  1  0  0  0  0
 23 24  1  0  0  0  0
 23 32  1  0  0  0  0
 24  6  1  0  0  0  0
 25 26  1  0  0  0  0
 25 24  2  0  0  0  0
 27 25  1  0  0  0  0
 28 27  1  0  0  0  0
 29 27  2  0  0  0  0
 29 30  1  0  0  0  0
 30 23  2  0  0  0  0
 32 31  1  0  0  0  0
 33 32  2  0  0  0  0
 34 32  2  0  0  0  0
M  END
>  <minimizedAffinity>
-5.07400751

>  <minimizedRMSD>
3.7665813

$$$$
