
 OpenBabel03272506063D

 33 35  0  0  0  0  0  0  0  0999 V2000
   34.0290   29.0960   47.8220 C   0  0  0  0  0  0  0  0  0  0  0  0
   34.0300   30.0550   46.7400 C   0  0  0  0  0  0  0  0  0  0  0  0
   32.4100   29.7960   46.0460 S   0  0  0  0  0  0  0  0  0  0  0  0
   31.9630   28.4570   47.2830 C   0  0  0  0  0  0  0  0  0  0  0  0
   32.9450   28.3860   47.9620 N   0  0  0  0  0  0  0  0  0  0  0  0
   34.8080   30.7220   46.4620 H   0  0  0  0  0  0  0  0  0  0  0  0
   30.5810   26.6070   46.5270 C   0  0  0  0  0  0  0  0  0  0  0  0
   30.6730   27.7510   47.2950 C   0  0  0  0  0  0  0  0  0  0  0  0
   29.6250   28.2390   48.0470 C   0  0  0  0  0  0  0  0  0  0  0  0
   29.7250   29.1410   48.6390 H   0  0  0  0  0  0  0  0  0  0  0  0
   28.4170   27.5900   48.0650 C   0  0  0  0  0  0  0  0  0  0  0  0
   27.5400   27.8940   48.6210 H   0  0  0  0  0  0  0  0  0  0  0  0
   28.3100   26.4410   47.3020 C   0  0  0  0  0  3  0  0  0  0  0  0
   29.3700   25.9690   46.5560 C   0  0  0  0  0  3  0  0  0  0  0  0
   33.1330   26.3980   46.2510 H   0  0  0  0  0  0  0  0  0  0  0  0
   31.9670   26.0700   45.6090 S   0  0  0  0  0  0  0  0  0  0  0  0
   31.9040   26.5890   44.2110 O   0  0  0  0  0  0  0  0  0  0  0  0
   31.9270   24.5560   45.4940 O   0  0  0  0  0  0  0  0  0  0  0  0
   35.2630   29.0110   48.6750 C   0  0  0  0  0  0  0  0  0  0  0  0
   35.2240   28.1030   49.3120 H   0  0  0  0  0  0  0  0  0  0  0  0
   36.1340   28.8610   48.0030 H   0  0  0  0  0  0  0  0  0  0  0  0
   35.3790   30.2030   49.5750 C   0  0  0  0  0  0  0  0  0  0  0  0
   35.6180   29.8990   50.6280 H   0  0  0  0  0  0  0  0  0  0  0  0
   34.4760   30.8160   49.6340 H   0  0  0  0  0  0  0  0  0  0  0  0
   37.9490   32.8820   49.4080 C   0  0  0  0  0  0  0  0  0  0  0  0
   38.7440   32.4780   48.3300 C   0  0  0  0  0  0  0  0  0  0  0  0
   38.3870   31.2930   47.6780 C   0  0  0  0  0  0  0  0  0  0  0  0
   37.3070   30.6080   48.1140 N   0  0  0  0  0  0  0  0  0  0  0  0
   36.5710   31.0430   49.1630 C   0  0  0  0  0  0  0  0  0  0  0  0
   36.8760   32.1660   49.8120 N   0  0  0  0  0  0  0  0  0  0  0  0
   38.2430   33.8050   49.9000 H   0  0  0  0  0  0  0  0  0  0  0  0
   39.6000   33.0710   48.0250 H   0  0  0  0  0  0  0  0  0  0  0  0
   38.9930   30.9790   46.8520 H   0  0  0  0  0  0  0  0  0  0  0  0
  1  5  1  0  0  0  0
  1 19  1  0  0  0  0
  2  1  2  0  0  0  0
  3  2  1  0  0  0  0
  3  4  1  0  0  0  0
  4  8  1  0  0  0  0
  4  5  2  0  0  0  0
  6  2  1  0  0  0  0
  7 14  2  0  0  0  0
  7  8  1  0  0  0  0
  8  9  2  0  0  0  0
  9 11  1  0  0  0  0
  9 10  1  0  0  0  0
 11 12  1  0  0  0  0
 13 11  2  0  0  0  0
 14 13  1  0  0  0  0
 16 15  1  0  0  0  0
 16  7  1  0  0  0  0
 17 16  2  0  0  0  0
 18 16  2  0  0  0  0
 19 20  1  0  0  0  0
 19 22  1  0  0  0  0
 21 19  1  0  0  0  0
 22 24  1  0  0  0  0
 22 23  1  0  0  0  0
 25 30  1  0  0  0  0
 25 31  1  0  0  0  0
 26 25  2  0  0  0  0
 27 28  2  0  0  0  0
 27 26  1  0  0  0  0
 28 29  1  0  0  0  0
 29 22  1  0  0  0  0
 29 30  2  0  0  0  0
 32 26  1  0  0  0  0
 33 27  1  0  0  0  0
M  END
>  <minimizedAffinity>
-4.65462303

>  <minimizedRMSD>
2.17264009

$$$$
