
 OpenBabel03272500223D

 40 42  0  0  0  0  0  0  0  0999 V2000
   34.9100   29.7640   50.4630 C   0  0  0  0  0  0  0  0  0  0  0  0
   36.1230   30.1020   49.8160 C   0  0  0  0  0  0  0  0  0  0  0  0
   36.2810   29.8150   48.4620 C   0  0  0  0  0  0  0  0  0  0  0  0
   35.2300   29.2080   47.8170 N   0  0  0  0  0  0  0  0  0  0  0  0
   34.1040   28.8970   48.4300 C   0  0  0  0  0  0  0  0  0  0  0  0
   33.9210   29.1650   49.7500 N   0  0  0  0  0  0  0  0  0  0  0  0
   34.8140   29.9970   51.5140 H   0  0  0  0  0  0  0  0  0  0  0  0
   32.7780   30.6130   46.3230 Cl  0  0  0  0  0  0  0  0  0  0  0  0
   32.3330   28.9440   46.6730 C   0  0  0  0  0  0  0  0  0  0  0  0
   33.0210   28.2490   47.6760 C   0  0  0  0  0  0  0  0  0  0  0  0
   32.7120   26.9310   47.9930 C   0  0  0  0  0  0  0  0  0  0  0  0
   31.6790   26.3400   47.2610 C   0  0  0  0  0  0  0  0  0  0  0  0
   30.9970   27.0110   46.2760 C   0  0  0  0  0  0  0  0  0  0  0  0
   29.7260   26.1540   45.4350 Cl  0  0  0  0  0  0  0  0  0  0  0  0
   31.3360   28.3220   45.9910 C   0  0  0  0  0  0  0  0  0  0  0  0
   33.2490   26.4070   48.7670 H   0  0  0  0  0  0  0  0  0  0  0  0
   31.4870   25.3110   47.5580 H   0  0  0  0  0  0  0  0  0  0  0  0
   30.6040   29.0540   44.9280 C   0  0  0  0  0  0  0  0  0  0  0  0
   29.5290   28.2850   44.4550 F   0  0  0  0  0  0  0  0  0  0  0  0
   31.4160   29.4370   43.9030 F   0  0  0  0  0  0  0  0  0  0  0  0
   30.0490   30.2000   45.4480 F   0  0  0  0  0  0  0  0  0  0  0  0
   37.1840   30.7630   50.6430 C   0  0  0  0  0  0  0  0  0  0  0  0
   38.4460   30.4950   50.1360 F   0  0  0  0  0  0  0  0  0  0  0  0
   36.9960   32.1320   50.5470 F   0  0  0  0  0  0  0  0  0  0  0  0
   37.1280   30.4310   51.9680 F   0  0  0  0  0  0  0  0  0  0  0  0
   37.5300   30.1630   47.7970 C   0  0  0  0  0  0  0  0  0  0  0  0
   38.2250   29.3060   47.6100 H   0  0  0  0  0  0  0  0  0  0  0  0
   38.1070   30.8190   48.4840 H   0  0  0  0  0  0  0  0  0  0  0  0
   38.1370   31.8650   46.0930 C   0  0  0  0  0  0  0  0  0  0  0  0
   37.3450   30.8010   46.4730 C   0  0  0  0  0  0  0  0  0  0  0  0
   36.3500   30.2860   45.6450 C   0  0  0  0  0  0  0  0  0  0  0  0
   35.7520   29.4460   45.9930 H   0  0  0  0  0  0  0  0  0  0  0  0
   36.1180   30.8250   44.4040 C   0  0  0  0  0  0  0  0  0  0  0  0
   35.3330   30.3850   43.8030 H   0  0  0  0  0  0  0  0  0  0  0  0
   36.8900   31.8920   43.9830 C   0  0  0  0  0  3  0  0  0  0  0  0
   37.8650   32.3730   44.8320 C   0  0  0  0  0  3  0  0  0  0  0  0
   40.3330   31.5760   47.4340 H   0  0  0  0  0  0  0  0  0  0  0  0
   39.3690   32.5190   47.0930 S   0  0  0  0  0  0  0  0  0  0  0  0
   40.1580   33.5250   46.2630 O   0  0  0  0  0  0  0  0  0  0  0  0
   38.9100   33.2750   48.2800 O   0  0  0  0  0  0  0  0  0  0  0  0
  1  7  1  0  0  0  0
  2  1  1  0  0  0  0
  2 22  1  0  0  0  0
  3  2  2  0  0  0  0
  4  5  2  0  0  0  0
  4  3  1  0  0  0  0
  5  6  1  0  0  0  0
  6  1  2  0  0  0  0
  8  9  1  0  0  0  0
  9 10  1  0  0  0  0
 10 11  2  0  0  0  0
 10  5  1  0  0  0  0
 11 16  1  0  0  0  0
 12 17  1  0  0  0  0
 12 11  1  0  0  0  0
 13 12  2  0  0  0  0
 14 13  1  0  0  0  0
 15 13  1  0  0  0  0
 15  9  2  0  0  0  0
 18 21  1  0  0  0  0
 18 15  1  0  0  0  0
 19 18  1  0  0  0  0
 20 18  1  0  0  0  0
 22 25  1  0  0  0  0
 23 22  1  0  0  0  0
 24 22  1  0  0  0  0
 26  3  1  0  0  0  0
 26 28  1  0  0  0  0
 27 26  1  0  0  0  0
 29 30  1  0  0  0  0
 29 38  1  0  0  0  0
 30 26  1  0  0  0  0
 31 32  1  0  0  0  0
 31 30  2  0  0  0  0
 33 31  1  0  0  0  0
 34 33  1  0  0  0  0
 35 33  2  0  0  0  0
 35 36  1  0  0  0  0
 36 29  2  0  0  0  0
 38 37  1  0  0  0  0
 38 40  2  0  0  0  0
 39 38  2  0  0  0  0
M  END
>  <minimizedAffinity>
-6.60620642

>  <minimizedRMSD>
0.98259753

$$$$
