REMARK  Name = 
REMARK  7 active torsions:
REMARK  status: ('A' for Active; 'I' for Inactive)
REMARK    1  A    between atoms: C_3  and  C_9
REMARK    2  A    between atoms: C_5  and  O_14
REMARK    3  A    between atoms: O_14  and  C_15
REMARK    4  A    between atoms: C_15  and  C_16
REMARK    5  A    between atoms: C_16  and  C_17
REMARK    6  A    between atoms: C_21  and  C_40
REMARK    7  A    between atoms: S_36  and  C_39
REMARK                            x       y       z     vdW  Elec       q    Type
REMARK                         _______ _______ _______ _____ _____    ______ ____
ROOT
ATOM      1  C   UNL     1      34.451  28.649  48.167  0.00  0.00    +0.000 C 
ATOM      2  H   UNL     1      33.970  29.644  48.128  0.00  0.00    +0.000 HD
ATOM      3  H   UNL     1      35.326  28.668  47.468  0.00  0.00    +0.000 HD
ENDROOT
BRANCH   1   4
ATOM      4  C   UNL     1      33.568  27.537  47.709  0.00  0.00    +0.000 C 
ATOM      5  H   UNL     1      33.724  26.662  48.359  0.00  0.00    +0.000 HD
ATOM      6  H   UNL     1      33.806  27.201  46.664  0.00  0.00    +0.000 HD
BRANCH   4   7
ATOM      7  C   UNL     1      32.124  27.903  47.709  0.00  0.00    +0.000 A 
ATOM      8  C   UNL     1      31.345  27.519  48.782  0.00  0.00    +0.000 A 
ATOM      9  C   UNL     1      30.018  27.812  48.859  0.00  0.00    +0.000 A 
ATOM     10  N   UNL     1      29.455  28.485  47.878  0.00  0.00    +0.000 NA
ATOM     11  C   UNL     1      30.195  28.875  46.812  0.00  0.00    +0.000 A 
ATOM     12  N   UNL     1      31.514  28.588  46.727  0.00  0.00    +0.000 NA
ATOM     13  H   UNL     1      31.813  26.966  49.586  0.00  0.00    +0.000 HD
ATOM     14  H   UNL     1      29.429  27.496  49.719  0.00  0.00    +0.000 HD
BRANCH  11  16
ATOM     15  C   UNL     1      29.846  30.987  45.564  0.00  0.00    +0.000 A 
ATOM     16  C   UNL     1      29.601  29.628  45.697  0.00  0.00    +0.000 A 
ATOM     17  C   UNL     1      28.782  28.998  44.753  0.00  0.00    +0.000 A 
ATOM     18  H   UNL     1      28.597  27.932  44.867  0.00  0.00    +0.000 HD
ATOM     19  C   UNL     1      28.210  29.672  43.696  0.00  0.00    +0.000 A 
ATOM     20  H   UNL     1      27.584  29.127  42.997  0.00  0.00    +0.000 HD
ATOM     21  C   UNL     1      28.430  31.007  43.535  0.00  0.00    +0.000 A 
ATOM     22  C   UNL     1      29.237  31.613  44.471  0.00  0.00    +0.000 A 
BRANCH  15  24
ATOM     23  H   UNL     1      30.453  31.775  47.970  0.00  0.00    +0.000 HD
ATOM     24  S   UNL     1      30.842  31.865  46.672  0.00  0.00    +0.000 S 
ATOM     25  O   UNL     1      32.282  31.436  46.458  0.00  0.00    +0.000 OA
ATOM     26  O   UNL     1      30.778  33.335  46.293  0.00  0.00    +0.000 OA
ENDBRANCH  15  24
ENDBRANCH  11  16
ENDBRANCH   4   7
ENDBRANCH   1   4
BRANCH   1  27
ATOM     27  O   UNL     1      35.002  28.351  49.439  0.00  0.00    +0.000 OA
BRANCH  27  32
ATOM     28  C   UNL     1      37.337  30.175  51.516  0.00  0.00    +0.000 A 
ATOM     29  C   UNL     1      38.064  30.862  50.510  0.00  0.00    +0.000 A 
ATOM     30  C   UNL     1      37.710  30.657  49.197  0.00  0.00    +0.000 A 
ATOM     31  N   UNL     1      36.666  29.791  48.976  0.00  0.00    +0.000 NA
ATOM     32  C   UNL     1      35.993  29.153  49.925  0.00  0.00    +0.000 A 
ATOM     33  N   UNL     1      36.338  29.352  51.215  0.00  0.00    +0.000 NA
ATOM     34  H   UNL     1      37.659  30.374  52.531  0.00  0.00    +0.000 HD
ATOM     35  H   UNL     1      38.870  31.531  50.682  0.00  0.00    +0.000 HD
BRANCH  30  38
ATOM     36  F   UNL     1      38.931  33.268  49.002  0.00  0.00    +0.000 F 
ATOM     37  C   UNL     1      38.915  32.482  47.932  0.00  0.00    +0.000 A 
ATOM     38  C   UNL     1      38.338  31.270  48.056  0.00  0.00    +0.000 A 
ATOM     39  C   UNL     1      38.375  30.520  46.869  0.00  0.00    +0.000 A 
ATOM     40  C   UNL     1      38.944  30.983  45.705  0.00  0.00    +0.000 A 
ATOM     41  C   UNL     1      39.510  32.217  45.645  0.00  0.00    +0.000 A 
ATOM     42  C   UNL     1      39.495  32.983  46.785  0.00  0.00    +0.000 A 
ATOM     43  H   UNL     1      37.950  29.519  46.807  0.00  0.00    +0.000 HD
ATOM     44  H   UNL     1      38.957  30.381  44.803  0.00  0.00    +0.000 HD
ATOM     45  H   UNL     1      39.960  32.599  44.747  0.00  0.00    +0.000 HD
ATOM     46  H   UNL     1      39.938  33.969  46.769  0.00  0.00    +0.000 HD
ENDBRANCH  30  38
ENDBRANCH  27  32
ENDBRANCH   1  27
TORSDOF 7
