
     RDKit          3D

 25 26  0  0  0  0  0  0  0  0999 V2000
   36.6305   29.7611   51.2573 C   0  0  0  0  0  0  0  0  0  0  0  0
   37.3701   30.1112   50.1274 C   0  0  0  0  0  0  0  0  0  0  0  0
   36.8062   29.7953   48.8824 C   0  0  0  0  0  0  0  0  0  0  0  0
   35.5958   29.1790   48.8628 N   0  0  0  0  0  0  0  0  0  0  0  0
   34.9174   28.8596   49.9718 C   0  0  0  0  0  0  0  0  0  0  0  0
   35.4325   29.1498   51.1847 N   0  0  0  0  0  0  0  0  0  0  0  0
   38.6354   30.7580   50.2586 N   0  0  0  0  0  0  0  0  0  0  0  0
   36.9896   29.9670   52.2552 H   0  0  0  0  0  0  0  0  0  0  0  0
   37.3671   30.0602   47.9991 H   0  0  0  0  0  0  0  0  0  0  0  0
   39.1184   30.6703   51.1634 H   0  0  0  0  0  0  0  0  0  0  0  0
   39.0082   31.2852   49.4377 H   0  0  0  0  0  0  0  0  0  0  0  0
   33.0082   31.2805   50.3606 H   0  0  0  0  0  0  0  0  0  0  0  0
   32.4742   30.2738   51.1368 S   0  0  0  0  0  0  0  0  0  0  0  0
   31.0356   30.6942   51.3880 O   0  0  0  0  0  0  0  0  0  0  0  0
   33.1410   30.2078   52.4778 O   0  0  0  0  0  0  0  0  0  0  0  0
   32.4574   28.7389   50.3185 C   0  0  0  0  0  0  0  0  0  0  0  0
   33.6153   28.1938   49.8333 C   0  0  0  0  0  0  0  0  0  0  0  0
   33.6093   26.9704   49.1797 C   0  0  0  0  0  0  0  0  0  0  0  0
   34.5047   26.5157   48.7868 H   0  0  0  0  0  0  0  0  0  0  0  0
   32.4360   26.2527   48.9919 C   0  0  0  0  0  0  0  0  0  0  0  0
   32.3585   25.2983   48.4943 H   0  0  0  0  0  0  0  0  0  0  0  0
   31.2862   26.8278   49.4918 C   0  0  0  0  0  0  0  0  0  0  0  0
   31.2638   28.0327   50.1401 C   0  0  0  0  0  0  0  0  0  0  0  0
   30.3378   26.3360   49.3872 H   0  0  0  0  0  0  0  0  0  0  0  0
   30.3443   28.4591   50.5221 H   0  0  0  0  0  0  0  0  0  0  0  0
  2  7  1  0
  2  1  2  0
  3  2  1  0
  4  3  2  0
  4  5  1  0
  5  6  2  0
  6  1  1  0
  1  8  1  0
  3  9  1  0
  7 10  1  0
  7 11  1  0
 12 13  1  0
 13 14  2  0
 13 15  2  0
 13 16  1  0
 16 17  2  0
 17 18  1  0
 18 19  1  0
 18 20  2  0
 20 21  1  0
 20 22  1  0
 22 23  2  0
 23 16  1  0
 22 24  1  0
 23 25  1  0
  5 17  1  0
M  ISO  5   8  14   9  14  12  12  19  15  21  16
M  END
>  <DihAtoms>  (1) 
3,4,16,15

>  <DihDeg>  (1) 
179.99702234019497

$$$$
