REMARK  Name = 
REMARK  3 active torsions:
REMARK  status: ('A' for Active; 'I' for Inactive)
REMARK    1  A    between atoms: C_12  and  N_13
REMARK    2  A    between atoms: C_17  and  C_41
REMARK    3  A    between atoms: S_37  and  C_40
REMARK                            x       y       z     vdW  Elec       q    Type
REMARK                         _______ _______ _______ _____ _____    ______ ____
ROOT
ATOM      1  N   UNL     1      35.396  29.598  45.572  0.00  0.00    +0.000 NA
ATOM      2  C   UNL     1      36.526  30.490  45.271  0.00  0.00    +0.000 C 
ATOM      3  C   UNL     1      36.800  30.353  43.794  0.00  0.00    +0.000 C 
ATOM      4  C   UNL     1      35.688  29.543  43.273  0.00  0.00    +0.000 C 
ATOM      5  C   UNL     1      34.657  29.485  44.376  0.00  0.00    +0.000 C 
ATOM      6  H   UNL     1      37.399  30.137  45.872  0.00  0.00    +0.000 HD
ATOM      7  H   UNL     1      36.214  31.520  45.535  0.00  0.00    +0.000 HD
ATOM      8  H   UNL     1      36.855  31.396  43.364  0.00  0.00    +0.000 HD
ATOM      9  H   UNL     1      37.775  29.816  43.647  0.00  0.00    +0.000 HD
ATOM     10  H   UNL     1      35.944  28.561  42.867  0.00  0.00    +0.000 HD
ATOM     11  H   UNL     1      35.314  30.091  42.350  0.00  0.00    +0.000 HD
ATOM     12  H   UNL     1      34.095  30.409  44.152  0.00  0.00    +0.000 HD
ENDROOT
BRANCH   1  24
ATOM     13  C   UNL     1      37.241  29.243  50.572  0.00  0.00    +0.000 A 
ATOM     14  C   UNL     1      37.403  30.597  50.895  0.00  0.00    +0.000 A 
ATOM     15  C   UNL     1      36.678  31.524  50.137  0.00  0.00    +0.000 A 
ATOM     16  N   UNL     1      35.872  31.055  49.147  0.00  0.00    +0.000 NA
ATOM     17  C   UNL     1      35.755  29.743  48.881  0.00  0.00    +0.000 A 
ATOM     18  N   UNL     1      36.434  28.846  49.589  0.00  0.00    +0.000 NA
ATOM     19  N   UNL     1      34.893  29.331  47.834  0.00  0.00    +0.000 N 
ATOM     20  C   UNL     1      34.233  28.045  47.869  0.00  0.00    +0.000 C 
ATOM     21  C   UNL     1      32.760  28.203  47.669  0.00  0.00    +0.000 C 
ATOM     22  N   UNL     1      32.340  29.412  47.188  0.00  0.00    +0.000 NA
ATOM     23  C   UNL     1      33.210  30.295  46.448  0.00  0.00    +0.000 C 
ATOM     24  C   UNL     1      34.623  30.167  46.678  0.00  0.00    +0.000 C 
ATOM     25  H   UNL     1      37.783  28.496  51.134  0.00  0.00    +0.000 HD
ATOM     26  H   UNL     1      38.062  30.899  51.697  0.00  0.00    +0.000 HD
ATOM     27  H   UNL     1      36.767  32.576  50.345  0.00  0.00    +0.000 HD
ATOM     28  H   UNL     1      34.359  27.653  48.926  0.00  0.00    +0.000 HD
ATOM     29  H   UNL     1      34.698  27.288  47.247  0.00  0.00    +0.000 HD
ATOM     30  H   UNL     1      32.169  27.928  48.567  0.00  0.00    +0.000 HD
ATOM     31  H   UNL     1      32.471  27.401  46.923  0.00  0.00    +0.000 HD
ATOM     32  H   UNL     1      31.425  29.792  47.431  0.00  0.00    +0.000 HD
ATOM     33  H   UNL     1      32.711  30.378  45.511  0.00  0.00    +0.000 HD
ATOM     34  H   UNL     1      32.904  31.300  46.932  0.00  0.00    +0.000 HD
ATOM     35  H   UNL     1      35.111  31.162  46.911  0.00  0.00    +0.000 HD
ENDBRANCH   1  24
BRANCH   5  37
ATOM     36  C   UNL     1      34.193  27.094  44.794  0.00  0.00    +0.000 A 
ATOM     37  C   UNL     1      33.904  28.255  44.104  0.00  0.00    +0.000 A 
ATOM     38  C   UNL     1      32.868  28.149  43.178  0.00  0.00    +0.000 A 
ATOM     39  H   UNL     1      32.607  29.036  42.612  0.00  0.00    +0.000 HD
ATOM     40  C   UNL     1      32.129  27.023  42.900  0.00  0.00    +0.000 A 
ATOM     41  H   UNL     1      31.347  27.043  42.164  0.00  0.00    +0.000 HD
ATOM     42  C   UNL     1      32.437  25.878  43.603  0.00  0.00    +0.000 A 
ATOM     43  C   UNL     1      33.452  25.929  44.528  0.00  0.00    +0.000 A 
BRANCH  36  45
ATOM     44  H   UNL     1      36.055  27.876  46.490  0.00  0.00    +0.000 HD
ATOM     45  S   UNL     1      35.408  26.867  45.954  0.00  0.00    +0.000 S 
ATOM     46  O   UNL     1      36.469  25.929  45.371  0.00  0.00    +0.000 OA
ATOM     47  O   UNL     1      34.830  26.046  47.110  0.00  0.00    +0.000 OA
ENDBRANCH  36  45
ENDBRANCH   5  37
TORSDOF 3
