
 OpenBabel03272504573D

 36 38  0  0  1  0  0  0  0  0999 V2000
   36.9470   31.4750   48.7910 C   0  0  1  0  0  0  0  0  0  0  0  0
   36.0260   30.9850   47.7860 C   0  0  0  0  0  0  0  0  0  0  0  0
   37.0300   30.0760   48.3720 C   0  0  2  0  0  0  0  0  0  0  0  0
   36.6530   31.6030   49.8870 H   0  0  0  0  0  0  0  0  0  0  0  0
   36.2400   31.3070   46.7380 H   0  0  0  0  0  0  0  0  0  0  0  0
   35.0570   31.3290   48.0510 H   0  0  0  0  0  0  0  0  0  0  0  0
   37.6610   29.6450   47.6140 H   0  0  0  0  0  0  0  0  0  0  0  0
   38.0860   32.3700   48.4000 C   0  0  0  0  0  0  0  0  0  0  0  0
   38.4600   33.3420   49.3580 C   0  0  0  0  0  0  0  0  0  0  0  0
   39.5130   34.1430   48.9730 C   0  0  0  0  0  0  0  0  0  0  0  0
   40.1110   33.9670   47.7520 N   0  0  0  0  0  0  0  0  0  0  0  0
   39.7150   33.0250   46.8770 C   0  0  0  0  0  0  0  0  0  0  0  0
   38.6720   32.2070   47.2170 N   0  0  0  0  0  0  0  0  0  0  0  0
   40.3280   32.8250   45.6350 N   0  0  0  0  0  0  0  0  0  0  0  0
   37.9800   33.4680   50.3160 H   0  0  0  0  0  0  0  0  0  0  0  0
   39.8720   34.9240   49.6500 H   0  0  0  0  0  0  0  0  0  0  0  0
   40.8080   33.6750   45.2260 H   0  0  0  0  0  0  0  0  0  0  0  0
   40.2940   31.8890   45.1710 H   0  0  0  0  0  0  0  0  0  0  0  0
   36.5640   29.1290   49.2820 O   0  0  0  0  0  0  0  0  0  0  0  0
   34.6370   27.4880   49.6560 O   0  0  0  0  0  0  0  0  0  0  0  0
   34.9080   28.8470   49.0240 P   0  0  1  0  0  0  0  0  0  0  0  0
   34.0410   29.9330   49.9810 O   0  0  0  0  0  0  0  0  0  0  0  0
   34.3050   30.8420   50.0140 H   0  0  0  0  0  0  0  0  0  0  0  0
   34.5970   28.9190   47.4240 O   0  0  0  0  0  0  0  0  0  0  0  0
   32.5430   27.9490   46.3730 C   0  0  0  0  0  0  0  0  0  0  0  0
   33.8040   28.4720   46.4800 C   0  0  0  0  0  0  0  0  0  0  0  0
   34.4950   28.5880   45.2570 C   0  0  0  0  0  0  0  0  0  0  0  0
   35.4930   28.9640   45.0440 H   0  0  0  0  0  0  0  0  0  0  0  0
   33.9220   28.1950   44.0360 C   0  0  0  0  0  0  0  0  0  0  0  0
   34.3610   28.2410   43.0580 H   0  0  0  0  0  0  0  0  0  0  0  0
   32.6360   27.6780   44.0670 C   0  0  0  0  0  3  0  0  0  0  0  0
   31.9090   27.5390   45.2270 C   0  0  0  0  0  3  0  0  0  0  0  0
   32.1740   28.6050   48.8660 H   0  0  0  0  0  0  0  0  0  0  0  0
   31.7180   27.8160   47.8820 S   0  0  0  0  0  0  0  0  0  0  0  0
   30.2390   28.1780   47.7190 O   0  0  0  0  0  0  0  0  0  0  0  0
   31.7020   26.3410   48.2470 O   0  0  0  0  0  0  0  0  0  0  0  0
  1  4  1  1  0  0  0
  2  6  1  0  0  0  0
  2  3  1  0  0  0  0
  2  1  1  0  0  0  0
  3  7  1  6  0  0  0
  3  1  1  0  0  0  0
  3 19  1  0  0  0  0
  5  2  1  0  0  0  0
  8  1  1  0  0  0  0
  8  9  1  0  0  0  0
  9 15  1  0  0  0  0
 10  9  2  0  0  0  0
 10 16  1  0  0  0  0
 11 10  1  0  0  0  0
 12 13  1  0  0  0  0
 12 11  2  0  0  0  0
 13  8  2  0  0  0  0
 14 12  1  0  0  0  0
 17 14  1  0  0  0  0
 18 14  1  0  0  0  0
 21 19  1  0  0  0  0
 21 20  2  1  0  0  0
 21 22  1  0  0  0  0
 22 23  1  0  0  0  0
 24 21  1  0  0  0  0
 25 26  1  0  0  0  0
 25 34  1  0  0  0  0
 26 24  1  0  0  0  0
 27 26  2  0  0  0  0
 28 27  1  0  0  0  0
 29 31  2  0  0  0  0
 29 27  1  0  0  0  0
 30 29  1  0  0  0  0
 31 32  1  0  0  0  0
 32 25  2  0  0  0  0
 34 36  2  0  0  0  0
 34 33  1  0  0  0  0
 35 34  2  0  0  0  0
M  END
>  <minimizedAffinity>
-4.49498701

>  <minimizedRMSD>
0.500833929

$$$$
