
 OpenBabel03272509473D

 28 29  0  0  0  0  0  0  0  0999 V2000
   33.2330   27.5100   48.3000 C   0  0  0  0  0  0  0  0  0  0  0  0
   33.5190   26.5530   48.8020 H   0  0  0  0  0  0  0  0  0  0  0  0
   32.1280   27.5340   48.3430 H   0  0  0  0  0  0  0  0  0  0  0  0
   33.7800   26.1580   46.4200 C   0  0  0  0  0  0  0  0  0  0  0  0
   33.6650   27.4740   46.8840 C   0  0  0  0  0  0  0  0  0  0  0  0
   33.9440   28.5170   46.0340 C   0  0  0  0  0  0  0  0  0  0  0  0
   33.8240   29.4880   46.4910 H   0  0  0  0  0  0  0  0  0  0  0  0
   34.3340   28.2820   44.7350 C   0  0  0  0  0  0  0  0  0  0  0  0
   34.5420   29.1560   44.1060 H   0  0  0  0  0  0  0  0  0  0  0  0
   34.4610   27.0030   44.2350 C   0  0  0  0  0  3  0  0  0  0  0  0
   34.1780   25.9400   45.0990 C   0  0  0  0  0  3  0  0  0  0  0  0
   33.9970   24.6830   48.5410 H   0  0  0  0  0  0  0  0  0  0  0  0
   33.4940   24.6740   47.2720 S   0  0  0  0  0  0  0  0  0  0  0  0
   32.0330   24.2840   47.3030 O   0  0  0  0  0  0  0  0  0  0  0  0
   34.2680   23.5870   46.5450 O   0  0  0  0  0  0  0  0  0  0  0  0
   33.8250   28.6660   49.0520 C   0  0  0  0  0  0  0  0  0  0  0  0
   34.2380   29.3620   48.2640 H   0  0  0  0  0  0  0  0  0  0  0  0
   33.0430   29.2460   49.5570 H   0  0  0  0  0  0  0  0  0  0  0  0
   34.8730   28.2330   49.8930 O   0  0  0  0  0  0  0  0  0  0  0  0
   37.4350   30.3090   51.3680 C   0  0  0  0  0  0  0  0  0  0  0  0
   38.0860   30.7550   50.1980 C   0  0  0  0  0  0  0  0  0  0  0  0
   37.6040   30.3150   48.9680 C   0  0  0  0  0  0  0  0  0  0  0  0
   36.5250   29.4740   48.9770 N   0  0  0  0  0  0  0  0  0  0  0  0
   35.9370   29.0750   50.1190 C   0  0  0  0  0  0  0  0  0  0  0  0
   36.3980   29.4980   51.3170 N   0  0  0  0  0  0  0  0  0  0  0  0
   37.7800   30.6290   52.3320 H   0  0  0  0  0  0  0  0  0  0  0  0
   38.9400   31.4220   50.2460 H   0  0  0  0  0  0  0  0  0  0  0  0
   38.0570   30.6170   48.0320 H   0  0  0  0  0  0  0  0  0  0  0  0
  1  3  1  0  0  0  0
  1  2  1  0  0  0  0
  1 16  1  0  0  0  0
  4  5  1  0  0  0  0
  4 13  1  0  0  0  0
  5  1  1  0  0  0  0
  6  7  1  0  0  0  0
  6  5  2  0  0  0  0
  8  6  1  0  0  0  0
  9  8  1  0  0  0  0
 10  8  2  0  0  0  0
 10 11  1  0  0  0  0
 11  4  2  0  0  0  0
 13 14  2  0  0  0  0
 13 12  1  0  0  0  0
 15 13  2  0  0  0  0
 16 18  1  0  0  0  0
 16 19  1  0  0  0  0
 17 16  1  0  0  0  0
 19 24  1  0  0  0  0
 20 26  1  0  0  0  0
 21 27  1  0  0  0  0
 21 20  2  0  0  0  0
 22 23  2  0  0  0  0
 22 21  1  0  0  0  0
 23 24  1  0  0  0  0
 24 25  2  0  0  0  0
 25 20  1  0  0  0  0
 28 22  1  0  0  0  0
M  END
>  <minimizedAffinity>
-4.06453085

>  <minimizedRMSD>
1.48089552

$$$$
