
 OpenBabel03272510013D

 24 25  0  0  0  0  0  0  0  0999 V2000
   38.2420   31.5640   49.7320 C   0  0  0  0  0  0  0  0  0  0  0  0
   38.2920   31.5900   48.3200 C   0  0  0  0  0  0  0  0  0  0  0  0
   37.3350   30.8820   47.6120 C   0  0  0  0  0  0  0  0  0  0  0  0
   36.4180   30.2130   48.3490 N   0  0  0  0  0  0  0  0  0  0  0  0
   36.3790   30.1940   49.6820 C   0  0  0  0  0  0  0  0  0  0  0  0
   37.2940   30.8710   50.3670 N   0  0  0  0  0  0  0  0  0  0  0  0
   38.9440   32.0820   50.3380 H   0  0  0  0  0  0  0  0  0  0  0  0
   39.0660   32.1550   47.8290 H   0  0  0  0  0  0  0  0  0  0  0  0
   38.3780   31.2810   45.4240 C   0  0  0  0  0  0  0  0  0  0  0  0
   37.3050   30.8500   46.1570 C   0  0  0  0  0  0  0  0  0  0  0  0
   36.2220   30.3960   45.4520 C   0  0  0  0  0  0  0  0  0  0  0  0
   35.3270   30.0350   45.9390 H   0  0  0  0  0  0  0  0  0  0  0  0
   36.1430   30.3450   44.0760 C   0  0  0  0  0  0  0  0  0  0  0  0
   35.2830   29.9850   43.5370 H   0  0  0  0  0  0  0  0  0  0  0  0
   37.2200   30.7770   43.3310 C   0  0  0  0  0  3  0  0  0  0  0  0
   38.3150   31.2370   44.0300 C   0  0  0  0  0  3  0  0  0  0  0  0
   39.8680   31.6900   47.5130 H   0  0  0  0  0  0  0  0  0  0  0  0
   39.8360   31.8900   46.1710 S   0  0  0  0  0  0  0  0  0  0  0  0
   40.0620   33.3470   45.7910 O   0  0  0  0  0  0  0  0  0  0  0  0
   41.0390   31.1640   45.6120 O   0  0  0  0  0  0  0  0  0  0  0  0
   35.3040   29.4100   50.3300 C   0  0  0  0  0  0  0  0  0  0  0  0
   35.5420   29.2080   51.6880 F   0  0  0  0  0  0  0  0  0  0  0  0
   34.0720   30.0830   50.2670 F   0  0  0  0  0  0  0  0  0  0  0  0
   35.0840   28.1810   49.7870 F   0  0  0  0  0  0  0  0  0  0  0  0
  1  7  1  0  0  0  0
  1  6  1  0  0  0  0
  2  1  2  0  0  0  0
  3  2  1  0  0  0  0
  3  4  2  0  0  0  0
  4  5  1  0  0  0  0
  5 21  1  0  0  0  0
  5  6  2  0  0  0  0
  8  2  1  0  0  0  0
  9 10  1  0  0  0  0
  9 18  1  0  0  0  0
 10  3  1  0  0  0  0
 11 12  1  0  0  0  0
 11 10  2  0  0  0  0
 13 11  1  0  0  0  0
 14 13  1  0  0  0  0
 15 16  1  0  0  0  0
 15 13  2  0  0  0  0
 16  9  2  0  0  0  0
 18 17  1  0  0  0  0
 19 18  2  0  0  0  0
 20 18  2  0  0  0  0
 21 22  1  0  0  0  0
 23 21  1  0  0  0  0
 24 21  1  0  0  0  0
M  END
>  <minimizedAffinity>
-5.73239565

>  <minimizedRMSD>
1.20973146

$$$$
