REMARK  Name = 
REMARK  4 active torsions:
REMARK  status: ('A' for Active; 'I' for Inactive)
REMARK    1  A    between atoms: C_1  and  C_7
REMARK    2  A    between atoms: C_8  and  O_10
REMARK    3  A    between atoms: O_10  and  C_23
REMARK    4  A    between atoms: S_19  and  C_22
REMARK                            x       y       z     vdW  Elec       q    Type
REMARK                         _______ _______ _______ _____ _____    ______ ____
ROOT
ATOM      1  C   UNL     1      36.649  31.044  50.493  0.00  0.00    +0.000 C 
ATOM      2  C   UNL     1      36.141  29.669  50.644  0.00  0.00    +0.000 C 
ATOM      3  C   UNL     1      37.334  30.100  51.484  0.00  0.00    +0.000 C 
ATOM      4  H   UNL     1      36.160  31.935  50.942  0.00  0.00    +0.000 HD
ATOM      5  H   UNL     1      35.146  29.625  51.157  0.00  0.00    +0.000 HD
ATOM      6  H   UNL     1      37.093  30.282  52.539  0.00  0.00    +0.000 HD
ATOM      7  H   UNL     1      38.314  29.688  51.222  0.00  0.00    +0.000 HD
ENDROOT
BRANCH   1   8
ATOM      8  C   UNL     1      37.524  31.398  49.326  0.00  0.00    +0.000 A 
ATOM      9  C   UNL     1      38.152  32.641  49.406  0.00  0.00    +0.000 A 
ATOM     10  C   UNL     1      38.950  32.992  48.303  0.00  0.00    +0.000 A 
ATOM     11  N   UNL     1      39.060  32.116  47.242  0.00  0.00    +0.000 NA
ATOM     12  C   UNL     1      38.428  30.922  47.218  0.00  0.00    +0.000 A 
ATOM     13  N   UNL     1      37.648  30.557  48.278  0.00  0.00    +0.000 NA
ATOM     14  H   UNL     1      38.032  33.290  50.262  0.00  0.00    +0.000 HD
ATOM     15  H   UNL     1      39.467  33.941  48.295  0.00  0.00    +0.000 HD
ATOM     16  H   UNL     1      38.568  30.296  46.347  0.00  0.00    +0.000 HD
ENDBRANCH   1   8
BRANCH   2  17
ATOM     17  O   UNL     1      36.391  28.748  49.686  0.00  0.00    +0.000 OA
BRANCH  17  19
ATOM     18  C   UNL     1      35.531  27.374  47.775  0.00  0.00    +0.000 A 
ATOM     19  C   UNL     1      35.852  27.721  49.055  0.00  0.00    +0.000 A 
ATOM     20  C   UNL     1      35.544  26.748  50.023  0.00  0.00    +0.000 A 
ATOM     21  H   UNL     1      35.693  26.764  51.114  0.00  0.00    +0.000 HD
ATOM     22  C   UNL     1      34.960  25.528  49.715  0.00  0.00    +0.000 A 
ATOM     23  H   UNL     1      34.684  24.721  50.362  0.00  0.00    +0.000 HD
ATOM     24  C   UNL     1      34.673  25.274  48.381  0.00  0.00    +0.000 A 
ATOM     25  C   UNL     1      34.955  26.193  47.396  0.00  0.00    +0.000 A 
BRANCH  18  27
ATOM     26  H   UNL     1      37.218  28.939  46.616  0.00  0.00    +0.000 HD
ATOM     27  S   UNL     1      35.917  28.577  46.594  0.00  0.00    +0.000 S 
ATOM     28  O   UNL     1      34.988  29.767  46.654  0.00  0.00    +0.000 OA
ATOM     29  O   UNL     1      35.684  27.987  45.208  0.00  0.00    +0.000 OA
ENDBRANCH  18  27
ENDBRANCH  17  19
ENDBRANCH   2  17
TORSDOF 4
