
 OpenBabel03262521373D

 31 33  0  0  0  0  0  0  0  0999 V2000
   36.1750   31.0260   48.5350 F   0  0  0  0  0  0  0  0  0  0  0  0
   36.3950   30.7710   47.1950 C   0  0  0  0  0  0  0  0  0  0  0  0
   35.6060   29.8880   46.4660 C   0  0  0  0  0  0  0  0  0  0  0  0
   35.8770   29.6770   45.1330 C   0  0  0  0  0  0  0  0  0  0  0  0
   36.9270   30.3300   44.5040 C   0  0  0  0  0  0  0  0  0  0  0  0
   37.6900   31.2070   45.2810 C   0  0  0  0  0  0  0  0  0  0  0  0
   37.4490   31.4410   46.6110 C   0  0  0  0  0  0  0  0  0  0  0  0
   35.2140   28.9670   44.6190 H   0  0  0  0  0  0  0  0  0  0  0  0
   37.1100   30.1400   43.4570 H   0  0  0  0  0  0  0  0  0  0  0  0
   38.5010   31.6940   44.7410 H   0  0  0  0  0  0  0  0  0  0  0  0
   34.9230   28.6650   48.3970 C   0  0  0  0  0  0  0  0  0  0  0  0
   34.5390   29.2530   47.1950 C   0  0  0  0  0  0  0  0  0  0  0  0
   33.2000   29.1620   46.8460 C   0  0  0  0  0  0  0  0  0  0  0  0
   32.3380   28.5120   47.6790 N   0  0  0  0  0  0  0  0  0  0  0  0
   32.7480   27.9590   48.8280 C   0  0  0  0  0  0  0  0  0  0  0  0
   34.0440   28.0310   49.1970 N   0  0  0  0  0  0  0  0  0  0  0  0
   35.9550   28.6840   48.7600 H   0  0  0  0  0  0  0  0  0  0  0  0
   32.9460   29.6320   45.9080 H   0  0  0  0  0  0  0  0  0  0  0  0
   31.9330   27.4910   49.3530 H   0  0  0  0  0  0  0  0  0  0  0  0
   39.4060   33.0490   46.9730 C   0  0  0  0  0  0  0  0  0  0  0  0
   38.2870   32.3750   47.3700 C   0  0  0  0  0  0  0  0  0  0  0  0
   37.8130   32.5460   48.6710 C   0  0  0  0  0  0  0  0  0  0  0  0
   36.9300   32.0660   49.1090 H   0  0  0  0  0  0  0  0  0  0  0  0
   38.4420   33.3780   49.5690 C   0  0  0  0  0  0  0  0  0  0  0  0
   38.1120   33.5440   50.5860 H   0  0  0  0  0  0  0  0  0  0  0  0
   39.5820   34.0570   49.1400 C   0  0  0  0  0  0  0  0  0  0  0  0
   40.0530   33.8840   47.8450 C   0  0  0  0  0  0  0  0  0  0  0  0
   39.0350   31.9130   44.6710 H   0  0  0  0  0  0  0  0  0  0  0  0
   39.8900   32.7450   45.3280 S   0  0  0  0  0  0  0  0  0  0  0  0
   40.1320   33.9990   44.5600 O   0  0  0  0  0  0  0  0  0  0  0  0
   41.2280   32.0270   45.4050 O   0  0  0  0  0  0  0  0  0  0  0  0
  2  1  1  0  0  0  0
  3  2  2  0  0  0  0
  3 12  1  0  0  0  0
  4  3  1  0  0  0  0
  5  4  2  0  0  0  0
  5  6  1  0  0  0  0
  6  7  2  0  0  0  0
  7  2  1  0  0  0  0
  7 21  1  0  0  0  0
  8  4  1  0  0  0  0
  9  5  1  0  0  0  0
 10  6  1  0  0  0  0
 11 17  1  0  0  0  0
 11 16  1  0  0  0  0
 12 11  2  0  0  0  0
 13 12  1  0  0  0  0
 13 14  2  0  0  0  0
 14 15  1  0  0  0  0
 15 16  2  0  0  0  0
 15 19  1  0  0  0  0
 18 13  1  0  0  0  0
 20 21  2  0  0  0  0
 20 27  1  0  0  0  0
 21 22  1  0  0  0  0
 22 23  1  0  0  0  0
 22 24  2  0  0  0  0
 24 25  1  0  0  0  0
 26 24  1  0  0  0  0
 27 26  2  0  0  0  0
 28 29  1  0  0  0  0
 29 31  2  0  0  0  0
 29 20  1  0  0  0  0
 30 29  2  0  0  0  0
M  END
>  <minimizedAffinity>
-5.66242647

>  <minimizedRMSD>
3.21757317

$$$$
