
 OpenBabel03272502403D

 43 46  0  0  1  0  0  0  0  0999 V2000
   35.9830   27.8980   35.1800 F   0  0  0  0  0  0  0  0  0  0  0  0
   36.2690   28.3640   33.9460 C   0  0  0  0  0  0  0  0  0  0  0  0
   36.9770   27.7140   32.9600 C   0  0  0  0  0  0  0  0  0  0  0  0
   37.1470   28.3580   31.7230 C   0  0  0  0  0  0  0  0  0  0  0  0
   36.6250   29.6130   31.4830 C   0  0  0  0  0  0  0  0  0  0  0  0
   35.9120   30.2520   32.4980 C   0  0  0  0  0  0  0  0  0  0  0  0
   35.7380   29.6110   33.7350 C   0  0  0  0  0  0  0  0  0  0  0  0
   37.7140   27.7490   31.0360 H   0  0  0  0  0  0  0  0  0  0  0  0
   36.8080   30.0270   30.5020 H   0  0  0  0  0  0  0  0  0  0  0  0
   35.5150   31.2340   32.2810 H   0  0  0  0  0  0  0  0  0  0  0  0
   39.2770   25.2090   34.1890 N   0  0  0  0  0  0  0  0  0  0  0  0
   39.4950   25.0130   32.7690 C   0  0  0  0  0  0  0  0  0  0  0  0
   38.4730   25.9140   32.1410 C   0  0  0  0  0  0  0  0  0  0  0  0
   37.5810   26.4310   33.3520 C   0  0  1  0  0  0  0  0  0  0  0  0
   38.6130   26.5150   34.3920 C   0  0  0  0  0  0  0  0  0  0  0  0
   39.2260   23.9560   32.5530 H   0  0  0  0  0  0  0  0  0  0  0  0
   40.5210   25.2520   32.4550 H   0  0  0  0  0  0  0  0  0  0  0  0
   38.9440   26.8160   31.7420 H   0  0  0  0  0  0  0  0  0  0  0  0
   37.8090   25.4030   31.4260 H   0  0  0  0  0  0  0  0  0  0  0  0
   36.8020   25.6590   33.3620 H   0  0  0  0  0  0  0  0  0  0  0  0
   39.3670   27.2550   34.1330 H   0  0  0  0  0  0  0  0  0  0  0  0
   38.2400   26.5920   35.4310 H   0  0  0  0  0  0  0  0  0  0  0  0
   39.6140   24.3270   35.2390 C   0  0  0  0  0  0  0  0  0  0  0  0
   38.6570   24.1990   36.2580 C   0  0  0  0  0  0  0  0  0  0  0  0
   38.9300   23.3480   37.3370 C   0  0  0  0  0  0  0  0  0  0  0  0
   40.1450   22.6880   37.3130 N   0  0  0  0  0  0  0  0  0  0  0  0
   41.0290   22.8380   36.3250 C   0  0  0  0  0  0  0  0  0  0  0  0
   40.7660   23.6620   35.2770 N   0  0  0  0  0  0  0  0  0  0  0  0
   37.7000   24.6930   36.3160 H   0  0  0  0  0  0  0  0  0  0  0  0
   38.2340   23.2060   38.1550 H   0  0  0  0  0  0  0  0  0  0  0  0
   41.9580   22.2880   36.3750 H   0  0  0  0  0  0  0  0  0  0  0  0
   33.6200   30.3820   34.8970 C   0  0  0  0  0  0  0  0  0  0  0  0
   34.9760   30.3710   34.7210 C   0  0  0  0  0  0  0  0  0  0  0  0
   35.7930   31.1490   35.5350 C   0  0  0  0  0  0  0  0  0  0  0  0
   36.8740   31.2140   35.4800 H   0  0  0  0  0  0  0  0  0  0  0  0
   35.2150   31.9310   36.5230 C   0  0  0  0  0  0  0  0  0  0  0  0
   35.8310   32.5580   37.1850 H   0  0  0  0  0  0  0  0  0  0  0  0
   33.8380   31.9650   36.7300 C   0  0  0  0  0  3  0  0  0  0  0  0
   33.0740   31.1670   35.8850 C   0  0  0  0  0  3  0  0  0  0  0  0
   33.3970   28.2770   33.4390 H   0  0  0  0  0  0  0  0  0  0  0  0
   32.6960   29.3780   33.8290 S   0  0  0  0  0  0  0  0  0  0  0  0
   31.3930   29.0410   34.4810 O   0  0  0  0  0  0  0  0  0  0  0  0
   32.3470   30.2330   32.6210 O   0  0  0  0  0  0  0  0  0  0  0  0
  2  1  1  0  0  0  0
  3 14  1  0  0  0  0
  3  2  2  0  0  0  0
  4  3  1  0  0  0  0
  5  4  2  0  0  0  0
  5  6  1  0  0  0  0
  6  7  2  0  0  0  0
  7  2  1  0  0  0  0
  7 33  1  0  0  0  0
  8  4  1  0  0  0  0
  9  5  1  0  0  0  0
 10  6  1  0  0  0  0
 11 15  1  0  0  0  0
 11 23  1  0  0  0  0
 12 11  1  0  0  0  0
 13 12  1  0  0  0  0
 13 14  1  0  0  0  0
 14 20  1  1  0  0  0
 14 15  1  0  0  0  0
 15 22  1  0  0  0  0
 16 12  1  0  0  0  0
 17 12  1  0  0  0  0
 18 13  1  0  0  0  0
 19 13  1  0  0  0  0
 21 15  1  0  0  0  0
 23 28  2  0  0  0  0
 23 24  1  0  0  0  0
 24 29  1  0  0  0  0
 24 25  2  0  0  0  0
 25 30  1  0  0  0  0
 26 25  1  0  0  0  0
 27 31  1  0  0  0  0
 27 26  2  0  0  0  0
 28 27  1  0  0  0  0
 32 39  1  0  0  0  0
 33 32  2  0  0  0  0
 33 34  1  0  0  0  0
 34 36  2  0  0  0  0
 35 34  1  0  0  0  0
 36 38  1  0  0  0  0
 36 37  1  0  0  0  0
 39 38  2  0  0  0  0
 40 41  1  0  0  0  0
 41 42  2  0  0  0  0
 41 32  1  0  0  0  0
 43 41  2  0  0  0  0
M  END
>  <minimizedAffinity>
-6.23667431

$$$$

 OpenBabel03272502403D

 43 46  0  0  1  0  0  0  0  0999 V2000
   35.8550   28.1610   34.1840 F   0  0  0  0  0  0  0  0  0  0  0  0
   36.1130   28.9560   33.1240 C   0  0  0  0  0  0  0  0  0  0  0  0
   36.7510   28.5980   31.9580 C   0  0  0  0  0  0  0  0  0  0  0  0
   36.9020   29.5680   30.9520 C   0  0  0  0  0  0  0  0  0  0  0  0
   36.4300   30.8550   31.1130 C   0  0  0  0  0  0  0  0  0  0  0  0
   35.7880   31.1940   32.3030 C   0  0  0  0  0  0  0  0  0  0  0  0
   35.6330   30.2280   33.3100 C   0  0  0  0  0  0  0  0  0  0  0  0
   37.4140   29.1670   30.0900 H   0  0  0  0  0  0  0  0  0  0  0  0
   36.5940   31.5300   30.2850 H   0  0  0  0  0  0  0  0  0  0  0  0
   35.4280   32.2090   32.4000 H   0  0  0  0  0  0  0  0  0  0  0  0
   37.3180   25.0820   32.5800 N   0  0  0  0  0  0  0  0  0  0  0  0
   38.3510   25.6150   33.4470 C   0  0  0  0  0  0  0  0  0  0  0  0
   38.3070   27.0870   33.1610 C   0  0  0  0  0  0  0  0  0  0  0  0
   37.3110   27.2370   31.9310 C   0  0  1  0  0  0  0  0  0  0  0  0
   36.3640   26.1640   32.2550 C   0  0  0  0  0  0  0  0  0  0  0  0
   39.3150   25.2040   33.0790 H   0  0  0  0  0  0  0  0  0  0  0  0
   38.1800   25.3850   34.5090 H   0  0  0  0  0  0  0  0  0  0  0  0
   37.8190   27.6270   33.9770 H   0  0  0  0  0  0  0  0  0  0  0  0
   39.2790   27.5110   32.8630 H   0  0  0  0  0  0  0  0  0  0  0  0
   38.0200   27.1600   31.0970 H   0  0  0  0  0  0  0  0  0  0  0  0
   35.8470   26.3700   33.1890 H   0  0  0  0  0  0  0  0  0  0  0  0
   35.7000   25.8460   31.4290 H   0  0  0  0  0  0  0  0  0  0  0  0
   37.2060   23.7610   32.0920 C   0  0  0  0  0  0  0  0  0  0  0  0
   35.9310   23.3850   31.6390 C   0  0  0  0  0  0  0  0  0  0  0  0
   35.7440   22.0850   31.1520 C   0  0  0  0  0  0  0  0  0  0  0  0
   36.8520   21.2580   31.1550 N   0  0  0  0  0  0  0  0  0  0  0  0
   38.0480   21.6530   31.5960 C   0  0  0  0  0  0  0  0  0  0  0  0
   38.2320   22.9140   32.0690 N   0  0  0  0  0  0  0  0  0  0  0  0
   35.0430   23.9980   31.6180 H   0  0  0  0  0  0  0  0  0  0  0  0
   34.7860   21.7340   30.7890 H   0  0  0  0  0  0  0  0  0  0  0  0
   38.8680   20.9500   31.5670 H   0  0  0  0  0  0  0  0  0  0  0  0
   33.6340   30.5010   34.8460 C   0  0  0  0  0  0  0  0  0  0  0  0
   34.9460   30.6930   34.5100 C   0  0  0  0  0  0  0  0  0  0  0  0
   35.7880   31.4040   35.3590 C   0  0  0  0  0  0  0  0  0  0  0  0
   36.8380   31.6120   35.1890 H   0  0  0  0  0  0  0  0  0  0  0  0
   35.2800   31.9140   36.5440 C   0  0  0  0  0  0  0  0  0  0  0  0
   35.9180   32.4800   37.2390 H   0  0  0  0  0  0  0  0  0  0  0  0
   33.9500   31.7360   36.9170 C   0  0  0  0  0  3  0  0  0  0  0  0
   33.1580   31.0170   36.0290 C   0  0  0  0  0  3  0  0  0  0  0  0
   33.4090   28.6590   33.0680 H   0  0  0  0  0  0  0  0  0  0  0  0
   32.6730   29.6020   33.7190 S   0  0  0  0  0  0  0  0  0  0  0  0
   31.4910   29.0300   34.4330 O   0  0  0  0  0  0  0  0  0  0  0  0
   32.1130   30.6070   32.7260 O   0  0  0  0  0  0  0  0  0  0  0  0
  2  7  1  0  0  0  0
  2  1  1  0  0  0  0
  3  2  2  0  0  0  0
  4  5  2  0  0  0  0
  4  3  1  0  0  0  0
  5  6  1  0  0  0  0
  6 10  1  0  0  0  0
  6  7  2  0  0  0  0
  7 33  1  0  0  0  0
  8  4  1  0  0  0  0
  9  5  1  0  0  0  0
 11 12  1  0  0  0  0
 12 17  1  0  0  0  0
 13 12  1  0  0  0  0
 13 18  1  0  0  0  0
 14 20  1  6  0  0  0
 14  3  1  0  0  0  0
 14 15  1  0  0  0  0
 14 13  1  0  0  0  0
 15 11  1  0  0  0  0
 15 21  1  0  0  0  0
 16 12  1  0  0  0  0
 19 13  1  0  0  0  0
 22 15  1  0  0  0  0
 23 11  1  0  0  0  0
 24 23  2  0  0  0  0
 25 26  2  0  0  0  0
 25 24  1  0  0  0  0
 26 27  1  0  0  0  0
 27 28  2  0  0  0  0
 28 23  1  0  0  0  0
 29 24  1  0  0  0  0
 30 25  1  0  0  0  0
 31 27  1  0  0  0  0
 32 39  1  0  0  0  0
 33 32  2  0  0  0  0
 33 34  1  0  0  0  0
 34 36  2  0  0  0  0
 35 34  1  0  0  0  0
 36 38  1  0  0  0  0
 36 37  1  0  0  0  0
 39 38  2  0  0  0  0
 40 41  1  0  0  0  0
 41 42  2  0  0  0  0
 41 32  1  0  0  0  0
 43 41  2  0  0  0  0
M  END
>  <minimizedAffinity>
-6.20786476

$$$$

 OpenBabel03272502403D

 43 46  0  0  1  0  0  0  0  0999 V2000
   39.0380   26.4210   35.5160 F   0  0  0  0  0  0  0  0  0  0  0  0
   38.4730   25.7570   34.4860 C   0  0  0  0  0  0  0  0  0  0  0  0
   37.6450   26.2810   33.5180 C   0  0  0  0  0  0  0  0  0  0  0  0
   37.1770   25.4290   32.5040 C   0  0  0  0  0  0  0  0  0  0  0  0
   37.5250   24.0940   32.4640 C   0  0  0  0  0  0  0  0  0  0  0  0
   38.3630   23.5850   33.4550 C   0  0  0  0  0  0  0  0  0  0  0  0
   38.8360   24.4340   34.4700 C   0  0  0  0  0  0  0  0  0  0  0  0
   36.5420   25.9550   31.8080 H   0  0  0  0  0  0  0  0  0  0  0  0
   37.1140   23.5180   31.6470 H   0  0  0  0  0  0  0  0  0  0  0  0
   38.6190   22.5360   33.3970 H   0  0  0  0  0  0  0  0  0  0  0  0
   35.6920   29.2910   33.9670 N   0  0  0  0  0  0  0  0  0  0  0  0
   35.9980   29.4490   32.5580 C   0  0  0  0  0  0  0  0  0  0  0  0
   36.9390   28.3140   32.2850 C   0  0  0  0  0  0  0  0  0  0  0  0
   37.2490   27.6850   33.7130 C   0  0  1  0  0  0  0  0  0  0  0  0
   35.9450   27.8850   34.3530 C   0  0  0  0  0  0  0  0  0  0  0  0
   36.5500   30.4090   32.4620 H   0  0  0  0  0  0  0  0  0  0  0  0
   35.1030   29.4210   31.9200 H   0  0  0  0  0  0  0  0  0  0  0  0
   36.4340   27.5150   31.7360 H   0  0  0  0  0  0  0  0  0  0  0  0
   37.8960   28.6270   31.8390 H   0  0  0  0  0  0  0  0  0  0  0  0
   38.1350   28.2690   33.9930 H   0  0  0  0  0  0  0  0  0  0  0  0
   35.1710   27.3130   33.8470 H   0  0  0  0  0  0  0  0  0  0  0  0
   35.9330   27.7890   35.4550 H   0  0  0  0  0  0  0  0  0  0  0  0
   35.2380   30.2840   34.8630 C   0  0  0  0  0  0  0  0  0  0  0  0
   33.8450   30.3820   35.0080 C   0  0  0  0  0  0  0  0  0  0  0  0
   33.3230   31.3530   35.8720 C   0  0  0  0  0  0  0  0  0  0  0  0
   34.2390   32.1540   36.5280 N   0  0  0  0  0  0  0  0  0  0  0  0
   35.5570   32.0290   36.3630 C   0  0  0  0  0  0  0  0  0  0  0  0
   36.0660   31.0880   35.5250 N   0  0  0  0  0  0  0  0  0  0  0  0
   33.0970   29.7780   34.5170 H   0  0  0  0  0  0  0  0  0  0  0  0
   32.2580   31.4790   36.0260 H   0  0  0  0  0  0  0  0  0  0  0  0
   36.2120   32.6920   36.9100 H   0  0  0  0  0  0  0  0  0  0  0  0
   39.3480   23.2610   36.6590 C   0  0  0  0  0  0  0  0  0  0  0  0
   39.7060   23.7950   35.4520 C   0  0  0  0  0  0  0  0  0  0  0  0
   41.0350   23.7660   35.0400 C   0  0  0  0  0  0  0  0  0  0  0  0
   41.4230   24.1590   34.1070 H   0  0  0  0  0  0  0  0  0  0  0  0
   41.9860   23.1900   35.8680 C   0  0  0  0  0  0  0  0  0  0  0  0
   43.0450   23.1490   35.5740 H   0  0  0  0  0  0  0  0  0  0  0  0
   41.6560   22.6370   37.1030 C   0  0  0  0  0  3  0  0  0  0  0  0
   40.3130   22.6960   37.4590 C   0  0  0  0  0  3  0  0  0  0  0  0
   37.1240   24.5470   36.7210 H   0  0  0  0  0  0  0  0  0  0  0  0
   37.6690   23.3500   37.0740 S   0  0  0  0  0  0  0  0  0  0  0  0
   36.9550   22.1830   36.4730 O   0  0  0  0  0  0  0  0  0  0  0  0
   37.5820   23.1600   38.5800 O   0  0  0  0  0  0  0  0  0  0  0  0
  2  1  1  0  0  0  0
  3 14  1  0  0  0  0
  3  2  2  0  0  0  0
  4  3  1  0  0  0  0
  5  4  2  0  0  0  0
  5  6  1  0  0  0  0
  6  7  2  0  0  0  0
  7  2  1  0  0  0  0
  7 33  1  0  0  0  0
  8  4  1  0  0  0  0
  9  5  1  0  0  0  0
 10  6  1  0  0  0  0
 11 15  1  0  0  0  0
 11 23  1  0  0  0  0
 12 11  1  0  0  0  0
 13 12  1  0  0  0  0
 13 14  1  0  0  0  0
 14 20  1  1  0  0  0
 14 15  1  0  0  0  0
 15 22  1  0  0  0  0
 16 12  1  0  0  0  0
 17 12  1  0  0  0  0
 18 13  1  0  0  0  0
 19 13  1  0  0  0  0
 21 15  1  0  0  0  0
 23 24  2  0  0  0  0
 23 28  1  0  0  0  0
 24 25  1  0  0  0  0
 25 30  1  0  0  0  0
 25 26  2  0  0  0  0
 27 26  1  0  0  0  0
 27 31  1  0  0  0  0
 28 27  2  0  0  0  0
 29 24  1  0  0  0  0
 32 41  1  0  0  0  0
 32 39  1  0  0  0  0
 33 32  2  0  0  0  0
 34 33  1  0  0  0  0
 34 36  2  0  0  0  0
 35 34  1  0  0  0  0
 36 38  1  0  0  0  0
 37 36  1  0  0  0  0
 38 39  2  0  0  0  0
 40 41  1  0  0  0  0
 41 43  2  0  0  0  0
 42 41  2  0  0  0  0
M  END
>  <minimizedAffinity>
-6.0523982

$$$$

 OpenBabel03272502403D

 43 46  0  0  1  0  0  0  0  0999 V2000
   35.3710   28.3770   34.8560 F   0  0  0  0  0  0  0  0  0  0  0  0
   35.7620   29.0260   33.7390 C   0  0  0  0  0  0  0  0  0  0  0  0
   36.4150   28.4850   32.6530 C   0  0  0  0  0  0  0  0  0  0  0  0
   36.7150   29.3220   31.5660 C   0  0  0  0  0  0  0  0  0  0  0  0
   36.3730   30.6600   31.5690 C   0  0  0  0  0  0  0  0  0  0  0  0
   35.7140   31.1850   32.6790 C   0  0  0  0  0  0  0  0  0  0  0  0
   35.4100   30.3510   33.7680 C   0  0  0  0  0  0  0  0  0  0  0  0
   37.2220   28.7840   30.7800 H   0  0  0  0  0  0  0  0  0  0  0  0
   36.6470   31.2240   30.6890 H   0  0  0  0  0  0  0  0  0  0  0  0
   35.4590   32.2360   32.6530 H   0  0  0  0  0  0  0  0  0  0  0  0
   38.3400   25.5000   33.3340 N   0  0  0  0  0  0  0  0  0  0  0  0
   38.4920   25.5220   31.8910 C   0  0  0  0  0  0  0  0  0  0  0  0
   37.6030   26.6550   31.4730 C   0  0  0  0  0  0  0  0  0  0  0  0
   36.8280   27.0790   32.7960 C   0  0  1  0  0  0  0  0  0  0  0  0
   37.8850   26.8340   33.7830 C   0  0  0  0  0  0  0  0  0  0  0  0
   38.0630   24.5680   31.5150 H   0  0  0  0  0  0  0  0  0  0  0  0
   39.5350   25.6610   31.5720 H   0  0  0  0  0  0  0  0  0  0  0  0
   38.1950   27.5350   31.2070 H   0  0  0  0  0  0  0  0  0  0  0  0
   36.8520   26.3760   30.7170 H   0  0  0  0  0  0  0  0  0  0  0  0
   35.9420   26.4380   32.7150 H   0  0  0  0  0  0  0  0  0  0  0  0
   38.7360   27.4910   33.6150 H   0  0  0  0  0  0  0  0  0  0  0  0
   37.5530   26.7840   34.8370 H   0  0  0  0  0  0  0  0  0  0  0  0
   38.5660   24.4110   34.2030 C   0  0  0  0  0  0  0  0  0  0  0  0
   38.0050   23.1870   33.8050 C   0  0  0  0  0  0  0  0  0  0  0  0
   38.1800   22.0660   34.6260 C   0  0  0  0  0  0  0  0  0  0  0  0
   38.9060   22.2560   35.7860 N   0  0  0  0  0  0  0  0  0  0  0  0
   39.4230   23.4360   36.1300 C   0  0  0  0  0  0  0  0  0  0  0  0
   39.2550   24.5260   35.3360 N   0  0  0  0  0  0  0  0  0  0  0  0
   37.4340   22.9960   32.9100 H   0  0  0  0  0  0  0  0  0  0  0  0
   37.7720   21.0940   34.3750 H   0  0  0  0  0  0  0  0  0  0  0  0
   39.9800   23.5080   37.0540 H   0  0  0  0  0  0  0  0  0  0  0  0
   33.3690   31.0970   35.0750 C   0  0  0  0  0  0  0  0  0  0  0  0
   34.7190   31.0070   34.8730 C   0  0  0  0  0  0  0  0  0  0  0  0
   35.6020   31.5830   35.7810 C   0  0  0  0  0  0  0  0  0  0  0  0
   36.6840   31.5690   35.7160 H   0  0  0  0  0  0  0  0  0  0  0  0
   35.0960   32.2450   36.8890 C   0  0  0  0  0  0  0  0  0  0  0  0
   35.7650   32.7110   37.6270 H   0  0  0  0  0  0  0  0  0  0  0  0
   33.7280   32.3540   37.1250 C   0  0  0  0  0  3  0  0  0  0  0  0
   32.8960   31.7590   36.1830 C   0  0  0  0  0  3  0  0  0  0  0  0
   32.9310   30.3710   32.6490 H   0  0  0  0  0  0  0  0  0  0  0  0
   32.3600   30.3450   33.8850 S   0  0  0  0  0  0  0  0  0  0  0  0
   32.0130   28.9640   34.3400 O   0  0  0  0  0  0  0  0  0  0  0  0
   31.0510   31.1200   33.8730 O   0  0  0  0  0  0  0  0  0  0  0  0
  2  7  1  0  0  0  0
  2  1  1  0  0  0  0
  3 14  1  0  0  0  0
  3  2  2  0  0  0  0
  4  5  2  0  0  0  0
  4  3  1  0  0  0  0
  5  6  1  0  0  0  0
  6  7  2  0  0  0  0
  7 33  1  0  0  0  0
  8  4  1  0  0  0  0
  9  5  1  0  0  0  0
 10  6  1  0  0  0  0
 11 15  1  0  0  0  0
 11 23  1  0  0  0  0
 12 11  1  0  0  0  0
 13 12  1  0  0  0  0
 13 14  1  0  0  0  0
 14 20  1  1  0  0  0
 14 15  1  0  0  0  0
 15 22  1  0  0  0  0
 16 12  1  0  0  0  0
 17 12  1  0  0  0  0
 18 13  1  0  0  0  0
 19 13  1  0  0  0  0
 21 15  1  0  0  0  0
 23 28  1  0  0  0  0
 24 23  2  0  0  0  0
 24 25  1  0  0  0  0
 25 26  2  0  0  0  0
 26 27  1  0  0  0  0
 27 31  1  0  0  0  0
 28 27  2  0  0  0  0
 29 24  1  0  0  0  0
 30 25  1  0  0  0  0
 32 39  1  0  0  0  0
 33 32  2  0  0  0  0
 33 34  1  0  0  0  0
 34 36  2  0  0  0  0
 35 34  1  0  0  0  0
 36 38  1  0  0  0  0
 36 37  1  0  0  0  0
 39 38  2  0  0  0  0
 40 41  1  0  0  0  0
 41 42  2  0  0  0  0
 41 32  1  0  0  0  0
 43 41  2  0  0  0  0
M  END
>  <minimizedAffinity>
-6.03857803

$$$$

 OpenBabel03272502403D

 43 46  0  0  1  0  0  0  0  0999 V2000
   38.3730   26.8660   35.4740 F   0  0  0  0  0  0  0  0  0  0  0  0
   37.8880   26.2030   34.4030 C   0  0  0  0  0  0  0  0  0  0  0  0
   37.2740   26.7510   33.2990 C   0  0  0  0  0  0  0  0  0  0  0  0
   36.8600   25.8910   32.2680 C   0  0  0  0  0  0  0  0  0  0  0  0
   37.0530   24.5270   32.3430 C   0  0  0  0  0  0  0  0  0  0  0  0
   37.6760   23.9950   33.4710 C   0  0  0  0  0  0  0  0  0  0  0  0
   38.0930   24.8500   34.5040 C   0  0  0  0  0  0  0  0  0  0  0  0
   36.3970   26.4380   31.4600 H   0  0  0  0  0  0  0  0  0  0  0  0
   36.6990   23.9470   31.5020 H   0  0  0  0  0  0  0  0  0  0  0  0
   37.8140   22.9230   33.5020 H   0  0  0  0  0  0  0  0  0  0  0  0
   35.6310   29.9680   33.4490 N   0  0  0  0  0  0  0  0  0  0  0  0
   35.9700   29.9730   32.0390 C   0  0  0  0  0  0  0  0  0  0  0  0
   36.7950   28.7300   31.8840 C   0  0  0  0  0  0  0  0  0  0  0  0
   37.0200   28.1990   33.3660 C   0  0  1  0  0  0  0  0  0  0  0  0
   35.7340   28.5830   33.9570 C   0  0  0  0  0  0  0  0  0  0  0  0
   36.6190   30.8610   31.8750 H   0  0  0  0  0  0  0  0  0  0  0  0
   35.0860   29.9800   31.3850 H   0  0  0  0  0  0  0  0  0  0  0  0
   36.2190   27.9420   31.3930 H   0  0  0  0  0  0  0  0  0  0  0  0
   37.7850   28.9070   31.4340 H   0  0  0  0  0  0  0  0  0  0  0  0
   37.9560   28.7130   33.6160 H   0  0  0  0  0  0  0  0  0  0  0  0
   34.9130   28.0500   33.4840 H   0  0  0  0  0  0  0  0  0  0  0  0
   35.6970   28.5830   35.0630 H   0  0  0  0  0  0  0  0  0  0  0  0
   35.2670   31.0750   34.2480 C   0  0  0  0  0  0  0  0  0  0  0  0
   35.8070   31.0930   35.5440 C   0  0  0  0  0  0  0  0  0  0  0  0
   35.4790   32.1560   36.3960 C   0  0  0  0  0  0  0  0  0  0  0  0
   34.6340   33.1220   35.8830 N   0  0  0  0  0  0  0  0  0  0  0  0
   34.1420   33.0680   34.6440 C   0  0  0  0  0  0  0  0  0  0  0  0
   34.4580   32.0380   33.8160 N   0  0  0  0  0  0  0  0  0  0  0  0
   36.4680   30.3620   35.9830 H   0  0  0  0  0  0  0  0  0  0  0  0
   35.8620   32.2280   37.4070 H   0  0  0  0  0  0  0  0  0  0  0  0
   33.4870   33.8620   34.3130 H   0  0  0  0  0  0  0  0  0  0  0  0
   40.0470   23.8230   35.7530 C   0  0  0  0  0  0  0  0  0  0  0  0
   38.7340   24.1850   35.6340 C   0  0  0  0  0  0  0  0  0  0  0  0
   37.8400   23.9230   36.6680 C   0  0  0  0  0  0  0  0  0  0  0  0
   36.7840   24.1670   36.6760 H   0  0  0  0  0  0  0  0  0  0  0  0
   38.2990   23.2930   37.8150 C   0  0  0  0  0  0  0  0  0  0  0  0
   37.6200   23.0700   38.6510 H   0  0  0  0  0  0  0  0  0  0  0  0
   39.6300   22.9110   37.9680 C   0  0  0  0  0  3  0  0  0  0  0  0
   40.4740   23.2000   36.9020 C   0  0  0  0  0  3  0  0  0  0  0  0
   40.4460   23.9830   33.2190 H   0  0  0  0  0  0  0  0  0  0  0  0
   41.0740   24.1970   34.4080 S   0  0  0  0  0  0  0  0  0  0  0  0
   41.5840   25.5940   34.5570 O   0  0  0  0  0  0  0  0  0  0  0  0
   42.2920   23.2950   34.5280 O   0  0  0  0  0  0  0  0  0  0  0  0
  2  7  1  0  0  0  0
  2  1  1  0  0  0  0
  3 14  1  0  0  0  0
  3  2  2  0  0  0  0
  4  5  2  0  0  0  0
  4  3  1  0  0  0  0
  5  6  1  0  0  0  0
  6 10  1  0  0  0  0
  6  7  2  0  0  0  0
  7 33  1  0  0  0  0
  8  4  1  0  0  0  0
  9  5  1  0  0  0  0
 11 15  1  0  0  0  0
 11 23  1  0  0  0  0
 12 11  1  0  0  0  0
 13 12  1  0  0  0  0
 13 14  1  0  0  0  0
 14 20  1  1  0  0  0
 14 15  1  0  0  0  0
 15 22  1  0  0  0  0
 16 12  1  0  0  0  0
 17 12  1  0  0  0  0
 18 13  1  0  0  0  0
 19 13  1  0  0  0  0
 21 15  1  0  0  0  0
 23 24  1  0  0  0  0
 24 29  1  0  0  0  0
 24 25  2  0  0  0  0
 25 30  1  0  0  0  0
 26 25  1  0  0  0  0
 27 26  2  0  0  0  0
 28 23  2  0  0  0  0
 28 27  1  0  0  0  0
 31 27  1  0  0  0  0
 32 39  1  0  0  0  0
 33 32  2  0  0  0  0
 33 34  1  0  0  0  0
 34 35  1  0  0  0  0
 34 36  2  0  0  0  0
 36 38  1  0  0  0  0
 36 37  1  0  0  0  0
 39 38  2  0  0  0  0
 40 41  1  0  0  0  0
 41 43  2  0  0  0  0
 41 42  2  0  0  0  0
 41 32  1  0  0  0  0
M  END
>  <minimizedAffinity>
-5.80315065

$$$$

 OpenBabel03272502403D

 43 46  0  0  1  0  0  0  0  0999 V2000
   38.1270   27.6250   33.0310 F   0  0  0  0  0  0  0  0  0  0  0  0
   37.3750   26.6370   32.5020 C   0  0  0  0  0  0  0  0  0  0  0  0
   37.3270   25.3230   32.9140 C   0  0  0  0  0  0  0  0  0  0  0  0
   36.4550   24.4450   32.2490 C   0  0  0  0  0  0  0  0  0  0  0  0
   35.6590   24.8690   31.2040 C   0  0  0  0  0  0  0  0  0  0  0  0
   35.7260   26.2030   30.8050 C   0  0  0  0  0  0  0  0  0  0  0  0
   36.5950   27.0860   31.4670 C   0  0  0  0  0  0  0  0  0  0  0  0
   36.5060   23.4490   32.6630 H   0  0  0  0  0  0  0  0  0  0  0  0
   35.0220   24.1210   30.7550 H   0  0  0  0  0  0  0  0  0  0  0  0
   35.0910   26.5070   29.9840 H   0  0  0  0  0  0  0  0  0  0  0  0
   39.0120   23.5840   35.5990 N   0  0  0  0  0  0  0  0  0  0  0  0
   38.3760   24.6220   36.3890 C   0  0  0  0  0  0  0  0  0  0  0  0
   37.7520   25.5050   35.3500 C   0  0  0  0  0  0  0  0  0  0  0  0
   38.2910   24.9500   33.9610 C   0  0  1  0  0  0  0  0  0  0  0  0
   38.3470   23.5190   34.2790 C   0  0  0  0  0  0  0  0  0  0  0  0
   39.1950   25.1790   36.8940 H   0  0  0  0  0  0  0  0  0  0  0  0
   37.6420   24.2260   37.1060 H   0  0  0  0  0  0  0  0  0  0  0  0
   36.6710   25.3500   35.3080 H   0  0  0  0  0  0  0  0  0  0  0  0
   38.0500   26.5630   35.4290 H   0  0  0  0  0  0  0  0  0  0  0  0
   39.1950   25.5600   33.8460 H   0  0  0  0  0  0  0  0  0  0  0  0
   37.3540   23.1260   34.4850 H   0  0  0  0  0  0  0  0  0  0  0  0
   38.9460   22.8970   33.5860 H   0  0  0  0  0  0  0  0  0  0  0  0
   40.0910   22.7570   35.9790 C   0  0  0  0  0  0  0  0  0  0  0  0
   40.9280   22.3310   34.9350 C   0  0  0  0  0  0  0  0  0  0  0  0
   42.0130   21.4980   35.2380 C   0  0  0  0  0  0  0  0  0  0  0  0
   42.1790   21.1560   36.5670 N   0  0  0  0  0  0  0  0  0  0  0  0
   41.3610   21.5820   37.5300 C   0  0  0  0  0  0  0  0  0  0  0  0
   40.3070   22.3900   37.2400 N   0  0  0  0  0  0  0  0  0  0  0  0
   40.8350   22.5740   33.8880 H   0  0  0  0  0  0  0  0  0  0  0  0
   42.6950   21.1350   34.4790 H   0  0  0  0  0  0  0  0  0  0  0  0
   41.5540   21.2730   38.5480 H   0  0  0  0  0  0  0  0  0  0  0  0
   35.8650   29.5150   31.4540 C   0  0  0  0  0  0  0  0  0  0  0  0
   36.5810   28.4560   30.9660 C   0  0  0  0  0  0  0  0  0  0  0  0
   37.4160   28.6250   29.8660 C   0  0  0  0  0  0  0  0  0  0  0  0
   38.0240   27.8560   29.4020 H   0  0  0  0  0  0  0  0  0  0  0  0
   37.5110   29.8750   29.2750 C   0  0  0  0  0  0  0  0  0  0  0  0
   38.1620   30.0440   28.4040 H   0  0  0  0  0  0  0  0  0  0  0  0
   36.7970   30.9740   29.7470 C   0  0  0  0  0  3  0  0  0  0  0  0
   35.9800   30.7430   30.8480 C   0  0  0  0  0  3  0  0  0  0  0  0
   34.2780   27.9660   32.7530 H   0  0  0  0  0  0  0  0  0  0  0  0
   34.8570   29.1960   32.8270 S   0  0  0  0  0  0  0  0  0  0  0  0
   35.6560   29.3930   34.0750 O   0  0  0  0  0  0  0  0  0  0  0  0
   33.7890   30.2780   32.8420 O   0  0  0  0  0  0  0  0  0  0  0  0
  2  3  1  0  0  0  0
  2  1  1  0  0  0  0
  3 14  1  0  0  0  0
  4  8  1  0  0  0  0
  4  3  2  0  0  0  0
  5  4  1  0  0  0  0
  6  5  2  0  0  0  0
  6  7  1  0  0  0  0
  7  2  2  0  0  0  0
  9  5  1  0  0  0  0
 10  6  1  0  0  0  0
 11 23  1  0  0  0  0
 11 12  1  0  0  0  0
 12 16  1  0  0  0  0
 12 17  1  0  0  0  0
 13 19  1  0  0  0  0
 13 12  1  0  0  0  0
 14 20  1  6  0  0  0
 14 15  1  0  0  0  0
 14 13  1  0  0  0  0
 15 21  1  0  0  0  0
 15 11  1  0  0  0  0
 18 13  1  0  0  0  0
 22 15  1  0  0  0  0
 23 28  1  0  0  0  0
 24 25  1  0  0  0  0
 24 23  2  0  0  0  0
 25 26  2  0  0  0  0
 26 27  1  0  0  0  0
 27 31  1  0  0  0  0
 28 27  2  0  0  0  0
 29 24  1  0  0  0  0
 30 25  1  0  0  0  0
 32 41  1  0  0  0  0
 33 32  1  0  0  0  0
 33  7  1  0  0  0  0
 34 33  2  0  0  0  0
 35 34  1  0  0  0  0
 36 38  2  0  0  0  0
 36 34  1  0  0  0  0
 37 36  1  0  0  0  0
 38 39  1  0  0  0  0
 39 32  2  0  0  0  0
 40 41  1  0  0  0  0
 41 43  2  0  0  0  0
 41 42  2  0  0  0  0
M  END
>  <minimizedAffinity>
-5.7806282

$$$$

 OpenBabel03272502403D

 43 46  0  0  1  0  0  0  0  0999 V2000
   36.0530   28.1490   34.8220 F   0  0  0  0  0  0  0  0  0  0  0  0
   36.1510   28.7610   33.6230 C   0  0  0  0  0  0  0  0  0  0  0  0
   36.7640   28.2710   32.4920 C   0  0  0  0  0  0  0  0  0  0  0  0
   36.7370   29.0520   31.3240 C   0  0  0  0  0  0  0  0  0  0  0  0
   36.1170   30.2850   31.2930 C   0  0  0  0  0  0  0  0  0  0  0  0
   35.5040   30.7610   32.4520 C   0  0  0  0  0  0  0  0  0  0  0  0
   35.5270   29.9830   33.6210 C   0  0  0  0  0  0  0  0  0  0  0  0
   37.2460   28.5620   30.5090 H   0  0  0  0  0  0  0  0  0  0  0  0
   36.1500   30.8130   30.3510 H   0  0  0  0  0  0  0  0  0  0  0  0
   35.0270   31.7300   32.3980 H   0  0  0  0  0  0  0  0  0  0  0  0
   39.3260   25.7200   32.4470 N   0  0  0  0  0  0  0  0  0  0  0  0
   38.5660   25.2720   31.2960 C   0  0  0  0  0  0  0  0  0  0  0  0
   37.3760   26.1850   31.2980 C   0  0  0  0  0  0  0  0  0  0  0  0
   37.4860   27.0000   32.6590 C   0  0  1  0  0  0  0  0  0  0  0  0
   38.9460   27.1160   32.7530 C   0  0  0  0  0  0  0  0  0  0  0  0
   38.2290   24.2370   31.5240 H   0  0  0  0  0  0  0  0  0  0  0  0
   39.1380   25.3240   30.3580 H   0  0  0  0  0  0  0  0  0  0  0  0
   37.4670   26.9430   30.5160 H   0  0  0  0  0  0  0  0  0  0  0  0
   36.4100   25.6570   31.2980 H   0  0  0  0  0  0  0  0  0  0  0  0
   36.9080   26.3470   33.3230 H   0  0  0  0  0  0  0  0  0  0  0  0
   39.3440   27.7020   31.9270 H   0  0  0  0  0  0  0  0  0  0  0  0
   39.3400   27.4050   33.7460 H   0  0  0  0  0  0  0  0  0  0  0  0
   40.2720   24.9810   33.1900 C   0  0  0  0  0  0  0  0  0  0  0  0
   40.9690   25.7000   34.1750 C   0  0  0  0  0  0  0  0  0  0  0  0
   41.9320   25.0320   34.9430 C   0  0  0  0  0  0  0  0  0  0  0  0
   42.1230   23.6910   34.6660 N   0  0  0  0  0  0  0  0  0  0  0  0
   41.4400   23.0440   33.7210 C   0  0  0  0  0  0  0  0  0  0  0  0
   40.5060   23.6890   32.9740 N   0  0  0  0  0  0  0  0  0  0  0  0
   40.8510   26.7430   34.4230 H   0  0  0  0  0  0  0  0  0  0  0  0
   42.5040   25.5300   35.7170 H   0  0  0  0  0  0  0  0  0  0  0  0
   41.6450   21.9940   33.5620 H   0  0  0  0  0  0  0  0  0  0  0  0
   33.5440   30.4370   35.1350 C   0  0  0  0  0  0  0  0  0  0  0  0
   34.8540   30.5780   34.7710 C   0  0  0  0  0  0  0  0  0  0  0  0
   35.7110   31.3660   35.5340 C   0  0  0  0  0  0  0  0  0  0  0  0
   36.7620   31.5440   35.3360 H   0  0  0  0  0  0  0  0  0  0  0  0
   35.2180   32.0020   36.6640 C   0  0  0  0  0  0  0  0  0  0  0  0
   35.8670   32.6310   37.2900 H   0  0  0  0  0  0  0  0  0  0  0  0
   33.8890   31.8780   37.0620 C   0  0  0  0  0  3  0  0  0  0  0  0
   33.0830   31.0790   36.2600 C   0  0  0  0  0  3  0  0  0  0  0  0
   33.2930   28.4370   33.5400 H   0  0  0  0  0  0  0  0  0  0  0  0
   32.5650   29.4340   34.1150 S   0  0  0  0  0  0  0  0  0  0  0  0
   31.3990   28.9280   34.9020 O   0  0  0  0  0  0  0  0  0  0  0  0
   31.9810   30.3420   33.0450 O   0  0  0  0  0  0  0  0  0  0  0  0
  2  1  1  0  0  0  0
  3 14  1  0  0  0  0
  3  2  2  0  0  0  0
  4  3  1  0  0  0  0
  5  4  2  0  0  0  0
  5  6  1  0  0  0  0
  6  7  2  0  0  0  0
  7  2  1  0  0  0  0
  7 33  1  0  0  0  0
  8  4  1  0  0  0  0
  9  5  1  0  0  0  0
 10  6  1  0  0  0  0
 11 15  1  0  0  0  0
 11 23  1  0  0  0  0
 12 13  1  0  0  0  0
 12 16  1  0  0  0  0
 12 11  1  0  0  0  0
 13 14  1  0  0  0  0
 14 15  1  0  0  0  0
 14 20  1  1  0  0  0
 15 22  1  0  0  0  0
 17 12  1  0  0  0  0
 18 13  1  0  0  0  0
 19 13  1  0  0  0  0
 21 15  1  0  0  0  0
 23 24  1  0  0  0  0
 24 29  1  0  0  0  0
 24 25  2  0  0  0  0
 25 30  1  0  0  0  0
 26 25  1  0  0  0  0
 27 26  2  0  0  0  0
 28 23  2  0  0  0  0
 28 27  1  0  0  0  0
 31 27  1  0  0  0  0
 32 39  1  0  0  0  0
 33 32  2  0  0  0  0
 33 34  1  0  0  0  0
 34 36  2  0  0  0  0
 35 34  1  0  0  0  0
 36 38  1  0  0  0  0
 36 37  1  0  0  0  0
 39 38  2  0  0  0  0
 40 41  1  0  0  0  0
 41 42  2  0  0  0  0
 41 32  1  0  0  0  0
 43 41  2  0  0  0  0
M  END
>  <minimizedAffinity>
-5.77948427

$$$$

 OpenBabel03272502403D

 43 46  0  0  1  0  0  0  0  0999 V2000
   34.5210   28.7310   34.8650 F   0  0  0  0  0  0  0  0  0  0  0  0
   34.9870   29.5200   33.8740 C   0  0  0  0  0  0  0  0  0  0  0  0
   35.8930   29.1720   32.8970 C   0  0  0  0  0  0  0  0  0  0  0  0
   36.2360   30.1310   31.9290 C   0  0  0  0  0  0  0  0  0  0  0  0
   35.6890   31.3980   31.9420 C   0  0  0  0  0  0  0  0  0  0  0  0
   34.7750   31.7280   32.9420 C   0  0  0  0  0  0  0  0  0  0  0  0
   34.4280   30.7720   33.9100 C   0  0  0  0  0  0  0  0  0  0  0  0
   36.9490   29.7390   31.2200 H   0  0  0  0  0  0  0  0  0  0  0  0
   36.0150   32.0670   31.1580 H   0  0  0  0  0  0  0  0  0  0  0  0
   34.3630   32.7280   32.9260 H   0  0  0  0  0  0  0  0  0  0  0  0
   38.0010   26.4210   33.9300 N   0  0  0  0  0  0  0  0  0  0  0  0
   38.6390   26.7070   32.6590 C   0  0  0  0  0  0  0  0  0  0  0  0
   37.7500   27.7560   32.0600 C   0  0  0  0  0  0  0  0  0  0  0  0
   36.4960   27.8360   33.0350 C   0  0  1  0  0  0  0  0  0  0  0  0
   37.1680   27.5820   34.3140 C   0  0  0  0  0  0  0  0  0  0  0  0
   38.5630   25.7780   32.0520 H   0  0  0  0  0  0  0  0  0  0  0  0
   39.6800   27.0460   32.7680 H   0  0  0  0  0  0  0  0  0  0  0  0
   38.2140   28.7430   32.1280 H   0  0  0  0  0  0  0  0  0  0  0  0
   37.3800   27.5040   31.0540 H   0  0  0  0  0  0  0  0  0  0  0  0
   35.8370   27.0970   32.5630 H   0  0  0  0  0  0  0  0  0  0  0  0
   37.8790   28.3720   34.5440 H   0  0  0  0  0  0  0  0  0  0  0  0
   36.5050   27.3070   35.1570 H   0  0  0  0  0  0  0  0  0  0  0  0
   38.1170   25.2450   34.7020 C   0  0  0  0  0  0  0  0  0  0  0  0
   37.9410   25.4050   36.0860 C   0  0  0  0  0  0  0  0  0  0  0  0
   38.0530   24.2820   36.9150 C   0  0  0  0  0  0  0  0  0  0  0  0
   38.3330   23.0790   36.2930 N   0  0  0  0  0  0  0  0  0  0  0  0
   38.4950   22.9690   34.9730 C   0  0  0  0  0  0  0  0  0  0  0  0
   38.3860   24.0570   34.1670 N   0  0  0  0  0  0  0  0  0  0  0  0
   37.7200   26.3220   36.6100 H   0  0  0  0  0  0  0  0  0  0  0  0
   37.9280   24.3390   37.9890 H   0  0  0  0  0  0  0  0  0  0  0  0
   38.7120   21.9940   34.5580 H   0  0  0  0  0  0  0  0  0  0  0  0
   33.7180   31.9100   36.0630 C   0  0  0  0  0  0  0  0  0  0  0  0
   33.4630   31.2260   34.9060 C   0  0  0  0  0  0  0  0  0  0  0  0
   32.1560   30.8840   34.5700 C   0  0  0  0  0  0  0  0  0  0  0  0
   31.8460   30.3460   33.6820 H   0  0  0  0  0  0  0  0  0  0  0  0
   31.1220   31.2470   35.4190 C   0  0  0  0  0  0  0  0  0  0  0  0
   30.0780   30.9940   35.1840 H   0  0  0  0  0  0  0  0  0  0  0  0
   31.3480   31.9450   36.6040 C   0  0  0  0  0  3  0  0  0  0  0  0
   32.6730   32.2570   36.8860 C   0  0  0  0  0  3  0  0  0  0  0  0
   35.5620   32.7010   37.6690 H   0  0  0  0  0  0  0  0  0  0  0  0
   35.3780   32.2850   36.3850 S   0  0  0  0  0  0  0  0  0  0  0  0
   36.2240   31.1050   36.0270 O   0  0  0  0  0  0  0  0  0  0  0  0
   35.7710   33.3880   35.4160 O   0  0  0  0  0  0  0  0  0  0  0  0
  2  7  1  0  0  0  0
  2  1  1  0  0  0  0
  3 14  1  0  0  0  0
  3  2  2  0  0  0  0
  4  5  2  0  0  0  0
  4  3  1  0  0  0  0
  5  6  1  0  0  0  0
  6  7  2  0  0  0  0
  7 33  1  0  0  0  0
  8  4  1  0  0  0  0
  9  5  1  0  0  0  0
 10  6  1  0  0  0  0
 11 15  1  0  0  0  0
 11 23  1  0  0  0  0
 12 17  1  0  0  0  0
 12 11  1  0  0  0  0
 13 18  1  0  0  0  0
 13 12  1  0  0  0  0
 13 14  1  0  0  0  0
 14 20  1  6  0  0  0
 14 15  1  0  0  0  0
 15 21  1  0  0  0  0
 15 22  1  0  0  0  0
 16 12  1  0  0  0  0
 19 13  1  0  0  0  0
 23 24  1  0  0  0  0
 24 29  1  0  0  0  0
 24 25  2  0  0  0  0
 25 30  1  0  0  0  0
 26 25  1  0  0  0  0
 27 26  2  0  0  0  0
 28 23  2  0  0  0  0
 28 27  1  0  0  0  0
 31 27  1  0  0  0  0
 32 41  1  0  0  0  0
 32 39  1  0  0  0  0
 33 32  2  0  0  0  0
 34 33  1  0  0  0  0
 34 36  2  0  0  0  0
 35 34  1  0  0  0  0
 36 38  1  0  0  0  0
 37 36  1  0  0  0  0
 38 39  2  0  0  0  0
 41 40  1  0  0  0  0
 42 41  2  0  0  0  0
 43 41  2  0  0  0  0
M  END
>  <minimizedAffinity>
-5.72400475

$$$$

 OpenBabel03272502403D

 43 46  0  0  1  0  0  0  0  0999 V2000
   39.1060   24.9140   33.8980 F   0  0  0  0  0  0  0  0  0  0  0  0
   38.2630   23.9420   33.4910 C   0  0  0  0  0  0  0  0  0  0  0  0
   37.3040   24.0370   32.5070 C   0  0  0  0  0  0  0  0  0  0  0  0
   36.5380   22.8990   32.2060 C   0  0  0  0  0  0  0  0  0  0  0  0
   36.7260   21.7040   32.8720 C   0  0  0  0  0  0  0  0  0  0  0  0
   37.7020   21.6320   33.8650 C   0  0  0  0  0  0  0  0  0  0  0  0
   38.4720   22.7670   34.1680 C   0  0  0  0  0  0  0  0  0  0  0  0
   35.8250   23.0990   31.4200 H   0  0  0  0  0  0  0  0  0  0  0  0
   36.0880   20.8850   32.5720 H   0  0  0  0  0  0  0  0  0  0  0  0
   37.8270   20.6830   34.3690 H   0  0  0  0  0  0  0  0  0  0  0  0
   37.8950   27.3690   31.2330 N   0  0  0  0  0  0  0  0  0  0  0  0
   37.4150   27.7330   32.5530 C   0  0  0  0  0  0  0  0  0  0  0  0
   36.9960   26.4160   33.1370 C   0  0  0  0  0  0  0  0  0  0  0  0
   37.1100   25.3800   31.9360 C   0  0  1  0  0  0  0  0  0  0  0  0
   38.2750   25.9400   31.2440 C   0  0  0  0  0  0  0  0  0  0  0  0
   36.5130   28.3640   32.3970 H   0  0  0  0  0  0  0  0  0  0  0  0
   38.1780   28.2430   33.1600 H   0  0  0  0  0  0  0  0  0  0  0  0
   37.7270   26.0680   33.8710 H   0  0  0  0  0  0  0  0  0  0  0  0
   35.9570   26.4010   33.4990 H   0  0  0  0  0  0  0  0  0  0  0  0
   36.0960   25.4490   31.5250 H   0  0  0  0  0  0  0  0  0  0  0  0
   39.1620   25.8920   31.8710 H   0  0  0  0  0  0  0  0  0  0  0  0
   38.4330   25.5840   30.2070 H   0  0  0  0  0  0  0  0  0  0  0  0
   37.9900   28.2010   30.0960 C   0  0  0  0  0  0  0  0  0  0  0  0
   38.8840   27.7730   29.1020 C   0  0  0  0  0  0  0  0  0  0  0  0
   39.0380   28.5560   27.9500 C   0  0  0  0  0  0  0  0  0  0  0  0
   38.2820   29.7110   27.8820 N   0  0  0  0  0  0  0  0  0  0  0  0
   37.4420   30.0840   28.8500 C   0  0  0  0  0  0  0  0  0  0  0  0
   37.2910   29.3260   29.9680 N   0  0  0  0  0  0  0  0  0  0  0  0
   39.4910   26.8810   29.1150 H   0  0  0  0  0  0  0  0  0  0  0  0
   39.7120   28.2820   27.1480 H   0  0  0  0  0  0  0  0  0  0  0  0
   36.8840   31.0010   28.7250 H   0  0  0  0  0  0  0  0  0  0  0  0
   39.3260   22.8510   36.5540 C   0  0  0  0  0  0  0  0  0  0  0  0
   39.4630   22.5760   35.2210 C   0  0  0  0  0  0  0  0  0  0  0  0
   40.6570   22.0530   34.7350 C   0  0  0  0  0  0  0  0  0  0  0  0
   40.8700   21.8010   33.7020 H   0  0  0  0  0  0  0  0  0  0  0  0
   41.7000   21.8140   35.6170 C   0  0  0  0  0  0  0  0  0  0  0  0
   42.6570   21.4010   35.2670 H   0  0  0  0  0  0  0  0  0  0  0  0
   41.5930   22.0820   36.9800 C   0  0  0  0  0  3  0  0  0  0  0  0
   40.3770   22.6040   37.4060 C   0  0  0  0  0  3  0  0  0  0  0  0
   36.7740   23.0210   36.2950 H   0  0  0  0  0  0  0  0  0  0  0  0
   37.7990   23.4990   37.0540 S   0  0  0  0  0  0  0  0  0  0  0  0
   37.6140   23.2430   38.5150 O   0  0  0  0  0  0  0  0  0  0  0  0
   37.8990   25.0090   36.9060 O   0  0  0  0  0  0  0  0  0  0  0  0
  2  1  1  0  0  0  0
  2  7  1  0  0  0  0
  3  2  2  0  0  0  0
  4  3  1  0  0  0  0
  4  5  2  0  0  0  0
  5  6  1  0  0  0  0
  6  7  2  0  0  0  0
  6 10  1  0  0  0  0
  7 33  1  0  0  0  0
  8  4  1  0  0  0  0
  9  5  1  0  0  0  0
 11 15  1  0  0  0  0
 11 12  1  0  0  0  0
 12 13  1  0  0  0  0
 12 17  1  0  0  0  0
 13 19  1  0  0  0  0
 13 18  1  0  0  0  0
 14 20  1  6  0  0  0
 14  3  1  0  0  0  0
 14 13  1  0  0  0  0
 15 21  1  0  0  0  0
 15 14  1  0  0  0  0
 16 12  1  0  0  0  0
 22 15  1  0  0  0  0
 23 11  1  0  0  0  0
 24 29  1  0  0  0  0
 24 23  2  0  0  0  0
 25 24  1  0  0  0  0
 26 25  2  0  0  0  0
 26 27  1  0  0  0  0
 27 28  2  0  0  0  0
 28 23  1  0  0  0  0
 30 25  1  0  0  0  0
 31 27  1  0  0  0  0
 32 41  1  0  0  0  0
 32 39  1  0  0  0  0
 33 32  2  0  0  0  0
 34 33  1  0  0  0  0
 34 36  2  0  0  0  0
 35 34  1  0  0  0  0
 36 38  1  0  0  0  0
 37 36  1  0  0  0  0
 38 39  2  0  0  0  0
 40 41  1  0  0  0  0
 41 42  2  0  0  0  0
 43 41  2  0  0  0  0
M  END
>  <minimizedAffinity>
-5.67357922

$$$$
