REMARK  Name = 
REMARK  5 active torsions:
REMARK  status: ('A' for Active; 'I' for Inactive)
REMARK    1  A    between atoms: C_1  and  C_11
REMARK    2  A    between atoms: C_5  and  C_14
REMARK    3  A    between atoms: C_13  and  S_19
REMARK    4  A    between atoms: S_19  and  C_36
REMARK    5  A    between atoms: S_32  and  C_35
REMARK                            x       y       z     vdW  Elec       q    Type
REMARK                         _______ _______ _______ _____ _____    ______ ____
ROOT
ATOM      1  C   UNL     1      31.921  28.523  47.054  0.00  0.00    +0.000 A 
ATOM      2  C   UNL     1      32.996  29.386  46.836  0.00  0.00    +0.000 A 
ATOM      3  C   UNL     1      33.081  30.210  45.755  0.00  0.00    +0.000 A 
ATOM      4  C   UNL     1      32.067  30.207  44.814  0.00  0.00    +0.000 A 
ATOM      5  C   UNL     1      30.983  29.373  44.969  0.00  0.00    +0.000 A 
ATOM      6  C   UNL     1      30.963  28.567  46.086  0.00  0.00    +0.000 A 
ATOM      7  H   UNL     1      33.954  30.843  45.677  0.00  0.00    +0.000 HD
ATOM      8  H   UNL     1      32.232  30.893  44.011  0.00  0.00    +0.000 HD
ATOM      9  H   UNL     1      30.251  29.442  44.195  0.00  0.00    +0.000 HD
ATOM     10  H   UNL     1      30.017  27.989  45.980  0.00  0.00    +0.000 HD
ENDROOT
BRANCH   2  15
ATOM     11  C   UNL     1      36.008  30.280  48.709  0.00  0.00    +0.000 A 
ATOM     12  C   UNL     1      35.965  29.347  49.668  0.00  0.00    +0.000 A 
ATOM     13  C   UNL     1      34.977  28.428  49.737  0.00  0.00    +0.000 A 
ATOM     14  N   UNL     1      33.986  28.446  48.798  0.00  0.00    +0.000 NA
ATOM     15  C   UNL     1      34.055  29.396  47.842  0.00  0.00    +0.000 A 
ATOM     16  N   UNL     1      35.040  30.306  47.782  0.00  0.00    +0.000 NA
ATOM     17  H   UNL     1      36.742  29.302  50.437  0.00  0.00    +0.000 HD
ATOM     18  H   UNL     1      34.962  27.683  50.520  0.00  0.00    +0.000 HD
BRANCH  11  23
ATOM     19  C   UNL     1      38.136  33.190  49.465  0.00  0.00    +0.000 A 
ATOM     20  C   UNL     1      39.049  33.184  48.404  0.00  0.00    +0.000 A 
ATOM     21  C   UNL     1      38.914  32.168  47.441  0.00  0.00    +0.000 A 
ATOM     22  N   UNL     1      37.915  31.258  47.593  0.00  0.00    +0.000 NA
ATOM     23  C   UNL     1      37.059  31.291  48.616  0.00  0.00    +0.000 A 
ATOM     24  N   UNL     1      37.178  32.264  49.552  0.00  0.00    +0.000 NA
ATOM     25  H   UNL     1      38.292  33.984  50.159  0.00  0.00    +0.000 HD
ATOM     26  H   UNL     1      39.862  33.835  48.182  0.00  0.00    +0.000 HD
ATOM     27  H   UNL     1      39.539  32.033  46.570  0.00  0.00    +0.000 HD
ENDBRANCH  11  23
ENDBRANCH   2  15
BRANCH   1  28
ATOM     28  S   UNL     1      31.623  27.523  48.337  0.00  0.00    +0.000 S 
ATOM     29  O   UNL     1      31.905  26.045  47.909  0.00  0.00    +0.000 OA
ATOM     30  O   UNL     1      31.061  27.773  49.553  0.00  0.00    +0.000 OA
BRANCH  28  32
ATOM     31  C   UNL     1      28.872  27.860  48.966  0.00  0.00    +0.000 A 
ATOM     32  C   UNL     1      29.849  27.188  48.150  0.00  0.00    +0.000 A 
ATOM     33  C   UNL     1      29.333  26.395  47.264  0.00  0.00    +0.000 A 
ATOM     34  H   UNL     1      29.957  25.820  46.596  0.00  0.00    +0.000 HD
ATOM     35  C   UNL     1      27.981  26.183  47.079  0.00  0.00    +0.000 A 
ATOM     36  H   UNL     1      27.668  25.498  46.308  0.00  0.00    +0.000 HD
ATOM     37  C   UNL     1      27.094  26.846  47.877  0.00  0.00    +0.000 A 
ATOM     38  C   UNL     1      27.470  27.720  48.864  0.00  0.00    +0.000 A 
BRANCH  31  40
ATOM     39  H   UNL     1      28.662  28.445  51.381  0.00  0.00    +0.000 HD
ATOM     40  S   UNL     1      29.360  28.928  50.254  0.00  0.00    +0.000 S 
ATOM     41  O   UNL     1      28.770  30.308  50.099  0.00  0.00    +0.000 OA
ATOM     42  O   UNL     1      30.724  29.002  50.676  0.00  0.00    +0.000 OA
ENDBRANCH  31  40
ENDBRANCH  28  32
ENDBRANCH   1  28
TORSDOF 5
