
 OpenBabel03272507473D

 49 53  0  0  1  0  0  0  0  0999 V2000
   33.0450   28.7590   47.0420 N   0  0  0  0  0  0  0  0  0  0  0  0
   33.4770   28.3270   48.3200 C   0  0  0  0  0  0  0  0  0  0  0  0
   34.6180   29.0560   48.9250 C   0  0  0  0  0  0  0  0  0  0  0  0
   35.6960   29.4570   48.0220 C   0  0  1  0  0  0  0  0  0  0  0  0
   35.1740   29.8390   46.6260 C   0  0  0  0  0  0  0  0  0  0  0  0
   34.2130   28.7220   46.1850 C   0  0  0  0  0  0  0  0  0  0  0  0
   33.8060   27.2500   48.2220 H   0  0  0  0  0  0  0  0  0  0  0  0
   32.6530   28.2910   49.0500 H   0  0  0  0  0  0  0  0  0  0  0  0
   34.9840   28.5060   49.8080 H   0  0  0  0  0  0  0  0  0  0  0  0
   34.1150   30.0190   49.2740 H   0  0  0  0  0  0  0  0  0  0  0  0
   36.4030   28.6210   47.8130 H   0  0  0  0  0  0  0  0  0  0  0  0
   34.5620   30.7630   46.6810 H   0  0  0  0  0  0  0  0  0  0  0  0
   36.0400   29.8970   45.9690 H   0  0  0  0  0  0  0  0  0  0  0  0
   34.6930   27.7360   46.1660 H   0  0  0  0  0  0  0  0  0  0  0  0
   33.8450   28.9180   45.1610 H   0  0  0  0  0  0  0  0  0  0  0  0
   36.1820   31.1640   49.7140 C   0  0  0  0  0  0  0  0  0  0  0  0
   36.4800   30.6340   48.4690 C   0  0  0  0  0  0  0  0  0  0  0  0
   37.4310   31.1510   47.6320 C   0  0  0  0  0  0  0  0  0  0  0  0
   38.1340   32.2730   48.0640 C   0  0  0  0  0  0  0  0  0  0  0  0
   37.8380   32.8010   49.2990 C   0  0  0  0  0  0  0  0  0  0  0  0
   36.8740   32.2800   50.1540 C   0  0  0  0  0  0  0  0  0  0  0  0
   38.6410   33.9210   49.5550 O   0  0  0  0  0  0  0  0  0  0  0  0
   39.6760   33.8480   48.5740 C   0  0  0  0  0  0  0  0  0  0  0  0
   39.1500   33.0750   47.5310 O   0  0  0  0  0  0  0  0  0  0  0  0
   35.4680   30.8360   50.4580 H   0  0  0  0  0  0  0  0  0  0  0  0
   37.6430   30.7260   46.6810 H   0  0  0  0  0  0  0  0  0  0  0  0
   36.6870   32.7540   51.1320 H   0  0  0  0  0  0  0  0  0  0  0  0
   39.7930   34.8880   48.2020 H   0  0  0  0  0  0  0  0  0  0  0  0
   40.6040   33.4280   49.0190 H   0  0  0  0  0  0  0  0  0  0  0  0
   31.7390   29.1540   46.6330 C   0  0  0  0  0  0  0  0  0  0  0  0
   31.4550   30.0140   45.5770 C   0  0  0  0  0  0  0  0  0  0  0  0
   30.1090   30.2710   45.3120 C   0  0  0  0  0  0  0  0  0  0  0  0
   29.1520   29.6720   46.0980 N   0  0  0  0  0  0  0  0  0  0  0  0
   29.4890   28.8480   47.1080 C   0  0  0  0  0  0  0  0  0  0  0  0
   30.7470   28.5960   47.3670 N   0  0  0  0  0  0  0  0  0  0  0  0
   32.2880   30.4100   45.0510 H   0  0  0  0  0  0  0  0  0  0  0  0
   29.9010   30.9300   44.5030 H   0  0  0  0  0  0  0  0  0  0  0  0
   27.2680   29.0540   48.3090 C   0  0  0  0  0  0  0  0  0  0  0  0
   28.3080   28.3240   47.7830 C   0  0  0  0  0  0  0  0  0  0  0  0
   28.1230   26.9690   47.9620 C   0  0  0  0  0  0  0  0  0  0  0  0
   28.8400   26.2350   47.6130 H   0  0  0  0  0  0  0  0  0  0  0  0
   27.0400   26.3950   48.5890 C   0  0  0  0  0  0  0  0  0  0  0  0
   26.9240   25.3270   48.7140 H   0  0  0  0  0  0  0  0  0  0  0  0
   26.0400   27.1940   49.0900 C   0  0  0  0  0  3  0  0  0  0  0  0
   26.1680   28.5550   48.9420 C   0  0  0  0  0  3  0  0  0  0  0  0
   28.6290   31.0750   47.7500 H   0  0  0  0  0  0  0  0  0  0  0  0
   27.3340   30.7950   48.1540 S   0  0  0  0  0  0  0  0  0  0  0  0
   26.4020   31.3000   47.0830 O   0  0  0  0  0  0  0  0  0  0  0  0
   27.0700   31.4480   49.4540 O   0  0  0  0  0  0  0  0  0  0  0  0
  1  2  1  0  0  0  0
  2  3  1  0  0  0  0
  2  8  1  0  0  0  0
  3 10  1  0  0  0  0
  3  9  1  0  0  0  0
  4 11  1  6  0  0  0
  4 17  1  0  0  0  0
  4  3  1  0  0  0  0
  5 12  1  0  0  0  0
  5  4  1  0  0  0  0
  6  5  1  0  0  0  0
  6  1  1  0  0  0  0
  7  2  1  0  0  0  0
 13  5  1  0  0  0  0
 14  6  1  0  0  0  0
 15  6  1  0  0  0  0
 16 21  1  0  0  0  0
 16 25  1  0  0  0  0
 17 16  2  0  0  0  0
 18 19  2  0  0  0  0
 18 17  1  0  0  0  0
 19 20  1  0  0  0  0
 20 22  1  0  0  0  0
 20 21  2  0  0  0  0
 21 27  1  0  0  0  0
 23 29  1  0  0  0  0
 23 22  1  0  0  0  0
 24 19  1  0  0  0  0
 24 23  1  0  0  0  0
 26 18  1  0  0  0  0
 28 23  1  0  0  0  0
 30  1  1  0  0  0  0
 30 35  1  0  0  0  0
 31 30  2  0  0  0  0
 32 31  1  0  0  0  0
 32 33  2  0  0  0  0
 33 34  1  0  0  0  0
 34 35  2  0  0  0  0
 34 39  1  0  0  0  0
 36 31  1  0  0  0  0
 37 32  1  0  0  0  0
 38 45  1  0  0  0  0
 39 40  1  0  0  0  0
 39 38  2  0  0  0  0
 40 42  2  0  0  0  0
 41 40  1  0  0  0  0
 42 43  1  0  0  0  0
 42 44  1  0  0  0  0
 45 44  2  0  0  0  0
 46 47  1  0  0  0  0
 47 38  1  0  0  0  0
 47 49  2  0  0  0  0
 48 47  2  0  0  0  0
M  END
>  <minimizedAffinity>
-6.64005327

>  <minimizedRMSD>
1.47978914

$$$$
