REMARK  Name = 
REMARK  4 active torsions:
REMARK  status: ('A' for Active; 'I' for Inactive)
REMARK    1  A    between atoms: N_1  and  C_6
REMARK    2  A    between atoms: C_4  and  C_14
REMARK    3  A    between atoms: C_18  and  C_37
REMARK    4  A    between atoms: S_33  and  C_36
REMARK                            x       y       z     vdW  Elec       q    Type
REMARK                         _______ _______ _______ _____ _____    ______ ____
ROOT
ATOM      1  F   UNL     1      37.387  32.095  48.460  0.00  0.00    +0.000 F 
ATOM      2  C   UNL     1      36.977  31.160  49.343  0.00  0.00    +0.000 A 
ATOM      3  C   UNL     1      35.896  30.317  49.213  0.00  0.00    +0.000 A 
ATOM      4  C   UNL     1      35.646  29.386  50.235  0.00  0.00    +0.000 A 
ATOM      5  C   UNL     1      36.453  29.305  51.352  0.00  0.00    +0.000 A 
ATOM      6  C   UNL     1      37.541  30.170  51.462  0.00  0.00    +0.000 A 
ATOM      7  C   UNL     1      37.796  31.101  50.442  0.00  0.00    +0.000 A 
ATOM      8  H   UNL     1      34.777  28.784  50.017  0.00  0.00    +0.000 HD
ATOM      9  H   UNL     1      36.180  28.559  52.085  0.00  0.00    +0.000 HD
ATOM     10  H   UNL     1      38.155  30.083  52.348  0.00  0.00    +0.000 HD
ENDROOT
BRANCH   3  14
ATOM     11  N   UNL     1      33.553  29.872  46.495  0.00  0.00    +0.000 N 
ATOM     12  C   UNL     1      34.781  29.783  45.728  0.00  0.00    +0.000 C 
ATOM     13  C   UNL     1      35.839  30.100  46.743  0.00  0.00    +0.000 C 
ATOM     14  C   UNL     1      35.040  30.557  48.040  0.00  0.00    +0.000 C 
ATOM     15  C   UNL     1      33.872  29.677  47.926  0.00  0.00    +0.000 C 
ATOM     16  H   UNL     1      34.743  30.602  44.977  0.00  0.00    +0.000 HD
ATOM     17  H   UNL     1      34.924  28.798  45.260  0.00  0.00    +0.000 HD
ATOM     18  H   UNL     1      36.366  29.193  47.050  0.00  0.00    +0.000 HD
ATOM     19  H   UNL     1      36.505  30.926  46.448  0.00  0.00    +0.000 HD
ATOM     20  H   UNL     1      34.979  31.637  47.859  0.00  0.00    +0.000 HD
ATOM     21  H   UNL     1      34.162  28.632  48.008  0.00  0.00    +0.000 HD
ATOM     22  H   UNL     1      33.000  29.956  48.548  0.00  0.00    +0.000 HD
BRANCH  11  23
ATOM     23  C   UNL     1      32.251  30.113  46.004  0.00  0.00    +0.000 A 
ATOM     24  C   UNL     1      32.107  31.251  45.194  0.00  0.00    +0.000 A 
ATOM     25  C   UNL     1      30.840  31.558  44.681  0.00  0.00    +0.000 A 
ATOM     26  N   UNL     1      29.811  30.699  45.019  0.00  0.00    +0.000 NA
ATOM     27  C   UNL     1      29.989  29.627  45.793  0.00  0.00    +0.000 A 
ATOM     28  N   UNL     1      31.217  29.327  46.292  0.00  0.00    +0.000 NA
ATOM     29  H   UNL     1      32.881  31.945  44.906  0.00  0.00    +0.000 HD
ATOM     30  H   UNL     1      30.663  32.421  44.051  0.00  0.00    +0.000 HD
ATOM     31  H   UNL     1      29.136  29.001  46.014  0.00  0.00    +0.000 HD
ENDBRANCH  11  23
ENDBRANCH   3  14
BRANCH   7  33
ATOM     32  C   UNL     1      39.050  33.305  50.477  0.00  0.00    +0.000 A 
ATOM     33  C   UNL     1      38.960  31.953  50.662  0.00  0.00    +0.000 A 
ATOM     34  C   UNL     1      40.064  31.234  51.109  0.00  0.00    +0.000 A 
ATOM     35  H   UNL     1      40.101  30.165  51.288  0.00  0.00    +0.000 HD
ATOM     36  C   UNL     1      41.251  31.905  51.364  0.00  0.00    +0.000 A 
ATOM     37  H   UNL     1      42.142  31.368  51.719  0.00  0.00    +0.000 HD
ATOM     38  C   UNL     1      41.375  33.281  51.186  0.00  0.00    +0.000 A 
ATOM     39  C   UNL     1      40.239  33.944  50.738  0.00  0.00    +0.000 A 
BRANCH  32  41
ATOM     40  H   UNL     1      36.815  33.262  49.207  0.00  0.00    +0.000 HD
ATOM     41  S   UNL     1      37.618  34.103  49.918  0.00  0.00    +0.000 S 
ATOM     42  O   UNL     1      36.921  34.729  51.083  0.00  0.00    +0.000 OA
ATOM     43  O   UNL     1      38.076  35.256  49.040  0.00  0.00    +0.000 OA
ENDBRANCH  32  41
ENDBRANCH   7  33
TORSDOF 4
