
 OpenBabel03262520143D

 45 47  0  0  0  0  0  0  0  0999 V2000
   36.7500   27.9250   31.4630 C   0  0  0  0  0  0  0  0  0  0  0  0
   37.0820   28.9460   31.0680 H   0  0  0  0  0  0  0  0  0  0  0  0
   36.7970   27.2940   30.5980 H   0  0  0  0  0  0  0  0  0  0  0  0
   37.7790   27.5980   32.4840 C   0  0  0  0  0  0  0  0  0  0  0  0
   37.6170   28.2320   33.3830 H   0  0  0  0  0  0  0  0  0  0  0  0
   38.7930   27.8950   32.0910 H   0  0  0  0  0  0  0  0  0  0  0  0
   38.3930   27.1620   35.5460 Br  0  0  0  0  0  0  0  0  0  0  0  0
   38.0950   25.8000   34.2120 C   0  0  0  0  0  0  0  0  0  0  0  0
   38.1370   24.4670   34.5460 C   0  0  0  0  0  0  0  0  0  0  0  0
   37.9220   23.5540   33.5610 C   0  0  0  0  0  0  0  0  0  0  0  0
   37.6660   23.9270   32.2510 C   0  0  0  0  0  0  0  0  0  0  0  0
   37.6300   25.2850   31.9450 C   0  0  0  0  0  0  0  0  0  0  0  0
   37.8450   26.2090   32.9320 C   0  0  0  0  0  0  0  0  0  0  0  0
   37.9660   22.5010   33.8800 H   0  0  0  0  0  0  0  0  0  0  0  0
   37.5190   23.0870   31.5920 H   0  0  0  0  0  0  0  0  0  0  0  0
   37.4400   25.3780   30.9120 H   0  0  0  0  0  0  0  0  0  0  0  0
   39.9270   23.0600   37.4030 C   0  0  0  0  0  0  0  0  0  0  0  0
   39.0040   23.2230   38.4890 C   0  0  0  0  0  0  0  0  0  0  0  0
   37.8020   23.8100   38.1970 C   0  0  0  0  0  0  0  0  0  0  0  0
   37.5150   24.2170   36.9120 N   0  0  0  0  0  0  0  0  0  0  0  0
   38.4150   24.0420   35.9260 C   0  0  0  0  0  0  0  0  0  0  0  0
   39.6010   23.4690   36.1830 N   0  0  0  0  0  0  0  0  0  0  0  0
   40.8590   22.5930   37.6830 H   0  0  0  0  0  0  0  0  0  0  0  0
   39.1620   22.9320   39.5070 H   0  0  0  0  0  0  0  0  0  0  0  0
   36.9820   24.0210   38.8670 H   0  0  0  0  0  0  0  0  0  0  0  0
   35.5200   28.1790   32.1140 N   0  0  0  0  0  0  0  0  0  0  0  0
   34.6860   27.8890   31.5690 H   0  0  0  0  0  0  0  0  0  0  0  0
   35.3750   29.4010   32.8220 C   0  0  0  0  0  0  0  0  0  0  0  0
   36.2020   29.6170   33.4960 H   0  0  0  0  0  0  0  0  0  0  0  0
   35.3540   30.2350   32.0710 H   0  0  0  0  0  0  0  0  0  0  0  0
   34.0760   29.3470   33.5670 C   0  0  0  0  0  0  0  0  0  0  0  0
   33.2370   29.8090   32.9830 H   0  0  0  0  0  0  0  0  0  0  0  0
   33.7920   28.4220   34.0470 H   0  0  0  0  0  0  0  0  0  0  0  0
   33.4430   30.7560   35.7010 C   0  0  0  0  0  0  0  0  0  0  0  0
   34.2830   30.3150   34.7250 C   0  0  0  0  0  0  0  0  0  0  0  0
   35.5880   30.8310   34.8720 C   0  0  0  0  0  0  0  0  0  0  0  0
   36.3770   30.5560   34.1490 H   0  0  0  0  0  0  0  0  0  0  0  0
   36.0470   31.6830   35.8530 C   0  0  0  0  0  0  0  0  0  0  0  0
   37.0670   32.0310   35.8890 H   0  0  0  0  0  0  0  0  0  0  0  0
   35.1110   32.0620   36.7860 C   0  0  0  0  0  3  0  0  0  0  0  0
   33.8230   31.5920   36.6960 C   0  0  0  0  0  3  0  0  0  0  0  0
   31.2430   30.3200   34.3660 H   0  0  0  0  0  0  0  0  0  0  0  0
   31.8000   30.2170   35.5820 S   0  0  0  0  0  0  0  0  0  0  0  0
   31.7640   28.7630   36.0510 O   0  0  0  0  0  0  0  0  0  0  0  0
   30.9320   30.9410   36.6010 O   0  0  0  0  0  0  0  0  0  0  0  0
  1 26  1  0  0  0  0
  1  4  1  0  0  0  0
  2  1  1  0  0  0  0
  3  1  1  0  0  0  0
  4 13  1  0  0  0  0
  4  5  1  0  0  0  0
  6  4  1  0  0  0  0
  8  9  1  0  0  0  0
  8  7  1  0  0  0  0
  9 21  1  0  0  0  0
 10 14  1  0  0  0  0
 10  9  2  0  0  0  0
 11 10  1  0  0  0  0
 12 11  2  0  0  0  0
 12 13  1  0  0  0  0
 13  8  2  0  0  0  0
 15 11  1  0  0  0  0
 16 12  1  0  0  0  0
 17 23  1  0  0  0  0
 17 18  1  0  0  0  0
 18 24  1  0  0  0  0
 19 18  2  0  0  0  0
 19 25  1  0  0  0  0
 20 19  1  0  0  0  0
 21 22  1  0  0  0  0
 21 20  2  0  0  0  0
 22 17  2  0  0  0  0
 26 28  1  0  0  0  0
 27 26  1  0  0  0  0
 28 29  1  0  0  0  0
 28 31  1  0  0  0  0
 30 28  1  0  0  0  0
 31 33  1  0  0  0  0
 31 35  1  0  0  0  0
 32 31  1  0  0  0  0
 34 41  1  0  0  0  0
 35 36  1  0  0  0  0
 35 34  2  0  0  0  0
 36 38  2  0  0  0  0
 37 36  1  0  0  0  0
 38 39  1  0  0  0  0
 38 40  1  0  0  0  0
 41 40  2  0  0  0  0
 42 43  1  0  0  0  0
 43 34  1  0  0  0  0
 43 44  2  0  0  0  0
 43 45  2  0  0  0  0
M  END
>  <minimizedAffinity>
-5.83428907

$$$$

 OpenBabel03262520143D

 45 47  0  0  0  0  0  0  0  0999 V2000
   35.7630   26.9140   31.6380 C   0  0  0  0  0  0  0  0  0  0  0  0
   35.6780   26.3450   32.6270 H   0  0  0  0  0  0  0  0  0  0  0  0
   34.8780   27.5180   31.6190 H   0  0  0  0  0  0  0  0  0  0  0  0
   37.0100   27.7050   31.8010 C   0  0  0  0  0  0  0  0  0  0  0  0
   36.7660   28.7890   31.7420 H   0  0  0  0  0  0  0  0  0  0  0  0
   37.6880   27.5060   30.9230 H   0  0  0  0  0  0  0  0  0  0  0  0
   39.9550   26.6390   31.4360 Br  0  0  0  0  0  0  0  0  0  0  0  0
   39.0580   27.0390   33.0970 C   0  0  0  0  0  0  0  0  0  0  0  0
   39.6990   26.8680   34.3010 C   0  0  0  0  0  0  0  0  0  0  0  0
   39.0130   27.1640   35.4370 C   0  0  0  0  0  0  0  0  0  0  0  0
   37.7060   27.6250   35.4130 C   0  0  0  0  0  0  0  0  0  0  0  0
   37.0850   27.7870   34.1780 C   0  0  0  0  0  0  0  0  0  0  0  0
   37.7690   27.4920   33.0300 C   0  0  0  0  0  0  0  0  0  0  0  0
   39.5700   27.0110   36.3750 H   0  0  0  0  0  0  0  0  0  0  0  0
   37.3040   27.8120   36.3960 H   0  0  0  0  0  0  0  0  0  0  0  0
   36.1020   28.1260   34.3530 H   0  0  0  0  0  0  0  0  0  0  0  0
   42.5040   24.5970   34.8630 C   0  0  0  0  0  0  0  0  0  0  0  0
   43.6470   25.3780   34.4880 C   0  0  0  0  0  0  0  0  0  0  0  0
   43.4090   26.6550   34.0560 C   0  0  0  0  0  0  0  0  0  0  0  0
   42.1230   27.1450   33.9940 N   0  0  0  0  0  0  0  0  0  0  0  0
   41.0820   26.3730   34.3580 C   0  0  0  0  0  0  0  0  0  0  0  0
   41.2850   25.1170   34.7850 N   0  0  0  0  0  0  0  0  0  0  0  0
   42.7420   23.5980   35.1970 H   0  0  0  0  0  0  0  0  0  0  0  0
   44.6690   25.0610   34.5110 H   0  0  0  0  0  0  0  0  0  0  0  0
   44.1270   27.3940   33.7310 H   0  0  0  0  0  0  0  0  0  0  0  0
   35.9790   25.9080   30.6670 N   0  0  0  0  0  0  0  0  0  0  0  0
   35.7360   26.1950   29.7000 H   0  0  0  0  0  0  0  0  0  0  0  0
   35.6350   24.5710   30.9970 C   0  0  0  0  0  0  0  0  0  0  0  0
   35.0730   24.4800   31.9240 H   0  0  0  0  0  0  0  0  0  0  0  0
   34.9700   24.1750   30.1850 H   0  0  0  0  0  0  0  0  0  0  0  0
   36.9030   23.7740   31.0570 C   0  0  0  0  0  0  0  0  0  0  0  0
   37.1400   23.2870   30.0750 H   0  0  0  0  0  0  0  0  0  0  0  0
   37.7700   24.2150   31.5260 H   0  0  0  0  0  0  0  0  0  0  0  0
   37.0730   22.1800   33.1480 C   0  0  0  0  0  0  0  0  0  0  0  0
   36.5500   22.6020   31.9640 C   0  0  0  0  0  0  0  0  0  0  0  0
   35.4510   21.8150   31.5560 C   0  0  0  0  0  0  0  0  0  0  0  0
   34.9270   22.0440   30.6120 H   0  0  0  0  0  0  0  0  0  0  0  0
   34.9050   20.7340   32.2140 C   0  0  0  0  0  0  0  0  0  0  0  0
   34.0600   20.1860   31.8280 H   0  0  0  0  0  0  0  0  0  0  0  0
   35.5140   20.4000   33.4000 C   0  0  0  0  0  3  0  0  0  0  0  0
   36.5890   21.1280   33.8490 C   0  0  0  0  0  3  0  0  0  0  0  0
   39.0250   23.8800   32.8210 H   0  0  0  0  0  0  0  0  0  0  0  0
   38.4600   23.0530   33.7120 S   0  0  0  0  0  0  0  0  0  0  0  0
   38.0310   23.8350   34.9520 O   0  0  0  0  0  0  0  0  0  0  0  0
   39.5090   22.0880   34.2450 O   0  0  0  0  0  0  0  0  0  0  0  0
  1  4  1  0  0  0  0
  1  2  1  0  0  0  0
  3  1  1  0  0  0  0
  4 13  1  0  0  0  0
  5  4  1  0  0  0  0
  6  4  1  0  0  0  0
  7  8  1  0  0  0  0
  8  9  1  0  0  0  0
  9 21  1  0  0  0  0
  9 10  2  0  0  0  0
 10 14  1  0  0  0  0
 11 10  1  0  0  0  0
 11 15  1  0  0  0  0
 12 16  1  0  0  0  0
 12 11  2  0  0  0  0
 13  8  2  0  0  0  0
 13 12  1  0  0  0  0
 17 23  1  0  0  0  0
 18 24  1  0  0  0  0
 18 17  2  0  0  0  0
 19 18  1  0  0  0  0
 20 19  2  0  0  0  0
 20 21  1  0  0  0  0
 21 22  2  0  0  0  0
 22 17  1  0  0  0  0
 25 19  1  0  0  0  0
 26 28  1  0  0  0  0
 26  1  1  0  0  0  0
 27 26  1  0  0  0  0
 28 31  1  0  0  0  0
 28 29  1  0  0  0  0
 30 28  1  0  0  0  0
 31 33  1  0  0  0  0
 31 35  1  0  0  0  0
 32 31  1  0  0  0  0
 34 43  1  0  0  0  0
 34 41  1  0  0  0  0
 35 34  2  0  0  0  0
 36 35  1  0  0  0  0
 36 38  2  0  0  0  0
 37 36  1  0  0  0  0
 38 40  1  0  0  0  0
 39 38  1  0  0  0  0
 40 41  2  0  0  0  0
 42 43  1  0  0  0  0
 43 45  2  0  0  0  0
 43 44  2  0  0  0  0
M  END
>  <minimizedAffinity>
-5.82836628

$$$$

 OpenBabel03262520143D

 45 47  0  0  0  0  0  0  0  0999 V2000
   35.7960   23.7030   30.9170 C   0  0  0  0  0  0  0  0  0  0  0  0
   35.5240   23.4530   29.8340 H   0  0  0  0  0  0  0  0  0  0  0  0
   34.8650   23.6010   31.4390 H   0  0  0  0  0  0  0  0  0  0  0  0
   36.7860   22.6550   31.2760 C   0  0  0  0  0  0  0  0  0  0  0  0
   37.8130   23.0530   31.1200 H   0  0  0  0  0  0  0  0  0  0  0  0
   36.6890   21.7950   30.5520 H   0  0  0  0  0  0  0  0  0  0  0  0
   39.0250   23.6570   33.2570 Br  0  0  0  0  0  0  0  0  0  0  0  0
   37.5880   22.4290   33.6480 C   0  0  0  0  0  0  0  0  0  0  0  0
   37.4510   21.8820   34.9010 C   0  0  0  0  0  0  0  0  0  0  0  0
   36.4200   21.0210   35.1140 C   0  0  0  0  0  0  0  0  0  0  0  0
   35.5200   20.6860   34.1150 C   0  0  0  0  0  0  0  0  0  0  0  0
   35.6870   21.2560   32.8560 C   0  0  0  0  0  0  0  0  0  0  0  0
   36.7210   22.1240   32.6350 C   0  0  0  0  0  0  0  0  0  0  0  0
   36.3540   20.6120   36.1330 H   0  0  0  0  0  0  0  0  0  0  0  0
   34.7630   19.9910   34.4420 H   0  0  0  0  0  0  0  0  0  0  0  0
   34.9290   20.8770   32.2280 H   0  0  0  0  0  0  0  0  0  0  0  0
   38.7430   23.3100   38.0050 C   0  0  0  0  0  0  0  0  0  0  0  0
   40.1090   22.8740   38.0310 C   0  0  0  0  0  0  0  0  0  0  0  0
   40.5340   22.1060   36.9800 C   0  0  0  0  0  0  0  0  0  0  0  0
   39.6700   21.7810   35.9570 N   0  0  0  0  0  0  0  0  0  0  0  0
   38.3960   22.2140   35.9780 C   0  0  0  0  0  0  0  0  0  0  0  0
   37.9520   22.9690   36.9960 N   0  0  0  0  0  0  0  0  0  0  0  0
   38.4560   23.9120   38.8540 H   0  0  0  0  0  0  0  0  0  0  0  0
   40.8310   23.0890   38.7920 H   0  0  0  0  0  0  0  0  0  0  0  0
   41.5140   21.6830   36.8150 H   0  0  0  0  0  0  0  0  0  0  0  0
   36.4550   24.9520   30.8390 N   0  0  0  0  0  0  0  0  0  0  0  0
   37.4790   24.8800   30.6920 H   0  0  0  0  0  0  0  0  0  0  0  0
   36.0500   25.9820   31.7280 C   0  0  0  0  0  0  0  0  0  0  0  0
   34.9960   26.2420   31.6450 H   0  0  0  0  0  0  0  0  0  0  0  0
   36.2030   25.6130   32.7760 H   0  0  0  0  0  0  0  0  0  0  0  0
   36.9190   27.1760   31.4710 C   0  0  0  0  0  0  0  0  0  0  0  0
   37.5560   27.0440   30.5570 H   0  0  0  0  0  0  0  0  0  0  0  0
   36.4790   28.1610   31.5370 H   0  0  0  0  0  0  0  0  0  0  0  0
   39.2840   27.1410   32.6320 C   0  0  0  0  0  0  0  0  0  0  0  0
   37.9230   27.1440   32.6170 C   0  0  0  0  0  0  0  0  0  0  0  0
   37.3750   27.1700   33.9180 C   0  0  0  0  0  0  0  0  0  0  0  0
   36.2800   27.1760   34.0570 H   0  0  0  0  0  0  0  0  0  0  0  0
   38.0590   27.1920   35.1140 C   0  0  0  0  0  0  0  0  0  0  0  0
   37.5580   27.2110   36.0690 H   0  0  0  0  0  0  0  0  0  0  0  0
   39.4300   27.1880   35.0070 C   0  0  0  0  0  3  0  0  0  0  0  0
   40.0210   27.1630   33.7670 C   0  0  0  0  0  3  0  0  0  0  0  0
   41.3940   27.0050   31.1020 H   0  0  0  0  0  0  0  0  0  0  0  0
   40.0540   27.0610   31.0810 S   0  0  0  0  0  0  0  0  0  0  0  0
   39.4920   25.8380   30.3580 O   0  0  0  0  0  0  0  0  0  0  0  0
   39.6080   28.2260   30.2100 O   0  0  0  0  0  0  0  0  0  0  0  0
  1  4  1  0  0  0  0
  1  3  1  0  0  0  0
  2  1  1  0  0  0  0
  4 13  1  0  0  0  0
  5  4  1  0  0  0  0
  6  4  1  0  0  0  0
  7  8  1  0  0  0  0
  8  9  1  0  0  0  0
  9 10  2  0  0  0  0
  9 21  1  0  0  0  0
 10 14  1  0  0  0  0
 11 15  1  0  0  0  0
 11 10  1  0  0  0  0
 12 11  2  0  0  0  0
 13 12  1  0  0  0  0
 13  8  2  0  0  0  0
 16 12  1  0  0  0  0
 17 18  1  0  0  0  0
 17 23  1  0  0  0  0
 18 24  1  0  0  0  0
 19 18  2  0  0  0  0
 20 21  2  0  0  0  0
 20 19  1  0  0  0  0
 21 22  1  0  0  0  0
 22 17  2  0  0  0  0
 25 19  1  0  0  0  0
 26  1  1  0  0  0  0
 26 28  1  0  0  0  0
 27 26  1  0  0  0  0
 28 30  1  0  0  0  0
 29 28  1  0  0  0  0
 31 33  1  0  0  0  0
 31 28  1  0  0  0  0
 31 35  1  0  0  0  0
 32 31  1  0  0  0  0
 34 41  1  0  0  0  0
 35 34  2  0  0  0  0
 35 36  1  0  0  0  0
 36 37  1  0  0  0  0
 36 38  2  0  0  0  0
 38 39  1  0  0  0  0
 40 38  1  0  0  0  0
 41 40  2  0  0  0  0
 43 42  1  0  0  0  0
 43 34  1  0  0  0  0
 44 43  2  0  0  0  0
 45 43  2  0  0  0  0
M  END
>  <minimizedAffinity>
-5.61239815

$$$$

 OpenBabel03262520143D

 45 47  0  0  0  0  0  0  0  0999 V2000
   35.8170   27.3040   31.4650 C   0  0  0  0  0  0  0  0  0  0  0  0
   35.5930   26.8980   32.5110 H   0  0  0  0  0  0  0  0  0  0  0  0
   35.1400   28.1290   31.3660 H   0  0  0  0  0  0  0  0  0  0  0  0
   37.2400   27.7220   31.5540 C   0  0  0  0  0  0  0  0  0  0  0  0
   37.3160   28.8110   31.3370 H   0  0  0  0  0  0  0  0  0  0  0  0
   37.8240   27.2150   30.7340 H   0  0  0  0  0  0  0  0  0  0  0  0
   40.2310   26.7440   31.3540 Br  0  0  0  0  0  0  0  0  0  0  0  0
   39.2130   27.0550   32.9630 C   0  0  0  0  0  0  0  0  0  0  0  0
   39.7740   26.8510   34.2020 C   0  0  0  0  0  0  0  0  0  0  0  0
   39.0040   27.0850   35.2980 C   0  0  0  0  0  0  0  0  0  0  0  0
   37.6900   27.5150   35.2000 C   0  0  0  0  0  0  0  0  0  0  0  0
   37.1510   27.7110   33.9320 C   0  0  0  0  0  0  0  0  0  0  0  0
   37.9200   27.4780   32.8240 C   0  0  0  0  0  0  0  0  0  0  0  0
   39.5000   26.9090   36.2650 H   0  0  0  0  0  0  0  0  0  0  0  0
   37.2170   27.6520   36.1590 H   0  0  0  0  0  0  0  0  0  0  0  0
   36.1490   28.0180   34.0520 H   0  0  0  0  0  0  0  0  0  0  0  0
   42.5970   24.6680   34.9770 C   0  0  0  0  0  0  0  0  0  0  0  0
   43.7390   25.4540   34.6110 C   0  0  0  0  0  0  0  0  0  0  0  0
   43.4950   26.7050   34.1110 C   0  0  0  0  0  0  0  0  0  0  0  0
   42.2030   27.1650   33.9760 N   0  0  0  0  0  0  0  0  0  0  0  0
   41.1630   26.3890   34.3350 C   0  0  0  0  0  0  0  0  0  0  0  0
   41.3730   25.1580   34.8280 N   0  0  0  0  0  0  0  0  0  0  0  0
   42.8410   23.6910   35.3660 H   0  0  0  0  0  0  0  0  0  0  0  0
   44.7650   25.1600   34.6880 H   0  0  0  0  0  0  0  0  0  0  0  0
   44.2100   27.4440   33.7800 H   0  0  0  0  0  0  0  0  0  0  0  0
   35.7210   26.1750   30.6170 N   0  0  0  0  0  0  0  0  0  0  0  0
   35.1690   26.3410   29.7550 H   0  0  0  0  0  0  0  0  0  0  0  0
   35.5270   24.9020   31.2150 C   0  0  0  0  0  0  0  0  0  0  0  0
   35.3620   24.9430   32.2890 H   0  0  0  0  0  0  0  0  0  0  0  0
   34.6010   24.4500   30.7700 H   0  0  0  0  0  0  0  0  0  0  0  0
   36.7210   24.0570   30.8860 C   0  0  0  0  0  0  0  0  0  0  0  0
   36.4850   23.2810   30.1110 H   0  0  0  0  0  0  0  0  0  0  0  0
   37.6700   24.5440   30.7170 H   0  0  0  0  0  0  0  0  0  0  0  0
   36.5430   21.9930   32.5140 C   0  0  0  0  0  0  0  0  0  0  0  0
   36.9460   23.2420   32.1540 C   0  0  0  0  0  0  0  0  0  0  0  0
   37.7570   23.8450   33.1390 C   0  0  0  0  0  0  0  0  0  0  0  0
   38.1570   24.8620   32.9800 H   0  0  0  0  0  0  0  0  0  0  0  0
   38.1470   23.3080   34.3470 C   0  0  0  0  0  0  0  0  0  0  0  0
   38.7720   23.8420   35.0450 H   0  0  0  0  0  0  0  0  0  0  0  0
   37.6820   22.0400   34.6030 C   0  0  0  0  0  3  0  0  0  0  0  0
   36.8870   21.4020   33.6820 C   0  0  0  0  0  3  0  0  0  0  0  0
   34.8000   21.9840   30.5710 H   0  0  0  0  0  0  0  0  0  0  0  0
   35.4990   21.1850   31.3900 S   0  0  0  0  0  0  0  0  0  0  0  0
   36.3660   20.2290   30.5710 O   0  0  0  0  0  0  0  0  0  0  0  0
   34.5460   20.2570   32.1290 O   0  0  0  0  0  0  0  0  0  0  0  0
  1  4  1  0  0  0  0
  1  2  1  0  0  0  0
  3  1  1  0  0  0  0
  4 13  1  0  0  0  0
  5  4  1  0  0  0  0
  6  4  1  0  0  0  0
  7  8  1  0  0  0  0
  8  9  1  0  0  0  0
  9 21  1  0  0  0  0
  9 10  2  0  0  0  0
 10 14  1  0  0  0  0
 11 10  1  0  0  0  0
 11 15  1  0  0  0  0
 12 16  1  0  0  0  0
 12 11  2  0  0  0  0
 13  8  2  0  0  0  0
 13 12  1  0  0  0  0
 17 23  1  0  0  0  0
 18 24  1  0  0  0  0
 18 17  2  0  0  0  0
 19 18  1  0  0  0  0
 20 19  2  0  0  0  0
 20 21  1  0  0  0  0
 21 22  2  0  0  0  0
 22 17  1  0  0  0  0
 25 19  1  0  0  0  0
 26 28  1  0  0  0  0
 26  1  1  0  0  0  0
 27 26  1  0  0  0  0
 28 29  1  0  0  0  0
 30 28  1  0  0  0  0
 31 28  1  0  0  0  0
 31 35  1  0  0  0  0
 32 31  1  0  0  0  0
 33 31  1  0  0  0  0
 34 41  1  0  0  0  0
 35 34  2  0  0  0  0
 35 36  1  0  0  0  0
 36 38  2  0  0  0  0
 37 36  1  0  0  0  0
 38 40  1  0  0  0  0
 38 39  1  0  0  0  0
 41 40  2  0  0  0  0
 42 43  1  0  0  0  0
 43 45  2  0  0  0  0
 43 34  1  0  0  0  0
 44 43  2  0  0  0  0
M  END
>  <minimizedAffinity>
-5.60167789

$$$$

 OpenBabel03262520143D

 45 47  0  0  0  0  0  0  0  0999 V2000
   36.7820   28.3160   32.0570 C   0  0  0  0  0  0  0  0  0  0  0  0
   37.0320   29.4320   32.0720 H   0  0  0  0  0  0  0  0  0  0  0  0
   36.5240   28.1290   31.0340 H   0  0  0  0  0  0  0  0  0  0  0  0
   38.0560   27.6710   32.4680 C   0  0  0  0  0  0  0  0  0  0  0  0
   38.5130   28.2580   33.2950 H   0  0  0  0  0  0  0  0  0  0  0  0
   38.7910   27.7360   31.6160 H   0  0  0  0  0  0  0  0  0  0  0  0
   38.8310   27.1280   35.4760 Br  0  0  0  0  0  0  0  0  0  0  0  0
   38.2680   25.8290   34.1660 C   0  0  0  0  0  0  0  0  0  0  0  0
   38.1660   24.4970   34.4930 C   0  0  0  0  0  0  0  0  0  0  0  0
   37.7670   23.6300   33.5250 C   0  0  0  0  0  0  0  0  0  0  0  0
   37.4650   24.0460   32.2380 C   0  0  0  0  0  0  0  0  0  0  0  0
   37.5780   25.4010   31.9380 C   0  0  0  0  0  0  0  0  0  0  0  0
   37.9790   26.2800   32.9070 C   0  0  0  0  0  0  0  0  0  0  0  0
   37.7010   22.5770   33.8380 H   0  0  0  0  0  0  0  0  0  0  0  0
   37.1650   23.2380   31.5910 H   0  0  0  0  0  0  0  0  0  0  0  0
   37.3260   25.5280   30.9220 H   0  0  0  0  0  0  0  0  0  0  0  0
   37.8040   23.8440   38.0680 C   0  0  0  0  0  0  0  0  0  0  0  0
   39.0210   23.1690   38.4110 C   0  0  0  0  0  0  0  0  0  0  0  0
   39.9210   22.9640   37.3990 C   0  0  0  0  0  0  0  0  0  0  0  0
   39.6460   23.3960   36.1200 N   0  0  0  0  0  0  0  0  0  0  0  0
   38.4880   24.0260   35.8480 C   0  0  0  0  0  0  0  0  0  0  0  0
   37.5870   24.2410   36.8210 N   0  0  0  0  0  0  0  0  0  0  0  0
   37.1280   23.9830   38.8990 H   0  0  0  0  0  0  0  0  0  0  0  0
   39.2980   22.8080   39.3800 H   0  0  0  0  0  0  0  0  0  0  0  0
   40.8850   22.4800   37.4510 H   0  0  0  0  0  0  0  0  0  0  0  0
   35.8280   28.1520   33.0900 N   0  0  0  0  0  0  0  0  0  0  0  0
   34.8870   27.8750   32.7560 H   0  0  0  0  0  0  0  0  0  0  0  0
   35.8320   29.0850   34.1600 C   0  0  0  0  0  0  0  0  0  0  0  0
   35.5400   28.6560   35.1170 H   0  0  0  0  0  0  0  0  0  0  0  0
   36.8830   29.4580   34.2890 H   0  0  0  0  0  0  0  0  0  0  0  0
   34.9270   30.2180   33.7820 C   0  0  0  0  0  0  0  0  0  0  0  0
   35.4720   31.1990   33.7520 H   0  0  0  0  0  0  0  0  0  0  0  0
   34.2550   30.0880   32.9470 H   0  0  0  0  0  0  0  0  0  0  0  0
   33.9180   31.3000   35.9620 C   0  0  0  0  0  0  0  0  0  0  0  0
   34.0010   30.3570   34.9830 C   0  0  0  0  0  0  0  0  0  0  0  0
   33.0010   29.3690   35.1090 C   0  0  0  0  0  0  0  0  0  0  0  0
   32.9470   28.5400   34.3810 H   0  0  0  0  0  0  0  0  0  0  0  0
   32.0180   29.2890   36.0720 C   0  0  0  0  0  0  0  0  0  0  0  0
   31.2900   28.4940   36.0930 H   0  0  0  0  0  0  0  0  0  0  0  0
   32.0310   30.2960   37.0080 C   0  0  0  0  0  3  0  0  0  0  0  0
   32.9800   31.2860   36.9380 C   0  0  0  0  0  3  0  0  0  0  0  0
   35.0550   33.4560   36.8950 H   0  0  0  0  0  0  0  0  0  0  0  0
   35.1350   32.5340   35.9240 S   0  0  0  0  0  0  0  0  0  0  0  0
   36.4930   31.8340   35.9790 O   0  0  0  0  0  0  0  0  0  0  0  0
   35.1440   33.2240   34.5680 O   0  0  0  0  0  0  0  0  0  0  0  0
  1  2  1  0  0  0  0
  1  4  1  0  0  0  0
  1 26  1  0  0  0  0
  3  1  1  0  0  0  0
  4 13  1  0  0  0  0
  4  5  1  0  0  0  0
  6  4  1  0  0  0  0
  8  9  1  0  0  0  0
  8  7  1  0  0  0  0
  9 21  1  0  0  0  0
 10 14  1  0  0  0  0
 10  9  2  0  0  0  0
 11 10  1  0  0  0  0
 12 11  2  0  0  0  0
 12 13  1  0  0  0  0
 13  8  2  0  0  0  0
 15 11  1  0  0  0  0
 16 12  1  0  0  0  0
 17 18  1  0  0  0  0
 17 23  1  0  0  0  0
 18 24  1  0  0  0  0
 19 25  1  0  0  0  0
 19 18  2  0  0  0  0
 20 19  1  0  0  0  0
 21 20  2  0  0  0  0
 21 22  1  0  0  0  0
 22 17  2  0  0  0  0
 26 28  1  0  0  0  0
 27 26  1  0  0  0  0
 28 30  1  0  0  0  0
 28 29  1  0  0  0  0
 31 28  1  0  0  0  0
 31 35  1  0  0  0  0
 32 31  1  0  0  0  0
 33 31  1  0  0  0  0
 34 41  1  0  0  0  0
 35 36  1  0  0  0  0
 35 34  2  0  0  0  0
 36 38  2  0  0  0  0
 37 36  1  0  0  0  0
 38 39  1  0  0  0  0
 38 40  1  0  0  0  0
 41 40  2  0  0  0  0
 43 34  1  0  0  0  0
 43 44  2  0  0  0  0
 43 42  1  0  0  0  0
 45 43  2  0  0  0  0
M  END
>  <minimizedAffinity>
-5.58201694

$$$$

 OpenBabel03262520143D

 45 47  0  0  0  0  0  0  0  0999 V2000
   36.6890   28.8770   31.5850 C   0  0  0  0  0  0  0  0  0  0  0  0
   37.1090   29.5270   32.4270 H   0  0  0  0  0  0  0  0  0  0  0  0
   37.2990   29.1340   30.7410 H   0  0  0  0  0  0  0  0  0  0  0  0
   36.9180   27.4920   32.0720 C   0  0  0  0  0  0  0  0  0  0  0  0
   37.3630   26.8850   31.2530 H   0  0  0  0  0  0  0  0  0  0  0  0
   35.9220   27.0100   32.2900 H   0  0  0  0  0  0  0  0  0  0  0  0
   39.8880   26.5930   31.5120 Br  0  0  0  0  0  0  0  0  0  0  0  0
   39.0870   26.9630   33.2280 C   0  0  0  0  0  0  0  0  0  0  0  0
   39.8180   26.8450   34.3860 C   0  0  0  0  0  0  0  0  0  0  0  0
   39.1970   27.1160   35.5650 C   0  0  0  0  0  0  0  0  0  0  0  0
   37.8660   27.5010   35.6270 C   0  0  0  0  0  0  0  0  0  0  0  0
   37.1530   27.6100   34.4370 C   0  0  0  0  0  0  0  0  0  0  0  0
   37.7720   27.3390   33.2470 C   0  0  0  0  0  0  0  0  0  0  0  0
   39.8250   27.0090   36.4620 H   0  0  0  0  0  0  0  0  0  0  0  0
   37.5230   27.6780   36.6340 H   0  0  0  0  0  0  0  0  0  0  0  0
   36.1660   27.8940   34.6770 H   0  0  0  0  0  0  0  0  0  0  0  0
   42.7820   24.7430   34.7590 C   0  0  0  0  0  0  0  0  0  0  0  0
   43.8500   25.5880   34.3090 C   0  0  0  0  0  0  0  0  0  0  0  0
   43.5100   26.8480   33.8950 C   0  0  0  0  0  0  0  0  0  0  0  0
   42.1970   27.2620   33.9190 N   0  0  0  0  0  0  0  0  0  0  0  0
   41.2290   26.4320   34.3500 C   0  0  0  0  0  0  0  0  0  0  0  0
   41.5320   25.1900   34.7620 N   0  0  0  0  0  0  0  0  0  0  0  0
   43.1000   23.7610   35.0750 H   0  0  0  0  0  0  0  0  0  0  0  0
   44.8880   25.3310   34.2640 H   0  0  0  0  0  0  0  0  0  0  0  0
   44.1600   27.6270   33.5240 H   0  0  0  0  0  0  0  0  0  0  0  0
   35.3000   29.1430   31.5890 N   0  0  0  0  0  0  0  0  0  0  0  0
   34.8660   29.1410   30.6470 H   0  0  0  0  0  0  0  0  0  0  0  0
   34.8110   30.1450   32.4690 C   0  0  0  0  0  0  0  0  0  0  0  0
   35.5890   30.7910   32.8710 H   0  0  0  0  0  0  0  0  0  0  0  0
   34.1200   30.8090   31.8850 H   0  0  0  0  0  0  0  0  0  0  0  0
   34.0590   29.4610   33.5690 C   0  0  0  0  0  0  0  0  0  0  0  0
   32.9530   29.4550   33.3820 H   0  0  0  0  0  0  0  0  0  0  0  0
   34.4260   28.5130   33.9370 H   0  0  0  0  0  0  0  0  0  0  0  0
   33.3340   30.8350   35.6970 C   0  0  0  0  0  0  0  0  0  0  0  0
   34.2180   30.4030   34.7560 C   0  0  0  0  0  0  0  0  0  0  0  0
   35.5200   30.8990   34.9790 C   0  0  0  0  0  0  0  0  0  0  0  0
   36.3410   30.6290   34.2920 H   0  0  0  0  0  0  0  0  0  0  0  0
   35.9380   31.7260   35.9990 C   0  0  0  0  0  0  0  0  0  0  0  0
   36.9590   32.0610   36.0940 H   0  0  0  0  0  0  0  0  0  0  0  0
   34.9600   32.0980   36.8910 C   0  0  0  0  0  3  0  0  0  0  0  0
   33.6730   31.6470   36.7260 C   0  0  0  0  0  3  0  0  0  0  0  0
   31.5250   29.0080   35.2520 H   0  0  0  0  0  0  0  0  0  0  0  0
   31.6940   30.3190   35.4830 S   0  0  0  0  0  0  0  0  0  0  0  0
   30.9210   30.7320   36.7350 O   0  0  0  0  0  0  0  0  0  0  0  0
   31.0290   31.1200   34.3740 O   0  0  0  0  0  0  0  0  0  0  0  0
  1 26  1  0  0  0  0
  1  4  1  0  0  0  0
  1  2  1  0  0  0  0
  3  1  1  0  0  0  0
  4  6  1  0  0  0  0
  4 13  1  0  0  0  0
  5  4  1  0  0  0  0
  7  8  1  0  0  0  0
  8 13  2  0  0  0  0
  8  9  1  0  0  0  0
  9 10  2  0  0  0  0
 10 11  1  0  0  0  0
 10 14  1  0  0  0  0
 11 15  1  0  0  0  0
 12 16  1  0  0  0  0
 12 11  2  0  0  0  0
 13 12  1  0  0  0  0
 17 22  1  0  0  0  0
 17 23  1  0  0  0  0
 18 17  2  0  0  0  0
 19 20  2  0  0  0  0
 19 18  1  0  0  0  0
 20 21  1  0  0  0  0
 21  9  1  0  0  0  0
 21 22  2  0  0  0  0
 24 18  1  0  0  0  0
 25 19  1  0  0  0  0
 26 28  1  0  0  0  0
 27 26  1  0  0  0  0
 28 29  1  0  0  0  0
 28 31  1  0  0  0  0
 30 28  1  0  0  0  0
 31 33  1  0  0  0  0
 31 35  1  0  0  0  0
 32 31  1  0  0  0  0
 34 41  1  0  0  0  0
 35 36  1  0  0  0  0
 35 34  2  0  0  0  0
 36 38  2  0  0  0  0
 37 36  1  0  0  0  0
 38 39  1  0  0  0  0
 38 40  1  0  0  0  0
 41 40  2  0  0  0  0
 42 43  1  0  0  0  0
 43 34  1  0  0  0  0
 43 44  2  0  0  0  0
 45 43  2  0  0  0  0
M  END
>  <minimizedAffinity>
-5.58021879

$$$$

 OpenBabel03262520143D

 45 47  0  0  0  0  0  0  0  0999 V2000
   35.7320   26.7280   31.4530 C   0  0  0  0  0  0  0  0  0  0  0  0
   34.7820   26.1540   31.1750 H   0  0  0  0  0  0  0  0  0  0  0  0
   35.3990   27.4160   32.2040 H   0  0  0  0  0  0  0  0  0  0  0  0
   36.6320   25.6710   31.9820 C   0  0  0  0  0  0  0  0  0  0  0  0
   37.4550   25.4930   31.2550 H   0  0  0  0  0  0  0  0  0  0  0  0
   36.0650   24.6980   32.0330 H   0  0  0  0  0  0  0  0  0  0  0  0
   38.1990   23.2480   33.2550 Br  0  0  0  0  0  0  0  0  0  0  0  0
   37.9660   25.0090   34.0080 C   0  0  0  0  0  0  0  0  0  0  0  0
   38.5080   25.3290   35.2300 C   0  0  0  0  0  0  0  0  0  0  0  0
   38.3060   26.5860   35.7090 C   0  0  0  0  0  0  0  0  0  0  0  0
   37.5800   27.5360   35.0090 C   0  0  0  0  0  0  0  0  0  0  0  0
   37.0430   27.1810   33.7750 C   0  0  0  0  0  0  0  0  0  0  0  0
   37.2430   25.9180   33.2860 C   0  0  0  0  0  0  0  0  0  0  0  0
   38.7610   26.7920   36.6910 H   0  0  0  0  0  0  0  0  0  0  0  0
   37.5100   28.4800   35.5250 H   0  0  0  0  0  0  0  0  0  0  0  0
   36.5160   28.0140   33.4000 H   0  0  0  0  0  0  0  0  0  0  0  0
   39.3190   22.8770   37.8130 C   0  0  0  0  0  0  0  0  0  0  0  0
   40.6550   22.4740   37.4840 C   0  0  0  0  0  0  0  0  0  0  0  0
   41.2270   23.0610   36.3870 C   0  0  0  0  0  0  0  0  0  0  0  0
   40.5300   23.9930   35.6500 N   0  0  0  0  0  0  0  0  0  0  0  0
   39.2760   24.3390   35.9990 C   0  0  0  0  0  0  0  0  0  0  0  0
   38.6910   23.7790   37.0690 N   0  0  0  0  0  0  0  0  0  0  0  0
   38.9130   22.3870   38.6850 H   0  0  0  0  0  0  0  0  0  0  0  0
   41.2520   21.7580   38.0110 H   0  0  0  0  0  0  0  0  0  0  0  0
   42.2120   22.8950   35.9780 H   0  0  0  0  0  0  0  0  0  0  0  0
   36.2420   27.1900   30.2160 N   0  0  0  0  0  0  0  0  0  0  0  0
   36.8240   26.4940   29.7130 H   0  0  0  0  0  0  0  0  0  0  0  0
   36.7120   28.5280   30.1410 C   0  0  0  0  0  0  0  0  0  0  0  0
   37.7790   28.6280   30.3240 H   0  0  0  0  0  0  0  0  0  0  0  0
   36.5350   28.8970   29.0970 H   0  0  0  0  0  0  0  0  0  0  0  0
   35.9210   29.3450   31.1170 C   0  0  0  0  0  0  0  0  0  0  0  0
   34.8550   29.4740   30.7900 H   0  0  0  0  0  0  0  0  0  0  0  0
   36.0120   29.1260   32.1710 H   0  0  0  0  0  0  0  0  0  0  0  0
   36.3960   31.8580   31.7510 C   0  0  0  0  0  0  0  0  0  0  0  0
   36.5110   30.7430   30.9780 C   0  0  0  0  0  0  0  0  0  0  0  0
   37.3810   30.9400   29.8850 C   0  0  0  0  0  0  0  0  0  0  0  0
   37.5690   30.1170   29.1720 H   0  0  0  0  0  0  0  0  0  0  0  0
   38.0730   32.0860   29.5610 C   0  0  0  0  0  0  0  0  0  0  0  0
   38.7200   32.1500   28.7000 H   0  0  0  0  0  0  0  0  0  0  0  0
   37.8820   33.1480   30.4130 C   0  0  0  0  0  3  0  0  0  0  0  0
   37.0460   33.0170   31.4950 C   0  0  0  0  0  3  0  0  0  0  0  0
   35.1830   32.8400   33.8430 H   0  0  0  0  0  0  0  0  0  0  0  0
   35.3090   31.7330   33.0960 S   0  0  0  0  0  0  0  0  0  0  0  0
   33.9470   31.3190   32.5420 O   0  0  0  0  0  0  0  0  0  0  0  0
   35.7040   30.5630   33.9860 O   0  0  0  0  0  0  0  0  0  0  0  0
  1  4  1  0  0  0  0
  1  3  1  0  0  0  0
  2  1  1  0  0  0  0
  4  6  1  0  0  0  0
  4 13  1  0  0  0  0
  5  4  1  0  0  0  0
  7  8  1  0  0  0  0
  8  9  1  0  0  0  0
  9 10  2  0  0  0  0
  9 21  1  0  0  0  0
 10 14  1  0  0  0  0
 11 15  1  0  0  0  0
 11 10  1  0  0  0  0
 12 11  2  0  0  0  0
 13 12  1  0  0  0  0
 13  8  2  0  0  0  0
 16 12  1  0  0  0  0
 17 23  1  0  0  0  0
 18 17  1  0  0  0  0
 18 24  1  0  0  0  0
 19 18  2  0  0  0  0
 20 21  2  0  0  0  0
 20 19  1  0  0  0  0
 21 22  1  0  0  0  0
 22 17  2  0  0  0  0
 25 19  1  0  0  0  0
 26  1  1  0  0  0  0
 27 26  1  0  0  0  0
 28 26  1  0  0  0  0
 28 29  1  0  0  0  0
 28 31  1  0  0  0  0
 30 28  1  0  0  0  0
 31 33  1  0  0  0  0
 32 31  1  0  0  0  0
 34 43  1  0  0  0  0
 35 31  1  0  0  0  0
 35 34  2  0  0  0  0
 36 35  1  0  0  0  0
 37 36  1  0  0  0  0
 38 36  2  0  0  0  0
 38 40  1  0  0  0  0
 39 38  1  0  0  0  0
 40 41  2  0  0  0  0
 41 34  1  0  0  0  0
 43 42  1  0  0  0  0
 43 45  2  0  0  0  0
 44 43  2  0  0  0  0
M  END
>  <minimizedAffinity>
-5.44500494

$$$$

 OpenBabel03262520143D

 45 47  0  0  0  0  0  0  0  0999 V2000
   37.9960   25.0250   31.7410 C   0  0  0  0  0  0  0  0  0  0  0  0
   36.9230   25.2260   31.4000 H   0  0  0  0  0  0  0  0  0  0  0  0
   38.4750   24.6540   30.8560 H   0  0  0  0  0  0  0  0  0  0  0  0
   38.4850   26.3660   32.1520 C   0  0  0  0  0  0  0  0  0  0  0  0
   39.4210   26.6010   31.5980 H   0  0  0  0  0  0  0  0  0  0  0  0
   38.7850   26.3310   33.2380 H   0  0  0  0  0  0  0  0  0  0  0  0
   37.0010   27.3920   34.7380 Br  0  0  0  0  0  0  0  0  0  0  0  0
   36.8310   28.0850   32.9460 C   0  0  0  0  0  0  0  0  0  0  0  0
   35.9920   29.1400   32.6760 C   0  0  0  0  0  0  0  0  0  0  0  0
   35.9130   29.5820   31.3920 C   0  0  0  0  0  0  0  0  0  0  0  0
   36.6440   29.0040   30.3660 C   0  0  0  0  0  0  0  0  0  0  0  0
   37.4840   27.9370   30.6710 C   0  0  0  0  0  0  0  0  0  0  0  0
   37.5690   27.4880   31.9610 C   0  0  0  0  0  0  0  0  0  0  0  0
   35.2290   30.4290   31.2290 H   0  0  0  0  0  0  0  0  0  0  0  0
   36.4680   29.4680   29.4080 H   0  0  0  0  0  0  0  0  0  0  0  0
   37.9410   27.6200   29.7750 H   0  0  0  0  0  0  0  0  0  0  0  0
   33.1520   29.8750   34.8530 C   0  0  0  0  0  0  0  0  0  0  0  0
   33.6550   30.8950   35.7260 C   0  0  0  0  0  0  0  0  0  0  0  0
   34.9510   31.2920   35.5320 C   0  0  0  0  0  0  0  0  0  0  0  0
   35.7160   30.7230   34.5380 N   0  0  0  0  0  0  0  0  0  0  0  0
   35.1990   29.7670   33.7440 C   0  0  0  0  0  0  0  0  0  0  0  0
   33.9310   29.3580   33.9100 N   0  0  0  0  0  0  0  0  0  0  0  0
   32.1270   29.5960   35.0440 H   0  0  0  0  0  0  0  0  0  0  0  0
   33.1170   31.3790   36.5150 H   0  0  0  0  0  0  0  0  0  0  0  0
   35.5090   32.0380   36.0780 H   0  0  0  0  0  0  0  0  0  0  0  0
   37.8580   24.2130   32.8910 N   0  0  0  0  0  0  0  0  0  0  0  0
   36.8950   24.1870   33.2760 H   0  0  0  0  0  0  0  0  0  0  0  0
   38.8900   24.2470   33.8660 C   0  0  0  0  0  0  0  0  0  0  0  0
   39.8250   24.6650   33.4980 H   0  0  0  0  0  0  0  0  0  0  0  0
   38.5520   24.9150   34.7020 H   0  0  0  0  0  0  0  0  0  0  0  0
   39.0870   22.8500   34.3720 C   0  0  0  0  0  0  0  0  0  0  0  0
   38.2030   22.1960   34.1550 H   0  0  0  0  0  0  0  0  0  0  0  0
   40.0300   22.3580   34.1800 H   0  0  0  0  0  0  0  0  0  0  0  0
   39.9560   22.6780   36.8530 C   0  0  0  0  0  0  0  0  0  0  0  0
   39.0560   23.0080   35.8870 C   0  0  0  0  0  0  0  0  0  0  0  0
   37.9190   23.6560   36.4160 C   0  0  0  0  0  0  0  0  0  0  0  0
   37.1050   23.9820   35.7450 H   0  0  0  0  0  0  0  0  0  0  0  0
   37.6660   23.9590   37.7360 C   0  0  0  0  0  0  0  0  0  0  0  0
   36.7650   24.4580   38.0550 H   0  0  0  0  0  0  0  0  0  0  0  0
   38.6460   23.5800   38.6230 C   0  0  0  0  0  3  0  0  0  0  0  0
   39.7750   22.9450   38.1680 C   0  0  0  0  0  3  0  0  0  0  0  0
   41.1860   21.0110   35.2660 H   0  0  0  0  0  0  0  0  0  0  0  0
   41.3680   21.8330   36.3100 S   0  0  0  0  0  0  0  0  0  0  0  0
   42.4230   22.8840   35.9690 O   0  0  0  0  0  0  0  0  0  0  0  0
   41.9950   21.0600   37.4610 O   0  0  0  0  0  0  0  0  0  0  0  0
  1  4  1  0  0  0  0
  1 26  1  0  0  0  0
  2  1  1  0  0  0  0
  3  1  1  0  0  0  0
  4  6  1  0  0  0  0
  5  4  1  0  0  0  0
  8  7  1  0  0  0  0
  9  8  1  0  0  0  0
  9 21  1  0  0  0  0
 10  9  2  0  0  0  0
 11 12  2  0  0  0  0
 11 10  1  0  0  0  0
 12 13  1  0  0  0  0
 13  4  1  0  0  0  0
 13  8  2  0  0  0  0
 14 10  1  0  0  0  0
 15 11  1  0  0  0  0
 16 12  1  0  0  0  0
 17 23  1  0  0  0  0
 17 18  1  0  0  0  0
 18 24  1  0  0  0  0
 19 18  2  0  0  0  0
 19 25  1  0  0  0  0
 20 19  1  0  0  0  0
 21 22  1  0  0  0  0
 21 20  2  0  0  0  0
 22 17  2  0  0  0  0
 26 27  1  0  0  0  0
 26 28  1  0  0  0  0
 28 31  1  0  0  0  0
 28 30  1  0  0  0  0
 29 28  1  0  0  0  0
 31 35  1  0  0  0  0
 32 31  1  0  0  0  0
 33 31  1  0  0  0  0
 34 41  1  0  0  0  0
 35 36  1  0  0  0  0
 35 34  2  0  0  0  0
 36 38  2  0  0  0  0
 37 36  1  0  0  0  0
 38 39  1  0  0  0  0
 38 40  1  0  0  0  0
 41 40  2  0  0  0  0
 42 43  1  0  0  0  0
 43 34  1  0  0  0  0
 43 45  2  0  0  0  0
 44 43  2  0  0  0  0
M  END
>  <minimizedAffinity>
-5.43876219

$$$$

 OpenBabel03262520143D

 45 47  0  0  0  0  0  0  0  0999 V2000
   36.6450   28.5470   31.9130 C   0  0  0  0  0  0  0  0  0  0  0  0
   37.0200   29.1420   32.8160 H   0  0  0  0  0  0  0  0  0  0  0  0
   37.3840   28.7400   31.1610 H   0  0  0  0  0  0  0  0  0  0  0  0
   36.6540   27.1430   32.3960 C   0  0  0  0  0  0  0  0  0  0  0  0
   37.0990   26.4890   31.6140 H   0  0  0  0  0  0  0  0  0  0  0  0
   35.5900   26.7870   32.5090 H   0  0  0  0  0  0  0  0  0  0  0  0
   38.2260   24.4130   32.5440 Br  0  0  0  0  0  0  0  0  0  0  0  0
   38.1060   25.7640   33.9170 C   0  0  0  0  0  0  0  0  0  0  0  0
   38.7450   25.6000   35.1230 C   0  0  0  0  0  0  0  0  0  0  0  0
   38.6210   26.5860   36.0510 C   0  0  0  0  0  0  0  0  0  0  0  0
   37.8780   27.7330   35.8160 C   0  0  0  0  0  0  0  0  0  0  0  0
   37.2430   27.8680   34.5850 C   0  0  0  0  0  0  0  0  0  0  0  0
   37.3650   26.8810   33.6450 C   0  0  0  0  0  0  0  0  0  0  0  0
   39.1510   26.4070   36.9990 H   0  0  0  0  0  0  0  0  0  0  0  0
   37.8780   28.4150   36.6500 H   0  0  0  0  0  0  0  0  0  0  0  0
   36.7200   28.7840   34.5910 H   0  0  0  0  0  0  0  0  0  0  0  0
   39.5470   22.2180   36.2470 C   0  0  0  0  0  0  0  0  0  0  0  0
   40.9440   22.0910   35.9530 C   0  0  0  0  0  0  0  0  0  0  0  0
   41.5580   23.1720   35.3800 C   0  0  0  0  0  0  0  0  0  0  0  0
   40.8440   24.3190   35.1080 N   0  0  0  0  0  0  0  0  0  0  0  0
   39.5330   24.3900   35.4030 C   0  0  0  0  0  0  0  0  0  0  0  0
   38.9050   23.3450   35.9650 N   0  0  0  0  0  0  0  0  0  0  0  0
   39.1090   21.3400   36.6970 H   0  0  0  0  0  0  0  0  0  0  0  0
   41.5580   21.2320   36.1370 H   0  0  0  0  0  0  0  0  0  0  0  0
   42.5920   23.2750   35.0850 H   0  0  0  0  0  0  0  0  0  0  0  0
   35.3050   28.9680   31.7420 N   0  0  0  0  0  0  0  0  0  0  0  0
   34.9910   28.9860   30.7540 H   0  0  0  0  0  0  0  0  0  0  0  0
   34.8320   30.0430   32.5400 C   0  0  0  0  0  0  0  0  0  0  0  0
   35.6250   30.6660   32.9500 H   0  0  0  0  0  0  0  0  0  0  0  0
   34.2120   30.7110   31.8850 H   0  0  0  0  0  0  0  0  0  0  0  0
   33.9850   29.4640   33.6320 C   0  0  0  0  0  0  0  0  0  0  0  0
   32.8900   29.5630   33.4120 H   0  0  0  0  0  0  0  0  0  0  0  0
   34.2460   28.4950   34.0320 H   0  0  0  0  0  0  0  0  0  0  0  0
   33.3920   30.7980   35.8250 C   0  0  0  0  0  0  0  0  0  0  0  0
   34.2040   30.4160   34.8020 C   0  0  0  0  0  0  0  0  0  0  0  0
   35.4910   30.9870   34.8990 C   0  0  0  0  0  0  0  0  0  0  0  0
   36.2550   30.7630   34.1350 H   0  0  0  0  0  0  0  0  0  0  0  0
   35.9570   31.8390   35.8780 C   0  0  0  0  0  0  0  0  0  0  0  0
   36.9620   32.2320   35.8750 H   0  0  0  0  0  0  0  0  0  0  0  0
   35.0500   32.1550   36.8620 C   0  0  0  0  0  3  0  0  0  0  0  0
   33.7820   31.6300   36.8200 C   0  0  0  0  0  3  0  0  0  0  0  0
   31.2240   30.1080   34.5480 H   0  0  0  0  0  0  0  0  0  0  0  0
   31.7710   30.1870   35.7700 S   0  0  0  0  0  0  0  0  0  0  0  0
   31.7830   28.8080   36.4280 O   0  0  0  0  0  0  0  0  0  0  0  0
   30.8670   31.0080   36.6790 O   0  0  0  0  0  0  0  0  0  0  0  0
  1  4  1  0  0  0  0
  1  2  1  0  0  0  0
  3  1  1  0  0  0  0
  4  6  1  0  0  0  0
  4 13  1  0  0  0  0
  5  4  1  0  0  0  0
  7  8  1  0  0  0  0
  8  9  1  0  0  0  0
  9 21  1  0  0  0  0
  9 10  2  0  0  0  0
 10 14  1  0  0  0  0
 11 10  1  0  0  0  0
 11 15  1  0  0  0  0
 12 16  1  0  0  0  0
 12 11  2  0  0  0  0
 13  8  2  0  0  0  0
 13 12  1  0  0  0  0
 17 23  1  0  0  0  0
 18 24  1  0  0  0  0
 18 17  2  0  0  0  0
 19 18  1  0  0  0  0
 20 19  2  0  0  0  0
 20 21  1  0  0  0  0
 21 22  2  0  0  0  0
 22 17  1  0  0  0  0
 25 19  1  0  0  0  0
 26  1  1  0  0  0  0
 26 28  1  0  0  0  0
 27 26  1  0  0  0  0
 28 29  1  0  0  0  0
 28 31  1  0  0  0  0
 30 28  1  0  0  0  0
 31 33  1  0  0  0  0
 31 35  1  0  0  0  0
 32 31  1  0  0  0  0
 34 41  1  0  0  0  0
 35 36  1  0  0  0  0
 35 34  2  0  0  0  0
 36 38  2  0  0  0  0
 37 36  1  0  0  0  0
 38 40  1  0  0  0  0
 39 38  1  0  0  0  0
 41 40  2  0  0  0  0
 42 43  1  0  0  0  0
 43 34  1  0  0  0  0
 43 44  2  0  0  0  0
 43 45  2  0  0  0  0
M  END
>  <minimizedAffinity>
-5.39974928

$$$$
