
     RDKit          3D

 39 41  0  0  0  0  0  0  0  0999 V2000
   38.6808   32.1741   48.4119 C   0  0  0  0  0  0  0  0  0  0  0  0
   37.3132   29.9557   51.1003 C   0  0  0  0  0  0  0  0  0  0  0  0
   38.0552   30.9747   50.4314 C   0  0  0  0  0  0  0  0  0  0  0  0
   37.8935   31.1046   49.0701 C   0  0  0  0  0  0  0  0  0  0  0  0
   37.0505   30.2762   48.4199 N   0  0  0  0  0  0  0  0  0  0  0  0
   36.3566   29.3180   49.0671 C   0  0  0  0  0  0  0  0  0  0  0  0
   36.4925   29.1652   50.3977 N   0  0  0  0  0  0  0  0  0  0  0  0
   38.6922   32.0127   46.9082 C   0  0  1  0  0  0  0  0  0  0  0  0
   39.8048   32.8103   46.2118 C   0  0  0  0  0  0  0  0  0  0  0  0
   39.8195   31.3437   46.2330 C   0  0  2  0  0  0  0  0  0  0  0  0
   39.4519   30.5005   45.0414 C   0  0  0  0  0  0  0  0  0  0  0  0
   40.2322   30.8343   43.8012 C   0  0  0  0  0  0  0  0  0  0  0  0
   39.7313   32.1649   48.7731 H   0  0  0  0  0  0  0  0  0  0  0  0
   38.2409   33.1787   48.6197 H   0  0  0  0  0  0  0  0  0  0  0  0
   37.4682   29.8894   52.1552 H   0  0  0  0  0  0  0  0  0  0  0  0
   38.7256   31.6255   50.9813 H   0  0  0  0  0  0  0  0  0  0  0  0
   35.6849   28.6624   48.5290 H   0  0  0  0  0  0  0  0  0  0  0  0
   37.7204   32.0678   46.4070 H   0  0  0  0  0  0  0  0  0  0  0  0
   39.5294   33.3729   45.3044 H   0  0  0  0  0  0  0  0  0  0  0  0
   40.5241   33.3689   46.8506 H   0  0  0  0  0  0  0  0  0  0  0  0
   40.5712   30.8845   46.9366 H   0  0  0  0  0  0  0  0  0  0  0  0
   39.7112   29.4303   45.2706 H   0  0  0  0  0  0  0  0  0  0  0  0
   38.3680   30.4936   44.8819 H   0  0  0  0  0  0  0  0  0  0  0  0
   41.3006   30.5540   44.0491 H   0  0  0  0  0  0  0  0  0  0  0  0
   40.2993   31.9200   43.6010 H   0  0  0  0  0  0  0  0  0  0  0  0
   37.1304   31.9698   41.1264 H   0  0  0  0  0  0  0  0  0  0  0  0
   37.5820   31.4359   42.3326 S   0  0  0  0  0  0  0  0  0  0  0  0
   36.3044   30.9138   42.9762 O   0  0  0  0  0  0  0  0  0  0  0  0
   38.1371   32.5891   43.0702 O   0  0  0  0  0  0  0  0  0  0  0  0
   38.6915   30.1857   41.9246 C   0  0  0  0  0  0  0  0  0  0  0  0
   39.8597   30.0005   42.6564 C   0  0  0  0  0  0  0  0  0  0  0  0
   40.6390   28.9477   42.1937 C   0  0  0  0  0  0  0  0  0  0  0  0
   41.5683   28.7885   42.7649 H   0  0  0  0  0  0  0  0  0  0  0  0
   40.4022   28.0972   41.1370 C   0  0  0  0  0  0  0  0  0  0  0  0
   41.1158   27.3288   40.9144 H   0  0  0  0  0  0  0  0  0  0  0  0
   39.2228   28.3359   40.4510 C   0  0  0  0  0  0  0  0  0  0  0  0
   38.3690   29.3685   40.8342 C   0  0  0  0  0  0  0  0  0  0  0  0
   39.0153   27.6808   39.6169 H   0  0  0  0  0  0  0  0  0  0  0  0
   37.4628   29.5059   40.2599 H   0  0  0  0  0  0  0  0  0  0  0  0
  1  4  1  0
  3  2  2  0
  4  3  1  0
  5  4  2  0
  5  6  1  0
  6  7  2  0
  7  2  1  0
  8  1  1  0
  9 10  1  0
  9  8  1  0
 10  8  1  0
 11 10  1  0
 12 11  1  0
  1 13  1  0
  1 14  1  0
  2 15  1  0
  3 16  1  0
  6 17  1  0
  8 18  1  6
  9 19  1  0
  9 20  1  0
 10 21  1  1
 11 22  1  0
 11 23  1  0
 12 24  1  0
 12 25  1  0
 26 27  1  0
 27 28  2  0
 27 29  2  0
 27 30  1  0
 30 31  2  0
 31 32  1  0
 32 33  1  0
 32 34  2  0
 34 35  1  0
 34 36  1  0
 36 37  2  0
 37 30  1  0
 36 38  1  0
 37 39  1  0
 12 31  1  0
M  ISO  8  13   8  14   8  15  14  16  14  17  14  18  13  19  13  20  13
M  ISO  8  21  13  22   8  23   8  24   8  25   8  26  12  33  15  35  16
M  END
>  <DihAtoms>  (1) 
10,11,30,29

>  <DihDeg>  (1) 
76.14408306516692

$$$$
