REMARK  Name = 
REMARK  9 active torsions:
REMARK  status: ('A' for Active; 'I' for Inactive)
REMARK    1  A    between atoms: P_2  and  O_3
REMARK    2  A    between atoms: P_2  and  O_4
REMARK    3  A    between atoms: P_2  and  O_12
REMARK    4  A    between atoms: O_4  and  C_5
REMARK    5  A    between atoms: C_5  and  C_6
REMARK    6  A    between atoms: O_12  and  C_14
REMARK    7  A    between atoms: C_13  and  O_18
REMARK    8  A    between atoms: O_18  and  C_36
REMARK    9  A    between atoms: S_32  and  C_35
REMARK                            x       y       z     vdW  Elec       q    Type
REMARK                         _______ _______ _______ _____ _____    ______ ____
ROOT
ATOM      1  C   UNL     1      38.842  32.476  47.805  0.00  0.00    +0.000 C 
ATOM      2  C   UNL     1      38.258  31.455  48.756  0.00  0.00    +0.000 C 
ATOM      3  C   UNL     1      38.825  32.016  50.066  0.00  0.00    +0.000 C 
ATOM      4  O   UNL     1      38.467  33.353  49.961  0.00  0.00    +0.000 OA
ATOM      5  C   UNL     1      38.688  33.731  48.660  0.00  0.00    +0.000 C 
ATOM      6  H   UNL     1      39.892  32.231  47.620  0.00  0.00    +0.000 HD
ATOM      7  H   UNL     1      38.569  30.430  48.568  0.00  0.00    +0.000 HD
ATOM      8  H   UNL     1      39.914  31.899  50.096  0.00  0.00    +0.000 HD
ATOM      9  H   UNL     1      38.300  31.566  50.931  0.00  0.00    +0.000 HD
ATOM     10  H   UNL     1      37.967  34.452  48.240  0.00  0.00    +0.000 HD
ATOM     11  H   UNL     1      39.677  34.241  48.635  0.00  0.00    +0.000 HD
ENDROOT
BRANCH   2  12
ATOM     12  O   UNL     1      36.882  31.646  48.749  0.00  0.00    +0.000 OA
BRANCH  12  14
ATOM     13  O   UNL     1      36.042  29.942  46.971  0.00  0.00    +0.000 OA
ATOM     14  P   UNL     1      36.033  30.229  48.448  0.00  0.00    +0.000 P 
BRANCH  14  15
ATOM     15  O   UNL     1      36.800  28.915  49.243  0.00  0.00    +0.000 OA
ATOM     16  H   UNL     1      37.073  29.295  50.125  0.00  0.00    +0.000 HD
ENDBRANCH  14  15
BRANCH  14  17
ATOM     17  O   UNL     1      34.441  30.370  49.017  0.00  0.00    +0.000 OA
BRANCH  17  18
ATOM     18  C   UNL     1      34.176  29.238  49.766  0.00  0.00    +0.000 C 
ATOM     19  H   UNL     1      33.607  29.531  50.692  0.00  0.00    +0.000 HD
ATOM     20  H   UNL     1      35.090  28.695  50.098  0.00  0.00    +0.000 HD
BRANCH  18  21
ATOM     21  C   UNL     1      33.316  28.257  49.065  0.00  0.00    +0.000 A 
ATOM     22  C   UNL     1      33.944  27.379  48.215  0.00  0.00    +0.000 A 
ATOM     23  C   UNL     1      33.185  26.430  47.526  0.00  0.00    +0.000 A 
ATOM     24  N   UNL     1      31.839  26.435  47.745  0.00  0.00    +0.000 NA
ATOM     25  C   UNL     1      31.244  27.308  48.585  0.00  0.00    +0.000 A 
ATOM     26  N   UNL     1      31.984  28.228  49.253  0.00  0.00    +0.000 NA
ATOM     27  H   UNL     1      34.986  27.300  47.981  0.00  0.00    +0.000 HD
ATOM     28  H   UNL     1      33.602  25.704  46.840  0.00  0.00    +0.000 HD
ATOM     29  H   UNL     1      30.164  27.263  48.718  0.00  0.00    +0.000 HD
ENDBRANCH  18  21
ENDBRANCH  17  18
ENDBRANCH  14  17
ENDBRANCH  12  14
ENDBRANCH   2  12
BRANCH   1  30
ATOM     30  O   UNL     1      38.079  32.501  46.666  0.00  0.00    +0.000 OA
BRANCH  30  32
ATOM     31  C   UNL     1      38.947  31.029  45.066  0.00  0.00    +0.000 A 
ATOM     32  C   UNL     1      38.426  32.270  45.369  0.00  0.00    +0.000 A 
ATOM     33  C   UNL     1      38.309  33.159  44.318  0.00  0.00    +0.000 A 
ATOM     34  H   UNL     1      37.896  34.140  44.566  0.00  0.00    +0.000 HD
ATOM     35  C   UNL     1      38.680  32.863  43.028  0.00  0.00    +0.000 A 
ATOM     36  H   UNL     1      38.584  33.559  42.221  0.00  0.00    +0.000 HD
ATOM     37  C   UNL     1      39.189  31.609  42.805  0.00  0.00    +0.000 A 
ATOM     38  C   UNL     1      39.343  30.650  43.800  0.00  0.00    +0.000 A 
BRANCH  31  40
ATOM     39  H   UNL     1      38.730  30.336  47.542  0.00  0.00    +0.000 HD
ATOM     40  S   UNL     1      39.142  29.818  46.320  0.00  0.00    +0.000 S 
ATOM     41  O   UNL     1      38.237  28.664  46.032  0.00  0.00    +0.000 OA
ATOM     42  O   UNL     1      40.539  29.342  46.440  0.00  0.00    +0.000 OA
ENDBRANCH  31  40
ENDBRANCH  30  32
ENDBRANCH   1  30
TORSDOF 9
