
 OpenBabel03272504213D

 42 44  0  0  1  0  0  0  0  0999 V2000
   38.5060   31.9690   47.7380 C   0  0  2  0  0  0  0  0  0  0  0  0
   37.8530   30.9110   48.6000 C   0  0  1  0  0  0  0  0  0  0  0  0
   38.4080   31.3540   49.9600 C   0  0  0  0  0  0  0  0  0  0  0  0
   38.1100   32.7100   49.9410 O   0  0  0  0  0  0  0  0  0  0  0  0
   38.3820   33.1670   48.6750 C   0  0  0  0  0  0  0  0  0  0  0  0
   39.5490   31.6910   47.5610 H   0  0  0  0  0  0  0  0  0  0  0  0
   38.1250   29.8890   48.3480 H   0  0  0  0  0  0  0  0  0  0  0  0
   39.4890   31.1870   50.0080 H   0  0  0  0  0  0  0  0  0  0  0  0
   37.8410   30.8690   50.7780 H   0  0  0  0  0  0  0  0  0  0  0  0
   37.7040   33.9470   48.2900 H   0  0  0  0  0  0  0  0  0  0  0  0
   39.3930   33.6330   48.7100 H   0  0  0  0  0  0  0  0  0  0  0  0
   36.4870   31.1640   48.5740 O   0  0  0  0  0  0  0  0  0  0  0  0
   35.4890   29.2880   47.0720 O   0  0  0  0  0  0  0  0  0  0  0  0
   35.5700   29.7590   48.4980 P   0  0  1  0  0  0  0  0  0  0  0  0
   36.3290   28.5230   49.4170 O   0  0  0  0  0  0  0  0  0  0  0  0
   36.6630   28.9990   50.2290 H   0  0  0  0  0  0  0  0  0  0  0  0
   34.0180   30.0410   49.1210 O   0  0  0  0  0  0  0  0  0  0  0  0
   33.6480   28.9050   49.8180 C   0  0  0  0  0  0  0  0  0  0  0  0
   33.1160   29.2060   50.7630 H   0  0  0  0  0  0  0  0  0  0  0  0
   34.5060   28.2590   50.1140 H   0  0  0  0  0  0  0  0  0  0  0  0
   32.6910   28.0480   49.0800 C   0  0  0  0  0  0  0  0  0  0  0  0
   33.2210   27.1900   48.1470 C   0  0  0  0  0  0  0  0  0  0  0  0
   32.3680   26.3560   47.4200 C   0  0  0  0  0  0  0  0  0  0  0  0
   31.0340   26.4480   47.6870 N   0  0  0  0  0  0  0  0  0  0  0  0
   30.5370   27.2990   48.6090 C   0  0  0  0  0  0  0  0  0  0  0  0
   31.3680   28.1070   49.3140 N   0  0  0  0  0  0  0  0  0  0  0  0
   34.2460   27.0480   47.8700 H   0  0  0  0  0  0  0  0  0  0  0  0
   32.7050   25.6530   46.6690 H   0  0  0  0  0  0  0  0  0  0  0  0
   29.4610   27.3280   48.7780 H   0  0  0  0  0  0  0  0  0  0  0  0
   37.7760   32.1070   46.5860 O   0  0  0  0  0  0  0  0  0  0  0  0
   38.9810   31.8960   44.5900 C   0  0  0  0  0  0  0  0  0  0  0  0
   37.9180   31.4980   45.3750 C   0  0  0  0  0  0  0  0  0  0  0  0
   37.1010   30.5170   44.8490 C   0  0  0  0  0  0  0  0  0  0  0  0
   36.2610   30.2070   45.4770 H   0  0  0  0  0  0  0  0  0  0  0  0
   37.3000   29.9420   43.6170 C   0  0  0  0  0  0  0  0  0  0  0  0
   36.6610   29.1820   43.2190 H   0  0  0  0  0  0  0  0  0  0  0  0
   38.3770   30.3890   42.8940 C   0  0  0  0  0  3  0  0  0  0  0  0
   39.2530   31.3720   43.3420 C   0  0  0  0  0  3  0  0  0  0  0  0
   39.6590   33.6230   46.3830 H   0  0  0  0  0  0  0  0  0  0  0  0
   40.0870   33.1350   45.1540 S   0  0  0  0  0  0  0  0  0  0  0  0
   41.4280   32.5230   45.3940 O   0  0  0  0  0  0  0  0  0  0  0  0
   40.2120   34.2630   44.2010 O   0  0  0  0  0  0  0  0  0  0  0  0
  1  6  1  6  0  0  0
  1  2  1  0  0  0  0
  1  5  1  0  0  0  0
  2  7  1  6  0  0  0
  2  3  1  0  0  0  0
  3  8  1  0  0  0  0
  3  9  1  0  0  0  0
  4  3  1  0  0  0  0
  5 11  1  0  0  0  0
  5  4  1  0  0  0  0
 10  5  1  0  0  0  0
 12  2  1  0  0  0  0
 14 13  2  6  0  0  0
 14 12  1  0  0  0  0
 14 17  1  0  0  0  0
 14 15  1  0  0  0  0
 15 16  1  0  0  0  0
 17 18  1  0  0  0  0
 18 20  1  0  0  0  0
 18 19  1  0  0  0  0
 21 26  1  0  0  0  0
 21 18  1  0  0  0  0
 22 21  2  0  0  0  0
 23 24  2  0  0  0  0
 23 22  1  0  0  0  0
 24 25  1  0  0  0  0
 25 29  1  0  0  0  0
 25 26  2  0  0  0  0
 27 22  1  0  0  0  0
 28 23  1  0  0  0  0
 30  1  1  0  0  0  0
 31 40  1  0  0  0  0
 31 32  1  0  0  0  0
 32 30  1  0  0  0  0
 33 32  2  0  0  0  0
 33 34  1  0  0  0  0
 35 33  1  0  0  0  0
 36 35  1  0  0  0  0
 37 38  1  0  0  0  0
 37 35  2  0  0  0  0
 38 31  2  0  0  0  0
 40 41  2  0  0  0  0
 40 39  1  0  0  0  0
 42 40  2  0  0  0  0
M  END
>  <minimizedAffinity>
-4.64729643

>  <minimizedRMSD>
1.60569406

$$$$
