
 OpenBabel03272505393D

 34 36  0  0  0  0  0  0  0  0999 V2000
   40.8680   25.0310   34.7630 C   0  0  0  0  0  0  0  0  0  0  0  0
   42.1670   24.6100   34.6650 C   0  0  0  0  0  0  0  0  0  0  0  0
   43.1450   25.4340   34.1760 C   0  0  0  0  0  0  0  0  0  0  0  0
   42.8770   26.7390   33.7510 C   0  0  0  0  0  0  0  0  0  0  0  0
   41.5650   27.1940   33.8380 C   0  0  0  0  0  0  0  0  0  0  0  0
   40.6370   26.3140   34.3390 C   0  0  0  0  0  0  0  0  0  0  0  0
   42.4700   23.6180   34.9690 H   0  0  0  0  0  0  0  0  0  0  0  0
   44.1840   25.0980   34.0970 H   0  0  0  0  0  0  0  0  0  0  0  0
   43.6680   27.3700   33.3680 H   0  0  0  0  0  0  0  0  0  0  0  0
   41.3650   28.1930   33.5120 H   0  0  0  0  0  0  0  0  0  0  0  0
   38.4750   23.4620   37.0280 C   0  0  0  0  0  0  0  0  0  0  0  0
   37.8190   22.5370   36.2130 C   0  0  0  0  0  0  0  0  0  0  0  0
   38.2130   22.4630   34.8710 C   0  0  0  0  0  0  0  0  0  0  0  0
   39.2030   23.2950   34.4570 N   0  0  0  0  0  0  0  0  0  0  0  0
   39.8150   24.1770   35.2700 C   0  0  0  0  0  0  0  0  0  0  0  0
   39.4440   24.2530   36.5540 N   0  0  0  0  0  0  0  0  0  0  0  0
   37.0380   21.8800   36.5400 H   0  0  0  0  0  0  0  0  0  0  0  0
   37.7370   21.7610   34.1930 H   0  0  0  0  0  0  0  0  0  0  0  0
   38.0530   23.5440   38.4760 C   0  0  0  0  0  0  0  0  0  0  0  0
   37.5550   24.8260   38.7390 F   0  0  0  0  0  0  0  0  0  0  0  0
   37.1530   22.5650   38.7070 F   0  0  0  0  0  0  0  0  0  0  0  0
   39.2070   23.4190   39.2520 F   0  0  0  0  0  0  0  0  0  0  0  0
   38.6040   26.8120   33.1800 C   0  0  0  0  0  0  0  0  0  0  0  0
   39.2800   26.8990   34.3890 C   0  0  0  0  0  0  0  0  0  0  0  0
   38.6780   27.4860   35.4770 C   0  0  0  0  0  0  0  0  0  0  0  0
   39.2670   27.5120   36.3660 H   0  0  0  0  0  0  0  0  0  0  0  0
   37.3990   27.9910   35.3730 C   0  0  0  0  0  0  0  0  0  0  0  0
   36.9500   28.4480   36.2450 H   0  0  0  0  0  0  0  0  0  0  0  0
   36.6720   27.9350   34.1940 C   0  0  0  0  0  3  0  0  0  0  0  0
   37.3110   27.3440   33.1450 C   0  0  0  0  0  3  0  0  0  0  0  0
   40.6100   25.6980   31.9730 H   0  0  0  0  0  0  0  0  0  0  0  0
   39.3110   26.0730   31.7420 S   0  0  0  0  0  0  0  0  0  0  0  0
   38.4890   24.8730   31.3940 O   0  0  0  0  0  0  0  0  0  0  0  0
   39.2830   27.0440   30.5940 O   0  0  0  0  0  0  0  0  0  0  0  0
  1 15  1  0  0  0  0
  2  1  1  0  0  0  0
  2  7  1  0  0  0  0
  3  2  2  0  0  0  0
  4  5  2  0  0  0  0
  4  3  1  0  0  0  0
  5  6  1  0  0  0  0
  6 24  1  0  0  0  0
  6  1  2  0  0  0  0
  8  3  1  0  0  0  0
  9  4  1  0  0  0  0
 10  5  1  0  0  0  0
 11 19  1  0  0  0  0
 12 17  1  0  0  0  0
 12 11  2  0  0  0  0
 13 12  1  0  0  0  0
 14 13  2  0  0  0  0
 14 15  1  0  0  0  0
 15 16  2  0  0  0  0
 16 11  1  0  0  0  0
 18 13  1  0  0  0  0
 19 21  1  0  0  0  0
 19 20  1  0  0  0  0
 19 22  1  0  0  0  0
 23 24  1  0  0  0  0
 24 25  2  0  0  0  0
 25 26  1  0  0  0  0
 27 25  1  0  0  0  0
 27 28  1  0  0  0  0
 29 27  2  0  0  0  0
 30 23  2  0  0  0  0
 30 29  1  0  0  0  0
 32 31  1  0  0  0  0
 32 23  1  0  0  0  0
 33 32  2  0  0  0  0
 34 32  2  0  0  0  0
M  END
>  <minimizedAffinity>
-6.16463089

$$$$

 OpenBabel03272505393D

 34 36  0  0  0  0  0  0  0  0999 V2000
   38.2690   24.6880   33.8900 C   0  0  0  0  0  0  0  0  0  0  0  0
   37.5270   25.7110   33.3630 C   0  0  0  0  0  0  0  0  0  0  0  0
   37.6210   26.9830   33.8580 C   0  0  0  0  0  0  0  0  0  0  0  0
   38.4700   27.3110   34.9190 C   0  0  0  0  0  0  0  0  0  0  0  0
   39.2360   26.2910   35.4750 C   0  0  0  0  0  0  0  0  0  0  0  0
   39.0910   25.0390   34.9280 C   0  0  0  0  0  0  0  0  0  0  0  0
   36.8420   25.5550   32.5410 H   0  0  0  0  0  0  0  0  0  0  0  0
   37.0270   27.8020   33.4370 H   0  0  0  0  0  0  0  0  0  0  0  0
   38.5260   28.3250   35.2920 H   0  0  0  0  0  0  0  0  0  0  0  0
   39.8850   26.5460   36.2870 H   0  0  0  0  0  0  0  0  0  0  0  0
   37.0350   21.3190   33.2220 C   0  0  0  0  0  0  0  0  0  0  0  0
   38.0420   20.7570   32.4350 C   0  0  0  0  0  0  0  0  0  0  0  0
   39.1530   21.5580   32.1360 C   0  0  0  0  0  0  0  0  0  0  0  0
   39.1710   22.8220   32.6330 N   0  0  0  0  0  0  0  0  0  0  0  0
   38.1820   23.3320   33.3890 C   0  0  0  0  0  0  0  0  0  0  0  0
   37.1180   22.5730   33.6790 N   0  0  0  0  0  0  0  0  0  0  0  0
   38.0270   19.7600   32.0440 H   0  0  0  0  0  0  0  0  0  0  0  0
   39.9650   21.1710   31.5280 H   0  0  0  0  0  0  0  0  0  0  0  0
   35.8380   20.4580   33.5480 C   0  0  0  0  0  0  0  0  0  0  0  0
   36.0540   19.1640   33.0560 F   0  0  0  0  0  0  0  0  0  0  0  0
   35.6430   20.4940   34.8820 F   0  0  0  0  0  0  0  0  0  0  0  0
   34.7550   20.9620   32.8240 F   0  0  0  0  0  0  0  0  0  0  0  0
   39.3410   23.4320   36.6830 C   0  0  0  0  0  0  0  0  0  0  0  0
   39.9510   24.0350   35.5920 C   0  0  0  0  0  0  0  0  0  0  0  0
   41.2280   23.6790   35.2300 C   0  0  0  0  0  0  0  0  0  0  0  0
   41.6220   24.1920   34.3800 H   0  0  0  0  0  0  0  0  0  0  0  0
   41.9100   22.7200   35.9480 C   0  0  0  0  0  0  0  0  0  0  0  0
   42.9150   22.4600   35.6410 H   0  0  0  0  0  0  0  0  0  0  0  0
   41.3570   22.0810   37.0470 C   0  0  0  0  0  3  0  0  0  0  0  0
   40.0900   22.4680   37.3660 C   0  0  0  0  0  3  0  0  0  0  0  0
   37.1700   24.8260   36.4220 H   0  0  0  0  0  0  0  0  0  0  0  0
   37.7040   23.8360   37.2070 S   0  0  0  0  0  0  0  0  0  0  0  0
   36.8720   22.5980   37.1020 O   0  0  0  0  0  0  0  0  0  0  0  0
   37.7200   24.3050   38.6360 O   0  0  0  0  0  0  0  0  0  0  0  0
  1  6  1  0  0  0  0
  2  3  1  0  0  0  0
  2  1  2  0  0  0  0
  3  4  2  0  0  0  0
  4  9  1  0  0  0  0
  4  5  1  0  0  0  0
  5 10  1  0  0  0  0
  6  5  2  0  0  0  0
  6 24  1  0  0  0  0
  7  2  1  0  0  0  0
  8  3  1  0  0  0  0
 11 19  1  0  0  0  0
 11 16  1  0  0  0  0
 12 11  2  0  0  0  0
 13 12  1  0  0  0  0
 13 14  2  0  0  0  0
 14 15  1  0  0  0  0
 15 16  2  0  0  0  0
 15  1  1  0  0  0  0
 17 12  1  0  0  0  0
 18 13  1  0  0  0  0
 19 21  1  0  0  0  0
 20 19  1  0  0  0  0
 22 19  1  0  0  0  0
 23 32  1  0  0  0  0
 23 30  1  0  0  0  0
 24 23  2  0  0  0  0
 25 24  1  0  0  0  0
 25 27  2  0  0  0  0
 26 25  1  0  0  0  0
 27 29  1  0  0  0  0
 28 27  1  0  0  0  0
 29 30  2  0  0  0  0
 31 32  1  0  0  0  0
 32 34  2  0  0  0  0
 33 32  2  0  0  0  0
M  END
>  <minimizedAffinity>
-6.10829401

$$$$

 OpenBabel03272505393D

 34 36  0  0  0  0  0  0  0  0999 V2000
   40.3630   25.5260   33.9130 C   0  0  0  0  0  0  0  0  0  0  0  0
   41.4690   26.1850   34.3800 C   0  0  0  0  0  0  0  0  0  0  0  0
   42.0100   27.2370   33.6930 C   0  0  0  0  0  0  0  0  0  0  0  0
   41.4730   27.6960   32.4860 C   0  0  0  0  0  0  0  0  0  0  0  0
   40.3480   27.0460   31.9870 C   0  0  0  0  0  0  0  0  0  0  0  0
   39.8590   25.9980   32.7300 C   0  0  0  0  0  0  0  0  0  0  0  0
   41.9540   25.9020   35.3040 H   0  0  0  0  0  0  0  0  0  0  0  0
   42.8940   27.7640   34.0650 H   0  0  0  0  0  0  0  0  0  0  0  0
   41.9200   28.5310   31.9620 H   0  0  0  0  0  0  0  0  0  0  0  0
   39.9400   27.4010   31.0650 H   0  0  0  0  0  0  0  0  0  0  0  0
   38.7850   23.5240   36.5250 C   0  0  0  0  0  0  0  0  0  0  0  0
   38.6740   22.2610   35.9400 C   0  0  0  0  0  0  0  0  0  0  0  0
   39.1500   22.1100   34.6310 C   0  0  0  0  0  0  0  0  0  0  0  0
   39.6850   23.2000   34.0240 N   0  0  0  0  0  0  0  0  0  0  0  0
   39.7760   24.4050   34.6180 C   0  0  0  0  0  0  0  0  0  0  0  0
   39.3230   24.5580   35.8680 N   0  0  0  0  0  0  0  0  0  0  0  0
   38.2530   21.4000   36.4200 H   0  0  0  0  0  0  0  0  0  0  0  0
   39.0890   21.1490   34.1290 H   0  0  0  0  0  0  0  0  0  0  0  0
   38.2730   23.6900   37.9360 C   0  0  0  0  0  0  0  0  0  0  0  0
   37.9700   25.0390   38.1610 F   0  0  0  0  0  0  0  0  0  0  0  0
   37.2120   22.8720   38.0980 F   0  0  0  0  0  0  0  0  0  0  0  0
   39.3300   23.3900   38.7990 F   0  0  0  0  0  0  0  0  0  0  0  0
   37.4740   25.9370   32.5520 C   0  0  0  0  0  0  0  0  0  0  0  0
   38.6660   25.3820   32.1100 C   0  0  0  0  0  0  0  0  0  0  0  0
   38.6540   24.3640   31.1850 C   0  0  0  0  0  0  0  0  0  0  0  0
   39.6140   23.9950   30.9000 H   0  0  0  0  0  0  0  0  0  0  0  0
   37.4570   23.8890   30.6930 C   0  0  0  0  0  0  0  0  0  0  0  0
   37.4780   23.0870   29.9660 H   0  0  0  0  0  0  0  0  0  0  0  0
   36.2330   24.4010   31.0940 C   0  0  0  0  0  3  0  0  0  0  0  0
   36.2970   25.4080   32.0110 C   0  0  0  0  0  3  0  0  0  0  0  0
   38.6460   27.8150   33.9020 H   0  0  0  0  0  0  0  0  0  0  0  0
   37.4100   27.2460   33.7350 S   0  0  0  0  0  0  0  0  0  0  0  0
   36.4410   28.2690   33.2330 O   0  0  0  0  0  0  0  0  0  0  0  0
   36.9340   26.7200   35.0610 O   0  0  0  0  0  0  0  0  0  0  0  0
  1  2  1  0  0  0  0
  1 15  1  0  0  0  0
  2  7  1  0  0  0  0
  3  8  1  0  0  0  0
  3  2  2  0  0  0  0
  4  3  1  0  0  0  0
  5  4  2  0  0  0  0
  5  6  1  0  0  0  0
  6  1  2  0  0  0  0
  9  4  1  0  0  0  0
 10  5  1  0  0  0  0
 11 19  1  0  0  0  0
 12 17  1  0  0  0  0
 12 11  1  0  0  0  0
 13 12  2  0  0  0  0
 14 15  2  0  0  0  0
 14 13  1  0  0  0  0
 15 16  1  0  0  0  0
 16 11  2  0  0  0  0
 18 13  1  0  0  0  0
 19 21  1  0  0  0  0
 19 20  1  0  0  0  0
 19 22  1  0  0  0  0
 23 32  1  0  0  0  0
 24 23  1  0  0  0  0
 24  6  1  0  0  0  0
 25 24  2  0  0  0  0
 26 25  1  0  0  0  0
 27 29  2  0  0  0  0
 27 25  1  0  0  0  0
 28 27  1  0  0  0  0
 29 30  1  0  0  0  0
 30 23  2  0  0  0  0
 32 31  1  0  0  0  0
 32 34  2  0  0  0  0
 33 32  2  0  0  0  0
M  END
>  <minimizedAffinity>
-5.89223528

$$$$

 OpenBabel03272505393D

 34 36  0  0  0  0  0  0  0  0999 V2000
   38.2510   22.9440   33.6210 C   0  0  0  0  0  0  0  0  0  0  0  0
   37.2620   22.0890   33.2140 C   0  0  0  0  0  0  0  0  0  0  0  0
   36.6320   22.2550   32.0100 C   0  0  0  0  0  0  0  0  0  0  0  0
   36.9570   23.2950   31.1350 C   0  0  0  0  0  0  0  0  0  0  0  0
   37.9590   24.1800   31.5220 C   0  0  0  0  0  0  0  0  0  0  0  0
   38.5480   23.9530   32.7420 C   0  0  0  0  0  0  0  0  0  0  0  0
   36.9420   21.2550   33.8230 H   0  0  0  0  0  0  0  0  0  0  0  0
   35.8410   21.5720   31.6840 H   0  0  0  0  0  0  0  0  0  0  0  0
   36.4440   23.4050   30.1880 H   0  0  0  0  0  0  0  0  0  0  0  0
   38.2050   24.9740   30.8490 H   0  0  0  0  0  0  0  0  0  0  0  0
   38.9980   23.1470   37.1880 C   0  0  0  0  0  0  0  0  0  0  0  0
   40.2340   22.5070   37.2950 C   0  0  0  0  0  0  0  0  0  0  0  0
   40.8050   22.0020   36.1200 C   0  0  0  0  0  0  0  0  0  0  0  0
   40.1190   22.1720   34.9610 N   0  0  0  0  0  0  0  0  0  0  0  0
   38.9270   22.7950   34.8920 C   0  0  0  0  0  0  0  0  0  0  0  0
   38.3740   23.2790   36.0110 N   0  0  0  0  0  0  0  0  0  0  0  0
   40.7750   22.3740   38.2100 H   0  0  0  0  0  0  0  0  0  0  0  0
   41.7650   21.4960   36.1460 H   0  0  0  0  0  0  0  0  0  0  0  0
   38.3790   23.6940   38.4530 C   0  0  0  0  0  0  0  0  0  0  0  0
   37.2600   22.9200   38.7900 F   0  0  0  0  0  0  0  0  0  0  0  0
   39.3260   23.7050   39.4130 F   0  0  0  0  0  0  0  0  0  0  0  0
   37.8840   24.9660   38.1570 F   0  0  0  0  0  0  0  0  0  0  0  0
   39.0960   26.1010   33.6420 C   0  0  0  0  0  0  0  0  0  0  0  0
   39.5960   24.9490   33.0520 C   0  0  0  0  0  0  0  0  0  0  0  0
   40.9450   24.8240   32.8130 C   0  0  0  0  0  0  0  0  0  0  0  0
   41.2440   23.9070   32.3570 H   0  0  0  0  0  0  0  0  0  0  0  0
   41.8070   25.8420   33.1590 C   0  0  0  0  0  0  0  0  0  0  0  0
   42.8630   25.7170   32.9590 H   0  0  0  0  0  0  0  0  0  0  0  0
   41.3710   27.0170   33.7510 C   0  0  0  0  0  3  0  0  0  0  0  0
   40.0270   27.0940   33.9670 C   0  0  0  0  0  3  0  0  0  0  0  0
   36.6420   25.2740   33.5170 H   0  0  0  0  0  0  0  0  0  0  0  0
   37.3790   26.3330   33.9810 S   0  0  0  0  0  0  0  0  0  0  0  0
   37.2180   26.4560   35.4620 O   0  0  0  0  0  0  0  0  0  0  0  0
   36.8880   27.5920   33.3210 O   0  0  0  0  0  0  0  0  0  0  0  0
  1 15  1  0  0  0  0
  2  1  1  0  0  0  0
  2  7  1  0  0  0  0
  3  2  2  0  0  0  0
  4  5  2  0  0  0  0
  4  3  1  0  0  0  0
  5  6  1  0  0  0  0
  6 24  1  0  0  0  0
  6  1  2  0  0  0  0
  8  3  1  0  0  0  0
  9  4  1  0  0  0  0
 10  5  1  0  0  0  0
 11 12  1  0  0  0  0
 11 19  1  0  0  0  0
 12 17  1  0  0  0  0
 13 18  1  0  0  0  0
 13 12  2  0  0  0  0
 14 13  1  0  0  0  0
 15 14  2  0  0  0  0
 15 16  1  0  0  0  0
 16 11  2  0  0  0  0
 19 20  1  0  0  0  0
 19 21  1  0  0  0  0
 22 19  1  0  0  0  0
 23 30  1  0  0  0  0
 23 32  1  0  0  0  0
 24 23  2  0  0  0  0
 25 24  1  0  0  0  0
 25 27  2  0  0  0  0
 26 25  1  0  0  0  0
 27 29  1  0  0  0  0
 28 27  1  0  0  0  0
 29 30  2  0  0  0  0
 31 32  1  0  0  0  0
 32 33  2  0  0  0  0
 34 32  2  0  0  0  0
M  END
>  <minimizedAffinity>
-5.8217411

$$$$

 OpenBabel03272505393D

 34 36  0  0  0  0  0  0  0  0999 V2000
   37.2220   26.9110   33.9950 C   0  0  0  0  0  0  0  0  0  0  0  0
   36.7780   28.0440   34.6240 C   0  0  0  0  0  0  0  0  0  0  0  0
   35.9480   28.9270   33.9890 C   0  0  0  0  0  0  0  0  0  0  0  0
   35.5100   28.7290   32.6760 C   0  0  0  0  0  0  0  0  0  0  0  0
   35.9450   27.5860   32.0130 C   0  0  0  0  0  0  0  0  0  0  0  0
   36.7760   26.7430   32.7110 C   0  0  0  0  0  0  0  0  0  0  0  0
   37.0640   28.2830   35.6390 H   0  0  0  0  0  0  0  0  0  0  0  0
   35.5920   29.8340   34.4910 H   0  0  0  0  0  0  0  0  0  0  0  0
   34.8530   29.4430   32.1970 H   0  0  0  0  0  0  0  0  0  0  0  0
   35.6060   27.4380   31.0090 H   0  0  0  0  0  0  0  0  0  0  0  0
   38.4850   24.3580   36.2770 C   0  0  0  0  0  0  0  0  0  0  0  0
   39.8070   24.1810   35.8630 C   0  0  0  0  0  0  0  0  0  0  0  0
   40.2560   24.9540   34.7840 C   0  0  0  0  0  0  0  0  0  0  0  0
   39.3760   25.8200   34.2180 N   0  0  0  0  0  0  0  0  0  0  0  0
   38.1070   25.9650   34.6430 C   0  0  0  0  0  0  0  0  0  0  0  0
   37.6700   25.2290   35.6730 N   0  0  0  0  0  0  0  0  0  0  0  0
   40.5010   23.4980   36.3100 H   0  0  0  0  0  0  0  0  0  0  0  0
   41.2750   24.8570   34.4210 H   0  0  0  0  0  0  0  0  0  0  0  0
   37.9980   23.5260   37.4400 C   0  0  0  0  0  0  0  0  0  0  0  0
   37.5520   24.3770   38.4590 F   0  0  0  0  0  0  0  0  0  0  0  0
   37.0410   22.6900   36.9880 F   0  0  0  0  0  0  0  0  0  0  0  0
   39.1060   22.8560   37.9640 F   0  0  0  0  0  0  0  0  0  0  0  0
   38.2200   25.8260   31.0390 C   0  0  0  0  0  0  0  0  0  0  0  0
   37.1750   25.5640   31.9140 C   0  0  0  0  0  0  0  0  0  0  0  0
   36.6220   24.3060   31.9730 C   0  0  0  0  0  0  0  0  0  0  0  0
   35.8230   24.1910   32.6710 H   0  0  0  0  0  0  0  0  0  0  0  0
   37.1020   23.2990   31.1630 C   0  0  0  0  0  0  0  0  0  0  0  0
   36.6480   22.3190   31.2300 H   0  0  0  0  0  0  0  0  0  0  0  0
   38.1430   23.4970   30.2690 C   0  0  0  0  0  3  0  0  0  0  0  0
   38.6580   24.7590   30.2480 C   0  0  0  0  0  3  0  0  0  0  0  0
   38.4050   28.3050   31.7760 H   0  0  0  0  0  0  0  0  0  0  0  0
   38.9810   27.4130   30.9080 S   0  0  0  0  0  0  0  0  0  0  0  0
   40.4320   27.2530   31.2330 O   0  0  0  0  0  0  0  0  0  0  0  0
   38.8410   27.9400   29.5060 O   0  0  0  0  0  0  0  0  0  0  0  0
  1  2  1  0  0  0  0
  1 15  1  0  0  0  0
  2  7  1  0  0  0  0
  3  8  1  0  0  0  0
  3  2  2  0  0  0  0
  4  3  1  0  0  0  0
  5  4  2  0  0  0  0
  5  6  1  0  0  0  0
  6  1  2  0  0  0  0
  9  4  1  0  0  0  0
 10  5  1  0  0  0  0
 11 19  1  0  0  0  0
 12 11  1  0  0  0  0
 12 17  1  0  0  0  0
 13 12  2  0  0  0  0
 14 15  2  0  0  0  0
 14 13  1  0  0  0  0
 15 16  1  0  0  0  0
 16 11  2  0  0  0  0
 18 13  1  0  0  0  0
 19 22  1  0  0  0  0
 19 20  1  0  0  0  0
 21 19  1  0  0  0  0
 23 24  1  0  0  0  0
 24 25  2  0  0  0  0
 24  6  1  0  0  0  0
 25 26  1  0  0  0  0
 27 28  1  0  0  0  0
 27 25  1  0  0  0  0
 29 27  2  0  0  0  0
 30 29  1  0  0  0  0
 30 23  2  0  0  0  0
 32 23  1  0  0  0  0
 32 33  2  0  0  0  0
 32 31  1  0  0  0  0
 34 32  2  0  0  0  0
M  END
>  <minimizedAffinity>
-5.77428389

$$$$

 OpenBabel03272505393D

 34 36  0  0  0  0  0  0  0  0999 V2000
   37.4290   22.3620   33.5550 C   0  0  0  0  0  0  0  0  0  0  0  0
   36.7310   21.2060   33.3310 C   0  0  0  0  0  0  0  0  0  0  0  0
   35.8340   21.1070   32.3020 C   0  0  0  0  0  0  0  0  0  0  0  0
   35.5800   22.1700   31.4300 C   0  0  0  0  0  0  0  0  0  0  0  0
   36.2750   23.3580   31.6340 C   0  0  0  0  0  0  0  0  0  0  0  0
   37.1590   23.3850   32.6850 C   0  0  0  0  0  0  0  0  0  0  0  0
   36.8600   20.3300   33.9530 H   0  0  0  0  0  0  0  0  0  0  0  0
   35.2750   20.1830   32.1210 H   0  0  0  0  0  0  0  0  0  0  0  0
   34.8650   22.0670   30.6230 H   0  0  0  0  0  0  0  0  0  0  0  0
   36.0770   24.1680   30.9640 H   0  0  0  0  0  0  0  0  0  0  0  0
   38.8530   23.0810   36.8380 C   0  0  0  0  0  0  0  0  0  0  0  0
   40.2000   22.7430   36.6860 C   0  0  0  0  0  0  0  0  0  0  0  0
   40.6090   22.2610   35.4360 C   0  0  0  0  0  0  0  0  0  0  0  0
   39.6690   22.1580   34.4610 N   0  0  0  0  0  0  0  0  0  0  0  0
   38.3780   22.4930   34.6410 C   0  0  0  0  0  0  0  0  0  0  0  0
   37.9790   22.9540   35.8330 N   0  0  0  0  0  0  0  0  0  0  0  0
   40.9400   22.8250   37.4560 H   0  0  0  0  0  0  0  0  0  0  0  0
   41.6440   21.9840   35.2630 H   0  0  0  0  0  0  0  0  0  0  0  0
   38.4090   23.6010   38.1850 C   0  0  0  0  0  0  0  0  0  0  0  0
   37.2480   22.9240   38.5800 F   0  0  0  0  0  0  0  0  0  0  0  0
   39.4320   23.4530   39.0510 F   0  0  0  0  0  0  0  0  0  0  0  0
   38.0290   24.9340   38.0100 F   0  0  0  0  0  0  0  0  0  0  0  0
   38.9710   24.7940   32.0090 C   0  0  0  0  0  0  0  0  0  0  0  0
   37.8420   24.6910   32.8090 C   0  0  0  0  0  0  0  0  0  0  0  0
   37.4620   25.7430   33.6080 C   0  0  0  0  0  0  0  0  0  0  0  0
   36.5830   25.5800   34.1910 H   0  0  0  0  0  0  0  0  0  0  0  0
   38.2010   26.9070   33.6190 C   0  0  0  0  0  0  0  0  0  0  0  0
   37.8800   27.7190   34.2590 H   0  0  0  0  0  0  0  0  0  0  0  0
   39.3380   27.0730   32.8440 C   0  0  0  0  0  3  0  0  0  0  0  0
   39.6740   26.0020   32.0690 C   0  0  0  0  0  3  0  0  0  0  0  0
   38.7720   22.3550   31.1550 H   0  0  0  0  0  0  0  0  0  0  0  0
   39.5190   23.4870   30.9560 S   0  0  0  0  0  0  0  0  0  0  0  0
   39.3770   23.9500   29.5420 O   0  0  0  0  0  0  0  0  0  0  0  0
   40.9630   23.1720   31.2330 O   0  0  0  0  0  0  0  0  0  0  0  0
  1 15  1  0  0  0  0
  2  1  1  0  0  0  0
  2  7  1  0  0  0  0
  3  2  2  0  0  0  0
  4  5  2  0  0  0  0
  4  3  1  0  0  0  0
  5  6  1  0  0  0  0
  6 24  1  0  0  0  0
  6  1  2  0  0  0  0
  8  3  1  0  0  0  0
  9  4  1  0  0  0  0
 10  5  1  0  0  0  0
 11 19  1  0  0  0  0
 12 11  1  0  0  0  0
 12 17  1  0  0  0  0
 13 12  2  0  0  0  0
 14 15  2  0  0  0  0
 14 13  1  0  0  0  0
 15 16  1  0  0  0  0
 16 11  2  0  0  0  0
 18 13  1  0  0  0  0
 19 20  1  0  0  0  0
 19 21  1  0  0  0  0
 22 19  1  0  0  0  0
 23 30  2  0  0  0  0
 23 24  1  0  0  0  0
 24 25  2  0  0  0  0
 25 27  1  0  0  0  0
 25 26  1  0  0  0  0
 27 28  1  0  0  0  0
 29 27  2  0  0  0  0
 30 29  1  0  0  0  0
 32 31  1  0  0  0  0
 32 34  2  0  0  0  0
 32 23  1  0  0  0  0
 33 32  2  0  0  0  0
M  END
>  <minimizedAffinity>
-5.75659657

$$$$

 OpenBabel03272505393D

 34 36  0  0  0  0  0  0  0  0999 V2000
   40.3890   22.5740   34.2630 C   0  0  0  0  0  0  0  0  0  0  0  0
   41.2480   21.5090   34.2060 C   0  0  0  0  0  0  0  0  0  0  0  0
   42.3790   21.4690   34.9750 C   0  0  0  0  0  0  0  0  0  0  0  0
   42.7220   22.5020   35.8530 C   0  0  0  0  0  0  0  0  0  0  0  0
   41.8670   23.5980   35.9320 C   0  0  0  0  0  0  0  0  0  0  0  0
   40.7510   23.5700   35.1320 C   0  0  0  0  0  0  0  0  0  0  0  0
   41.0680   20.6640   33.5570 H   0  0  0  0  0  0  0  0  0  0  0  0
   43.0670   20.6180   34.9300 H   0  0  0  0  0  0  0  0  0  0  0  0
   43.6230   22.4470   36.4500 H   0  0  0  0  0  0  0  0  0  0  0  0
   42.1330   24.3850   36.6050 H   0  0  0  0  0  0  0  0  0  0  0  0
   37.0400   21.9050   32.9770 C   0  0  0  0  0  0  0  0  0  0  0  0
   36.9260   22.7850   31.8990 C   0  0  0  0  0  0  0  0  0  0  0  0
   38.0210   23.6150   31.6240 C   0  0  0  0  0  0  0  0  0  0  0  0
   39.1140   23.5040   32.4220 N   0  0  0  0  0  0  0  0  0  0  0  0
   39.1900   22.6430   33.4540 C   0  0  0  0  0  0  0  0  0  0  0  0
   38.1480   21.8470   33.7240 N   0  0  0  0  0  0  0  0  0  0  0  0
   36.0640   22.8720   31.2690 H   0  0  0  0  0  0  0  0  0  0  0  0
   37.9860   24.3180   30.7970 H   0  0  0  0  0  0  0  0  0  0  0  0
   35.8620   21.0080   33.2760 C   0  0  0  0  0  0  0  0  0  0  0  0
   35.7160   20.8870   34.6640 F   0  0  0  0  0  0  0  0  0  0  0  0
   34.7740   21.5270   32.6700 F   0  0  0  0  0  0  0  0  0  0  0  0
   36.1850   19.7300   32.8160 F   0  0  0  0  0  0  0  0  0  0  0  0
   38.8970   24.6160   36.2240 C   0  0  0  0  0  0  0  0  0  0  0  0
   39.9150   24.7790   35.2950 C   0  0  0  0  0  0  0  0  0  0  0  0
   40.0650   25.9760   34.6350 C   0  0  0  0  0  0  0  0  0  0  0  0
   40.8720   26.0160   33.9380 H   0  0  0  0  0  0  0  0  0  0  0  0
   39.2040   27.0220   34.8930 C   0  0  0  0  0  0  0  0  0  0  0  0
   39.3450   27.9530   34.3600 H   0  0  0  0  0  0  0  0  0  0  0  0
   38.1680   26.9230   35.8090 C   0  0  0  0  0  3  0  0  0  0  0  0
   38.0610   25.7180   36.4370 C   0  0  0  0  0  3  0  0  0  0  0  0
   39.4920   22.1320   36.6630 H   0  0  0  0  0  0  0  0  0  0  0  0
   38.6430   23.1110   37.1100 S   0  0  0  0  0  0  0  0  0  0  0  0
   38.8990   23.3840   38.5580 O   0  0  0  0  0  0  0  0  0  0  0  0
   37.2250   22.6420   36.9360 O   0  0  0  0  0  0  0  0  0  0  0  0
  1  6  1  0  0  0  0
  2  1  2  0  0  0  0
  2  3  1  0  0  0  0
  3  4  2  0  0  0  0
  4  5  1  0  0  0  0
  4  9  1  0  0  0  0
  5 10  1  0  0  0  0
  6 24  1  0  0  0  0
  6  5  2  0  0  0  0
  7  2  1  0  0  0  0
  8  3  1  0  0  0  0
 11 19  1  0  0  0  0
 11 16  1  0  0  0  0
 12 11  2  0  0  0  0
 13 12  1  0  0  0  0
 13 14  2  0  0  0  0
 14 15  1  0  0  0  0
 15 16  2  0  0  0  0
 15  1  1  0  0  0  0
 17 12  1  0  0  0  0
 18 13  1  0  0  0  0
 19 20  1  0  0  0  0
 21 19  1  0  0  0  0
 22 19  1  0  0  0  0
 23 30  1  0  0  0  0
 23 32  1  0  0  0  0
 24 23  2  0  0  0  0
 25 27  2  0  0  0  0
 25 24  1  0  0  0  0
 26 25  1  0  0  0  0
 27 29  1  0  0  0  0
 28 27  1  0  0  0  0
 29 30  2  0  0  0  0
 31 32  1  0  0  0  0
 32 33  2  0  0  0  0
 34 32  2  0  0  0  0
M  END
>  <minimizedAffinity>
-5.65732431

$$$$

 OpenBabel03272505393D

 34 36  0  0  0  0  0  0  0  0999 V2000
   39.9260   27.1610   32.2070 C   0  0  0  0  0  0  0  0  0  0  0  0
   40.7940   27.5840   31.2360 C   0  0  0  0  0  0  0  0  0  0  0  0
   42.1260   27.7540   31.5020 C   0  0  0  0  0  0  0  0  0  0  0  0
   42.6720   27.5090   32.7660 C   0  0  0  0  0  0  0  0  0  0  0  0
   41.8130   27.0780   33.7720 C   0  0  0  0  0  0  0  0  0  0  0  0
   40.4900   26.9290   33.4340 C   0  0  0  0  0  0  0  0  0  0  0  0
   40.4650   27.7990   30.2290 H   0  0  0  0  0  0  0  0  0  0  0  0
   42.8210   28.0920   30.7270 H   0  0  0  0  0  0  0  0  0  0  0  0
   43.7290   27.6510   32.9500 H   0  0  0  0  0  0  0  0  0  0  0  0
   42.2360   26.8910   34.7360 H   0  0  0  0  0  0  0  0  0  0  0  0
   36.7240   25.5970   31.4170 C   0  0  0  0  0  0  0  0  0  0  0  0
   35.8240   26.6640   31.4650 C   0  0  0  0  0  0  0  0  0  0  0  0
   36.3370   27.9300   31.7760 C   0  0  0  0  0  0  0  0  0  0  0  0
   37.6710   28.0310   32.0070 N   0  0  0  0  0  0  0  0  0  0  0  0
   38.5120   26.9810   31.9530 C   0  0  0  0  0  0  0  0  0  0  0  0
   38.0290   25.7670   31.6570 N   0  0  0  0  0  0  0  0  0  0  0  0
   34.7720   26.5840   31.2810 H   0  0  0  0  0  0  0  0  0  0  0  0
   35.6820   28.7940   31.8260 H   0  0  0  0  0  0  0  0  0  0  0  0
   36.1740   24.2310   31.0820 C   0  0  0  0  0  0  0  0  0  0  0  0
   36.1210   23.4570   32.2480 F   0  0  0  0  0  0  0  0  0  0  0  0
   34.9690   24.3950   30.4970 F   0  0  0  0  0  0  0  0  0  0  0  0
   37.1040   23.6020   30.2510 F   0  0  0  0  0  0  0  0  0  0  0  0
   39.6720   25.0880   34.7240 C   0  0  0  0  0  0  0  0  0  0  0  0
   39.6700   26.4670   34.5740 C   0  0  0  0  0  0  0  0  0  0  0  0
   38.9510   27.2560   35.4420 C   0  0  0  0  0  0  0  0  0  0  0  0
   39.0030   28.3050   35.2550 H   0  0  0  0  0  0  0  0  0  0  0  0
   38.2290   26.6800   36.4650 C   0  0  0  0  0  0  0  0  0  0  0  0
   37.6720   27.3240   37.1330 H   0  0  0  0  0  0  0  0  0  0  0  0
   38.1910   25.3090   36.6690 C   0  0  0  0  0  3  0  0  0  0  0  0
   38.9180   24.5710   35.7840 C   0  0  0  0  0  3  0  0  0  0  0  0
   41.2230   24.7240   32.6790 H   0  0  0  0  0  0  0  0  0  0  0  0
   40.5710   24.0120   33.6520 S   0  0  0  0  0  0  0  0  0  0  0  0
   41.5610   23.2600   34.4830 O   0  0  0  0  0  0  0  0  0  0  0  0
   39.6340   23.0360   32.9940 O   0  0  0  0  0  0  0  0  0  0  0  0
  1  6  1  0  0  0  0
  2  3  1  0  0  0  0
  2  1  2  0  0  0  0
  3  4  2  0  0  0  0
  4  9  1  0  0  0  0
  4  5  1  0  0  0  0
  5 10  1  0  0  0  0
  6  5  2  0  0  0  0
  6 24  1  0  0  0  0
  7  2  1  0  0  0  0
  8  3  1  0  0  0  0
 11 12  2  0  0  0  0
 11 16  1  0  0  0  0
 12 13  1  0  0  0  0
 13 18  1  0  0  0  0
 13 14  2  0  0  0  0
 15 14  1  0  0  0  0
 15  1  1  0  0  0  0
 16 15  2  0  0  0  0
 17 12  1  0  0  0  0
 19 11  1  0  0  0  0
 19 20  1  0  0  0  0
 21 19  1  0  0  0  0
 22 19  1  0  0  0  0
 23 30  1  0  0  0  0
 24 23  2  0  0  0  0
 24 25  1  0  0  0  0
 25 27  2  0  0  0  0
 26 25  1  0  0  0  0
 27 29  1  0  0  0  0
 27 28  1  0  0  0  0
 30 29  2  0  0  0  0
 31 32  1  0  0  0  0
 32 33  2  0  0  0  0
 32 23  1  0  0  0  0
 34 32  2  0  0  0  0
M  END
>  <minimizedAffinity>
-5.65206909

$$$$

 OpenBabel03272505393D

 34 36  0  0  0  0  0  0  0  0999 V2000
   40.8010   24.6890   34.9610 C   0  0  0  0  0  0  0  0  0  0  0  0
   42.0770   24.1930   34.9530 C   0  0  0  0  0  0  0  0  0  0  0  0
   43.1400   24.9780   34.5960 C   0  0  0  0  0  0  0  0  0  0  0  0
   42.9870   26.3160   34.2210 C   0  0  0  0  0  0  0  0  0  0  0  0
   41.7010   26.8470   34.2200 C   0  0  0  0  0  0  0  0  0  0  0  0
   40.6820   26.0020   34.5900 C   0  0  0  0  0  0  0  0  0  0  0  0
   42.2950   23.1700   35.2270 H   0  0  0  0  0  0  0  0  0  0  0  0
   44.1610   24.5820   34.5880 H   0  0  0  0  0  0  0  0  0  0  0  0
   43.8440   26.9150   33.9420 H   0  0  0  0  0  0  0  0  0  0  0  0
   41.5890   27.8710   33.9330 H   0  0  0  0  0  0  0  0  0  0  0  0
   37.9590   22.4090   34.7350 C   0  0  0  0  0  0  0  0  0  0  0  0
   37.4880   22.3500   36.0480 C   0  0  0  0  0  0  0  0  0  0  0  0
   38.1650   23.1070   37.0130 C   0  0  0  0  0  0  0  0  0  0  0  0
   39.2300   23.8430   36.6040 N   0  0  0  0  0  0  0  0  0  0  0  0
   39.6590   23.8770   35.3290 C   0  0  0  0  0  0  0  0  0  0  0  0
   39.0170   23.1570   34.4000 N   0  0  0  0  0  0  0  0  0  0  0  0
   36.6470   21.7700   36.3690 H   0  0  0  0  0  0  0  0  0  0  0  0
   37.8410   23.0980   38.0490 H   0  0  0  0  0  0  0  0  0  0  0  0
   37.2310   21.5950   33.6910 C   0  0  0  0  0  0  0  0  0  0  0  0
   38.1530   20.7960   33.0040 F   0  0  0  0  0  0  0  0  0  0  0  0
   36.2670   20.8830   34.3110 F   0  0  0  0  0  0  0  0  0  0  0  0
   36.7260   22.4900   32.7450 F   0  0  0  0  0  0  0  0  0  0  0  0
   38.7610   26.6190   33.3050 C   0  0  0  0  0  0  0  0  0  0  0  0
   39.3620   26.6680   34.5550 C   0  0  0  0  0  0  0  0  0  0  0  0
   38.7280   27.2920   35.6040 C   0  0  0  0  0  0  0  0  0  0  0  0
   39.2600   27.2840   36.5290 H   0  0  0  0  0  0  0  0  0  0  0  0
   37.4910   27.8710   35.4190 C   0  0  0  0  0  0  0  0  0  0  0  0
   37.0150   28.3560   36.2620 H   0  0  0  0  0  0  0  0  0  0  0  0
   36.8380   27.8560   34.1970 C   0  0  0  0  0  3  0  0  0  0  0  0
   37.5060   27.2270   33.1890 C   0  0  0  0  0  3  0  0  0  0  0  0
   40.6870   25.2250   32.2710 H   0  0  0  0  0  0  0  0  0  0  0  0
   39.5120   25.8350   31.9130 S   0  0  0  0  0  0  0  0  0  0  0  0
   38.5500   24.8190   31.3860 O   0  0  0  0  0  0  0  0  0  0  0  0
   39.7990   26.8510   30.8410 O   0  0  0  0  0  0  0  0  0  0  0  0
  1 15  1  0  0  0  0
  2  1  1  0  0  0  0
  2  7  1  0  0  0  0
  3  2  2  0  0  0  0
  4  3  1  0  0  0  0
  5  4  2  0  0  0  0
  5  6  1  0  0  0  0
  6  1  2  0  0  0  0
  8  3  1  0  0  0  0
  9  4  1  0  0  0  0
 10  5  1  0  0  0  0
 11 12  1  0  0  0  0
 12 17  1  0  0  0  0
 12 13  2  0  0  0  0
 13 18  1  0  0  0  0
 14 13  1  0  0  0  0
 15 14  2  0  0  0  0
 16 11  2  0  0  0  0
 16 15  1  0  0  0  0
 19 21  1  0  0  0  0
 19 11  1  0  0  0  0
 20 19  1  0  0  0  0
 22 19  1  0  0  0  0
 23 24  1  0  0  0  0
 24  6  1  0  0  0  0
 24 25  2  0  0  0  0
 25 26  1  0  0  0  0
 27 25  1  0  0  0  0
 27 28  1  0  0  0  0
 29 27  2  0  0  0  0
 30 23  2  0  0  0  0
 30 29  1  0  0  0  0
 32 31  1  0  0  0  0
 32 23  1  0  0  0  0
 33 32  2  0  0  0  0
 34 32  2  0  0  0  0
M  END
>  <minimizedAffinity>
-5.62679386

$$$$
