REMARK  Name = 
REMARK  6 active torsions:
REMARK  status: ('A' for Active; 'I' for Inactive)
REMARK    1  A    between atoms: C_3  and  C_13
REMARK    2  A    between atoms: C_8  and  C_20
REMARK    3  A    between atoms: C_10  and  C_15
REMARK    4  A    between atoms: C_11  and  C_19
REMARK    5  A    between atoms: C_19  and  C_34
REMARK    6  A    between atoms: S_30  and  C_33
REMARK                            x       y       z     vdW  Elec       q    Type
REMARK                         _______ _______ _______ _____ _____    ______ ____
ROOT
ATOM      1  C   UNL     1      35.406  29.274  50.445  0.00  0.00    +0.000 A 
ATOM      2  C   UNL     1      36.331  30.116  49.782  0.00  0.00    +0.000 A 
ATOM      3  C   UNL     1      36.304  30.202  48.391  0.00  0.00    +0.000 A 
ATOM      4  N   UNL     1      35.363  29.451  47.729  0.00  0.00    +0.000 NA
ATOM      5  C   UNL     1      34.506  28.669  48.358  0.00  0.00    +0.000 A 
ATOM      6  N   UNL     1      34.508  28.565  49.713  0.00  0.00    +0.000 NA
ATOM      7  H   UNL     1      35.449  29.226  51.524  0.00  0.00    +0.000 HD
ENDROOT
BRANCH   5  10
ATOM      8 CL   UNL     1      32.692  30.290  46.562  0.00  0.00    +0.000 Cl
ATOM      9  C   UNL     1      32.632  28.536  46.716  0.00  0.00    +0.000 A 
ATOM     10  C   UNL     1      33.526  27.895  47.583  0.00  0.00    +0.000 A 
ATOM     11  C   UNL     1      33.523  26.513  47.743  0.00  0.00    +0.000 A 
ATOM     12  C   UNL     1      32.581  25.802  46.995  0.00  0.00    +0.000 A 
ATOM     13  C   UNL     1      31.700  26.419  46.142  0.00  0.00    +0.000 A 
ATOM     14 CL   UNL     1      30.572  25.411  45.264  0.00  0.00    +0.000 Cl
ATOM     15  C   UNL     1      31.736  27.796  46.012  0.00  0.00    +0.000 A 
ATOM     16  H   UNL     1      34.216  26.032  48.413  0.00  0.00    +0.000 HD
ATOM     17  H   UNL     1      32.631  24.729  47.166  0.00  0.00    +0.000 HD
BRANCH  15  18
ATOM     18  C   UNL     1      30.786  28.471  45.092  0.00  0.00    +0.000 C 
ATOM     19  F   UNL     1      29.816  27.564  44.638  0.00  0.00    +0.000 F 
ATOM     20  F   UNL     1      31.414  29.076  44.045  0.00  0.00    +0.000 F 
ATOM     21  F   UNL     1      30.100  29.452  45.768  0.00  0.00    +0.000 F 
ENDBRANCH  15  18
ENDBRANCH   5  10
BRANCH   2  22
ATOM     22  C   UNL     1      37.301  30.880  50.632  0.00  0.00    +0.000 C 
ATOM     23  F   UNL     1      38.592  30.755  50.144  0.00  0.00    +0.000 F 
ATOM     24  F   UNL     1      36.967  32.221  50.544  0.00  0.00    +0.000 F 
ATOM     25  F   UNL     1      37.260  30.530  51.953  0.00  0.00    +0.000 F 
ENDBRANCH   2  22
BRANCH   3  26
ATOM     26  C   UNL     1      37.257  31.068  47.709  0.00  0.00    +0.000 C 
ATOM     27  H   UNL     1      38.334  30.821  47.883  0.00  0.00    +0.000 HD
ATOM     28  H   UNL     1      37.153  32.089  48.137  0.00  0.00    +0.000 HD
BRANCH  26  30
ATOM     29  C   UNL     1      37.407  32.219  45.513  0.00  0.00    +0.000 A 
ATOM     30  C   UNL     1      37.101  31.084  46.236  0.00  0.00    +0.000 A 
ATOM     31  C   UNL     1      36.638  29.921  45.626  0.00  0.00    +0.000 A 
ATOM     32  H   UNL     1      36.410  29.053  46.242  0.00  0.00    +0.000 HD
ATOM     33  C   UNL     1      36.467  29.860  44.265  0.00  0.00    +0.000 A 
ATOM     34  H   UNL     1      36.105  28.930  43.845  0.00  0.00    +0.000 HD
ATOM     35  C   UNL     1      36.763  30.974  43.502  0.00  0.00    +0.000 A 
ATOM     36  C   UNL     1      37.219  32.107  44.144  0.00  0.00    +0.000 A 
BRANCH  29  38
ATOM     37  H   UNL     1      39.339  33.614  46.526  0.00  0.00    +0.000 HD
ATOM     38  S   UNL     1      37.979  33.665  46.239  0.00  0.00    +0.000 S 
ATOM     39  O   UNL     1      37.894  34.775  45.197  0.00  0.00    +0.000 OA
ATOM     40  O   UNL     1      37.202  34.164  47.396  0.00  0.00    +0.000 OA
ENDBRANCH  29  38
ENDBRANCH  26  30
ENDBRANCH   3  26
TORSDOF 6
