
     RDKit          3D

 48 51  0  0  0  0  0  0  0  0999 V2000
   37.3367   30.1748   51.5163 C   0  0  0  0  0  0  0  0  0  0  0  0
   38.0638   30.8618   50.5103 C   0  0  0  0  0  0  0  0  0  0  0  0
   37.7103   30.6574   49.1975 C   0  0  0  0  0  0  0  0  0  0  0  0
   36.6664   29.7910   48.9757 N   0  0  0  0  0  0  0  0  0  0  0  0
   35.9929   29.1533   49.9249 C   0  0  0  0  0  0  0  0  0  0  0  0
   36.3383   29.3524   51.2153 N   0  0  0  0  0  0  0  0  0  0  0  0
   38.9307   33.2680   49.0019 F   0  0  0  0  0  0  0  0  0  0  0  0
   38.9149   32.4822   47.9324 C   0  0  0  0  0  0  0  0  0  0  0  0
   38.3381   31.2697   48.0557 C   0  0  0  0  0  0  0  0  0  0  0  0
   38.3752   30.5201   46.8686 C   0  0  0  0  0  0  0  0  0  0  0  0
   38.9436   30.9832   45.7048 C   0  0  0  0  0  0  0  0  0  0  0  0
   39.5102   32.2173   45.6450 C   0  0  0  0  0  0  0  0  0  0  0  0
   39.4949   32.9829   46.7849 C   0  0  0  0  0  0  0  0  0  0  0  0
   35.0022   28.3509   49.4389 O   0  0  0  0  0  0  0  0  0  0  0  0
   34.4510   28.6486   48.1675 C   0  0  0  0  0  0  0  0  0  0  0  0
   33.5677   27.5370   47.7092 C   0  0  0  0  0  0  0  0  0  0  0  0
   32.1245   27.9027   47.7088 C   0  0  0  0  0  0  0  0  0  0  0  0
   31.3452   27.5193   48.7816 C   0  0  0  0  0  0  0  0  0  0  0  0
   30.0180   27.8124   48.8595 C   0  0  0  0  0  0  0  0  0  0  0  0
   29.4546   28.4855   47.8784 N   0  0  0  0  0  0  0  0  0  0  0  0
   30.1948   28.8753   46.8122 C   0  0  0  0  0  0  0  0  0  0  0  0
   31.5138   28.5879   46.7275 N   0  0  0  0  0  0  0  0  0  0  0  0
   37.6589   30.3742   52.5307 H   0  0  0  0  0  0  0  0  0  0  0  0
   38.8700   31.5311   50.6816 H   0  0  0  0  0  0  0  0  0  0  0  0
   37.9502   29.5194   46.8066 H   0  0  0  0  0  0  0  0  0  0  0  0
   38.9574   30.3812   44.8029 H   0  0  0  0  0  0  0  0  0  0  0  0
   39.9597   32.5992   44.7467 H   0  0  0  0  0  0  0  0  0  0  0  0
   39.9378   33.9695   46.7692 H   0  0  0  0  0  0  0  0  0  0  0  0
   33.9702   29.6444   48.1279 H   0  0  0  0  0  0  0  0  0  0  0  0
   35.3256   28.6676   47.4676 H   0  0  0  0  0  0  0  0  0  0  0  0
   33.7240   26.6623   48.3586 H   0  0  0  0  0  0  0  0  0  0  0  0
   33.8055   27.2010   46.6644 H   0  0  0  0  0  0  0  0  0  0  0  0
   31.8133   26.9660   49.5858 H   0  0  0  0  0  0  0  0  0  0  0  0
   29.4286   27.4961   49.7195 H   0  0  0  0  0  0  0  0  0  0  0  0
   31.1592   31.7550   47.5803 H   0  0  0  0  0  0  0  0  0  0  0  0
   31.3687   31.6452   46.2435 S   0  0  0  0  0  0  0  0  0  0  0  0
   32.6565   30.9151   45.9069 O   0  0  0  0  0  0  0  0  0  0  0  0
   31.5310   33.0567   45.7043 O   0  0  0  0  0  0  0  0  0  0  0  0
   30.0775   30.8906   45.3765 C   0  0  0  0  0  0  0  0  0  0  0  0
   29.6012   29.6285   45.6972 C   0  0  0  0  0  0  0  0  0  0  0  0
   28.5516   29.0945   44.9405 C   0  0  0  0  0  0  0  0  0  0  0  0
   28.1861   28.1033   45.2013 H   0  0  0  0  0  0  0  0  0  0  0  0
   27.9720   29.7715   43.8897 C   0  0  0  0  0  0  0  0  0  0  0  0
   27.1609   29.3033   43.3413 H   0  0  0  0  0  0  0  0  0  0  0  0
   28.4146   31.0128   43.5471 C   0  0  0  0  0  0  0  0  0  0  0  0
   29.4477   31.5257   44.3001 C   0  0  0  0  0  0  0  0  0  0  0  0
   28.0077   31.5966   42.7387 H   0  0  0  0  0  0  0  0  0  0  0  0
   29.8336   32.5177   44.0602 H   0  0  0  0  0  0  0  0  0  0  0  0
  2  1  2  0
  3  2  1  0
  4  3  2  0
  4  5  1  0
  5  6  2  0
  6  1  1  0
  8  9  2  0
  8  7  1  0
  9  3  1  0
 10  9  1  0
 11 10  2  0
 12 11  1  0
 12 13  2  0
 13  8  1  0
 14  5  1  0
 15 14  1  0
 16 15  1  0
 17 16  1  0
 17 18  2  0
 18 19  1  0
 20 19  2  0
 21 20  1  0
 22 21  2  0
 22 17  1  0
  1 23  1  0
  2 24  1  0
 10 25  1  0
 11 26  1  0
 12 27  1  0
 13 28  1  0
 15 29  1  0
 15 30  1  0
 16 31  1  0
 16 32  1  0
 18 33  1  0
 19 34  1  0
 35 36  1  0
 36 37  2  0
 36 38  2  0
 36 39  1  0
 39 40  2  0
 40 41  1  0
 41 42  1  0
 41 43  2  0
 43 44  1  0
 43 45  1  0
 45 46  2  0
 46 39  1  0
 45 47  1  0
 46 48  1  0
 21 40  1  0
M  ISO  8  23  14  24  14  25  14  26  14  27  14  28  14  29   8  30   8
M  ISO  7  31   8  32   8  33  14  34  14  35  12  42  15  44  16
M  END
>  <DihAtoms>  (1) 
19,20,39,38

>  <DihDeg>  (1) 
-0.0041178986681308

$$$$
