
 OpenBabel03272503563D

 37 40  0  0  0  0  0  0  0  0999 V2000
   37.4030   29.7980   50.5890 C   0  0  0  0  0  0  0  0  0  0  0  0
   38.3350   30.5310   49.8520 C   0  0  0  0  0  0  0  0  0  0  0  0
   38.0140   30.7820   48.5430 C   0  0  0  0  0  0  0  0  0  0  0  0
   36.8450   30.3140   48.0830 N   0  0  0  0  0  0  0  0  0  0  0  0
   35.9450   29.6230   48.7530 C   0  0  0  0  0  0  0  0  0  0  0  0
   36.2950   29.4030   50.0010 N   0  0  0  0  0  0  0  0  0  0  0  0
   39.2160   30.8870   50.3260 H   0  0  0  0  0  0  0  0  0  0  0  0
   34.6430   29.0740   48.3880 C   0  0  0  0  0  0  0  0  0  0  0  0
   33.8640   28.4090   49.2730 N   0  0  0  0  0  0  0  0  0  0  0  0
   32.6650   27.9260   48.9330 C   0  0  0  0  0  0  0  0  0  0  0  0
   32.1230   28.0480   47.7140 N   0  0  0  0  0  0  0  0  0  0  0  0
   32.8510   28.7030   46.7800 C   0  0  0  0  0  0  0  0  0  0  0  0
   32.3200   28.8410   45.5200 C   0  0  0  0  0  0  0  0  0  0  0  0
   33.0110   29.4930   44.5360 C   0  0  0  0  0  0  0  0  0  0  0  0
   34.2420   29.9880   44.8800 C   0  0  0  0  0  0  0  0  0  0  0  0
   34.7460   29.8320   46.1520 C   0  0  0  0  0  0  0  0  0  0  0  0
   34.0760   29.1880   47.1500 C   0  0  0  0  0  0  0  0  0  0  0  0
   32.0230   27.3820   49.6520 H   0  0  0  0  0  0  0  0  0  0  0  0
   31.3350   28.4210   45.3170 H   0  0  0  0  0  0  0  0  0  0  0  0
   32.5330   29.5630   43.5750 H   0  0  0  0  0  0  0  0  0  0  0  0
   34.7700   30.5050   44.0650 H   0  0  0  0  0  0  0  0  0  0  0  0
   35.7230   30.2740   46.2530 H   0  0  0  0  0  0  0  0  0  0  0  0
   39.1660   32.8750   47.6460 C   0  0  0  0  0  0  0  0  0  0  0  0
   38.7860   31.5660   47.6000 C   0  0  0  0  0  0  0  0  0  0  0  0
   39.2670   30.9010   46.4620 C   0  0  0  0  0  0  0  0  0  0  0  0
   39.0150   29.8330   46.3340 H   0  0  0  0  0  0  0  0  0  0  0  0
   40.0320   31.4160   45.4610 C   0  0  0  0  0  0  0  0  0  0  0  0
   40.3570   30.8370   44.6250 H   0  0  0  0  0  0  0  0  0  0  0  0
   40.3940   32.7390   45.5390 C   0  0  0  0  0  0  0  0  0  0  0  0
   39.9510   33.4390   46.6340 C   0  0  0  0  0  0  0  0  0  0  0  0
   38.7540   35.2120   48.5280 H   0  0  0  0  0  0  0  0  0  0  0  0
   38.7860   33.8830   48.9900 S   0  0  0  0  0  0  0  0  0  0  0  0
   39.8370   33.8650   50.0750 O   0  0  0  0  0  0  0  0  0  0  0  0
   37.4140   33.6100   49.4950 O   0  0  0  0  0  0  0  0  0  0  0  0
   37.6240   29.4680   51.9860 N   0  0  0  0  0  0  0  0  0  0  0  0
   37.6580   28.5590   52.4710 H   0  0  0  0  0  0  0  0  0  0  0  0
   37.7550   30.3740   52.4750 H   0  0  0  0  0  0  0  0  0  0  0  0
  1 35  1  0  0  0  0
  2  7  1  0  0  0  0
  2  1  2  0  0  0  0
  3  2  1  0  0  0  0
  4  3  2  0  0  0  0
  4  5  1  0  0  0  0
  5  6  2  0  0  0  0
  6  1  1  0  0  0  0
  8  5  1  0  0  0  0
  8  9  1  0  0  0  0
 10  9  2  0  0  0  0
 10 18  1  0  0  0  0
 11 10  1  0  0  0  0
 12 17  1  0  0  0  0
 12 11  2  0  0  0  0
 13 12  1  0  0  0  0
 14 15  1  0  0  0  0
 14 13  2  0  0  0  0
 15 16  2  0  0  0  0
 16 22  1  0  0  0  0
 16 17  1  0  0  0  0
 17  8  2  0  0  0  0
 19 13  1  0  0  0  0
 20 14  1  0  0  0  0
 21 15  1  0  0  0  0
 23 32  1  0  0  0  0
 24 23  1  0  0  0  0
 24  3  1  0  0  0  0
 25 24  2  0  0  0  0
 26 25  1  0  0  0  0
 27 29  2  0  0  0  0
 27 25  1  0  0  0  0
 28 27  1  0  0  0  0
 29 30  1  0  0  0  0
 30 23  2  0  0  0  0
 31 32  1  0  0  0  0
 32 34  2  0  0  0  0
 32 33  2  0  0  0  0
 35 36  1  0  0  0  0
 35 37  1  0  0  0  0
M  END
>  <minimizedAffinity>
-7.10391569

>  <minimizedRMSD>
1.30240405

$$$$
