
 OpenBabel03262521553D

 42 44  0  0  1  0  0  0  0  0999 V2000
   33.6260   28.1790   46.8790 C   0  0  1  0  0  0  0  0  0  0  0  0
   33.8780   29.1070   48.0340 C   0  0  2  0  0  0  0  0  0  0  0  0
   33.6320   30.4990   47.5710 C   0  0  0  0  0  0  0  0  0  0  0  0
   33.2830   30.5780   46.2320 O   0  0  0  0  0  0  0  0  0  0  0  0
   32.1150   29.8680   45.9760 C   0  0  0  0  0  0  0  0  0  0  0  0
   32.1960   28.4220   46.4070 C   0  0  2  0  0  0  0  0  0  0  0  0
   33.7490   27.1210   47.1880 H   0  0  0  0  0  0  0  0  0  0  0  0
   33.1880   28.7690   48.8510 H   0  0  0  0  0  0  0  0  0  0  0  0
   34.4160   31.2240   47.7870 H   0  0  0  0  0  0  0  0  0  0  0  0
   32.7290   30.8700   48.1390 H   0  0  0  0  0  0  0  0  0  0  0  0
   31.2280   30.3440   46.4480 H   0  0  0  0  0  0  0  0  0  0  0  0
   31.9560   29.8940   44.8820 H   0  0  0  0  0  0  0  0  0  0  0  0
   32.0340   27.7250   45.5730 H   0  0  0  0  0  0  0  0  0  0  0  0
   34.4520   28.4930   45.7830 O   0  0  0  0  0  0  0  0  0  0  0  0
   34.8320   27.6450   45.4670 H   0  0  0  0  0  0  0  0  0  0  0  0
   35.5510   28.9090   48.6970 S   0  0  0  0  0  0  0  0  0  0  0  0
   35.7560   29.9560   50.1680 C   0  0  0  0  0  0  0  0  0  0  0  0
   35.1550   30.8690   50.0110 H   0  0  0  0  0  0  0  0  0  0  0  0
   35.2920   29.4170   51.0240 H   0  0  0  0  0  0  0  0  0  0  0  0
   37.4600   30.2940   50.5750 S   0  0  0  0  0  0  0  0  0  0  0  0
   38.1710   31.3270   49.2970 C   0  0  0  0  0  0  0  0  0  0  0  0
   38.4370   32.6210   49.6920 C   0  0  0  0  0  0  0  0  0  0  0  0
   38.9930   33.5050   48.7630 C   0  0  0  0  0  0  0  0  0  0  0  0
   39.2390   33.0210   47.5110 N   0  0  0  0  0  0  0  0  0  0  0  0
   38.9580   31.7410   47.1760 C   0  0  0  0  0  0  0  0  0  0  0  0
   38.4330   30.9110   48.0540 N   0  0  0  0  0  0  0  0  0  0  0  0
   38.2500   33.0110   50.6680 H   0  0  0  0  0  0  0  0  0  0  0  0
   39.2200   34.5280   49.0270 H   0  0  0  0  0  0  0  0  0  0  0  0
   39.1730   31.4030   46.1610 H   0  0  0  0  0  0  0  0  0  0  0  0
   31.4080   28.2370   47.5310 O   0  0  0  0  0  0  0  0  0  0  0  0
   29.7670   26.7740   46.9950 C   0  0  0  0  0  0  0  0  0  0  0  0
   30.0450   28.0680   47.4300 C   0  0  0  0  0  0  0  0  0  0  0  0
   28.9860   28.9120   47.6720 C   0  0  0  0  0  0  0  0  0  0  0  0
   29.2870   29.8790   48.0000 H   0  0  0  0  0  0  0  0  0  0  0  0
   27.6940   28.4680   47.4820 C   0  0  0  0  0  0  0  0  0  0  0  0
   26.9060   29.1780   47.6900 H   0  0  0  0  0  0  0  0  0  0  0  0
   27.3860   27.1870   47.0510 C   0  0  0  0  0  3  0  0  0  0  0  0
   28.4490   26.3420   46.8080 C   0  0  0  0  0  3  0  0  0  0  0  0
   31.8940   25.9770   45.7510 H   0  0  0  0  0  0  0  0  0  0  0  0
   30.9530   25.5190   46.6220 S   0  0  0  0  0  0  0  0  0  0  0  0
   30.2860   24.2820   46.1040 O   0  0  0  0  0  0  0  0  0  0  0  0
   31.6300   25.1580   47.9250 O   0  0  0  0  0  0  0  0  0  0  0  0
  1  7  1  1  0  0  0
  1  2  1  0  0  0  0
  2 16  1  0  0  0  0
  2  8  1  1  0  0  0
  3  9  1  0  0  0  0
  3  2  1  0  0  0  0
  3 10  1  0  0  0  0
  4  3  1  0  0  0  0
  5  4  1  0  0  0  0
  5  6  1  0  0  0  0
  5 11  1  0  0  0  0
  6 13  1  6  0  0  0
  6  1  1  0  0  0  0
  6 30  1  0  0  0  0
 12  5  1  0  0  0  0
 14  1  1  0  0  0  0
 15 14  1  0  0  0  0
 16 17  1  0  0  0  0
 17 20  1  0  0  0  0
 17 19  1  0  0  0  0
 18 17  1  0  0  0  0
 21 22  1  0  0  0  0
 21 20  1  0  0  0  0
 22 27  1  0  0  0  0
 23 28  1  0  0  0  0
 23 22  2  0  0  0  0
 24 23  1  0  0  0  0
 25 24  2  0  0  0  0
 25 26  1  0  0  0  0
 26 21  2  0  0  0  0
 29 25  1  0  0  0  0
 31 32  1  0  0  0  0
 32 30  1  0  0  0  0
 32 33  2  0  0  0  0
 33 34  1  0  0  0  0
 35 33  1  0  0  0  0
 35 36  1  0  0  0  0
 37 35  2  0  0  0  0
 38 31  2  0  0  0  0
 38 37  1  0  0  0  0
 39 40  1  0  0  0  0
 40 31  1  0  0  0  0
 40 42  2  0  0  0  0
 41 40  2  0  0  0  0
M  END
>  <minimizedAffinity>
-4.59344053

>  <minimizedRMSD>
1.51395965

$$$$
