
 OpenBabel03272510013D

 24 25  0  0  0  0  0  0  0  0999 V2000
   38.1330   31.3090   49.9010 C   0  0  0  0  0  0  0  0  0  0  0  0
   38.1590   31.3850   48.4910 C   0  0  0  0  0  0  0  0  0  0  0  0
   37.1480   30.7620   47.7780 C   0  0  0  0  0  0  0  0  0  0  0  0
   36.2060   30.1220   48.5080 N   0  0  0  0  0  0  0  0  0  0  0  0
   36.1900   30.0560   49.8410 C   0  0  0  0  0  0  0  0  0  0  0  0
   37.1560   30.6510   50.5300 N   0  0  0  0  0  0  0  0  0  0  0  0
   38.8760   31.7620   50.5120 H   0  0  0  0  0  0  0  0  0  0  0  0
   38.9560   31.9200   48.0050 H   0  0  0  0  0  0  0  0  0  0  0  0
   38.1500   31.2430   45.5870 C   0  0  0  0  0  0  0  0  0  0  0  0
   37.0900   30.7860   46.3230 C   0  0  0  0  0  0  0  0  0  0  0  0
   35.9940   30.3600   45.6220 C   0  0  0  0  0  0  0  0  0  0  0  0
   35.1070   29.9820   46.1110 H   0  0  0  0  0  0  0  0  0  0  0  0
   35.8880   30.3630   44.2470 C   0  0  0  0  0  0  0  0  0  0  0  0
   35.0180   30.0240   43.7100 H   0  0  0  0  0  0  0  0  0  0  0  0
   36.9520   30.8220   43.4990 C   0  0  0  0  0  3  0  0  0  0  0  0
   38.0610   31.2520   44.1940 C   0  0  0  0  0  3  0  0  0  0  0  0
   39.6450   31.6420   47.6740 H   0  0  0  0  0  0  0  0  0  0  0  0
   39.6240   31.8210   46.3300 S   0  0  0  0  0  0  0  0  0  0  0  0
   39.8950   33.2650   45.9270 O   0  0  0  0  0  0  0  0  0  0  0  0
   40.8070   31.0500   45.7860 O   0  0  0  0  0  0  0  0  0  0  0  0
   35.0820   29.3140   50.4810 C   0  0  0  0  0  0  0  0  0  0  0  0
   35.2950   29.1170   51.8440 F   0  0  0  0  0  0  0  0  0  0  0  0
   33.8730   30.0250   50.3950 F   0  0  0  0  0  0  0  0  0  0  0  0
   34.8290   28.0870   49.9470 F   0  0  0  0  0  0  0  0  0  0  0  0
  1  7  1  0  0  0  0
  1  6  1  0  0  0  0
  2  1  2  0  0  0  0
  3  2  1  0  0  0  0
  3  4  2  0  0  0  0
  4  5  1  0  0  0  0
  5 21  1  0  0  0  0
  5  6  2  0  0  0  0
  8  2  1  0  0  0  0
  9 10  1  0  0  0  0
  9 18  1  0  0  0  0
 10  3  1  0  0  0  0
 11 12  1  0  0  0  0
 11 10  2  0  0  0  0
 13 11  1  0  0  0  0
 14 13  1  0  0  0  0
 15 16  1  0  0  0  0
 15 13  2  0  0  0  0
 16  9  2  0  0  0  0
 18 17  1  0  0  0  0
 19 18  2  0  0  0  0
 20 18  2  0  0  0  0
 21 22  1  0  0  0  0
 23 21  1  0  0  0  0
 24 21  1  0  0  0  0
M  END
>  <minimizedAffinity>
-5.74641657

>  <minimizedRMSD>
1.28143299

$$$$
