
     RDKit          3D

 38 40  0  0  0  0  0  0  0  0999 V2000
   37.8193   30.4960   50.1774 C   0  0  0  0  0  0  0  0  0  0  0  0
   37.3283   30.6841   48.8979 C   0  0  0  0  0  0  0  0  0  0  0  0
   36.0055   30.2744   48.5800 C   0  0  0  0  0  0  0  0  0  0  0  0
   35.2900   29.7118   49.5713 N   0  0  0  0  0  0  0  0  0  0  0  0
   35.7991   29.5375   50.8292 C   0  0  0  0  0  0  0  0  0  0  0  0
   37.0512   29.9305   51.1136 N   0  0  0  0  0  0  0  0  0  0  0  0
   34.9550   28.9351   51.8118 N   0  0  0  0  0  0  0  0  0  0  0  0
   38.2267   33.5757   49.2174 Cl  0  0  0  0  0  0  0  0  0  0  0  0
   38.7157   32.5949   47.8657 C   0  0  0  0  0  0  0  0  0  0  0  0
   38.2181   31.3207   47.9031 C   0  0  0  0  0  0  0  0  0  0  0  0
   38.5700   30.4563   46.8577 C   0  0  0  0  0  0  0  0  0  0  0  0
   39.3671   30.8321   45.8346 C   0  0  0  0  0  0  0  0  0  0  0  0
   39.8599   32.1316   45.8181 C   0  0  0  0  0  0  0  0  0  0  0  0
   40.8940   32.6753   44.5238 Cl  0  0  0  0  0  0  0  0  0  0  0  0
   39.5319   32.9797   46.8182 C   0  0  0  0  0  0  0  0  0  0  0  0
   35.5073   30.5032   47.2274 C   0  0  0  0  0  0  0  0  0  0  0  0
   38.8491   30.8248   50.3957 H   0  0  0  0  0  0  0  0  0  0  0  0
   34.6844   27.9469   51.8852 H   0  0  0  0  0  0  0  0  0  0  0  0
   34.6785   29.7422   52.4404 H   0  0  0  0  0  0  0  0  0  0  0  0
   38.2538   29.4244   46.7829 H   0  0  0  0  0  0  0  0  0  0  0  0
   39.6711   30.2017   45.0004 H   0  0  0  0  0  0  0  0  0  0  0  0
   39.8887   34.0229   46.8634 H   0  0  0  0  0  0  0  0  0  0  0  0
   35.9081   31.4682   46.8618 H   0  0  0  0  0  0  0  0  0  0  0  0
   35.9580   29.7316   46.5462 H   0  0  0  0  0  0  0  0  0  0  0  0
   34.5228   27.3543   46.5832 H   0  0  0  0  0  0  0  0  0  0  0  0
   34.0637   28.2413   45.6626 S   0  0  0  0  0  0  0  0  0  0  0  0
   33.0532   27.4906   44.7980 O   0  0  0  0  0  0  0  0  0  0  0  0
   35.1195   28.7049   44.6987 O   0  0  0  0  0  0  0  0  0  0  0  0
   33.2582   29.5525   46.4631 C   0  0  0  0  0  0  0  0  0  0  0  0
   34.0281   30.5035   47.1024 C   0  0  0  0  0  0  0  0  0  0  0  0
   33.3207   31.5387   47.7042 C   0  0  0  0  0  0  0  0  0  0  0  0
   33.8976   32.3174   48.2270 H   0  0  0  0  0  0  0  0  0  0  0  0
   31.9532   31.6855   47.7129 C   0  0  0  0  0  0  0  0  0  0  0  0
   31.5143   32.5559   48.2289 H   0  0  0  0  0  0  0  0  0  0  0  0
   31.1984   30.7195   47.0660 C   0  0  0  0  0  0  0  0  0  0  0  0
   31.8897   29.6829   46.4617 C   0  0  0  0  0  0  0  0  0  0  0  0
   30.1240   30.8195   47.0606 H   0  0  0  0  0  0  0  0  0  0  0  0
   31.2499   28.9388   45.9634 H   0  0  0  0  0  0  0  0  0  0  0  0
  1  6  2  0
  2  1  1  0
  3  2  2  0
  3  4  1  0
  4  5  2  0
  5  6  1  0
  5  7  1  0
  9 10  2  0
  9  8  1  0
 10  2  1  0
 11 10  1  0
 12 11  2  0
 13 12  1  0
 13 15  2  0
 14 13  1  0
 15  9  1  0
 16  3  1  0
  1 17  1  0
  7 18  1  0
  7 19  1  0
 11 20  1  0
 12 21  1  0
 15 22  1  0
 16 23  1  0
 16 24  1  0
 25 26  1  0
 26 27  2  0
 26 28  2  0
 26 29  1  0
 29 30  2  0
 30 31  1  0
 31 32  1  0
 31 33  2  0
 33 34  1  0
 33 35  1  0
 35 36  2  0
 36 29  1  0
 35 37  1  0
 36 38  1  0
 16 30  1  0
M  ISO  8  17  14  20  14  21  14  22  14  23   8  24   8  25  12  32  15
M  ISO  1  34  16
M  END
>  <DihAtoms>  (1) 
2,15,29,28

>  <DihDeg>  (1) 
-81.09659483076662

$$$$
