
     RDKit          3D

 26 27  0  0  0  0  0  0  0  0999 V2000
   38.3013   31.2456   50.1229 C   0  0  0  0  0  0  0  0  0  0  0  0
   38.2799   31.6138   48.7586 C   0  0  0  0  0  0  0  0  0  0  0  0
   37.2004   31.2205   47.9863 C   0  0  0  0  0  0  0  0  0  0  0  0
   36.2408   30.5040   48.6162 N   0  0  0  0  0  0  0  0  0  0  0  0
   36.2697   30.1612   49.9046 C   0  0  0  0  0  0  0  0  0  0  0  0
   37.3020   30.5347   50.6524 N   0  0  0  0  0  0  0  0  0  0  0  0
   35.1339   29.3738   50.4352 C   0  0  0  0  0  0  0  0  0  0  0  0
   35.2601   29.1157   51.7980 F   0  0  0  0  0  0  0  0  0  0  0  0
   33.9224   30.0724   50.3010 F   0  0  0  0  0  0  0  0  0  0  0  0
   34.9384   28.1701   49.8289 F   0  0  0  0  0  0  0  0  0  0  0  0
   39.0969   31.5124   50.7747 H   0  0  0  0  0  0  0  0  0  0  0  0
   39.0960   32.1866   48.3544 H   0  0  0  0  0  0  0  0  0  0  0  0
   40.2158   31.0622   47.1815 H   0  0  0  0  0  0  0  0  0  0  0  0
   39.7488   32.2012   46.6110 S   0  0  0  0  0  0  0  0  0  0  0  0
   39.7379   33.3785   47.5773 O   0  0  0  0  0  0  0  0  0  0  0  0
   40.7633   32.5878   45.5581 O   0  0  0  0  0  0  0  0  0  0  0  0
   38.1774   32.0007   45.8710 C   0  0  0  0  0  0  0  0  0  0  0  0
   37.0903   31.5531   46.5734 C   0  0  0  0  0  0  0  0  0  0  0  0
   35.9151   31.4394   45.8780 C   0  0  0  0  0  0  0  0  0  0  0  0
   35.0016   31.0951   46.3426 H   0  0  0  0  0  0  0  0  0  0  0  0
   35.7585   31.7409   44.5417 C   0  0  0  0  0  0  0  0  0  0  0  0
   34.8268   31.6459   44.0095 H   0  0  0  0  0  0  0  0  0  0  0  0
   36.8488   32.1921   43.8287 C   0  0  0  0  0  0  0  0  0  0  0  0
   38.0367   32.3106   44.5173 C   0  0  0  0  0  0  0  0  0  0  0  0
   36.7781   32.4416   42.7802 H   0  0  0  0  0  0  0  0  0  0  0  0
   38.8808   32.6717   43.9194 H   0  0  0  0  0  0  0  0  0  0  0  0
  1  6  2  0
  2  1  1  0
  3  4  1  0
  3  2  2  0
  4  5  2  0
  5  7  1  0
  5  6  1  0
  7  8  1  0
  9  7  1  0
 10  7  1  0
  1 11  1  0
  2 12  1  0
 13 14  1  0
 14 15  2  0
 14 16  2  0
 14 17  1  0
 17 18  2  0
 18 19  1  0
 19 20  1  0
 19 21  2  0
 21 22  1  0
 21 23  1  0
 23 24  2  0
 24 17  1  0
 23 25  1  0
 24 26  1  0
  3 18  1  0
M  ISO  5  11  14  12  14  13  12  20  15  22  16
M  END
>  <DihAtoms>  (1) 
3,2,17,16

>  <DihDeg>  (1) 
0.058799441221521184

$$$$
