
 OpenBabel03272504463D

 33 35  0  0  0  0  0  0  0  0999 V2000
   36.2220   30.2060   30.7510 C   0  0  0  0  0  0  0  0  0  0  0  0
   36.3310   28.8120   30.7020 C   0  0  0  0  0  0  0  0  0  0  0  0
   35.9890   27.9900   31.7560 C   0  0  0  0  0  0  0  0  0  0  0  0
   35.5350   28.6280   32.8570 N   0  0  0  0  0  0  0  0  0  0  0  0
   35.4290   29.9660   32.9080 C   0  0  0  0  0  0  0  0  0  0  0  0
   35.7620   30.7310   31.8890 N   0  0  0  0  0  0  0  0  0  0  0  0
   36.4980   30.8270   29.9080 H   0  0  0  0  0  0  0  0  0  0  0  0
   38.4430   26.9570   33.0390 Cl  0  0  0  0  0  0  0  0  0  0  0  0
   37.2270   25.9700   32.2760 C   0  0  0  0  0  0  0  0  0  0  0  0
   36.1050   26.5370   31.6970 C   0  0  0  0  0  0  0  0  0  0  0  0
   35.2090   25.6790   31.1240 C   0  0  0  0  0  0  0  0  0  0  0  0
   35.3590   24.3160   31.0940 C   0  0  0  0  0  0  0  0  0  0  0  0
   36.5190   23.7850   31.6960 C   0  0  0  0  0  0  0  0  0  0  0  0
   36.6980   22.0520   31.6490 Cl  0  0  0  0  0  0  0  0  0  0  0  0
   37.4560   24.6030   32.2890 C   0  0  0  0  0  0  0  0  0  0  0  0
   34.3350   26.1310   30.6740 H   0  0  0  0  0  0  0  0  0  0  0  0
   34.6440   23.6600   30.6380 H   0  0  0  0  0  0  0  0  0  0  0  0
   38.3380   24.1720   32.7450 H   0  0  0  0  0  0  0  0  0  0  0  0
   33.6040   30.4880   34.5670 C   0  0  0  0  0  0  0  0  0  0  0  0
   34.9230   30.5120   34.1630 C   0  0  0  0  0  0  0  0  0  0  0  0
   35.7860   31.1140   35.0620 C   0  0  0  0  0  0  0  0  0  0  0  0
   36.8460   31.1920   34.8530 H   0  0  0  0  0  0  0  0  0  0  0  0
   35.4100   31.6630   36.2810 C   0  0  0  0  0  0  0  0  0  0  0  0
   36.1160   32.1210   36.9460 H   0  0  0  0  0  0  0  0  0  0  0  0
   34.0880   31.6120   36.6320 C   0  0  0  0  0  3  0  0  0  0  0  0
   33.1880   31.0210   35.7680 C   0  0  0  0  0  3  0  0  0  0  0  0
   32.9940   28.6730   32.7960 H   0  0  0  0  0  0  0  0  0  0  0  0
   32.4490   29.7370   33.4750 S   0  0  0  0  0  0  0  0  0  0  0  0
   31.1880   29.3580   34.1970 O   0  0  0  0  0  0  0  0  0  0  0  0
   32.0230   30.7170   32.4030 O   0  0  0  0  0  0  0  0  0  0  0  0
   36.8250   28.2370   29.4850 N   0  0  0  0  0  0  0  0  0  0  0  0
   37.8290   28.4570   29.4710 H   0  0  0  0  0  0  0  0  0  0  0  0
   36.3230   27.7010   28.7430 H   0  0  0  0  0  0  0  0  0  0  0  0
  1  6  1  0  0  0  0
  2  1  2  0  0  0  0
  2  3  1  0  0  0  0
  3  4  2  0  0  0  0
  4  5  1  0  0  0  0
  5 20  1  0  0  0  0
  6  5  2  0  0  0  0
  7  1  1  0  0  0  0
  9 15  1  0  0  0  0
  9  8  1  0  0  0  0
 10  3  1  0  0  0  0
 10  9  2  0  0  0  0
 11 10  1  0  0  0  0
 12 11  2  0  0  0  0
 12 13  1  0  0  0  0
 13 15  2  0  0  0  0
 14 13  1  0  0  0  0
 15 18  1  0  0  0  0
 16 11  1  0  0  0  0
 17 12  1  0  0  0  0
 19 26  1  0  0  0  0
 20 19  2  0  0  0  0
 20 21  1  0  0  0  0
 21 23  2  0  0  0  0
 22 21  1  0  0  0  0
 23 25  1  0  0  0  0
 23 24  1  0  0  0  0
 26 25  2  0  0  0  0
 27 28  1  0  0  0  0
 28 29  2  0  0  0  0
 28 19  1  0  0  0  0
 30 28  2  0  0  0  0
 31  2  1  0  0  0  0
 32 31  1  0  0  0  0
 33 31  1  0  0  0  0
M  END
>  <minimizedAffinity>
-6.26529598

$$$$

 OpenBabel03272504463D

 33 35  0  0  0  0  0  0  0  0999 V2000
   37.7250   25.4190   32.6500 C   0  0  0  0  0  0  0  0  0  0  0  0
   37.5750   24.2910   31.8360 C   0  0  0  0  0  0  0  0  0  0  0  0
   37.7290   23.0000   32.2980 C   0  0  0  0  0  0  0  0  0  0  0  0
   38.0370   22.8930   33.6090 N   0  0  0  0  0  0  0  0  0  0  0  0
   38.1810   23.9730   34.3940 C   0  0  0  0  0  0  0  0  0  0  0  0
   38.0300   25.1960   33.9300 N   0  0  0  0  0  0  0  0  0  0  0  0
   37.5990   26.4220   32.2610 H   0  0  0  0  0  0  0  0  0  0  0  0
   35.0320   21.7980   32.4400 Cl  0  0  0  0  0  0  0  0  0  0  0  0
   36.3360   21.2050   31.4490 C   0  0  0  0  0  0  0  0  0  0  0  0
   37.5710   21.8290   31.4420 C   0  0  0  0  0  0  0  0  0  0  0  0
   38.5290   21.2880   30.6310 C   0  0  0  0  0  0  0  0  0  0  0  0
   38.3350   20.1840   29.8400 C   0  0  0  0  0  0  0  0  0  0  0  0
   37.0600   19.5820   29.8810 C   0  0  0  0  0  0  0  0  0  0  0  0
   36.8270   18.1800   28.8730 Cl  0  0  0  0  0  0  0  0  0  0  0  0
   36.0560   20.0850   30.6810 C   0  0  0  0  0  0  0  0  0  0  0  0
   39.4910   21.7830   30.6320 H   0  0  0  0  0  0  0  0  0  0  0  0
   39.1000   19.7750   29.2110 H   0  0  0  0  0  0  0  0  0  0  0  0
   35.0860   19.6060   30.6950 H   0  0  0  0  0  0  0  0  0  0  0  0
   39.6770   23.1010   36.2260 C   0  0  0  0  0  0  0  0  0  0  0  0
   38.5140   23.7000   35.7880 C   0  0  0  0  0  0  0  0  0  0  0  0
   37.6340   24.0470   36.7980 C   0  0  0  0  0  0  0  0  0  0  0  0
   36.6870   24.5230   36.5750 H   0  0  0  0  0  0  0  0  0  0  0  0
   37.8530   23.8330   38.1530 C   0  0  0  0  0  0  0  0  0  0  0  0
   37.1380   24.1190   38.9010 H   0  0  0  0  0  0  0  0  0  0  0  0
   39.0240   23.2350   38.5310 C   0  0  0  0  0  3  0  0  0  0  0  0
   39.9340   22.8710   37.5600 C   0  0  0  0  0  3  0  0  0  0  0  0
   40.2390   22.0940   33.8870 H   0  0  0  0  0  0  0  0  0  0  0  0
   40.8440   22.6330   34.9980 S   0  0  0  0  0  0  0  0  0  0  0  0
   41.7500   23.7780   34.6460 O   0  0  0  0  0  0  0  0  0  0  0  0
   41.7550   21.5430   35.5220 O   0  0  0  0  0  0  0  0  0  0  0  0
   37.2480   24.5180   30.4590 N   0  0  0  0  0  0  0  0  0  0  0  0
   38.1090   24.8860   30.0330 H   0  0  0  0  0  0  0  0  0  0  0  0
   36.3520   24.3610   29.9460 H   0  0  0  0  0  0  0  0  0  0  0  0
  1  6  1  0  0  0  0
  2  3  1  0  0  0  0
  2  1  2  0  0  0  0
  3  4  2  0  0  0  0
  4  5  1  0  0  0  0
  5 20  1  0  0  0  0
  6  5  2  0  0  0  0
  7  1  1  0  0  0  0
  9  8  1  0  0  0  0
 10  9  1  0  0  0  0
 10  3  1  0  0  0  0
 11 16  1  0  0  0  0
 11 10  2  0  0  0  0
 12 13  2  0  0  0  0
 12 11  1  0  0  0  0
 13 15  1  0  0  0  0
 14 13  1  0  0  0  0
 15 18  1  0  0  0  0
 15  9  2  0  0  0  0
 17 12  1  0  0  0  0
 19 26  1  0  0  0  0
 20 19  2  0  0  0  0
 20 21  1  0  0  0  0
 21 23  2  0  0  0  0
 22 21  1  0  0  0  0
 23 25  1  0  0  0  0
 23 24  1  0  0  0  0
 26 25  2  0  0  0  0
 27 28  1  0  0  0  0
 28 30  2  0  0  0  0
 28 19  1  0  0  0  0
 29 28  2  0  0  0  0
 31  2  1  0  0  0  0
 32 31  1  0  0  0  0
 33 31  1  0  0  0  0
M  END
>  <minimizedAffinity>
-5.82658005

$$$$

 OpenBabel03272504463D

 33 35  0  0  0  0  0  0  0  0999 V2000
   38.6540   25.5870   30.3660 C   0  0  0  0  0  0  0  0  0  0  0  0
   38.1590   24.3070   30.6420 C   0  0  0  0  0  0  0  0  0  0  0  0
   37.1490   24.0680   31.5510 C   0  0  0  0  0  0  0  0  0  0  0  0
   36.6600   25.1660   32.1680 N   0  0  0  0  0  0  0  0  0  0  0  0
   37.1330   26.3950   31.9060 C   0  0  0  0  0  0  0  0  0  0  0  0
   38.0980   26.6000   31.0340 N   0  0  0  0  0  0  0  0  0  0  0  0
   39.4480   25.7460   29.6470 H   0  0  0  0  0  0  0  0  0  0  0  0
   38.4400   22.7870   33.8810 Cl  0  0  0  0  0  0  0  0  0  0  0  0
   37.1900   22.0590   32.9100 C   0  0  0  0  0  0  0  0  0  0  0  0
   36.6380   22.7300   31.8330 C   0  0  0  0  0  0  0  0  0  0  0  0
   35.6630   22.0750   31.1330 C   0  0  0  0  0  0  0  0  0  0  0  0
   35.2130   20.8160   31.4370 C   0  0  0  0  0  0  0  0  0  0  0  0
   35.8050   20.1710   32.5430 C   0  0  0  0  0  0  0  0  0  0  0  0
   35.2240   18.5710   32.9160 Cl  0  0  0  0  0  0  0  0  0  0  0  0
   36.7930   20.7840   33.2840 C   0  0  0  0  0  0  0  0  0  0  0  0
   35.2380   22.6070   30.2940 H   0  0  0  0  0  0  0  0  0  0  0  0
   34.4470   20.3190   30.8750 H   0  0  0  0  0  0  0  0  0  0  0  0
   37.2320   20.2700   34.1280 H   0  0  0  0  0  0  0  0  0  0  0  0
   36.7900   27.8200   33.9570 C   0  0  0  0  0  0  0  0  0  0  0  0
   36.5070   27.4830   32.6500 C   0  0  0  0  0  0  0  0  0  0  0  0
   35.5450   28.2780   32.0500 C   0  0  0  0  0  0  0  0  0  0  0  0
   35.2400   28.1080   31.0250 H   0  0  0  0  0  0  0  0  0  0  0  0
   34.8900   29.3360   32.6650 C   0  0  0  0  0  0  0  0  0  0  0  0
   34.1490   29.9250   32.1590 H   0  0  0  0  0  0  0  0  0  0  0  0
   35.2100   29.6260   33.9640 C   0  0  0  0  0  3  0  0  0  0  0  0
   36.1640   28.8620   34.6060 C   0  0  0  0  0  3  0  0  0  0  0  0
   38.8950   26.2820   33.9090 H   0  0  0  0  0  0  0  0  0  0  0  0
   38.0030   26.8540   34.7840 S   0  0  0  0  0  0  0  0  0  0  0  0
   38.6950   27.6510   35.8520 O   0  0  0  0  0  0  0  0  0  0  0  0
   37.3520   25.6920   35.5040 O   0  0  0  0  0  0  0  0  0  0  0  0
   38.7480   23.2110   29.9310 N   0  0  0  0  0  0  0  0  0  0  0  0
   39.6830   23.0930   30.3430 H   0  0  0  0  0  0  0  0  0  0  0  0
   38.3620   22.6240   29.1580 H   0  0  0  0  0  0  0  0  0  0  0  0
  1  2  2  0  0  0  0
  1  6  1  0  0  0  0
  2  3  1  0  0  0  0
  3 10  1  0  0  0  0
  3  4  2  0  0  0  0
  5  4  1  0  0  0  0
  5 20  1  0  0  0  0
  6  5  2  0  0  0  0
  7  1  1  0  0  0  0
  9 15  1  0  0  0  0
  9  8  1  0  0  0  0
 10  9  2  0  0  0  0
 11 12  2  0  0  0  0
 11 10  1  0  0  0  0
 12 13  1  0  0  0  0
 13 14  1  0  0  0  0
 13 15  2  0  0  0  0
 15 18  1  0  0  0  0
 16 11  1  0  0  0  0
 17 12  1  0  0  0  0
 19 26  1  0  0  0  0
 19 28  1  0  0  0  0
 20 19  2  0  0  0  0
 21 20  1  0  0  0  0
 21 23  2  0  0  0  0
 22 21  1  0  0  0  0
 23 25  1  0  0  0  0
 24 23  1  0  0  0  0
 25 26  2  0  0  0  0
 27 28  1  0  0  0  0
 28 30  2  0  0  0  0
 28 29  2  0  0  0  0
 31 32  1  0  0  0  0
 31  2  1  0  0  0  0
 33 31  1  0  0  0  0
M  END
>  <minimizedAffinity>
-5.68588638

$$$$

 OpenBabel03272504463D

 33 35  0  0  0  0  0  0  0  0999 V2000
   34.3280   29.1390   32.5480 C   0  0  0  0  0  0  0  0  0  0  0  0
   34.0420   30.1510   33.4720 C   0  0  0  0  0  0  0  0  0  0  0  0
   34.8230   30.4040   34.5810 C   0  0  0  0  0  0  0  0  0  0  0  0
   35.9000   29.6010   34.7200 N   0  0  0  0  0  0  0  0  0  0  0  0
   36.1780   28.6300   33.8350 C   0  0  0  0  0  0  0  0  0  0  0  0
   35.4180   28.4060   32.7840 N   0  0  0  0  0  0  0  0  0  0  0  0
   33.6970   28.9620   31.6860 H   0  0  0  0  0  0  0  0  0  0  0  0
   36.3690   32.8820   34.1270 Cl  0  0  0  0  0  0  0  0  0  0  0  0
   35.1990   32.6580   35.3980 C   0  0  0  0  0  0  0  0  0  0  0  0
   34.5170   31.4610   35.5390 C   0  0  0  0  0  0  0  0  0  0  0  0
   33.6190   31.3820   36.5670 C   0  0  0  0  0  0  0  0  0  0  0  0
   33.3630   32.4050   37.4450 C   0  0  0  0  0  0  0  0  0  0  0  0
   34.0820   33.6040   37.2610 C   0  0  0  0  0  0  0  0  0  0  0  0
   33.7470   34.8940   38.3840 Cl  0  0  0  0  0  0  0  0  0  0  0  0
   35.0000   33.7390   36.2410 C   0  0  0  0  0  0  0  0  0  0  0  0
   33.0920   30.4450   36.6700 H   0  0  0  0  0  0  0  0  0  0  0  0
   32.6540   32.3230   38.2450 H   0  0  0  0  0  0  0  0  0  0  0  0
   35.5390   34.6690   36.1200 H   0  0  0  0  0  0  0  0  0  0  0  0
   38.2230   27.3160   33.1660 C   0  0  0  0  0  0  0  0  0  0  0  0
   37.3750   27.8440   34.1170 C   0  0  0  0  0  0  0  0  0  0  0  0
   37.7410   27.5720   35.4240 C   0  0  0  0  0  0  0  0  0  0  0  0
   37.1510   27.9350   36.2570 H   0  0  0  0  0  0  0  0  0  0  0  0
   38.8570   26.8360   35.8020 C   0  0  0  0  0  0  0  0  0  0  0  0
   39.1010   26.6510   36.8300 H   0  0  0  0  0  0  0  0  0  0  0  0
   39.6650   26.3360   34.8160 C   0  0  0  0  0  3  0  0  0  0  0  0
   39.3410   26.5810   33.4970 C   0  0  0  0  0  3  0  0  0  0  0  0
   36.7890   28.5200   31.3510 H   0  0  0  0  0  0  0  0  0  0  0  0
   37.8210   27.6210   31.4820 S   0  0  0  0  0  0  0  0  0  0  0  0
   39.0340   28.0380   30.7020 O   0  0  0  0  0  0  0  0  0  0  0  0
   37.3300   26.3520   30.8190 O   0  0  0  0  0  0  0  0  0  0  0  0
   32.8740   30.9460   33.2300 N   0  0  0  0  0  0  0  0  0  0  0  0
   32.0790   30.3300   33.4440 H   0  0  0  0  0  0  0  0  0  0  0  0
   32.7890   31.9350   32.9090 H   0  0  0  0  0  0  0  0  0  0  0  0
  1  6  2  0  0  0  0
  1  2  1  0  0  0  0
  2  3  2  0  0  0  0
  3  4  1  0  0  0  0
  3 10  1  0  0  0  0
  5 20  1  0  0  0  0
  5  4  2  0  0  0  0
  6  5  1  0  0  0  0
  7  1  1  0  0  0  0
  8  9  1  0  0  0  0
  9 10  2  0  0  0  0
  9 15  1  0  0  0  0
 10 11  1  0  0  0  0
 11 16  1  0  0  0  0
 11 12  2  0  0  0  0
 12 17  1  0  0  0  0
 13 12  1  0  0  0  0
 13 14  1  0  0  0  0
 15 13  2  0  0  0  0
 18 15  1  0  0  0  0
 19 26  2  0  0  0  0
 19 20  1  0  0  0  0
 20 21  2  0  0  0  0
 21 23  1  0  0  0  0
 21 22  1  0  0  0  0
 23 24  1  0  0  0  0
 25 23  2  0  0  0  0
 26 25  1  0  0  0  0
 27 28  1  0  0  0  0
 28 19  1  0  0  0  0
 29 28  2  0  0  0  0
 30 28  2  0  0  0  0
 31 32  1  0  0  0  0
 31  2  1  0  0  0  0
 33 31  1  0  0  0  0
M  END
>  <minimizedAffinity>
-5.65754652

$$$$

 OpenBabel03272504463D

 33 35  0  0  0  0  0  0  0  0999 V2000
   36.5060   29.4940   30.4100 C   0  0  0  0  0  0  0  0  0  0  0  0
   36.0020   30.1340   31.5480 C   0  0  0  0  0  0  0  0  0  0  0  0
   35.6310   29.4580   32.6920 C   0  0  0  0  0  0  0  0  0  0  0  0
   35.7890   28.1180   32.6440 N   0  0  0  0  0  0  0  0  0  0  0  0
   36.2730   27.5000   31.5540 C   0  0  0  0  0  0  0  0  0  0  0  0
   36.6210   28.1660   30.4720 N   0  0  0  0  0  0  0  0  0  0  0  0
   36.7900   30.0500   29.5250 H   0  0  0  0  0  0  0  0  0  0  0  0
   32.6790   29.4640   32.8240 Cl  0  0  0  0  0  0  0  0  0  0  0  0
   33.7300   30.1810   34.0140 C   0  0  0  0  0  0  0  0  0  0  0  0
   35.1060   30.1330   33.8750 C   0  0  0  0  0  0  0  0  0  0  0  0
   35.8450   30.7240   34.8620 C   0  0  0  0  0  0  0  0  0  0  0  0
   35.3060   31.3470   35.9590 C   0  0  0  0  0  0  0  0  0  0  0  0
   33.9000   31.3700   36.0570 C   0  0  0  0  0  0  0  0  0  0  0  0
   33.2290   32.1650   37.4550 Cl  0  0  0  0  0  0  0  0  0  0  0  0
   33.1050   30.7910   35.0910 C   0  0  0  0  0  0  0  0  0  0  0  0
   36.9190   30.6810   34.7440 H   0  0  0  0  0  0  0  0  0  0  0  0
   35.9050   31.8040   36.7220 H   0  0  0  0  0  0  0  0  0  0  0  0
   32.0280   30.8210   35.1890 H   0  0  0  0  0  0  0  0  0  0  0  0
   37.4530   25.3690   32.2010 C   0  0  0  0  0  0  0  0  0  0  0  0
   36.3870   26.0490   31.6500 C   0  0  0  0  0  0  0  0  0  0  0  0
   35.3760   25.2350   31.1670 C   0  0  0  0  0  0  0  0  0  0  0  0
   34.4890   25.6560   30.7120 H   0  0  0  0  0  0  0  0  0  0  0  0
   35.3850   23.8460   31.2090 C   0  0  0  0  0  0  0  0  0  0  0  0
   34.5770   23.2560   30.8200 H   0  0  0  0  0  0  0  0  0  0  0  0
   36.4680   23.2230   31.7670 C   0  0  0  0  0  3  0  0  0  0  0  0
   37.5020   23.9930   32.2620 C   0  0  0  0  0  3  0  0  0  0  0  0
   38.3400   27.5390   33.3420 H   0  0  0  0  0  0  0  0  0  0  0  0
   38.7750   26.3380   32.8350 S   0  0  0  0  0  0  0  0  0  0  0  0
   39.5830   25.5640   33.8360 O   0  0  0  0  0  0  0  0  0  0  0  0
   39.7420   26.7000   31.7280 O   0  0  0  0  0  0  0  0  0  0  0  0
   35.8750   31.5610   31.4930 N   0  0  0  0  0  0  0  0  0  0  0  0
   35.0780   31.7370   30.8670 H   0  0  0  0  0  0  0  0  0  0  0  0
   36.4360   32.3050   31.9640 H   0  0  0  0  0  0  0  0  0  0  0  0
  1  6  2  0  0  0  0
  1  2  1  0  0  0  0
  2  3  2  0  0  0  0
  3 10  1  0  0  0  0
  4  3  1  0  0  0  0
  5 20  1  0  0  0  0
  5  4  2  0  0  0  0
  6  5  1  0  0  0  0
  7  1  1  0  0  0  0
  8  9  1  0  0  0  0
  9 15  1  0  0  0  0
 10  9  2  0  0  0  0
 10 11  1  0  0  0  0
 11 12  2  0  0  0  0
 12 13  1  0  0  0  0
 12 17  1  0  0  0  0
 13 14  1  0  0  0  0
 15 18  1  0  0  0  0
 15 13  2  0  0  0  0
 16 11  1  0  0  0  0
 19 26  1  0  0  0  0
 19 28  1  0  0  0  0
 20 19  2  0  0  0  0
 21 23  2  0  0  0  0
 21 20  1  0  0  0  0
 22 21  1  0  0  0  0
 23 25  1  0  0  0  0
 24 23  1  0  0  0  0
 25 26  2  0  0  0  0
 28 27  1  0  0  0  0
 28 29  2  0  0  0  0
 30 28  2  0  0  0  0
 31  2  1  0  0  0  0
 31 33  1  0  0  0  0
 32 31  1  0  0  0  0
M  END
>  <minimizedAffinity>
-5.61621475

$$$$

 OpenBabel03272504463D

 33 35  0  0  0  0  0  0  0  0999 V2000
   39.2890   25.0910   31.3710 C   0  0  0  0  0  0  0  0  0  0  0  0
   38.5900   26.2530   31.7170 C   0  0  0  0  0  0  0  0  0  0  0  0
   37.3150   26.2380   32.2440 C   0  0  0  0  0  0  0  0  0  0  0  0
   36.7750   25.0100   32.4080 N   0  0  0  0  0  0  0  0  0  0  0  0
   37.4430   23.8930   32.0770 C   0  0  0  0  0  0  0  0  0  0  0  0
   38.6610   23.9320   31.5750 N   0  0  0  0  0  0  0  0  0  0  0  0
   40.2890   25.1320   30.9580 H   0  0  0  0  0  0  0  0  0  0  0  0
   37.6000   26.9750   35.0920 Cl  0  0  0  0  0  0  0  0  0  0  0  0
   36.6730   27.8700   33.9200 C   0  0  0  0  0  0  0  0  0  0  0  0
   36.5920   27.4540   32.6020 C   0  0  0  0  0  0  0  0  0  0  0  0
   35.8400   28.2240   31.7590 C   0  0  0  0  0  0  0  0  0  0  0  0
   35.1780   29.3630   32.1410 C   0  0  0  0  0  0  0  0  0  0  0  0
   35.2910   29.7470   33.4930 C   0  0  0  0  0  0  0  0  0  0  0  0
   34.4440   31.1950   33.9650 Cl  0  0  0  0  0  0  0  0  0  0  0  0
   36.0350   29.0080   34.3880 C   0  0  0  0  0  0  0  0  0  0  0  0
   35.7830   27.8910   30.7320 H   0  0  0  0  0  0  0  0  0  0  0  0
   34.5940   29.9520   31.4630 H   0  0  0  0  0  0  0  0  0  0  0  0
   36.1060   29.3240   35.4200 H   0  0  0  0  0  0  0  0  0  0  0  0
   36.8410   21.8640   33.4460 C   0  0  0  0  0  0  0  0  0  0  0  0
   36.7330   22.6400   32.3100 C   0  0  0  0  0  0  0  0  0  0  0  0
   35.8670   22.1390   31.3540 C   0  0  0  0  0  0  0  0  0  0  0  0
   35.7020   22.6620   30.4210 H   0  0  0  0  0  0  0  0  0  0  0  0
   35.1430   20.9600   31.4760 C   0  0  0  0  0  0  0  0  0  0  0  0
   34.4830   20.6100   30.7050 H   0  0  0  0  0  0  0  0  0  0  0  0
   35.2880   20.2280   32.6240 C   0  0  0  0  0  3  0  0  0  0  0  0
   36.1410   20.6880   33.6070 C   0  0  0  0  0  3  0  0  0  0  0  0
   38.0530   23.8070   34.6920 H   0  0  0  0  0  0  0  0  0  0  0  0
   37.9230   22.4390   34.7050 S   0  0  0  0  0  0  0  0  0  0  0  0
   37.5070   21.9260   36.0540 O   0  0  0  0  0  0  0  0  0  0  0  0
   39.3220   21.9040   34.4830 O   0  0  0  0  0  0  0  0  0  0  0  0
   39.2540   27.5050   31.5020 N   0  0  0  0  0  0  0  0  0  0  0  0
   39.2550   27.6380   30.4820 H   0  0  0  0  0  0  0  0  0  0  0  0
   39.6650   28.1740   32.1890 H   0  0  0  0  0  0  0  0  0  0  0  0
  1  6  2  0  0  0  0
  1  2  1  0  0  0  0
  2  3  2  0  0  0  0
  3  4  1  0  0  0  0
  3 10  1  0  0  0  0
  5 20  1  0  0  0  0
  5  4  2  0  0  0  0
  6  5  1  0  0  0  0
  7  1  1  0  0  0  0
  9 15  1  0  0  0  0
  9  8  1  0  0  0  0
 10  9  2  0  0  0  0
 11 12  2  0  0  0  0
 11 10  1  0  0  0  0
 12 13  1  0  0  0  0
 13 14  1  0  0  0  0
 13 15  2  0  0  0  0
 15 18  1  0  0  0  0
 16 11  1  0  0  0  0
 17 12  1  0  0  0  0
 19 26  1  0  0  0  0
 19 28  1  0  0  0  0
 20 19  2  0  0  0  0
 21 23  2  0  0  0  0
 21 20  1  0  0  0  0
 22 21  1  0  0  0  0
 23 25  1  0  0  0  0
 24 23  1  0  0  0  0
 25 26  2  0  0  0  0
 27 28  1  0  0  0  0
 28 29  2  0  0  0  0
 30 28  2  0  0  0  0
 31  2  1  0  0  0  0
 31 33  1  0  0  0  0
 32 31  1  0  0  0  0
M  END
>  <minimizedAffinity>
-5.5589447

$$$$

 OpenBabel03272504463D

 33 35  0  0  0  0  0  0  0  0999 V2000
   36.7980   22.1140   32.7950 C   0  0  0  0  0  0  0  0  0  0  0  0
   36.7290   23.4210   32.2980 C   0  0  0  0  0  0  0  0  0  0  0  0
   37.5340   24.4450   32.7530 C   0  0  0  0  0  0  0  0  0  0  0  0
   38.4070   24.1010   33.7240 N   0  0  0  0  0  0  0  0  0  0  0  0
   38.4760   22.8490   34.2030 C   0  0  0  0  0  0  0  0  0  0  0  0
   37.6980   21.8860   33.7540 N   0  0  0  0  0  0  0  0  0  0  0  0
   36.1530   21.3290   32.4200 H   0  0  0  0  0  0  0  0  0  0  0  0
   39.3070   24.9120   30.4340 Cl  0  0  0  0  0  0  0  0  0  0  0  0
   38.2560   26.1080   31.1410 C   0  0  0  0  0  0  0  0  0  0  0  0
   37.4560   25.8050   32.2290 C   0  0  0  0  0  0  0  0  0  0  0  0
   36.6660   26.8110   32.7110 C   0  0  0  0  0  0  0  0  0  0  0  0
   36.6240   28.0770   32.1840 C   0  0  0  0  0  0  0  0  0  0  0  0
   37.4570   28.3380   31.0760 C   0  0  0  0  0  0  0  0  0  0  0  0
   37.3940   29.9510   30.4180 Cl  0  0  0  0  0  0  0  0  0  0  0  0
   38.2740   27.3620   30.5490 C   0  0  0  0  0  0  0  0  0  0  0  0
   36.0440   26.5650   33.5610 H   0  0  0  0  0  0  0  0  0  0  0  0
   35.9970   28.8520   32.5780 H   0  0  0  0  0  0  0  0  0  0  0  0
   38.9040   27.5860   29.6980 H   0  0  0  0  0  0  0  0  0  0  0  0
   39.2740   22.8690   36.5950 C   0  0  0  0  0  0  0  0  0  0  0  0
   39.4680   22.6280   35.2500 C   0  0  0  0  0  0  0  0  0  0  0  0
   40.7230   22.1370   34.9320 C   0  0  0  0  0  0  0  0  0  0  0  0
   40.9910   21.9110   33.9080 H   0  0  0  0  0  0  0  0  0  0  0  0
   41.7370   21.8910   35.8490 C   0  0  0  0  0  0  0  0  0  0  0  0
   42.6970   21.5110   35.5540 H   0  0  0  0  0  0  0  0  0  0  0  0
   41.4900   22.1480   37.1700 C   0  0  0  0  0  3  0  0  0  0  0  0
   40.2530   22.6380   37.5370 C   0  0  0  0  0  3  0  0  0  0  0  0
   37.2810   24.5160   36.2580 H   0  0  0  0  0  0  0  0  0  0  0  0
   37.7030   23.4930   37.0740 S   0  0  0  0  0  0  0  0  0  0  0  0
   36.6870   22.3910   37.1650 O   0  0  0  0  0  0  0  0  0  0  0  0
   37.7740   24.0930   38.4610 O   0  0  0  0  0  0  0  0  0  0  0  0
   35.7660   23.6780   31.2680 N   0  0  0  0  0  0  0  0  0  0  0  0
   34.8530   23.6590   31.7410 H   0  0  0  0  0  0  0  0  0  0  0  0
   35.9030   23.8550   30.2480 H   0  0  0  0  0  0  0  0  0  0  0  0
  1  6  1  0  0  0  0
  2  3  1  0  0  0  0
  2  1  2  0  0  0  0
  3  4  2  0  0  0  0
  4  5  1  0  0  0  0
  5 20  1  0  0  0  0
  6  5  2  0  0  0  0
  7  1  1  0  0  0  0
  8  9  1  0  0  0  0
  9 10  1  0  0  0  0
 10 11  2  0  0  0  0
 10  3  1  0  0  0  0
 11 16  1  0  0  0  0
 12 17  1  0  0  0  0
 12 11  1  0  0  0  0
 13 12  2  0  0  0  0
 14 13  1  0  0  0  0
 15 13  1  0  0  0  0
 15  9  2  0  0  0  0
 18 15  1  0  0  0  0
 19 28  1  0  0  0  0
 19 26  1  0  0  0  0
 20 19  2  0  0  0  0
 21 20  1  0  0  0  0
 21 23  2  0  0  0  0
 22 21  1  0  0  0  0
 23 25  1  0  0  0  0
 24 23  1  0  0  0  0
 25 26  2  0  0  0  0
 27 28  1  0  0  0  0
 28 29  2  0  0  0  0
 28 30  2  0  0  0  0
 31 32  1  0  0  0  0
 31  2  1  0  0  0  0
 33 31  1  0  0  0  0
M  END
>  <minimizedAffinity>
-5.52766132

$$$$

 OpenBabel03272504463D

 33 35  0  0  0  0  0  0  0  0999 V2000
   36.2610   29.8130   30.4540 C   0  0  0  0  0  0  0  0  0  0  0  0
   36.5090   28.4430   30.6030 C   0  0  0  0  0  0  0  0  0  0  0  0
   35.8520   27.6520   31.5230 C   0  0  0  0  0  0  0  0  0  0  0  0
   34.9400   28.2940   32.2840 N   0  0  0  0  0  0  0  0  0  0  0  0
   34.6980   29.6070   32.1450 C   0  0  0  0  0  0  0  0  0  0  0  0
   35.3370   30.3430   31.2590 N   0  0  0  0  0  0  0  0  0  0  0  0
   36.7910   30.4100   29.7230 H   0  0  0  0  0  0  0  0  0  0  0  0
   38.0220   27.0550   33.4380 Cl  0  0  0  0  0  0  0  0  0  0  0  0
   37.1200   25.8580   32.5510 C   0  0  0  0  0  0  0  0  0  0  0  0
   36.1170   26.2250   31.6710 C   0  0  0  0  0  0  0  0  0  0  0  0
   35.4670   25.2120   31.0220 C   0  0  0  0  0  0  0  0  0  0  0  0
   35.7500   23.8810   31.1950 C   0  0  0  0  0  0  0  0  0  0  0  0
   36.7800   23.5560   32.1020 C   0  0  0  0  0  0  0  0  0  0  0  0
   37.1290   21.8610   32.3110 Cl  0  0  0  0  0  0  0  0  0  0  0  0
   37.4690   24.5360   32.7830 C   0  0  0  0  0  0  0  0  0  0  0  0
   34.6850   25.5080   30.3370 H   0  0  0  0  0  0  0  0  0  0  0  0
   35.2270   23.1020   30.6760 H   0  0  0  0  0  0  0  0  0  0  0  0
   38.2550   24.2620   33.4740 H   0  0  0  0  0  0  0  0  0  0  0  0
   33.9430   30.8730   34.1900 C   0  0  0  0  0  0  0  0  0  0  0  0
   33.6850   30.1610   33.0370 C   0  0  0  0  0  0  0  0  0  0  0  0
   32.3400   29.9920   32.7570 C   0  0  0  0  0  0  0  0  0  0  0  0
   32.0160   29.4500   31.8780 H   0  0  0  0  0  0  0  0  0  0  0  0
   31.2980   30.4780   33.5370 C   0  0  0  0  0  0  0  0  0  0  0  0
   30.2680   30.3210   33.2790 H   0  0  0  0  0  0  0  0  0  0  0  0
   31.6110   31.1780   34.6700 C   0  0  0  0  0  3  0  0  0  0  0  0
   32.9390   31.3720   34.9920 C   0  0  0  0  0  3  0  0  0  0  0  0
   36.4120   30.0400   34.2960 H   0  0  0  0  0  0  0  0  0  0  0  0
   35.6310   31.1270   34.6090 S   0  0  0  0  0  0  0  0  0  0  0  0
   36.1570   32.3930   33.9960 O   0  0  0  0  0  0  0  0  0  0  0  0
   35.7820   31.3080   36.1050 O   0  0  0  0  0  0  0  0  0  0  0  0
   37.4980   27.8620   29.7440 N   0  0  0  0  0  0  0  0  0  0  0  0
   38.4000   28.2080   30.0970 H   0  0  0  0  0  0  0  0  0  0  0  0
   37.3870   27.2210   28.9270 H   0  0  0  0  0  0  0  0  0  0  0  0
  1  2  2  0  0  0  0
  1  6  1  0  0  0  0
  2  3  1  0  0  0  0
  3 10  1  0  0  0  0
  3  4  2  0  0  0  0
  5  4  1  0  0  0  0
  5 20  1  0  0  0  0
  6  5  2  0  0  0  0
  7  1  1  0  0  0  0
  9 15  1  0  0  0  0
  9  8  1  0  0  0  0
 10  9  2  0  0  0  0
 11 12  2  0  0  0  0
 11 10  1  0  0  0  0
 12 13  1  0  0  0  0
 13 14  1  0  0  0  0
 13 15  2  0  0  0  0
 15 18  1  0  0  0  0
 16 11  1  0  0  0  0
 17 12  1  0  0  0  0
 19 28  1  0  0  0  0
 19 26  1  0  0  0  0
 20 19  2  0  0  0  0
 21 20  1  0  0  0  0
 21 23  2  0  0  0  0
 22 21  1  0  0  0  0
 23 25  1  0  0  0  0
 24 23  1  0  0  0  0
 25 26  2  0  0  0  0
 27 28  1  0  0  0  0
 28 30  2  0  0  0  0
 29 28  2  0  0  0  0
 31 32  1  0  0  0  0
 31  2  1  0  0  0  0
 33 31  1  0  0  0  0
M  END
>  <minimizedAffinity>
-5.39463186

$$$$

 OpenBabel03272504463D

 33 35  0  0  0  0  0  0  0  0999 V2000
   36.7040   29.5720   30.7670 C   0  0  0  0  0  0  0  0  0  0  0  0
   35.5050   29.8510   31.4320 C   0  0  0  0  0  0  0  0  0  0  0  0
   35.0990   29.1840   32.5690 C   0  0  0  0  0  0  0  0  0  0  0  0
   35.9470   28.2270   33.0060 N   0  0  0  0  0  0  0  0  0  0  0  0
   37.0980   27.9550   32.3710 C   0  0  0  0  0  0  0  0  0  0  0  0
   37.4650   28.6060   31.2860 N   0  0  0  0  0  0  0  0  0  0  0  0
   36.9990   30.1120   29.8760 H   0  0  0  0  0  0  0  0  0  0  0  0
   35.4510   30.8870   34.9590 Cl  0  0  0  0  0  0  0  0  0  0  0  0
   33.9230   30.2750   34.3890 C   0  0  0  0  0  0  0  0  0  0  0  0
   33.8480   29.4810   33.2570 C   0  0  0  0  0  0  0  0  0  0  0  0
   32.6030   29.0510   32.8900 C   0  0  0  0  0  0  0  0  0  0  0  0
   31.4510   29.3580   33.5690 C   0  0  0  0  0  0  0  0  0  0  0  0
   31.5790   30.1690   34.7150 C   0  0  0  0  0  0  0  0  0  0  0  0
   30.1080   30.5510   35.5680 Cl  0  0  0  0  0  0  0  0  0  0  0  0
   32.8090   30.6310   35.1320 C   0  0  0  0  0  0  0  0  0  0  0  0
   32.5540   28.4320   32.0050 H   0  0  0  0  0  0  0  0  0  0  0  0
   30.4840   29.0090   33.2640 H   0  0  0  0  0  0  0  0  0  0  0  0
   32.8810   31.2530   36.0140 H   0  0  0  0  0  0  0  0  0  0  0  0
   37.9290   25.5820   32.5420 C   0  0  0  0  0  0  0  0  0  0  0  0
   37.9100   26.8960   32.9600 C   0  0  0  0  0  0  0  0  0  0  0  0
   38.7490   27.1700   34.0260 C   0  0  0  0  0  0  0  0  0  0  0  0
   38.8180   28.1680   34.4410 H   0  0  0  0  0  0  0  0  0  0  0  0
   39.5620   26.2380   34.6590 C   0  0  0  0  0  0  0  0  0  0  0  0
   40.1970   26.4980   35.4840 H   0  0  0  0  0  0  0  0  0  0  0  0
   39.5420   24.9480   34.2030 C   0  0  0  0  0  3  0  0  0  0  0  0
   38.7210   24.6260   33.1410 C   0  0  0  0  0  3  0  0  0  0  0  0
   36.6200   26.2420   30.3860 H   0  0  0  0  0  0  0  0  0  0  0  0
   36.8880   25.1600   31.1910 S   0  0  0  0  0  0  0  0  0  0  0  0
   37.4500   24.0050   30.4130 O   0  0  0  0  0  0  0  0  0  0  0  0
   35.5380   24.6920   31.6900 O   0  0  0  0  0  0  0  0  0  0  0  0
   34.6790   30.8860   30.8830 N   0  0  0  0  0  0  0  0  0  0  0  0
   34.2750   30.4840   30.0280 H   0  0  0  0  0  0  0  0  0  0  0  0
   34.4900   31.8520   31.2320 H   0  0  0  0  0  0  0  0  0  0  0  0
  1  6  2  0  0  0  0
  1  2  1  0  0  0  0
  2  3  2  0  0  0  0
  3  4  1  0  0  0  0
  3 10  1  0  0  0  0
  5 20  1  0  0  0  0
  5  4  2  0  0  0  0
  6  5  1  0  0  0  0
  7  1  1  0  0  0  0
  9  8  1  0  0  0  0
  9 15  1  0  0  0  0
 10  9  2  0  0  0  0
 11 10  1  0  0  0  0
 11 12  2  0  0  0  0
 12 13  1  0  0  0  0
 13 15  2  0  0  0  0
 13 14  1  0  0  0  0
 15 18  1  0  0  0  0
 16 11  1  0  0  0  0
 17 12  1  0  0  0  0
 19 20  2  0  0  0  0
 19 26  1  0  0  0  0
 20 21  1  0  0  0  0
 21 22  1  0  0  0  0
 21 23  2  0  0  0  0
 23 24  1  0  0  0  0
 25 23  1  0  0  0  0
 26 25  2  0  0  0  0
 27 28  1  0  0  0  0
 28 30  2  0  0  0  0
 28 19  1  0  0  0  0
 29 28  2  0  0  0  0
 31 33  1  0  0  0  0
 31  2  1  0  0  0  0
 32 31  1  0  0  0  0
M  END
>  <minimizedAffinity>
-5.37410688

$$$$
