
 OpenBabel03272502393D

 43 46  0  0  1  0  0  0  0  0999 V2000
   35.8750   30.4290   46.5920 F   0  0  0  0  0  0  0  0  0  0  0  0
   36.1910   30.0180   47.8390 C   0  0  0  0  0  0  0  0  0  0  0  0
   35.3890   29.3080   48.7040 C   0  0  0  0  0  0  0  0  0  0  0  0
   35.9120   28.9470   49.9570 C   0  0  0  0  0  0  0  0  0  0  0  0
   37.1960   29.2890   50.3300 C   0  0  0  0  0  0  0  0  0  0  0  0
   37.9890   30.0090   49.4380 C   0  0  0  0  0  0  0  0  0  0  0  0
   37.4710   30.3710   48.1830 C   0  0  0  0  0  0  0  0  0  0  0  0
   35.1920   28.3940   50.5410 H   0  0  0  0  0  0  0  0  0  0  0  0
   37.5090   28.9690   51.3140 H   0  0  0  0  0  0  0  0  0  0  0  0
   38.9900   30.2630   49.7580 H   0  0  0  0  0  0  0  0  0  0  0  0
   32.0870   27.9110   48.2400 N   0  0  0  0  0  0  0  0  0  0  0  0
   32.6880   27.4380   47.0070 C   0  0  0  0  0  0  0  0  0  0  0  0
   34.0410   28.0850   47.0190 C   0  0  0  0  0  0  0  0  0  0  0  0
   34.0060   29.0880   48.2530 C   0  0  1  0  0  0  0  0  0  0  0  0
   33.1640   28.3120   49.1700 C   0  0  0  0  0  0  0  0  0  0  0  0
   32.0870   27.8700   46.1780 H   0  0  0  0  0  0  0  0  0  0  0  0
   32.7430   26.3410   46.9510 H   0  0  0  0  0  0  0  0  0  0  0  0
   34.8160   27.3590   47.2770 H   0  0  0  0  0  0  0  0  0  0  0  0
   34.2610   28.6720   46.1140 H   0  0  0  0  0  0  0  0  0  0  0  0
   33.6450   29.9960   47.7550 H   0  0  0  0  0  0  0  0  0  0  0  0
   33.6500   27.3810   49.4520 H   0  0  0  0  0  0  0  0  0  0  0  0
   32.7370   28.8760   50.0210 H   0  0  0  0  0  0  0  0  0  0  0  0
   30.7100   28.0030   48.5420 C   0  0  0  0  0  0  0  0  0  0  0  0
   29.8680   28.3080   47.4600 C   0  0  0  0  0  0  0  0  0  0  0  0
   28.4910   28.4260   47.6890 C   0  0  0  0  0  0  0  0  0  0  0  0
   28.0610   28.2280   48.9880 N   0  0  0  0  0  0  0  0  0  0  0  0
   28.8940   27.9410   49.9890 C   0  0  0  0  0  0  0  0  0  0  0  0
   30.2300   27.8260   49.7700 N   0  0  0  0  0  0  0  0  0  0  0  0
   30.1620   28.4680   46.4340 H   0  0  0  0  0  0  0  0  0  0  0  0
   27.7900   28.6590   46.8970 H   0  0  0  0  0  0  0  0  0  0  0  0
   28.4830   27.8000   50.9790 H   0  0  0  0  0  0  0  0  0  0  0  0
   38.9010   32.3690   47.5550 C   0  0  0  0  0  0  0  0  0  0  0  0
   38.3880   31.1210   47.3310 C   0  0  0  0  0  0  0  0  0  0  0  0
   38.7310   30.4210   46.1790 C   0  0  0  0  0  0  0  0  0  0  0  0
   38.3840   29.4310   45.9060 H   0  0  0  0  0  0  0  0  0  0  0  0
   39.5980   31.0030   45.2660 C   0  0  0  0  0  0  0  0  0  0  0  0
   39.8910   30.4770   44.3460 H   0  0  0  0  0  0  0  0  0  0  0  0
   40.1380   32.2710   45.4640 C   0  0  0  0  0  3  0  0  0  0  0  0
   39.7580   32.9210   46.6330 C   0  0  0  0  0  3  0  0  0  0  0  0
   37.0530   33.1840   49.1450 H   0  0  0  0  0  0  0  0  0  0  0  0
   38.4100   33.1530   49.0190 S   0  0  0  0  0  0  0  0  0  0  0  0
   39.0890   32.4960   50.1770 O   0  0  0  0  0  0  0  0  0  0  0  0
   38.9620   34.5680   48.9620 O   0  0  0  0  0  0  0  0  0  0  0  0
  1  2  1  0  0  0  0
  2  7  2  0  0  0  0
  2  3  1  0  0  0  0
  3  4  2  0  0  0  0
  4  5  1  0  0  0  0
  4  8  1  0  0  0  0
  5  9  1  0  0  0  0
  6 10  1  0  0  0  0
  6  5  2  0  0  0  0
  7  6  1  0  0  0  0
 11 23  1  0  0  0  0
 11 15  1  0  0  0  0
 12 13  1  0  0  0  0
 12 11  1  0  0  0  0
 13 18  1  0  0  0  0
 13 14  1  0  0  0  0
 14 20  1  6  0  0  0
 14  3  1  0  0  0  0
 14 15  1  0  0  0  0
 15 21  1  0  0  0  0
 15 22  1  0  0  0  0
 16 12  1  0  0  0  0
 17 12  1  0  0  0  0
 19 13  1  0  0  0  0
 23 28  1  0  0  0  0
 24 25  1  0  0  0  0
 24 23  2  0  0  0  0
 25 26  2  0  0  0  0
 26 27  1  0  0  0  0
 27 31  1  0  0  0  0
 28 27  2  0  0  0  0
 29 24  1  0  0  0  0
 30 25  1  0  0  0  0
 32 41  1  0  0  0  0
 33 32  1  0  0  0  0
 33  7  1  0  0  0  0
 34 33  2  0  0  0  0
 35 34  1  0  0  0  0
 36 38  2  0  0  0  0
 36 34  1  0  0  0  0
 37 36  1  0  0  0  0
 38 39  1  0  0  0  0
 39 32  2  0  0  0  0
 41 40  1  0  0  0  0
 41 42  2  0  0  0  0
 43 41  2  0  0  0  0
M  END
>  <minimizedAffinity>
-7.3602581

>  <minimizedRMSD>
3.5290637

$$$$
