
     RDKit          3D

 46 49  0  0  0  0  0  0  0  0999 V2000
   39.4778   32.6852   46.2089 C   0  0  0  0  0  0  0  0  0  0  0  0
   40.4279   31.8325   45.6567 C   0  0  0  0  0  0  0  0  0  0  0  0
   40.0289   30.5637   45.2692 C   0  0  0  0  0  0  0  0  0  0  0  0
   38.7336   30.2009   45.4423 N   0  0  0  0  0  0  0  0  0  0  0  0
   37.8357   30.9955   45.9607 C   0  0  0  0  0  0  0  0  0  0  0  0
   38.2703   32.1779   46.3054 N   0  0  0  0  0  0  0  0  0  0  0  0
   36.4979   30.5815   46.1175 N   0  0  0  0  0  0  0  0  0  0  0  0
   35.6751   30.1398   44.9860 C   0  0  0  0  0  0  0  0  0  0  0  0
   34.4114   29.6915   45.5824 C   0  0  0  0  0  0  0  0  0  0  0  0
   34.7268   29.5194   47.0690 C   0  0  0  0  0  0  0  0  0  0  0  0
   35.6960   30.5639   47.3504 C   0  0  1  0  0  0  0  0  0  0  0  0
   36.2998   29.4802   49.5538 C   0  0  0  0  0  0  0  0  0  0  0  0
   36.4049   30.5049   48.5957 C   0  0  0  0  0  0  0  0  0  0  0  0
   37.3779   31.4292   48.9456 C   0  0  0  0  0  0  0  0  0  0  0  0
   38.1676   31.3750   50.0802 C   0  0  0  0  0  0  0  0  0  0  0  0
   37.9919   30.3074   50.9812 C   0  0  0  0  0  0  0  0  0  0  0  0
   37.0392   29.3389   50.7169 C   0  0  0  0  0  0  0  0  0  0  0  0
   34.4256   27.7465   49.2602 N   0  0  0  0  0  0  0  0  0  0  0  0
   35.2477   28.5081   49.3779 C   0  0  0  0  0  0  0  0  0  0  0  0
   39.7268   33.6772   46.5266 H   0  0  0  0  0  0  0  0  0  0  0  0
   41.4576   32.1441   45.5289 H   0  0  0  0  0  0  0  0  0  0  0  0
   40.7867   29.9097   44.8378 H   0  0  0  0  0  0  0  0  0  0  0  0
   35.4994   31.0151   44.3270 H   0  0  0  0  0  0  0  0  0  0  0  0
   36.2489   29.3756   44.4319 H   0  0  0  0  0  0  0  0  0  0  0  0
   34.0515   28.7752   45.0934 H   0  0  0  0  0  0  0  0  0  0  0  0
   33.6021   30.4422   45.4017 H   0  0  0  0  0  0  0  0  0  0  0  0
   33.7432   29.5881   47.4676 H   0  0  0  0  0  0  0  0  0  0  0  0
   35.2739   28.5712   46.9445 H   0  0  0  0  0  0  0  0  0  0  0  0
   35.2834   31.6171   47.2635 H   0  0  0  0  0  0  0  0  0  0  0  0
   37.6273   32.3475   48.4744 H   0  0  0  0  0  0  0  0  0  0  0  0
   38.9271   32.0311   50.4139 H   0  0  0  0  0  0  0  0  0  0  0  0
   38.5579   30.1777   51.8914 H   0  0  0  0  0  0  0  0  0  0  0  0
   39.3853   29.6120   52.8587 H   0  0  0  0  0  0  0  0  0  0  0  0
   39.4009   28.3304   52.3687 S   0  0  0  0  0  0  0  0  0  0  0  0
   40.3213   27.5393   53.2806 O   0  0  0  0  0  0  0  0  0  0  0  0
   39.9680   28.3368   50.9839 O   0  0  0  0  0  0  0  0  0  0  0  0
   37.7998   27.6796   52.4390 C   0  0  0  0  0  0  0  0  0  0  0  0
   36.8502   28.2354   51.6408 C   0  0  0  0  0  0  0  0  0  0  0  0
   35.5566   27.7549   51.6573 C   0  0  0  0  0  0  0  0  0  0  0  0
   34.7372   28.1505   51.0434 H   0  0  0  0  0  0  0  0  0  0  0  0
   35.1708   26.7076   52.4684 C   0  0  0  0  0  0  0  0  0  0  0  0
   34.1422   26.3197   52.4868 H   0  0  0  0  0  0  0  0  0  0  0  0
   36.1149   26.1297   53.2845 C   0  0  0  0  0  0  0  0  0  0  0  0
   37.4123   26.6341   53.2481 C   0  0  0  0  0  0  0  0  0  0  0  0
   35.8509   25.3096   53.9319 H   0  0  0  0  0  0  0  0  0  0  0  0
   38.1514   26.1810   53.8876 H   0  0  0  0  0  0  0  0  0  0  0  0
  1  6  2  0
  2  1  1  0
  3  4  1  0
  3  2  2  0
  4  5  2  0
  5  7  1  0
  5  6  1  0
  7 11  1  0
  8  9  1  0
  8  7  1  0
  9 10  1  0
 10 11  1  0
 11 13  1  0
 12 17  2  0
 13 14  2  0
 13 12  1  0
 14 15  1  0
 15 16  2  0
 17 16  1  0
 18 19  3  0
 19 12  1  0
  1 20  1  0
  2 21  1  0
  3 22  1  0
  8 23  1  0
  8 24  1  0
  9 25  1  0
  9 26  1  0
 10 27  1  0
 10 28  1  0
 11 29  1  1
 14 30  1  0
 15 31  1  0
 16 32  1  0
 33 34  1  0
 34 35  2  0
 34 36  2  0
 34 37  1  0
 37 38  2  0
 38 39  1  0
 39 40  1  0
 39 41  2  0
 41 42  1  0
 41 43  1  0
 43 44  2  0
 44 37  1  0
 43 45  1  0
 44 46  1  0
 17 38  1  0
M  ISO  8  20  14  21  14  22  14  23  13  24  13  25  13  26  13  27  13
M  ISO  8  28  13  29  13  30  14  31  14  32  14  33  12  40  15  42  16
M  END
>  <DihAtoms>  (1) 
11,16,37,36

>  <DihDeg>  (1) 
89.9992527745047

$$$$
