
 OpenBabel03272507553D

 26 27  0  0  0  0  0  0  0  0999 V2000
   35.4210   29.4390   50.6110 C   0  0  0  0  0  0  0  0  0  0  0  0
   36.2110   30.0770   49.6090 C   0  0  0  0  0  0  0  0  0  0  0  0
   36.0850   29.6630   48.2860 C   0  0  0  0  0  0  0  0  0  0  0  0
   35.1930   28.6490   48.0270 N   0  0  0  0  0  0  0  0  0  0  0  0
   34.4550   28.0600   48.9940 C   0  0  0  0  0  0  0  0  0  0  0  0
   34.5610   28.4460   50.2830 N   0  0  0  0  0  0  0  0  0  0  0  0
   33.6150   27.0320   48.5010 N   0  0  0  0  0  0  0  0  0  0  0  0
   35.5310   29.7680   51.6250 H   0  0  0  0  0  0  0  0  0  0  0  0
   33.9920   26.0810   48.7010 H   0  0  0  0  0  0  0  0  0  0  0  0
   32.7200   27.0210   47.9980 H   0  0  0  0  0  0  0  0  0  0  0  0
   36.2500   30.5140   45.9710 C   0  0  0  0  0  0  0  0  0  0  0  0
   36.8100   30.2590   47.2030 C   0  0  0  0  0  0  0  0  0  0  0  0
   38.1520   30.5040   47.4090 C   0  0  0  0  0  0  0  0  0  0  0  0
   38.7480   30.3320   48.3190 H   0  0  0  0  0  0  0  0  0  0  0  0
   38.9750   31.0090   46.3890 C   0  0  0  0  0  0  0  0  0  0  0  0
   40.0340   31.2090   46.5090 H   0  0  0  0  0  0  0  0  0  0  0  0
   38.3510   31.2420   45.1800 C   0  0  0  0  0  3  0  0  0  0  0  0
   37.0130   31.0220   44.9040 C   0  0  0  0  0  3  0  0  0  0  0  0
   34.1300   31.0220   44.5380 H   0  0  0  0  0  0  0  0  0  0  0  0
   34.5560   30.2780   45.6220 S   0  0  0  0  0  0  0  0  0  0  0  0
   33.7220   30.7480   46.8000 O   0  0  0  0  0  0  0  0  0  0  0  0
   34.2020   28.8620   45.3730 O   0  0  0  0  0  0  0  0  0  0  0  0
   37.1270   31.1780   50.0320 C   0  0  0  0  0  0  0  0  0  0  0  0
   38.4370   30.8540   49.8070 F   0  0  0  0  0  0  0  0  0  0  0  0
   36.8010   32.3100   49.2900 F   0  0  0  0  0  0  0  0  0  0  0  0
   37.0000   31.5040   51.3740 F   0  0  0  0  0  0  0  0  0  0  0  0
  1  8  1  0  0  0  0
  2 23  1  0  0  0  0
  2  1  2  0  0  0  0
  3  2  1  0  0  0  0
  4  3  2  0  0  0  0
  4  5  1  0  0  0  0
  5  6  2  0  0  0  0
  6  1  1  0  0  0  0
  7  9  1  0  0  0  0
  7  5  1  0  0  0  0
 10  7  1  0  0  0  0
 11 12  1  0  0  0  0
 12 13  2  0  0  0  0
 12  3  1  0  0  0  0
 13 14  1  0  0  0  0
 15 16  1  0  0  0  0
 15 13  1  0  0  0  0
 17 15  2  0  0  0  0
 18 17  1  0  0  0  0
 18 11  2  0  0  0  0
 19 20  1  0  0  0  0
 20 11  1  0  0  0  0
 20 21  2  0  0  0  0
 22 20  2  0  0  0  0
 23 26  1  0  0  0  0
 24 23  1  0  0  0  0
 25 23  1  0  0  0  0
M  END
>  <minimizedAffinity>
-4.55209351

>  <minimizedRMSD>
1.5612576

$$$$
