
 OpenBabel03272509483D

 28 29  0  0  0  0  0  0  0  0999 V2000
   38.1070   27.3380   35.7160 C   0  0  0  0  0  0  0  0  0  0  0  0
   38.4310   28.3910   35.9030 H   0  0  0  0  0  0  0  0  0  0  0  0
   37.7270   26.9790   36.6910 H   0  0  0  0  0  0  0  0  0  0  0  0
   39.1270   25.1870   35.7160 C   0  0  0  0  0  0  0  0  0  0  0  0
   39.2790   26.5220   35.3200 C   0  0  0  0  0  0  0  0  0  0  0  0
   40.4180   26.9040   34.6530 C   0  0  0  0  0  0  0  0  0  0  0  0
   40.4330   27.9520   34.3960 H   0  0  0  0  0  0  0  0  0  0  0  0
   41.4080   25.9910   34.3710 C   0  0  0  0  0  0  0  0  0  0  0  0
   42.2920   26.3580   33.8360 H   0  0  0  0  0  0  0  0  0  0  0  0
   41.3020   24.6670   34.7400 C   0  0  0  0  0  3  0  0  0  0  0  0
   40.1430   24.2750   35.4200 C   0  0  0  0  0  3  0  0  0  0  0  0
   36.6130   25.0720   36.3410 H   0  0  0  0  0  0  0  0  0  0  0  0
   37.8080   24.4460   36.5630 S   0  0  0  0  0  0  0  0  0  0  0  0
   37.6730   22.9680   36.2680 O   0  0  0  0  0  0  0  0  0  0  0  0
   38.0780   24.6200   38.0490 O   0  0  0  0  0  0  0  0  0  0  0  0
   37.0230   27.3250   34.6780 C   0  0  0  0  0  0  0  0  0  0  0  0
   36.3040   26.5150   34.9990 H   0  0  0  0  0  0  0  0  0  0  0  0
   36.4350   28.2510   34.7150 H   0  0  0  0  0  0  0  0  0  0  0  0
   37.5490   27.0110   33.4070 O   0  0  0  0  0  0  0  0  0  0  0  0
   36.5460   23.8760   31.9180 C   0  0  0  0  0  0  0  0  0  0  0  0
   35.5480   24.3390   31.0340 C   0  0  0  0  0  0  0  0  0  0  0  0
   35.2780   25.7040   31.0010 C   0  0  0  0  0  0  0  0  0  0  0  0
   36.0040   26.5110   31.8350 N   0  0  0  0  0  0  0  0  0  0  0  0
   36.9470   26.0250   32.6610 C   0  0  0  0  0  0  0  0  0  0  0  0
   37.2150   24.7000   32.6990 N   0  0  0  0  0  0  0  0  0  0  0  0
   36.7800   22.8310   31.9680 H   0  0  0  0  0  0  0  0  0  0  0  0
   35.0000   23.6550   30.3940 H   0  0  0  0  0  0  0  0  0  0  0  0
   34.5250   26.1260   30.3480 H   0  0  0  0  0  0  0  0  0  0  0  0
  1  2  1  0  0  0  0
  1  3  1  0  0  0  0
  4 13  1  0  0  0  0
  5  4  2  0  0  0  0
  5  1  1  0  0  0  0
  6  5  1  0  0  0  0
  7  6  1  0  0  0  0
  8  6  2  0  0  0  0
  8 10  1  0  0  0  0
  9  8  1  0  0  0  0
 10 11  2  0  0  0  0
 11  4  1  0  0  0  0
 12 13  1  0  0  0  0
 13 15  2  0  0  0  0
 14 13  2  0  0  0  0
 16 18  1  0  0  0  0
 16 17  1  0  0  0  0
 16  1  1  0  0  0  0
 19 16  1  0  0  0  0
 20 26  1  0  0  0  0
 20 25  1  0  0  0  0
 21 20  2  0  0  0  0
 22 21  1  0  0  0  0
 22 23  2  0  0  0  0
 23 24  1  0  0  0  0
 24 25  2  0  0  0  0
 24 19  1  0  0  0  0
 27 21  1  0  0  0  0
 28 22  1  0  0  0  0
M  END
>  <minimizedAffinity>
-4.66910362

$$$$

 OpenBabel03272509483D

 28 29  0  0  0  0  0  0  0  0999 V2000
   39.8110   24.5070   34.6260 C   0  0  0  0  0  0  0  0  0  0  0  0
   39.9520   23.5500   34.0650 H   0  0  0  0  0  0  0  0  0  0  0  0
   40.8270   24.9350   34.7160 H   0  0  0  0  0  0  0  0  0  0  0  0
   40.0610   23.2480   36.6300 C   0  0  0  0  0  0  0  0  0  0  0  0
   39.2840   24.2140   35.9790 C   0  0  0  0  0  0  0  0  0  0  0  0
   38.1940   24.7500   36.6210 C   0  0  0  0  0  0  0  0  0  0  0  0
   37.6650   25.4830   36.0310 H   0  0  0  0  0  0  0  0  0  0  0  0
   37.8590   24.3480   37.8940 C   0  0  0  0  0  0  0  0  0  0  0  0
   36.9770   24.8130   38.3520 H   0  0  0  0  0  0  0  0  0  0  0  0
   38.5940   23.4010   38.5740 C   0  0  0  0  0  3  0  0  0  0  0  0
   39.7050   22.8540   37.9230 C   0  0  0  0  0  3  0  0  0  0  0  0
   41.3500   21.9940   34.7630 H   0  0  0  0  0  0  0  0  0  0  0  0
   41.4710   22.4170   36.0570 S   0  0  0  0  0  0  0  0  0  0  0  0
   42.7390   23.2270   36.2150 O   0  0  0  0  0  0  0  0  0  0  0  0
   41.6040   21.1460   36.8800 O   0  0  0  0  0  0  0  0  0  0  0  0
   38.9110   25.4170   33.8440 C   0  0  0  0  0  0  0  0  0  0  0  0
   37.9210   25.4070   34.3870 H   0  0  0  0  0  0  0  0  0  0  0  0
   39.2550   26.4570   33.9080 H   0  0  0  0  0  0  0  0  0  0  0  0
   38.7310   24.9380   32.5290 O   0  0  0  0  0  0  0  0  0  0  0  0
   35.4890   23.9040   31.3180 C   0  0  0  0  0  0  0  0  0  0  0  0
   34.9660   25.1570   30.9310 C   0  0  0  0  0  0  0  0  0  0  0  0
   35.7620   26.2850   31.1090 C   0  0  0  0  0  0  0  0  0  0  0  0
   37.0040   26.1030   31.6510 N   0  0  0  0  0  0  0  0  0  0  0  0
   37.4600   24.8880   32.0050 C   0  0  0  0  0  0  0  0  0  0  0  0
   36.6950   23.7860   31.8360 N   0  0  0  0  0  0  0  0  0  0  0  0
   34.9040   23.0140   31.1940 H   0  0  0  0  0  0  0  0  0  0  0  0
   33.9720   25.2470   30.5050 H   0  0  0  0  0  0  0  0  0  0  0  0
   35.4230   27.2770   30.8350 H   0  0  0  0  0  0  0  0  0  0  0  0
  1  3  1  0  0  0  0
  1  5  1  0  0  0  0
  2  1  1  0  0  0  0
  4 11  1  0  0  0  0
  5  6  1  0  0  0  0
  5  4  2  0  0  0  0
  6  8  2  0  0  0  0
  7  6  1  0  0  0  0
  8  9  1  0  0  0  0
  8 10  1  0  0  0  0
 11 10  2  0  0  0  0
 12 13  1  0  0  0  0
 13 14  2  0  0  0  0
 13  4  1  0  0  0  0
 13 15  2  0  0  0  0
 16 18  1  0  0  0  0
 16 17  1  0  0  0  0
 16  1  1  0  0  0  0
 19 16  1  0  0  0  0
 20 25  1  0  0  0  0
 21 22  1  0  0  0  0
 21 20  2  0  0  0  0
 22 23  2  0  0  0  0
 23 24  1  0  0  0  0
 24 19  1  0  0  0  0
 25 24  2  0  0  0  0
 26 20  1  0  0  0  0
 27 21  1  0  0  0  0
 28 22  1  0  0  0  0
M  END
>  <minimizedAffinity>
-4.54106283

$$$$

 OpenBabel03272509483D

 28 29  0  0  0  0  0  0  0  0999 V2000
   38.5750   24.1090   33.3670 C   0  0  0  0  0  0  0  0  0  0  0  0
   39.6510   23.9210   33.6090 H   0  0  0  0  0  0  0  0  0  0  0  0
   38.5400   24.1800   32.2640 H   0  0  0  0  0  0  0  0  0  0  0  0
   37.2680   26.0800   33.1080 C   0  0  0  0  0  0  0  0  0  0  0  0
   38.1550   25.4030   33.9530 C   0  0  0  0  0  0  0  0  0  0  0  0
   38.5140   25.9710   35.1510 C   0  0  0  0  0  0  0  0  0  0  0  0
   39.2020   25.3670   35.7240 H   0  0  0  0  0  0  0  0  0  0  0  0
   38.0120   27.1960   35.5280 C   0  0  0  0  0  0  0  0  0  0  0  0
   38.3370   27.5960   36.4970 H   0  0  0  0  0  0  0  0  0  0  0  0
   37.1360   27.8990   34.7290 C   0  0  0  0  0  3  0  0  0  0  0  0
   36.7680   27.3220   33.5080 C   0  0  0  0  0  3  0  0  0  0  0  0
   37.6280   25.0980   30.7360 H   0  0  0  0  0  0  0  0  0  0  0  0
   36.6570   25.5980   31.5580 S   0  0  0  0  0  0  0  0  0  0  0  0
   35.5110   24.6140   31.6550 O   0  0  0  0  0  0  0  0  0  0  0  0
   36.1570   26.8550   30.8650 O   0  0  0  0  0  0  0  0  0  0  0  0
   37.7440   22.9600   33.8590 C   0  0  0  0  0  0  0  0  0  0  0  0
   36.9270   23.4220   34.4860 H   0  0  0  0  0  0  0  0  0  0  0  0
   37.2180   22.4740   33.0280 H   0  0  0  0  0  0  0  0  0  0  0  0
   38.5150   22.0890   34.6580 O   0  0  0  0  0  0  0  0  0  0  0  0
   40.0930   22.7600   37.8370 C   0  0  0  0  0  0  0  0  0  0  0  0
   38.9820   23.2440   38.5600 C   0  0  0  0  0  0  0  0  0  0  0  0
   37.7520   23.3110   37.9100 C   0  0  0  0  0  0  0  0  0  0  0  0
   37.7040   22.9000   36.6060 N   0  0  0  0  0  0  0  0  0  0  0  0
   38.7920   22.4460   35.9570 C   0  0  0  0  0  0  0  0  0  0  0  0
   39.9890   22.3770   36.5800 N   0  0  0  0  0  0  0  0  0  0  0  0
   41.0550   22.6950   38.3070 H   0  0  0  0  0  0  0  0  0  0  0  0
   39.0740   23.5590   39.5940 H   0  0  0  0  0  0  0  0  0  0  0  0
   36.8600   23.6720   38.4040 H   0  0  0  0  0  0  0  0  0  0  0  0
  1  2  1  0  0  0  0
  1 16  1  0  0  0  0
  1  5  1  0  0  0  0
  3  1  1  0  0  0  0
  4 11  2  0  0  0  0
  4  5  1  0  0  0  0
  5  6  2  0  0  0  0
  6  8  1  0  0  0  0
  6  7  1  0  0  0  0
  8  9  1  0  0  0  0
 10  8  2  0  0  0  0
 11 10  1  0  0  0  0
 12 13  1  0  0  0  0
 13 14  2  0  0  0  0
 13  4  1  0  0  0  0
 15 13  2  0  0  0  0
 16 17  1  0  0  0  0
 16 19  1  0  0  0  0
 18 16  1  0  0  0  0
 19 24  1  0  0  0  0
 20 26  1  0  0  0  0
 20 21  1  0  0  0  0
 21 27  1  0  0  0  0
 22 28  1  0  0  0  0
 22 21  2  0  0  0  0
 23 22  1  0  0  0  0
 24 25  1  0  0  0  0
 24 23  2  0  0  0  0
 25 20  2  0  0  0  0
M  END
>  <minimizedAffinity>
-4.53314209

$$$$

 OpenBabel03272509483D

 28 29  0  0  0  0  0  0  0  0999 V2000
   38.2370   24.0900   33.4070 C   0  0  0  0  0  0  0  0  0  0  0  0
   38.0470   24.5750   34.3970 H   0  0  0  0  0  0  0  0  0  0  0  0
   39.1430   24.5900   33.0160 H   0  0  0  0  0  0  0  0  0  0  0  0
   36.8720   25.7350   32.3620 C   0  0  0  0  0  0  0  0  0  0  0  0
   37.1000   24.3600   32.4970 C   0  0  0  0  0  0  0  0  0  0  0  0
   36.3020   23.4730   31.8180 C   0  0  0  0  0  0  0  0  0  0  0  0
   36.5620   22.4400   31.9930 H   0  0  0  0  0  0  0  0  0  0  0  0
   35.2830   23.9200   31.0070 C   0  0  0  0  0  0  0  0  0  0  0  0
   34.6820   23.1610   30.4920 H   0  0  0  0  0  0  0  0  0  0  0  0
   35.0210   25.2630   30.8430 C   0  0  0  0  0  3  0  0  0  0  0  0
   35.8330   26.1700   31.5340 C   0  0  0  0  0  3  0  0  0  0  0  0
   38.0520   26.8160   34.4020 H   0  0  0  0  0  0  0  0  0  0  0  0
   37.7180   27.0580   33.0980 S   0  0  0  0  0  0  0  0  0  0  0  0
   38.9480   27.4760   32.3240 O   0  0  0  0  0  0  0  0  0  0  0  0
   36.7540   28.2320   33.1460 O   0  0  0  0  0  0  0  0  0  0  0  0
   38.4770   22.6220   33.6070 C   0  0  0  0  0  0  0  0  0  0  0  0
   38.0200   22.1140   32.7080 H   0  0  0  0  0  0  0  0  0  0  0  0
   39.5470   22.3890   33.5470 H   0  0  0  0  0  0  0  0  0  0  0  0
   37.8390   22.1650   34.7800 O   0  0  0  0  0  0  0  0  0  0  0  0
   40.0160   22.6910   37.6150 C   0  0  0  0  0  0  0  0  0  0  0  0
   39.1030   23.2820   38.5130 C   0  0  0  0  0  0  0  0  0  0  0  0
   37.7890   23.4660   38.0900 C   0  0  0  0  0  0  0  0  0  0  0  0
   37.4700   23.0580   36.8240 N   0  0  0  0  0  0  0  0  0  0  0  0
   38.3760   22.4980   36.0020 C   0  0  0  0  0  0  0  0  0  0  0  0
   39.6540   22.3150   36.4050 N   0  0  0  0  0  0  0  0  0  0  0  0
   41.0360   22.5340   37.9080 H   0  0  0  0  0  0  0  0  0  0  0  0
   39.4070   23.5900   39.5080 H   0  0  0  0  0  0  0  0  0  0  0  0
   37.0370   23.9150   38.7270 H   0  0  0  0  0  0  0  0  0  0  0  0
  1 16  1  0  0  0  0
  1  2  1  0  0  0  0
  3  1  1  0  0  0  0
  4  5  1  0  0  0  0
  4 13  1  0  0  0  0
  5  1  1  0  0  0  0
  6  7  1  0  0  0  0
  6  5  2  0  0  0  0
  8  6  1  0  0  0  0
  9  8  1  0  0  0  0
 10  8  2  0  0  0  0
 10 11  1  0  0  0  0
 11  4  2  0  0  0  0
 13 15  2  0  0  0  0
 13 12  1  0  0  0  0
 14 13  2  0  0  0  0
 16 19  1  0  0  0  0
 17 16  1  0  0  0  0
 18 16  1  0  0  0  0
 19 24  1  0  0  0  0
 20 26  1  0  0  0  0
 20 21  1  0  0  0  0
 21 27  1  0  0  0  0
 22 21  2  0  0  0  0
 22 28  1  0  0  0  0
 23 22  1  0  0  0  0
 24 25  1  0  0  0  0
 24 23  2  0  0  0  0
 25 20  2  0  0  0  0
M  END
>  <minimizedAffinity>
-4.53217411

$$$$

 OpenBabel03272509483D

 28 29  0  0  0  0  0  0  0  0999 V2000
   36.2720   27.8760   32.7360 C   0  0  0  0  0  0  0  0  0  0  0  0
   35.4290   27.1590   32.8940 H   0  0  0  0  0  0  0  0  0  0  0  0
   36.6100   27.6950   31.6990 H   0  0  0  0  0  0  0  0  0  0  0  0
   38.5530   27.2400   32.9790 C   0  0  0  0  0  0  0  0  0  0  0  0
   37.3770   27.5550   33.6700 C   0  0  0  0  0  0  0  0  0  0  0  0
   37.3740   27.5350   35.0440 C   0  0  0  0  0  0  0  0  0  0  0  0
   36.4190   27.7920   35.4760 H   0  0  0  0  0  0  0  0  0  0  0  0
   38.5130   27.2100   35.7450 C   0  0  0  0  0  0  0  0  0  0  0  0
   38.4460   27.2120   36.8400 H   0  0  0  0  0  0  0  0  0  0  0  0
   39.6940   26.8930   35.1080 C   0  0  0  0  0  3  0  0  0  0  0  0
   39.6990   26.9130   33.7080 C   0  0  0  0  0  3  0  0  0  0  0  0
   37.8640   27.8380   30.5520 H   0  0  0  0  0  0  0  0  0  0  0  0
   38.8290   27.1870   31.2670 S   0  0  0  0  0  0  0  0  0  0  0  0
   40.1950   27.7040   30.8730 O   0  0  0  0  0  0  0  0  0  0  0  0
   38.7230   25.7310   30.8440 O   0  0  0  0  0  0  0  0  0  0  0  0
   35.7710   29.2810   32.9020 C   0  0  0  0  0  0  0  0  0  0  0  0
   36.6020   29.8410   33.4240 H   0  0  0  0  0  0  0  0  0  0  0  0
   35.6680   29.7770   31.9290 H   0  0  0  0  0  0  0  0  0  0  0  0
   34.6090   29.3080   33.7030 O   0  0  0  0  0  0  0  0  0  0  0  0
   33.5500   31.3850   36.4630 C   0  0  0  0  0  0  0  0  0  0  0  0
   34.7750   32.0130   36.7750 C   0  0  0  0  0  0  0  0  0  0  0  0
   35.8950   31.6850   36.0160 C   0  0  0  0  0  0  0  0  0  0  0  0
   35.7320   30.7690   35.0120 N   0  0  0  0  0  0  0  0  0  0  0  0
   34.5440   30.1960   34.7510 C   0  0  0  0  0  0  0  0  0  0  0  0
   33.4510   30.5090   35.4830 N   0  0  0  0  0  0  0  0  0  0  0  0
   32.6680   31.6140   37.0260 H   0  0  0  0  0  0  0  0  0  0  0  0
   34.8510   32.7320   37.5830 H   0  0  0  0  0  0  0  0  0  0  0  0
   36.8660   32.1270   36.2020 H   0  0  0  0  0  0  0  0  0  0  0  0
  1  2  1  0  0  0  0
  1 16  1  0  0  0  0
  1  5  1  0  0  0  0
  3  1  1  0  0  0  0
  4  5  2  0  0  0  0
  4 11  1  0  0  0  0
  5  6  1  0  0  0  0
  6  7  1  0  0  0  0
  6  8  2  0  0  0  0
  8  9  1  0  0  0  0
 10  8  1  0  0  0  0
 11 10  2  0  0  0  0
 12 13  1  0  0  0  0
 13  4  1  0  0  0  0
 14 13  2  0  0  0  0
 15 13  2  0  0  0  0
 16 17  1  0  0  0  0
 16 19  1  0  0  0  0
 18 16  1  0  0  0  0
 19 24  1  0  0  0  0
 20 21  1  0  0  0  0
 20 26  1  0  0  0  0
 21 27  1  0  0  0  0
 22 28  1  0  0  0  0
 22 21  2  0  0  0  0
 23 22  1  0  0  0  0
 24 23  2  0  0  0  0
 24 25  1  0  0  0  0
 25 20  2  0  0  0  0
M  END
>  <minimizedAffinity>
-4.51253223

$$$$

 OpenBabel03272509483D

 28 29  0  0  0  0  0  0  0  0999 V2000
   35.3790   29.8030   33.7530 C   0  0  0  0  0  0  0  0  0  0  0  0
   35.9960   30.4280   33.0610 H   0  0  0  0  0  0  0  0  0  0  0  0
   34.4800   29.5350   33.1680 H   0  0  0  0  0  0  0  0  0  0  0  0
   33.5970   30.5150   35.1600 C   0  0  0  0  0  0  0  0  0  0  0  0
   34.9740   30.6150   34.9240 C   0  0  0  0  0  0  0  0  0  0  0  0
   35.7460   31.3980   35.7470 C   0  0  0  0  0  0  0  0  0  0  0  0
   36.7910   31.4050   35.4770 H   0  0  0  0  0  0  0  0  0  0  0  0
   35.1820   32.0840   36.7990 C   0  0  0  0  0  0  0  0  0  0  0  0
   35.8520   32.6920   37.4180 H   0  0  0  0  0  0  0  0  0  0  0  0
   33.8320   32.0160   37.0700 C   0  0  0  0  0  3  0  0  0  0  0  0
   33.0430   31.2190   36.2330 C   0  0  0  0  0  3  0  0  0  0  0  0
   32.9110   28.9970   33.1730 H   0  0  0  0  0  0  0  0  0  0  0  0
   32.4040   29.6100   34.2850 S   0  0  0  0  0  0  0  0  0  0  0  0
   31.6850   28.5950   35.1460 O   0  0  0  0  0  0  0  0  0  0  0  0
   31.3840   30.6070   33.7600 O   0  0  0  0  0  0  0  0  0  0  0  0
   36.1520   28.5780   34.1440 C   0  0  0  0  0  0  0  0  0  0  0  0
   36.8480   28.9070   34.9700 H   0  0  0  0  0  0  0  0  0  0  0  0
   35.4950   27.8340   34.6130 H   0  0  0  0  0  0  0  0  0  0  0  0
   36.9080   28.0920   33.0560 O   0  0  0  0  0  0  0  0  0  0  0  0
   35.2760   25.6850   30.9130 C   0  0  0  0  0  0  0  0  0  0  0  0
   35.9090   24.5030   31.3540 C   0  0  0  0  0  0  0  0  0  0  0  0
   36.8620   24.6040   32.3640 C   0  0  0  0  0  0  0  0  0  0  0  0
   37.1220   25.8500   32.8650 N   0  0  0  0  0  0  0  0  0  0  0  0
   36.4920   26.9500   32.4130 C   0  0  0  0  0  0  0  0  0  0  0  0
   35.5660   26.8610   31.4330 N   0  0  0  0  0  0  0  0  0  0  0  0
   34.5370   25.6440   30.1380 H   0  0  0  0  0  0  0  0  0  0  0  0
   35.6670   23.5380   30.9220 H   0  0  0  0  0  0  0  0  0  0  0  0
   37.3870   23.7380   32.7480 H   0  0  0  0  0  0  0  0  0  0  0  0
  1 16  1  0  0  0  0
  1  5  1  0  0  0  0
  2  1  1  0  0  0  0
  3  1  1  0  0  0  0
  4 11  1  0  0  0  0
  5  4  2  0  0  0  0
  5  6  1  0  0  0  0
  6  8  2  0  0  0  0
  7  6  1  0  0  0  0
  8 10  1  0  0  0  0
  8  9  1  0  0  0  0
 11 10  2  0  0  0  0
 12 13  1  0  0  0  0
 13 14  2  0  0  0  0
 13  4  1  0  0  0  0
 15 13  2  0  0  0  0
 16 18  1  0  0  0  0
 16 17  1  0  0  0  0
 19 16  1  0  0  0  0
 20 21  2  0  0  0  0
 20 25  1  0  0  0  0
 21 22  1  0  0  0  0
 22 28  1  0  0  0  0
 22 23  2  0  0  0  0
 24 23  1  0  0  0  0
 24 19  1  0  0  0  0
 25 24  2  0  0  0  0
 26 20  1  0  0  0  0
 27 21  1  0  0  0  0
M  END
>  <minimizedAffinity>
-4.50522423

$$$$

 OpenBabel03272509483D

 28 29  0  0  0  0  0  0  0  0999 V2000
   39.3370   24.1800   34.4610 C   0  0  0  0  0  0  0  0  0  0  0  0
   40.0030   23.3490   34.1180 H   0  0  0  0  0  0  0  0  0  0  0  0
   39.9440   25.0970   34.3440 H   0  0  0  0  0  0  0  0  0  0  0  0
   39.9250   23.1360   36.5180 C   0  0  0  0  0  0  0  0  0  0  0  0
   39.0100   23.9920   35.8940 C   0  0  0  0  0  0  0  0  0  0  0  0
   37.9800   24.5300   36.6260 C   0  0  0  0  0  0  0  0  0  0  0  0
   37.3330   25.1750   36.0500 H   0  0  0  0  0  0  0  0  0  0  0  0
   37.8390   24.2370   37.9640 C   0  0  0  0  0  0  0  0  0  0  0  0
   36.9960   24.6980   38.4930 H   0  0  0  0  0  0  0  0  0  0  0  0
   38.7160   23.4000   38.6200 C   0  0  0  0  0  3  0  0  0  0  0  0
   39.7660   22.8510   37.8760 C   0  0  0  0  0  3  0  0  0  0  0  0
   41.0270   21.7330   34.6360 H   0  0  0  0  0  0  0  0  0  0  0  0
   41.3000   22.3280   35.8360 S   0  0  0  0  0  0  0  0  0  0  0  0
   42.5070   23.2300   35.6970 O   0  0  0  0  0  0  0  0  0  0  0  0
   41.6560   21.1860   36.7740 O   0  0  0  0  0  0  0  0  0  0  0  0
   38.1140   24.2300   33.5940 C   0  0  0  0  0  0  0  0  0  0  0  0
   37.2370   24.1200   34.2980 H   0  0  0  0  0  0  0  0  0  0  0  0
   37.9910   25.2240   33.1480 H   0  0  0  0  0  0  0  0  0  0  0  0
   38.1100   23.1650   32.6680 O   0  0  0  0  0  0  0  0  0  0  0  0
   35.7300   20.6490   33.6940 C   0  0  0  0  0  0  0  0  0  0  0  0
   35.0290   20.4730   32.4820 C   0  0  0  0  0  0  0  0  0  0  0  0
   35.4170   21.2310   31.3810 C   0  0  0  0  0  0  0  0  0  0  0  0
   36.4590   22.1020   31.5490 N   0  0  0  0  0  0  0  0  0  0  0  0
   37.0980   22.2360   32.7250 C   0  0  0  0  0  0  0  0  0  0  0  0
   36.7280   21.5030   33.7990 N   0  0  0  0  0  0  0  0  0  0  0  0
   35.4580   20.0800   34.5620 H   0  0  0  0  0  0  0  0  0  0  0  0
   34.2070   19.7690   32.4010 H   0  0  0  0  0  0  0  0  0  0  0  0
   34.9220   21.1480   30.4210 H   0  0  0  0  0  0  0  0  0  0  0  0
  1  5  1  0  0  0  0
  2  1  1  0  0  0  0
  3  1  1  0  0  0  0
  4 11  1  0  0  0  0
  5  4  2  0  0  0  0
  5  6  1  0  0  0  0
  6  8  2  0  0  0  0
  7  6  1  0  0  0  0
  8  9  1  0  0  0  0
  8 10  1  0  0  0  0
 11 10  2  0  0  0  0
 12 13  1  0  0  0  0
 13  4  1  0  0  0  0
 13 15  2  0  0  0  0
 14 13  2  0  0  0  0
 16 17  1  0  0  0  0
 16  1  1  0  0  0  0
 18 16  1  0  0  0  0
 19 24  1  0  0  0  0
 19 16  1  0  0  0  0
 20 25  1  0  0  0  0
 20 26  1  0  0  0  0
 21 20  2  0  0  0  0
 22 23  2  0  0  0  0
 22 21  1  0  0  0  0
 23 24  1  0  0  0  0
 24 25  2  0  0  0  0
 27 21  1  0  0  0  0
 28 22  1  0  0  0  0
M  END
>  <minimizedAffinity>
-4.49349403

$$$$

 OpenBabel03272509483D

 28 29  0  0  0  0  0  0  0  0999 V2000
   38.1600   27.4990   35.4070 C   0  0  0  0  0  0  0  0  0  0  0  0
   38.9490   28.1120   34.9060 H   0  0  0  0  0  0  0  0  0  0  0  0
   37.9790   28.0050   36.3750 H   0  0  0  0  0  0  0  0  0  0  0  0
   39.8800   25.9130   34.9760 C   0  0  0  0  0  0  0  0  0  0  0  0
   38.6790   26.1350   35.6600 C   0  0  0  0  0  0  0  0  0  0  0  0
   38.1500   25.1350   36.4390 C   0  0  0  0  0  0  0  0  0  0  0  0
   37.2230   25.4100   36.9200 H   0  0  0  0  0  0  0  0  0  0  0  0
   38.7860   23.9200   36.5530 C   0  0  0  0  0  0  0  0  0  0  0  0
   38.3120   23.1630   37.1900 H   0  0  0  0  0  0  0  0  0  0  0  0
   39.9700   23.6560   35.8980 C   0  0  0  0  0  3  0  0  0  0  0  0
   40.5120   24.6730   35.1040 C   0  0  0  0  0  3  0  0  0  0  0  0
   40.3880   28.2960   34.0900 H   0  0  0  0  0  0  0  0  0  0  0  0
   40.7570   26.9890   33.9360 S   0  0  0  0  0  0  0  0  0  0  0  0
   42.2570   26.8590   34.0810 O   0  0  0  0  0  0  0  0  0  0  0  0
   40.3770   26.6350   32.5070 O   0  0  0  0  0  0  0  0  0  0  0  0
   36.9190   27.4940   34.5630 C   0  0  0  0  0  0  0  0  0  0  0  0
   36.3350   26.5820   34.8850 H   0  0  0  0  0  0  0  0  0  0  0  0
   36.2720   28.3440   34.8140 H   0  0  0  0  0  0  0  0  0  0  0  0
   37.2440   27.3850   33.1940 O   0  0  0  0  0  0  0  0  0  0  0  0
   35.1340   25.5690   30.8920 C   0  0  0  0  0  0  0  0  0  0  0  0
   35.6220   24.2610   31.0990 C   0  0  0  0  0  0  0  0  0  0  0  0
   36.6500   24.0800   32.0210 C   0  0  0  0  0  0  0  0  0  0  0  0
   37.1210   25.1910   32.6670 N   0  0  0  0  0  0  0  0  0  0  0  0
   36.6240   26.4190   32.4370 C   0  0  0  0  0  0  0  0  0  0  0  0
   35.6250   26.6040   31.5440 N   0  0  0  0  0  0  0  0  0  0  0  0
   34.3420   25.7440   30.1910 H   0  0  0  0  0  0  0  0  0  0  0  0
   35.2130   23.4140   30.5590 H   0  0  0  0  0  0  0  0  0  0  0  0
   37.0720   23.1050   32.2280 H   0  0  0  0  0  0  0  0  0  0  0  0
  1  5  1  0  0  0  0
  1  3  1  0  0  0  0
  2  1  1  0  0  0  0
  4 11  2  0  0  0  0
  4  5  1  0  0  0  0
  5  6  2  0  0  0  0
  6  8  1  0  0  0  0
  6  7  1  0  0  0  0
  8  9  1  0  0  0  0
 10  8  2  0  0  0  0
 11 10  1  0  0  0  0
 13 14  2  0  0  0  0
 13 12  1  0  0  0  0
 13  4  1  0  0  0  0
 15 13  2  0  0  0  0
 16 18  1  0  0  0  0
 16 17  1  0  0  0  0
 16  1  1  0  0  0  0
 19 16  1  0  0  0  0
 20 21  2  0  0  0  0
 20 25  1  0  0  0  0
 21 22  1  0  0  0  0
 22 28  1  0  0  0  0
 22 23  2  0  0  0  0
 24 23  1  0  0  0  0
 24 19  1  0  0  0  0
 25 24  2  0  0  0  0
 26 20  1  0  0  0  0
 27 21  1  0  0  0  0
M  END
>  <minimizedAffinity>
-4.46111059

$$$$

 OpenBabel03272509483D

 28 29  0  0  0  0  0  0  0  0999 V2000
   40.2620   23.3230   35.2460 C   0  0  0  0  0  0  0  0  0  0  0  0
   39.9500   22.8260   36.1980 H   0  0  0  0  0  0  0  0  0  0  0  0
   41.3670   23.3530   35.2900 H   0  0  0  0  0  0  0  0  0  0  0  0
   38.8350   24.9330   36.2630 C   0  0  0  0  0  0  0  0  0  0  0  0
   39.7370   24.7080   35.2160 C   0  0  0  0  0  0  0  0  0  0  0  0
   40.0190   25.7250   34.3370 C   0  0  0  0  0  0  0  0  0  0  0  0
   40.7250   25.4450   33.5690 H   0  0  0  0  0  0  0  0  0  0  0  0
   39.4270   26.9590   34.4740 C   0  0  0  0  0  0  0  0  0  0  0  0
   39.6940   27.7290   33.7400 H   0  0  0  0  0  0  0  0  0  0  0  0
   38.5330   27.2270   35.4890 C   0  0  0  0  0  3  0  0  0  0  0  0
   38.2440   26.1930   36.3870 C   0  0  0  0  0  3  0  0  0  0  0  0
   39.2200   22.8600   37.7720 H   0  0  0  0  0  0  0  0  0  0  0  0
   38.3040   23.8370   37.4980 S   0  0  0  0  0  0  0  0  0  0  0  0
   37.9050   24.5390   38.7780 O   0  0  0  0  0  0  0  0  0  0  0  0
   37.0910   23.1030   36.9510 O   0  0  0  0  0  0  0  0  0  0  0  0
   39.7920   22.5060   34.0780 C   0  0  0  0  0  0  0  0  0  0  0  0
   39.6110   23.2440   33.2430 H   0  0  0  0  0  0  0  0  0  0  0  0
   40.5940   21.8550   33.7080 H   0  0  0  0  0  0  0  0  0  0  0  0
   38.5870   21.8380   34.3860 O   0  0  0  0  0  0  0  0  0  0  0  0
   35.5570   21.3410   32.4830 C   0  0  0  0  0  0  0  0  0  0  0  0
   35.5470   22.5340   31.7300 C   0  0  0  0  0  0  0  0  0  0  0  0
   36.5860   23.4420   31.9210 C   0  0  0  0  0  0  0  0  0  0  0  0
   37.5520   23.1130   32.8320 N   0  0  0  0  0  0  0  0  0  0  0  0
   37.5190   21.9620   33.5280 C   0  0  0  0  0  0  0  0  0  0  0  0
   36.5150   21.0750   33.3480 N   0  0  0  0  0  0  0  0  0  0  0  0
   34.7730   20.6200   32.3610 H   0  0  0  0  0  0  0  0  0  0  0  0
   34.7550   22.7480   31.0200 H   0  0  0  0  0  0  0  0  0  0  0  0
   36.6400   24.3770   31.3780 H   0  0  0  0  0  0  0  0  0  0  0  0
  1  3  1  0  0  0  0
  1  2  1  0  0  0  0
  4 11  1  0  0  0  0
  4 13  1  0  0  0  0
  5  1  1  0  0  0  0
  5  4  2  0  0  0  0
  6  8  2  0  0  0  0
  6  5  1  0  0  0  0
  7  6  1  0  0  0  0
  8 10  1  0  0  0  0
  9  8  1  0  0  0  0
 10 11  2  0  0  0  0
 13 12  1  0  0  0  0
 13 14  2  0  0  0  0
 15 13  2  0  0  0  0
 16 19  1  0  0  0  0
 16  1  1  0  0  0  0
 17 16  1  0  0  0  0
 18 16  1  0  0  0  0
 20 25  1  0  0  0  0
 21 22  1  0  0  0  0
 21 20  2  0  0  0  0
 22 23  2  0  0  0  0
 23 24  1  0  0  0  0
 24 19  1  0  0  0  0
 25 24  2  0  0  0  0
 26 20  1  0  0  0  0
 27 21  1  0  0  0  0
 28 22  1  0  0  0  0
M  END
>  <minimizedAffinity>
-4.39880133

$$$$
