
 OpenBabel03272500213D

 40 42  0  0  0  0  0  0  0  0999 V2000
   35.4860   29.2430   50.4140 C   0  0  0  0  0  0  0  0  0  0  0  0
   36.3480   30.1250   49.7190 C   0  0  0  0  0  0  0  0  0  0  0  0
   36.2460   30.2320   48.3330 C   0  0  0  0  0  0  0  0  0  0  0  0
   35.2960   29.4620   47.7070 N   0  0  0  0  0  0  0  0  0  0  0  0
   34.4980   28.6420   48.3660 C   0  0  0  0  0  0  0  0  0  0  0  0
   34.5740   28.5170   49.7170 N   0  0  0  0  0  0  0  0  0  0  0  0
   35.5860   29.1790   51.4880 H   0  0  0  0  0  0  0  0  0  0  0  0
   32.6470   30.2190   46.5680 Cl  0  0  0  0  0  0  0  0  0  0  0  0
   32.5930   28.4690   46.7640 C   0  0  0  0  0  0  0  0  0  0  0  0
   33.5040   27.8490   47.6280 C   0  0  0  0  0  0  0  0  0  0  0  0
   33.5060   26.4720   47.8210 C   0  0  0  0  0  0  0  0  0  0  0  0
   32.5510   25.7420   47.1080 C   0  0  0  0  0  0  0  0  0  0  0  0
   31.6520   26.3380   46.2580 C   0  0  0  0  0  0  0  0  0  0  0  0
   30.5090   25.3090   45.4270 Cl  0  0  0  0  0  0  0  0  0  0  0  0
   31.6840   27.7120   46.0960 C   0  0  0  0  0  0  0  0  0  0  0  0
   34.2130   26.0070   48.4880 H   0  0  0  0  0  0  0  0  0  0  0  0
   32.6060   24.6740   47.3030 H   0  0  0  0  0  0  0  0  0  0  0  0
   30.7150   28.3640   45.1790 C   0  0  0  0  0  0  0  0  0  0  0  0
   29.6750   27.4790   44.8550 F   0  0  0  0  0  0  0  0  0  0  0  0
   31.3080   28.8510   44.0530 F   0  0  0  0  0  0  0  0  0  0  0  0
   30.1210   29.4310   45.8110 F   0  0  0  0  0  0  0  0  0  0  0  0
   37.3360   30.9060   50.5320 C   0  0  0  0  0  0  0  0  0  0  0  0
   38.6070   30.8140   49.9870 F   0  0  0  0  0  0  0  0  0  0  0  0
   36.9680   32.2390   50.4680 F   0  0  0  0  0  0  0  0  0  0  0  0
   37.3610   30.5470   51.8510 F   0  0  0  0  0  0  0  0  0  0  0  0
   37.1350   31.1390   47.6190 C   0  0  0  0  0  0  0  0  0  0  0  0
   38.1880   31.1680   47.9940 H   0  0  0  0  0  0  0  0  0  0  0  0
   36.7710   32.1760   47.7910 H   0  0  0  0  0  0  0  0  0  0  0  0
   38.4430   31.0560   45.5090 C   0  0  0  0  0  0  0  0  0  0  0  0
   37.2510   30.8440   46.1720 C   0  0  0  0  0  0  0  0  0  0  0  0
   36.1210   30.3520   45.5220 C   0  0  0  0  0  0  0  0  0  0  0  0
   35.2040   30.2040   46.0920 H   0  0  0  0  0  0  0  0  0  0  0  0
   36.1510   30.0560   44.1830 C   0  0  0  0  0  0  0  0  0  0  0  0
   35.2450   29.6760   43.7310 H   0  0  0  0  0  0  0  0  0  0  0  0
   37.3250   30.2520   43.4800 C   0  0  0  0  0  0  0  0  0  0  0  0
   38.4230   30.7410   44.1590 C   0  0  0  0  0  0  0  0  0  0  0  0
   40.0710   31.0690   47.5230 H   0  0  0  0  0  0  0  0  0  0  0  0
   39.8490   31.6610   46.2840 S   0  0  0  0  0  0  0  0  0  0  0  0
   41.0600   31.2100   45.4710 O   0  0  0  0  0  0  0  0  0  0  0  0
   39.9670   33.1340   46.3630 O   0  0  0  0  0  0  0  0  0  0  0  0
  1  7  1  0  0  0  0
  2  1  1  0  0  0  0
  2 22  1  0  0  0  0
  3  2  2  0  0  0  0
  4  3  1  0  0  0  0
  4  5  2  0  0  0  0
  5  6  1  0  0  0  0
  6  1  2  0  0  0  0
  8  9  1  0  0  0  0
  9 10  1  0  0  0  0
 10 11  2  0  0  0  0
 10  5  1  0  0  0  0
 11 16  1  0  0  0  0
 12 17  1  0  0  0  0
 12 11  1  0  0  0  0
 13 12  2  0  0  0  0
 14 13  1  0  0  0  0
 15 13  1  0  0  0  0
 15  9  2  0  0  0  0
 18 21  1  0  0  0  0
 18 15  1  0  0  0  0
 19 18  1  0  0  0  0
 20 18  1  0  0  0  0
 22 25  1  0  0  0  0
 23 22  1  0  0  0  0
 24 22  1  0  0  0  0
 26 28  1  0  0  0  0
 26 27  1  0  0  0  0
 26  3  1  0  0  0  0
 29 30  1  0  0  0  0
 29 38  1  0  0  0  0
 30 26  1  0  0  0  0
 31 32  1  0  0  0  0
 31 30  2  0  0  0  0
 33 31  1  0  0  0  0
 34 33  1  0  0  0  0
 35 36  1  0  0  0  0
 35 33  2  0  0  0  0
 36 29  2  0  0  0  0
 38 40  2  0  0  0  0
 38 37  1  0  0  0  0
 39 38  2  0  0  0  0
M  END
>  <minimizedAffinity>
-6.71012878

>  <minimizedRMSD>
0.49205929

$$$$
