
 OpenBabel03272509593D

 49 52  0  0  0  0  0  0  0  0999 V2000
   38.3610   26.6860   36.0150 C   0  0  0  0  0  0  0  0  0  0  0  0
   37.5540   27.1470   36.6020 H   0  0  0  0  0  0  0  0  0  0  0  0
   39.3080   27.0140   36.5020 H   0  0  0  0  0  0  0  0  0  0  0  0
   38.2700   25.1960   36.0890 C   0  0  0  0  0  0  0  0  0  0  0  0
   37.9420   24.6410   37.3100 C   0  0  0  0  0  0  0  0  0  0  0  0
   37.8390   23.2820   37.4610 C   0  0  0  0  0  0  0  0  0  0  0  0
   38.0570   22.4870   36.4260 N   0  0  0  0  0  0  0  0  0  0  0  0
   38.3830   23.0360   35.2170 C   0  0  0  0  0  0  0  0  0  0  0  0
   38.4840   24.3630   35.0640 N   0  0  0  0  0  0  0  0  0  0  0  0
   37.7620   25.2700   38.1550 H   0  0  0  0  0  0  0  0  0  0  0  0
   37.5800   22.8270   38.4190 H   0  0  0  0  0  0  0  0  0  0  0  0
   38.6130   22.1090   34.0820 C   0  0  0  0  0  0  0  0  0  0  0  0
   39.4560   22.5590   33.4780 H   0  0  0  0  0  0  0  0  0  0  0  0
   39.0750   21.1600   34.4750 H   0  0  0  0  0  0  0  0  0  0  0  0
   37.2260   22.5020   32.0190 C   0  0  0  0  0  0  0  0  0  0  0  0
   37.4390   21.8830   33.2290 C   0  0  0  0  0  0  0  0  0  0  0  0
   36.4710   20.9730   33.6730 C   0  0  0  0  0  0  0  0  0  0  0  0
   36.6230   20.4790   34.6220 H   0  0  0  0  0  0  0  0  0  0  0  0
   35.3270   20.6710   32.9630 C   0  0  0  0  0  0  0  0  0  0  0  0
   34.6070   19.9540   33.3580 H   0  0  0  0  0  0  0  0  0  0  0  0
   35.1000   21.2820   31.7500 C   0  0  0  0  0  3  0  0  0  0  0  0
   36.0580   22.1790   31.3170 C   0  0  0  0  0  3  0  0  0  0  0  0
   39.6370   23.4490   31.9080 H   0  0  0  0  0  0  0  0  0  0  0  0
   38.3690   23.6450   31.3910 S   0  0  0  0  0  0  0  0  0  0  0  0
   37.9220   25.0580   31.4420 O   0  0  0  0  0  0  0  0  0  0  0  0
   38.5240   23.3190   29.9070 O   0  0  0  0  0  0  0  0  0  0  0  0
   38.3970   27.1850   34.5910 C   0  0  0  0  0  0  0  0  0  0  0  0
   38.7790   28.2020   34.5010 H   0  0  0  0  0  0  0  0  0  0  0  0
   39.0680   26.5170   34.0060 H   0  0  0  0  0  0  0  0  0  0  0  0
   37.1190   27.0630   33.9820 O   0  0  0  0  0  0  0  0  0  0  0  0
   35.8630   29.6630   31.8180 C   0  0  0  0  0  0  0  0  0  0  0  0
   35.2600   30.5130   32.7710 C   0  0  0  0  0  0  0  0  0  0  0  0
   35.3270   30.1310   34.1050 C   0  0  0  0  0  0  0  0  0  0  0  0
   35.9770   28.9550   34.3740 N   0  0  0  0  0  0  0  0  0  0  0  0
   36.5400   28.1670   33.4560 C   0  0  0  0  0  0  0  0  0  0  0  0
   36.4760   28.5350   32.1680 N   0  0  0  0  0  0  0  0  0  0  0  0
   35.7980   29.9800   30.7870 H   0  0  0  0  0  0  0  0  0  0  0  0
   34.7500   31.4390   32.5430 H   0  0  0  0  0  0  0  0  0  0  0  0
   36.6810   31.9200   35.9460 F   0  0  0  0  0  0  0  0  0  0  0  0
   35.3760   31.7090   36.0780 C   0  0  0  0  0  0  0  0  0  0  0  0
   34.7670   30.8770   35.2130 C   0  0  0  0  0  0  0  0  0  0  0  0
   33.3900   30.7230   35.4370 C   0  0  0  0  0  0  0  0  0  0  0  0
   32.7390   31.3740   36.4550 C   0  0  0  0  0  0  0  0  0  0  0  0
   33.3950   32.2120   37.3130 C   0  0  0  0  0  0  0  0  0  0  0  0
   34.7240   32.3590   37.0950 C   0  0  0  0  0  0  0  0  0  0  0  0
   32.8050   30.0660   34.7880 H   0  0  0  0  0  0  0  0  0  0  0  0
   31.6670   31.2050   36.5690 H   0  0  0  0  0  0  0  0  0  0  0  0
   32.8310   32.6970   38.0940 H   0  0  0  0  0  0  0  0  0  0  0  0
   35.2850   33.0280   37.7670 H   0  0  0  0  0  0  0  0  0  0  0  0
  1  4  1  0  0  0  0
  1  3  1  0  0  0  0
  1  2  1  0  0  0  0
  4  5  1  0  0  0  0
  5  6  2  0  0  0  0
  5 10  1  0  0  0  0
  6 11  1  0  0  0  0
  7  6  1  0  0  0  0
  8  7  2  0  0  0  0
  9  8  1  0  0  0  0
  9  4  2  0  0  0  0
 12 14  1  0  0  0  0
 12  8  1  0  0  0  0
 13 12  1  0  0  0  0
 15 16  1  0  0  0  0
 16 17  2  0  0  0  0
 16 12  1  0  0  0  0
 17 18  1  0  0  0  0
 19 20  1  0  0  0  0
 19 17  1  0  0  0  0
 21 19  2  0  0  0  0
 22 21  1  0  0  0  0
 22 15  2  0  0  0  0
 24 25  2  0  0  0  0
 24 23  1  0  0  0  0
 24 15  1  0  0  0  0
 26 24  2  0  0  0  0
 27  1  1  0  0  0  0
 28 27  1  0  0  0  0
 29 27  1  0  0  0  0
 30 27  1  0  0  0  0
 31 36  2  0  0  0  0
 31 32  1  0  0  0  0
 32 33  2  0  0  0  0
 33 34  1  0  0  0  0
 33 41  1  0  0  0  0
 35 30  1  0  0  0  0
 35 34  2  0  0  0  0
 36 35  1  0  0  0  0
 37 31  1  0  0  0  0
 38 32  1  0  0  0  0
 39 40  1  0  0  0  0
 40 45  1  0  0  0  0
 41 42  1  0  0  0  0
 41 40  2  0  0  0  0
 42 43  2  0  0  0  0
 43 47  1  0  0  0  0
 43 44  1  0  0  0  0
 44 48  1  0  0  0  0
 45 44  2  0  0  0  0
 45 49  1  0  0  0  0
 46 42  1  0  0  0  0
M  END
>  <minimizedAffinity>
-6.80314112

$$$$

 OpenBabel03272509593D

 49 52  0  0  0  0  0  0  0  0999 V2000
   37.2560   25.3350   31.3210 C   0  0  0  0  0  0  0  0  0  0  0  0
   38.2200   25.8550   31.4040 H   0  0  0  0  0  0  0  0  0  0  0  0
   37.1220   25.1260   30.2350 H   0  0  0  0  0  0  0  0  0  0  0  0
   37.2990   24.0380   32.0620 C   0  0  0  0  0  0  0  0  0  0  0  0
   36.2630   23.1510   31.8470 C   0  0  0  0  0  0  0  0  0  0  0  0
   36.2280   21.9400   32.4890 C   0  0  0  0  0  0  0  0  0  0  0  0
   37.1980   21.6120   33.3270 N   0  0  0  0  0  0  0  0  0  0  0  0
   38.2240   22.4890   33.5400 C   0  0  0  0  0  0  0  0  0  0  0  0
   38.2630   23.6740   32.9150 N   0  0  0  0  0  0  0  0  0  0  0  0
   35.4720   23.4020   31.1730 H   0  0  0  0  0  0  0  0  0  0  0  0
   35.4160   21.2270   32.3310 H   0  0  0  0  0  0  0  0  0  0  0  0
   39.2940   22.0800   34.4820 C   0  0  0  0  0  0  0  0  0  0  0  0
   39.3270   20.9510   34.4470 H   0  0  0  0  0  0  0  0  0  0  0  0
   40.2920   22.3670   34.0460 H   0  0  0  0  0  0  0  0  0  0  0  0
   40.0770   22.5200   36.8330 C   0  0  0  0  0  0  0  0  0  0  0  0
   39.1010   22.5410   35.8640 C   0  0  0  0  0  0  0  0  0  0  0  0
   37.8420   23.0390   36.2190 C   0  0  0  0  0  0  0  0  0  0  0  0
   37.0640   23.0620   35.4700 H   0  0  0  0  0  0  0  0  0  0  0  0
   37.5360   23.5050   37.4820 C   0  0  0  0  0  0  0  0  0  0  0  0
   36.5370   23.8830   37.7020 H   0  0  0  0  0  0  0  0  0  0  0  0
   38.5020   23.4920   38.4630 C   0  0  0  0  0  3  0  0  0  0  0  0
   39.7430   22.9990   38.1060 C   0  0  0  0  0  3  0  0  0  0  0  0
   41.8180   21.5990   35.1470 H   0  0  0  0  0  0  0  0  0  0  0  0
   41.6650   21.9180   36.4850 S   0  0  0  0  0  0  0  0  0  0  0  0
   42.1390   20.8540   37.4040 O   0  0  0  0  0  0  0  0  0  0  0  0
   42.6210   23.0920   36.6920 O   0  0  0  0  0  0  0  0  0  0  0  0
   36.0950   26.1990   31.7530 C   0  0  0  0  0  0  0  0  0  0  0  0
   35.6270   26.7360   30.9270 H   0  0  0  0  0  0  0  0  0  0  0  0
   35.3240   25.5410   32.2110 H   0  0  0  0  0  0  0  0  0  0  0  0
   36.4900   27.0930   32.7850 O   0  0  0  0  0  0  0  0  0  0  0  0
   36.3480   30.4660   31.5130 C   0  0  0  0  0  0  0  0  0  0  0  0
   35.7660   31.1270   32.6160 C   0  0  0  0  0  0  0  0  0  0  0  0
   35.4580   30.3610   33.7330 C   0  0  0  0  0  0  0  0  0  0  0  0
   35.7510   29.0240   33.6600 N   0  0  0  0  0  0  0  0  0  0  0  0
   36.3030   28.4200   32.6040 C   0  0  0  0  0  0  0  0  0  0  0  0
   36.6000   29.1600   31.5260 N   0  0  0  0  0  0  0  0  0  0  0  0
   36.5790   31.0820   30.6550 H   0  0  0  0  0  0  0  0  0  0  0  0
   35.5410   32.1830   32.6590 H   0  0  0  0  0  0  0  0  0  0  0  0
   36.6850   31.9650   35.8170 F   0  0  0  0  0  0  0  0  0  0  0  0
   35.4090   31.6110   35.9290 C   0  0  0  0  0  0  0  0  0  0  0  0
   34.8600   30.8670   34.9510 C   0  0  0  0  0  0  0  0  0  0  0  0
   33.5100   30.5470   35.1630 C   0  0  0  0  0  0  0  0  0  0  0  0
   32.8270   30.9660   36.2780 C   0  0  0  0  0  0  0  0  0  0  0  0
   33.4220   31.7210   37.2500 C   0  0  0  0  0  0  0  0  0  0  0  0
   34.7260   32.0280   37.0420 C   0  0  0  0  0  0  0  0  0  0  0  0
   32.9720   29.9450   34.4260 H   0  0  0  0  0  0  0  0  0  0  0  0
   31.7780   30.6780   36.3760 H   0  0  0  0  0  0  0  0  0  0  0  0
   32.8360   32.0210   38.1030 H   0  0  0  0  0  0  0  0  0  0  0  0
   35.2380   32.6360   37.8050 H   0  0  0  0  0  0  0  0  0  0  0  0
  1  2  1  0  0  0  0
  1 27  1  0  0  0  0
  1  4  1  0  0  0  0
  3  1  1  0  0  0  0
  4  9  1  0  0  0  0
  5  4  2  0  0  0  0
  5  6  1  0  0  0  0
  6  7  2  0  0  0  0
  7  8  1  0  0  0  0
  8 12  1  0  0  0  0
  9  8  2  0  0  0  0
 10  5  1  0  0  0  0
 11  6  1  0  0  0  0
 12 16  1  0  0  0  0
 13 12  1  0  0  0  0
 14 12  1  0  0  0  0
 15 22  1  0  0  0  0
 16 17  1  0  0  0  0
 16 15  2  0  0  0  0
 17 19  2  0  0  0  0
 18 17  1  0  0  0  0
 19 20  1  0  0  0  0
 19 21  1  0  0  0  0
 22 21  2  0  0  0  0
 23 24  1  0  0  0  0
 24 26  2  0  0  0  0
 24 15  1  0  0  0  0
 24 25  2  0  0  0  0
 27 29  1  0  0  0  0
 27 30  1  0  0  0  0
 28 27  1  0  0  0  0
 31 36  2  0  0  0  0
 31 32  1  0  0  0  0
 32 38  1  0  0  0  0
 32 33  2  0  0  0  0
 33 41  1  0  0  0  0
 34 33  1  0  0  0  0
 35 30  1  0  0  0  0
 35 34  2  0  0  0  0
 36 35  1  0  0  0  0
 37 31  1  0  0  0  0
 39 40  1  0  0  0  0
 40 45  1  0  0  0  0
 41 42  1  0  0  0  0
 41 40  2  0  0  0  0
 42 43  2  0  0  0  0
 43 47  1  0  0  0  0
 43 44  1  0  0  0  0
 44 48  1  0  0  0  0
 45 44  2  0  0  0  0
 45 49  1  0  0  0  0
 46 42  1  0  0  0  0
M  END
>  <minimizedAffinity>
-6.75856256

$$$$

 OpenBabel03272509593D

 49 52  0  0  0  0  0  0  0  0999 V2000
   36.1940   22.1590   31.5350 C   0  0  0  0  0  0  0  0  0  0  0  0
   35.8660   21.8480   32.5370 H   0  0  0  0  0  0  0  0  0  0  0  0
   35.4670   21.6980   30.8270 H   0  0  0  0  0  0  0  0  0  0  0  0
   36.1220   23.6460   31.4030 C   0  0  0  0  0  0  0  0  0  0  0  0
   34.9150   24.1890   31.0060 C   0  0  0  0  0  0  0  0  0  0  0  0
   34.7670   25.5440   30.8610 C   0  0  0  0  0  0  0  0  0  0  0  0
   35.7900   26.3470   31.1020 N   0  0  0  0  0  0  0  0  0  0  0  0
   36.9840   25.8100   31.4950 C   0  0  0  0  0  0  0  0  0  0  0  0
   37.1350   24.4870   31.6390 N   0  0  0  0  0  0  0  0  0  0  0  0
   34.0790   23.5530   30.8080 H   0  0  0  0  0  0  0  0  0  0  0  0
   33.8210   25.9890   30.5480 H   0  0  0  0  0  0  0  0  0  0  0  0
   38.1040   26.7460   31.7610 C   0  0  0  0  0  0  0  0  0  0  0  0
   38.9900   26.3460   31.1850 H   0  0  0  0  0  0  0  0  0  0  0  0
   37.8940   27.7210   31.2390 H   0  0  0  0  0  0  0  0  0  0  0  0
   39.6660   26.5710   33.7260 C   0  0  0  0  0  0  0  0  0  0  0  0
   38.4480   26.9020   33.1810 C   0  0  0  0  0  0  0  0  0  0  0  0
   37.4720   27.4250   34.0380 C   0  0  0  0  0  0  0  0  0  0  0  0
   36.5090   27.6900   33.6260 H   0  0  0  0  0  0  0  0  0  0  0  0
   37.6720   27.6230   35.3900 C   0  0  0  0  0  0  0  0  0  0  0  0
   36.8750   28.0340   36.0100 H   0  0  0  0  0  0  0  0  0  0  0  0
   38.8860   27.2970   35.9500 C   0  0  0  0  0  3  0  0  0  0  0  0
   39.8450   26.7810   35.0990 C   0  0  0  0  0  3  0  0  0  0  0  0
   41.4810   26.8630   31.8990 H   0  0  0  0  0  0  0  0  0  0  0  0
   40.9330   25.9130   32.7420 S   0  0  0  0  0  0  0  0  0  0  0  0
   40.5890   24.6430   32.0570 O   0  0  0  0  0  0  0  0  0  0  0  0
   42.0760   25.5670   33.6950 O   0  0  0  0  0  0  0  0  0  0  0  0
   37.5600   21.6210   31.1830 C   0  0  0  0  0  0  0  0  0  0  0  0
   37.5850   21.1060   30.2220 H   0  0  0  0  0  0  0  0  0  0  0  0
   38.2660   22.4790   31.1270 H   0  0  0  0  0  0  0  0  0  0  0  0
   38.0580   20.7900   32.2220 O   0  0  0  0  0  0  0  0  0  0  0  0
   41.3650   21.5770   33.4280 C   0  0  0  0  0  0  0  0  0  0  0  0
   41.0450   22.1830   34.6630 C   0  0  0  0  0  0  0  0  0  0  0  0
   39.7010   22.2810   34.9990 C   0  0  0  0  0  0  0  0  0  0  0  0
   38.8040   21.7760   34.0950 N   0  0  0  0  0  0  0  0  0  0  0  0
   39.1310   21.2060   32.9330 C   0  0  0  0  0  0  0  0  0  0  0  0
   40.4280   21.1120   32.6080 N   0  0  0  0  0  0  0  0  0  0  0  0
   42.4170   21.5110   33.1880 H   0  0  0  0  0  0  0  0  0  0  0  0
   41.7650   22.5770   35.3660 H   0  0  0  0  0  0  0  0  0  0  0  0
   40.6990   21.9780   37.7080 F   0  0  0  0  0  0  0  0  0  0  0  0
   39.6360   22.7430   37.4830 C   0  0  0  0  0  0  0  0  0  0  0  0
   39.1900   22.8710   36.2200 C   0  0  0  0  0  0  0  0  0  0  0  0
   38.0650   23.6980   36.0890 C   0  0  0  0  0  0  0  0  0  0  0  0
   37.4840   24.3160   37.1700 C   0  0  0  0  0  0  0  0  0  0  0  0
   37.9680   24.1600   38.4380 C   0  0  0  0  0  0  0  0  0  0  0  0
   39.0550   23.3600   38.5610 C   0  0  0  0  0  0  0  0  0  0  0  0
   37.6250   23.8660   35.1020 H   0  0  0  0  0  0  0  0  0  0  0  0
   36.6090   24.9450   36.9920 H   0  0  0  0  0  0  0  0  0  0  0  0
   37.4710   24.6700   39.2480 H   0  0  0  0  0  0  0  0  0  0  0  0
   39.4730   23.2120   39.5700 H   0  0  0  0  0  0  0  0  0  0  0  0
  1  2  1  0  0  0  0
  3  1  1  0  0  0  0
  4  1  1  0  0  0  0
  4  9  1  0  0  0  0
  5  4  2  0  0  0  0
  6  5  1  0  0  0  0
  6  7  2  0  0  0  0
  7  8  1  0  0  0  0
  8  9  2  0  0  0  0
  8 12  1  0  0  0  0
 10  5  1  0  0  0  0
 11  6  1  0  0  0  0
 12 16  1  0  0  0  0
 13 12  1  0  0  0  0
 14 12  1  0  0  0  0
 15 22  1  0  0  0  0
 16 15  2  0  0  0  0
 16 17  1  0  0  0  0
 17 19  2  0  0  0  0
 18 17  1  0  0  0  0
 19 21  1  0  0  0  0
 19 20  1  0  0  0  0
 22 21  2  0  0  0  0
 23 24  1  0  0  0  0
 24 26  2  0  0  0  0
 24 15  1  0  0  0  0
 25 24  2  0  0  0  0
 27  1  1  0  0  0  0
 27 30  1  0  0  0  0
 28 27  1  0  0  0  0
 29 27  1  0  0  0  0
 30 35  1  0  0  0  0
 31 32  1  0  0  0  0
 32 33  2  0  0  0  0
 32 38  1  0  0  0  0
 33 41  1  0  0  0  0
 34 33  1  0  0  0  0
 35 34  2  0  0  0  0
 36 35  1  0  0  0  0
 36 31  2  0  0  0  0
 37 31  1  0  0  0  0
 40 39  1  0  0  0  0
 40 45  1  0  0  0  0
 41 40  2  0  0  0  0
 42 41  1  0  0  0  0
 42 43  2  0  0  0  0
 43 44  1  0  0  0  0
 44 45  2  0  0  0  0
 44 48  1  0  0  0  0
 45 49  1  0  0  0  0
 46 42  1  0  0  0  0
 47 43  1  0  0  0  0
M  END
>  <minimizedAffinity>
-6.42801762

$$$$

 OpenBabel03272509593D

 49 52  0  0  0  0  0  0  0  0999 V2000
   36.8830   22.6150   31.0210 C   0  0  0  0  0  0  0  0  0  0  0  0
   35.8520   22.9920   31.0780 H   0  0  0  0  0  0  0  0  0  0  0  0
   36.8700   21.8320   30.2270 H   0  0  0  0  0  0  0  0  0  0  0  0
   37.8140   23.7080   30.6080 C   0  0  0  0  0  0  0  0  0  0  0  0
   38.7490   23.4100   29.6350 C   0  0  0  0  0  0  0  0  0  0  0  0
   39.6400   24.3580   29.2020 C   0  0  0  0  0  0  0  0  0  0  0  0
   39.6100   25.5750   29.7200 N   0  0  0  0  0  0  0  0  0  0  0  0
   38.6840   25.8700   30.6820 C   0  0  0  0  0  0  0  0  0  0  0  0
   37.8110   24.9480   31.1090 N   0  0  0  0  0  0  0  0  0  0  0  0
   38.7860   22.4310   29.2080 H   0  0  0  0  0  0  0  0  0  0  0  0
   40.3850   24.1390   28.4350 H   0  0  0  0  0  0  0  0  0  0  0  0
   38.6810   27.2480   31.2310 C   0  0  0  0  0  0  0  0  0  0  0  0
   39.7150   27.6630   31.0430 H   0  0  0  0  0  0  0  0  0  0  0  0
   38.0340   27.8980   30.5770 H   0  0  0  0  0  0  0  0  0  0  0  0
   37.1270   27.7330   33.1500 C   0  0  0  0  0  0  0  0  0  0  0  0
   38.3490   27.3360   32.6600 C   0  0  0  0  0  0  0  0  0  0  0  0
   39.3400   26.9880   33.5860 C   0  0  0  0  0  0  0  0  0  0  0  0
   40.3050   26.6740   33.2170 H   0  0  0  0  0  0  0  0  0  0  0  0
   39.1510   27.0250   34.9530 C   0  0  0  0  0  0  0  0  0  0  0  0
   39.9600   26.7430   35.6280 H   0  0  0  0  0  0  0  0  0  0  0  0
   37.9340   27.4200   35.4600 C   0  0  0  0  0  3  0  0  0  0  0  0
   36.9600   27.7620   34.5400 C   0  0  0  0  0  3  0  0  0  0  0  0
   36.3140   28.7870   30.9260 H   0  0  0  0  0  0  0  0  0  0  0  0
   35.8410   28.1850   32.0780 S   0  0  0  0  0  0  0  0  0  0  0  0
   34.7320   28.9300   32.7220 O   0  0  0  0  0  0  0  0  0  0  0  0
   35.2220   26.8800   31.5820 O   0  0  0  0  0  0  0  0  0  0  0  0
   37.3230   21.9440   32.2990 C   0  0  0  0  0  0  0  0  0  0  0  0
   37.3940   22.6310   33.1430 H   0  0  0  0  0  0  0  0  0  0  0  0
   36.5730   21.1640   32.5580 H   0  0  0  0  0  0  0  0  0  0  0  0
   38.5440   21.2430   32.1070 O   0  0  0  0  0  0  0  0  0  0  0  0
   41.7040   21.3590   33.8440 C   0  0  0  0  0  0  0  0  0  0  0  0
   41.3000   21.9490   35.0610 C   0  0  0  0  0  0  0  0  0  0  0  0
   39.9560   22.2700   35.2040 C   0  0  0  0  0  0  0  0  0  0  0  0
   39.1410   21.9820   34.1400 N   0  0  0  0  0  0  0  0  0  0  0  0
   39.5460   21.4230   32.9980 C   0  0  0  0  0  0  0  0  0  0  0  0
   40.8430   21.1130   32.8600 N   0  0  0  0  0  0  0  0  0  0  0  0
   42.7540   21.1170   33.7560 H   0  0  0  0  0  0  0  0  0  0  0  0
   41.9560   22.1710   35.8920 H   0  0  0  0  0  0  0  0  0  0  0  0
   40.7840   22.0260   37.9740 F   0  0  0  0  0  0  0  0  0  0  0  0
   39.7320   22.7780   37.6690 C   0  0  0  0  0  0  0  0  0  0  0  0
   39.3660   22.8790   36.3780 C   0  0  0  0  0  0  0  0  0  0  0  0
   38.2460   23.6960   36.1610 C   0  0  0  0  0  0  0  0  0  0  0  0
   37.5940   24.3290   37.1910 C   0  0  0  0  0  0  0  0  0  0  0  0
   37.9990   24.2010   38.4900 C   0  0  0  0  0  0  0  0  0  0  0  0
   39.0810   23.4110   38.6960 C   0  0  0  0  0  0  0  0  0  0  0  0
   37.8680   23.8420   35.1460 H   0  0  0  0  0  0  0  0  0  0  0  0
   36.7290   24.9490   36.9460 H   0  0  0  0  0  0  0  0  0  0  0  0
   37.4490   24.7230   39.2570 H   0  0  0  0  0  0  0  0  0  0  0  0
   39.4360   23.2850   39.7320 H   0  0  0  0  0  0  0  0  0  0  0  0
  1  2  1  0  0  0  0
  1 27  1  0  0  0  0
  3  1  1  0  0  0  0
  4  1  1  0  0  0  0
  4  9  1  0  0  0  0
  5  4  2  0  0  0  0
  6  5  1  0  0  0  0
  6  7  2  0  0  0  0
  7  8  1  0  0  0  0
  8  9  2  0  0  0  0
  8 12  1  0  0  0  0
 10  5  1  0  0  0  0
 11  6  1  0  0  0  0
 12 16  1  0  0  0  0
 13 12  1  0  0  0  0
 14 12  1  0  0  0  0
 15 22  1  0  0  0  0
 16 15  2  0  0  0  0
 16 17  1  0  0  0  0
 17 19  2  0  0  0  0
 18 17  1  0  0  0  0
 19 21  1  0  0  0  0
 19 20  1  0  0  0  0
 22 21  2  0  0  0  0
 23 24  1  0  0  0  0
 24 25  2  0  0  0  0
 24 15  1  0  0  0  0
 26 24  2  0  0  0  0
 27 29  1  0  0  0  0
 27 28  1  0  0  0  0
 30 27  1  0  0  0  0
 30 35  1  0  0  0  0
 31 32  1  0  0  0  0
 32 33  2  0  0  0  0
 32 38  1  0  0  0  0
 33 41  1  0  0  0  0
 34 33  1  0  0  0  0
 35 34  2  0  0  0  0
 36 35  1  0  0  0  0
 36 31  2  0  0  0  0
 37 31  1  0  0  0  0
 40 39  1  0  0  0  0
 40 45  1  0  0  0  0
 41 40  2  0  0  0  0
 42 41  1  0  0  0  0
 42 43  2  0  0  0  0
 43 44  1  0  0  0  0
 44 45  2  0  0  0  0
 44 48  1  0  0  0  0
 45 49  1  0  0  0  0
 46 42  1  0  0  0  0
 47 43  1  0  0  0  0
M  END
>  <minimizedAffinity>
-6.36337137

$$$$

 OpenBabel03272509593D

 49 52  0  0  0  0  0  0  0  0999 V2000
   38.0010   27.0940   35.6870 C   0  0  0  0  0  0  0  0  0  0  0  0
   39.0620   27.2880   35.4740 H   0  0  0  0  0  0  0  0  0  0  0  0
   37.7490   27.7420   36.5580 H   0  0  0  0  0  0  0  0  0  0  0  0
   37.1550   27.4980   34.5230 C   0  0  0  0  0  0  0  0  0  0  0  0
   37.2220   26.7130   33.3890 C   0  0  0  0  0  0  0  0  0  0  0  0
   36.4770   27.0160   32.2780 C   0  0  0  0  0  0  0  0  0  0  0  0
   35.6830   28.0740   32.2870 N   0  0  0  0  0  0  0  0  0  0  0  0
   35.6170   28.8510   33.4100 C   0  0  0  0  0  0  0  0  0  0  0  0
   36.3410   28.5600   34.4980 N   0  0  0  0  0  0  0  0  0  0  0  0
   37.8590   25.8550   33.3660 H   0  0  0  0  0  0  0  0  0  0  0  0
   36.5190   26.4070   31.3730 H   0  0  0  0  0  0  0  0  0  0  0  0
   34.7090   30.0250   33.3800 C   0  0  0  0  0  0  0  0  0  0  0  0
   35.0380   30.6520   32.4990 H   0  0  0  0  0  0  0  0  0  0  0  0
   33.6830   29.6830   33.0670 H   0  0  0  0  0  0  0  0  0  0  0  0
   33.7610   30.7400   35.5990 C   0  0  0  0  0  0  0  0  0  0  0  0
   34.7110   30.8310   34.6090 C   0  0  0  0  0  0  0  0  0  0  0  0
   35.7520   31.7500   34.7880 C   0  0  0  0  0  0  0  0  0  0  0  0
   36.5070   31.8340   34.0190 H   0  0  0  0  0  0  0  0  0  0  0  0
   35.8680   32.5620   35.8980 C   0  0  0  0  0  0  0  0  0  0  0  0
   36.7010   33.2610   35.9850 H   0  0  0  0  0  0  0  0  0  0  0  0
   34.9250   32.4830   36.8980 C   0  0  0  0  0  3  0  0  0  0  0  0
   33.9010   31.5730   36.7150 C   0  0  0  0  0  3  0  0  0  0  0  0
   32.8540   28.3610   35.1130 H   0  0  0  0  0  0  0  0  0  0  0  0
   32.4350   29.6320   35.4610 S   0  0  0  0  0  0  0  0  0  0  0  0
   31.2990   30.1250   34.6430 O   0  0  0  0  0  0  0  0  0  0  0  0
   31.8760   29.4590   36.8720 O   0  0  0  0  0  0  0  0  0  0  0  0
   37.7490   25.6660   36.1070 C   0  0  0  0  0  0  0  0  0  0  0  0
   37.0690   25.5810   36.9560 H   0  0  0  0  0  0  0  0  0  0  0  0
   37.2900   25.1280   35.2480 H   0  0  0  0  0  0  0  0  0  0  0  0
   38.9740   24.9920   36.3630 O   0  0  0  0  0  0  0  0  0  0  0  0
   40.7450   22.4220   34.5550 C   0  0  0  0  0  0  0  0  0  0  0  0
   39.6940   21.8950   33.7730 C   0  0  0  0  0  0  0  0  0  0  0  0
   38.4360   22.4650   33.9210 C   0  0  0  0  0  0  0  0  0  0  0  0
   38.3310   23.4940   34.8210 N   0  0  0  0  0  0  0  0  0  0  0  0
   39.3400   23.9750   35.5510 C   0  0  0  0  0  0  0  0  0  0  0  0
   40.5540   23.4250   35.4070 N   0  0  0  0  0  0  0  0  0  0  0  0
   41.7140   21.9630   34.4220 H   0  0  0  0  0  0  0  0  0  0  0  0
   39.7920   21.0830   33.0660 H   0  0  0  0  0  0  0  0  0  0  0  0
   37.3620   23.5330   31.4460 F   0  0  0  0  0  0  0  0  0  0  0  0
   36.7310   22.5370   32.0580 C   0  0  0  0  0  0  0  0  0  0  0  0
   37.2470   22.0550   33.2040 C   0  0  0  0  0  0  0  0  0  0  0  0
   36.5070   21.0050   33.7700 C   0  0  0  0  0  0  0  0  0  0  0  0
   35.3600   20.5250   33.1880 C   0  0  0  0  0  0  0  0  0  0  0  0
   34.8690   21.0420   32.0220 C   0  0  0  0  0  0  0  0  0  0  0  0
   35.5850   22.0560   31.4780 C   0  0  0  0  0  0  0  0  0  0  0  0
   36.8430   20.5460   34.7030 H   0  0  0  0  0  0  0  0  0  0  0  0
   34.8370   19.7060   33.6860 H   0  0  0  0  0  0  0  0  0  0  0  0
   33.9640   20.6230   31.6110 H   0  0  0  0  0  0  0  0  0  0  0  0
   35.2190   22.4970   30.5370 H   0  0  0  0  0  0  0  0  0  0  0  0
  1 27  1  0  0  0  0
  1  3  1  0  0  0  0
  2  1  1  0  0  0  0
  4  1  1  0  0  0  0
  5  4  2  0  0  0  0
  6  7  2  0  0  0  0
  6  5  1  0  0  0  0
  7  8  1  0  0  0  0
  8  9  2  0  0  0  0
  9  4  1  0  0  0  0
 10  5  1  0  0  0  0
 11  6  1  0  0  0  0
 12  8  1  0  0  0  0
 12 16  1  0  0  0  0
 13 12  1  0  0  0  0
 14 12  1  0  0  0  0
 15 22  1  0  0  0  0
 16 17  1  0  0  0  0
 16 15  2  0  0  0  0
 17 19  2  0  0  0  0
 18 17  1  0  0  0  0
 19 20  1  0  0  0  0
 19 21  1  0  0  0  0
 22 21  2  0  0  0  0
 23 24  1  0  0  0  0
 24 15  1  0  0  0  0
 24 26  2  0  0  0  0
 25 24  2  0  0  0  0
 27 30  1  0  0  0  0
 27 28  1  0  0  0  0
 29 27  1  0  0  0  0
 31 36  1  0  0  0  0
 32 33  1  0  0  0  0
 32 31  2  0  0  0  0
 33 34  2  0  0  0  0
 34 35  1  0  0  0  0
 35 30  1  0  0  0  0
 36 35  2  0  0  0  0
 37 31  1  0  0  0  0
 38 32  1  0  0  0  0
 39 40  1  0  0  0  0
 40 41  1  0  0  0  0
 41 42  2  0  0  0  0
 41 33  1  0  0  0  0
 42 46  1  0  0  0  0
 43 47  1  0  0  0  0
 43 42  1  0  0  0  0
 44 43  2  0  0  0  0
 45 44  1  0  0  0  0
 45 40  2  0  0  0  0
 48 44  1  0  0  0  0
 49 45  1  0  0  0  0
M  END
>  <minimizedAffinity>
-6.31459808

$$$$

 OpenBabel03272509593D

 49 52  0  0  0  0  0  0  0  0999 V2000
   36.1530   23.9600   30.7410 C   0  0  0  0  0  0  0  0  0  0  0  0
   36.9780   24.5350   30.2980 H   0  0  0  0  0  0  0  0  0  0  0  0
   35.8000   23.2770   29.9350 H   0  0  0  0  0  0  0  0  0  0  0  0
   36.6490   23.1400   31.8870 C   0  0  0  0  0  0  0  0  0  0  0  0
   35.9130   22.0230   32.2330 C   0  0  0  0  0  0  0  0  0  0  0  0
   36.3000   21.2190   33.2730 C   0  0  0  0  0  0  0  0  0  0  0  0
   37.3920   21.5120   33.9600 N   0  0  0  0  0  0  0  0  0  0  0  0
   38.1210   22.6170   33.6180 C   0  0  0  0  0  0  0  0  0  0  0  0
   37.7480   23.4060   32.6020 N   0  0  0  0  0  0  0  0  0  0  0  0
   35.0280   21.7740   31.6870 H   0  0  0  0  0  0  0  0  0  0  0  0
   35.7300   20.3330   33.5600 H   0  0  0  0  0  0  0  0  0  0  0  0
   39.3430   22.9050   34.4100 C   0  0  0  0  0  0  0  0  0  0  0  0
   40.0200   22.0110   34.2770 H   0  0  0  0  0  0  0  0  0  0  0  0
   39.9200   23.7260   33.9000 H   0  0  0  0  0  0  0  0  0  0  0  0
   39.9280   22.7290   36.8510 C   0  0  0  0  0  0  0  0  0  0  0  0
   39.1010   23.1540   35.8380 C   0  0  0  0  0  0  0  0  0  0  0  0
   37.9550   23.8760   36.1930 C   0  0  0  0  0  0  0  0  0  0  0  0
   37.2950   24.2170   35.4080 H   0  0  0  0  0  0  0  0  0  0  0  0
   37.6190   24.1780   37.4970 C   0  0  0  0  0  0  0  0  0  0  0  0
   36.7130   24.7440   37.7150 H   0  0  0  0  0  0  0  0  0  0  0  0
   38.4360   23.7600   38.5230 C   0  0  0  0  0  3  0  0  0  0  0  0
   39.5660   23.0480   38.1660 C   0  0  0  0  0  3  0  0  0  0  0  0
   41.2390   21.0640   35.3590 H   0  0  0  0  0  0  0  0  0  0  0  0
   41.3670   21.8260   36.5060 S   0  0  0  0  0  0  0  0  0  0  0  0
   41.9160   21.0720   37.6600 O   0  0  0  0  0  0  0  0  0  0  0  0
   42.4380   22.8540   36.1440 O   0  0  0  0  0  0  0  0  0  0  0  0
   34.9840   24.8330   31.1290 C   0  0  0  0  0  0  0  0  0  0  0  0
   34.0320   24.4770   30.7350 H   0  0  0  0  0  0  0  0  0  0  0  0
   34.9110   24.8420   32.2380 H   0  0  0  0  0  0  0  0  0  0  0  0
   35.2190   26.1850   30.7550 O   0  0  0  0  0  0  0  0  0  0  0  0
   35.3970   28.9330   33.0850 C   0  0  0  0  0  0  0  0  0  0  0  0
   36.6320   28.6540   33.7090 C   0  0  0  0  0  0  0  0  0  0  0  0
   37.3270   27.5300   33.2820 C   0  0  0  0  0  0  0  0  0  0  0  0
   36.7430   26.7900   32.2870 N   0  0  0  0  0  0  0  0  0  0  0  0
   35.5720   27.0730   31.7120 C   0  0  0  0  0  0  0  0  0  0  0  0
   34.9020   28.1580   32.1240 N   0  0  0  0  0  0  0  0  0  0  0  0
   34.8750   29.8130   33.4330 H   0  0  0  0  0  0  0  0  0  0  0  0
   37.0800   29.2490   34.4930 H   0  0  0  0  0  0  0  0  0  0  0  0
   38.2150   27.4500   36.0430 F   0  0  0  0  0  0  0  0  0  0  0  0
   39.0360   27.0480   35.0790 C   0  0  0  0  0  0  0  0  0  0  0  0
   38.6040   27.0920   33.8060 C   0  0  0  0  0  0  0  0  0  0  0  0
   39.5450   26.6460   32.8650 C   0  0  0  0  0  0  0  0  0  0  0  0
   40.7930   26.2050   33.2330 C   0  0  0  0  0  0  0  0  0  0  0  0
   41.1930   26.1760   34.5390 C   0  0  0  0  0  0  0  0  0  0  0  0
   40.2820   26.6080   35.4460 C   0  0  0  0  0  0  0  0  0  0  0  0
   39.2910   26.6430   31.8020 H   0  0  0  0  0  0  0  0  0  0  0  0
   41.4720   25.8730   32.4450 H   0  0  0  0  0  0  0  0  0  0  0  0
   42.1850   25.8190   34.7690 H   0  0  0  0  0  0  0  0  0  0  0  0
   40.5700   26.5980   36.5090 H   0  0  0  0  0  0  0  0  0  0  0  0
  1 27  1  0  0  0  0
  1  4  1  0  0  0  0
  2  1  1  0  0  0  0
  3  1  1  0  0  0  0
  4  5  2  0  0  0  0
  4  9  1  0  0  0  0
  5  6  1  0  0  0  0
  6 11  1  0  0  0  0
  6  7  2  0  0  0  0
  8  7  1  0  0  0  0
  8 12  1  0  0  0  0
  9  8  2  0  0  0  0
 10  5  1  0  0  0  0
 12 16  1  0  0  0  0
 13 12  1  0  0  0  0
 14 12  1  0  0  0  0
 15 22  1  0  0  0  0
 16 17  1  0  0  0  0
 16 15  2  0  0  0  0
 17 19  2  0  0  0  0
 18 17  1  0  0  0  0
 19 20  1  0  0  0  0
 19 21  1  0  0  0  0
 22 21  2  0  0  0  0
 23 24  1  0  0  0  0
 24 15  1  0  0  0  0
 24 25  2  0  0  0  0
 26 24  2  0  0  0  0
 27 29  1  0  0  0  0
 28 27  1  0  0  0  0
 30 27  1  0  0  0  0
 30 35  1  0  0  0  0
 31 37  1  0  0  0  0
 31 32  1  0  0  0  0
 32 38  1  0  0  0  0
 33 32  2  0  0  0  0
 33 41  1  0  0  0  0
 34 33  1  0  0  0  0
 35 36  1  0  0  0  0
 35 34  2  0  0  0  0
 36 31  2  0  0  0  0
 40 45  1  0  0  0  0
 40 39  1  0  0  0  0
 41 40  2  0  0  0  0
 42 43  2  0  0  0  0
 42 41  1  0  0  0  0
 43 44  1  0  0  0  0
 44 48  1  0  0  0  0
 44 45  2  0  0  0  0
 45 49  1  0  0  0  0
 46 42  1  0  0  0  0
 47 43  1  0  0  0  0
M  END
>  <minimizedAffinity>
-6.23423052

$$$$

 OpenBabel03272509593D

 49 52  0  0  0  0  0  0  0  0999 V2000
   35.9460   22.0210   32.4950 C   0  0  0  0  0  0  0  0  0  0  0  0
   35.4440   21.0430   32.5130 H   0  0  0  0  0  0  0  0  0  0  0  0
   35.4660   22.6170   33.3060 H   0  0  0  0  0  0  0  0  0  0  0  0
   37.3990   21.8640   32.8050 C   0  0  0  0  0  0  0  0  0  0  0  0
   38.1240   20.9920   32.0170 C   0  0  0  0  0  0  0  0  0  0  0  0
   39.4620   20.7910   32.2370 C   0  0  0  0  0  0  0  0  0  0  0  0
   40.0720   21.4380   33.2170 N   0  0  0  0  0  0  0  0  0  0  0  0
   39.3550   22.3020   33.9970 C   0  0  0  0  0  0  0  0  0  0  0  0
   38.0470   22.5020   33.7860 N   0  0  0  0  0  0  0  0  0  0  0  0
   37.6450   20.4620   31.2220 H   0  0  0  0  0  0  0  0  0  0  0  0
   40.0500   20.1050   31.6240 H   0  0  0  0  0  0  0  0  0  0  0  0
   40.0790   23.0120   35.0800 C   0  0  0  0  0  0  0  0  0  0  0  0
   39.9370   22.3880   36.0120 H   0  0  0  0  0  0  0  0  0  0  0  0
   41.1860   22.9250   34.8950 H   0  0  0  0  0  0  0  0  0  0  0  0
   38.7930   24.7700   36.3400 C   0  0  0  0  0  0  0  0  0  0  0  0
   39.6280   24.3900   35.3150 C   0  0  0  0  0  0  0  0  0  0  0  0
   40.0810   25.3870   34.4420 C   0  0  0  0  0  0  0  0  0  0  0  0
   40.7370   25.1050   33.6310 H   0  0  0  0  0  0  0  0  0  0  0  0
   39.7320   26.7170   34.5580 C   0  0  0  0  0  0  0  0  0  0  0  0
   40.1150   27.4510   33.8480 H   0  0  0  0  0  0  0  0  0  0  0  0
   38.8970   27.1130   35.5790 C   0  0  0  0  0  3  0  0  0  0  0  0
   38.4540   26.1250   36.4380 C   0  0  0  0  0  3  0  0  0  0  0  0
   39.1800   22.7860   37.9640 H   0  0  0  0  0  0  0  0  0  0  0  0
   38.1800   23.6040   37.4680 S   0  0  0  0  0  0  0  0  0  0  0  0
   36.9850   22.8600   37.0010 O   0  0  0  0  0  0  0  0  0  0  0  0
   37.7170   24.3960   38.6890 O   0  0  0  0  0  0  0  0  0  0  0  0
   35.7160   22.7640   31.2010 C   0  0  0  0  0  0  0  0  0  0  0  0
   36.5430   22.6680   30.4970 H   0  0  0  0  0  0  0  0  0  0  0  0
   34.8070   22.3430   30.7160 H   0  0  0  0  0  0  0  0  0  0  0  0
   35.4120   24.1290   31.4510 O   0  0  0  0  0  0  0  0  0  0  0  0
   38.4940   25.9050   30.8500 C   0  0  0  0  0  0  0  0  0  0  0  0
   38.1750   27.1600   31.4130 C   0  0  0  0  0  0  0  0  0  0  0  0
   36.9100   27.3120   31.9670 C   0  0  0  0  0  0  0  0  0  0  0  0
   36.0830   26.2200   31.9140 N   0  0  0  0  0  0  0  0  0  0  0  0
   36.4060   25.0430   31.3750 C   0  0  0  0  0  0  0  0  0  0  0  0
   37.6270   24.8960   30.8410 N   0  0  0  0  0  0  0  0  0  0  0  0
   39.4840   25.8100   30.4260 H   0  0  0  0  0  0  0  0  0  0  0  0
   38.8400   28.0120   31.4480 H   0  0  0  0  0  0  0  0  0  0  0  0
   36.0430   27.7150   34.7070 F   0  0  0  0  0  0  0  0  0  0  0  0
   36.0050   28.7310   33.8510 C   0  0  0  0  0  0  0  0  0  0  0  0
   36.4120   28.5230   32.5860 C   0  0  0  0  0  0  0  0  0  0  0  0
   36.3340   29.6570   31.7630 C   0  0  0  0  0  0  0  0  0  0  0  0
   35.8780   30.8660   32.2290 C   0  0  0  0  0  0  0  0  0  0  0  0
   35.4730   31.0360   33.5230 C   0  0  0  0  0  0  0  0  0  0  0  0
   35.5500   29.9380   34.3150 C   0  0  0  0  0  0  0  0  0  0  0  0
   36.6410   29.5920   30.7160 H   0  0  0  0  0  0  0  0  0  0  0  0
   35.8440   31.7050   31.5310 H   0  0  0  0  0  0  0  0  0  0  0  0
   35.1250   32.0090   33.8330 H   0  0  0  0  0  0  0  0  0  0  0  0
   35.2320   30.0390   35.3650 H   0  0  0  0  0  0  0  0  0  0  0  0
  1  2  1  0  0  0  0
  1  4  1  0  0  0  0
  1  3  1  0  0  0  0
  4  9  1  0  0  0  0
  5  6  1  0  0  0  0
  5  4  2  0  0  0  0
  6  7  2  0  0  0  0
  7  8  1  0  0  0  0
  8 12  1  0  0  0  0
  9  8  2  0  0  0  0
 10  5  1  0  0  0  0
 11  6  1  0  0  0  0
 12 16  1  0  0  0  0
 12 13  1  0  0  0  0
 14 12  1  0  0  0  0
 15 22  1  0  0  0  0
 15 24  1  0  0  0  0
 16 15  2  0  0  0  0
 17 19  2  0  0  0  0
 17 16  1  0  0  0  0
 18 17  1  0  0  0  0
 19 21  1  0  0  0  0
 20 19  1  0  0  0  0
 21 22  2  0  0  0  0
 24 23  1  0  0  0  0
 24 26  2  0  0  0  0
 25 24  2  0  0  0  0
 27 30  1  0  0  0  0
 27  1  1  0  0  0  0
 28 27  1  0  0  0  0
 29 27  1  0  0  0  0
 31 32  1  0  0  0  0
 32 38  1  0  0  0  0
 32 33  2  0  0  0  0
 33 41  1  0  0  0  0
 34 33  1  0  0  0  0
 35 30  1  0  0  0  0
 35 34  2  0  0  0  0
 36 31  2  0  0  0  0
 36 35  1  0  0  0  0
 37 31  1  0  0  0  0
 40 45  1  0  0  0  0
 40 39  1  0  0  0  0
 41 40  2  0  0  0  0
 42 43  2  0  0  0  0
 42 41  1  0  0  0  0
 43 44  1  0  0  0  0
 44 48  1  0  0  0  0
 44 45  2  0  0  0  0
 45 49  1  0  0  0  0
 46 42  1  0  0  0  0
 47 43  1  0  0  0  0
M  END
>  <minimizedAffinity>
-6.20286036

$$$$

 OpenBabel03272509593D

 49 52  0  0  0  0  0  0  0  0999 V2000
   39.0880   26.5290   35.4570 C   0  0  0  0  0  0  0  0  0  0  0  0
   39.7440   26.7800   36.3020 H   0  0  0  0  0  0  0  0  0  0  0  0
   39.7150   26.6590   34.5440 H   0  0  0  0  0  0  0  0  0  0  0  0
   38.6520   25.1020   35.5440 C   0  0  0  0  0  0  0  0  0  0  0  0
   38.1580   24.6640   36.7570 C   0  0  0  0  0  0  0  0  0  0  0  0
   37.7380   23.3690   36.9200 C   0  0  0  0  0  0  0  0  0  0  0  0
   37.8060   22.5230   35.9060 N   0  0  0  0  0  0  0  0  0  0  0  0
   38.2950   22.9560   34.7050 C   0  0  0  0  0  0  0  0  0  0  0  0
   38.7060   24.2200   34.5390 N   0  0  0  0  0  0  0  0  0  0  0  0
   38.0980   25.3360   37.5870 H   0  0  0  0  0  0  0  0  0  0  0  0
   37.3460   23.0060   37.8720 H   0  0  0  0  0  0  0  0  0  0  0  0
   38.3470   21.9770   33.5910 C   0  0  0  0  0  0  0  0  0  0  0  0
   39.0950   21.1900   33.9020 H   0  0  0  0  0  0  0  0  0  0  0  0
   37.3810   21.4000   33.5690 H   0  0  0  0  0  0  0  0  0  0  0  0
   37.8220   23.0080   31.3560 C   0  0  0  0  0  0  0  0  0  0  0  0
   38.7210   22.5500   32.2900 C   0  0  0  0  0  0  0  0  0  0  0  0
   40.0840   22.6410   31.9810 C   0  0  0  0  0  0  0  0  0  0  0  0
   40.8030   22.2850   32.7040 H   0  0  0  0  0  0  0  0  0  0  0  0
   40.5630   23.1620   30.7960 C   0  0  0  0  0  0  0  0  0  0  0  0
   41.6360   23.2070   30.6090 H   0  0  0  0  0  0  0  0  0  0  0  0
   39.6750   23.6240   29.8510 C   0  0  0  0  0  3  0  0  0  0  0  0
   38.3320   23.5320   30.1620 C   0  0  0  0  0  3  0  0  0  0  0  0
   35.8100   23.1250   32.9870 H   0  0  0  0  0  0  0  0  0  0  0  0
   36.1150   22.9320   31.6510 S   0  0  0  0  0  0  0  0  0  0  0  0
   35.4350   21.7570   31.0540 O   0  0  0  0  0  0  0  0  0  0  0  0
   35.5090   24.1510   30.9580 O   0  0  0  0  0  0  0  0  0  0  0  0
   37.9190   27.4750   35.3330 C   0  0  0  0  0  0  0  0  0  0  0  0
   37.2710   27.4770   36.2100 H   0  0  0  0  0  0  0  0  0  0  0  0
   38.3180   28.5050   35.2040 H   0  0  0  0  0  0  0  0  0  0  0  0
   37.1770   27.2080   34.1500 O   0  0  0  0  0  0  0  0  0  0  0  0
   35.4990   29.4780   31.9040 C   0  0  0  0  0  0  0  0  0  0  0  0
   34.9360   30.3800   32.8330 C   0  0  0  0  0  0  0  0  0  0  0  0
   35.1740   30.1450   34.1810 C   0  0  0  0  0  0  0  0  0  0  0  0
   35.9390   29.0500   34.4860 N   0  0  0  0  0  0  0  0  0  0  0  0
   36.4610   28.2090   33.5900 C   0  0  0  0  0  0  0  0  0  0  0  0
   36.2310   28.4360   32.2890 N   0  0  0  0  0  0  0  0  0  0  0  0
   35.3000   29.6810   30.8610 H   0  0  0  0  0  0  0  0  0  0  0  0
   34.3340   31.2410   32.5760 H   0  0  0  0  0  0  0  0  0  0  0  0
   36.6610   31.9300   35.9200 F   0  0  0  0  0  0  0  0  0  0  0  0
   35.3500   31.7950   36.0860 C   0  0  0  0  0  0  0  0  0  0  0  0
   34.6790   30.9640   35.2680 C   0  0  0  0  0  0  0  0  0  0  0  0
   33.3010   30.8920   35.5260 C   0  0  0  0  0  0  0  0  0  0  0  0
   32.7080   31.6180   36.5300 C   0  0  0  0  0  0  0  0  0  0  0  0
   33.4260   32.4530   37.3390 C   0  0  0  0  0  0  0  0  0  0  0  0
   34.7560   32.5190   37.0890 C   0  0  0  0  0  0  0  0  0  0  0  0
   32.6680   30.2430   34.9160 H   0  0  0  0  0  0  0  0  0  0  0  0
   31.6310   31.5110   36.6710 H   0  0  0  0  0  0  0  0  0  0  0  0
   32.9050   32.9980   38.1110 H   0  0  0  0  0  0  0  0  0  0  0  0
   35.3660   33.1830   37.7220 H   0  0  0  0  0  0  0  0  0  0  0  0
  1  4  1  0  0  0  0
  1  2  1  0  0  0  0
  3  1  1  0  0  0  0
  4  5  1  0  0  0  0
  5  6  2  0  0  0  0
  5 10  1  0  0  0  0
  6 11  1  0  0  0  0
  7  6  1  0  0  0  0
  8  7  2  0  0  0  0
  9  8  1  0  0  0  0
  9  4  2  0  0  0  0
 12 13  1  0  0  0  0
 12  8  1  0  0  0  0
 14 12  1  0  0  0  0
 15 24  1  0  0  0  0
 15 16  1  0  0  0  0
 16 12  1  0  0  0  0
 17 16  2  0  0  0  0
 17 18  1  0  0  0  0
 19 17  1  0  0  0  0
 20 19  1  0  0  0  0
 21 22  1  0  0  0  0
 21 19  2  0  0  0  0
 22 15  2  0  0  0  0
 24 23  1  0  0  0  0
 25 24  2  0  0  0  0
 26 24  2  0  0  0  0
 27  1  1  0  0  0  0
 27 28  1  0  0  0  0
 29 27  1  0  0  0  0
 30 27  1  0  0  0  0
 31 36  2  0  0  0  0
 31 32  1  0  0  0  0
 32 33  2  0  0  0  0
 33 34  1  0  0  0  0
 33 41  1  0  0  0  0
 35 30  1  0  0  0  0
 35 34  2  0  0  0  0
 36 35  1  0  0  0  0
 37 31  1  0  0  0  0
 38 32  1  0  0  0  0
 39 40  1  0  0  0  0
 40 45  1  0  0  0  0
 41 42  1  0  0  0  0
 41 40  2  0  0  0  0
 42 43  2  0  0  0  0
 43 47  1  0  0  0  0
 43 44  1  0  0  0  0
 44 48  1  0  0  0  0
 45 44  2  0  0  0  0
 45 49  1  0  0  0  0
 46 42  1  0  0  0  0
M  END
>  <minimizedAffinity>
-6.19906902

$$$$

 OpenBabel03272509593D

 49 52  0  0  0  0  0  0  0  0999 V2000
   38.3570   26.8800   36.0770 C   0  0  0  0  0  0  0  0  0  0  0  0
   37.8190   27.3190   36.9280 H   0  0  0  0  0  0  0  0  0  0  0  0
   39.4170   27.2020   36.1960 H   0  0  0  0  0  0  0  0  0  0  0  0
   38.2950   25.3880   36.1360 C   0  0  0  0  0  0  0  0  0  0  0  0
   37.9880   24.8150   37.3540 C   0  0  0  0  0  0  0  0  0  0  0  0
   37.9130   23.4530   37.4920 C   0  0  0  0  0  0  0  0  0  0  0  0
   38.1370   22.6730   36.4480 N   0  0  0  0  0  0  0  0  0  0  0  0
   38.4400   23.2400   35.2410 C   0  0  0  0  0  0  0  0  0  0  0  0
   38.5150   24.5700   35.1000 N   0  0  0  0  0  0  0  0  0  0  0  0
   37.8050   25.4320   38.2070 H   0  0  0  0  0  0  0  0  0  0  0  0
   37.6720   22.9830   38.4480 H   0  0  0  0  0  0  0  0  0  0  0  0
   38.6780   22.3290   34.0940 C   0  0  0  0  0  0  0  0  0  0  0  0
   39.5100   22.7980   33.4900 H   0  0  0  0  0  0  0  0  0  0  0  0
   39.1560   21.3830   34.4750 H   0  0  0  0  0  0  0  0  0  0  0  0
   37.2830   22.7060   32.0340 C   0  0  0  0  0  0  0  0  0  0  0  0
   37.5010   22.0940   33.2460 C   0  0  0  0  0  0  0  0  0  0  0  0
   36.5390   21.1830   33.6980 C   0  0  0  0  0  0  0  0  0  0  0  0
   36.6950   20.6940   34.6490 H   0  0  0  0  0  0  0  0  0  0  0  0
   35.3930   20.8730   32.9930 C   0  0  0  0  0  0  0  0  0  0  0  0
   34.6770   20.1560   33.3940 H   0  0  0  0  0  0  0  0  0  0  0  0
   35.1600   21.4770   31.7780 C   0  0  0  0  0  3  0  0  0  0  0  0
   36.1140   22.3750   31.3380 C   0  0  0  0  0  3  0  0  0  0  0  0
   39.7230   23.4000   31.5020 H   0  0  0  0  0  0  0  0  0  0  0  0
   38.4190   23.8500   31.3970 S   0  0  0  0  0  0  0  0  0  0  0  0
   38.2330   25.2400   31.8780 O   0  0  0  0  0  0  0  0  0  0  0  0
   38.1710   23.9020   29.8900 O   0  0  0  0  0  0  0  0  0  0  0  0
   37.8750   27.4190   34.7510 C   0  0  0  0  0  0  0  0  0  0  0  0
   38.3900   28.3300   34.4440 H   0  0  0  0  0  0  0  0  0  0  0  0
   38.0610   26.6450   33.9740 H   0  0  0  0  0  0  0  0  0  0  0  0
   36.4670   27.6070   34.7650 O   0  0  0  0  0  0  0  0  0  0  0  0
   34.5740   30.4470   33.5970 C   0  0  0  0  0  0  0  0  0  0  0  0
   35.1200   30.5980   32.3040 C   0  0  0  0  0  0  0  0  0  0  0  0
   36.1110   29.7050   31.9180 C   0  0  0  0  0  0  0  0  0  0  0  0
   36.4690   28.7520   32.8360 N   0  0  0  0  0  0  0  0  0  0  0  0
   35.9390   28.6290   34.0540 C   0  0  0  0  0  0  0  0  0  0  0  0
   34.9820   29.4910   34.4270 N   0  0  0  0  0  0  0  0  0  0  0  0
   33.8040   31.1540   33.8750 H   0  0  0  0  0  0  0  0  0  0  0  0
   34.8260   31.3560   31.5900 H   0  0  0  0  0  0  0  0  0  0  0  0
   36.6310   27.4680   30.1440 F   0  0  0  0  0  0  0  0  0  0  0  0
   37.0330   28.6860   29.7970 C   0  0  0  0  0  0  0  0  0  0  0  0
   36.7810   29.7100   30.6330 C   0  0  0  0  0  0  0  0  0  0  0  0
   37.2450   30.9520   30.1760 C   0  0  0  0  0  0  0  0  0  0  0  0
   37.8970   31.0910   28.9750 C   0  0  0  0  0  0  0  0  0  0  0  0
   38.1330   30.0250   28.1540 C   0  0  0  0  0  0  0  0  0  0  0  0
   37.6840   28.8260   28.5980 C   0  0  0  0  0  0  0  0  0  0  0  0
   37.0900   31.8470   30.7840 H   0  0  0  0  0  0  0  0  0  0  0  0
   38.2300   32.0890   28.6850 H   0  0  0  0  0  0  0  0  0  0  0  0
   38.6500   30.1940   27.2220 H   0  0  0  0  0  0  0  0  0  0  0  0
   37.8570   27.9430   27.9610 H   0  0  0  0  0  0  0  0  0  0  0  0
  1  4  1  0  0  0  0
  1  3  1  0  0  0  0
  1  2  1  0  0  0  0
  4  5  1  0  0  0  0
  5  6  2  0  0  0  0
  5 10  1  0  0  0  0
  6 11  1  0  0  0  0
  7  6  1  0  0  0  0
  8  7  2  0  0  0  0
  9  8  1  0  0  0  0
  9  4  2  0  0  0  0
 12 14  1  0  0  0  0
 12  8  1  0  0  0  0
 13 12  1  0  0  0  0
 15 16  1  0  0  0  0
 16 17  2  0  0  0  0
 16 12  1  0  0  0  0
 17 18  1  0  0  0  0
 19 20  1  0  0  0  0
 19 17  1  0  0  0  0
 21 19  2  0  0  0  0
 22 21  1  0  0  0  0
 22 15  2  0  0  0  0
 24 23  1  0  0  0  0
 24 25  2  0  0  0  0
 24 15  1  0  0  0  0
 26 24  2  0  0  0  0
 27 30  1  0  0  0  0
 27  1  1  0  0  0  0
 28 27  1  0  0  0  0
 29 27  1  0  0  0  0
 31 37  1  0  0  0  0
 31 36  1  0  0  0  0
 32 31  2  0  0  0  0
 33 32  1  0  0  0  0
 33 34  2  0  0  0  0
 34 35  1  0  0  0  0
 35 36  2  0  0  0  0
 35 30  1  0  0  0  0
 38 32  1  0  0  0  0
 40 39  1  0  0  0  0
 40 41  1  0  0  0  0
 41 33  1  0  0  0  0
 42 41  2  0  0  0  0
 42 46  1  0  0  0  0
 43 42  1  0  0  0  0
 44 45  1  0  0  0  0
 44 43  2  0  0  0  0
 45 40  2  0  0  0  0
 47 43  1  0  0  0  0
 48 44  1  0  0  0  0
 49 45  1  0  0  0  0
M  END
>  <minimizedAffinity>
-6.17505693

$$$$
