
 OpenBabel03272505283D

 34 36  0  0  0  0  0  0  0  0999 V2000
   37.4560   25.2750   32.6870 N   0  0  0  0  0  0  0  0  0  0  0  0
   38.3640   24.9290   33.6400 C   0  0  0  0  0  0  0  0  0  0  0  0
   38.5200   23.6160   34.0620 C   0  0  0  0  0  0  0  0  0  0  0  0
   37.6980   22.6430   33.4630 C   0  0  0  0  0  0  0  0  0  0  0  0
   37.8080   21.4480   33.8170 O   0  0  0  0  0  0  0  0  0  0  0  0
   36.7920   22.9980   32.5100 N   0  0  0  0  0  0  0  0  0  0  0  0
   36.7320   24.2950   32.1850 C   0  0  0  0  0  0  0  0  0  0  0  0
   35.8890   24.5800   31.3100 O   0  0  0  0  0  0  0  0  0  0  0  0
   38.9810   25.7090   34.0790 H   0  0  0  0  0  0  0  0  0  0  0  0
   37.8230   28.4490   30.7930 C   0  0  0  0  0  0  0  0  0  0  0  0
   37.9910   27.1160   31.2010 C   0  0  0  0  0  0  0  0  0  0  0  0
   37.3060   26.6020   32.2730 C   0  0  0  0  0  0  0  0  0  0  0  0
   36.4510   27.4380   32.9340 N   0  0  0  0  0  0  0  0  0  0  0  0
   36.2710   28.7370   32.5570 C   0  0  0  0  0  0  0  0  0  0  0  0
   36.9630   29.2290   31.4850 N   0  0  0  0  0  0  0  0  0  0  0  0
   38.3240   28.9090   29.9700 H   0  0  0  0  0  0  0  0  0  0  0  0
   38.7070   26.6190   30.5730 H   0  0  0  0  0  0  0  0  0  0  0  0
   35.5770   29.3660   33.1170 H   0  0  0  0  0  0  0  0  0  0  0  0
   39.2730   23.1960   36.4470 C   0  0  0  0  0  0  0  0  0  0  0  0
   39.4940   23.2500   35.0850 C   0  0  0  0  0  0  0  0  0  0  0  0
   40.7600   22.9300   34.5900 C   0  0  0  0  0  0  0  0  0  0  0  0
   41.0450   22.9370   33.5470 H   0  0  0  0  0  0  0  0  0  0  0  0
   41.7770   22.5660   35.4380 C   0  0  0  0  0  0  0  0  0  0  0  0
   42.7770   22.3080   35.1010 H   0  0  0  0  0  0  0  0  0  0  0  0
   41.5630   22.5110   36.8020 C   0  0  0  0  0  3  0  0  0  0  0  0
   40.3080   22.8280   37.2970 C   0  0  0  0  0  3  0  0  0  0  0  0
   37.1110   24.5560   36.1480 H   0  0  0  0  0  0  0  0  0  0  0  0
   37.6730   23.6080   36.9910 S   0  0  0  0  0  0  0  0  0  0  0  0
   36.8010   22.4000   36.9210 O   0  0  0  0  0  0  0  0  0  0  0  0
   37.6700   24.2150   38.3610 O   0  0  0  0  0  0  0  0  0  0  0  0
   35.9460   21.9970   31.8890 C   0  0  0  0  0  0  0  0  0  0  0  0
   36.6950   20.9380   31.4920 F   0  0  0  0  0  0  0  0  0  0  0  0
   35.3060   22.4660   30.7510 F   0  0  0  0  0  0  0  0  0  0  0  0
   35.0120   21.5540   32.8170 F   0  0  0  0  0  0  0  0  0  0  0  0
  1  2  1  0  0  0  0
  2  3  2  0  0  0  0
  2  9  1  0  0  0  0
  3 20  1  0  0  0  0
  4  5  2  0  0  0  0
  4  3  1  0  0  0  0
  6  4  1  0  0  0  0
  7  6  1  0  0  0  0
  7  1  1  0  0  0  0
  8  7  2  0  0  0  0
 10 11  2  0  0  0  0
 10 15  1  0  0  0  0
 11 12  1  0  0  0  0
 12  1  1  0  0  0  0
 12 13  2  0  0  0  0
 14 13  1  0  0  0  0
 14 18  1  0  0  0  0
 15 14  2  0  0  0  0
 16 10  1  0  0  0  0
 17 11  1  0  0  0  0
 19 28  1  0  0  0  0
 19 26  1  0  0  0  0
 20 19  2  0  0  0  0
 21 20  1  0  0  0  0
 21 23  2  0  0  0  0
 22 21  1  0  0  0  0
 23 25  1  0  0  0  0
 24 23  1  0  0  0  0
 25 26  2  0  0  0  0
 27 28  1  0  0  0  0
 28 30  2  0  0  0  0
 29 28  2  0  0  0  0
 31  6  1  0  0  0  0
 31 34  1  0  0  0  0
 32 31  1  0  0  0  0
 33 31  1  0  0  0  0
M  END
>  <minimizedAffinity>
-5.99912691

$$$$

 OpenBabel03272505283D

 34 36  0  0  0  0  0  0  0  0999 V2000
   37.6570   25.0390   32.5830 N   0  0  0  0  0  0  0  0  0  0  0  0
   38.1150   24.8640   33.8520 C   0  0  0  0  0  0  0  0  0  0  0  0
   38.0040   23.6480   34.5110 C   0  0  0  0  0  0  0  0  0  0  0  0
   37.3940   22.5890   33.8130 C   0  0  0  0  0  0  0  0  0  0  0  0
   37.2740   21.4760   34.3730 O   0  0  0  0  0  0  0  0  0  0  0  0
   36.9390   22.7720   32.5430 N   0  0  0  0  0  0  0  0  0  0  0  0
   37.1020   23.9900   32.0110 C   0  0  0  0  0  0  0  0  0  0  0  0
   36.6700   24.1190   30.8470 O   0  0  0  0  0  0  0  0  0  0  0  0
   38.5800   25.7060   34.3590 H   0  0  0  0  0  0  0  0  0  0  0  0
   36.9830   28.5050   31.4310 C   0  0  0  0  0  0  0  0  0  0  0  0
   36.8480   27.2720   32.0870 C   0  0  0  0  0  0  0  0  0  0  0  0
   37.7730   26.2710   31.9310 C   0  0  0  0  0  0  0  0  0  0  0  0
   38.8360   26.5170   31.1070 N   0  0  0  0  0  0  0  0  0  0  0  0
   38.9880   27.7080   30.4580 C   0  0  0  0  0  0  0  0  0  0  0  0
   38.0550   28.6920   30.6290 N   0  0  0  0  0  0  0  0  0  0  0  0
   36.3020   29.3240   31.5110 H   0  0  0  0  0  0  0  0  0  0  0  0
   35.9510   27.2580   32.6790 H   0  0  0  0  0  0  0  0  0  0  0  0
   39.8540   27.8580   29.8100 H   0  0  0  0  0  0  0  0  0  0  0  0
   39.7280   22.9650   36.2410 C   0  0  0  0  0  0  0  0  0  0  0  0
   38.4950   23.4660   35.8730 C   0  0  0  0  0  0  0  0  0  0  0  0
   37.5950   23.8510   36.8690 C   0  0  0  0  0  0  0  0  0  0  0  0
   36.6070   24.2540   36.6980 H   0  0  0  0  0  0  0  0  0  0  0  0
   37.9220   23.7350   38.1970 C   0  0  0  0  0  0  0  0  0  0  0  0
   37.2580   24.0210   39.0070 H   0  0  0  0  0  0  0  0  0  0  0  0
   39.1550   23.2330   38.5720 C   0  0  0  0  0  3  0  0  0  0  0  0
   40.0510   22.8510   37.5870 C   0  0  0  0  0  3  0  0  0  0  0  0
   40.0640   22.0550   33.8580 H   0  0  0  0  0  0  0  0  0  0  0  0
   40.7970   22.5060   34.9470 S   0  0  0  0  0  0  0  0  0  0  0  0
   41.5580   23.7030   34.4860 O   0  0  0  0  0  0  0  0  0  0  0  0
   41.7120   21.3820   35.3280 O   0  0  0  0  0  0  0  0  0  0  0  0
   36.3130   21.6820   31.8190 C   0  0  0  0  0  0  0  0  0  0  0  0
   35.5540   22.1720   30.8070 F   0  0  0  0  0  0  0  0  0  0  0  0
   35.4590   20.9310   32.6140 F   0  0  0  0  0  0  0  0  0  0  0  0
   37.3010   20.8710   31.2770 F   0  0  0  0  0  0  0  0  0  0  0  0
  1  2  1  0  0  0  0
  2  9  1  0  0  0  0
  2  3  2  0  0  0  0
  3 20  1  0  0  0  0
  4  5  2  0  0  0  0
  4  3  1  0  0  0  0
  6  4  1  0  0  0  0
  7  6  1  0  0  0  0
  7  1  1  0  0  0  0
  8  7  2  0  0  0  0
 10 16  1  0  0  0  0
 10 11  1  0  0  0  0
 11 17  1  0  0  0  0
 12 11  2  0  0  0  0
 12  1  1  0  0  0  0
 13 12  1  0  0  0  0
 14 15  1  0  0  0  0
 14 13  2  0  0  0  0
 15 10  2  0  0  0  0
 18 14  1  0  0  0  0
 19 26  1  0  0  0  0
 20 19  2  0  0  0  0
 20 21  1  0  0  0  0
 21 23  2  0  0  0  0
 22 21  1  0  0  0  0
 23 25  1  0  0  0  0
 23 24  1  0  0  0  0
 26 25  2  0  0  0  0
 27 28  1  0  0  0  0
 28 30  2  0  0  0  0
 28 19  1  0  0  0  0
 29 28  2  0  0  0  0
 31  6  1  0  0  0  0
 31 33  1  0  0  0  0
 32 31  1  0  0  0  0
 34 31  1  0  0  0  0
M  END
>  <minimizedAffinity>
-5.80679989

$$$$

 OpenBabel03272505283D

 34 36  0  0  0  0  0  0  0  0999 V2000
   38.0560   23.5650   34.2920 N   0  0  0  0  0  0  0  0  0  0  0  0
   38.0880   24.8060   33.7330 C   0  0  0  0  0  0  0  0  0  0  0  0
   37.4570   25.0840   32.5290 C   0  0  0  0  0  0  0  0  0  0  0  0
   36.7770   24.0260   31.8970 C   0  0  0  0  0  0  0  0  0  0  0  0
   36.1960   24.2370   30.8090 O   0  0  0  0  0  0  0  0  0  0  0  0
   36.7500   22.7880   32.4630 N   0  0  0  0  0  0  0  0  0  0  0  0
   37.3950   22.6400   33.6270 C   0  0  0  0  0  0  0  0  0  0  0  0
   37.3490   21.4910   34.1120 O   0  0  0  0  0  0  0  0  0  0  0  0
   38.6240   25.5970   34.2520 H   0  0  0  0  0  0  0  0  0  0  0  0
   38.7850   23.3160   37.9260 C   0  0  0  0  0  0  0  0  0  0  0  0
   38.1300   23.5990   36.7170 C   0  0  0  0  0  0  0  0  0  0  0  0
   38.6980   23.2970   35.5050 C   0  0  0  0  0  0  0  0  0  0  0  0
   39.9320   22.7090   35.5160 N   0  0  0  0  0  0  0  0  0  0  0  0
   40.5880   22.4240   36.6790 C   0  0  0  0  0  0  0  0  0  0  0  0
   40.0030   22.7330   37.8750 N   0  0  0  0  0  0  0  0  0  0  0  0
   38.3980   23.5250   38.8990 H   0  0  0  0  0  0  0  0  0  0  0  0
   37.1820   24.0690   36.9040 H   0  0  0  0  0  0  0  0  0  0  0  0
   41.5720   21.9530   36.6370 H   0  0  0  0  0  0  0  0  0  0  0  0
   38.4240   26.8840   31.0260 C   0  0  0  0  0  0  0  0  0  0  0  0
   37.4940   26.4150   31.9330 C   0  0  0  0  0  0  0  0  0  0  0  0
   36.4670   27.2640   32.3510 C   0  0  0  0  0  0  0  0  0  0  0  0
   35.6870   27.0060   33.0530 H   0  0  0  0  0  0  0  0  0  0  0  0
   36.3750   28.5480   31.8720 C   0  0  0  0  0  0  0  0  0  0  0  0
   35.5960   29.2450   32.1660 H   0  0  0  0  0  0  0  0  0  0  0  0
   37.3040   29.0230   30.9660 C   0  0  0  0  0  3  0  0  0  0  0  0
   38.3250   28.1840   30.5480 C   0  0  0  0  0  3  0  0  0  0  0  0
   39.9040   24.8490   31.5640 H   0  0  0  0  0  0  0  0  0  0  0  0
   39.6750   25.7710   30.5520 S   0  0  0  0  0  0  0  0  0  0  0  0
   39.2220   24.9960   29.3600 O   0  0  0  0  0  0  0  0  0  0  0  0
   40.9860   26.4520   30.3040 O   0  0  0  0  0  0  0  0  0  0  0  0
   36.0470   21.6960   31.8160 C   0  0  0  0  0  0  0  0  0  0  0  0
   35.3160   22.1690   30.7750 F   0  0  0  0  0  0  0  0  0  0  0  0
   35.1500   21.0590   32.6600 F   0  0  0  0  0  0  0  0  0  0  0  0
   36.9750   20.7870   31.3250 F   0  0  0  0  0  0  0  0  0  0  0  0
  1 12  1  0  0  0  0
  2  9  1  0  0  0  0
  2  1  1  0  0  0  0
  3  2  2  0  0  0  0
  4  6  1  0  0  0  0
  4  3  1  0  0  0  0
  5  4  2  0  0  0  0
  6  7  1  0  0  0  0
  7  8  2  0  0  0  0
  7  1  1  0  0  0  0
 10 16  1  0  0  0  0
 11 17  1  0  0  0  0
 11 10  2  0  0  0  0
 12 13  2  0  0  0  0
 12 11  1  0  0  0  0
 13 14  1  0  0  0  0
 14 15  2  0  0  0  0
 15 10  1  0  0  0  0
 18 14  1  0  0  0  0
 19 20  1  0  0  0  0
 20 21  2  0  0  0  0
 20  3  1  0  0  0  0
 21 22  1  0  0  0  0
 23 24  1  0  0  0  0
 23 21  1  0  0  0  0
 25 23  2  0  0  0  0
 26 25  1  0  0  0  0
 26 19  2  0  0  0  0
 28 19  1  0  0  0  0
 28 27  1  0  0  0  0
 29 28  2  0  0  0  0
 30 28  2  0  0  0  0
 31  6  1  0  0  0  0
 31 33  1  0  0  0  0
 32 31  1  0  0  0  0
 34 31  1  0  0  0  0
M  END
>  <minimizedAffinity>
-5.76740694

$$$$

 OpenBabel03272505283D

 34 36  0  0  0  0  0  0  0  0999 V2000
   37.0470   26.2020   32.9740 N   0  0  0  0  0  0  0  0  0  0  0  0
   38.0580   25.7880   33.7850 C   0  0  0  0  0  0  0  0  0  0  0  0
   38.4200   24.4520   33.8810 C   0  0  0  0  0  0  0  0  0  0  0  0
   37.6970   23.5290   33.1020 C   0  0  0  0  0  0  0  0  0  0  0  0
   37.9930   22.3150   33.1610 O   0  0  0  0  0  0  0  0  0  0  0  0
   36.6870   23.9530   32.2920 N   0  0  0  0  0  0  0  0  0  0  0  0
   36.4290   25.2660   32.2830 C   0  0  0  0  0  0  0  0  0  0  0  0
   35.4950   25.6140   31.5310 O   0  0  0  0  0  0  0  0  0  0  0  0
   38.5930   26.5300   34.3720 H   0  0  0  0  0  0  0  0  0  0  0  0
   35.7630   29.5800   33.8340 C   0  0  0  0  0  0  0  0  0  0  0  0
   36.1080   28.2230   33.9340 C   0  0  0  0  0  0  0  0  0  0  0  0
   36.6890   27.5520   32.8890 C   0  0  0  0  0  0  0  0  0  0  0  0
   36.9200   28.2540   31.7390 N   0  0  0  0  0  0  0  0  0  0  0  0
   36.5920   29.5740   31.6170 C   0  0  0  0  0  0  0  0  0  0  0  0
   36.0150   30.2230   32.6720 N   0  0  0  0  0  0  0  0  0  0  0  0
   35.3100   30.1600   34.6080 H   0  0  0  0  0  0  0  0  0  0  0  0
   35.8430   27.8390   34.9020 H   0  0  0  0  0  0  0  0  0  0  0  0
   36.7970   30.0920   30.6780 H   0  0  0  0  0  0  0  0  0  0  0  0
   39.3840   23.5860   36.0610 C   0  0  0  0  0  0  0  0  0  0  0  0
   39.5040   24.0120   34.7530 C   0  0  0  0  0  0  0  0  0  0  0  0
   40.7690   24.0390   34.1620 C   0  0  0  0  0  0  0  0  0  0  0  0
   40.9800   24.3510   33.1490 H   0  0  0  0  0  0  0  0  0  0  0  0
   41.8830   23.6510   34.8640 C   0  0  0  0  0  0  0  0  0  0  0  0
   42.8860   23.6550   34.4480 H   0  0  0  0  0  0  0  0  0  0  0  0
   41.7710   23.2260   36.1740 C   0  0  0  0  0  3  0  0  0  0  0  0
   40.5170   23.1970   36.7650 C   0  0  0  0  0  3  0  0  0  0  0  0
   36.9960   24.5400   36.1080 H   0  0  0  0  0  0  0  0  0  0  0  0
   37.7790   23.5790   36.7320 S   0  0  0  0  0  0  0  0  0  0  0  0
   37.1360   22.2610   36.4610 O   0  0  0  0  0  0  0  0  0  0  0  0
   37.7640   23.9120   38.1930 O   0  0  0  0  0  0  0  0  0  0  0  0
   35.9420   23.0050   31.4850 C   0  0  0  0  0  0  0  0  0  0  0  0
   36.7990   22.1990   30.8090 F   0  0  0  0  0  0  0  0  0  0  0  0
   35.1510   23.6200   30.5270 F   0  0  0  0  0  0  0  0  0  0  0  0
   35.1600   22.2150   32.3190 F   0  0  0  0  0  0  0  0  0  0  0  0
  1  2  1  0  0  0  0
  2  3  2  0  0  0  0
  2  9  1  0  0  0  0
  3 20  1  0  0  0  0
  4  5  2  0  0  0  0
  4  3  1  0  0  0  0
  6  4  1  0  0  0  0
  7  6  1  0  0  0  0
  7  1  1  0  0  0  0
  8  7  2  0  0  0  0
 10 11  1  0  0  0  0
 10 16  1  0  0  0  0
 11 17  1  0  0  0  0
 12  1  1  0  0  0  0
 12 11  2  0  0  0  0
 13 12  1  0  0  0  0
 14 13  2  0  0  0  0
 14 15  1  0  0  0  0
 15 10  2  0  0  0  0
 18 14  1  0  0  0  0
 19 28  1  0  0  0  0
 19 26  1  0  0  0  0
 20 19  2  0  0  0  0
 21 20  1  0  0  0  0
 21 23  2  0  0  0  0
 22 21  1  0  0  0  0
 23 25  1  0  0  0  0
 24 23  1  0  0  0  0
 25 26  2  0  0  0  0
 27 28  1  0  0  0  0
 28 30  2  0  0  0  0
 29 28  2  0  0  0  0
 31  6  1  0  0  0  0
 31 34  1  0  0  0  0
 32 31  1  0  0  0  0
 33 31  1  0  0  0  0
M  END
>  <minimizedAffinity>
-5.74953461

$$$$

 OpenBabel03272505283D

 34 36  0  0  0  0  0  0  0  0999 V2000
   36.8090   28.1510   32.9660 N   0  0  0  0  0  0  0  0  0  0  0  0
   36.0960   28.7180   33.9770 C   0  0  0  0  0  0  0  0  0  0  0  0
   35.5230   29.9760   33.8550 C   0  0  0  0  0  0  0  0  0  0  0  0
   35.7060   30.6530   32.6350 C   0  0  0  0  0  0  0  0  0  0  0  0
   35.2050   31.7900   32.4850 O   0  0  0  0  0  0  0  0  0  0  0  0
   36.4210   30.0780   31.6270 N   0  0  0  0  0  0  0  0  0  0  0  0
   36.9260   28.8610   31.8620 C   0  0  0  0  0  0  0  0  0  0  0  0
   37.5760   28.3690   30.9170 O   0  0  0  0  0  0  0  0  0  0  0  0
   35.9760   28.1640   34.9040 H   0  0  0  0  0  0  0  0  0  0  0  0
   39.1090   25.4000   33.9320 C   0  0  0  0  0  0  0  0  0  0  0  0
   38.5490   26.6800   33.7980 C   0  0  0  0  0  0  0  0  0  0  0  0
   37.3840   26.8840   33.1030 C   0  0  0  0  0  0  0  0  0  0  0  0
   36.7850   25.7910   32.5410 N   0  0  0  0  0  0  0  0  0  0  0  0
   37.3110   24.5370   32.6580 C   0  0  0  0  0  0  0  0  0  0  0  0
   38.4730   24.3560   33.3560 N   0  0  0  0  0  0  0  0  0  0  0  0
   40.0100   25.1730   34.4590 H   0  0  0  0  0  0  0  0  0  0  0  0
   39.1620   27.4110   34.2930 H   0  0  0  0  0  0  0  0  0  0  0  0
   36.7960   23.6950   32.1920 H   0  0  0  0  0  0  0  0  0  0  0  0
   33.4050   30.4420   35.1700 C   0  0  0  0  0  0  0  0  0  0  0  0
   34.7600   30.5810   34.9420 C   0  0  0  0  0  0  0  0  0  0  0  0
   35.5180   31.3670   35.8120 C   0  0  0  0  0  0  0  0  0  0  0  0
   36.5810   31.5450   35.7310 H   0  0  0  0  0  0  0  0  0  0  0  0
   34.9330   31.9990   36.8820 C   0  0  0  0  0  0  0  0  0  0  0  0
   35.4790   32.6200   37.5850 H   0  0  0  0  0  0  0  0  0  0  0  0
   33.5770   31.8650   37.1150 C   0  0  0  0  0  3  0  0  0  0  0  0
   32.8210   31.0850   36.2540 C   0  0  0  0  0  3  0  0  0  0  0  0
   33.3250   28.4020   33.6060 H   0  0  0  0  0  0  0  0  0  0  0  0
   32.5260   29.4470   34.0460 S   0  0  0  0  0  0  0  0  0  0  0  0
   31.3570   28.8320   34.7390 O   0  0  0  0  0  0  0  0  0  0  0  0
   32.1090   30.1980   32.8180 O   0  0  0  0  0  0  0  0  0  0  0  0
   36.6090   30.7720   30.3680 C   0  0  0  0  0  0  0  0  0  0  0  0
   35.5220   31.5360   30.0930 F   0  0  0  0  0  0  0  0  0  0  0  0
   36.7550   29.9070   29.2940 F   0  0  0  0  0  0  0  0  0  0  0  0
   37.7170   31.6030   30.4690 F   0  0  0  0  0  0  0  0  0  0  0  0
  1 12  1  0  0  0  0
  1  2  1  0  0  0  0
  2  9  1  0  0  0  0
  3  2  2  0  0  0  0
  3 20  1  0  0  0  0
  4  3  1  0  0  0  0
  5  4  2  0  0  0  0
  6  7  1  0  0  0  0
  6  4  1  0  0  0  0
  7  1  1  0  0  0  0
  8  7  2  0  0  0  0
 10 16  1  0  0  0  0
 11 10  1  0  0  0  0
 11 17  1  0  0  0  0
 12 11  2  0  0  0  0
 13 14  2  0  0  0  0
 13 12  1  0  0  0  0
 14 15  1  0  0  0  0
 15 10  2  0  0  0  0
 18 14  1  0  0  0  0
 19 26  1  0  0  0  0
 20 19  2  0  0  0  0
 20 21  1  0  0  0  0
 21 23  2  0  0  0  0
 22 21  1  0  0  0  0
 23 25  1  0  0  0  0
 23 24  1  0  0  0  0
 26 25  2  0  0  0  0
 27 28  1  0  0  0  0
 28 29  2  0  0  0  0
 28 19  1  0  0  0  0
 30 28  2  0  0  0  0
 31 34  1  0  0  0  0
 31  6  1  0  0  0  0
 32 31  1  0  0  0  0
 33 31  1  0  0  0  0
M  END
>  <minimizedAffinity>
-5.73383331

$$$$

 OpenBabel03272505283D

 34 36  0  0  0  0  0  0  0  0999 V2000
   38.2050   23.5760   34.5320 N   0  0  0  0  0  0  0  0  0  0  0  0
   38.6120   24.6400   33.7880 C   0  0  0  0  0  0  0  0  0  0  0  0
   38.3090   24.7490   32.4380 C   0  0  0  0  0  0  0  0  0  0  0  0
   37.5570   23.7100   31.8590 C   0  0  0  0  0  0  0  0  0  0  0  0
   37.2640   23.7710   30.6440 O   0  0  0  0  0  0  0  0  0  0  0  0
   37.1540   22.6490   32.6120 N   0  0  0  0  0  0  0  0  0  0  0  0
   37.5070   22.6530   33.9030 C   0  0  0  0  0  0  0  0  0  0  0  0
   37.1210   21.6630   34.5580 O   0  0  0  0  0  0  0  0  0  0  0  0
   39.1910   25.4230   34.2710 H   0  0  0  0  0  0  0  0  0  0  0  0
   38.0510   23.9010   38.2290 C   0  0  0  0  0  0  0  0  0  0  0  0
   37.7240   24.0170   36.8690 C   0  0  0  0  0  0  0  0  0  0  0  0
   38.5200   23.4760   35.8910 C   0  0  0  0  0  0  0  0  0  0  0  0
   39.6490   22.8170   36.2900 N   0  0  0  0  0  0  0  0  0  0  0  0
   39.9880   22.6920   37.6070 C   0  0  0  0  0  0  0  0  0  0  0  0
   39.1800   23.2390   38.5650 N   0  0  0  0  0  0  0  0  0  0  0  0
   37.4760   24.2980   39.0370 H   0  0  0  0  0  0  0  0  0  0  0  0
   36.8130   24.5740   36.7480 H   0  0  0  0  0  0  0  0  0  0  0  0
   40.9000   22.1560   37.8760 H   0  0  0  0  0  0  0  0  0  0  0  0
   38.0370   27.0530   31.4130 C   0  0  0  0  0  0  0  0  0  0  0  0
   38.7480   25.8920   31.6430 C   0  0  0  0  0  0  0  0  0  0  0  0
   40.0180   25.7500   31.0810 C   0  0  0  0  0  0  0  0  0  0  0  0
   40.6610   24.8890   31.1940 H   0  0  0  0  0  0  0  0  0  0  0  0
   40.5610   26.7470   30.3080 C   0  0  0  0  0  0  0  0  0  0  0  0
   41.5430   26.6840   29.8500 H   0  0  0  0  0  0  0  0  0  0  0  0
   39.8550   27.9120   30.0720 C   0  0  0  0  0  3  0  0  0  0  0  0
   38.5940   28.0560   30.6290 C   0  0  0  0  0  3  0  0  0  0  0  0
   36.4500   26.4740   33.3520 H   0  0  0  0  0  0  0  0  0  0  0  0
   36.4620   27.1580   32.1450 S   0  0  0  0  0  0  0  0  0  0  0  0
   36.1570   28.5850   32.4570 O   0  0  0  0  0  0  0  0  0  0  0  0
   35.3930   26.5350   31.3010 O   0  0  0  0  0  0  0  0  0  0  0  0
   36.3770   21.5770   32.0180 C   0  0  0  0  0  0  0  0  0  0  0  0
   35.8160   22.0000   30.8570 F   0  0  0  0  0  0  0  0  0  0  0  0
   35.3280   21.1630   32.8260 F   0  0  0  0  0  0  0  0  0  0  0  0
   37.2180   20.5080   31.7370 F   0  0  0  0  0  0  0  0  0  0  0  0
  1 12  1  0  0  0  0
  2  9  1  0  0  0  0
  2  1  1  0  0  0  0
  3  2  2  0  0  0  0
  4  3  1  0  0  0  0
  4  6  1  0  0  0  0
  5  4  2  0  0  0  0
  6  7  1  0  0  0  0
  7  1  1  0  0  0  0
  7  8  2  0  0  0  0
 10 15  1  0  0  0  0
 10 16  1  0  0  0  0
 11 10  2  0  0  0  0
 12 13  2  0  0  0  0
 12 11  1  0  0  0  0
 13 14  1  0  0  0  0
 14 18  1  0  0  0  0
 14 15  2  0  0  0  0
 17 11  1  0  0  0  0
 19 20  1  0  0  0  0
 19 28  1  0  0  0  0
 20  3  1  0  0  0  0
 21 22  1  0  0  0  0
 21 20  2  0  0  0  0
 23 21  1  0  0  0  0
 24 23  1  0  0  0  0
 25 23  2  0  0  0  0
 25 26  1  0  0  0  0
 26 19  2  0  0  0  0
 28 29  2  0  0  0  0
 28 27  1  0  0  0  0
 30 28  2  0  0  0  0
 31  6  1  0  0  0  0
 31 33  1  0  0  0  0
 32 31  1  0  0  0  0
 34 31  1  0  0  0  0
M  END
>  <minimizedAffinity>
-5.70433187

$$$$

 OpenBabel03272505283D

 34 36  0  0  0  0  0  0  0  0999 V2000
   37.4180   22.7580   32.5630 N   0  0  0  0  0  0  0  0  0  0  0  0
   37.8190   22.5990   33.8530 C   0  0  0  0  0  0  0  0  0  0  0  0
   38.1300   23.6820   34.6630 C   0  0  0  0  0  0  0  0  0  0  0  0
   38.0140   24.9650   34.0970 C   0  0  0  0  0  0  0  0  0  0  0  0
   38.2860   25.9680   34.7950 O   0  0  0  0  0  0  0  0  0  0  0  0
   37.6110   25.1160   32.8050 N   0  0  0  0  0  0  0  0  0  0  0  0
   37.3390   23.9970   32.1220 C   0  0  0  0  0  0  0  0  0  0  0  0
   36.9750   24.1760   30.9410 O   0  0  0  0  0  0  0  0  0  0  0  0
   37.8970   21.5910   34.2540 H   0  0  0  0  0  0  0  0  0  0  0  0
   35.6150   19.8990   31.0210 C   0  0  0  0  0  0  0  0  0  0  0  0
   35.9110   20.9970   31.8440 C   0  0  0  0  0  0  0  0  0  0  0  0
   37.1100   21.6580   31.7550 C   0  0  0  0  0  0  0  0  0  0  0  0
   38.0120   21.2070   30.8330 N   0  0  0  0  0  0  0  0  0  0  0  0
   37.7470   20.1410   30.0220 C   0  0  0  0  0  0  0  0  0  0  0  0
   36.5450   19.4980   30.1270 N   0  0  0  0  0  0  0  0  0  0  0  0
   34.7030   19.3430   31.0390 H   0  0  0  0  0  0  0  0  0  0  0  0
   35.0920   21.1980   32.5100 H   0  0  0  0  0  0  0  0  0  0  0  0
   38.4990   19.8180   29.3000 H   0  0  0  0  0  0  0  0  0  0  0  0
   39.8460   23.2410   36.4780 C   0  0  0  0  0  0  0  0  0  0  0  0
   38.5620   23.5070   36.0460 C   0  0  0  0  0  0  0  0  0  0  0  0
   37.5400   23.6300   36.9900 C   0  0  0  0  0  0  0  0  0  0  0  0
   36.5030   23.8360   36.7680 H   0  0  0  0  0  0  0  0  0  0  0  0
   37.8000   23.4890   38.3310 C   0  0  0  0  0  0  0  0  0  0  0  0
   37.0410   23.5760   39.1020 H   0  0  0  0  0  0  0  0  0  0  0  0
   39.0830   23.2220   38.7700 C   0  0  0  0  0  3  0  0  0  0  0  0
   40.1000   23.1000   37.8360 C   0  0  0  0  0  3  0  0  0  0  0  0
   40.7240   23.8720   34.1440 H   0  0  0  0  0  0  0  0  0  0  0  0
   41.0670   23.1010   35.2450 S   0  0  0  0  0  0  0  0  0  0  0  0
   42.3570   23.6420   35.7630 O   0  0  0  0  0  0  0  0  0  0  0  0
   41.2170   21.6980   34.7420 O   0  0  0  0  0  0  0  0  0  0  0  0
   37.4870   26.4380   32.2210 C   0  0  0  0  0  0  0  0  0  0  0  0
   36.4770   27.1170   32.8200 F   0  0  0  0  0  0  0  0  0  0  0  0
   37.1800   26.4010   30.8690 F   0  0  0  0  0  0  0  0  0  0  0  0
   38.6700   27.1360   32.4250 F   0  0  0  0  0  0  0  0  0  0  0  0
  1  2  1  0  0  0  0
  2  9  1  0  0  0  0
  2  3  2  0  0  0  0
  3 20  1  0  0  0  0
  4  3  1  0  0  0  0
  4  5  2  0  0  0  0
  6  4  1  0  0  0  0
  7  1  1  0  0  0  0
  7  6  1  0  0  0  0
  8  7  2  0  0  0  0
 10 16  1  0  0  0  0
 10 11  1  0  0  0  0
 11 17  1  0  0  0  0
 12 11  2  0  0  0  0
 12  1  1  0  0  0  0
 13 12  1  0  0  0  0
 14 15  1  0  0  0  0
 14 13  2  0  0  0  0
 15 10  2  0  0  0  0
 18 14  1  0  0  0  0
 19 26  1  0  0  0  0
 20 19  2  0  0  0  0
 20 21  1  0  0  0  0
 21 23  2  0  0  0  0
 22 21  1  0  0  0  0
 23 25  1  0  0  0  0
 23 24  1  0  0  0  0
 26 25  2  0  0  0  0
 27 28  1  0  0  0  0
 28 29  2  0  0  0  0
 28 19  1  0  0  0  0
 30 28  2  0  0  0  0
 31 34  1  0  0  0  0
 31  6  1  0  0  0  0
 31 32  1  0  0  0  0
 33 31  1  0  0  0  0
M  END
>  <minimizedAffinity>
-5.62888145

$$$$

 OpenBabel03272505283D

 34 36  0  0  0  0  0  0  0  0999 V2000
   37.7700   25.0860   33.1450 N   0  0  0  0  0  0  0  0  0  0  0  0
   37.8840   23.8540   32.5790 C   0  0  0  0  0  0  0  0  0  0  0  0
   38.1060   22.7150   33.3410 C   0  0  0  0  0  0  0  0  0  0  0  0
   38.2120   22.8810   34.7340 C   0  0  0  0  0  0  0  0  0  0  0  0
   38.4130   21.8780   35.4560 O   0  0  0  0  0  0  0  0  0  0  0  0
   38.0960   24.1180   35.2920 N   0  0  0  0  0  0  0  0  0  0  0  0
   37.8820   25.1410   34.4560 C   0  0  0  0  0  0  0  0  0  0  0  0
   37.7840   26.2580   35.0050 O   0  0  0  0  0  0  0  0  0  0  0  0
   37.7970   23.7660   31.4990 H   0  0  0  0  0  0  0  0  0  0  0  0
   38.3300   28.0450   30.9710 C   0  0  0  0  0  0  0  0  0  0  0  0
   38.5710   26.9070   31.7560 C   0  0  0  0  0  0  0  0  0  0  0  0
   37.5480   26.2260   32.3660 C   0  0  0  0  0  0  0  0  0  0  0  0
   36.2790   26.6990   32.1830 N   0  0  0  0  0  0  0  0  0  0  0  0
   36.0200   27.8050   31.4250 C   0  0  0  0  0  0  0  0  0  0  0  0
   37.0550   28.4670   30.8250 N   0  0  0  0  0  0  0  0  0  0  0  0
   39.0800   28.6180   30.4700 H   0  0  0  0  0  0  0  0  0  0  0  0
   39.6230   26.6930   31.7940 H   0  0  0  0  0  0  0  0  0  0  0  0
   34.9890   28.1450   31.3080 H   0  0  0  0  0  0  0  0  0  0  0  0
   37.2100   20.4860   32.5300 C   0  0  0  0  0  0  0  0  0  0  0  0
   38.2290   21.3950   32.7300 C   0  0  0  0  0  0  0  0  0  0  0  0
   39.5240   21.0650   32.3230 C   0  0  0  0  0  0  0  0  0  0  0  0
   40.3940   21.6970   32.4290 H   0  0  0  0  0  0  0  0  0  0  0  0
   39.7890   19.8540   31.7320 C   0  0  0  0  0  0  0  0  0  0  0  0
   40.7770   19.5520   31.3990 H   0  0  0  0  0  0  0  0  0  0  0  0
   38.7730   18.9390   31.5300 C   0  0  0  0  0  3  0  0  0  0  0  0
   37.4870   19.2630   31.9320 C   0  0  0  0  0  3  0  0  0  0  0  0
   35.4790   22.3410   32.9500 H   0  0  0  0  0  0  0  0  0  0  0  0
   35.6250   20.9650   33.0620 S   0  0  0  0  0  0  0  0  0  0  0  0
   34.5970   20.3510   32.1720 O   0  0  0  0  0  0  0  0  0  0  0  0
   35.3780   20.6350   34.5030 O   0  0  0  0  0  0  0  0  0  0  0  0
   38.2010   24.2920   36.7290 C   0  0  0  0  0  0  0  0  0  0  0  0
   37.1440   23.7050   37.3450 F   0  0  0  0  0  0  0  0  0  0  0  0
   38.1800   25.6250   37.1120 F   0  0  0  0  0  0  0  0  0  0  0  0
   39.3660   23.6810   37.1750 F   0  0  0  0  0  0  0  0  0  0  0  0
  1  7  1  0  0  0  0
  2  1  1  0  0  0  0
  2  3  2  0  0  0  0
  3  4  1  0  0  0  0
  4  6  1  0  0  0  0
  4  5  2  0  0  0  0
  6 31  1  0  0  0  0
  7  8  2  0  0  0  0
  7  6  1  0  0  0  0
  9  2  1  0  0  0  0
 10 11  1  0  0  0  0
 11 17  1  0  0  0  0
 11 12  2  0  0  0  0
 12  1  1  0  0  0  0
 13 12  1  0  0  0  0
 14 13  2  0  0  0  0
 15 10  2  0  0  0  0
 15 14  1  0  0  0  0
 16 10  1  0  0  0  0
 18 14  1  0  0  0  0
 19 20  1  0  0  0  0
 19 28  1  0  0  0  0
 20  3  1  0  0  0  0
 21 22  1  0  0  0  0
 21 20  2  0  0  0  0
 23 21  1  0  0  0  0
 24 23  1  0  0  0  0
 25 23  2  0  0  0  0
 25 26  1  0  0  0  0
 26 19  2  0  0  0  0
 27 28  1  0  0  0  0
 28 30  2  0  0  0  0
 29 28  2  0  0  0  0
 31 33  1  0  0  0  0
 31 34  1  0  0  0  0
 31 32  1  0  0  0  0
M  END
>  <minimizedAffinity>
-5.61679268

$$$$

 OpenBabel03272505283D

 34 36  0  0  0  0  0  0  0  0999 V2000
   37.3930   22.3740   33.4150 N   0  0  0  0  0  0  0  0  0  0  0  0
   37.8780   23.3880   32.6480 C   0  0  0  0  0  0  0  0  0  0  0  0
   38.5220   24.4840   33.2040 C   0  0  0  0  0  0  0  0  0  0  0  0
   38.6580   24.5110   34.6040 C   0  0  0  0  0  0  0  0  0  0  0  0
   39.2320   25.4830   35.1440 O   0  0  0  0  0  0  0  0  0  0  0  0
   38.1690   23.4920   35.3640 N   0  0  0  0  0  0  0  0  0  0  0  0
   37.5670   22.4880   34.7160 C   0  0  0  0  0  0  0  0  0  0  0  0
   37.1310   21.5750   35.4470 O   0  0  0  0  0  0  0  0  0  0  0  0
   37.7540   23.3300   31.5690 H   0  0  0  0  0  0  0  0  0  0  0  0
   34.7440   20.1200   32.1090 C   0  0  0  0  0  0  0  0  0  0  0  0
   35.3800   21.2270   32.6930 C   0  0  0  0  0  0  0  0  0  0  0  0
   36.7430   21.2750   32.8420 C   0  0  0  0  0  0  0  0  0  0  0  0
   37.4640   20.2010   32.4020 N   0  0  0  0  0  0  0  0  0  0  0  0
   36.8680   19.1130   31.8320 C   0  0  0  0  0  0  0  0  0  0  0  0
   35.5080   19.0870   31.6920 N   0  0  0  0  0  0  0  0  0  0  0  0
   33.6900   20.0210   31.9630 H   0  0  0  0  0  0  0  0  0  0  0  0
   34.6550   21.9650   32.9860 H   0  0  0  0  0  0  0  0  0  0  0  0
   37.4860   18.2790   31.4950 H   0  0  0  0  0  0  0  0  0  0  0  0
   38.3650   26.7170   32.0130 C   0  0  0  0  0  0  0  0  0  0  0  0
   39.0400   25.5690   32.3780 C   0  0  0  0  0  0  0  0  0  0  0  0
   40.3530   25.3850   31.9380 C   0  0  0  0  0  0  0  0  0  0  0  0
   40.9740   24.5300   32.1610 H   0  0  0  0  0  0  0  0  0  0  0  0
   40.9710   26.3260   31.1520 C   0  0  0  0  0  0  0  0  0  0  0  0
   41.9890   26.2280   30.7850 H   0  0  0  0  0  0  0  0  0  0  0  0
   40.3010   27.4760   30.7810 C   0  0  0  0  0  3  0  0  0  0  0  0
   38.9980   27.6630   31.2160 C   0  0  0  0  0  3  0  0  0  0  0  0
   36.2020   25.6290   32.8790 H   0  0  0  0  0  0  0  0  0  0  0  0
   36.7350   26.8790   32.5970 S   0  0  0  0  0  0  0  0  0  0  0  0
   36.7420   27.6410   33.8800 O   0  0  0  0  0  0  0  0  0  0  0  0
   35.8210   27.5030   31.5870 O   0  0  0  0  0  0  0  0  0  0  0  0
   38.3100   23.5160   36.8080 C   0  0  0  0  0  0  0  0  0  0  0  0
   37.2480   22.9020   37.3880 F   0  0  0  0  0  0  0  0  0  0  0  0
   38.3410   24.8030   37.3230 F   0  0  0  0  0  0  0  0  0  0  0  0
   39.4640   22.8290   37.1630 F   0  0  0  0  0  0  0  0  0  0  0  0
  1  7  1  0  0  0  0
  2  3  2  0  0  0  0
  2  1  1  0  0  0  0
  3  4  1  0  0  0  0
  4  5  2  0  0  0  0
  4  6  1  0  0  0  0
  6 31  1  0  0  0  0
  7  6  1  0  0  0  0
  7  8  2  0  0  0  0
  9  2  1  0  0  0  0
 10 11  1  0  0  0  0
 11 12  2  0  0  0  0
 11 17  1  0  0  0  0
 12  1  1  0  0  0  0
 13 12  1  0  0  0  0
 14 13  2  0  0  0  0
 15 14  1  0  0  0  0
 15 10  2  0  0  0  0
 16 10  1  0  0  0  0
 18 14  1  0  0  0  0
 19 20  1  0  0  0  0
 19 28  1  0  0  0  0
 20  3  1  0  0  0  0
 21 22  1  0  0  0  0
 21 20  2  0  0  0  0
 23 21  1  0  0  0  0
 24 23  1  0  0  0  0
 25 23  2  0  0  0  0
 25 26  1  0  0  0  0
 26 19  2  0  0  0  0
 28 27  1  0  0  0  0
 28 29  2  0  0  0  0
 30 28  2  0  0  0  0
 31 34  1  0  0  0  0
 31 33  1  0  0  0  0
 31 32  1  0  0  0  0
M  END
>  <minimizedAffinity>
-5.51887655

$$$$
