
 OpenBabel03262520473D

 37 39  0  0  1  0  0  0  0  0999 V2000
   38.8000   32.4100   46.8360 C   0  0  1  0  0  0  0  0  0  0  0  0
   40.0150   33.2150   46.3530 C   0  0  0  0  0  0  0  0  0  0  0  0
   40.0400   31.7500   46.3900 C   0  0  2  0  0  0  0  0  0  0  0  0
   37.9380   32.4500   46.1620 H   0  0  0  0  0  0  0  0  0  0  0  0
   39.9080   33.7680   45.4040 H   0  0  0  0  0  0  0  0  0  0  0  0
   40.5960   33.7870   47.1100 H   0  0  0  0  0  0  0  0  0  0  0  0
   40.6520   31.3040   47.2260 H   0  0  0  0  0  0  0  0  0  0  0  0
   38.5060   32.5810   48.3100 C   0  0  0  0  0  0  0  0  0  0  0  0
   39.4650   32.7690   48.8390 H   0  0  0  0  0  0  0  0  0  0  0  0
   37.8650   33.4910   48.4020 H   0  0  0  0  0  0  0  0  0  0  0  0
   37.5350   29.8970   50.7320 C   0  0  0  0  0  0  0  0  0  0  0  0
   38.1720   31.0370   50.1560 C   0  0  0  0  0  0  0  0  0  0  0  0
   37.8230   31.3930   48.8730 C   0  0  0  0  0  0  0  0  0  0  0  0
   36.9010   30.6640   48.2090 N   0  0  0  0  0  0  0  0  0  0  0  0
   36.3090   29.5900   48.7680 C   0  0  0  0  0  0  0  0  0  0  0  0
   36.6280   29.2150   50.0210 N   0  0  0  0  0  0  0  0  0  0  0  0
   37.8350   29.6550   51.7280 H   0  0  0  0  0  0  0  0  0  0  0  0
   38.9100   31.6020   50.7140 H   0  0  0  0  0  0  0  0  0  0  0  0
   35.5730   29.0160   48.2200 H   0  0  0  0  0  0  0  0  0  0  0  0
   39.9110   30.8930   45.1580 C   0  0  0  0  0  0  0  0  0  0  0  0
   40.4660   29.9310   45.3360 H   0  0  0  0  0  0  0  0  0  0  0  0
   38.8710   30.5860   44.9990 H   0  0  0  0  0  0  0  0  0  0  0  0
   40.5470   31.4920   43.9360 C   0  0  0  0  0  0  0  0  0  0  0  0
   41.6610   31.4410   44.1360 H   0  0  0  0  0  0  0  0  0  0  0  0
   40.3630   32.5780   43.8300 H   0  0  0  0  0  0  0  0  0  0  0  0
   39.3800   31.0150   41.7610 C   0  0  0  0  0  0  0  0  0  0  0  0
   40.3240   30.6910   42.7300 C   0  0  0  0  0  0  0  0  0  0  0  0
   41.0340   29.5330   42.4430 C   0  0  0  0  0  0  0  0  0  0  0  0
   41.7860   29.2630   43.2030 H   0  0  0  0  0  0  0  0  0  0  0  0
   40.9200   28.6980   41.3530 C   0  0  0  0  0  0  0  0  0  0  0  0
   41.5540   27.8360   41.2870 H   0  0  0  0  0  0  0  0  0  0  0  0
   39.9630   29.0780   40.4270 C   0  0  0  0  0  3  0  0  0  0  0  0
   39.1960   30.2250   40.6210 C   0  0  0  0  0  3  0  0  0  0  0  0
   37.5400   32.4240   40.8200 H   0  0  0  0  0  0  0  0  0  0  0  0
   38.3900   32.4130   41.9260 S   0  0  0  0  0  0  0  0  0  0  0  0
   37.4220   32.3250   43.0990 O   0  0  0  0  0  0  0  0  0  0  0  0
   39.0830   33.7160   41.8830 O   0  0  0  0  0  0  0  0  0  0  0  0
  1  4  1  6  0  0  0
  1  8  1  0  0  0  0
  2  3  1  0  0  0  0
  2  1  1  0  0  0  0
  2  6  1  0  0  0  0
  3  1  1  0  0  0  0
  3  7  1  1  0  0  0
  5  2  1  0  0  0  0
  8 10  1  0  0  0  0
  8  9  1  0  0  0  0
  8 13  1  0  0  0  0
 11 17  1  0  0  0  0
 12 18  1  0  0  0  0
 12 11  1  0  0  0  0
 13 12  2  0  0  0  0
 14 15  2  0  0  0  0
 14 13  1  0  0  0  0
 15 16  1  0  0  0  0
 16 11  2  0  0  0  0
 19 15  1  0  0  0  0
 20 21  1  0  0  0  0
 20  3  1  0  0  0  0
 22 20  1  0  0  0  0
 23 24  1  0  0  0  0
 23 20  1  0  0  0  0
 25 23  1  0  0  0  0
 26 35  1  0  0  0  0
 26 27  1  0  0  0  0
 27 23  1  0  0  0  0
 28 27  2  0  0  0  0
 28 29  1  0  0  0  0
 30 28  1  0  0  0  0
 31 30  1  0  0  0  0
 32 33  1  0  0  0  0
 32 30  2  0  0  0  0
 33 26  2  0  0  0  0
 34 35  1  0  0  0  0
 35 36  2  0  0  0  0
 37 35  2  0  0  0  0
M  END
>  <minimizedAffinity>
-5.15235376

>  <minimizedRMSD>
0.875036776

$$$$
