
 OpenBabel03272509573D

 49 52  0  0  0  0  0  0  0  0999 V2000
   33.0880   27.9590   47.3770 C   0  0  0  0  0  0  0  0  0  0  0  0
   33.4690   26.9340   47.4820 H   0  0  0  0  0  0  0  0  0  0  0  0
   33.1420   28.1880   46.2880 H   0  0  0  0  0  0  0  0  0  0  0  0
   31.6610   28.0300   47.8160 C   0  0  0  0  0  0  0  0  0  0  0  0
   31.3350   27.4180   49.0110 C   0  0  0  0  0  0  0  0  0  0  0  0
   30.0490   27.4380   49.4830 C   0  0  0  0  0  0  0  0  0  0  0  0
   29.1020   28.0480   48.7890 N   0  0  0  0  0  0  0  0  0  0  0  0
   29.4240   28.6530   47.6070 C   0  0  0  0  0  0  0  0  0  0  0  0
   30.6800   28.6380   47.1400 N   0  0  0  0  0  0  0  0  0  0  0  0
   32.0890   26.9210   49.5830 H   0  0  0  0  0  0  0  0  0  0  0  0
   29.7740   26.9590   50.4250 H   0  0  0  0  0  0  0  0  0  0  0  0
   28.3340   29.3320   46.8630 C   0  0  0  0  0  0  0  0  0  0  0  0
   27.4220   29.2800   47.5290 H   0  0  0  0  0  0  0  0  0  0  0  0
   28.5500   30.4360   46.8300 H   0  0  0  0  0  0  0  0  0  0  0  0
   28.2100   29.4070   44.3500 C   0  0  0  0  0  0  0  0  0  0  0  0
   28.0380   28.7500   45.5470 C   0  0  0  0  0  0  0  0  0  0  0  0
   27.5510   27.4370   45.5040 C   0  0  0  0  0  0  0  0  0  0  0  0
   27.4110   26.9080   46.4340 H   0  0  0  0  0  0  0  0  0  0  0  0
   27.2400   26.7790   44.3330 C   0  0  0  0  0  0  0  0  0  0  0  0
   26.8630   25.7560   44.3590 H   0  0  0  0  0  0  0  0  0  0  0  0
   27.4070   27.4220   43.1260 C   0  0  0  0  0  3  0  0  0  0  0  0
   27.8870   28.7180   43.1760 C   0  0  0  0  0  3  0  0  0  0  0  0
   29.9690   31.1820   45.0390 H   0  0  0  0  0  0  0  0  0  0  0  0
   28.8040   31.0350   44.3070 S   0  0  0  0  0  0  0  0  0  0  0  0
   27.7870   32.0740   44.6010 O   0  0  0  0  0  0  0  0  0  0  0  0
   29.2440   31.2890   42.8650 O   0  0  0  0  0  0  0  0  0  0  0  0
   33.9540   28.9720   48.0870 C   0  0  0  0  0  0  0  0  0  0  0  0
   34.6160   29.5190   47.4150 H   0  0  0  0  0  0  0  0  0  0  0  0
   33.2880   29.7110   48.5850 H   0  0  0  0  0  0  0  0  0  0  0  0
   34.6880   28.3580   49.1390 O   0  0  0  0  0  0  0  0  0  0  0  0
   36.9450   29.8890   51.5000 C   0  0  0  0  0  0  0  0  0  0  0  0
   37.7610   30.6340   50.6200 C   0  0  0  0  0  0  0  0  0  0  0  0
   37.4770   30.5590   49.2630 C   0  0  0  0  0  0  0  0  0  0  0  0
   36.4220   29.7620   48.9010 N   0  0  0  0  0  0  0  0  0  0  0  0
   35.6640   29.0660   49.7510 C   0  0  0  0  0  0  0  0  0  0  0  0
   35.9390   29.1390   51.0610 N   0  0  0  0  0  0  0  0  0  0  0  0
   37.1850   29.9640   52.5510 H   0  0  0  0  0  0  0  0  0  0  0  0
   38.5900   31.2590   50.9220 H   0  0  0  0  0  0  0  0  0  0  0  0
   38.7020   33.1880   49.3580 F   0  0  0  0  0  0  0  0  0  0  0  0
   38.7790   32.4690   48.2430 C   0  0  0  0  0  0  0  0  0  0  0  0
   38.2050   31.2520   48.2200 C   0  0  0  0  0  0  0  0  0  0  0  0
   38.3430   30.5750   46.9990 C   0  0  0  0  0  0  0  0  0  0  0  0
   39.0100   31.1240   45.9320 C   0  0  0  0  0  0  0  0  0  0  0  0
   39.5800   32.3650   45.9960 C   0  0  0  0  0  0  0  0  0  0  0  0
   39.4450   33.0160   47.1760 C   0  0  0  0  0  0  0  0  0  0  0  0
   37.9100   29.5790   46.8790 H   0  0  0  0  0  0  0  0  0  0  0  0
   39.0760   30.5390   45.0120 H   0  0  0  0  0  0  0  0  0  0  0  0
   40.0920   32.7440   45.1250 H   0  0  0  0  0  0  0  0  0  0  0  0
   39.8930   34.0190   47.2640 H   0  0  0  0  0  0  0  0  0  0  0  0
  1  2  1  0  0  0  0
  1  4  1  0  0  0  0
  1 27  1  0  0  0  0
  3  1  1  0  0  0  0
  4  5  1  0  0  0  0
  5  6  2  0  0  0  0
  5 10  1  0  0  0  0
  6 11  1  0  0  0  0
  7  6  1  0  0  0  0
  8  7  2  0  0  0  0
  9  8  1  0  0  0  0
  9  4  2  0  0  0  0
 12 13  1  0  0  0  0
 12  8  1  0  0  0  0
 14 12  1  0  0  0  0
 15 16  1  0  0  0  0
 16 12  1  0  0  0  0
 17 16  2  0  0  0  0
 17 18  1  0  0  0  0
 19 20  1  0  0  0  0
 19 17  1  0  0  0  0
 21 22  1  0  0  0  0
 21 19  2  0  0  0  0
 22 15  2  0  0  0  0
 24 15  1  0  0  0  0
 24 25  2  0  0  0  0
 24 23  1  0  0  0  0
 26 24  2  0  0  0  0
 27 29  1  0  0  0  0
 27 30  1  0  0  0  0
 28 27  1  0  0  0  0
 30 35  1  0  0  0  0
 31 37  1  0  0  0  0
 32 38  1  0  0  0  0
 32 31  2  0  0  0  0
 33 32  1  0  0  0  0
 34 33  2  0  0  0  0
 34 35  1  0  0  0  0
 35 36  2  0  0  0  0
 36 31  1  0  0  0  0
 40 39  1  0  0  0  0
 41 40  1  0  0  0  0
 41 33  1  0  0  0  0
 42 41  2  0  0  0  0
 43 44  2  0  0  0  0
 43 42  1  0  0  0  0
 44 45  1  0  0  0  0
 45 49  1  0  0  0  0
 45 40  2  0  0  0  0
 46 42  1  0  0  0  0
 47 43  1  0  0  0  0
 48 44  1  0  0  0  0
M  END
>  <minimizedAffinity>
-6.38366604

>  <minimizedRMSD>
0.944908738

$$$$
