
 OpenBabel03272500523D

 48 53  0  0  1  0  0  0  0  0999 V2000
   36.3540   27.6800   32.4250 C   0  0  0  0  0  0  0  0  0  0  0  0
   36.2740   27.1960   31.1300 C   0  0  0  0  0  0  0  0  0  0  0  0
   36.6540   25.8910   31.1530 N   0  0  0  0  0  0  0  0  0  0  0  0
   36.9680   25.5510   32.4250 C   0  0  0  0  0  0  0  0  0  0  0  0
   36.7840   26.6440   33.1940 N   0  0  0  0  0  0  0  0  0  0  0  0
   35.9630   27.7380   30.2250 H   0  0  0  0  0  0  0  0  0  0  0  0
   36.6890   25.2740   30.3150 H   0  0  0  0  0  0  0  0  0  0  0  0
   34.8880   29.3370   33.7160 C   0  0  1  0  0  0  0  0  0  0  0  0
   34.8770   29.7890   32.2070 C   0  0  0  0  0  0  0  0  0  0  0  0
   36.0370   29.0870   32.8460 C   0  0  2  0  0  0  0  0  0  0  0  0
   34.1810   28.4970   33.9320 H   0  0  0  0  0  0  0  0  0  0  0  0
   34.9240   30.8780   32.0550 H   0  0  0  0  0  0  0  0  0  0  0  0
   34.2610   29.1660   31.5350 H   0  0  0  0  0  0  0  0  0  0  0  0
   36.9370   29.7250   32.9470 H   0  0  0  0  0  0  0  0  0  0  0  0
   34.2260   32.0310   36.0100 C   0  0  0  0  0  0  0  0  0  0  0  0
   35.5740   31.8100   36.2580 C   0  0  0  0  0  0  0  0  0  0  0  0
   36.0050   30.7590   35.4200 C   0  0  0  0  0  0  0  0  0  0  0  0
   34.9290   30.3870   34.7100 N   0  0  0  0  0  0  0  0  0  0  0  0
   33.9260   31.1450   35.0810 N   0  0  0  0  0  0  0  0  0  0  0  0
   36.2820   32.2750   36.9320 H   0  0  0  0  0  0  0  0  0  0  0  0
   37.0000   30.3400   35.3650 H   0  0  0  0  0  0  0  0  0  0  0  0
   32.0360   33.1650   36.4780 C   0  0  0  0  0  0  0  0  0  0  0  0
   33.4470   33.0310   36.6810 C   0  0  0  0  0  0  0  0  0  0  0  0
   34.0230   33.9070   37.5510 C   0  0  0  0  0  0  0  0  0  0  0  0
   33.2510   34.8430   38.1700 N   0  0  0  0  0  0  0  0  0  0  0  0
   31.9240   34.9360   37.9510 C   0  0  0  0  0  0  0  0  0  0  0  0
   31.3070   34.0890   37.0950 N   0  0  0  0  0  0  0  0  0  0  0  0
   31.5920   32.4610   35.7830 H   0  0  0  0  0  0  0  0  0  0  0  0
   35.0920   33.8410   37.7360 H   0  0  0  0  0  0  0  0  0  0  0  0
   31.4670   35.7370   38.5260 H   0  0  0  0  0  0  0  0  0  0  0  0
   37.4420   24.2190   32.9050 C   0  0  0  0  0  0  0  0  0  0  0  0
   36.9510   23.0240   32.3440 C   0  0  0  0  0  0  0  0  0  0  0  0
   37.8520   21.7480   33.3010 S   0  0  0  0  0  0  0  0  0  0  0  0
   38.7490   23.0680   34.3090 C   0  0  0  0  0  0  0  0  0  0  0  0
   38.3130   24.0020   33.8530 N   0  0  0  0  0  0  0  0  0  0  0  0
   36.2270   22.8870   31.5500 H   0  0  0  0  0  0  0  0  0  0  0  0
   39.4470   22.8560   36.6930 C   0  0  0  0  0  0  0  0  0  0  0  0
   39.7080   22.6830   35.3490 C   0  0  0  0  0  0  0  0  0  0  0  0
   40.9360   22.1220   34.9990 C   0  0  0  0  0  0  0  0  0  0  0  0
   41.1800   21.9690   33.9550 H   0  0  0  0  0  0  0  0  0  0  0  0
   41.8960   21.7310   35.9080 C   0  0  0  0  0  0  0  0  0  0  0  0
   42.8290   21.3010   35.5960 H   0  0  0  0  0  0  0  0  0  0  0  0
   41.5970   21.9190   37.2370 C   0  0  0  0  0  3  0  0  0  0  0  0
   40.3930   22.4720   37.6180 C   0  0  0  0  0  3  0  0  0  0  0  0
   37.5990   24.5880   36.1850 H   0  0  0  0  0  0  0  0  0  0  0  0
   37.8890   23.5660   37.0360 S   0  0  0  0  0  0  0  0  0  0  0  0
   36.8060   22.5260   37.0610 O   0  0  0  0  0  0  0  0  0  0  0  0
   37.9130   24.1550   38.4380 O   0  0  0  0  0  0  0  0  0  0  0  0
  1 10  1  0  0  0  0
  1  5  1  0  0  0  0
  2  3  1  0  0  0  0
  2  1  2  0  0  0  0
  3  4  1  0  0  0  0
  4 31  1  0  0  0  0
  4  5  2  0  0  0  0
  6  2  1  0  0  0  0
  7  3  1  0  0  0  0
  8 11  1  1  0  0  0
  8 18  1  0  0  0  0
  9 10  1  0  0  0  0
  9  8  1  0  0  0  0
 10 14  1  1  0  0  0
 10  8  1  0  0  0  0
 12  9  1  0  0  0  0
 13  9  1  0  0  0  0
 15 16  1  0  0  0  0
 15 23  1  0  0  0  0
 16 20  1  0  0  0  0
 17 16  2  0  0  0  0
 18 19  1  0  0  0  0
 18 17  1  0  0  0  0
 19 15  2  0  0  0  0
 21 17  1  0  0  0  0
 22 23  2  0  0  0  0
 22 27  1  0  0  0  0
 23 24  1  0  0  0  0
 24 29  1  0  0  0  0
 24 25  2  0  0  0  0
 26 25  1  0  0  0  0
 26 30  1  0  0  0  0
 27 26  2  0  0  0  0
 28 22  1  0  0  0  0
 31 35  1  0  0  0  0
 32 31  2  0  0  0  0
 32 33  1  0  0  0  0
 33 34  1  0  0  0  0
 34 38  1  0  0  0  0
 35 34  2  0  0  0  0
 36 32  1  0  0  0  0
 37 46  1  0  0  0  0
 37 44  1  0  0  0  0
 38 37  2  0  0  0  0
 39 38  1  0  0  0  0
 39 41  2  0  0  0  0
 40 39  1  0  0  0  0
 41 43  1  0  0  0  0
 42 41  1  0  0  0  0
 43 44  2  0  0  0  0
 45 46  1  0  0  0  0
 46 47  2  0  0  0  0
 46 48  2  0  0  0  0
M  END
>  <minimizedAffinity>
-6.65531731

$$$$

 OpenBabel03272500523D

 48 53  0  0  1  0  0  0  0  0999 V2000
   36.5480   27.6040   32.1600 C   0  0  0  0  0  0  0  0  0  0  0  0
   36.4990   27.0490   30.8920 C   0  0  0  0  0  0  0  0  0  0  0  0
   36.8240   25.7340   31.0050 N   0  0  0  0  0  0  0  0  0  0  0  0
   37.0750   25.4570   32.3060 C   0  0  0  0  0  0  0  0  0  0  0  0
   36.9050   26.5990   33.0030 N   0  0  0  0  0  0  0  0  0  0  0  0
   36.2460   27.5480   29.9450 H   0  0  0  0  0  0  0  0  0  0  0  0
   36.8680   25.0680   30.2050 H   0  0  0  0  0  0  0  0  0  0  0  0
   35.0000   29.4110   33.1060 C   0  0  1  0  0  0  0  0  0  0  0  0
   35.3230   29.8140   31.6170 C   0  0  0  0  0  0  0  0  0  0  0  0
   36.2720   29.0440   32.4860 C   0  0  2  0  0  0  0  0  0  0  0  0
   34.1960   28.6360   33.1900 H   0  0  0  0  0  0  0  0  0  0  0  0
   35.4890   30.8910   31.4600 H   0  0  0  0  0  0  0  0  0  0  0  0
   34.8020   29.2190   30.8460 H   0  0  0  0  0  0  0  0  0  0  0  0
   37.1850   29.6130   32.7530 H   0  0  0  0  0  0  0  0  0  0  0  0
   35.4290   32.3840   35.0900 C   0  0  0  0  0  0  0  0  0  0  0  0
   34.3710   31.7830   35.7580 C   0  0  0  0  0  0  0  0  0  0  0  0
   34.0670   30.5740   35.0930 C   0  0  0  0  0  0  0  0  0  0  0  0
   34.9310   30.4870   34.0710 N   0  0  0  0  0  0  0  0  0  0  0  0
   35.6980   31.5490   34.1050 N   0  0  0  0  0  0  0  0  0  0  0  0
   33.7940   32.0690   36.6270 H   0  0  0  0  0  0  0  0  0  0  0  0
   33.2950   29.8660   35.3570 H   0  0  0  0  0  0  0  0  0  0  0  0
   37.3450   34.0070   35.1190 C   0  0  0  0  0  0  0  0  0  0  0  0
   36.0110   33.6340   35.4850 C   0  0  0  0  0  0  0  0  0  0  0  0
   35.3120   34.5320   36.2340 C   0  0  0  0  0  0  0  0  0  0  0  0
   35.8980   35.7090   36.5900 N   0  0  0  0  0  0  0  0  0  0  0  0
   37.1580   36.0220   36.2240 C   0  0  0  0  0  0  0  0  0  0  0  0
   37.8920   35.1630   35.4810 N   0  0  0  0  0  0  0  0  0  0  0  0
   37.8880   33.2830   34.5230 H   0  0  0  0  0  0  0  0  0  0  0  0
   34.2960   34.2900   36.5340 H   0  0  0  0  0  0  0  0  0  0  0  0
   37.4630   36.9970   36.5940 H   0  0  0  0  0  0  0  0  0  0  0  0
   37.4740   24.1380   32.8810 C   0  0  0  0  0  0  0  0  0  0  0  0
   36.9130   22.9360   32.4090 C   0  0  0  0  0  0  0  0  0  0  0  0
   37.7450   21.6830   33.4540 S   0  0  0  0  0  0  0  0  0  0  0  0
   38.7220   23.0190   34.3610 C   0  0  0  0  0  0  0  0  0  0  0  0
   38.3380   23.9400   33.8400 N   0  0  0  0  0  0  0  0  0  0  0  0
   36.1770   22.7830   31.6290 H   0  0  0  0  0  0  0  0  0  0  0  0
   39.3700   22.8270   36.7610 C   0  0  0  0  0  0  0  0  0  0  0  0
   39.6650   22.6560   35.4250 C   0  0  0  0  0  0  0  0  0  0  0  0
   40.9110   22.1170   35.1040 C   0  0  0  0  0  0  0  0  0  0  0  0
   41.1820   21.9660   34.0670 H   0  0  0  0  0  0  0  0  0  0  0  0
   41.8570   21.7480   36.0370 C   0  0  0  0  0  0  0  0  0  0  0  0
   42.8050   21.3350   35.7480 H   0  0  0  0  0  0  0  0  0  0  0  0
   41.5250   21.9340   37.3570 C   0  0  0  0  0  3  0  0  0  0  0  0
   40.3020   22.4650   37.7090 C   0  0  0  0  0  3  0  0  0  0  0  0
   37.4980   24.5180   36.2020 H   0  0  0  0  0  0  0  0  0  0  0  0
   37.7910   23.5080   37.0660 S   0  0  0  0  0  0  0  0  0  0  0  0
   36.7280   22.4470   37.0760 O   0  0  0  0  0  0  0  0  0  0  0  0
   37.7740   24.1080   38.4640 O   0  0  0  0  0  0  0  0  0  0  0  0
  1 10  1  0  0  0  0
  1  5  1  0  0  0  0
  2  3  1  0  0  0  0
  2  1  2  0  0  0  0
  3  4  1  0  0  0  0
  4 31  1  0  0  0  0
  4  5  2  0  0  0  0
  6  2  1  0  0  0  0
  7  3  1  0  0  0  0
  8 11  1  1  0  0  0
  8 18  1  0  0  0  0
  9 10  1  0  0  0  0
  9  8  1  0  0  0  0
 10 14  1  1  0  0  0
 10  8  1  0  0  0  0
 12  9  1  0  0  0  0
 13  9  1  0  0  0  0
 15 23  1  0  0  0  0
 15 16  1  0  0  0  0
 16 20  1  0  0  0  0
 17 21  1  0  0  0  0
 17 16  2  0  0  0  0
 18 19  1  0  0  0  0
 18 17  1  0  0  0  0
 19 15  2  0  0  0  0
 22 27  2  0  0  0  0
 22 23  1  0  0  0  0
 23 24  2  0  0  0  0
 24 29  1  0  0  0  0
 24 25  1  0  0  0  0
 26 25  2  0  0  0  0
 26 30  1  0  0  0  0
 27 26  1  0  0  0  0
 28 22  1  0  0  0  0
 31 35  1  0  0  0  0
 32 31  2  0  0  0  0
 32 33  1  0  0  0  0
 33 34  1  0  0  0  0
 34 38  1  0  0  0  0
 35 34  2  0  0  0  0
 36 32  1  0  0  0  0
 37 46  1  0  0  0  0
 37 44  1  0  0  0  0
 38 37  2  0  0  0  0
 39 38  1  0  0  0  0
 39 41  2  0  0  0  0
 40 39  1  0  0  0  0
 41 43  1  0  0  0  0
 42 41  1  0  0  0  0
 43 44  2  0  0  0  0
 45 46  1  0  0  0  0
 46 47  2  0  0  0  0
 46 48  2  0  0  0  0
M  END
>  <minimizedAffinity>
-6.43100977

$$$$

 OpenBabel03272500523D

 48 53  0  0  1  0  0  0  0  0999 V2000
   37.2600   27.2310   33.6490 C   0  0  0  0  0  0  0  0  0  0  0  0
   37.0790   26.8660   32.3260 C   0  0  0  0  0  0  0  0  0  0  0  0
   36.0790   27.6350   31.8190 N   0  0  0  0  0  0  0  0  0  0  0  0
   35.6340   28.4660   32.7900 C   0  0  0  0  0  0  0  0  0  0  0  0
   36.3570   28.2160   33.9010 N   0  0  0  0  0  0  0  0  0  0  0  0
   37.6260   26.1010   31.7550 H   0  0  0  0  0  0  0  0  0  0  0  0
   35.7290   27.5750   30.8400 H   0  0  0  0  0  0  0  0  0  0  0  0
   37.7990   26.0120   35.8360 C   0  0  1  0  0  0  0  0  0  0  0  0
   38.6220   27.3550   35.8420 C   0  0  0  0  0  0  0  0  0  0  0  0
   38.2600   26.6180   34.5880 C   0  0  2  0  0  0  0  0  0  0  0  0
   36.7300   26.1470   36.1400 H   0  0  0  0  0  0  0  0  0  0  0  0
   39.6430   27.2640   36.2440 H   0  0  0  0  0  0  0  0  0  0  0  0
   38.0320   28.2670   36.0400 H   0  0  0  0  0  0  0  0  0  0  0  0
   39.1340   26.1780   34.0670 H   0  0  0  0  0  0  0  0  0  0  0  0
   39.8770   23.1560   36.5300 C   0  0  0  0  0  0  0  0  0  0  0  0
   39.0490   23.1460   37.6450 C   0  0  0  0  0  0  0  0  0  0  0  0
   38.1510   24.2290   37.5300 C   0  0  0  0  0  0  0  0  0  0  0  0
   38.4560   24.8420   36.3770 N   0  0  0  0  0  0  0  0  0  0  0  0
   39.4560   24.1930   35.8320 N   0  0  0  0  0  0  0  0  0  0  0  0
   38.9910   22.4980   38.5100 H   0  0  0  0  0  0  0  0  0  0  0  0
   37.3760   24.5050   38.2300 H   0  0  0  0  0  0  0  0  0  0  0  0
   41.5200   21.4540   37.3710 C   0  0  0  0  0  0  0  0  0  0  0  0
   40.9180   22.1960   36.3040 C   0  0  0  0  0  0  0  0  0  0  0  0
   41.3860   21.9450   35.0490 C   0  0  0  0  0  0  0  0  0  0  0  0
   42.3760   21.0260   34.8730 N   0  0  0  0  0  0  0  0  0  0  0  0
   42.9160   20.3490   35.9060 C   0  0  0  0  0  0  0  0  0  0  0  0
   42.4860   20.5630   37.1700 N   0  0  0  0  0  0  0  0  0  0  0  0
   41.1370   21.6640   38.3630 H   0  0  0  0  0  0  0  0  0  0  0  0
   40.9580   22.4860   34.2090 H   0  0  0  0  0  0  0  0  0  0  0  0
   43.6920   19.6580   35.5840 H   0  0  0  0  0  0  0  0  0  0  0  0
   34.5390   29.4750   32.6740 C   0  0  0  0  0  0  0  0  0  0  0  0
   34.5450   30.4440   31.6520 C   0  0  0  0  0  0  0  0  0  0  0  0
   33.0130   31.3850   32.0000 S   0  0  0  0  0  0  0  0  0  0  0  0
   32.6220   30.2910   33.4880 C   0  0  0  0  0  0  0  0  0  0  0  0
   33.5020   29.5880   33.4590 N   0  0  0  0  0  0  0  0  0  0  0  0
   35.2680   30.6000   30.8600 H   0  0  0  0  0  0  0  0  0  0  0  0
   31.4620   31.1310   35.5280 C   0  0  0  0  0  0  0  0  0  0  0  0
   31.4160   30.5290   34.2880 C   0  0  0  0  0  0  0  0  0  0  0  0
   30.1660   30.1440   33.8050 C   0  0  0  0  0  0  0  0  0  0  0  0
   30.0860   29.6690   32.8360 H   0  0  0  0  0  0  0  0  0  0  0  0
   28.9830   30.3290   34.4880 C   0  0  0  0  0  0  0  0  0  0  0  0
   28.0390   30.0180   34.0790 H   0  0  0  0  0  0  0  0  0  0  0  0
   29.0710   30.9320   35.7190 C   0  0  0  0  0  3  0  0  0  0  0  0
   30.2900   31.3250   36.2270 C   0  0  0  0  0  3  0  0  0  0  0  0
   34.0110   30.7120   35.5880 H   0  0  0  0  0  0  0  0  0  0  0  0
   33.0680   31.5780   36.0510 S   0  0  0  0  0  0  0  0  0  0  0  0
   33.3840   33.0020   35.6960 O   0  0  0  0  0  0  0  0  0  0  0  0
   33.1260   31.5190   37.5700 O   0  0  0  0  0  0  0  0  0  0  0  0
  1  5  1  0  0  0  0
  1 10  1  0  0  0  0
  2  1  2  0  0  0  0
  3  2  1  0  0  0  0
  3  4  1  0  0  0  0
  4  5  2  0  0  0  0
  6  2  1  0  0  0  0
  7  3  1  0  0  0  0
  8  9  1  0  0  0  0
  8 11  1  1  0  0  0
  8 18  1  0  0  0  0
  9 13  1  0  0  0  0
  9 12  1  0  0  0  0
 10 14  1  6  0  0  0
 10  8  1  0  0  0  0
 10  9  1  0  0  0  0
 15 16  1  0  0  0  0
 16 20  1  0  0  0  0
 17 16  2  0  0  0  0
 17 21  1  0  0  0  0
 18 17  1  0  0  0  0
 19 18  1  0  0  0  0
 19 15  2  0  0  0  0
 22 28  1  0  0  0  0
 23 15  1  0  0  0  0
 23 22  2  0  0  0  0
 24 23  1  0  0  0  0
 25 24  2  0  0  0  0
 25 26  1  0  0  0  0
 26 27  2  0  0  0  0
 27 22  1  0  0  0  0
 29 24  1  0  0  0  0
 30 26  1  0  0  0  0
 31  4  1  0  0  0  0
 31 35  1  0  0  0  0
 32 33  1  0  0  0  0
 32 31  2  0  0  0  0
 33 34  1  0  0  0  0
 34 38  1  0  0  0  0
 35 34  2  0  0  0  0
 36 32  1  0  0  0  0
 37 46  1  0  0  0  0
 37 44  1  0  0  0  0
 38 37  2  0  0  0  0
 39 38  1  0  0  0  0
 39 41  2  0  0  0  0
 40 39  1  0  0  0  0
 41 43  1  0  0  0  0
 42 41  1  0  0  0  0
 43 44  2  0  0  0  0
 45 46  1  0  0  0  0
 46 48  2  0  0  0  0
 47 46  2  0  0  0  0
M  END
>  <minimizedAffinity>
-6.36836004

$$$$

 OpenBabel03272500523D

 48 53  0  0  1  0  0  0  0  0999 V2000
   37.8990   26.1100   34.9330 C   0  0  0  0  0  0  0  0  0  0  0  0
   37.5790   25.6980   33.6500 C   0  0  0  0  0  0  0  0  0  0  0  0
   36.8200   26.6720   33.0820 N   0  0  0  0  0  0  0  0  0  0  0  0
   36.6590   27.6760   33.9750 C   0  0  0  0  0  0  0  0  0  0  0  0
   37.3180   27.3280   35.0990 N   0  0  0  0  0  0  0  0  0  0  0  0
   37.8700   24.7630   33.1490 H   0  0  0  0  0  0  0  0  0  0  0  0
   36.4360   26.6290   32.1140 H   0  0  0  0  0  0  0  0  0  0  0  0
   38.8230   23.8710   35.7670 C   0  0  1  0  0  0  0  0  0  0  0  0
   38.0060   24.5050   36.9560 C   0  0  0  0  0  0  0  0  0  0  0  0
   38.7150   25.3220   35.9180 C   0  0  2  0  0  0  0  0  0  0  0  0
   38.1770   23.3570   35.0110 H   0  0  0  0  0  0  0  0  0  0  0  0
   38.4670   24.3770   37.9480 H   0  0  0  0  0  0  0  0  0  0  0  0
   36.9080   24.4570   36.8490 H   0  0  0  0  0  0  0  0  0  0  0  0
   39.5810   25.8870   36.3170 H   0  0  0  0  0  0  0  0  0  0  0  0
   42.2130   22.7970   36.3240 C   0  0  0  0  0  0  0  0  0  0  0  0
   41.5140   21.7120   36.8370 C   0  0  0  0  0  0  0  0  0  0  0  0
   40.1350   21.9760   36.6930 C   0  0  0  0  0  0  0  0  0  0  0  0
   40.0470   23.1820   36.1130 N   0  0  0  0  0  0  0  0  0  0  0  0
   41.2660   23.6200   35.9170 N   0  0  0  0  0  0  0  0  0  0  0  0
   41.8320   20.7820   37.2880 H   0  0  0  0  0  0  0  0  0  0  0  0
   39.3180   21.3340   36.9920 H   0  0  0  0  0  0  0  0  0  0  0  0
   44.4680   21.7980   35.8560 C   0  0  0  0  0  0  0  0  0  0  0  0
   43.6450   22.8820   36.3000 C   0  0  0  0  0  0  0  0  0  0  0  0
   44.2910   24.0110   36.7030 C   0  0  0  0  0  0  0  0  0  0  0  0
   45.6520   24.0550   36.6660 N   0  0  0  0  0  0  0  0  0  0  0  0
   46.3910   23.0100   36.2410 C   0  0  0  0  0  0  0  0  0  0  0  0
   45.7950   21.8670   35.8310 N   0  0  0  0  0  0  0  0  0  0  0  0
   43.9390   20.9060   35.5380 H   0  0  0  0  0  0  0  0  0  0  0  0
   43.7060   24.8600   37.0480 H   0  0  0  0  0  0  0  0  0  0  0  0
   47.4570   23.2180   36.2780 H   0  0  0  0  0  0  0  0  0  0  0  0
   35.8900   28.9400   33.7730 C   0  0  0  0  0  0  0  0  0  0  0  0
   35.5990   29.4190   32.4810 C   0  0  0  0  0  0  0  0  0  0  0  0
   34.6720   30.9580   32.8380 S   0  0  0  0  0  0  0  0  0  0  0  0
   34.8390   30.6840   34.6980 C   0  0  0  0  0  0  0  0  0  0  0  0
   35.4210   29.7200   34.7100 N   0  0  0  0  0  0  0  0  0  0  0  0
   35.8550   28.9920   31.5190 H   0  0  0  0  0  0  0  0  0  0  0  0
   32.9610   31.5480   36.0910 C   0  0  0  0  0  0  0  0  0  0  0  0
   34.2620   31.6450   35.6450 C   0  0  0  0  0  0  0  0  0  0  0  0
   35.0320   32.7030   36.1270 C   0  0  0  0  0  0  0  0  0  0  0  0
   36.0580   32.8150   35.8030 H   0  0  0  0  0  0  0  0  0  0  0  0
   34.5720   33.6500   37.0170 C   0  0  0  0  0  0  0  0  0  0  0  0
   35.1980   34.4500   37.3660 H   0  0  0  0  0  0  0  0  0  0  0  0
   33.2700   33.5190   37.4380 C   0  0  0  0  0  3  0  0  0  0  0  0
   32.4810   32.4850   36.9800 C   0  0  0  0  0  3  0  0  0  0  0  0
   32.5090   29.8610   34.1870 H   0  0  0  0  0  0  0  0  0  0  0  0
   32.0740   30.1940   35.4330 S   0  0  0  0  0  0  0  0  0  0  0  0
   32.0900   29.0210   36.3700 O   0  0  0  0  0  0  0  0  0  0  0  0
   30.6100   30.5820   35.2980 O   0  0  0  0  0  0  0  0  0  0  0  0
  1  5  1  0  0  0  0
  1 10  1  0  0  0  0
  2  1  2  0  0  0  0
  3  2  1  0  0  0  0
  3  4  1  0  0  0  0
  4  5  2  0  0  0  0
  6  2  1  0  0  0  0
  7  3  1  0  0  0  0
  8 11  1  6  0  0  0
  8 10  1  0  0  0  0
  8 18  1  0  0  0  0
  8  9  1  0  0  0  0
  9 12  1  0  0  0  0
 10 14  1  1  0  0  0
 10  9  1  0  0  0  0
 13  9  1  0  0  0  0
 15 16  1  0  0  0  0
 16 20  1  0  0  0  0
 17 16  2  0  0  0  0
 17 21  1  0  0  0  0
 18 17  1  0  0  0  0
 19 18  1  0  0  0  0
 19 15  2  0  0  0  0
 22 23  1  0  0  0  0
 23 15  1  0  0  0  0
 23 24  2  0  0  0  0
 24 29  1  0  0  0  0
 25 24  1  0  0  0  0
 26 30  1  0  0  0  0
 26 25  2  0  0  0  0
 27 22  2  0  0  0  0
 27 26  1  0  0  0  0
 28 22  1  0  0  0  0
 31  4  1  0  0  0  0
 31 35  1  0  0  0  0
 32 33  1  0  0  0  0
 32 31  2  0  0  0  0
 33 34  1  0  0  0  0
 34 35  2  0  0  0  0
 34 38  1  0  0  0  0
 36 32  1  0  0  0  0
 37 44  1  0  0  0  0
 38 37  2  0  0  0  0
 38 39  1  0  0  0  0
 39 41  2  0  0  0  0
 40 39  1  0  0  0  0
 41 42  1  0  0  0  0
 41 43  1  0  0  0  0
 44 43  2  0  0  0  0
 45 46  1  0  0  0  0
 46 37  1  0  0  0  0
 46 47  2  0  0  0  0
 48 46  2  0  0  0  0
M  END
>  <minimizedAffinity>
-6.31476688

$$$$

 OpenBabel03272500523D

 48 53  0  0  1  0  0  0  0  0999 V2000
   36.8630   27.5130   33.7680 C   0  0  0  0  0  0  0  0  0  0  0  0
   36.4110   27.3180   32.4730 C   0  0  0  0  0  0  0  0  0  0  0  0
   35.4360   28.2360   32.2350 N   0  0  0  0  0  0  0  0  0  0  0  0
   35.2700   28.9930   33.3440 C   0  0  0  0  0  0  0  0  0  0  0  0
   36.1410   28.5480   34.2730 N   0  0  0  0  0  0  0  0  0  0  0  0
   36.7550   26.5710   31.7430 H   0  0  0  0  0  0  0  0  0  0  0  0
   34.9160   28.3210   31.3360 H   0  0  0  0  0  0  0  0  0  0  0  0
   37.7430   26.2720   35.8280 C   0  0  1  0  0  0  0  0  0  0  0  0
   38.8130   27.3660   35.4570 C   0  0  0  0  0  0  0  0  0  0  0  0
   37.9320   26.7010   34.4430 C   0  0  2  0  0  0  0  0  0  0  0  0
   36.8760   26.6800   36.4070 H   0  0  0  0  0  0  0  0  0  0  0  0
   39.8590   27.0370   35.5600 H   0  0  0  0  0  0  0  0  0  0  0  0
   38.5350   28.4030   35.7160 H   0  0  0  0  0  0  0  0  0  0  0  0
   38.4830   26.0400   33.7450 H   0  0  0  0  0  0  0  0  0  0  0  0
   39.6000   23.2570   36.4730 C   0  0  0  0  0  0  0  0  0  0  0  0
   38.4990   23.0590   37.2960 C   0  0  0  0  0  0  0  0  0  0  0  0
   37.6480   24.1770   37.1600 C   0  0  0  0  0  0  0  0  0  0  0  0
   38.2470   24.9940   36.2810 N   0  0  0  0  0  0  0  0  0  0  0  0
   39.3690   24.4270   35.9100 N   0  0  0  0  0  0  0  0  0  0  0  0
   38.2170   22.2560   37.9640 H   0  0  0  0  0  0  0  0  0  0  0  0
   36.7060   24.3390   37.6640 H   0  0  0  0  0  0  0  0  0  0  0  0
   41.2500   21.9710   35.0840 C   0  0  0  0  0  0  0  0  0  0  0  0
   40.6810   22.3210   36.3510 C   0  0  0  0  0  0  0  0  0  0  0  0
   41.2170   21.7170   37.4470 C   0  0  0  0  0  0  0  0  0  0  0  0
   42.2420   20.8330   37.2920 N   0  0  0  0  0  0  0  0  0  0  0  0
   42.7500   20.5310   36.0800 C   0  0  0  0  0  0  0  0  0  0  0  0
   42.2500   21.1040   34.9620 N   0  0  0  0  0  0  0  0  0  0  0  0
   40.8130   22.4600   34.2210 H   0  0  0  0  0  0  0  0  0  0  0  0
   40.8150   21.9530   38.4300 H   0  0  0  0  0  0  0  0  0  0  0  0
   43.5610   19.8100   36.1420 H   0  0  0  0  0  0  0  0  0  0  0  0
   34.3000   30.1140   33.5270 C   0  0  0  0  0  0  0  0  0  0  0  0
   34.7310   31.3940   33.9230 C   0  0  0  0  0  0  0  0  0  0  0  0
   33.1580   32.3290   33.9910 S   0  0  0  0  0  0  0  0  0  0  0  0
   32.1750   30.8070   33.4640 C   0  0  0  0  0  0  0  0  0  0  0  0
   33.0070   30.0550   33.3590 N   0  0  0  0  0  0  0  0  0  0  0  0
   35.7340   31.7440   34.1350 H   0  0  0  0  0  0  0  0  0  0  0  0
   29.8560   30.6640   34.3690 C   0  0  0  0  0  0  0  0  0  0  0  0
   30.7170   30.8800   33.3140 C   0  0  0  0  0  0  0  0  0  0  0  0
   30.1550   31.1740   32.0720 C   0  0  0  0  0  0  0  0  0  0  0  0
   30.7960   31.3500   31.2180 H   0  0  0  0  0  0  0  0  0  0  0  0
   28.7980   31.2630   31.8390 C   0  0  0  0  0  0  0  0  0  0  0  0
   28.4050   31.4940   30.8670 H   0  0  0  0  0  0  0  0  0  0  0  0
   27.9730   31.0420   32.9160 C   0  0  0  0  0  3  0  0  0  0  0  0
   28.4960   30.7480   34.1570 C   0  0  0  0  0  3  0  0  0  0  0  0
   31.8760   29.7430   35.6900 H   0  0  0  0  0  0  0  0  0  0  0  0
   30.6490   30.3010   35.8820 S   0  0  0  0  0  0  0  0  0  0  0  0
   30.7100   31.5080   36.7730 O   0  0  0  0  0  0  0  0  0  0  0  0
   29.8170   29.2800   36.6430 O   0  0  0  0  0  0  0  0  0  0  0  0
  1  5  1  0  0  0  0
  1 10  1  0  0  0  0
  2  1  2  0  0  0  0
  3  2  1  0  0  0  0
  3  4  1  0  0  0  0
  4 31  1  0  0  0  0
  4  5  2  0  0  0  0
  6  2  1  0  0  0  0
  7  3  1  0  0  0  0
  8 18  1  0  0  0  0
  8 11  1  1  0  0  0
  9 12  1  0  0  0  0
  9 13  1  0  0  0  0
  9  8  1  0  0  0  0
 10 14  1  6  0  0  0
 10  9  1  0  0  0  0
 10  8  1  0  0  0  0
 15 16  1  0  0  0  0
 16 20  1  0  0  0  0
 17 16  2  0  0  0  0
 17 21  1  0  0  0  0
 18 17  1  0  0  0  0
 19 18  1  0  0  0  0
 19 15  2  0  0  0  0
 22 23  1  0  0  0  0
 23 15  1  0  0  0  0
 23 24  2  0  0  0  0
 24 29  1  0  0  0  0
 25 24  1  0  0  0  0
 26 30  1  0  0  0  0
 26 25  2  0  0  0  0
 27 22  2  0  0  0  0
 27 26  1  0  0  0  0
 28 22  1  0  0  0  0
 31 32  2  0  0  0  0
 32 33  1  0  0  0  0
 32 36  1  0  0  0  0
 34 33  1  0  0  0  0
 35 34  2  0  0  0  0
 35 31  1  0  0  0  0
 37 46  1  0  0  0  0
 38 34  1  0  0  0  0
 38 37  2  0  0  0  0
 39 38  1  0  0  0  0
 40 39  1  0  0  0  0
 41 39  2  0  0  0  0
 41 43  1  0  0  0  0
 42 41  1  0  0  0  0
 43 44  2  0  0  0  0
 44 37  1  0  0  0  0
 45 46  1  0  0  0  0
 46 48  2  0  0  0  0
 46 47  2  0  0  0  0
M  END
>  <minimizedAffinity>
-6.10820246

$$$$

 OpenBabel03272500523D

 48 53  0  0  1  0  0  0  0  0999 V2000
   36.2750   29.0870   31.3640 C   0  0  0  0  0  0  0  0  0  0  0  0
   36.7550   29.1760   30.0680 C   0  0  0  0  0  0  0  0  0  0  0  0
   37.2780   27.9650   29.7380 N   0  0  0  0  0  0  0  0  0  0  0  0
   37.1370   27.1280   30.7920 C   0  0  0  0  0  0  0  0  0  0  0  0
   36.5260   27.8160   31.7780 N   0  0  0  0  0  0  0  0  0  0  0  0
   36.7330   30.0480   29.3980 H   0  0  0  0  0  0  0  0  0  0  0  0
   37.7120   27.7430   28.8180 H   0  0  0  0  0  0  0  0  0  0  0  0
   34.3630   29.9720   32.8200 C   0  0  1  0  0  0  0  0  0  0  0  0
   34.4290   30.8860   31.5390 C   0  0  0  0  0  0  0  0  0  0  0  0
   35.6290   30.2080   32.1280 C   0  0  2  0  0  0  0  0  0  0  0  0
   33.8240   29.0060   32.6470 H   0  0  0  0  0  0  0  0  0  0  0  0
   34.2670   31.9580   31.7330 H   0  0  0  0  0  0  0  0  0  0  0  0
   34.0350   30.4290   30.6150 H   0  0  0  0  0  0  0  0  0  0  0  0
   36.3610   30.9120   32.5700 H   0  0  0  0  0  0  0  0  0  0  0  0
   34.0720   32.1940   35.6370 C   0  0  0  0  0  0  0  0  0  0  0  0
   33.3320   31.1110   36.0900 C   0  0  0  0  0  0  0  0  0  0  0  0
   33.3440   30.1230   35.0810 C   0  0  0  0  0  0  0  0  0  0  0  0
   34.0740   30.6290   34.0760 N   0  0  0  0  0  0  0  0  0  0  0  0
   34.4740   31.8240   34.4360 N   0  0  0  0  0  0  0  0  0  0  0  0
   32.7950   30.9220   37.0100 H   0  0  0  0  0  0  0  0  0  0  0  0
   32.8620   29.1570   35.1150 H   0  0  0  0  0  0  0  0  0  0  0  0
   35.1280   34.4510   35.9450 C   0  0  0  0  0  0  0  0  0  0  0  0
   34.2810   33.3910   36.4010 C   0  0  0  0  0  0  0  0  0  0  0  0
   33.6740   33.5710   37.6070 C   0  0  0  0  0  0  0  0  0  0  0  0
   33.8950   34.7210   38.3030 N   0  0  0  0  0  0  0  0  0  0  0  0
   34.7020   35.6960   37.8390 C   0  0  0  0  0  0  0  0  0  0  0  0
   35.3270   35.5630   36.6470 N   0  0  0  0  0  0  0  0  0  0  0  0
   35.6030   34.2930   34.9840 H   0  0  0  0  0  0  0  0  0  0  0  0
   33.0220   32.7910   37.9920 H   0  0  0  0  0  0  0  0  0  0  0  0
   34.7640   36.5390   38.5220 H   0  0  0  0  0  0  0  0  0  0  0  0
   37.5770   25.7030   30.8700 C   0  0  0  0  0  0  0  0  0  0  0  0
   38.7490   25.2650   30.2230 C   0  0  0  0  0  0  0  0  0  0  0  0
   38.7830   23.4830   30.6460 S   0  0  0  0  0  0  0  0  0  0  0  0
   37.1850   23.6400   31.6380 C   0  0  0  0  0  0  0  0  0  0  0  0
   36.9690   24.7370   31.5030 N   0  0  0  0  0  0  0  0  0  0  0  0
   39.4550   25.8310   29.6270 H   0  0  0  0  0  0  0  0  0  0  0  0
   37.0690   22.0070   33.5190 C   0  0  0  0  0  0  0  0  0  0  0  0
   36.6070   22.4670   32.3040 C   0  0  0  0  0  0  0  0  0  0  0  0
   35.5530   21.7720   31.7100 C   0  0  0  0  0  0  0  0  0  0  0  0
   35.1610   22.1010   30.7570 H   0  0  0  0  0  0  0  0  0  0  0  0
   34.9500   20.6630   32.2630 C   0  0  0  0  0  0  0  0  0  0  0  0
   34.1390   20.1570   31.7740 H   0  0  0  0  0  0  0  0  0  0  0  0
   35.4390   20.2360   33.4750 C   0  0  0  0  0  3  0  0  0  0  0  0
   36.4800   20.8990   34.0890 C   0  0  0  0  0  3  0  0  0  0  0  0
   39.1970   23.4380   33.2110 H   0  0  0  0  0  0  0  0  0  0  0  0
   38.3890   22.9370   34.1850 S   0  0  0  0  0  0  0  0  0  0  0  0
   37.8930   24.0070   35.1140 O   0  0  0  0  0  0  0  0  0  0  0  0
   39.2510   22.0260   35.0440 O   0  0  0  0  0  0  0  0  0  0  0  0
  1  5  1  0  0  0  0
  1 10  1  0  0  0  0
  2  1  2  0  0  0  0
  3  2  1  0  0  0  0
  3  4  1  0  0  0  0
  4 31  1  0  0  0  0
  4  5  2  0  0  0  0
  6  2  1  0  0  0  0
  7  3  1  0  0  0  0
  8 11  1  6  0  0  0
  8 18  1  0  0  0  0
  9 12  1  0  0  0  0
  9 10  1  0  0  0  0
  9  8  1  0  0  0  0
 10 14  1  1  0  0  0
 10  8  1  0  0  0  0
 13  9  1  0  0  0  0
 15 16  1  0  0  0  0
 15 23  1  0  0  0  0
 16 20  1  0  0  0  0
 17 21  1  0  0  0  0
 17 16  2  0  0  0  0
 18 19  1  0  0  0  0
 18 17  1  0  0  0  0
 19 15  2  0  0  0  0
 22 23  2  0  0  0  0
 22 27  1  0  0  0  0
 23 24  1  0  0  0  0
 24 29  1  0  0  0  0
 24 25  2  0  0  0  0
 26 25  1  0  0  0  0
 26 30  1  0  0  0  0
 27 26  2  0  0  0  0
 28 22  1  0  0  0  0
 31 35  1  0  0  0  0
 32 33  1  0  0  0  0
 32 31  2  0  0  0  0
 33 34  1  0  0  0  0
 34 38  1  0  0  0  0
 35 34  2  0  0  0  0
 36 32  1  0  0  0  0
 37 44  1  0  0  0  0
 37 46  1  0  0  0  0
 38 37  2  0  0  0  0
 39 41  2  0  0  0  0
 39 38  1  0  0  0  0
 40 39  1  0  0  0  0
 41 43  1  0  0  0  0
 42 41  1  0  0  0  0
 43 44  2  0  0  0  0
 45 46  1  0  0  0  0
 46 48  2  0  0  0  0
 46 47  2  0  0  0  0
M  END
>  <minimizedAffinity>
-6.0957036

$$$$

 OpenBabel03272500523D

 48 53  0  0  1  0  0  0  0  0999 V2000
   38.3520   25.4290   34.6010 C   0  0  0  0  0  0  0  0  0  0  0  0
   37.9480   25.0090   33.3440 C   0  0  0  0  0  0  0  0  0  0  0  0
   37.1690   25.9890   32.8130 N   0  0  0  0  0  0  0  0  0  0  0  0
   37.0780   27.0040   33.7030 C   0  0  0  0  0  0  0  0  0  0  0  0
   37.8000   26.6570   34.7890 N   0  0  0  0  0  0  0  0  0  0  0  0
   38.1940   24.0650   32.8360 H   0  0  0  0  0  0  0  0  0  0  0  0
   36.7260   25.9430   31.8710 H   0  0  0  0  0  0  0  0  0  0  0  0
   39.7940   23.3710   35.0970 C   0  0  1  0  0  0  0  0  0  0  0  0
   38.6500   23.4050   36.1790 C   0  0  0  0  0  0  0  0  0  0  0  0
   39.2160   24.6380   35.5420 C   0  0  2  0  0  0  0  0  0  0  0  0
   39.4640   22.9410   34.1170 H   0  0  0  0  0  0  0  0  0  0  0  0
   38.9730   23.1270   37.1950 H   0  0  0  0  0  0  0  0  0  0  0  0
   37.6520   23.1020   35.8180 H   0  0  0  0  0  0  0  0  0  0  0  0
   39.7900   25.2740   36.2450 H   0  0  0  0  0  0  0  0  0  0  0  0
   42.7710   21.6180   36.1060 C   0  0  0  0  0  0  0  0  0  0  0  0
   43.1840   22.9340   36.2670 C   0  0  0  0  0  0  0  0  0  0  0  0
   42.1080   23.7750   35.9050 C   0  0  0  0  0  0  0  0  0  0  0  0
   41.1060   22.9590   35.5470 N   0  0  0  0  0  0  0  0  0  0  0  0
   41.5290   21.7250   35.6770 N   0  0  0  0  0  0  0  0  0  0  0  0
   44.1150   23.3770   36.5950 H   0  0  0  0  0  0  0  0  0  0  0  0
   42.0980   24.8550   35.9160 H   0  0  0  0  0  0  0  0  0  0  0  0
   45.0060   20.4740   36.0840 C   0  0  0  0  0  0  0  0  0  0  0  0
   43.6060   20.4840   36.3820 C   0  0  0  0  0  0  0  0  0  0  0  0
   43.0950   19.3530   36.9440 C   0  0  0  0  0  0  0  0  0  0  0  0
   43.9180   18.2970   37.1910 N   0  0  0  0  0  0  0  0  0  0  0  0
   45.2330   18.3280   36.8950 C   0  0  0  0  0  0  0  0  0  0  0  0
   45.7860   19.4280   36.3350 N   0  0  0  0  0  0  0  0  0  0  0  0
   45.3980   21.3810   35.6370 H   0  0  0  0  0  0  0  0  0  0  0  0
   42.0360   19.3170   37.1870 H   0  0  0  0  0  0  0  0  0  0  0  0
   45.7360   17.4010   37.1580 H   0  0  0  0  0  0  0  0  0  0  0  0
   36.3160   28.2770   33.5360 C   0  0  0  0  0  0  0  0  0  0  0  0
   36.0640   28.8150   32.2590 C   0  0  0  0  0  0  0  0  0  0  0  0
   35.1280   30.3380   32.6570 S   0  0  0  0  0  0  0  0  0  0  0  0
   35.2400   29.9810   34.5070 C   0  0  0  0  0  0  0  0  0  0  0  0
   35.8200   29.0150   34.4920 N   0  0  0  0  0  0  0  0  0  0  0  0
   36.3470   28.4310   31.2860 H   0  0  0  0  0  0  0  0  0  0  0  0
   33.3230   30.7840   35.8830 C   0  0  0  0  0  0  0  0  0  0  0  0
   34.6360   30.8990   35.4780 C   0  0  0  0  0  0  0  0  0  0  0  0
   35.3910   31.9350   36.0280 C   0  0  0  0  0  0  0  0  0  0  0  0
   36.4260   32.0600   35.7380 H   0  0  0  0  0  0  0  0  0  0  0  0
   34.9060   32.8420   36.9460 C   0  0  0  0  0  0  0  0  0  0  0  0
   35.5220   33.6260   37.3470 H   0  0  0  0  0  0  0  0  0  0  0  0
   33.5930   32.6940   37.3240 C   0  0  0  0  0  3  0  0  0  0  0  0
   32.8180   31.6820   36.7990 C   0  0  0  0  0  3  0  0  0  0  0  0
   33.2840   28.6480   34.4310 H   0  0  0  0  0  0  0  0  0  0  0  0
   32.4560   29.4610   35.1420 S   0  0  0  0  0  0  0  0  0  0  0  0
   31.6460   28.7020   36.1520 O   0  0  0  0  0  0  0  0  0  0  0  0
   31.4440   30.0250   34.1560 O   0  0  0  0  0  0  0  0  0  0  0  0
  1  5  1  0  0  0  0
  1 10  1  0  0  0  0
  2  1  2  0  0  0  0
  3  2  1  0  0  0  0
  3  4  1  0  0  0  0
  4  5  2  0  0  0  0
  6  2  1  0  0  0  0
  7  3  1  0  0  0  0
  8 11  1  6  0  0  0
  8 10  1  0  0  0  0
  8 18  1  0  0  0  0
  8  9  1  0  0  0  0
  9 12  1  0  0  0  0
 10  9  1  0  0  0  0
 10 14  1  1  0  0  0
 13  9  1  0  0  0  0
 15 16  1  0  0  0  0
 15 23  1  0  0  0  0
 16 20  1  0  0  0  0
 17 21  1  0  0  0  0
 17 16  2  0  0  0  0
 18 19  1  0  0  0  0
 18 17  1  0  0  0  0
 19 15  2  0  0  0  0
 22 27  2  0  0  0  0
 22 23  1  0  0  0  0
 23 24  2  0  0  0  0
 24 29  1  0  0  0  0
 24 25  1  0  0  0  0
 26 30  1  0  0  0  0
 26 25  2  0  0  0  0
 27 26  1  0  0  0  0
 28 22  1  0  0  0  0
 31  4  1  0  0  0  0
 31 35  1  0  0  0  0
 32 33  1  0  0  0  0
 32 31  2  0  0  0  0
 33 34  1  0  0  0  0
 34 38  1  0  0  0  0
 35 34  2  0  0  0  0
 36 32  1  0  0  0  0
 37 44  1  0  0  0  0
 38 37  2  0  0  0  0
 38 39  1  0  0  0  0
 39 41  2  0  0  0  0
 40 39  1  0  0  0  0
 41 43  1  0  0  0  0
 41 42  1  0  0  0  0
 44 43  2  0  0  0  0
 45 46  1  0  0  0  0
 46 37  1  0  0  0  0
 46 47  2  0  0  0  0
 48 46  2  0  0  0  0
M  END
>  <minimizedAffinity>
-6.09326982

$$$$

 OpenBabel03272500523D

 48 53  0  0  1  0  0  0  0  0999 V2000
   36.1300   28.8900   32.3710 C   0  0  0  0  0  0  0  0  0  0  0  0
   36.2790   28.5060   31.0490 C   0  0  0  0  0  0  0  0  0  0  0  0
   36.6790   27.2060   31.0410 N   0  0  0  0  0  0  0  0  0  0  0  0
   36.7830   26.7730   32.3190 C   0  0  0  0  0  0  0  0  0  0  0  0
   36.4470   27.8030   33.1240 N   0  0  0  0  0  0  0  0  0  0  0  0
   36.1130   29.1120   30.1470 H   0  0  0  0  0  0  0  0  0  0  0  0
   36.8690   26.6550   30.1770 H   0  0  0  0  0  0  0  0  0  0  0  0
   34.7180   30.3880   33.8960 C   0  0  1  0  0  0  0  0  0  0  0  0
   34.3800   30.7900   32.4110 C   0  0  0  0  0  0  0  0  0  0  0  0
   35.7150   30.2580   32.8340 C   0  0  2  0  0  0  0  0  0  0  0  0
   34.1740   29.4720   34.2410 H   0  0  0  0  0  0  0  0  0  0  0  0
   34.2590   31.8720   32.2460 H   0  0  0  0  0  0  0  0  0  0  0  0
   33.7390   30.0760   31.8650 H   0  0  0  0  0  0  0  0  0  0  0  0
   36.5300   31.0060   32.7670 H   0  0  0  0  0  0  0  0  0  0  0  0
   34.1370   33.0130   36.2880 C   0  0  0  0  0  0  0  0  0  0  0  0
   35.5240   33.0220   36.2320 C   0  0  0  0  0  0  0  0  0  0  0  0
   35.9290   32.0270   35.3170 C   0  0  0  0  0  0  0  0  0  0  0  0
   34.8010   31.4630   34.8600 N   0  0  0  0  0  0  0  0  0  0  0  0
   33.7910   32.0600   35.4450 N   0  0  0  0  0  0  0  0  0  0  0  0
   36.2750   33.6170   36.7350 H   0  0  0  0  0  0  0  0  0  0  0  0
   36.9430   31.7730   35.0420 H   0  0  0  0  0  0  0  0  0  0  0  0
   31.9530   34.0470   36.9690 C   0  0  0  0  0  0  0  0  0  0  0  0
   33.3680   33.8960   37.1180 C   0  0  0  0  0  0  0  0  0  0  0  0
   33.9600   34.6390   38.0940 C   0  0  0  0  0  0  0  0  0  0  0  0
   33.1980   35.4660   38.8620 N   0  0  0  0  0  0  0  0  0  0  0  0
   31.8660   35.5790   38.6900 C   0  0  0  0  0  0  0  0  0  0  0  0
   31.2330   34.8630   37.7330 N   0  0  0  0  0  0  0  0  0  0  0  0
   31.4950   33.4490   36.1880 H   0  0  0  0  0  0  0  0  0  0  0  0
   35.0340   34.5560   38.2430 H   0  0  0  0  0  0  0  0  0  0  0  0
   31.4190   36.2830   39.3870 H   0  0  0  0  0  0  0  0  0  0  0  0
   37.1980   25.4130   32.7740 C   0  0  0  0  0  0  0  0  0  0  0  0
   36.9470   24.2720   31.9870 C   0  0  0  0  0  0  0  0  0  0  0  0
   37.6460   22.9290   33.0180 S   0  0  0  0  0  0  0  0  0  0  0  0
   38.1650   24.1590   34.3530 C   0  0  0  0  0  0  0  0  0  0  0  0
   37.8050   25.1220   33.8920 N   0  0  0  0  0  0  0  0  0  0  0  0
   36.4650   24.2000   31.0200 H   0  0  0  0  0  0  0  0  0  0  0  0
   40.1830   23.3660   35.5840 C   0  0  0  0  0  0  0  0  0  0  0  0
   38.8430   23.6930   35.5670 C   0  0  0  0  0  0  0  0  0  0  0  0
   38.1340   23.5670   36.7620 C   0  0  0  0  0  0  0  0  0  0  0  0
   37.0810   23.8140   36.7920 H   0  0  0  0  0  0  0  0  0  0  0  0
   38.6900   23.1380   37.9490 C   0  0  0  0  0  0  0  0  0  0  0  0
   38.1090   23.0550   38.8480 H   0  0  0  0  0  0  0  0  0  0  0  0
   40.0270   22.8220   37.9240 C   0  0  0  0  0  3  0  0  0  0  0  0
   40.7570   22.9350   36.7600 C   0  0  0  0  0  3  0  0  0  0  0  0
   40.1670   23.2480   33.0030 H   0  0  0  0  0  0  0  0  0  0  0  0
   40.9880   23.5540   34.0450 S   0  0  0  0  0  0  0  0  0  0  0  0
   41.5930   24.9210   33.9060 O   0  0  0  0  0  0  0  0  0  0  0  0
   42.1590   22.5860   33.9790 O   0  0  0  0  0  0  0  0  0  0  0  0
  1 10  1  0  0  0  0
  1  5  1  0  0  0  0
  2  1  2  0  0  0  0
  3  2  1  0  0  0  0
  3  4  1  0  0  0  0
  4 31  1  0  0  0  0
  4  5  2  0  0  0  0
  6  2  1  0  0  0  0
  7  3  1  0  0  0  0
  8 11  1  1  0  0  0
  8 18  1  0  0  0  0
  9 10  1  0  0  0  0
  9  8  1  0  0  0  0
 10 14  1  1  0  0  0
 10  8  1  0  0  0  0
 12  9  1  0  0  0  0
 13  9  1  0  0  0  0
 15 23  1  0  0  0  0
 16 15  1  0  0  0  0
 16 20  1  0  0  0  0
 17 16  2  0  0  0  0
 18 17  1  0  0  0  0
 18 19  1  0  0  0  0
 19 15  2  0  0  0  0
 21 17  1  0  0  0  0
 22 23  2  0  0  0  0
 22 27  1  0  0  0  0
 23 24  1  0  0  0  0
 24 29  1  0  0  0  0
 24 25  2  0  0  0  0
 26 25  1  0  0  0  0
 26 30  1  0  0  0  0
 27 26  2  0  0  0  0
 28 22  1  0  0  0  0
 31 35  1  0  0  0  0
 32 31  2  0  0  0  0
 32 33  1  0  0  0  0
 33 34  1  0  0  0  0
 34 38  1  0  0  0  0
 35 34  2  0  0  0  0
 36 32  1  0  0  0  0
 37 44  1  0  0  0  0
 38 37  2  0  0  0  0
 38 39  1  0  0  0  0
 39 40  1  0  0  0  0
 39 41  2  0  0  0  0
 41 42  1  0  0  0  0
 43 41  1  0  0  0  0
 44 43  2  0  0  0  0
 45 46  1  0  0  0  0
 46 37  1  0  0  0  0
 47 46  2  0  0  0  0
 48 46  2  0  0  0  0
M  END
>  <minimizedAffinity>
-6.0769124

$$$$

 OpenBabel03272500523D

 48 53  0  0  1  0  0  0  0  0999 V2000
   36.4260   27.6280   32.5100 C   0  0  0  0  0  0  0  0  0  0  0  0
   36.4110   27.1390   31.2150 C   0  0  0  0  0  0  0  0  0  0  0  0
   36.7850   25.8320   31.2640 N   0  0  0  0  0  0  0  0  0  0  0  0
   37.0310   25.4980   32.5520 C   0  0  0  0  0  0  0  0  0  0  0  0
   36.8100   26.5950   33.3050 N   0  0  0  0  0  0  0  0  0  0  0  0
   36.1500   27.6770   30.2920 H   0  0  0  0  0  0  0  0  0  0  0  0
   36.8620   25.2110   30.4310 H   0  0  0  0  0  0  0  0  0  0  0  0
   34.9300   29.2920   33.7580 C   0  0  1  0  0  0  0  0  0  0  0  0
   34.9350   29.7220   32.2420 C   0  0  0  0  0  0  0  0  0  0  0  0
   36.0910   29.0390   32.9070 C   0  0  2  0  0  0  0  0  0  0  0  0
   34.2260   28.4490   33.9760 H   0  0  0  0  0  0  0  0  0  0  0  0
   34.9750   30.8100   32.0760 H   0  0  0  0  0  0  0  0  0  0  0  0
   34.3330   29.0850   31.5710 H   0  0  0  0  0  0  0  0  0  0  0  0
   36.9860   29.6850   33.0100 H   0  0  0  0  0  0  0  0  0  0  0  0
   34.2140   32.0050   36.0120 C   0  0  0  0  0  0  0  0  0  0  0  0
   35.5650   31.8110   36.2680 C   0  0  0  0  0  0  0  0  0  0  0  0
   36.0160   30.7550   35.4460 C   0  0  0  0  0  0  0  0  0  0  0  0
   34.9490   30.3560   34.7370 N   0  0  0  0  0  0  0  0  0  0  0  0
   33.9320   31.1010   35.0940 N   0  0  0  0  0  0  0  0  0  0  0  0
   36.2620   32.2970   36.9370 H   0  0  0  0  0  0  0  0  0  0  0  0
   37.0180   30.3530   35.4000 H   0  0  0  0  0  0  0  0  0  0  0  0
   32.0000   33.0960   36.4730 C   0  0  0  0  0  0  0  0  0  0  0  0
   33.4150   33.0010   36.6670 C   0  0  0  0  0  0  0  0  0  0  0  0
   33.9760   33.9110   37.5110 C   0  0  0  0  0  0  0  0  0  0  0  0
   33.1860   34.8420   38.1150 N   0  0  0  0  0  0  0  0  0  0  0  0
   31.8550   34.8970   37.9050 C   0  0  0  0  0  0  0  0  0  0  0  0
   31.2530   34.0160   37.0740 N   0  0  0  0  0  0  0  0  0  0  0  0
   31.5680   32.3650   35.7980 H   0  0  0  0  0  0  0  0  0  0  0  0
   35.0480   33.8760   37.6880 H   0  0  0  0  0  0  0  0  0  0  0  0
   31.3840   35.7000   38.4650 H   0  0  0  0  0  0  0  0  0  0  0  0
   37.4730   24.1660   33.0630 C   0  0  0  0  0  0  0  0  0  0  0  0
   38.4470   24.0600   34.0750 C   0  0  0  0  0  0  0  0  0  0  0  0
   38.5920   22.2470   34.2860 S   0  0  0  0  0  0  0  0  0  0  0  0
   37.2930   21.9400   32.9520 C   0  0  0  0  0  0  0  0  0  0  0  0
   37.0460   23.0000   32.6610 N   0  0  0  0  0  0  0  0  0  0  0  0
   38.9790   24.8460   34.5990 H   0  0  0  0  0  0  0  0  0  0  0  0
   37.6320   19.8060   31.7090 C   0  0  0  0  0  0  0  0  0  0  0  0
   36.9040   20.5710   32.5950 C   0  0  0  0  0  0  0  0  0  0  0  0
   35.7620   19.9980   33.1550 C   0  0  0  0  0  0  0  0  0  0  0  0
   35.1620   20.5650   33.8550 H   0  0  0  0  0  0  0  0  0  0  0  0
   35.3230   18.7210   32.8780 C   0  0  0  0  0  0  0  0  0  0  0  0
   34.4380   18.3160   33.3310 H   0  0  0  0  0  0  0  0  0  0  0  0
   36.0760   17.9900   31.9900 C   0  0  0  0  0  3  0  0  0  0  0  0
   37.2100   18.5260   31.4180 C   0  0  0  0  0  3  0  0  0  0  0  0
   39.5120   21.5670   31.8990 H   0  0  0  0  0  0  0  0  0  0  0  0
   39.0420   20.6050   31.0590 S   0  0  0  0  0  0  0  0  0  0  0  0
   40.1070   19.6170   30.6780 O   0  0  0  0  0  0  0  0  0  0  0  0
   38.6600   21.3040   29.7630 O   0  0  0  0  0  0  0  0  0  0  0  0
  1 10  1  0  0  0  0
  1  5  1  0  0  0  0
  2  3  1  0  0  0  0
  2  1  2  0  0  0  0
  3  4  1  0  0  0  0
  4 31  1  0  0  0  0
  4  5  2  0  0  0  0
  6  2  1  0  0  0  0
  7  3  1  0  0  0  0
  8 11  1  1  0  0  0
  8 18  1  0  0  0  0
  9 10  1  0  0  0  0
  9  8  1  0  0  0  0
 10 14  1  1  0  0  0
 10  8  1  0  0  0  0
 12  9  1  0  0  0  0
 13  9  1  0  0  0  0
 15 16  1  0  0  0  0
 15 23  1  0  0  0  0
 16 20  1  0  0  0  0
 17 16  2  0  0  0  0
 18 19  1  0  0  0  0
 18 17  1  0  0  0  0
 19 15  2  0  0  0  0
 21 17  1  0  0  0  0
 22 23  2  0  0  0  0
 22 27  1  0  0  0  0
 23 24  1  0  0  0  0
 24 29  1  0  0  0  0
 24 25  2  0  0  0  0
 26 25  1  0  0  0  0
 26 30  1  0  0  0  0
 27 26  2  0  0  0  0
 28 22  1  0  0  0  0
 31 32  2  0  0  0  0
 32 33  1  0  0  0  0
 32 36  1  0  0  0  0
 34 33  1  0  0  0  0
 35 34  2  0  0  0  0
 35 31  1  0  0  0  0
 37 38  1  0  0  0  0
 38 34  1  0  0  0  0
 38 39  2  0  0  0  0
 39 40  1  0  0  0  0
 41 39  1  0  0  0  0
 41 42  1  0  0  0  0
 43 41  2  0  0  0  0
 44 37  2  0  0  0  0
 44 43  1  0  0  0  0
 46 37  1  0  0  0  0
 46 45  1  0  0  0  0
 47 46  2  0  0  0  0
 48 46  2  0  0  0  0
M  END
>  <minimizedAffinity>
-6.04446077

$$$$
