
 OpenBabel03272505383D

 34 36  0  0  0  0  0  0  0  0999 V2000
   36.1930   30.1880   46.2390 C   0  0  0  0  0  0  0  0  0  0  0  0
   34.9270   29.6720   46.1550 C   0  0  0  0  0  0  0  0  0  0  0  0
   34.4290   29.2040   44.9700 C   0  0  0  0  0  0  0  0  0  0  0  0
   35.1750   29.2250   43.7870 C   0  0  0  0  0  0  0  0  0  0  0  0
   36.4650   29.7440   43.8420 C   0  0  0  0  0  0  0  0  0  0  0  0
   36.8990   30.1950   45.0650 C   0  0  0  0  0  0  0  0  0  0  0  0
   34.2750   29.6140   47.0160 H   0  0  0  0  0  0  0  0  0  0  0  0
   33.4170   28.7910   44.9010 H   0  0  0  0  0  0  0  0  0  0  0  0
   34.7580   28.8490   42.8620 H   0  0  0  0  0  0  0  0  0  0  0  0
   37.0310   29.7580   42.9350 H   0  0  0  0  0  0  0  0  0  0  0  0
   37.1680   30.4310   49.7470 C   0  0  0  0  0  0  0  0  0  0  0  0
   37.7750   31.6860   49.8270 C   0  0  0  0  0  0  0  0  0  0  0  0
   37.8440   32.4470   48.6530 C   0  0  0  0  0  0  0  0  0  0  0  0
   37.3170   31.9120   47.5220 N   0  0  0  0  0  0  0  0  0  0  0  0
   36.7390   30.6960   47.4800 C   0  0  0  0  0  0  0  0  0  0  0  0
   36.6690   29.9630   48.5980 N   0  0  0  0  0  0  0  0  0  0  0  0
   38.1900   32.1080   50.7200 H   0  0  0  0  0  0  0  0  0  0  0  0
   38.3040   33.4300   48.6590 H   0  0  0  0  0  0  0  0  0  0  0  0
   37.0910   29.6080   51.0120 C   0  0  0  0  0  0  0  0  0  0  0  0
   35.7490   29.3320   51.3010 F   0  0  0  0  0  0  0  0  0  0  0  0
   37.8370   28.4970   50.8370 F   0  0  0  0  0  0  0  0  0  0  0  0
   37.5470   30.4120   52.0590 F   0  0  0  0  0  0  0  0  0  0  0  0
   38.4840   31.6010   43.9550 C   0  0  0  0  0  0  0  0  0  0  0  0
   38.2790   30.7240   45.0090 C   0  0  0  0  0  0  0  0  0  0  0  0
   39.3060   30.4280   45.8740 C   0  0  0  0  0  0  0  0  0  0  0  0
   39.0630   29.7450   46.6570 H   0  0  0  0  0  0  0  0  0  0  0  0
   40.5470   31.0020   45.6960 C   0  0  0  0  0  0  0  0  0  0  0  0
   41.3380   30.7520   46.3910 H   0  0  0  0  0  0  0  0  0  0  0  0
   40.8180   31.8860   44.6630 C   0  0  0  0  0  3  0  0  0  0  0  0
   39.7670   32.1470   43.8330 C   0  0  0  0  0  3  0  0  0  0  0  0
   36.3930   30.9570   42.5630 H   0  0  0  0  0  0  0  0  0  0  0  0
   37.2130   32.0290   42.8070 S   0  0  0  0  0  0  0  0  0  0  0  0
   36.4230   33.1520   43.3980 O   0  0  0  0  0  0  0  0  0  0  0  0
   37.8200   32.4800   41.5070 O   0  0  0  0  0  0  0  0  0  0  0  0
  1 15  1  0  0  0  0
  2  1  1  0  0  0  0
  2  7  1  0  0  0  0
  3  2  2  0  0  0  0
  4  5  2  0  0  0  0
  4  3  1  0  0  0  0
  5  6  1  0  0  0  0
  6  1  2  0  0  0  0
  8  3  1  0  0  0  0
  9  4  1  0  0  0  0
 10  5  1  0  0  0  0
 11 12  1  0  0  0  0
 11 19  1  0  0  0  0
 12 17  1  0  0  0  0
 13 18  1  0  0  0  0
 13 12  2  0  0  0  0
 14 13  1  0  0  0  0
 15 14  2  0  0  0  0
 15 16  1  0  0  0  0
 16 11  2  0  0  0  0
 19 20  1  0  0  0  0
 19 22  1  0  0  0  0
 21 19  1  0  0  0  0
 23 24  1  0  0  0  0
 24  6  1  0  0  0  0
 24 25  2  0  0  0  0
 25 26  1  0  0  0  0
 27 25  1  0  0  0  0
 27 28  1  0  0  0  0
 29 27  2  0  0  0  0
 30 23  2  0  0  0  0
 30 29  1  0  0  0  0
 31 32  1  0  0  0  0
 32 33  2  0  0  0  0
 32 23  1  0  0  0  0
 34 32  2  0  0  0  0
M  END
>  <minimizedAffinity>
-6.09246063

>  <minimizedRMSD>
0.803061843

$$$$
