
 OpenBabel03272510013D

 24 25  0  0  0  0  0  0  0  0999 V2000
   38.1320   31.3100   49.9020 C   0  0  0  0  0  0  0  0  0  0  0  0
   38.1580   31.3850   48.4910 C   0  0  0  0  0  0  0  0  0  0  0  0
   37.1480   30.7610   47.7780 C   0  0  0  0  0  0  0  0  0  0  0  0
   36.2060   30.1210   48.5090 N   0  0  0  0  0  0  0  0  0  0  0  0
   36.1900   30.0560   49.8410 C   0  0  0  0  0  0  0  0  0  0  0  0
   37.1550   30.6520   50.5310 N   0  0  0  0  0  0  0  0  0  0  0  0
   38.8740   31.7640   50.5130 H   0  0  0  0  0  0  0  0  0  0  0  0
   38.9550   31.9210   48.0050 H   0  0  0  0  0  0  0  0  0  0  0  0
   38.1510   31.2400   45.5880 C   0  0  0  0  0  0  0  0  0  0  0  0
   37.0900   30.7840   46.3240 C   0  0  0  0  0  0  0  0  0  0  0  0
   35.9930   30.3600   45.6220 C   0  0  0  0  0  0  0  0  0  0  0  0
   35.1070   29.9820   46.1110 H   0  0  0  0  0  0  0  0  0  0  0  0
   35.8890   30.3610   44.2470 C   0  0  0  0  0  0  0  0  0  0  0  0
   35.0190   30.0230   43.7100 H   0  0  0  0  0  0  0  0  0  0  0  0
   36.9530   30.8190   43.5000 C   0  0  0  0  0  3  0  0  0  0  0  0
   38.0630   31.2500   44.1950 C   0  0  0  0  0  3  0  0  0  0  0  0
   39.6470   31.6360   47.6760 H   0  0  0  0  0  0  0  0  0  0  0  0
   39.6240   31.8180   46.3310 S   0  0  0  0  0  0  0  0  0  0  0  0
   39.8940   33.2620   45.9310 O   0  0  0  0  0  0  0  0  0  0  0  0
   40.8070   31.0490   45.7860 O   0  0  0  0  0  0  0  0  0  0  0  0
   35.0810   29.3130   50.4820 C   0  0  0  0  0  0  0  0  0  0  0  0
   35.2950   29.1160   51.8440 F   0  0  0  0  0  0  0  0  0  0  0  0
   33.8720   30.0250   50.3960 F   0  0  0  0  0  0  0  0  0  0  0  0
   34.8280   28.0860   49.9470 F   0  0  0  0  0  0  0  0  0  0  0  0
  1  7  1  0  0  0  0
  1  6  1  0  0  0  0
  2  1  2  0  0  0  0
  3  2  1  0  0  0  0
  3  4  2  0  0  0  0
  4  5  1  0  0  0  0
  5 21  1  0  0  0  0
  5  6  2  0  0  0  0
  8  2  1  0  0  0  0
  9 10  1  0  0  0  0
  9 18  1  0  0  0  0
 10  3  1  0  0  0  0
 11 12  1  0  0  0  0
 11 10  2  0  0  0  0
 13 11  1  0  0  0  0
 14 13  1  0  0  0  0
 15 16  1  0  0  0  0
 15 13  2  0  0  0  0
 16  9  2  0  0  0  0
 18 17  1  0  0  0  0
 19 18  2  0  0  0  0
 20 18  2  0  0  0  0
 21 22  1  0  0  0  0
 23 21  1  0  0  0  0
 24 21  1  0  0  0  0
M  END
>  <minimizedAffinity>
-5.74603987

>  <minimizedRMSD>
1.55454636

$$$$
