
     RDKit          3D

 36 37  0  0  0  0  0  0  0  0999 V2000
   34.8107   28.3828   49.3645 C   0  0  0  0  0  0  0  0  0  0  0  0
   34.1332   28.8100   48.3450 C   0  0  0  0  0  0  0  0  0  0  0  0
   37.2484   30.1476   51.4536 C   0  0  0  0  0  0  0  0  0  0  0  0
   38.0963   30.7253   50.5003 C   0  0  0  0  0  0  0  0  0  0  0  0
   37.8164   30.4986   49.1418 C   0  0  0  0  0  0  0  0  0  0  0  0
   36.7216   29.7202   48.8611 N   0  0  0  0  0  0  0  0  0  0  0  0
   35.9435   29.1914   49.7990 C   0  0  0  0  0  0  0  0  0  0  0  0
   36.2149   29.4106   51.0935 N   0  0  0  0  0  0  0  0  0  0  0  0
   32.9467   28.1386   47.7436 C   0  0  0  0  0  0  0  0  0  0  0  0
   32.2715   27.3605   48.6986 O   0  0  0  0  0  0  0  0  0  0  0  0
   29.8534   26.5700   48.5107 O   0  0  0  0  0  0  0  0  0  0  0  0
   30.6449   27.8536   48.7376 P   0  0  2  0  0  0  0  0  0  0  0  0
   30.3986   28.9648   47.4768 O   0  0  0  0  0  0  0  0  0  0  0  0
   30.2429   28.5470   50.2236 O   0  0  0  0  0  0  0  0  0  0  0  0
   34.4706   27.4405   49.8175 H   0  0  0  0  0  0  0  0  0  0  0  0
   34.4590   29.7443   47.8847 H   0  0  0  0  0  0  0  0  0  0  0  0
   37.5385   30.3741   52.4673 H   0  0  0  0  0  0  0  0  0  0  0  0
   38.9625   31.3397   50.6553 H   0  0  0  0  0  0  0  0  0  0  0  0
   38.3803   30.8784   48.3004 H   0  0  0  0  0  0  0  0  0  0  0  0
   33.3285   27.4249   46.9680 H   0  0  0  0  0  0  0  0  0  0  0  0
   32.3201   28.8695   47.2378 H   0  0  0  0  0  0  0  0  0  0  0  0
   29.8362   29.7116   47.7884 H   0  0  0  0  0  0  0  0  0  0  0  0
   28.1533   31.7981   49.0039 H   0  0  0  0  0  0  0  0  0  0  0  0
   28.5938   30.5077   48.8488 S   0  0  0  0  0  0  0  0  0  0  0  0
   30.0767   30.5327   48.6732 O   0  0  0  0  0  0  0  0  0  0  0  0
   27.9233   29.9611   47.5974 O   0  0  0  0  0  0  0  0  0  0  0  0
   28.1423   29.4939   50.2067 C   0  0  0  0  0  0  0  0  0  0  0  0
   29.0000   28.5697   50.8149 C   0  0  0  0  0  0  0  0  0  0  0  0
   28.5770   27.8061   51.8787 C   0  0  0  0  0  0  0  0  0  0  0  0
   29.2922   27.1191   52.2922 H   0  0  0  0  0  0  0  0  0  0  0  0
   27.2948   27.9559   52.3473 C   0  0  0  0  0  0  0  0  0  0  0  0
   26.9575   27.3576   53.1837 H   0  0  0  0  0  0  0  0  0  0  0  0
   26.4641   28.8551   51.7537 C   0  0  0  0  0  0  0  0  0  0  0  0
   26.8350   29.6470   50.6839 C   0  0  0  0  0  0  0  0  0  0  0  0
   25.4308   29.0099   52.0931 H   0  0  0  0  0  0  0  0  0  0  0  0
   26.1555   30.3713   50.2110 H   0  0  0  0  0  0  0  0  0  0  0  0
  1  7  1  0
  2  1  2  0
  4  3  2  0
  5  4  1  0
  6  5  2  0
  6  7  1  0
  7  8  2  0
  8  3  1  0
  9  2  1  0
  9 10  1  0
 12 10  1  1
 11 12  2  0
 12 14  1  0
 13 12  1  0
  1 15  1  0
  2 16  1  0
  3 17  1  0
  4 18  1  0
  5 19  1  0
  9 20  1  0
  9 21  1  0
 13 22  1  0
 23 24  1  0
 24 25  2  0
 24 26  2  0
 24 27  1  0
 27 28  2  0
 28 29  1  0
 29 30  1  0
 29 31  2  0
 31 32  1  0
 31 33  1  0
 33 34  2  0
 34 27  1  0
 33 35  1  0
 34 36  1  0
 14 28  1  0
M  ISO  8  17  14  18  14  19  14  20   8  21   8  22   3  23  12  30  15
M  ISO  1  32  16
M  END
>  <DihAtoms>  (1) 
11,13,27,26

>  <DihDeg>  (1) 
-179.9996424379697

$$$$
