
     RDKit          3D

 35 37  0  0  0  0  0  0  0  0999 V2000
   37.3149   30.1782   51.4138 C   0  0  0  0  0  0  0  0  0  0  0  0
   38.0178   30.8266   50.3745 C   0  0  0  0  0  0  0  0  0  0  0  0
   37.6088   30.5804   49.0700 C   0  0  0  0  0  0  0  0  0  0  0  0
   36.5747   29.7423   48.9094 N   0  0  0  0  0  0  0  0  0  0  0  0
   35.9004   29.1211   49.8958 C   0  0  0  0  0  0  0  0  0  0  0  0
   36.2904   29.3544   51.1617 N   0  0  0  0  0  0  0  0  0  0  0  0
   38.2338   31.1701   47.9586 N   0  0  0  0  0  0  0  0  0  0  0  0
   38.8971   32.4772   47.9964 C   0  0  0  0  0  0  0  0  0  0  0  0
   39.3468   32.7415   46.5873 C   0  0  0  0  0  0  0  0  0  0  0  0
   38.3669   31.9245   45.8061 C   0  0  0  0  0  0  0  0  0  0  0  0
   38.3605   30.6656   46.6495 C   0  0  2  0  0  0  0  0  0  0  0  0
   37.6573   30.3901   52.4190 H   0  0  0  0  0  0  0  0  0  0  0  0
   38.8470   31.4936   50.5743 H   0  0  0  0  0  0  0  0  0  0  0  0
   35.0806   28.4671   49.6206 H   0  0  0  0  0  0  0  0  0  0  0  0
   39.6950   32.5223   48.7409 H   0  0  0  0  0  0  0  0  0  0  0  0
   38.1325   33.2411   48.2702 H   0  0  0  0  0  0  0  0  0  0  0  0
   39.2053   33.8071   46.2952 H   0  0  0  0  0  0  0  0  0  0  0  0
   40.3886   32.4687   46.3799 H   0  0  0  0  0  0  0  0  0  0  0  0
   37.3857   32.3923   45.7207 H   0  0  0  0  0  0  0  0  0  0  0  0
   38.7715   31.6515   44.7937 H   0  0  0  0  0  0  0  0  0  0  0  0
   39.3778   30.2092   46.5693 H   0  0  0  0  0  0  0  0  0  0  0  0
   39.8612   29.6085   44.3631 H   0  0  0  0  0  0  0  0  0  0  0  0
   39.3421   28.4310   44.8748 S   0  0  0  0  0  0  0  0  0  0  0  0
   40.0737   28.0527   46.1434 O   0  0  0  0  0  0  0  0  0  0  0  0
   39.4751   27.3879   43.8312 O   0  0  0  0  0  0  0  0  0  0  0  0
   37.6497   28.6542   45.3408 C   0  0  0  0  0  0  0  0  0  0  0  0
   37.3407   29.7147   46.1741 C   0  0  0  0  0  0  0  0  0  0  0  0
   35.9984   29.7821   46.4625 C   0  0  0  0  0  0  0  0  0  0  0  0
   35.6239   30.5830   47.0976 H   0  0  0  0  0  0  0  0  0  0  0  0
   35.0288   28.9289   46.0103 C   0  0  0  0  0  0  0  0  0  0  0  0
   33.9803   29.0378   46.2773 H   0  0  0  0  0  0  0  0  0  0  0  0
   35.4081   27.8899   45.1806 C   0  0  0  0  0  0  0  0  0  0  0  0
   36.7338   27.7623   44.8502 C   0  0  0  0  0  0  0  0  0  0  0  0
   34.6792   27.2008   44.8055 H   0  0  0  0  0  0  0  0  0  0  0  0
   37.0624   26.9584   44.2016 H   0  0  0  0  0  0  0  0  0  0  0  0
  2  1  2  0
  3  2  1  0
  4  3  2  0
  4  5  1  0
  5  6  2  0
  6  1  1  0
  7  8  1  0
  7  3  1  0
  9  8  1  0
 10  9  1  0
 10 11  1  0
 11  7  1  0
  1 12  1  0
  2 13  1  0
  5 14  1  0
  8 15  1  0
  8 16  1  0
  9 17  1  0
  9 18  1  0
 10 19  1  0
 10 20  1  0
 11 21  1  1
 22 23  1  0
 23 24  2  0
 23 25  2  0
 23 26  1  0
 26 27  2  0
 27 28  1  0
 28 29  1  0
 28 30  2  0
 30 31  1  0
 30 32  1  0
 32 33  2  0
 33 26  1  0
 32 34  1  0
 33 35  1  0
 11 27  1  0
M  ISO  8  12  14  13  14  14  14  15  13  16  13  17  13  18  13  19  13
M  ISO  5  20  13  21  13  22  12  29  15  31  16
M  END
>  <DihAtoms>  (1) 
9,10,26,25

>  <DihDeg>  (1) 
112.90417602320528

$$$$
