REMARK  Name = 
REMARK  5 active torsions:
REMARK  status: ('A' for Active; 'I' for Inactive)
REMARK    1  A    between atoms: C_5  and  O_7
REMARK    2  A    between atoms: O_7  and  C_8
REMARK    3  A    between atoms: C_8  and  C_9
REMARK    4  A    between atoms: C_9  and  C_22
REMARK    5  A    between atoms: S_18  and  C_21
REMARK                            x       y       z     vdW  Elec       q    Type
REMARK                         _______ _______ _______ _____ _____    ______ ____
ROOT
ATOM      1  C   UNL     1      33.856  27.028  47.929  0.00  0.00    +0.000 C 
ATOM      2  H   UNL     1      34.779  26.397  47.919  0.00  0.00    +0.000 HD
ATOM      3  H   UNL     1      33.160  26.503  48.610  0.00  0.00    +0.000 HD
ENDROOT
BRANCH   1   5
ATOM      4  C   UNL     1      31.872  27.145  46.620  0.00  0.00    +0.000 A 
ATOM      5  C   UNL     1      33.269  27.068  46.569  0.00  0.00    +0.000 A 
ATOM      6  C   UNL     1      33.901  27.041  45.349  0.00  0.00    +0.000 A 
ATOM      7  H   UNL     1      34.976  26.981  45.424  0.00  0.00    +0.000 HD
ATOM      8  C   UNL     1      33.176  27.090  44.180  0.00  0.00    +0.000 A 
ATOM      9  H   UNL     1      33.739  27.065  43.239  0.00  0.00    +0.000 HD
ATOM     10  C   UNL     1      31.800  27.166  44.181  0.00  0.00    +0.000 A 
ATOM     11  C   UNL     1      31.154  27.193  45.422  0.00  0.00    +0.000 A 
BRANCH   4  13
ATOM     12  H   UNL     1      31.499  26.961  49.179  0.00  0.00    +0.000 HD
ATOM     13  S   UNL     1      30.833  27.191  48.008  0.00  0.00    +0.000 S 
ATOM     14  O   UNL     1      30.043  28.477  48.112  0.00  0.00    +0.000 OA
ATOM     15  O   UNL     1      29.856  26.034  47.872  0.00  0.00    +0.000 OA
ENDBRANCH   4  13
ENDBRANCH   1   5
BRANCH   1  16
ATOM     16  C   UNL     1      34.190  28.395  48.450  0.00  0.00    +0.000 C 
ATOM     17  H   UNL     1      34.962  28.812  47.739  0.00  0.00    +0.000 HD
ATOM     18  H   UNL     1      33.330  29.070  48.357  0.00  0.00    +0.000 HD
BRANCH  16  19
ATOM     19  O   UNL     1      34.739  28.317  49.748  0.00  0.00    +0.000 OA
BRANCH  19  24
ATOM     20  C   UNL     1      37.325  30.202  51.424  0.00  0.00    +0.000 A 
ATOM     21  C   UNL     1      38.055  30.656  50.305  0.00  0.00    +0.000 A 
ATOM     22  C   UNL     1      37.614  30.287  49.037  0.00  0.00    +0.000 A 
ATOM     23  N   UNL     1      36.495  29.503  48.961  0.00  0.00    +0.000 NA
ATOM     24  C   UNL     1      35.831  29.094  50.057  0.00  0.00    +0.000 A 
ATOM     25  N   UNL     1      36.252  29.448  51.292  0.00  0.00    +0.000 NA
ATOM     26  H   UNL     1      37.636  30.468  52.415  0.00  0.00    +0.000 HD
ATOM     27  H   UNL     1      38.938  31.276  50.420  0.00  0.00    +0.000 HD
ATOM     28  H   UNL     1      38.127  30.599  48.136  0.00  0.00    +0.000 HD
ENDBRANCH  19  24
ENDBRANCH  16  19
ENDBRANCH   1  16
TORSDOF 5
