
 OpenBabel03272504173D

 29 30  0  0  0  0  0  0  0  0999 V2000
   35.6040   30.1420   46.3400 O   0  0  0  0  0  0  0  0  0  0  0  0
   34.5130   29.9650   47.3510 P   0  0  1  0  0  0  0  0  0  0  0  0
   34.3620   28.3570   47.8670 O   0  0  0  0  0  0  0  0  0  0  0  0
   33.6230   28.3230   48.5090 H   0  0  0  0  0  0  0  0  0  0  0  0
   34.8090   30.8900   48.7810 O   0  0  0  0  0  0  0  0  0  0  0  0
   35.9850   30.7730   49.5060 C   0  0  0  0  0  0  0  0  0  0  0  0
   36.2020   29.9210   50.5770 C   0  0  0  0  0  0  0  0  0  0  0  0
   37.4350   29.9210   51.2000 C   0  0  0  0  0  0  0  0  0  0  0  0
   38.4100   30.7630   50.7410 N   0  0  0  0  0  0  0  0  0  0  0  0
   38.1660   31.5940   49.6800 C   0  0  0  0  0  0  0  0  0  0  0  0
   36.9510   31.5930   49.0680 N   0  0  0  0  0  0  0  0  0  0  0  0
   37.5510   29.2470   52.0180 H   0  0  0  0  0  0  0  0  0  0  0  0
   38.9560   32.2540   49.3330 H   0  0  0  0  0  0  0  0  0  0  0  0
   35.1030   29.1150   50.9330 N   0  0  0  0  0  0  0  0  0  0  0  0
   35.2690   28.1530   51.2760 H   0  0  0  0  0  0  0  0  0  0  0  0
   34.1180   29.4650   50.8590 H   0  0  0  0  0  0  0  0  0  0  0  0
   33.1020   30.5230   46.6170 O   0  0  0  0  0  0  0  0  0  0  0  0
   32.2240   29.6960   44.6320 C   0  0  0  0  0  0  0  0  0  0  0  0
   32.2380   29.6080   46.0290 C   0  0  0  0  0  0  0  0  0  0  0  0
   31.4470   28.6840   46.6800 C   0  0  0  0  0  0  0  0  0  0  0  0
   31.5160   28.6800   47.7590 H   0  0  0  0  0  0  0  0  0  0  0  0
   30.6260   27.8250   45.9760 C   0  0  0  0  0  0  0  0  0  0  0  0
   30.0210   27.1140   46.5280 H   0  0  0  0  0  0  0  0  0  0  0  0
   30.5940   27.8930   44.5780 C   0  0  0  0  0  3  0  0  0  0  0  0
   31.3920   28.8240   43.9470 C   0  0  0  0  0  3  0  0  0  0  0  0
   34.4710   30.8720   44.1210 H   0  0  0  0  0  0  0  0  0  0  0  0
   33.1710   30.8150   43.7050 S   0  0  0  0  0  0  0  0  0  0  0  0
   32.6040   32.2070   43.7510 O   0  0  0  0  0  0  0  0  0  0  0  0
   33.1930   30.4220   42.2350 O   0  0  0  0  0  0  0  0  0  0  0  0
  2  1  2  6  0  0  0
  2  3  1  0  0  0  0
  2  5  1  0  0  0  0
  3  4  1  0  0  0  0
  5  6  1  0  0  0  0
  6  7  1  0  0  0  0
  7 14  1  0  0  0  0
  7  8  2  0  0  0  0
  8 12  1  0  0  0  0
  9  8  1  0  0  0  0
 10  9  2  0  0  0  0
 11  6  2  0  0  0  0
 11 10  1  0  0  0  0
 13 10  1  0  0  0  0
 14 15  1  0  0  0  0
 16 14  1  0  0  0  0
 17  2  1  0  0  0  0
 18 19  1  0  0  0  0
 19 17  1  0  0  0  0
 19 20  2  0  0  0  0
 20 21  1  0  0  0  0
 22 23  1  0  0  0  0
 22 20  1  0  0  0  0
 24 22  2  0  0  0  0
 25 24  1  0  0  0  0
 25 18  2  0  0  0  0
 27 28  2  0  0  0  0
 27 26  1  0  0  0  0
 27 18  1  0  0  0  0
 29 27  2  0  0  0  0
M  END
>  <minimizedAffinity>
-3.92266083

>  <minimizedRMSD>
0.933579683

$$$$
