
     RDKit          3D

 51 55  0  0  0  0  0  0  0  0999 V2000
   32.7019   28.2114   47.4387 N   0  0  0  0  0  0  0  0  0  0  0  0
   33.3073   27.7533   48.6358 C   0  0  0  0  0  0  0  0  0  0  0  0
   34.4785   28.5154   49.1310 C   0  0  0  0  0  0  0  0  0  0  0  0
   35.4181   29.0048   48.1234 C   0  0  0  0  0  0  0  0  0  0  0  0
   34.7128   29.4130   46.8179 C   0  0  0  0  0  0  0  0  0  0  0  0
   33.7573   28.2662   46.4465 C   0  0  0  0  0  0  0  0  0  0  0  0
   35.9456   30.7349   49.7792 C   0  0  0  0  0  0  0  0  0  0  0  0
   36.1956   30.2016   48.5241 C   0  0  0  0  0  0  0  0  0  0  0  0
   37.0953   30.7330   47.6388 C   0  0  0  0  0  0  0  0  0  0  0  0
   37.7924   31.8740   48.0300 C   0  0  0  0  0  0  0  0  0  0  0  0
   37.5438   32.4048   49.2740 C   0  0  0  0  0  0  0  0  0  0  0  0
   36.6330   31.8696   50.1771 C   0  0  0  0  0  0  0  0  0  0  0  0
   38.3326   33.5442   49.4834 O   0  0  0  0  0  0  0  0  0  0  0  0
   39.3209   33.4858   48.4554 C   0  0  0  0  0  0  0  0  0  0  0  0
   38.7636   32.6942   47.4434 O   0  0  0  0  0  0  0  0  0  0  0  0
   31.3389   28.5540   47.2084 C   0  0  0  0  0  0  0  0  0  0  0  0
   30.8773   29.3360   46.1540 C   0  0  0  0  0  0  0  0  0  0  0  0
   29.4995   29.5514   46.0803 C   0  0  0  0  0  0  0  0  0  0  0  0
   28.6883   28.9888   47.0380 N   0  0  0  0  0  0  0  0  0  0  0  0
   29.1951   28.2412   48.0364 C   0  0  0  0  0  0  0  0  0  0  0  0
   30.4842   28.0304   48.1181 N   0  0  0  0  0  0  0  0  0  0  0  0
   33.6698   26.6978   48.4509 H   0  0  0  0  0  0  0  0  0  0  0  0
   32.5811   27.6472   49.4574 H   0  0  0  0  0  0  0  0  0  0  0  0
   34.9737   27.9511   49.9381 H   0  0  0  0  0  0  0  0  0  0  0  0
   33.9779   29.4369   49.5801 H   0  0  0  0  0  0  0  0  0  0  0  0
   36.1317   28.2143   47.7942 H   0  0  0  0  0  0  0  0  0  0  0  0
   34.0698   30.3015   46.9869 H   0  0  0  0  0  0  0  0  0  0  0  0
   35.4881   29.5395   46.0646 H   0  0  0  0  0  0  0  0  0  0  0  0
   34.2762   27.3069   46.3265 H   0  0  0  0  0  0  0  0  0  0  0  0
   33.2576   28.4819   45.4854 H   0  0  0  0  0  0  0  0  0  0  0  0
   35.2759   30.3979   50.5578 H   0  0  0  0  0  0  0  0  0  0  0  0
   37.2713   30.3061   46.6821 H   0  0  0  0  0  0  0  0  0  0  0  0
   36.4835   32.3466   51.1598 H   0  0  0  0  0  0  0  0  0  0  0  0
   39.3969   34.5246   48.0698 H   0  0  0  0  0  0  0  0  0  0  0  0
   40.2790   33.0897   48.8582 H   0  0  0  0  0  0  0  0  0  0  0  0
   31.6108   29.7102   45.4840 H   0  0  0  0  0  0  0  0  0  0  0  0
   29.1552   30.1500   45.2709 H   0  0  0  0  0  0  0  0  0  0  0  0
   28.5736   30.5814   49.8291 H   0  0  0  0  0  0  0  0  0  0  0  0
   28.7257   29.5817   50.7766 S   0  0  0  0  0  0  0  0  0  0  0  0
   28.1626   30.0955   52.0759 O   0  0  0  0  0  0  0  0  0  0  0  0
   30.1582   29.2376   50.9051 O   0  0  0  0  0  0  0  0  0  0  0  0
   27.8147   28.2224   50.1603 C   0  0  0  0  0  0  0  0  0  0  0  0
   28.1427   27.7434   48.9144 C   0  0  0  0  0  0  0  0  0  0  0  0
   27.3405   26.6832   48.5455 C   0  0  0  0  0  0  0  0  0  0  0  0
   27.4512   26.1759   47.5952 H   0  0  0  0  0  0  0  0  0  0  0  0
   26.3289   26.1526   49.3158 C   0  0  0  0  0  0  0  0  0  0  0  0
   25.7168   25.3205   48.9991 H   0  0  0  0  0  0  0  0  0  0  0  0
   26.0625   26.6883   50.5533 C   0  0  0  0  0  0  0  0  0  0  0  0
   26.8297   27.7482   50.9761 C   0  0  0  0  0  0  0  0  0  0  0  0
   25.2812   26.3067   51.1919 H   0  0  0  0  0  0  0  0  0  0  0  0
   26.6195   28.1598   51.9352 H   0  0  0  0  0  0  0  0  0  0  0  0
  1  2  1  0
  2  3  1  0
  4  8  1  0
  4  3  1  0
  5  4  1  0
  6  5  1  0
  6  1  1  0
  7 12  2  0
  8  7  1  0
  9 10  1  0
  9  8  2  0
 10 11  2  0
 11 13  1  0
 11 12  1  0
 14 13  1  0
 15 10  1  0
 15 14  1  0
 16  1  1  0
 16 21  1  0
 17 16  2  0
 18 17  1  0
 18 19  2  0
 19 20  1  0
 20 21  2  0
  2 22  1  0
  2 23  1  0
  3 24  1  0
  3 25  1  0
  4 26  1  0
  5 27  1  0
  5 28  1  0
  6 29  1  0
  6 30  1  0
  7 31  1  0
  9 32  1  0
 12 33  1  0
 14 34  1  0
 14 35  1  0
 17 36  1  0
 18 37  1  0
 38 39  1  0
 39 40  2  0
 39 41  2  0
 39 42  1  0
 42 43  2  0
 43 44  1  0
 44 45  1  0
 44 46  2  0
 46 47  1  0
 46 48  1  0
 48 49  2  0
 49 42  1  0
 48 50  1  0
 49 51  1  0
 20 43  1  0
M  ISO  8  22  13  23  13  24  13  25  13  26  13  27  13  28  13  29  13
M  ISO  8  30  13  31  14  32  14  33  14  34  13  35  13  36  14  37  14
M  ISO  3  38  12  45  15  47  16
M  END
>  <DihAtoms>  (1) 
18,19,42,41

>  <DihDeg>  (1) 
-178.2222810377248

$$$$
