
 OpenBabel03272504243D

 42 45  0  0  0  0  0  0  0  0999 V2000
   32.2890   28.3110   46.2580 C   0  0  0  0  0  0  0  0  0  0  0  0
   32.8800   29.5350   46.5740 C   0  0  0  0  0  0  0  0  0  0  0  0
   32.5700   30.6970   45.9360 C   0  0  0  0  0  0  0  0  0  0  0  0
   31.6300   30.6880   44.9210 C   0  0  0  0  0  0  0  0  0  0  0  0
   31.0160   29.5110   44.5580 C   0  0  0  0  0  0  0  0  0  0  0  0
   31.3780   28.3740   45.2470 C   0  0  0  0  0  0  0  0  0  0  0  0
   33.0820   31.5950   46.2550 H   0  0  0  0  0  0  0  0  0  0  0  0
   31.4600   31.6530   44.4920 H   0  0  0  0  0  0  0  0  0  0  0  0
   30.3040   29.6020   43.7680 H   0  0  0  0  0  0  0  0  0  0  0  0
   30.7710   27.5700   44.7710 H   0  0  0  0  0  0  0  0  0  0  0  0
   35.7980   30.3510   48.6230 C   0  0  0  0  0  0  0  0  0  0  0  0
   35.6210   29.4840   49.6270 C   0  0  0  0  0  0  0  0  0  0  0  0
   34.5700   28.6350   49.6710 C   0  0  0  0  0  0  0  0  0  0  0  0
   33.6550   28.6580   48.6580 N   0  0  0  0  0  0  0  0  0  0  0  0
   33.8600   29.5400   47.6580 C   0  0  0  0  0  0  0  0  0  0  0  0
   34.9060   30.3810   47.6230 N   0  0  0  0  0  0  0  0  0  0  0  0
   36.3340   29.4380   50.4560 H   0  0  0  0  0  0  0  0  0  0  0  0
   34.4470   27.9430   50.4920 H   0  0  0  0  0  0  0  0  0  0  0  0
   38.1850   33.0170   49.4970 C   0  0  0  0  0  0  0  0  0  0  0  0
   39.0390   33.0380   48.3880 C   0  0  0  0  0  0  0  0  0  0  0  0
   38.7750   32.1240   47.3520 C   0  0  0  0  0  0  0  0  0  0  0  0
   37.7160   31.2810   47.4850 N   0  0  0  0  0  0  0  0  0  0  0  0
   36.9190   31.2860   48.5550 C   0  0  0  0  0  0  0  0  0  0  0  0
   37.1630   32.1600   49.5610 N   0  0  0  0  0  0  0  0  0  0  0  0
   38.4390   33.7320   50.2460 H   0  0  0  0  0  0  0  0  0  0  0  0
   39.8880   33.6440   48.1750 H   0  0  0  0  0  0  0  0  0  0  0  0
   39.3410   32.0210   46.4380 H   0  0  0  0  0  0  0  0  0  0  0  0
   32.4880   26.8340   46.9760 S   0  0  0  0  0  0  0  0  0  0  0  0
   33.2530   25.8880   45.9930 O   0  0  0  0  0  0  0  0  0  0  0  0
   31.9800   26.3280   48.1350 O   0  0  0  0  0  0  0  0  0  0  0  0
   29.6840   26.3850   47.0760 C   0  0  0  0  0  0  0  0  0  0  0  0
   30.9510   25.9840   46.5220 C   0  0  0  0  0  0  0  0  0  0  0  0
   30.8620   25.0250   45.6550 C   0  0  0  0  0  0  0  0  0  0  0  0
   31.7410   24.6220   45.1720 H   0  0  0  0  0  0  0  0  0  0  0  0
   29.6860   24.4160   45.2620 C   0  0  0  0  0  0  0  0  0  0  0  0
   29.7350   23.6280   44.5290 H   0  0  0  0  0  0  0  0  0  0  0  0
   28.5100   24.8340   45.8150 C   0  0  0  0  0  3  0  0  0  0  0  0
   28.4250   25.8350   46.7480 C   0  0  0  0  0  3  0  0  0  0  0  0
   28.3420   27.3950   48.9180 H   0  0  0  0  0  0  0  0  0  0  0  0
   29.5910   27.6200   48.3020 S   0  0  0  0  0  0  0  0  0  0  0  0
   29.3940   28.9930   47.7080 O   0  0  0  0  0  0  0  0  0  0  0  0
   30.5270   27.6610   49.3820 O   0  0  0  0  0  0  0  0  0  0  0  0
  1  2  1  0  0  0  0
  1 28  1  0  0  0  0
  2 15  1  0  0  0  0
  3  7  1  0  0  0  0
  3  2  2  0  0  0  0
  4  3  1  0  0  0  0
  5  4  2  0  0  0  0
  5  6  1  0  0  0  0
  6  1  2  0  0  0  0
  8  4  1  0  0  0  0
  9  5  1  0  0  0  0
 10  6  1  0  0  0  0
 11 12  1  0  0  0  0
 12 13  2  0  0  0  0
 12 17  1  0  0  0  0
 13 18  1  0  0  0  0
 14 13  1  0  0  0  0
 15 14  2  0  0  0  0
 16 15  1  0  0  0  0
 16 11  2  0  0  0  0
 19 24  1  0  0  0  0
 19 25  1  0  0  0  0
 20 19  2  0  0  0  0
 21 22  2  0  0  0  0
 21 20  1  0  0  0  0
 22 23  1  0  0  0  0
 23 11  1  0  0  0  0
 23 24  2  0  0  0  0
 26 20  1  0  0  0  0
 27 21  1  0  0  0  0
 28 30  2  0  0  0  0
 29 28  2  0  0  0  0
 31 40  1  0  0  0  0
 32 28  1  0  0  0  0
 32 31  2  0  0  0  0
 33 32  1  0  0  0  0
 34 33  1  0  0  0  0
 35 33  2  0  0  0  0
 35 37  1  0  0  0  0
 36 35  1  0  0  0  0
 37 38  2  0  0  0  0
 38 31  1  0  0  0  0
 40 39  1  0  0  0  0
 40 42  2  0  0  0  0
 41 40  2  0  0  0  0
M  END
>  <minimizedAffinity>
-6.00740051

>  <minimizedRMSD>
1.68840599

$$$$
