
 OpenBabel03272509243D

 27 28  0  0  0  0  0  0  0  0999 V2000
   38.1280   30.3610   46.9740 C   0  0  0  0  0  0  0  0  0  0  0  0
   38.6930   29.7800   47.7040 H   0  0  0  0  0  0  0  0  0  0  0  0
   37.6870   29.7050   46.1960 H   0  0  0  0  0  0  0  0  0  0  0  0
   39.3420   31.0690   44.9200 C   0  0  0  0  0  0  0  0  0  0  0  0
   38.9730   31.3620   46.2330 C   0  0  0  0  0  0  0  0  0  0  0  0
   39.4110   32.5540   46.7620 C   0  0  0  0  0  0  0  0  0  0  0  0
   39.1150   32.7560   47.7710 H   0  0  0  0  0  0  0  0  0  0  0  0
   40.1750   33.4430   46.0710 C   0  0  0  0  0  0  0  0  0  0  0  0
   40.5020   34.3750   46.5190 H   0  0  0  0  0  0  0  0  0  0  0  0
   40.5370   33.1540   44.7760 C   0  0  0  0  0  3  0  0  0  0  0  0
   40.1250   31.9640   44.1890 C   0  0  0  0  0  3  0  0  0  0  0  0
   38.7140   28.5670   45.1770 H   0  0  0  0  0  0  0  0  0  0  0  0
   38.7930   29.5490   44.2210 S   0  0  0  0  0  0  0  0  0  0  0  0
   39.7770   29.1810   43.1240 O   0  0  0  0  0  0  0  0  0  0  0  0
   37.4190   29.7480   43.6480 O   0  0  0  0  0  0  0  0  0  0  0  0
   37.0300   31.1290   47.6930 C   0  0  0  0  0  0  0  0  0  0  0  0
   37.3100   32.1890   47.7720 H   0  0  0  0  0  0  0  0  0  0  0  0
   36.0500   30.9970   47.1630 H   0  0  0  0  0  0  0  0  0  0  0  0
   37.3900   30.1520   51.3350 C   0  0  0  0  0  0  0  0  0  0  0  0
   37.7250   30.7440   50.0970 C   0  0  0  0  0  0  0  0  0  0  0  0
   36.8280   30.5740   49.0550 C   0  0  0  0  0  0  0  0  0  0  0  0
   35.6770   29.8550   49.2680 N   0  0  0  0  0  0  0  0  0  0  0  0
   35.3990   29.3050   50.4740 C   0  0  0  0  0  0  0  0  0  0  0  0
   36.2530   29.4540   51.5040 N   0  0  0  0  0  0  0  0  0  0  0  0
   38.0820   30.2740   52.1670 H   0  0  0  0  0  0  0  0  0  0  0  0
   38.6140   31.2990   49.9340 H   0  0  0  0  0  0  0  0  0  0  0  0
   34.4600   28.7670   50.4970 H   0  0  0  0  0  0  0  0  0  0  0  0
  1 16  1  0  0  0  0
  1  2  1  0  0  0  0
  3  1  1  0  0  0  0
  4  5  1  0  0  0  0
  5  6  2  0  0  0  0
  5  1  1  0  0  0  0
  6  7  1  0  0  0  0
  8  9  1  0  0  0  0
  8  6  1  0  0  0  0
 10  8  2  0  0  0  0
 11 10  1  0  0  0  0
 11  4  2  0  0  0  0
 13  4  1  0  0  0  0
 13 12  1  0  0  0  0
 14 13  2  0  0  0  0
 15 13  2  0  0  0  0
 16 17  1  0  0  0  0
 16 21  1  0  0  0  0
 18 16  1  0  0  0  0
 19 24  1  0  0  0  0
 19 25  1  0  0  0  0
 20 19  2  0  0  0  0
 21 22  2  0  0  0  0
 21 20  1  0  0  0  0
 22 23  1  0  0  0  0
 23 27  1  0  0  0  0
 23 24  2  0  0  0  0
 26 20  1  0  0  0  0
M  END
>  <minimizedAffinity>
-4.99514389

>  <minimizedRMSD>
2.12873149

$$$$
