
 OpenBabel03272510013D

 24 25  0  0  0  0  0  0  0  0999 V2000
   37.7670   31.2050   50.0700 C   0  0  0  0  0  0  0  0  0  0  0  0
   38.4870   31.7300   48.9740 C   0  0  0  0  0  0  0  0  0  0  0  0
   37.9340   31.6220   47.7090 C   0  0  0  0  0  0  0  0  0  0  0  0
   36.7300   31.0090   47.6310 N   0  0  0  0  0  0  0  0  0  0  0  0
   36.0580   30.5160   48.6720 C   0  0  0  0  0  0  0  0  0  0  0  0
   36.5820   30.6170   49.8880 N   0  0  0  0  0  0  0  0  0  0  0  0
   38.1290   31.2520   51.0680 H   0  0  0  0  0  0  0  0  0  0  0  0
   39.4400   32.2000   49.1440 H   0  0  0  0  0  0  0  0  0  0  0  0
   38.2090   31.7350   45.2700 C   0  0  0  0  0  0  0  0  0  0  0  0
   38.6000   32.1330   46.5200 C   0  0  0  0  0  0  0  0  0  0  0  0
   39.6390   33.0250   46.5830 C   0  0  0  0  0  0  0  0  0  0  0  0
   40.0200   33.3990   47.5220 H   0  0  0  0  0  0  0  0  0  0  0  0
   40.3020   33.5390   45.4890 C   0  0  0  0  0  0  0  0  0  0  0  0
   41.1180   34.2400   45.5560 H   0  0  0  0  0  0  0  0  0  0  0  0
   39.9130   33.1420   44.2270 C   0  0  0  0  0  3  0  0  0  0  0  0
   38.8700   32.2450   44.1510 C   0  0  0  0  0  3  0  0  0  0  0  0
   36.3110   30.2080   46.1740 H   0  0  0  0  0  0  0  0  0  0  0  0
   36.9010   30.6010   45.0180 S   0  0  0  0  0  0  0  0  0  0  0  0
   37.3690   29.4260   44.1690 O   0  0  0  0  0  0  0  0  0  0  0  0
   35.8130   31.2530   44.1940 O   0  0  0  0  0  0  0  0  0  0  0  0
   34.7490   29.8770   48.4080 C   0  0  0  0  0  0  0  0  0  0  0  0
   33.9950   29.7180   49.5690 F   0  0  0  0  0  0  0  0  0  0  0  0
   33.9570   30.6660   47.5570 F   0  0  0  0  0  0  0  0  0  0  0  0
   34.8180   28.6500   47.8200 F   0  0  0  0  0  0  0  0  0  0  0  0
  1  7  1  0  0  0  0
  2  8  1  0  0  0  0
  2  1  2  0  0  0  0
  3  2  1  0  0  0  0
  4  3  2  0  0  0  0
  4  5  1  0  0  0  0
  5  6  2  0  0  0  0
  6  1  1  0  0  0  0
  9 10  1  0  0  0  0
 10 11  2  0  0  0  0
 10  3  1  0  0  0  0
 11 12  1  0  0  0  0
 13 14  1  0  0  0  0
 13 11  1  0  0  0  0
 15 13  2  0  0  0  0
 16 15  1  0  0  0  0
 16  9  2  0  0  0  0
 18  9  1  0  0  0  0
 18 17  1  0  0  0  0
 19 18  2  0  0  0  0
 20 18  2  0  0  0  0
 21  5  1  0  0  0  0
 21 22  1  0  0  0  0
 23 21  1  0  0  0  0
 24 21  1  0  0  0  0
M  END
>  <minimizedAffinity>
-5.28851032

>  <minimizedRMSD>
2.27799296

$$$$
