REMARK  Name = 
REMARK  4 active torsions:
REMARK  status: ('A' for Active; 'I' for Inactive)
REMARK    1  A    between atoms: C_11  and  C_13
REMARK    2  A    between atoms: C_12  and  C_19
REMARK    3  A    between atoms: C_17  and  C_38
REMARK    4  A    between atoms: S_34  and  C_37
REMARK                            x       y       z     vdW  Elec       q    Type
REMARK                         _______ _______ _______ _____ _____    ______ ____
ROOT
ATOM      1  C   UNL     1      36.300  29.480  49.554  0.00  0.00    +0.000 A 
ATOM      2  C   UNL     1      36.405  30.505  48.596  0.00  0.00    +0.000 A 
ATOM      3  C   UNL     1      37.378  31.429  48.946  0.00  0.00    +0.000 A 
ATOM      4  C   UNL     1      38.168  31.375  50.080  0.00  0.00    +0.000 A 
ATOM      5  C   UNL     1      37.992  30.307  50.981  0.00  0.00    +0.000 A 
ATOM      6  C   UNL     1      37.039  29.339  50.717  0.00  0.00    +0.000 A 
ATOM      7  H   UNL     1      37.627  32.347  48.474  0.00  0.00    +0.000 HD
ATOM      8  H   UNL     1      38.927  32.031  50.414  0.00  0.00    +0.000 HD
ATOM      9  H   UNL     1      38.558  30.178  51.891  0.00  0.00    +0.000 HD
ENDROOT
BRANCH   2  20
ATOM     10  C   UNL     1      39.478  32.685  46.209  0.00  0.00    +0.000 A 
ATOM     11  C   UNL     1      40.428  31.832  45.657  0.00  0.00    +0.000 A 
ATOM     12  C   UNL     1      40.029  30.564  45.269  0.00  0.00    +0.000 A 
ATOM     13  N   UNL     1      38.734  30.201  45.442  0.00  0.00    +0.000 NA
ATOM     14  C   UNL     1      37.836  30.995  45.961  0.00  0.00    +0.000 A 
ATOM     15  N   UNL     1      38.270  32.178  46.305  0.00  0.00    +0.000 NA
ATOM     16  N   UNL     1      36.498  30.581  46.117  0.00  0.00    +0.000 N 
ATOM     17  C   UNL     1      35.675  30.140  44.986  0.00  0.00    +0.000 C 
ATOM     18  C   UNL     1      34.411  29.692  45.582  0.00  0.00    +0.000 C 
ATOM     19  C   UNL     1      34.727  29.519  47.069  0.00  0.00    +0.000 C 
ATOM     20  C   UNL     1      35.696  30.564  47.350  0.00  0.00    +0.000 C 
ATOM     21  H   UNL     1      39.727  33.677  46.527  0.00  0.00    +0.000 HD
ATOM     22  H   UNL     1      41.458  32.144  45.529  0.00  0.00    +0.000 HD
ATOM     23  H   UNL     1      40.787  29.910  44.838  0.00  0.00    +0.000 HD
ATOM     24  H   UNL     1      35.499  31.015  44.327  0.00  0.00    +0.000 HD
ATOM     25  H   UNL     1      36.249  29.376  44.432  0.00  0.00    +0.000 HD
ATOM     26  H   UNL     1      34.051  28.775  45.093  0.00  0.00    +0.000 HD
ATOM     27  H   UNL     1      33.602  30.442  45.402  0.00  0.00    +0.000 HD
ATOM     28  H   UNL     1      33.743  29.588  47.468  0.00  0.00    +0.000 HD
ATOM     29  H   UNL     1      35.274  28.571  46.944  0.00  0.00    +0.000 HD
ATOM     30  H   UNL     1      35.283  31.617  47.264  0.00  0.00    +0.000 HD
ENDBRANCH   2  20
BRANCH   6  32
ATOM     31  C   UNL     1      37.800  27.680  52.439  0.00  0.00    +0.000 A 
ATOM     32  C   UNL     1      36.850  28.235  51.641  0.00  0.00    +0.000 A 
ATOM     33  C   UNL     1      35.557  27.755  51.657  0.00  0.00    +0.000 A 
ATOM     34  H   UNL     1      34.737  28.151  51.043  0.00  0.00    +0.000 HD
ATOM     35  C   UNL     1      35.171  26.708  52.468  0.00  0.00    +0.000 A 
ATOM     36  H   UNL     1      34.142  26.320  52.487  0.00  0.00    +0.000 HD
ATOM     37  C   UNL     1      36.115  26.130  53.285  0.00  0.00    +0.000 A 
ATOM     38  C   UNL     1      37.412  26.634  53.248  0.00  0.00    +0.000 A 
BRANCH  31  40
ATOM     39  H   UNL     1      39.385  29.612  52.859  0.00  0.00    +0.000 HD
ATOM     40  S   UNL     1      39.401  28.330  52.369  0.00  0.00    +0.000 S 
ATOM     41  O   UNL     1      40.321  27.539  53.281  0.00  0.00    +0.000 OA
ATOM     42  O   UNL     1      39.968  28.337  50.984  0.00  0.00    +0.000 OA
ENDBRANCH  31  40
ENDBRANCH   6  32
BRANCH   1  44
ATOM     43  N   UNL     1      34.426  27.747  49.260  0.00  0.00    +0.000 NA
ATOM     44  C   UNL     1      35.248  28.508  49.378  0.00  0.00    +0.000 C 
ENDBRANCH   1  44
TORSDOF 4
