
     RDKit          3D

 51 55  0  0  0  0  0  0  0  0999 V2000
   38.1287   30.1466   47.4889 F   0  0  0  0  0  0  0  0  0  0  0  0
   38.3741   31.3846   47.9781 C   0  0  0  0  0  0  0  0  0  0  0  0
   37.7133   31.8318   49.0832 C   0  0  0  0  0  0  0  0  0  0  0  0
   38.0138   33.1034   49.5257 C   0  0  0  0  0  0  0  0  0  0  0  0
   38.9372   33.9059   48.8960 C   0  0  0  0  0  0  0  0  0  0  0  0
   39.5979   33.4271   47.7707 C   0  0  0  0  0  0  0  0  0  0  0  0
   39.3054   32.1495   47.3144 C   0  0  0  0  0  0  0  0  0  0  0  0
   36.0879   29.3661   51.4460 C   0  0  0  0  0  0  0  0  0  0  0  0
   37.0360   30.2210   50.8509 C   0  0  0  0  0  0  0  0  0  0  0  0
   36.7421   30.9397   49.7148 C   0  0  0  0  0  0  0  0  0  0  0  0
   35.4839   30.7879   49.1851 N   0  0  0  0  0  0  0  0  0  0  0  0
   34.5808   29.9764   49.7482 C   0  0  0  0  0  0  0  0  0  0  0  0
   34.8696   29.2820   50.8487 N   0  0  0  0  0  0  0  0  0  0  0  0
   39.2949   31.8954   44.9414 C   0  0  0  0  0  0  0  0  0  0  0  0
   38.2042   32.5609   45.0522 O   0  0  0  0  0  0  0  0  0  0  0  0
   39.9707   31.6240   46.1536 N   0  0  0  0  0  0  0  0  0  0  0  0
   39.1913   32.1914   42.5583 C   0  0  0  0  0  0  0  0  0  0  0  0
   39.7283   31.4896   43.6129 C   0  0  0  0  0  0  0  0  0  0  0  0
   40.6148   30.4706   43.4581 C   0  0  0  0  0  0  0  0  0  0  0  0
   41.0119   30.1030   42.1809 C   0  0  0  0  0  0  0  0  0  0  0  0
   41.8480   29.1648   41.7237 N   0  0  0  0  0  0  0  0  0  0  0  0
   41.8603   29.2482   40.3982 C   0  0  0  0  0  0  0  0  0  0  0  0
   41.0279   30.2449   40.0029 N   0  0  0  0  0  0  0  0  0  0  0  0
   40.4855   30.7934   41.1162 C   0  0  0  0  0  0  0  0  0  0  0  0
   39.5717   31.8453   41.2557 C   0  0  0  0  0  0  0  0  0  0  0  0
   39.0477   32.5332   40.1860 O   0  0  0  0  0  0  0  0  0  0  0  0
   37.4954   33.4702   50.4030 H   0  0  0  0  0  0  0  0  0  0  0  0
   39.1571   34.8969   49.2586 H   0  0  0  0  0  0  0  0  0  0  0  0
   40.3353   34.0126   47.2324 H   0  0  0  0  0  0  0  0  0  0  0  0
   36.4343   28.8578   52.3303 H   0  0  0  0  0  0  0  0  0  0  0  0
   38.0426   30.3791   51.2254 H   0  0  0  0  0  0  0  0  0  0  0  0
   33.5847   29.8523   49.3343 H   0  0  0  0  0  0  0  0  0  0  0  0
   40.8569   31.0873   46.0958 H   0  0  0  0  0  0  0  0  0  0  0  0
   38.4880   32.9970   42.7188 H   0  0  0  0  0  0  0  0  0  0  0  0
   41.0145   29.9433   44.3088 H   0  0  0  0  0  0  0  0  0  0  0  0
   42.4097   28.4712   42.2757 H   0  0  0  0  0  0  0  0  0  0  0  0
   42.4113   28.6613   39.6722 H   0  0  0  0  0  0  0  0  0  0  0  0
   37.5495   31.9638   37.4282 H   0  0  0  0  0  0  0  0  0  0  0  0
   38.8953   31.7778   37.2580 S   0  0  0  0  0  0  0  0  0  0  0  0
   39.1791   31.6995   35.7640 O   0  0  0  0  0  0  0  0  0  0  0  0
   39.3648   30.4708   37.8316 O   0  0  0  0  0  0  0  0  0  0  0  0
   39.8475   33.1049   37.8822 C   0  0  0  0  0  0  0  0  0  0  0  0
   39.7538   33.2487   39.2501 C   0  0  0  0  0  0  0  0  0  0  0  0
   40.4780   34.2827   39.8530 C   0  0  0  0  0  0  0  0  0  0  0  0
   40.5015   34.5174   40.9212 H   0  0  0  0  0  0  0  0  0  0  0  0
   41.2721   35.1470   39.1112 C   0  0  0  0  0  0  0  0  0  0  0  0
   41.8427   35.9530   39.5416 H   0  0  0  0  0  0  0  0  0  0  0  0
   41.3465   34.9786   37.7432 C   0  0  0  0  0  0  0  0  0  0  0  0
   40.6349   33.9612   37.1426 C   0  0  0  0  0  0  0  0  0  0  0  0
   41.9257   35.5800   37.0502 H   0  0  0  0  0  0  0  0  0  0  0  0
   40.6025   33.7169   36.0830 H   0  0  0  0  0  0  0  0  0  0  0  0
  1  2  1  0
  2  3  2  0
  3  4  1  0
  3 10  1  0
  5  4  2  0
  6  5  1  0
  7  6  2  0
  7  2  1  0
  9  8  2  0
 10  9  1  0
 11 10  2  0
 11 12  1  0
 12 13  2  0
 13  8  1  0
 14 15  2  0
 14 16  1  0
 16  7  1  0
 17 18  2  0
 18 14  1  0
 19 18  1  0
 20 19  2  0
 21 20  1  0
 22 21  1  0
 23 22  2  0
 23 24  1  0
 24 25  2  0
 24 20  1  0
 25 17  1  0
 26 25  1  0
  4 27  1  0
  5 28  1  0
  6 29  1  0
  8 30  1  0
  9 31  1  0
 12 32  1  0
 16 33  1  0
 17 34  1  0
 19 35  1  0
 21 36  1  0
 22 37  1  0
 38 39  1  0
 39 40  2  0
 39 41  2  0
 39 42  1  0
 42 43  2  0
 43 44  1  0
 44 45  1  0
 44 46  2  0
 46 47  1  0
 46 48  1  0
 48 49  2  0
 49 42  1  0
 48 50  1  0
 49 51  1  0
 26 43  1  0
M  ISO  8  27  14  28  14  29  14  30  14  31  14  32  14  34  14  35  14
M  ISO  5  36   9  37  14  38  12  45  15  47  16
M  END
>  <DihAtoms>  (1) 
24,25,42,41

>  <DihDeg>  (1) 
-60.00822270225188

$$$$
