
     RDKit          3D

 34 36  0  0  0  0  0  0  0  0999 V2000
   38.3963   30.6094   46.7837 Cl  0  0  0  0  0  0  0  0  0  0  0  0
   38.8379   32.0521   47.6963 C   0  0  0  0  0  0  0  0  0  0  0  0
   38.3336   32.1960   48.9530 C   0  0  0  0  0  0  0  0  0  0  0  0
   38.7090   33.3642   49.5992 C   0  0  0  0  0  0  0  0  0  0  0  0
   39.5331   34.2899   48.9857 C   0  0  0  0  0  0  0  0  0  0  0  0
   40.0078   34.0835   47.7155 C   0  0  0  0  0  0  0  0  0  0  0  0
   39.6500   32.9242   47.0433 C   0  0  0  0  0  0  0  0  0  0  0  0
   37.9590   30.4209   50.6610 C   0  0  0  0  0  0  0  0  0  0  0  0
   37.4588   31.2253   49.6235 C   0  0  0  0  0  0  0  0  0  0  0  0
   36.1257   31.1048   49.2249 C   0  0  0  0  0  0  0  0  0  0  0  0
   35.3819   30.1786   49.9003 N   0  0  0  0  0  0  0  0  0  0  0  0
   35.8520   29.4177   50.8803 C   0  0  0  0  0  0  0  0  0  0  0  0
   37.1338   29.5343   51.2629 N   0  0  0  0  0  0  0  0  0  0  0  0
   40.1421   32.7491   45.7726 O   0  0  0  0  0  0  0  0  0  0  0  0
   38.3505   33.5567   50.6042 H   0  0  0  0  0  0  0  0  0  0  0  0
   39.7875   35.1820   49.5478 H   0  0  0  0  0  0  0  0  0  0  0  0
   40.6513   34.8258   47.2604 H   0  0  0  0  0  0  0  0  0  0  0  0
   39.0016   30.5819   50.9031 H   0  0  0  0  0  0  0  0  0  0  0  0
   35.7466   31.7226   48.4299 H   0  0  0  0  0  0  0  0  0  0  0  0
   35.2321   28.6932   51.3935 H   0  0  0  0  0  0  0  0  0  0  0  0
   39.4069   33.5944   43.5633 H   0  0  0  0  0  0  0  0  0  0  0  0
   40.0520   32.6119   42.8794 S   0  0  0  0  0  0  0  0  0  0  0  0
   39.0139   31.8070   42.1494 O   0  0  0  0  0  0  0  0  0  0  0  0
   40.9952   33.1985   41.8778 O   0  0  0  0  0  0  0  0  0  0  0  0
   40.9735   31.6144   43.9980 C   0  0  0  0  0  0  0  0  0  0  0  0
   40.9794   31.7268   45.3951 C   0  0  0  0  0  0  0  0  0  0  0  0
   41.7720   30.8468   46.0904 C   0  0  0  0  0  0  0  0  0  0  0  0
   41.7231   31.0110   47.1543 H   0  0  0  0  0  0  0  0  0  0  0  0
   42.5256   29.8966   45.4364 C   0  0  0  0  0  0  0  0  0  0  0  0
   43.1141   29.2521   46.0634 H   0  0  0  0  0  0  0  0  0  0  0  0
   42.5233   29.7821   44.0688 C   0  0  0  0  0  0  0  0  0  0  0  0
   41.7389   30.6507   43.3466 C   0  0  0  0  0  0  0  0  0  0  0  0
   43.1407   29.0113   43.6241 H   0  0  0  0  0  0  0  0  0  0  0  0
   41.7805   30.5100   42.2771 H   0  0  0  0  0  0  0  0  0  0  0  0
  1  2  1  0
  2  3  2  0
  3  4  1  0
  3  9  1  0
  5  4  2  0
  6  5  1  0
  7  2  1  0
  7  6  2  0
  8 13  2  0
  9  8  1  0
 10  9  2  0
 10 11  1  0
 11 12  2  0
 12 13  1  0
 14  7  1  0
  4 15  1  0
  5 16  1  0
  6 17  1  0
  8 18  1  0
 10 19  1  0
 12 20  1  0
 21 22  1  0
 22 23  2  0
 22 24  2  0
 22 25  1  0
 25 26  2  0
 26 27  1  0
 27 28  1  0
 27 29  2  0
 29 30  1  0
 29 31  1  0
 31 32  2  0
 32 25  1  0
 31 33  1  0
 32 34  1  0
 14 26  1  0
M  ISO  8  15  14  16  14  17  14  18  14  19  14  20  14  21  12  28  15
M  ISO  1  30  16
M  END
>  <DihAtoms>  (1) 
6,13,25,24

>  <DihDeg>  (1) 
177.92435772663805

$$$$
