
 OpenBabel03262520353D

 45 47  0  0  0  0  0  0  0  0999 V2000
   27.9150   28.2470   48.6540 C   0  0  0  0  0  0  0  0  0  0  0  0
   29.2130   27.9550   49.1080 C   0  0  0  0  0  0  0  0  0  0  0  0
   29.4400   27.4450   50.3680 C   0  0  0  0  0  0  0  0  0  0  0  0
   28.3700   27.2180   51.1990 C   0  0  0  0  0  0  0  0  0  0  0  0
   27.1070   27.5010   50.7620 C   0  0  0  0  0  0  0  0  0  0  0  0
   26.8390   28.0090   49.5160 C   0  0  0  0  0  0  0  0  0  0  0  0
   30.4690   27.2480   50.6390 H   0  0  0  0  0  0  0  0  0  0  0  0
   28.6480   26.8180   52.1650 H   0  0  0  0  0  0  0  0  0  0  0  0
   26.3170   27.2880   51.4930 H   0  0  0  0  0  0  0  0  0  0  0  0
   25.8150   28.1860   49.3210 H   0  0  0  0  0  0  0  0  0  0  0  0
   27.5500   28.8910   47.0770 S   0  0  0  0  0  0  0  0  0  0  0  0
   28.7450   28.8950   46.2050 O   0  0  0  0  0  0  0  0  0  0  0  0
   26.4460   28.0190   46.4530 O   0  0  0  0  0  0  0  0  0  0  0  0
   26.7830   31.1210   45.9400 C   0  0  0  0  0  0  0  0  0  0  0  0
   26.8920   30.4880   47.1680 C   0  0  0  0  0  0  0  0  0  0  0  0
   26.4820   31.1140   48.3240 C   0  0  0  0  0  0  0  0  0  0  0  0
   26.5990   30.5590   49.2330 H   0  0  0  0  0  0  0  0  0  0  0  0
   25.9460   32.3960   48.3100 C   0  0  0  0  0  0  0  0  0  0  0  0
   25.6270   32.8780   49.2260 H   0  0  0  0  0  0  0  0  0  0  0  0
   25.8300   33.0430   47.0950 C   0  0  0  0  0  0  0  0  0  0  0  0
   26.2440   32.4130   45.9190 C   0  0  0  0  0  0  0  0  0  0  0  0
   28.3690   29.8340   44.3320 H   0  0  0  0  0  0  0  0  0  0  0  0
   27.2330   30.5930   44.3530 S   0  0  0  0  0  0  0  0  0  0  0  0
   26.1050   29.8850   43.6520 O   0  0  0  0  0  0  0  0  0  0  0  0
   27.5210   31.8210   43.5000 O   0  0  0  0  0  0  0  0  0  0  0  0
   30.1670   28.2380   48.1640 O   0  0  0  0  0  0  0  0  0  0  0  0
   31.5810   26.0200   48.2610 O   0  0  0  0  0  0  0  0  0  0  0  0
   31.6790   27.5180   47.9870 P   0  0  1  0  0  0  0  0  0  0  0  0
   32.3120   27.8210   46.4410 O   0  0  0  0  0  0  0  0  0  0  0  0
   31.7110   28.4370   45.9420 H   0  0  0  0  0  0  0  0  0  0  0  0
   32.7900   28.1000   49.1450 O   0  0  0  0  0  0  0  0  0  0  0  0
   34.0800   27.7380   48.7300 C   0  0  0  0  0  0  0  0  0  0  0  0
   34.0080   27.1600   47.7980 H   0  0  0  0  0  0  0  0  0  0  0  0
   34.5290   27.0730   49.4950 H   0  0  0  0  0  0  0  0  0  0  0  0
   35.9710   29.1780   49.3850 C   0  0  0  0  0  0  0  0  0  0  0  0
   34.9720   28.9130   48.5850 C   0  0  0  0  0  0  0  0  0  0  0  0
   37.4550   32.5180   49.5820 C   0  0  0  0  0  0  0  0  0  0  0  0
   38.3530   32.5000   48.5060 C   0  0  0  0  0  0  0  0  0  0  0  0
   38.4370   31.3450   47.7280 C   0  0  0  0  0  0  0  0  0  0  0  0
   37.6070   30.3190   48.1110 N   0  0  0  0  0  0  0  0  0  0  0  0
   36.7710   30.3650   49.1290 C   0  0  0  0  0  0  0  0  0  0  0  0
   36.6990   31.4700   49.8630 N   0  0  0  0  0  0  0  0  0  0  0  0
   37.3390   33.3850   50.2280 H   0  0  0  0  0  0  0  0  0  0  0  0
   38.9640   33.3890   48.3020 H   0  0  0  0  0  0  0  0  0  0  0  0
   39.1100   31.3010   46.9040 H   0  0  0  0  0  0  0  0  0  0  0  0
  1  2  2  0  0  0  0
  1  6  1  0  0  0  0
  2  3  1  0  0  0  0
  3  7  1  0  0  0  0
  3  4  2  0  0  0  0
  4  8  1  0  0  0  0
  5  4  1  0  0  0  0
  5  9  1  0  0  0  0
  6  5  2  0  0  0  0
 10  6  1  0  0  0  0
 11 15  1  0  0  0  0
 11  1  1  0  0  0  0
 12 11  2  0  0  0  0
 13 11  2  0  0  0  0
 14 15  1  0  0  0  0
 15 16  2  0  0  0  0
 16 17  1  0  0  0  0
 18 16  1  0  0  0  0
 18 19  1  0  0  0  0
 20 18  2  0  0  0  0
 21 14  2  0  0  0  0
 21 20  1  0  0  0  0
 22 23  1  0  0  0  0
 23 14  1  0  0  0  0
 24 23  2  0  0  0  0
 25 23  2  0  0  0  0
 26  2  1  0  0  0  0
 28 26  1  0  0  0  0
 28 27  2  1  0  0  0
 28 31  1  0  0  0  0
 29 28  1  0  0  0  0
 30 29  1  0  0  0  0
 32 31  1  0  0  0  0
 32 34  1  0  0  0  0
 33 32  1  0  0  0  0
 36 32  1  0  0  0  0
 36 35  2  0  0  0  0
 37 42  1  0  0  0  0
 37 43  1  0  0  0  0
 38 37  2  0  0  0  0
 39 40  2  0  0  0  0
 39 38  1  0  0  0  0
 40 41  1  0  0  0  0
 41 35  1  0  0  0  0
 41 42  2  0  0  0  0
 44 38  1  0  0  0  0
 45 39  1  0  0  0  0
M  END
>  <minimizedAffinity>
-7.05595016

>  <minimizedRMSD>
2.38972473

$$$$
