REMARK  Name = 
REMARK  5 active torsions:
REMARK  status: ('A' for Active; 'I' for Inactive)
REMARK    1  A    between atoms: C_1  and  C_8
REMARK    2  A    between atoms: C_4  and  O_13
REMARK    3  A    between atoms: O_13  and  C_14
REMARK    4  A    between atoms: N_17  and  C_32
REMARK    5  A    between atoms: S_28  and  C_31
REMARK                            x       y       z     vdW  Elec       q    Type
REMARK                         _______ _______ _______ _____ _____    ______ ____
ROOT
ATOM      1  O   UNL     1      37.745  30.050  49.222  0.00  0.00    +0.000 OA
ENDROOT
BRANCH   1   5
ATOM      2  C   UNL     1      33.834  28.790  48.279  0.00  0.00    +0.000 A 
ATOM      3  C   UNL     1      34.430  28.429  49.443  0.00  0.00    +0.000 A 
ATOM      4  C   UNL     1      35.702  28.801  49.821  0.00  0.00    +0.000 A 
ATOM      5  C   UNL     1      36.452  29.589  48.994  0.00  0.00    +0.000 A 
ATOM      6  C   UNL     1      35.844  29.966  47.788  0.00  0.00    +0.000 A 
ATOM      7  N   UNL     1      34.597  29.578  47.462  0.00  0.00    +0.000 NA
ATOM      8  H   UNL     1      33.905  27.806  50.154  0.00  0.00    +0.000 HD
ATOM      9  H   UNL     1      36.165  28.509  50.747  0.00  0.00    +0.000 HD
ATOM     10  H   UNL     1      36.335  30.588  47.053  0.00  0.00    +0.000 HD
BRANCH   2  12
ATOM     11  C   UNL     1      31.653  27.646  48.682  0.00  0.00    +0.000 A 
ATOM     12  C   UNL     1      32.517  28.405  47.879  0.00  0.00    +0.000 A 
ATOM     13  C   UNL     1      32.028  28.771  46.654  0.00  0.00    +0.000 A 
ATOM     14  N   UNL     1      30.762  28.395  46.273  0.00  0.00    +0.000 NA
ATOM     15  C   UNL     1      29.980  27.658  47.103  0.00  0.00    +0.000 A 
ATOM     16  N   UNL     1      30.412  27.278  48.307  0.00  0.00    +0.000 NA
ATOM     17  H   UNL     1      31.987  27.329  49.662  0.00  0.00    +0.000 HD
ATOM     18  H   UNL     1      32.670  29.362  46.001  0.00  0.00    +0.000 HD
ATOM     19  H   UNL     1      29.038  27.482  46.601  0.00  0.00    +0.000 HD
ENDBRANCH   2  12
ENDBRANCH   1   5
BRANCH   1  20
ATOM     20  C   UNL     1      38.164  31.302  48.775  0.00  0.00    +0.000 A 
ATOM     21  C   UNL     1      37.882  32.325  49.680  0.00  0.00    +0.000 A 
ATOM     22  C   UNL     1      38.349  33.506  49.113  0.00  0.00    +0.000 A 
ATOM     23  N   UNL     1      38.885  33.174  47.917  0.00  0.00    +0.000 N 
ATOM     24  N   UNL     1      38.772  31.884  47.729  0.00  0.00    +0.000 NA
ATOM     25  H   UNL     1      37.418  32.430  50.656  0.00  0.00    +0.000 HD
ATOM     26  H   UNL     1      38.343  34.532  49.456  0.00  0.00    +0.000 HD
BRANCH  23  28
ATOM     27  C   UNL     1      40.291  33.581  45.934  0.00  0.00    +0.000 A 
ATOM     28  C   UNL     1      39.488  34.054  46.976  0.00  0.00    +0.000 A 
ATOM     29  C   UNL     1      39.248  35.404  47.133  0.00  0.00    +0.000 A 
ATOM     30  H   UNL     1      38.629  35.775  47.935  0.00  0.00    +0.000 HD
ATOM     31  C   UNL     1      39.812  36.317  46.242  0.00  0.00    +0.000 A 
ATOM     32  H   UNL     1      39.665  37.389  46.305  0.00  0.00    +0.000 HD
ATOM     33  C   UNL     1      40.602  35.839  45.217  0.00  0.00    +0.000 A 
ATOM     34  C   UNL     1      40.852  34.502  45.046  0.00  0.00    +0.000 A 
BRANCH  27  36
ATOM     35  H   UNL     1      41.528  31.422  46.675  0.00  0.00    +0.000 HD
ATOM     36  S   UNL     1      40.554  31.855  45.795  0.00  0.00    +0.000 S 
ATOM     37  O   UNL     1      40.886  31.457  44.375  0.00  0.00    +0.000 OA
ATOM     38  O   UNL     1      39.281  31.161  46.201  0.00  0.00    +0.000 OA
ENDBRANCH  27  36
ENDBRANCH  23  28
ENDBRANCH   1  20
TORSDOF 5
