
 OpenBabel03272502393D

 43 46  0  0  1  0  0  0  0  0999 V2000
   35.8730   30.4720   46.5990 F   0  0  0  0  0  0  0  0  0  0  0  0
   36.1930   30.0470   47.8390 C   0  0  0  0  0  0  0  0  0  0  0  0
   35.3900   29.3370   48.7040 C   0  0  0  0  0  0  0  0  0  0  0  0
   35.9170   28.9610   49.9510 C   0  0  0  0  0  0  0  0  0  0  0  0
   37.2070   29.2880   50.3190 C   0  0  0  0  0  0  0  0  0  0  0  0
   38.0000   30.0080   49.4270 C   0  0  0  0  0  0  0  0  0  0  0  0
   37.4790   30.3850   48.1790 C   0  0  0  0  0  0  0  0  0  0  0  0
   35.1950   28.4090   50.5340 H   0  0  0  0  0  0  0  0  0  0  0  0
   37.5220   28.9560   51.2980 H   0  0  0  0  0  0  0  0  0  0  0  0
   39.0060   30.2500   49.7440 H   0  0  0  0  0  0  0  0  0  0  0  0
   32.0930   27.9420   48.1950 N   0  0  0  0  0  0  0  0  0  0  0  0
   32.6800   27.5580   46.9260 C   0  0  0  0  0  0  0  0  0  0  0  0
   34.0270   28.2160   46.9610 C   0  0  0  0  0  0  0  0  0  0  0  0
   34.0020   29.1340   48.2600 C   0  0  1  0  0  0  0  0  0  0  0  0
   33.1810   28.2900   49.1350 C   0  0  0  0  0  0  0  0  0  0  0  0
   32.0630   28.0380   46.1350 H   0  0  0  0  0  0  0  0  0  0  0  0
   32.7450   26.4670   46.7950 H   0  0  0  0  0  0  0  0  0  0  0  0
   34.8130   27.4820   47.1580 H   0  0  0  0  0  0  0  0  0  0  0  0
   34.2290   28.8640   46.0930 H   0  0  0  0  0  0  0  0  0  0  0  0
   33.6260   30.0690   47.8280 H   0  0  0  0  0  0  0  0  0  0  0  0
   33.6800   27.3470   49.3470 H   0  0  0  0  0  0  0  0  0  0  0  0
   32.7620   28.7920   50.0280 H   0  0  0  0  0  0  0  0  0  0  0  0
   30.7210   27.9990   48.5230 C   0  0  0  0  0  0  0  0  0  0  0  0
   29.8530   28.2890   47.4580 C   0  0  0  0  0  0  0  0  0  0  0  0
   28.4770   28.3730   47.7130 C   0  0  0  0  0  0  0  0  0  0  0  0
   28.0760   28.1590   49.0180 N   0  0  0  0  0  0  0  0  0  0  0  0
   28.9340   27.8870   50.0030 C   0  0  0  0  0  0  0  0  0  0  0  0
   30.2680   27.8050   49.7590 N   0  0  0  0  0  0  0  0  0  0  0  0
   30.1230   28.4610   46.4280 H   0  0  0  0  0  0  0  0  0  0  0  0
   27.7560   28.5940   46.9360 H   0  0  0  0  0  0  0  0  0  0  0  0
   28.5450   27.7310   51.0000 H   0  0  0  0  0  0  0  0  0  0  0  0
   38.9110   32.3820   47.5520 C   0  0  0  0  0  0  0  0  0  0  0  0
   38.3980   31.1340   47.3280 C   0  0  0  0  0  0  0  0  0  0  0  0
   38.7420   30.4320   46.1780 C   0  0  0  0  0  0  0  0  0  0  0  0
   38.3940   29.4420   45.9050 H   0  0  0  0  0  0  0  0  0  0  0  0
   39.6110   31.0130   45.2660 C   0  0  0  0  0  0  0  0  0  0  0  0
   39.9050   30.4860   44.3460 H   0  0  0  0  0  0  0  0  0  0  0  0
   40.1520   32.2810   45.4630 C   0  0  0  0  0  0  0  0  0  0  0  0
   39.7700   32.9330   46.6300 C   0  0  0  0  0  0  0  0  0  0  0  0
   37.0610   33.2050   49.1350 H   0  0  0  0  0  0  0  0  0  0  0  0
   38.4170   33.1680   49.0150 S   0  0  0  0  0  0  0  0  0  0  0  0
   39.0890   32.5070   50.1750 O   0  0  0  0  0  0  0  0  0  0  0  0
   38.9770   34.5800   48.9590 O   0  0  0  0  0  0  0  0  0  0  0  0
  1  2  1  0  0  0  0
  2  7  2  0  0  0  0
  2  3  1  0  0  0  0
  3  4  2  0  0  0  0
  4  5  1  0  0  0  0
  4  8  1  0  0  0  0
  5  9  1  0  0  0  0
  6 10  1  0  0  0  0
  6  5  2  0  0  0  0
  7  6  1  0  0  0  0
 11 23  1  0  0  0  0
 11 15  1  0  0  0  0
 12 13  1  0  0  0  0
 12 11  1  0  0  0  0
 13 18  1  0  0  0  0
 13 14  1  0  0  0  0
 14 20  1  6  0  0  0
 14  3  1  0  0  0  0
 14 15  1  0  0  0  0
 15 21  1  0  0  0  0
 15 22  1  0  0  0  0
 16 12  1  0  0  0  0
 17 12  1  0  0  0  0
 19 13  1  0  0  0  0
 23 28  1  0  0  0  0
 24 25  1  0  0  0  0
 24 23  2  0  0  0  0
 25 26  2  0  0  0  0
 26 27  1  0  0  0  0
 27 31  1  0  0  0  0
 28 27  2  0  0  0  0
 29 24  1  0  0  0  0
 30 25  1  0  0  0  0
 32 41  1  0  0  0  0
 33 32  1  0  0  0  0
 33  7  1  0  0  0  0
 34 33  2  0  0  0  0
 35 34  1  0  0  0  0
 36 38  2  0  0  0  0
 36 34  1  0  0  0  0
 37 36  1  0  0  0  0
 38 39  1  0  0  0  0
 39 32  2  0  0  0  0
 41 40  1  0  0  0  0
 41 42  2  0  0  0  0
 43 41  2  0  0  0  0
M  END
>  <minimizedAffinity>
-7.37940454

>  <minimizedRMSD>
3.53460646

$$$$
