
 OpenBabel03272504393D

 45 47  0  0  0  0  0  0  0  0999 V2000
   34.5220   29.1680   48.5310 C   0  0  0  0  0  0  0  0  0  0  0  0
   35.4120   28.8050   49.0850 H   0  0  0  0  0  0  0  0  0  0  0  0
   34.1850   30.0640   49.1270 H   0  0  0  0  0  0  0  0  0  0  0  0
   37.2920   30.2130   48.4150 Cl  0  0  0  0  0  0  0  0  0  0  0  0
   36.2030   30.1730   47.0270 C   0  0  0  0  0  0  0  0  0  0  0  0
   36.6390   30.6450   45.8260 C   0  0  0  0  0  0  0  0  0  0  0  0
   35.8040   30.6200   44.7440 C   0  0  0  0  0  0  0  0  0  0  0  0
   34.5270   30.1120   44.8910 C   0  0  0  0  0  0  0  0  0  0  0  0
   34.1320   29.6410   46.1470 C   0  0  0  0  0  0  0  0  0  0  0  0
   34.9500   29.6580   47.2390 C   0  0  0  0  0  0  0  0  0  0  0  0
   36.1910   31.0070   43.7920 H   0  0  0  0  0  0  0  0  0  0  0  0
   33.9520   30.1380   43.9750 H   0  0  0  0  0  0  0  0  0  0  0  0
   33.1580   29.3060   46.0570 H   0  0  0  0  0  0  0  0  0  0  0  0
   39.6790   32.7140   46.1650 C   0  0  0  0  0  0  0  0  0  0  0  0
   40.5710   32.0330   45.2860 C   0  0  0  0  0  0  0  0  0  0  0  0
   40.0940   30.8930   44.6140 C   0  0  0  0  0  0  0  0  0  0  0  0
   38.8130   30.5020   44.8370 N   0  0  0  0  0  0  0  0  0  0  0  0
   37.9900   31.1780   45.6840 C   0  0  0  0  0  0  0  0  0  0  0  0
   38.4270   32.2620   46.3300 N   0  0  0  0  0  0  0  0  0  0  0  0
   40.0440   33.6000   46.6900 H   0  0  0  0  0  0  0  0  0  0  0  0
   41.5830   32.3810   45.1400 H   0  0  0  0  0  0  0  0  0  0  0  0
   40.9960   30.2470   43.7570 N   0  0  0  0  0  0  0  0  0  0  0  0
   41.4990   29.3410   43.8100 H   0  0  0  0  0  0  0  0  0  0  0  0
   41.1140   30.8920   42.9390 H   0  0  0  0  0  0  0  0  0  0  0  0
   33.4890   28.1320   48.5970 C   0  0  0  0  0  0  0  0  0  0  0  0
   33.1000   28.0560   49.6430 H   0  0  0  0  0  0  0  0  0  0  0  0
   32.6070   28.3480   47.9480 H   0  0  0  0  0  0  0  0  0  0  0  0
   33.9820   26.9090   48.1850 O   0  0  0  0  0  0  0  0  0  0  0  0
   32.4950   26.6290   46.0260 O   0  0  0  0  0  0  0  0  0  0  0  0
   32.7920   26.0440   47.3850 P   0  0  2  0  0  0  0  0  0  0  0  0
   31.4010   26.0980   48.3900 O   0  0  0  0  0  0  0  0  0  0  0  0
   30.6180   25.9480   47.7830 H   0  0  0  0  0  0  0  0  0  0  0  0
   33.1820   24.4330   47.1930 O   0  0  0  0  0  0  0  0  0  0  0  0
   32.4150   22.3020   47.6090 C   0  0  0  0  0  0  0  0  0  0  0  0
   32.2260   23.4870   46.8940 C   0  0  0  0  0  0  0  0  0  0  0  0
   31.1680   23.5480   46.0290 C   0  0  0  0  0  0  0  0  0  0  0  0
   31.0870   24.4930   45.5130 H   0  0  0  0  0  0  0  0  0  0  0  0
   30.3110   22.4860   45.8640 C   0  0  0  0  0  0  0  0  0  0  0  0
   29.4930   22.6180   45.1550 H   0  0  0  0  0  0  0  0  0  0  0  0
   30.4770   21.2880   46.5670 C   0  0  0  0  0  0  0  0  0  0  0  0
   31.5480   21.2350   47.4370 C   0  0  0  0  0  0  0  0  0  0  0  0
   34.4340   23.2090   48.9100 H   0  0  0  0  0  0  0  0  0  0  0  0
   33.7270   22.0510   48.7630 S   0  0  0  0  0  0  0  0  0  0  0  0
   34.6040   20.9610   48.2040 O   0  0  0  0  0  0  0  0  0  0  0  0
   33.1910   21.5490   50.0810 O   0  0  0  0  0  0  0  0  0  0  0  0
  1 25  1  0  0  0  0
  1  2  1  0  0  0  0
  1  3  1  0  0  0  0
  5 10  1  0  0  0  0
  5  4  1  0  0  0  0
  6  5  2  0  0  0  0
  7  8  2  0  0  0  0
  7  6  1  0  0  0  0
  8  9  1  0  0  0  0
  9 10  2  0  0  0  0
 10  1  1  0  0  0  0
 11  7  1  0  0  0  0
 12  8  1  0  0  0  0
 13  9  1  0  0  0  0
 14 19  1  0  0  0  0
 14 20  1  0  0  0  0
 15 14  2  0  0  0  0
 16 17  2  0  0  0  0
 16 15  1  0  0  0  0
 17 18  1  0  0  0  0
 18  6  1  0  0  0  0
 18 19  2  0  0  0  0
 21 15  1  0  0  0  0
 22 23  1  0  0  0  0
 22 16  1  0  0  0  0
 24 22  1  0  0  0  0
 25 26  1  0  0  0  0
 27 25  1  0  0  0  0
 28 25  1  0  0  0  0
 30 29  2  6  0  0  0
 30 28  1  0  0  0  0
 30 31  1  0  0  0  0
 32 31  1  0  0  0  0
 33 30  1  0  0  0  0
 34 43  1  0  0  0  0
 35 33  1  0  0  0  0
 35 34  2  0  0  0  0
 36 35  1  0  0  0  0
 37 36  1  0  0  0  0
 38 36  2  0  0  0  0
 38 40  1  0  0  0  0
 39 38  1  0  0  0  0
 40 41  2  0  0  0  0
 41 34  1  0  0  0  0
 43 42  1  0  0  0  0
 43 45  2  0  0  0  0
 44 43  2  0  0  0  0
M  END
>  <minimizedAffinity>
-4.91508865

>  <minimizedRMSD>
2.72128153

$$$$
