REMARK  Name = 
REMARK  4 active torsions:
REMARK  status: ('A' for Active; 'I' for Inactive)
REMARK    1  A    between atoms: C_2  and  C_10
REMARK    2  A    between atoms: C_3  and  C_16
REMARK    3  A    between atoms: C_16  and  C_30
REMARK    4  A    between atoms: S_26  and  C_29
REMARK                            x       y       z     vdW  Elec       q    Type
REMARK                         _______ _______ _______ _____ _____    ______ ____
ROOT
ATOM      1  C   UNL     1      37.819  30.496  50.177  0.00  0.00    +0.000 A 
ATOM      2  C   UNL     1      37.328  30.684  48.898  0.00  0.00    +0.000 A 
ATOM      3  C   UNL     1      36.005  30.274  48.580  0.00  0.00    +0.000 A 
ATOM      4  N   UNL     1      35.290  29.712  49.571  0.00  0.00    +0.000 NA
ATOM      5  C   UNL     1      35.799  29.538  50.829  0.00  0.00    +0.000 A 
ATOM      6  N   UNL     1      37.051  29.930  51.114  0.00  0.00    +0.000 NA
ATOM      7  N   UNL     1      34.955  28.935  51.812  0.00  0.00    +0.000 N 
ATOM      8  H   UNL     1      38.849  30.825  50.396  0.00  0.00    +0.000 HD
ATOM      9  H   UNL     1      34.684  27.947  51.885  0.00  0.00    +0.000 HD
ATOM     10  H   UNL     1      34.678  29.742  52.440  0.00  0.00    +0.000 HD
ENDROOT
BRANCH   2  13
ATOM     11 CL   UNL     1      38.227  33.576  49.217  0.00  0.00    +0.000 Cl
ATOM     12  C   UNL     1      38.716  32.595  47.866  0.00  0.00    +0.000 A 
ATOM     13  C   UNL     1      38.218  31.321  47.903  0.00  0.00    +0.000 A 
ATOM     14  C   UNL     1      38.570  30.456  46.858  0.00  0.00    +0.000 A 
ATOM     15  C   UNL     1      39.367  30.832  45.835  0.00  0.00    +0.000 A 
ATOM     16  C   UNL     1      39.860  32.132  45.818  0.00  0.00    +0.000 A 
ATOM     17 CL   UNL     1      40.894  32.675  44.524  0.00  0.00    +0.000 Cl
ATOM     18  C   UNL     1      39.532  32.980  46.818  0.00  0.00    +0.000 A 
ATOM     19  H   UNL     1      38.254  29.424  46.783  0.00  0.00    +0.000 HD
ATOM     20  H   UNL     1      39.671  30.202  45.000  0.00  0.00    +0.000 HD
ATOM     21  H   UNL     1      39.889  34.023  46.863  0.00  0.00    +0.000 HD
ENDBRANCH   2  13
BRANCH   3  22
ATOM     22  C   UNL     1      35.507  30.503  47.227  0.00  0.00    +0.000 C 
ATOM     23  H   UNL     1      35.908  31.468  46.862  0.00  0.00    +0.000 HD
ATOM     24  H   UNL     1      35.958  29.732  46.546  0.00  0.00    +0.000 HD
BRANCH  22  26
ATOM     25  C   UNL     1      33.212  29.394  47.013  0.00  0.00    +0.000 A 
ATOM     26  C   UNL     1      34.028  30.503  47.102  0.00  0.00    +0.000 A 
ATOM     27  C   UNL     1      33.372  31.730  47.100  0.00  0.00    +0.000 A 
ATOM     28  H   UNL     1      33.987  32.640  47.172  0.00  0.00    +0.000 HD
ATOM     29  C   UNL     1      32.012  31.919  47.020  0.00  0.00    +0.000 A 
ATOM     30  H   UNL     1      31.616  32.948  47.029  0.00  0.00    +0.000 HD
ATOM     31  C   UNL     1      31.210  30.792  46.932  0.00  0.00    +0.000 A 
ATOM     32  C   UNL     1      31.850  29.564  46.932  0.00  0.00    +0.000 A 
BRANCH  25  34
ATOM     33  H   UNL     1      34.384  27.497  48.227  0.00  0.00    +0.000 HD
ATOM     34  S   UNL     1      33.952  27.826  46.982  0.00  0.00    +0.000 S 
ATOM     35  O   UNL     1      32.901  26.787  46.595  0.00  0.00    +0.000 OA
ATOM     36  O   UNL     1      35.016  27.702  45.927  0.00  0.00    +0.000 OA
ENDBRANCH  25  34
ENDBRANCH  22  26
ENDBRANCH   3  22
TORSDOF 4
