
 OpenBabel03272505383D

 34 36  0  0  0  0  0  0  0  0999 V2000
   36.1940   30.5570   46.4880 C   0  0  0  0  0  0  0  0  0  0  0  0
   34.9250   30.0430   46.4920 C   0  0  0  0  0  0  0  0  0  0  0  0
   34.2400   29.8350   45.3250 C   0  0  0  0  0  0  0  0  0  0  0  0
   34.7890   30.1340   44.0750 C   0  0  0  0  0  0  0  0  0  0  0  0
   36.0780   30.6580   44.0400 C   0  0  0  0  0  0  0  0  0  0  0  0
   36.7050   30.8390   45.2490 C   0  0  0  0  0  0  0  0  0  0  0  0
   34.4170   29.7820   47.4110 H   0  0  0  0  0  0  0  0  0  0  0  0
   33.2250   29.4240   45.3270 H   0  0  0  0  0  0  0  0  0  0  0  0
   34.2270   29.9610   43.1660 H   0  0  0  0  0  0  0  0  0  0  0  0
   36.4940   30.8840   43.0810 H   0  0  0  0  0  0  0  0  0  0  0  0
   37.4440   30.2070   49.8990 C   0  0  0  0  0  0  0  0  0  0  0  0
   38.3480   31.2640   50.0210 C   0  0  0  0  0  0  0  0  0  0  0  0
   38.5230   32.0980   48.9090 C   0  0  0  0  0  0  0  0  0  0  0  0
   37.8000   31.8210   47.7930 N   0  0  0  0  0  0  0  0  0  0  0  0
   36.9360   30.7920   47.7090 C   0  0  0  0  0  0  0  0  0  0  0  0
   36.7640   29.9910   48.7680 N   0  0  0  0  0  0  0  0  0  0  0  0
   38.9170   31.4820   50.9020 H   0  0  0  0  0  0  0  0  0  0  0  0
   39.2130   32.9350   48.9490 H   0  0  0  0  0  0  0  0  0  0  0  0
   37.2530   29.3070   51.0970 C   0  0  0  0  0  0  0  0  0  0  0  0
   35.8860   29.0500   51.2670 F   0  0  0  0  0  0  0  0  0  0  0  0
   37.9840   28.1890   50.9040 F   0  0  0  0  0  0  0  0  0  0  0  0
   37.6460   30.0280   52.2260 F   0  0  0  0  0  0  0  0  0  0  0  0
   38.8950   30.6070   44.3130 C   0  0  0  0  0  0  0  0  0  0  0  0
   38.0660   31.3980   45.0960 C   0  0  0  0  0  0  0  0  0  0  0  0
   38.5380   32.5700   45.6380 C   0  0  0  0  0  0  0  0  0  0  0  0
   37.8350   33.1170   46.2260 H   0  0  0  0  0  0  0  0  0  0  0  0
   39.8380   32.9660   45.4060 C   0  0  0  0  0  0  0  0  0  0  0  0
   40.1830   33.8930   45.8450 H   0  0  0  0  0  0  0  0  0  0  0  0
   40.7150   32.2210   44.6330 C   0  0  0  0  0  0  0  0  0  0  0  0
   40.2010   31.0690   44.1190 C   0  0  0  0  0  0  0  0  0  0  0  0
   37.1470   28.7050   44.0930 H   0  0  0  0  0  0  0  0  0  0  0  0
   38.3590   29.0920   43.5830 S   0  0  0  0  0  0  0  0  0  0  0  0
   38.2450   29.3100   42.1080 O   0  0  0  0  0  0  0  0  0  0  0  0
   39.3660   28.0060   43.8480 O   0  0  0  0  0  0  0  0  0  0  0  0
  1  2  1  0  0  0  0
  1 15  1  0  0  0  0
  2  7  1  0  0  0  0
  3  8  1  0  0  0  0
  3  2  2  0  0  0  0
  4  3  1  0  0  0  0
  5  4  2  0  0  0  0
  5  6  1  0  0  0  0
  6  1  2  0  0  0  0
  9  4  1  0  0  0  0
 10  5  1  0  0  0  0
 11 12  1  0  0  0  0
 11 19  1  0  0  0  0
 12 17  1  0  0  0  0
 13 18  1  0  0  0  0
 13 12  2  0  0  0  0
 14 13  1  0  0  0  0
 15 14  2  0  0  0  0
 15 16  1  0  0  0  0
 16 11  2  0  0  0  0
 19 20  1  0  0  0  0
 19 22  1  0  0  0  0
 21 19  1  0  0  0  0
 23 24  1  0  0  0  0
 24  6  1  0  0  0  0
 24 25  2  0  0  0  0
 25 26  1  0  0  0  0
 27 25  1  0  0  0  0
 27 28  1  0  0  0  0
 29 27  2  0  0  0  0
 30 23  2  0  0  0  0
 30 29  1  0  0  0  0
 32 34  2  0  0  0  0
 32 31  1  0  0  0  0
 32 23  1  0  0  0  0
 33 32  2  0  0  0  0
M  END
>  <minimizedAffinity>
-6.58928394

>  <minimizedRMSD>
0.699068427

$$$$
