
 OpenBabel03272505263D

 34 36  0  0  0  0  0  0  0  0999 V2000
   37.4480   31.1640   46.8960 N   0  0  0  0  0  0  0  0  0  0  0  0
   36.9420   30.8540   45.6720 C   0  0  0  0  0  0  0  0  0  0  0  0
   37.4790   31.3770   44.5030 C   0  0  0  0  0  0  0  0  0  0  0  0
   38.5760   32.2490   44.6300 C   0  0  0  0  0  0  0  0  0  0  0  0
   39.0880   32.7420   43.6000 O   0  0  0  0  0  0  0  0  0  0  0  0
   39.0760   32.5530   45.8600 N   0  0  0  0  0  0  0  0  0  0  0  0
   38.4760   31.9880   46.9140 C   0  0  0  0  0  0  0  0  0  0  0  0
   38.9620   32.2930   48.0230 O   0  0  0  0  0  0  0  0  0  0  0  0
   36.0940   30.1770   45.6140 H   0  0  0  0  0  0  0  0  0  0  0  0
   37.0780   29.4040   50.1460 C   0  0  0  0  0  0  0  0  0  0  0  0
   37.6450   29.9240   48.9720 C   0  0  0  0  0  0  0  0  0  0  0  0
   36.8970   30.6320   48.0670 C   0  0  0  0  0  0  0  0  0  0  0  0
   35.5720   30.8140   48.3480 N   0  0  0  0  0  0  0  0  0  0  0  0
   34.9980   30.3170   49.4830 C   0  0  0  0  0  0  0  0  0  0  0  0
   35.7620   29.6150   50.3720 N   0  0  0  0  0  0  0  0  0  0  0  0
   37.6030   28.8460   50.8900 H   0  0  0  0  0  0  0  0  0  0  0  0
   38.6880   29.6730   48.9170 H   0  0  0  0  0  0  0  0  0  0  0  0
   33.9350   30.4880   49.6640 H   0  0  0  0  0  0  0  0  0  0  0  0
   37.4340   30.1090   42.3070 C   0  0  0  0  0  0  0  0  0  0  0  0
   36.9320   31.0430   43.1920 C   0  0  0  0  0  0  0  0  0  0  0  0
   35.7910   31.7670   42.8400 C   0  0  0  0  0  0  0  0  0  0  0  0
   35.3140   32.5200   43.4510 H   0  0  0  0  0  0  0  0  0  0  0  0
   35.1690   31.5590   41.6340 C   0  0  0  0  0  0  0  0  0  0  0  0
   34.2790   32.0950   41.3160 H   0  0  0  0  0  0  0  0  0  0  0  0
   35.6650   30.6240   40.7440 C   0  0  0  0  0  3  0  0  0  0  0  0
   36.7980   29.9050   41.0890 C   0  0  0  0  0  3  0  0  0  0  0  0
   38.9630   28.0510   42.1160 H   0  0  0  0  0  0  0  0  0  0  0  0
   38.8580   29.2470   42.8130 S   0  0  0  0  0  0  0  0  0  0  0  0
   40.0680   30.0500   42.4730 O   0  0  0  0  0  0  0  0  0  0  0  0
   38.8240   28.8830   44.2660 O   0  0  0  0  0  0  0  0  0  0  0  0
   40.2100   33.4490   45.9940 C   0  0  0  0  0  0  0  0  0  0  0  0
   40.1030   34.4670   45.1030 F   0  0  0  0  0  0  0  0  0  0  0  0
   41.4200   32.8270   45.7270 F   0  0  0  0  0  0  0  0  0  0  0  0
   40.2160   33.9840   47.2760 F   0  0  0  0  0  0  0  0  0  0  0  0
  1  7  1  0  0  0  0
  1 12  1  0  0  0  0
  2  1  1  0  0  0  0
  3  4  1  0  0  0  0
  3  2  2  0  0  0  0
  4  6  1  0  0  0  0
  5  4  2  0  0  0  0
  6 31  1  0  0  0  0
  6  7  1  0  0  0  0
  7  8  2  0  0  0  0
  9  2  1  0  0  0  0
 10 15  1  0  0  0  0
 10 16  1  0  0  0  0
 11 10  2  0  0  0  0
 12 13  2  0  0  0  0
 12 11  1  0  0  0  0
 13 14  1  0  0  0  0
 14 18  1  0  0  0  0
 14 15  2  0  0  0  0
 17 11  1  0  0  0  0
 19 28  1  0  0  0  0
 19 20  1  0  0  0  0
 20  3  1  0  0  0  0
 21 20  2  0  0  0  0
 21 22  1  0  0  0  0
 23 21  1  0  0  0  0
 24 23  1  0  0  0  0
 25 26  1  0  0  0  0
 25 23  2  0  0  0  0
 26 19  2  0  0  0  0
 27 28  1  0  0  0  0
 28 30  2  0  0  0  0
 29 28  2  0  0  0  0
 31 34  1  0  0  0  0
 32 31  1  0  0  0  0
 33 31  1  0  0  0  0
M  END
>  <minimizedAffinity>
-6.03329563

>  <minimizedRMSD>
0.992628455

$$$$
