
     RDKit          3D

 49 52  0  0  0  0  0  0  0  0999 V2000
   37.2406   29.2426   50.5719 C   0  0  0  0  0  0  0  0  0  0  0  0
   37.4031   30.5968   50.8954 C   0  0  0  0  0  0  0  0  0  0  0  0
   36.6779   31.5242   50.1370 C   0  0  0  0  0  0  0  0  0  0  0  0
   35.8717   31.0546   49.1465 N   0  0  0  0  0  0  0  0  0  0  0  0
   35.7545   29.7434   48.8806 C   0  0  0  0  0  0  0  0  0  0  0  0
   36.4343   28.8464   49.5885 N   0  0  0  0  0  0  0  0  0  0  0  0
   34.8927   29.3315   47.8335 N   0  0  0  0  0  0  0  0  0  0  0  0
   34.2329   28.0447   47.8687 C   0  0  0  0  0  0  0  0  0  0  0  0
   32.7598   28.2032   47.6689 C   0  0  0  0  0  0  0  0  0  0  0  0
   32.3402   29.4119   47.1884 N   0  0  0  0  0  0  0  0  0  0  0  0
   33.2096   30.2950   46.4484 C   0  0  0  0  0  0  0  0  0  0  0  0
   34.6233   30.1669   46.6784 C   0  0  2  0  0  0  0  0  0  0  0  0
   35.3961   29.5984   45.5716 N   0  0  0  0  0  0  0  0  0  0  0  0
   36.5260   30.4896   45.2712 C   0  0  0  0  0  0  0  0  0  0  0  0
   36.8002   30.3527   43.7935 C   0  0  0  0  0  0  0  0  0  0  0  0
   35.6884   29.5429   43.2729 C   0  0  0  0  0  0  0  0  0  0  0  0
   34.6568   29.4853   44.3755 C   0  0  1  0  0  0  0  0  0  0  0  0
   37.7834   28.4956   51.1342 H   0  0  0  0  0  0  0  0  0  0  0  0
   38.0615   30.8991   51.6966 H   0  0  0  0  0  0  0  0  0  0  0  0
   36.7674   32.5759   50.3451 H   0  0  0  0  0  0  0  0  0  0  0  0
   34.3590   27.6527   48.9264 H   0  0  0  0  0  0  0  0  0  0  0  0
   34.6978   27.2876   47.2474 H   0  0  0  0  0  0  0  0  0  0  0  0
   32.1688   27.9285   48.5671 H   0  0  0  0  0  0  0  0  0  0  0  0
   32.4713   27.4009   46.9235 H   0  0  0  0  0  0  0  0  0  0  0  0
   31.4249   29.7919   47.4307 H   0  0  0  0  0  0  0  0  0  0  0  0
   32.7113   30.3779   45.5107 H   0  0  0  0  0  0  0  0  0  0  0  0
   32.9045   31.3003   46.9318 H   0  0  0  0  0  0  0  0  0  0  0  0
   35.1106   31.1618   46.9115 H   0  0  0  0  0  0  0  0  0  0  0  0
   37.3994   30.1366   45.8724 H   0  0  0  0  0  0  0  0  0  0  0  0
   36.2140   31.5201   45.5348 H   0  0  0  0  0  0  0  0  0  0  0  0
   36.8555   31.3959   43.3644 H   0  0  0  0  0  0  0  0  0  0  0  0
   37.7747   29.8162   43.6473 H   0  0  0  0  0  0  0  0  0  0  0  0
   35.9435   28.5606   42.8670 H   0  0  0  0  0  0  0  0  0  0  0  0
   35.3141   30.0907   42.3500 H   0  0  0  0  0  0  0  0  0  0  0  0
   34.0950   30.4090   44.1518 H   0  0  0  0  0  0  0  0  0  0  0  0
   36.5394   27.7105   45.8999 H   0  0  0  0  0  0  0  0  0  0  0  0
   35.8233   26.7396   45.3800 S   0  0  0  0  0  0  0  0  0  0  0  0
   36.7606   25.9512   44.4598 O   0  0  0  0  0  0  0  0  0  0  0  0
   35.5421   25.7430   46.5080 O   0  0  0  0  0  0  0  0  0  0  0  0
   34.3763   27.0359   44.5490 C   0  0  0  0  0  0  0  0  0  0  0  0
   33.9043   28.2551   44.1041 C   0  0  0  0  0  0  0  0  0  0  0  0
   32.6939   28.2030   43.4157 C   0  0  0  0  0  0  0  0  0  0  0  0
   32.2850   29.1369   43.0464 H   0  0  0  0  0  0  0  0  0  0  0  0
   31.9493   27.0782   43.1488 C   0  0  0  0  0  0  0  0  0  0  0  0
   31.0240   27.1428   42.6076 H   0  0  0  0  0  0  0  0  0  0  0  0
   32.4425   25.8746   43.6049 C   0  0  0  0  0  0  0  0  0  0  0  0
   33.6344   25.8703   44.2900 C   0  0  0  0  0  0  0  0  0  0  0  0
   31.8564   24.9929   43.3946 H   0  0  0  0  0  0  0  0  0  0  0  0
   33.9238   24.8594   44.6013 H   0  0  0  0  0  0  0  0  0  0  0  0
  1  2  2  0
  3  2  1  0
  4  3  2  0
  5  4  1  0
  5  6  2  0
  6  1  1  0
  7  8  1  0
  7  5  1  0
  9  8  1  0
 10  9  1  0
 11 12  1  0
 11 10  1  0
 12  7  1  0
 13 14  1  0
 13 12  1  0
 15 14  1  0
 16 15  1  0
 16 17  1  0
 17 13  1  0
  1 18  1  0
  2 19  1  0
  3 20  1  0
  8 21  1  0
  8 22  1  0
  9 23  1  0
  9 24  1  0
 10 25  1  0
 11 26  1  0
 11 27  1  0
 12 28  1  1
 14 29  1  0
 14 30  1  0
 15 31  1  0
 15 32  1  0
 16 33  1  0
 16 34  1  0
 17 35  1  6
 36 37  1  0
 37 38  2  0
 37 39  2  0
 37 40  1  0
 40 41  2  0
 41 42  1  0
 42 43  1  0
 42 44  2  0
 44 45  1  0
 44 46  1  0
 46 47  2  0
 47 40  1  0
 46 48  1  0
 47 49  1  0
 17 41  1  0
M  ISO  8  18  14  19  14  20  14  21  13  22  13  23  13  24  13  25   5
M  ISO  8  26  13  27  13  28  13  29  13  30  13  31  13  32  13  33  13
M  ISO  5  34  13  35  13  36  12  43  15  45  16
M  END
>  <DihAtoms>  (1) 
15,16,40,39

>  <DihDeg>  (1) 
68.8579284336401

$$$$
