
 OpenBabel03272504583D

 36 38  0  0  1  0  0  0  0  0999 V2000
   38.7050   23.2920   36.5160 C   0  0  1  0  0  0  0  0  0  0  0  0
   38.0820   23.7870   37.7250 C   0  0  0  0  0  0  0  0  0  0  0  0
   38.4410   24.7250   36.6450 C   0  0  2  0  0  0  0  0  0  0  0  0
   38.1120   22.7970   35.6740 H   0  0  0  0  0  0  0  0  0  0  0  0
   38.7420   23.8320   38.6250 H   0  0  0  0  0  0  0  0  0  0  0  0
   37.2630   23.1470   37.9430 H   0  0  0  0  0  0  0  0  0  0  0  0
   39.1060   25.4940   36.9970 H   0  0  0  0  0  0  0  0  0  0  0  0
   40.1420   22.8620   36.5270 C   0  0  0  0  0  0  0  0  0  0  0  0
   41.0240   23.6460   35.7460 C   0  0  0  0  0  0  0  0  0  0  0  0
   42.3380   23.2300   35.7830 C   0  0  0  0  0  0  0  0  0  0  0  0
   42.7020   22.1410   36.5310 N   0  0  0  0  0  0  0  0  0  0  0  0
   41.8210   21.4300   37.2570 C   0  0  0  0  0  0  0  0  0  0  0  0
   40.5050   21.8060   37.2500 N   0  0  0  0  0  0  0  0  0  0  0  0
   42.1830   20.3270   38.0380 N   0  0  0  0  0  0  0  0  0  0  0  0
   40.7230   24.5010   35.1630 H   0  0  0  0  0  0  0  0  0  0  0  0
   43.0920   23.7770   35.2100 H   0  0  0  0  0  0  0  0  0  0  0  0
   43.0540   19.8140   37.7200 H   0  0  0  0  0  0  0  0  0  0  0  0
   41.6120   20.0540   38.8700 H   0  0  0  0  0  0  0  0  0  0  0  0
   37.3930   25.2330   35.8800 O   0  0  0  0  0  0  0  0  0  0  0  0
   38.8190   27.3570   35.9260 O   0  0  0  0  0  0  0  0  0  0  0  0
   37.9350   26.5640   34.9720 P   0  0  1  0  0  0  0  0  0  0  0  0
   39.0000   25.9910   33.7960 O   0  0  0  0  0  0  0  0  0  0  0  0
   38.7770   25.2160   33.2990 H   0  0  0  0  0  0  0  0  0  0  0  0
   36.6450   27.3870   34.4080 O   0  0  0  0  0  0  0  0  0  0  0  0
   36.1970   28.7660   32.3680 C   0  0  0  0  0  0  0  0  0  0  0  0
   36.2840   28.4240   33.6910 C   0  0  0  0  0  0  0  0  0  0  0  0
   35.8830   29.4370   34.5850 C   0  0  0  0  0  0  0  0  0  0  0  0
   35.8480   29.4450   35.6710 H   0  0  0  0  0  0  0  0  0  0  0  0
   35.4340   30.6910   34.1380 C   0  0  0  0  0  0  0  0  0  0  0  0
   35.1090   31.5240   34.7320 H   0  0  0  0  0  0  0  0  0  0  0  0
   35.3940   30.9100   32.7700 C   0  0  0  0  0  3  0  0  0  0  0  0
   35.7710   29.9620   31.8450 C   0  0  0  0  0  3  0  0  0  0  0  0
   37.8000   26.8420   31.6500 H   0  0  0  0  0  0  0  0  0  0  0  0
   36.6920   27.5110   31.2940 S   0  0  0  0  0  0  0  0  0  0  0  0
   35.5960   26.4480   31.1670 O   0  0  0  0  0  0  0  0  0  0  0  0
   36.7760   28.1260   29.9070 O   0  0  0  0  0  0  0  0  0  0  0  0
  1  4  1  6  0  0  0
  1  8  1  0  0  0  0
  1  3  1  0  0  0  0
  1  2  1  0  0  0  0
  2  6  1  0  0  0  0
  2  5  1  0  0  0  0
  3  7  1  1  0  0  0
  3  2  1  0  0  0  0
  8 13  1  0  0  0  0
  9 10  1  0  0  0  0
  9  8  2  0  0  0  0
 10 11  2  0  0  0  0
 11 12  1  0  0  0  0
 12 14  1  0  0  0  0
 13 12  2  0  0  0  0
 14 18  1  0  0  0  0
 15  9  1  0  0  0  0
 16 10  1  0  0  0  0
 17 14  1  0  0  0  0
 19  3  1  0  0  0  0
 21 19  1  0  0  0  0
 21 20  2  1  0  0  0
 22 21  1  0  0  0  0
 23 22  1  0  0  0  0
 24 21  1  0  0  0  0
 25 26  1  0  0  0  0
 26 24  1  0  0  0  0
 26 27  2  0  0  0  0
 27 28  1  0  0  0  0
 29 27  1  0  0  0  0
 29 30  1  0  0  0  0
 31 29  2  0  0  0  0
 32 25  2  0  0  0  0
 32 31  1  0  0  0  0
 34 33  1  0  0  0  0
 34 25  1  0  0  0  0
 35 34  2  0  0  0  0
 36 34  2  0  0  0  0
M  END
>  <minimizedAffinity>
-5.62897635

$$$$

 OpenBabel03272504583D

 36 38  0  0  1  0  0  0  0  0999 V2000
   38.6720   23.4280   36.5450 C   0  0  1  0  0  0  0  0  0  0  0  0
   38.0890   23.9680   37.7560 C   0  0  0  0  0  0  0  0  0  0  0  0
   38.4530   24.8710   36.6480 C   0  0  2  0  0  0  0  0  0  0  0  0
   38.0460   22.9340   35.7260 H   0  0  0  0  0  0  0  0  0  0  0  0
   38.7700   24.0110   38.6400 H   0  0  0  0  0  0  0  0  0  0  0  0
   37.2570   23.3580   38.0050 H   0  0  0  0  0  0  0  0  0  0  0  0
   39.1480   25.6280   36.9690 H   0  0  0  0  0  0  0  0  0  0  0  0
   40.0960   22.9560   36.5350 C   0  0  0  0  0  0  0  0  0  0  0  0
   40.9810   23.6920   35.7130 C   0  0  0  0  0  0  0  0  0  0  0  0
   42.2830   23.2370   35.7310 C   0  0  0  0  0  0  0  0  0  0  0  0
   42.6320   22.1590   36.5010 N   0  0  0  0  0  0  0  0  0  0  0  0
   41.7480   21.4940   37.2670 C   0  0  0  0  0  0  0  0  0  0  0  0
   40.4440   21.9090   37.2790 N   0  0  0  0  0  0  0  0  0  0  0  0
   42.0950   20.4020   38.0700 N   0  0  0  0  0  0  0  0  0  0  0  0
   40.6920   24.5390   35.1130 H   0  0  0  0  0  0  0  0  0  0  0  0
   43.0390   23.7450   35.1260 H   0  0  0  0  0  0  0  0  0  0  0  0
   42.9430   19.8550   37.7460 H   0  0  0  0  0  0  0  0  0  0  0  0
   41.5360   20.1700   38.9210 H   0  0  0  0  0  0  0  0  0  0  0  0
   37.4050   25.3940   35.8940 O   0  0  0  0  0  0  0  0  0  0  0  0
   36.6220   27.6040   34.8700 O   0  0  0  0  0  0  0  0  0  0  0  0
   37.9060   26.8250   35.1250 P   0  0  1  0  0  0  0  0  0  0  0  0
   38.7420   27.7570   36.2550 O   0  0  0  0  0  0  0  0  0  0  0  0
   39.3830   27.3450   36.8190 H   0  0  0  0  0  0  0  0  0  0  0  0
   38.7390   26.4420   33.7750 O   0  0  0  0  0  0  0  0  0  0  0  0
   38.7850   27.3810   31.4560 C   0  0  0  0  0  0  0  0  0  0  0  0
   39.2400   26.9340   32.6670 C   0  0  0  0  0  0  0  0  0  0  0  0
   40.6390   26.9950   32.8270 C   0  0  0  0  0  0  0  0  0  0  0  0
   41.2650   26.7110   33.6680 H   0  0  0  0  0  0  0  0  0  0  0  0
   41.4840   27.4790   31.8140 C   0  0  0  0  0  0  0  0  0  0  0  0
   42.5530   27.5660   31.8350 H   0  0  0  0  0  0  0  0  0  0  0  0
   40.8950   27.9020   30.6320 C   0  0  0  0  0  3  0  0  0  0  0  0
   39.5360   27.8690   30.4150 C   0  0  0  0  0  3  0  0  0  0  0  0
   36.3580   27.8210   32.2950 H   0  0  0  0  0  0  0  0  0  0  0  0
   37.0710   27.2970   31.2850 S   0  0  0  0  0  0  0  0  0  0  0  0
   36.6170   28.0510   30.0310 O   0  0  0  0  0  0  0  0  0  0  0  0
   36.7280   25.8460   30.9910 O   0  0  0  0  0  0  0  0  0  0  0  0
  1  4  1  6  0  0  0
  1  3  1  0  0  0  0
  1  2  1  0  0  0  0
  2  6  1  0  0  0  0
  2  5  1  0  0  0  0
  3  7  1  1  0  0  0
  3  2  1  0  0  0  0
  8  1  1  0  0  0  0
  8 13  1  0  0  0  0
  9 10  1  0  0  0  0
  9  8  2  0  0  0  0
 10 11  2  0  0  0  0
 11 12  1  0  0  0  0
 12 13  2  0  0  0  0
 12 14  1  0  0  0  0
 14 18  1  0  0  0  0
 15  9  1  0  0  0  0
 16 10  1  0  0  0  0
 17 14  1  0  0  0  0
 19  3  1  0  0  0  0
 21 20  2  6  0  0  0
 21 19  1  0  0  0  0
 21 22  1  0  0  0  0
 22 23  1  0  0  0  0
 24 21  1  0  0  0  0
 25 26  1  0  0  0  0
 26 27  2  0  0  0  0
 26 24  1  0  0  0  0
 27 28  1  0  0  0  0
 29 30  1  0  0  0  0
 29 27  1  0  0  0  0
 31 29  2  0  0  0  0
 32 31  1  0  0  0  0
 32 25  2  0  0  0  0
 34 25  1  0  0  0  0
 34 33  1  0  0  0  0
 35 34  2  0  0  0  0
 36 34  2  0  0  0  0
M  END
>  <minimizedAffinity>
-5.56082726

$$$$

 OpenBabel03272504583D

 36 38  0  0  1  0  0  0  0  0999 V2000
   37.5990   25.7420   35.1140 C   0  0  1  0  0  0  0  0  0  0  0  0
   38.3310   26.9600   34.8330 C   0  0  0  0  0  0  0  0  0  0  0  0
   37.8580   26.1120   33.7220 C   0  0  2  0  0  0  0  0  0  0  0  0
   36.4880   25.7380   35.3810 H   0  0  0  0  0  0  0  0  0  0  0  0
   39.4310   26.9150   35.0220 H   0  0  0  0  0  0  0  0  0  0  0  0
   37.9170   27.7250   35.4420 H   0  0  0  0  0  0  0  0  0  0  0  0
   38.6720   25.7990   33.0920 H   0  0  0  0  0  0  0  0  0  0  0  0
   38.3140   24.5340   35.6410 C   0  0  0  0  0  0  0  0  0  0  0  0
   39.0090   23.7640   34.6780 C   0  0  0  0  0  0  0  0  0  0  0  0
   39.6620   22.6640   35.1940 C   0  0  0  0  0  0  0  0  0  0  0  0
   39.6080   22.3900   36.5360 N   0  0  0  0  0  0  0  0  0  0  0  0
   38.9320   23.1570   37.4090 C   0  0  0  0  0  0  0  0  0  0  0  0
   38.2670   24.2590   36.9410 N   0  0  0  0  0  0  0  0  0  0  0  0
   38.8830   22.8970   38.7830 N   0  0  0  0  0  0  0  0  0  0  0  0
   39.0430   23.9920   33.6250 H   0  0  0  0  0  0  0  0  0  0  0  0
   40.2260   22.0090   34.5250 H   0  0  0  0  0  0  0  0  0  0  0  0
   39.0210   21.8830   39.0560 H   0  0  0  0  0  0  0  0  0  0  0  0
   38.7190   23.6720   39.4650 H   0  0  0  0  0  0  0  0  0  0  0  0
   36.7680   26.5820   32.9930 O   0  0  0  0  0  0  0  0  0  0  0  0
   35.0830   25.9160   31.1870 O   0  0  0  0  0  0  0  0  0  0  0  0
   36.4920   25.5730   31.6530 P   0  0  1  0  0  0  0  0  0  0  0  0
   37.4870   26.0960   30.3950 O   0  0  0  0  0  0  0  0  0  0  0  0
   38.3930   26.3080   30.5720 H   0  0  0  0  0  0  0  0  0  0  0  0
   36.6920   24.0180   32.1050 O   0  0  0  0  0  0  0  0  0  0  0  0
   37.5400   21.9440   30.9920 C   0  0  0  0  0  0  0  0  0  0  0  0
   36.6940   22.7820   31.6670 C   0  0  0  0  0  0  0  0  0  0  0  0
   35.4560   22.2070   32.0190 C   0  0  0  0  0  0  0  0  0  0  0  0
   34.6080   22.6310   32.5480 H   0  0  0  0  0  0  0  0  0  0  0  0
   35.1330   20.8790   31.6940 C   0  0  0  0  0  0  0  0  0  0  0  0
   34.2250   20.3500   31.9140 H   0  0  0  0  0  0  0  0  0  0  0  0
   36.0800   20.1360   31.0070 C   0  0  0  0  0  3  0  0  0  0  0  0
   37.3070   20.6380   30.6360 C   0  0  0  0  0  3  0  0  0  0  0  0
   39.7240   23.2320   31.5870 H   0  0  0  0  0  0  0  0  0  0  0  0
   39.0480   22.6700   30.5740 S   0  0  0  0  0  0  0  0  0  0  0  0
   39.9980   21.6290   29.9750 O   0  0  0  0  0  0  0  0  0  0  0  0
   38.7720   23.6260   29.4250 O   0  0  0  0  0  0  0  0  0  0  0  0
  1  4  1  1  0  0  0
  1  8  1  0  0  0  0
  2  5  1  0  0  0  0
  2  1  1  0  0  0  0
  2  6  1  0  0  0  0
  3  7  1  6  0  0  0
  3  2  1  0  0  0  0
  3  1  1  0  0  0  0
  8 13  1  0  0  0  0
  9 10  1  0  0  0  0
  9  8  2  0  0  0  0
 10 11  2  0  0  0  0
 11 12  1  0  0  0  0
 12 14  1  0  0  0  0
 13 12  2  0  0  0  0
 14 17  1  0  0  0  0
 14 18  1  0  0  0  0
 15  9  1  0  0  0  0
 16 10  1  0  0  0  0
 19  3  1  0  0  0  0
 21 20  2  6  0  0  0
 21 24  1  0  0  0  0
 21 19  1  0  0  0  0
 22 23  1  0  0  0  0
 22 21  1  0  0  0  0
 25 26  1  0  0  0  0
 26 27  2  0  0  0  0
 26 24  1  0  0  0  0
 27 28  1  0  0  0  0
 29 30  1  0  0  0  0
 29 27  1  0  0  0  0
 31 29  2  0  0  0  0
 32 25  2  0  0  0  0
 32 31  1  0  0  0  0
 34 25  1  0  0  0  0
 34 33  1  0  0  0  0
 35 34  2  0  0  0  0
 36 34  2  0  0  0  0
M  END
>  <minimizedAffinity>
-5.53620005

$$$$

 OpenBabel03272504583D

 36 38  0  0  1  0  0  0  0  0999 V2000
   38.7140   23.3480   36.5950 C   0  0  1  0  0  0  0  0  0  0  0  0
   38.1280   23.7540   37.8560 C   0  0  0  0  0  0  0  0  0  0  0  0
   38.5060   24.7720   36.8570 C   0  0  2  0  0  0  0  0  0  0  0  0
   38.0900   22.9520   35.7240 H   0  0  0  0  0  0  0  0  0  0  0  0
   38.8040   23.6940   38.7430 H   0  0  0  0  0  0  0  0  0  0  0  0
   37.2900   23.1270   38.0310 H   0  0  0  0  0  0  0  0  0  0  0  0
   39.2040   25.4830   37.2640 H   0  0  0  0  0  0  0  0  0  0  0  0
   40.1340   22.8680   36.5410 C   0  0  0  0  0  0  0  0  0  0  0  0
   40.9880   23.5740   35.6610 C   0  0  0  0  0  0  0  0  0  0  0  0
   42.2870   23.1140   35.6390 C   0  0  0  0  0  0  0  0  0  0  0  0
   42.6640   22.0570   36.4260 N   0  0  0  0  0  0  0  0  0  0  0  0
   41.8100   21.4210   37.2470 C   0  0  0  0  0  0  0  0  0  0  0  0
   40.5100   21.8430   37.3010 N   0  0  0  0  0  0  0  0  0  0  0  0
   42.1870   20.3520   38.0680 N   0  0  0  0  0  0  0  0  0  0  0  0
   40.6770   24.4050   35.0480 H   0  0  0  0  0  0  0  0  0  0  0  0
   43.0200   23.5990   34.9880 H   0  0  0  0  0  0  0  0  0  0  0  0
   43.0180   19.7910   37.7260 H   0  0  0  0  0  0  0  0  0  0  0  0
   41.6620   20.1480   38.9490 H   0  0  0  0  0  0  0  0  0  0  0  0
   37.4650   25.3840   36.1600 O   0  0  0  0  0  0  0  0  0  0  0  0
   37.2800   27.7010   35.0920 O   0  0  0  0  0  0  0  0  0  0  0  0
   38.0990   26.4230   34.9740 P   0  0  1  0  0  0  0  0  0  0  0  0
   39.6520   26.8750   35.4550 O   0  0  0  0  0  0  0  0  0  0  0  0
   40.2480   26.2200   35.7910 H   0  0  0  0  0  0  0  0  0  0  0  0
   38.0010   25.6930   33.5170 O   0  0  0  0  0  0  0  0  0  0  0  0
   36.8660   23.8990   32.1930 C   0  0  0  0  0  0  0  0  0  0  0  0
   37.1700   25.1490   32.6620 C   0  0  0  0  0  0  0  0  0  0  0  0
   36.4020   26.1880   32.1000 C   0  0  0  0  0  0  0  0  0  0  0  0
   36.4260   27.2600   32.2810 H   0  0  0  0  0  0  0  0  0  0  0  0
   35.4080   25.9440   31.1370 C   0  0  0  0  0  0  0  0  0  0  0  0
   34.7720   26.6600   30.6520 H   0  0  0  0  0  0  0  0  0  0  0  0
   35.1980   24.6300   30.7480 C   0  0  0  0  0  3  0  0  0  0  0  0
   35.9140   23.5710   31.2590 C   0  0  0  0  0  3  0  0  0  0  0  0
   38.9140   23.0460   33.5570 H   0  0  0  0  0  0  0  0  0  0  0  0
   37.8180   22.6440   32.8960 S   0  0  0  0  0  0  0  0  0  0  0  0
   36.9940   21.8500   33.9140 O   0  0  0  0  0  0  0  0  0  0  0  0
   38.1090   21.6420   31.7910 O   0  0  0  0  0  0  0  0  0  0  0  0
  1  4  1  6  0  0  0
  1  3  1  0  0  0  0
  1  2  1  0  0  0  0
  2  6  1  0  0  0  0
  2  5  1  0  0  0  0
  3  7  1  1  0  0  0
  3  2  1  0  0  0  0
  8  1  1  0  0  0  0
  8 13  1  0  0  0  0
  9  8  2  0  0  0  0
 10  9  1  0  0  0  0
 10 11  2  0  0  0  0
 11 12  1  0  0  0  0
 12 13  2  0  0  0  0
 12 14  1  0  0  0  0
 14 18  1  0  0  0  0
 15  9  1  0  0  0  0
 16 10  1  0  0  0  0
 17 14  1  0  0  0  0
 19  3  1  0  0  0  0
 21 20  2  6  0  0  0
 21 22  1  0  0  0  0
 21 19  1  0  0  0  0
 22 23  1  0  0  0  0
 24 21  1  0  0  0  0
 25 26  1  0  0  0  0
 25 34  1  0  0  0  0
 26 24  1  0  0  0  0
 27 28  1  0  0  0  0
 27 26  2  0  0  0  0
 29 27  1  0  0  0  0
 30 29  1  0  0  0  0
 31 29  2  0  0  0  0
 31 32  1  0  0  0  0
 32 25  2  0  0  0  0
 34 33  1  0  0  0  0
 34 35  2  0  0  0  0
 36 34  2  0  0  0  0
M  END
>  <minimizedAffinity>
-5.51205158

$$$$

 OpenBabel03272504583D

 36 38  0  0  1  0  0  0  0  0999 V2000
   38.3980   26.5510   34.8440 C   0  0  1  0  0  0  0  0  0  0  0  0
   38.2490   26.6990   36.2770 C   0  0  0  0  0  0  0  0  0  0  0  0
   38.0310   25.3840   35.6460 C   0  0  2  0  0  0  0  0  0  0  0  0
   39.4170   26.4500   34.3370 H   0  0  0  0  0  0  0  0  0  0  0  0
   37.3190   27.2180   36.6140 H   0  0  0  0  0  0  0  0  0  0  0  0
   39.0860   27.2520   36.6260 H   0  0  0  0  0  0  0  0  0  0  0  0
   37.0460   25.0050   35.8560 H   0  0  0  0  0  0  0  0  0  0  0  0
   37.3520   27.0940   33.9150 C   0  0  0  0  0  0  0  0  0  0  0  0
   36.6390   28.2220   34.3850 C   0  0  0  0  0  0  0  0  0  0  0  0
   35.6910   28.7010   33.5070 C   0  0  0  0  0  0  0  0  0  0  0  0
   35.4990   28.0950   32.2930 N   0  0  0  0  0  0  0  0  0  0  0  0
   36.2060   27.0220   31.8950 C   0  0  0  0  0  0  0  0  0  0  0  0
   37.1580   26.5120   32.7350 N   0  0  0  0  0  0  0  0  0  0  0  0
   36.0300   26.4050   30.6520 N   0  0  0  0  0  0  0  0  0  0  0  0
   36.8030   28.6890   35.3430 H   0  0  0  0  0  0  0  0  0  0  0  0
   35.0900   29.5720   33.7840 H   0  0  0  0  0  0  0  0  0  0  0  0
   35.0700   26.5220   30.2210 H   0  0  0  0  0  0  0  0  0  0  0  0
   36.8130   25.8720   30.2080 H   0  0  0  0  0  0  0  0  0  0  0  0
   39.0240   24.4250   35.8340 O   0  0  0  0  0  0  0  0  0  0  0  0
   39.5530   21.9220   35.7870 O   0  0  0  0  0  0  0  0  0  0  0  0
   38.3770   22.8710   35.5970 P   0  0  1  0  0  0  0  0  0  0  0  0
   37.3530   22.5320   36.8940 O   0  0  0  0  0  0  0  0  0  0  0  0
   36.7430   23.1910   37.1940 H   0  0  0  0  0  0  0  0  0  0  0  0
   37.6860   22.7990   34.1200 O   0  0  0  0  0  0  0  0  0  0  0  0
   37.1560   21.7730   31.9000 C   0  0  0  0  0  0  0  0  0  0  0  0
   37.1300   21.9880   33.2520 C   0  0  0  0  0  0  0  0  0  0  0  0
   36.2810   21.1210   33.9680 C   0  0  0  0  0  0  0  0  0  0  0  0
   36.0670   21.0630   35.0320 H   0  0  0  0  0  0  0  0  0  0  0  0
   35.5280   20.1210   33.3300 C   0  0  0  0  0  0  0  0  0  0  0  0
   34.8570   19.4150   33.7810 H   0  0  0  0  0  0  0  0  0  0  0  0
   35.6440   20.0080   31.9530 C   0  0  0  0  0  3  0  0  0  0  0  0
   36.4570   20.8230   31.1980 C   0  0  0  0  0  3  0  0  0  0  0  0
   39.2120   23.3650   31.7610 H   0  0  0  0  0  0  0  0  0  0  0  0
   38.2020   22.8450   31.0470 S   0  0  0  0  0  0  0  0  0  0  0  0
   38.8620   22.1270   29.8660 O   0  0  0  0  0  0  0  0  0  0  0  0
   37.3180   23.8960   30.3950 O   0  0  0  0  0  0  0  0  0  0  0  0
  1  4  1  6  0  0  0
  1  3  1  0  0  0  0
  1  2  1  0  0  0  0
  2  5  1  0  0  0  0
  2  6  1  0  0  0  0
  3 19  1  0  0  0  0
  3  7  1  6  0  0  0
  3  2  1  0  0  0  0
  8  9  1  0  0  0  0
  8  1  1  0  0  0  0
  9 15  1  0  0  0  0
 10 16  1  0  0  0  0
 10  9  2  0  0  0  0
 11 10  1  0  0  0  0
 12 11  2  0  0  0  0
 12 13  1  0  0  0  0
 13  8  2  0  0  0  0
 14 12  1  0  0  0  0
 17 14  1  0  0  0  0
 18 14  1  0  0  0  0
 21 20  2  1  0  0  0
 21 19  1  0  0  0  0
 21 22  1  0  0  0  0
 22 23  1  0  0  0  0
 24 21  1  0  0  0  0
 25 26  1  0  0  0  0
 26 27  2  0  0  0  0
 26 24  1  0  0  0  0
 27 28  1  0  0  0  0
 29 30  1  0  0  0  0
 29 27  1  0  0  0  0
 31 29  2  0  0  0  0
 32 25  2  0  0  0  0
 32 31  1  0  0  0  0
 34 33  1  0  0  0  0
 34 25  1  0  0  0  0
 35 34  2  0  0  0  0
 36 34  2  0  0  0  0
M  END
>  <minimizedAffinity>
-5.46800709

$$$$

 OpenBabel03272504583D

 36 38  0  0  1  0  0  0  0  0999 V2000
   36.7110   23.2590   31.3000 C   0  0  1  0  0  0  0  0  0  0  0  0
   35.7380   24.2910   31.0070 C   0  0  0  0  0  0  0  0  0  0  0  0
   36.6000   24.4080   32.1980 C   0  0  2  0  0  0  0  0  0  0  0  0
   37.7210   23.1950   30.7700 H   0  0  0  0  0  0  0  0  0  0  0  0
   34.6740   24.0260   31.2220 H   0  0  0  0  0  0  0  0  0  0  0  0
   35.8230   24.5210   29.9740 H   0  0  0  0  0  0  0  0  0  0  0  0
   36.0170   24.4950   33.0990 H   0  0  0  0  0  0  0  0  0  0  0  0
   36.2660   21.9310   31.8380 C   0  0  0  0  0  0  0  0  0  0  0  0
   36.0900   20.9070   30.8770 C   0  0  0  0  0  0  0  0  0  0  0  0
   35.6880   19.6980   31.4030 C   0  0  0  0  0  0  0  0  0  0  0  0
   35.4910   19.5570   32.7520 N   0  0  0  0  0  0  0  0  0  0  0  0
   35.6730   20.5660   33.6230 C   0  0  0  0  0  0  0  0  0  0  0  0
   36.0710   21.7850   33.1450 N   0  0  0  0  0  0  0  0  0  0  0  0
   35.4910   20.4310   35.0040 N   0  0  0  0  0  0  0  0  0  0  0  0
   36.2500   21.0320   29.8180 H   0  0  0  0  0  0  0  0  0  0  0  0
   35.5280   18.8470   30.7360 H   0  0  0  0  0  0  0  0  0  0  0  0
   34.8130   19.6710   35.2970 H   0  0  0  0  0  0  0  0  0  0  0  0
   36.0020   21.0530   35.6700 H   0  0  0  0  0  0  0  0  0  0  0  0
   37.6310   25.3440   32.1370 O   0  0  0  0  0  0  0  0  0  0  0  0
   39.3340   26.6750   33.5050 O   0  0  0  0  0  0  0  0  0  0  0  0
   38.2390   25.6340   33.6980 P   0  0  1  0  0  0  0  0  0  0  0  0
   37.0470   26.4410   34.5770 O   0  0  0  0  0  0  0  0  0  0  0  0
   36.1490   26.1420   34.5330 H   0  0  0  0  0  0  0  0  0  0  0  0
   38.7530   24.2260   34.3410 O   0  0  0  0  0  0  0  0  0  0  0  0
   39.3260   23.2750   36.5840 C   0  0  0  0  0  0  0  0  0  0  0  0
   39.4890   23.7060   35.2950 C   0  0  0  0  0  0  0  0  0  0  0  0
   40.8000   23.5790   34.7950 C   0  0  0  0  0  0  0  0  0  0  0  0
   41.2120   23.8360   33.8220 H   0  0  0  0  0  0  0  0  0  0  0  0
   41.8460   23.0500   35.5710 C   0  0  0  0  0  0  0  0  0  0  0  0
   42.8710   22.9120   35.2860 H   0  0  0  0  0  0  0  0  0  0  0  0
   41.5480   22.6500   36.8640 C   0  0  0  0  0  3  0  0  0  0  0  0
   40.2880   22.7470   37.4100 C   0  0  0  0  0  3  0  0  0  0  0  0
   37.0920   24.5850   36.8530 H   0  0  0  0  0  0  0  0  0  0  0  0
   37.7140   23.4400   37.1730 S   0  0  0  0  0  0  0  0  0  0  0  0
   36.8230   22.3220   36.6230 O   0  0  0  0  0  0  0  0  0  0  0  0
   37.7630   23.1750   38.6690 O   0  0  0  0  0  0  0  0  0  0  0  0
  1  4  1  6  0  0  0
  1  8  1  0  0  0  0
  1  3  1  0  0  0  0
  2  5  1  0  0  0  0
  2  1  1  0  0  0  0
  2  3  1  0  0  0  0
  3  7  1  1  0  0  0
  6  2  1  0  0  0  0
  8 13  1  0  0  0  0
  9 10  1  0  0  0  0
  9  8  2  0  0  0  0
 10 11  2  0  0  0  0
 11 12  1  0  0  0  0
 12 14  1  0  0  0  0
 13 12  2  0  0  0  0
 14 17  1  0  0  0  0
 14 18  1  0  0  0  0
 15  9  1  0  0  0  0
 16 10  1  0  0  0  0
 19  3  1  0  0  0  0
 19 21  1  0  0  0  0
 21 20  2  6  0  0  0
 21 24  1  0  0  0  0
 21 22  1  0  0  0  0
 23 22  1  0  0  0  0
 24 26  1  0  0  0  0
 25 34  1  0  0  0  0
 25 32  1  0  0  0  0
 26 25  2  0  0  0  0
 27 26  1  0  0  0  0
 27 29  2  0  0  0  0
 28 27  1  0  0  0  0
 29 31  1  0  0  0  0
 30 29  1  0  0  0  0
 31 32  2  0  0  0  0
 33 34  1  0  0  0  0
 34 36  2  0  0  0  0
 35 34  2  0  0  0  0
M  END
>  <minimizedAffinity>
-5.45693159

$$$$

 OpenBabel03272504583D

 36 38  0  0  1  0  0  0  0  0999 V2000
   38.7110   23.4010   36.4420 C   0  0  1  0  0  0  0  0  0  0  0  0
   38.0890   23.9410   37.6330 C   0  0  0  0  0  0  0  0  0  0  0  0
   38.4830   24.8430   36.5330 C   0  0  2  0  0  0  0  0  0  0  0  0
   38.1120   22.9000   35.6070 H   0  0  0  0  0  0  0  0  0  0  0  0
   38.7410   23.9910   38.5380 H   0  0  0  0  0  0  0  0  0  0  0  0
   37.2510   23.3290   37.8580 H   0  0  0  0  0  0  0  0  0  0  0  0
   39.1640   25.6030   36.8730 H   0  0  0  0  0  0  0  0  0  0  0  0
   40.1360   22.9340   36.4790 C   0  0  0  0  0  0  0  0  0  0  0  0
   41.0470   23.6850   35.6990 C   0  0  0  0  0  0  0  0  0  0  0  0
   42.3500   23.2360   35.7590 C   0  0  0  0  0  0  0  0  0  0  0  0
   42.6760   22.1480   36.5270 N   0  0  0  0  0  0  0  0  0  0  0  0
   41.7680   21.4700   37.2510 C   0  0  0  0  0  0  0  0  0  0  0  0
   40.4620   21.8790   37.2210 N   0  0  0  0  0  0  0  0  0  0  0  0
   42.0910   20.3690   38.0520 N   0  0  0  0  0  0  0  0  0  0  0  0
   40.7760   24.5390   35.1000 H   0  0  0  0  0  0  0  0  0  0  0  0
   43.1250   23.7540   35.1880 H   0  0  0  0  0  0  0  0  0  0  0  0
   42.9520   19.8300   37.7520 H   0  0  0  0  0  0  0  0  0  0  0  0
   41.5010   20.1230   38.8790 H   0  0  0  0  0  0  0  0  0  0  0  0
   37.4560   25.3590   35.7450 O   0  0  0  0  0  0  0  0  0  0  0  0
   38.7360   27.5730   35.7270 O   0  0  0  0  0  0  0  0  0  0  0  0
   38.0560   26.6090   34.7630 P   0  0  1  0  0  0  0  0  0  0  0  0
   39.3200   25.9830   33.8380 O   0  0  0  0  0  0  0  0  0  0  0  0
   39.2190   25.1400   33.4170 H   0  0  0  0  0  0  0  0  0  0  0  0
   36.8230   27.2620   33.9160 O   0  0  0  0  0  0  0  0  0  0  0  0
   35.7840   29.2740   32.8510 C   0  0  0  0  0  0  0  0  0  0  0  0
   36.5280   28.1320   32.9800 C   0  0  0  0  0  0  0  0  0  0  0  0
   37.1890   27.7260   31.8040 C   0  0  0  0  0  0  0  0  0  0  0  0
   37.8360   26.8740   31.6170 H   0  0  0  0  0  0  0  0  0  0  0  0
   37.0820   28.4480   30.6020 C   0  0  0  0  0  0  0  0  0  0  0  0
   37.5410   28.2260   29.6580 H   0  0  0  0  0  0  0  0  0  0  0  0
   36.2950   29.5890   30.6050 C   0  0  0  0  0  3  0  0  0  0  0  0
   35.6260   30.0380   31.7220 C   0  0  0  0  0  3  0  0  0  0  0  0
   34.3830   28.7650   34.9870 H   0  0  0  0  0  0  0  0  0  0  0  0
   34.9860   29.7500   34.3040 S   0  0  0  0  0  0  0  0  0  0  0  0
   35.9820   30.3780   35.2840 O   0  0  0  0  0  0  0  0  0  0  0  0
   34.0530   30.8930   33.9390 O   0  0  0  0  0  0  0  0  0  0  0  0
  1  4  1  6  0  0  0
  1  8  1  0  0  0  0
  1  3  1  0  0  0  0
  1  2  1  0  0  0  0
  2  6  1  0  0  0  0
  2  5  1  0  0  0  0
  3  7  1  1  0  0  0
  3  2  1  0  0  0  0
  8 13  1  0  0  0  0
  9 10  1  0  0  0  0
  9  8  2  0  0  0  0
 10 11  2  0  0  0  0
 11 12  1  0  0  0  0
 12 14  1  0  0  0  0
 13 12  2  0  0  0  0
 14 18  1  0  0  0  0
 15  9  1  0  0  0  0
 16 10  1  0  0  0  0
 17 14  1  0  0  0  0
 19  3  1  0  0  0  0
 21 20  2  1  0  0  0
 21 19  1  0  0  0  0
 22 21  1  0  0  0  0
 23 22  1  0  0  0  0
 24 21  1  0  0  0  0
 25 26  1  0  0  0  0
 25 34  1  0  0  0  0
 26 24  1  0  0  0  0
 27 26  2  0  0  0  0
 28 27  1  0  0  0  0
 29 31  2  0  0  0  0
 29 27  1  0  0  0  0
 30 29  1  0  0  0  0
 31 32  1  0  0  0  0
 32 25  2  0  0  0  0
 34 33  1  0  0  0  0
 34 35  2  0  0  0  0
 36 34  2  0  0  0  0
M  END
>  <minimizedAffinity>
-5.45396423

$$$$

 OpenBabel03272504583D

 36 38  0  0  1  0  0  0  0  0999 V2000
   37.7510   26.1030   35.6620 C   0  0  1  0  0  0  0  0  0  0  0  0
   38.3850   27.3910   35.4730 C   0  0  0  0  0  0  0  0  0  0  0  0
   38.0020   26.5800   34.3020 C   0  0  2  0  0  0  0  0  0  0  0  0
   36.6400   25.9930   35.9040 H   0  0  0  0  0  0  0  0  0  0  0  0
   39.4810   27.4250   35.6820 H   0  0  0  0  0  0  0  0  0  0  0  0
   37.9000   28.0800   36.1180 H   0  0  0  0  0  0  0  0  0  0  0  0
   38.8500   26.3750   33.6710 H   0  0  0  0  0  0  0  0  0  0  0  0
   38.5550   24.9260   36.1280 C   0  0  0  0  0  0  0  0  0  0  0  0
   39.6300   24.5460   35.2910 C   0  0  0  0  0  0  0  0  0  0  0  0
   40.3530   23.4660   35.7500 C   0  0  0  0  0  0  0  0  0  0  0  0
   40.0140   22.8510   36.9270 N   0  0  0  0  0  0  0  0  0  0  0  0
   38.9790   23.2540   37.6860 C   0  0  0  0  0  0  0  0  0  0  0  0
   38.2320   24.3220   37.2690 N   0  0  0  0  0  0  0  0  0  0  0  0
   38.6320   22.6450   38.8970 N   0  0  0  0  0  0  0  0  0  0  0  0
   39.8860   25.0400   34.3680 H   0  0  0  0  0  0  0  0  0  0  0  0
   41.2040   23.1010   35.1690 H   0  0  0  0  0  0  0  0  0  0  0  0
   38.9170   21.6290   38.9900 H   0  0  0  0  0  0  0  0  0  0  0  0
   38.1280   23.1840   39.6380 H   0  0  0  0  0  0  0  0  0  0  0  0
   36.8890   27.0060   33.5790 O   0  0  0  0  0  0  0  0  0  0  0  0
   38.4000   25.9970   31.7780 O   0  0  0  0  0  0  0  0  0  0  0  0
   36.9380   26.3560   32.0100 P   0  0  1  0  0  0  0  0  0  0  0  0
   36.1430   24.8680   32.0390 O   0  0  0  0  0  0  0  0  0  0  0  0
   35.3150   24.7880   32.4930 H   0  0  0  0  0  0  0  0  0  0  0  0
   36.3390   27.4500   30.9580 O   0  0  0  0  0  0  0  0  0  0  0  0
   36.0240   29.9300   30.8370 C   0  0  0  0  0  0  0  0  0  0  0  0
   36.4770   28.6780   30.5180 C   0  0  0  0  0  0  0  0  0  0  0  0
   37.3420   28.6320   29.4060 C   0  0  0  0  0  0  0  0  0  0  0  0
   37.8430   27.7900   28.9370 H   0  0  0  0  0  0  0  0  0  0  0  0
   37.7010   29.7890   28.6940 C   0  0  0  0  0  0  0  0  0  0  0  0
   38.3480   29.8620   27.8400 H   0  0  0  0  0  0  0  0  0  0  0  0
   37.1730   30.9980   29.1200 C   0  0  0  0  0  3  0  0  0  0  0  0
   36.3240   31.1090   30.1990 C   0  0  0  0  0  3  0  0  0  0  0  0
   34.2130   28.8640   32.3760 H   0  0  0  0  0  0  0  0  0  0  0  0
   34.9680   29.9600   32.2000 S   0  0  0  0  0  0  0  0  0  0  0  0
   35.7680   30.1190   33.4960 O   0  0  0  0  0  0  0  0  0  0  0  0
   34.1600   31.2430   32.1010 O   0  0  0  0  0  0  0  0  0  0  0  0
  1  4  1  1  0  0  0
  1  8  1  0  0  0  0
  2  1  1  0  0  0  0
  2  5  1  0  0  0  0
  2  6  1  0  0  0  0
  3  7  1  6  0  0  0
  3  2  1  0  0  0  0
  3  1  1  0  0  0  0
  8 13  1  0  0  0  0
  9 10  1  0  0  0  0
  9  8  2  0  0  0  0
 10 11  2  0  0  0  0
 11 12  1  0  0  0  0
 12 14  1  0  0  0  0
 13 12  2  0  0  0  0
 14 17  1  0  0  0  0
 14 18  1  0  0  0  0
 15  9  1  0  0  0  0
 16 10  1  0  0  0  0
 19  3  1  0  0  0  0
 21 20  2  6  0  0  0
 21 22  1  0  0  0  0
 21 19  1  0  0  0  0
 22 23  1  0  0  0  0
 24 21  1  0  0  0  0
 25 34  1  0  0  0  0
 26 25  1  0  0  0  0
 26 24  1  0  0  0  0
 27 26  2  0  0  0  0
 28 27  1  0  0  0  0
 29 31  2  0  0  0  0
 29 27  1  0  0  0  0
 30 29  1  0  0  0  0
 31 32  1  0  0  0  0
 32 25  2  0  0  0  0
 34 33  1  0  0  0  0
 34 35  2  0  0  0  0
 36 34  2  0  0  0  0
M  END
>  <minimizedAffinity>
-5.40595388

$$$$

 OpenBabel03272504583D

 36 38  0  0  1  0  0  0  0  0999 V2000
   35.3960   29.1530   33.9860 C   0  0  1  0  0  0  0  0  0  0  0  0
   35.4960   28.6340   32.6380 C   0  0  0  0  0  0  0  0  0  0  0  0
   36.5740   28.3710   33.6100 C   0  0  2  0  0  0  0  0  0  0  0  0
   34.7600   28.6540   34.7930 H   0  0  0  0  0  0  0  0  0  0  0  0
   35.7480   29.3850   31.8500 H   0  0  0  0  0  0  0  0  0  0  0  0
   34.5590   28.1980   32.3960 H   0  0  0  0  0  0  0  0  0  0  0  0
   37.5230   28.7280   33.2520 H   0  0  0  0  0  0  0  0  0  0  0  0
   35.6070   30.6140   34.2510 C   0  0  0  0  0  0  0  0  0  0  0  0
   35.9400   30.9540   35.5840 C   0  0  0  0  0  0  0  0  0  0  0  0
   36.1340   32.3030   35.7950 C   0  0  0  0  0  0  0  0  0  0  0  0
   36.0040   33.1940   34.7620 N   0  0  0  0  0  0  0  0  0  0  0  0
   35.6860   32.8160   33.5110 C   0  0  0  0  0  0  0  0  0  0  0  0
   35.4830   31.4870   33.2550 N   0  0  0  0  0  0  0  0  0  0  0  0
   35.5670   33.7140   32.4440 N   0  0  0  0  0  0  0  0  0  0  0  0
   36.0390   30.2410   36.3870 H   0  0  0  0  0  0  0  0  0  0  0  0
   36.3950   32.6600   36.7950 H   0  0  0  0  0  0  0  0  0  0  0  0
   35.3140   34.7060   32.7150 H   0  0  0  0  0  0  0  0  0  0  0  0
   35.7230   33.3950   31.4610 H   0  0  0  0  0  0  0  0  0  0  0  0
   36.6500   27.0790   34.1280 O   0  0  0  0  0  0  0  0  0  0  0  0
   39.1630   27.2250   33.6760 O   0  0  0  0  0  0  0  0  0  0  0  0
   38.1970   26.8090   34.7770 P   0  0  1  0  0  0  0  0  0  0  0  0
   38.4500   27.9400   36.0030 O   0  0  0  0  0  0  0  0  0  0  0  0
   37.7630   28.1110   36.6330 H   0  0  0  0  0  0  0  0  0  0  0  0
   38.3230   25.2460   35.2280 O   0  0  0  0  0  0  0  0  0  0  0  0
   39.6940   23.4920   36.3700 C   0  0  0  0  0  0  0  0  0  0  0  0
   38.7360   24.4520   36.1870 C   0  0  0  0  0  0  0  0  0  0  0  0
   37.9330   24.7040   37.3180 C   0  0  0  0  0  0  0  0  0  0  0  0
   37.1110   25.4000   37.4580 H   0  0  0  0  0  0  0  0  0  0  0  0
   38.1150   24.0140   38.5290 C   0  0  0  0  0  0  0  0  0  0  0  0
   37.5620   24.1300   39.4410 H   0  0  0  0  0  0  0  0  0  0  0  0
   39.1220   23.0640   38.5830 C   0  0  0  0  0  3  0  0  0  0  0  0
   39.9400   22.7730   37.5140 C   0  0  0  0  0  3  0  0  0  0  0  0
   41.2330   24.2870   34.4260 H   0  0  0  0  0  0  0  0  0  0  0  0
   40.6630   23.2030   34.9730 S   0  0  0  0  0  0  0  0  0  0  0  0
   41.8200   22.2560   35.3080 O   0  0  0  0  0  0  0  0  0  0  0  0
   39.8050   22.4120   33.9990 O   0  0  0  0  0  0  0  0  0  0  0  0
  1  8  1  0  0  0  0
  1  4  1  1  0  0  0
  2  3  1  0  0  0  0
  2  1  1  0  0  0  0
  3  7  1  6  0  0  0
  3  1  1  0  0  0  0
  3 19  1  0  0  0  0
  5  2  1  0  0  0  0
  6  2  1  0  0  0  0
  8  9  1  0  0  0  0
  9 10  2  0  0  0  0
  9 15  1  0  0  0  0
 10 16  1  0  0  0  0
 11 10  1  0  0  0  0
 12 11  2  0  0  0  0
 13 12  1  0  0  0  0
 13  8  2  0  0  0  0
 14 17  1  0  0  0  0
 14 12  1  0  0  0  0
 18 14  1  0  0  0  0
 19 21  1  0  0  0  0
 21 20  2  6  0  0  0
 21 24  1  0  0  0  0
 21 22  1  0  0  0  0
 22 23  1  0  0  0  0
 24 26  1  0  0  0  0
 25 32  1  0  0  0  0
 26 25  2  0  0  0  0
 26 27  1  0  0  0  0
 27 28  1  0  0  0  0
 27 29  2  0  0  0  0
 29 31  1  0  0  0  0
 29 30  1  0  0  0  0
 32 31  2  0  0  0  0
 33 34  1  0  0  0  0
 34 35  2  0  0  0  0
 34 25  1  0  0  0  0
 36 34  2  0  0  0  0
M  END
>  <minimizedAffinity>
-5.32588434

$$$$
