
 OpenBabel03272501013D

 37 39  0  0  0  0  0  0  0  0999 V2000
   36.4150   30.0370   44.7840 F   0  0  0  0  0  0  0  0  0  0  0  0
   36.1060   31.0450   43.9160 C   0  0  0  0  0  0  0  0  0  0  0  0
   37.0240   32.0140   43.5270 C   0  0  0  0  0  0  0  0  0  0  0  0
   36.6170   32.9810   42.6550 C   0  0  0  0  0  0  0  0  0  0  0  0
   35.3420   33.0590   42.1270 C   0  0  0  0  0  0  0  0  0  0  0  0
   34.4440   32.0750   42.5350 C   0  0  0  0  0  0  0  0  0  0  0  0
   34.8190   31.0730   43.4220 C   0  0  0  0  0  0  0  0  0  0  0  0
   37.3080   33.7550   42.3300 H   0  0  0  0  0  0  0  0  0  0  0  0
   35.0560   33.8480   41.4320 H   0  0  0  0  0  0  0  0  0  0  0  0
   33.4440   32.1370   42.1190 H   0  0  0  0  0  0  0  0  0  0  0  0
   39.8620   32.7330   45.7100 C   0  0  0  0  0  0  0  0  0  0  0  0
   40.8900   31.9390   45.2090 C   0  0  0  0  0  0  0  0  0  0  0  0
   40.5990   31.1480   44.1070 C   0  0  0  0  0  0  0  0  0  0  0  0
   39.3470   31.1650   43.5530 N   0  0  0  0  0  0  0  0  0  0  0  0
   38.3750   31.9520   44.0720 C   0  0  0  0  0  0  0  0  0  0  0  0
   38.6460   32.7350   45.1550 N   0  0  0  0  0  0  0  0  0  0  0  0
   39.9690   33.3950   46.5700 H   0  0  0  0  0  0  0  0  0  0  0  0
   41.8500   31.9750   45.6920 H   0  0  0  0  0  0  0  0  0  0  0  0
   41.3810   30.5230   43.7000 H   0  0  0  0  0  0  0  0  0  0  0  0
   33.9150   30.1330   43.7920 O   0  0  0  0  0  0  0  0  0  0  0  0
   31.7680   29.2660   44.9300 O   0  0  0  0  0  0  0  0  0  0  0  0
   33.0960   29.9830   45.2530 P   0  0  2  0  0  0  0  0  0  0  0  0
   32.6880   31.4400   45.9700 O   0  0  0  0  0  0  0  0  0  0  0  0
   32.0710   31.2620   46.7140 H   0  0  0  0  0  0  0  0  0  0  0  0
   33.9210   28.9850   46.3170 O   0  0  0  0  0  0  0  0  0  0  0  0
   33.6830   28.6320   48.6280 C   0  0  0  0  0  0  0  0  0  0  0  0
   34.3800   29.1780   47.5670 C   0  0  0  0  0  0  0  0  0  0  0  0
   35.5340   29.9090   47.8480 C   0  0  0  0  0  0  0  0  0  0  0  0
   36.1050   30.3500   47.0610 H   0  0  0  0  0  0  0  0  0  0  0  0
   35.9480   30.0690   49.1550 C   0  0  0  0  0  0  0  0  0  0  0  0
   36.8390   30.6280   49.4350 H   0  0  0  0  0  0  0  0  0  0  0  0
   35.2430   29.5190   50.1850 C   0  0  0  0  0  0  0  0  0  0  0  0
   34.1180   28.8070   49.9190 C   0  0  0  0  0  0  0  0  0  0  0  0
   31.6300   28.3470   47.2160 H   0  0  0  0  0  0  0  0  0  0  0  0
   32.2220   27.7050   48.2950 S   0  0  0  0  0  0  0  0  0  0  0  0
   31.2650   27.8110   49.4240 O   0  0  0  0  0  0  0  0  0  0  0  0
   32.5010   26.2730   48.0160 O   0  0  0  0  0  0  0  0  0  0  0  0
  2  1  1  0  0  0  0
  3  2  1  0  0  0  0
  3 15  1  0  0  0  0
  4  3  2  0  0  0  0
  5  6  2  0  0  0  0
  5  4  1  0  0  0  0
  6  7  1  0  0  0  0
  7 20  1  0  0  0  0
  7  2  2  0  0  0  0
  8  4  1  0  0  0  0
  9  5  1  0  0  0  0
 10  6  1  0  0  0  0
 11 17  1  0  0  0  0
 12 18  1  0  0  0  0
 12 11  1  0  0  0  0
 13 12  2  0  0  0  0
 14 15  2  0  0  0  0
 14 13  1  0  0  0  0
 15 16  1  0  0  0  0
 16 11  2  0  0  0  0
 19 13  1  0  0  0  0
 20 22  1  0  0  0  0
 22 21  2  6  0  0  0
 22 23  1  0  0  0  0
 22 25  1  0  0  0  0
 23 24  1  0  0  0  0
 25 27  1  0  0  0  0
 26 33  1  0  0  0  0
 27 28  1  0  0  0  0
 27 26  2  0  0  0  0
 28 30  2  0  0  0  0
 29 28  1  0  0  0  0
 30 31  1  0  0  0  0
 30 32  1  0  0  0  0
 33 32  2  0  0  0  0
 34 35  1  0  0  0  0
 35 26  1  0  0  0  0
 35 36  2  0  0  0  0
 37 35  2  0  0  0  0
M  END
>  <minimizedAffinity>
-5.48505306

>  <minimizedRMSD>
4.77381897

$$$$
