
 OpenBabel03262522303D

 49 52  0  0  0  0  0  0  0  0999 V2000
   37.7510   27.9540   31.6440 C   0  0  0  0  0  0  0  0  0  0  0  0
   38.1120   27.6450   32.6440 H   0  0  0  0  0  0  0  0  0  0  0  0
   38.5920   28.4330   31.1130 H   0  0  0  0  0  0  0  0  0  0  0  0
   36.2720   28.0190   33.9510 F   0  0  0  0  0  0  0  0  0  0  0  0
   35.9830   28.9190   32.9720 C   0  0  0  0  0  0  0  0  0  0  0  0
   36.6640   28.9810   31.7630 C   0  0  0  0  0  0  0  0  0  0  0  0
   36.3350   29.9080   30.8100 C   0  0  0  0  0  0  0  0  0  0  0  0
   35.2950   30.8240   31.0300 C   0  0  0  0  0  0  0  0  0  0  0  0
   34.6080   30.7780   32.2230 C   0  0  0  0  0  0  0  0  0  0  0  0
   34.9570   29.8380   33.1650 C   0  0  0  0  0  0  0  0  0  0  0  0
   36.9410   29.8550   29.9100 H   0  0  0  0  0  0  0  0  0  0  0  0
   35.0960   31.5230   30.2320 H   0  0  0  0  0  0  0  0  0  0  0  0
   33.8060   31.4840   32.3930 H   0  0  0  0  0  0  0  0  0  0  0  0
   34.2250   29.8470   34.3420 O   0  0  0  0  0  0  0  0  0  0  0  0
   33.0870   30.7560   36.0910 C   0  0  0  0  0  0  0  0  0  0  0  0
   34.2620   30.7830   35.3280 C   0  0  0  0  0  0  0  0  0  0  0  0
   35.2230   31.7070   35.6780 C   0  0  0  0  0  0  0  0  0  0  0  0
   36.0900   31.6570   35.0400 H   0  0  0  0  0  0  0  0  0  0  0  0
   35.0250   32.5670   36.7420 C   0  0  0  0  0  0  0  0  0  0  0  0
   35.8650   33.2300   36.8910 H   0  0  0  0  0  0  0  0  0  0  0  0
   33.8630   32.5290   37.4850 C   0  0  0  0  0  3  0  0  0  0  0  0
   32.8840   31.6230   37.1660 C   0  0  0  0  0  3  0  0  0  0  0  0
   31.4430   29.6240   34.4790 H   0  0  0  0  0  0  0  0  0  0  0  0
   31.7330   29.6610   35.8210 S   0  0  0  0  0  0  0  0  0  0  0  0
   30.5620   30.1810   36.5880 O   0  0  0  0  0  0  0  0  0  0  0  0
   32.0250   28.2710   36.2940 O   0  0  0  0  0  0  0  0  0  0  0  0
   37.0400   26.5580   30.7290 S   0  0  0  0  0  0  0  0  0  0  0  0
   36.9980   22.9620   32.5570 C   0  0  0  0  0  0  0  0  0  0  0  0
   37.7940   23.2200   33.6790 C   0  0  0  0  0  0  0  0  0  0  0  0
   38.3000   24.4910   33.8120 C   0  0  0  0  0  0  0  0  0  0  0  0
   38.0040   25.4130   32.8560 N   0  0  0  0  0  0  0  0  0  0  0  0
   37.2600   25.1370   31.8260 C   0  0  0  0  0  0  0  0  0  0  0  0
   36.7170   23.8860   31.6250 N   0  0  0  0  0  0  0  0  0  0  0  0
   36.5670   21.9800   32.3900 H   0  0  0  0  0  0  0  0  0  0  0  0
   38.9120   24.6930   34.6730 H   0  0  0  0  0  0  0  0  0  0  0  0
   38.0110   22.2100   34.5560 O   0  0  0  0  0  0  0  0  0  0  0  0
   38.5470   22.4890   35.8110 C   0  0  0  0  0  0  0  0  0  0  0  0
   37.9440   23.1910   36.8300 C   0  0  0  0  0  0  0  0  0  0  0  0
   38.6260   23.3630   37.9900 C   0  0  0  0  0  0  0  0  0  0  0  0
   39.8840   22.8390   38.1170 C   0  0  0  0  0  0  0  0  0  0  0  0
   40.4670   22.1320   37.0640 C   0  0  0  0  0  0  0  0  0  0  0  0
   39.7740   21.9690   35.9150 N   0  0  0  0  0  0  0  0  0  0  0  0
   36.9460   23.5530   36.6010 H   0  0  0  0  0  0  0  0  0  0  0  0
   38.1570   23.9080   38.7770 H   0  0  0  0  0  0  0  0  0  0  0  0
   40.4740   22.9420   39.0090 H   0  0  0  0  0  0  0  0  0  0  0  0
   41.8660   21.5510   37.2110 C   0  0  0  0  0  0  0  0  0  0  0  0
   42.6220   22.3170   36.9520 H   0  0  0  0  0  0  0  0  0  0  0  0
   41.9530   20.7670   36.4070 H   0  0  0  0  0  0  0  0  0  0  0  0
   42.0060   21.0840   38.1830 H   0  0  0  0  0  0  0  0  0  0  0  0
  1  6  1  0  0  0  0
  1  2  1  0  0  0  0
  3  1  1  0  0  0  0
  5 10  1  0  0  0  0
  5  4  1  0  0  0  0
  6  5  2  0  0  0  0
  7  8  2  0  0  0  0
  7  6  1  0  0  0  0
  8  9  1  0  0  0  0
  9 13  1  0  0  0  0
  9 10  2  0  0  0  0
 10 14  1  0  0  0  0
 11  7  1  0  0  0  0
 12  8  1  0  0  0  0
 14 16  1  0  0  0  0
 15 22  1  0  0  0  0
 16 17  1  0  0  0  0
 16 15  2  0  0  0  0
 17 19  2  0  0  0  0
 18 17  1  0  0  0  0
 19 20  1  0  0  0  0
 19 21  1  0  0  0  0
 22 21  2  0  0  0  0
 23 24  1  0  0  0  0
 24 15  1  0  0  0  0
 24 26  2  0  0  0  0
 24 25  2  0  0  0  0
 27  1  1  0  0  0  0
 27 32  1  0  0  0  0
 28 29  1  0  0  0  0
 29 30  2  0  0  0  0
 29 36  1  0  0  0  0
 30 35  1  0  0  0  0
 31 30  1  0  0  0  0
 32 31  2  0  0  0  0
 33 32  1  0  0  0  0
 33 28  2  0  0  0  0
 34 28  1  0  0  0  0
 36 37  1  0  0  0  0
 37 42  2  0  0  0  0
 37 38  1  0  0  0  0
 38 39  2  0  0  0  0
 39 40  1  0  0  0  0
 39 44  1  0  0  0  0
 40 45  1  0  0  0  0
 41 46  1  0  0  0  0
 41 40  2  0  0  0  0
 42 41  1  0  0  0  0
 43 38  1  0  0  0  0
 46 49  1  0  0  0  0
 47 46  1  0  0  0  0
 48 46  1  0  0  0  0
M  END
>  <minimizedAffinity>
-6.43578196

$$$$

 OpenBabel03262522303D

 49 52  0  0  0  0  0  0  0  0999 V2000
   36.9560   20.8120   31.9560 C   0  0  0  0  0  0  0  0  0  0  0  0
   37.0330   19.7270   31.7580 H   0  0  0  0  0  0  0  0  0  0  0  0
   37.9020   21.2830   31.6360 H   0  0  0  0  0  0  0  0  0  0  0  0
   38.8140   22.4140   33.1800 F   0  0  0  0  0  0  0  0  0  0  0  0
   37.8060   21.9000   33.9350 C   0  0  0  0  0  0  0  0  0  0  0  0
   36.8090   21.0780   33.4260 C   0  0  0  0  0  0  0  0  0  0  0  0
   35.8150   20.5860   34.2300 C   0  0  0  0  0  0  0  0  0  0  0  0
   35.7770   20.9010   35.5960 C   0  0  0  0  0  0  0  0  0  0  0  0
   36.7570   21.7150   36.1200 C   0  0  0  0  0  0  0  0  0  0  0  0
   37.7450   22.1960   35.2930 C   0  0  0  0  0  0  0  0  0  0  0  0
   35.0960   19.9570   33.7120 H   0  0  0  0  0  0  0  0  0  0  0  0
   34.9630   20.4760   36.1630 H   0  0  0  0  0  0  0  0  0  0  0  0
   36.7270   21.9570   37.1740 H   0  0  0  0  0  0  0  0  0  0  0  0
   38.6990   23.0090   35.8850 O   0  0  0  0  0  0  0  0  0  0  0  0
   40.0200   24.7480   35.2450 C   0  0  0  0  0  0  0  0  0  0  0  0
   38.7940   24.3630   35.8030 C   0  0  0  0  0  0  0  0  0  0  0  0
   37.9200   25.3660   36.1640 C   0  0  0  0  0  0  0  0  0  0  0  0
   37.0050   24.9790   36.5830 H   0  0  0  0  0  0  0  0  0  0  0  0
   38.2500   26.6950   35.9780 C   0  0  0  0  0  0  0  0  0  0  0  0
   37.4650   27.3600   36.3090 H   0  0  0  0  0  0  0  0  0  0  0  0
   39.4620   27.0600   35.4260 C   0  0  0  0  0  3  0  0  0  0  0  0
   40.3570   26.0900   35.0550 C   0  0  0  0  0  3  0  0  0  0  0  0
   40.7010   22.4790   34.2620 H   0  0  0  0  0  0  0  0  0  0  0  0
   41.2810   23.6370   34.7150 S   0  0  0  0  0  0  0  0  0  0  0  0
   42.1620   23.3500   35.8860 O   0  0  0  0  0  0  0  0  0  0  0  0
   42.1250   24.2180   33.6230 O   0  0  0  0  0  0  0  0  0  0  0  0
   35.4990   21.5380   31.1560 S   0  0  0  0  0  0  0  0  0  0  0  0
   35.3800   25.5700   31.1900 C   0  0  0  0  0  0  0  0  0  0  0  0
   36.7210   25.8830   30.9410 C   0  0  0  0  0  0  0  0  0  0  0  0
   37.5910   24.8310   30.7750 C   0  0  0  0  0  0  0  0  0  0  0  0
   37.1040   23.5630   30.8620 N   0  0  0  0  0  0  0  0  0  0  0  0
   35.8500   23.3110   31.0960 C   0  0  0  0  0  0  0  0  0  0  0  0
   34.9190   24.3130   31.2730 N   0  0  0  0  0  0  0  0  0  0  0  0
   34.6400   26.3520   31.3310 H   0  0  0  0  0  0  0  0  0  0  0  0
   38.6220   25.0670   30.5820 H   0  0  0  0  0  0  0  0  0  0  0  0
   37.0740   27.1890   30.8790 O   0  0  0  0  0  0  0  0  0  0  0  0
   36.5410   28.0920   31.7960 C   0  0  0  0  0  0  0  0  0  0  0  0
   36.6080   28.0150   33.1680 C   0  0  0  0  0  0  0  0  0  0  0  0
   36.0250   28.9960   33.9020 C   0  0  0  0  0  0  0  0  0  0  0  0
   35.3920   30.0290   33.2640 C   0  0  0  0  0  0  0  0  0  0  0  0
   35.3420   30.0780   31.8700 C   0  0  0  0  0  0  0  0  0  0  0  0
   35.9280   29.0930   31.1540 N   0  0  0  0  0  0  0  0  0  0  0  0
   37.1390   27.1460   33.5460 H   0  0  0  0  0  0  0  0  0  0  0  0
   36.0780   28.9330   34.9640 H   0  0  0  0  0  0  0  0  0  0  0  0
   34.9130   30.8340   33.7890 H   0  0  0  0  0  0  0  0  0  0  0  0
   34.6370   31.2290   31.1680 C   0  0  0  0  0  0  0  0  0  0  0  0
   33.5560   31.0100   31.0750 H   0  0  0  0  0  0  0  0  0  0  0  0
   35.0300   31.2240   30.1120 H   0  0  0  0  0  0  0  0  0  0  0  0
   34.8700   32.1850   31.6320 H   0  0  0  0  0  0  0  0  0  0  0  0
  1  6  1  0  0  0  0
  2  1  1  0  0  0  0
  3  1  1  0  0  0  0
  4  5  1  0  0  0  0
  5 10  1  0  0  0  0
  6  5  2  0  0  0  0
  6  7  1  0  0  0  0
  7  8  2  0  0  0  0
  8  9  1  0  0  0  0
  8 12  1  0  0  0  0
  9 13  1  0  0  0  0
 10 14  1  0  0  0  0
 10  9  2  0  0  0  0
 11  7  1  0  0  0  0
 15 16  1  0  0  0  0
 16 14  1  0  0  0  0
 16 17  2  0  0  0  0
 17 18  1  0  0  0  0
 19 17  1  0  0  0  0
 19 20  1  0  0  0  0
 21 19  2  0  0  0  0
 22 15  2  0  0  0  0
 22 21  1  0  0  0  0
 23 24  1  0  0  0  0
 24 15  1  0  0  0  0
 24 25  2  0  0  0  0
 26 24  2  0  0  0  0
 27  1  1  0  0  0  0
 28 33  1  0  0  0  0
 28 34  1  0  0  0  0
 29 28  2  0  0  0  0
 30 31  2  0  0  0  0
 30 29  1  0  0  0  0
 31 32  1  0  0  0  0
 32 27  1  0  0  0  0
 32 33  2  0  0  0  0
 35 30  1  0  0  0  0
 36 29  1  0  0  0  0
 36 37  1  0  0  0  0
 37 38  1  0  0  0  0
 38 43  1  0  0  0  0
 38 39  2  0  0  0  0
 39 44  1  0  0  0  0
 40 45  1  0  0  0  0
 40 39  1  0  0  0  0
 41 40  2  0  0  0  0
 42 37  2  0  0  0  0
 42 41  1  0  0  0  0
 46 49  1  0  0  0  0
 46 41  1  0  0  0  0
 47 46  1  0  0  0  0
 48 46  1  0  0  0  0
M  END
>  <minimizedAffinity>
-6.32665157

$$$$

 OpenBabel03262522303D

 49 52  0  0  0  0  0  0  0  0999 V2000
   37.1320   20.5950   32.0830 C   0  0  0  0  0  0  0  0  0  0  0  0
   37.1820   19.4950   31.9700 H   0  0  0  0  0  0  0  0  0  0  0  0
   38.1110   21.0110   31.7900 H   0  0  0  0  0  0  0  0  0  0  0  0
   38.9380   22.2690   33.2860 F   0  0  0  0  0  0  0  0  0  0  0  0
   37.8820   21.8230   34.0190 C   0  0  0  0  0  0  0  0  0  0  0  0
   36.9050   20.9730   33.5170 C   0  0  0  0  0  0  0  0  0  0  0  0
   35.8600   20.5540   34.2970 C   0  0  0  0  0  0  0  0  0  0  0  0
   35.7480   20.9740   35.6310 C   0  0  0  0  0  0  0  0  0  0  0  0
   36.7070   21.8170   36.1470 C   0  0  0  0  0  0  0  0  0  0  0  0
   37.7480   22.2240   35.3440 C   0  0  0  0  0  0  0  0  0  0  0  0
   35.1630   19.8940   33.7890 H   0  0  0  0  0  0  0  0  0  0  0  0
   34.8970   20.6010   36.1810 H   0  0  0  0  0  0  0  0  0  0  0  0
   36.6210   22.1400   37.1760 H   0  0  0  0  0  0  0  0  0  0  0  0
   38.6770   23.0720   35.9270 O   0  0  0  0  0  0  0  0  0  0  0  0
   40.8270   23.7400   35.5970 C   0  0  0  0  0  0  0  0  0  0  0  0
   39.9820   22.8010   36.2020 C   0  0  0  0  0  0  0  0  0  0  0  0
   40.5730   21.8000   36.9420 C   0  0  0  0  0  0  0  0  0  0  0  0
   39.8490   21.1260   37.3690 H   0  0  0  0  0  0  0  0  0  0  0  0
   41.9470   21.7360   37.0760 C   0  0  0  0  0  0  0  0  0  0  0  0
   42.2570   20.8980   37.6840 H   0  0  0  0  0  0  0  0  0  0  0  0
   42.7680   22.6670   36.4760 C   0  0  0  0  0  3  0  0  0  0  0  0
   42.2160   23.6770   35.7310 C   0  0  0  0  0  3  0  0  0  0  0  0
   38.9310   25.2450   34.7490 H   0  0  0  0  0  0  0  0  0  0  0  0
   40.2890   25.0960   34.6090 S   0  0  0  0  0  0  0  0  0  0  0  0
   40.6310   24.7930   33.1870 O   0  0  0  0  0  0  0  0  0  0  0  0
   40.9610   26.3780   34.9920 O   0  0  0  0  0  0  0  0  0  0  0  0
   35.7520   21.3020   31.1410 S   0  0  0  0  0  0  0  0  0  0  0  0
   37.4160   24.9680   30.8900 C   0  0  0  0  0  0  0  0  0  0  0  0
   36.2880   25.7870   31.0190 C   0  0  0  0  0  0  0  0  0  0  0  0
   35.0740   25.1630   31.1780 C   0  0  0  0  0  0  0  0  0  0  0  0
   35.0390   23.8020   31.1980 N   0  0  0  0  0  0  0  0  0  0  0  0
   36.1080   23.0740   31.0750 C   0  0  0  0  0  0  0  0  0  0  0  0
   37.3610   23.6270   30.9130 N   0  0  0  0  0  0  0  0  0  0  0  0
   38.4060   25.3950   30.7610 H   0  0  0  0  0  0  0  0  0  0  0  0
   34.2050   25.7880   31.2780 H   0  0  0  0  0  0  0  0  0  0  0  0
   36.4630   27.1300   30.9810 O   0  0  0  0  0  0  0  0  0  0  0  0
   36.1920   27.8930   32.1140 C   0  0  0  0  0  0  0  0  0  0  0  0
   35.2870   28.9240   32.2200 C   0  0  0  0  0  0  0  0  0  0  0  0
   35.1610   29.5560   33.4140 C   0  0  0  0  0  0  0  0  0  0  0  0
   35.9290   29.1550   34.4740 C   0  0  0  0  0  0  0  0  0  0  0  0
   36.8390   28.1050   34.3330 C   0  0  0  0  0  0  0  0  0  0  0  0
   36.9520   27.4870   33.1370 N   0  0  0  0  0  0  0  0  0  0  0  0
   34.7410   29.1420   31.3070 H   0  0  0  0  0  0  0  0  0  0  0  0
   34.4590   30.3540   33.4930 H   0  0  0  0  0  0  0  0  0  0  0  0
   35.8750   29.6150   35.4430 H   0  0  0  0  0  0  0  0  0  0  0  0
   37.6900   27.6640   35.5140 C   0  0  0  0  0  0  0  0  0  0  0  0
   38.6050   28.2850   35.5740 H   0  0  0  0  0  0  0  0  0  0  0  0
   38.0520   26.6290   35.2550 H   0  0  0  0  0  0  0  0  0  0  0  0
   37.1100   27.6200   36.4330 H   0  0  0  0  0  0  0  0  0  0  0  0
  1  6  1  0  0  0  0
  2  1  1  0  0  0  0
  3  1  1  0  0  0  0
  4  5  1  0  0  0  0
  5 10  1  0  0  0  0
  6  5  2  0  0  0  0
  6  7  1  0  0  0  0
  7  8  2  0  0  0  0
  8  9  1  0  0  0  0
  8 12  1  0  0  0  0
  9 13  1  0  0  0  0
 10 14  1  0  0  0  0
 10  9  2  0  0  0  0
 11  7  1  0  0  0  0
 14 16  1  0  0  0  0
 15 22  2  0  0  0  0
 15 16  1  0  0  0  0
 16 17  2  0  0  0  0
 17 19  1  0  0  0  0
 17 18  1  0  0  0  0
 19 20  1  0  0  0  0
 21 19  2  0  0  0  0
 22 21  1  0  0  0  0
 24 23  1  0  0  0  0
 24 26  2  0  0  0  0
 24 15  1  0  0  0  0
 25 24  2  0  0  0  0
 27  1  1  0  0  0  0
 28 33  2  0  0  0  0
 28 29  1  0  0  0  0
 29 30  2  0  0  0  0
 30 31  1  0  0  0  0
 30 35  1  0  0  0  0
 32 27  1  0  0  0  0
 32 31  2  0  0  0  0
 33 32  1  0  0  0  0
 34 28  1  0  0  0  0
 36 29  1  0  0  0  0
 36 37  1  0  0  0  0
 37 38  2  0  0  0  0
 37 42  1  0  0  0  0
 38 39  1  0  0  0  0
 39 44  1  0  0  0  0
 39 40  2  0  0  0  0
 40 45  1  0  0  0  0
 41 40  1  0  0  0  0
 41 46  1  0  0  0  0
 42 41  2  0  0  0  0
 43 38  1  0  0  0  0
 46 47  1  0  0  0  0
 46 49  1  0  0  0  0
 48 46  1  0  0  0  0
M  END
>  <minimizedAffinity>
-6.32283306

$$$$

 OpenBabel03262522303D

 49 52  0  0  0  0  0  0  0  0999 V2000
   37.4290   26.3810   30.9470 C   0  0  0  0  0  0  0  0  0  0  0  0
   36.4010   26.3780   31.3550 H   0  0  0  0  0  0  0  0  0  0  0  0
   37.5410   25.4910   30.3030 H   0  0  0  0  0  0  0  0  0  0  0  0
   37.2670   24.2170   32.6220 F   0  0  0  0  0  0  0  0  0  0  0  0
   38.2600   25.1230   32.8310 C   0  0  0  0  0  0  0  0  0  0  0  0
   38.4410   26.2560   32.0470 C   0  0  0  0  0  0  0  0  0  0  0  0
   39.4580   27.1380   32.3000 C   0  0  0  0  0  0  0  0  0  0  0  0
   40.3490   26.9200   33.3610 C   0  0  0  0  0  0  0  0  0  0  0  0
   40.1860   25.8020   34.1490 C   0  0  0  0  0  0  0  0  0  0  0  0
   39.1570   24.9310   33.8770 C   0  0  0  0  0  0  0  0  0  0  0  0
   39.4940   27.9820   31.6170 H   0  0  0  0  0  0  0  0  0  0  0  0
   41.1240   27.6590   33.4960 H   0  0  0  0  0  0  0  0  0  0  0  0
   40.8730   25.6350   34.9680 H   0  0  0  0  0  0  0  0  0  0  0  0
   39.0500   23.8270   34.7090 O   0  0  0  0  0  0  0  0  0  0  0  0
   39.7880   23.0170   36.7030 C   0  0  0  0  0  0  0  0  0  0  0  0
   38.8460   23.8250   36.0530 C   0  0  0  0  0  0  0  0  0  0  0  0
   37.9050   24.4570   36.8380 C   0  0  0  0  0  0  0  0  0  0  0  0
   37.2230   25.0550   36.2550 H   0  0  0  0  0  0  0  0  0  0  0  0
   37.9020   24.2950   38.2100 C   0  0  0  0  0  0  0  0  0  0  0  0
   37.1070   24.8530   38.6840 H   0  0  0  0  0  0  0  0  0  0  0  0
   38.8370   23.4970   38.8370 C   0  0  0  0  0  3  0  0  0  0  0  0
   39.7880   22.8520   38.0900 C   0  0  0  0  0  3  0  0  0  0  0  0
   40.5440   21.4200   34.8440 H   0  0  0  0  0  0  0  0  0  0  0  0
   41.0740   22.1190   35.9000 S   0  0  0  0  0  0  0  0  0  0  0  0
   41.6690   21.1790   36.8960 O   0  0  0  0  0  0  0  0  0  0  0  0
   42.1600   23.0160   35.3930 O   0  0  0  0  0  0  0  0  0  0  0  0
   37.8020   27.9310   30.0810 S   0  0  0  0  0  0  0  0  0  0  0  0
   36.0920   31.2930   31.5110 C   0  0  0  0  0  0  0  0  0  0  0  0
   35.0770   30.7610   32.3140 C   0  0  0  0  0  0  0  0  0  0  0  0
   34.9750   29.3910   32.3710 C   0  0  0  0  0  0  0  0  0  0  0  0
   35.8560   28.6420   31.6520 N   0  0  0  0  0  0  0  0  0  0  0  0
   36.7870   29.1730   30.9160 C   0  0  0  0  0  0  0  0  0  0  0  0
   36.9510   30.5370   30.8090 N   0  0  0  0  0  0  0  0  0  0  0  0
   36.2290   32.3670   31.4200 H   0  0  0  0  0  0  0  0  0  0  0  0
   34.1980   28.9780   32.9880 H   0  0  0  0  0  0  0  0  0  0  0  0
   34.2680   31.6210   32.9780 O   0  0  0  0  0  0  0  0  0  0  0  0
   34.4500   31.8240   34.3440 C   0  0  0  0  0  0  0  0  0  0  0  0
   35.5000   32.4750   34.9510 C   0  0  0  0  0  0  0  0  0  0  0  0
   35.5050   32.5750   36.3030 C   0  0  0  0  0  0  0  0  0  0  0  0
   34.4750   32.0330   37.0240 C   0  0  0  0  0  0  0  0  0  0  0  0
   33.4250   31.3790   36.3770 C   0  0  0  0  0  0  0  0  0  0  0  0
   33.4350   31.2880   35.0300 N   0  0  0  0  0  0  0  0  0  0  0  0
   36.2500   32.8590   34.2650 H   0  0  0  0  0  0  0  0  0  0  0  0
   36.3200   33.0790   36.7700 H   0  0  0  0  0  0  0  0  0  0  0  0
   34.4230   32.0800   38.0960 H   0  0  0  0  0  0  0  0  0  0  0  0
   32.2830   30.7790   37.1840 C   0  0  0  0  0  0  0  0  0  0  0  0
   32.5510   29.7570   37.5160 H   0  0  0  0  0  0  0  0  0  0  0  0
   31.4380   30.6400   36.4520 H   0  0  0  0  0  0  0  0  0  0  0  0
   31.9600   31.4460   37.9800 H   0  0  0  0  0  0  0  0  0  0  0  0
  1  2  1  0  0  0  0
  1  6  1  0  0  0  0
  3  1  1  0  0  0  0
  4  5  1  0  0  0  0
  5 10  1  0  0  0  0
  6  7  1  0  0  0  0
  6  5  2  0  0  0  0
  7  8  2  0  0  0  0
  8 12  1  0  0  0  0
  8  9  1  0  0  0  0
  9 13  1  0  0  0  0
 10  9  2  0  0  0  0
 10 14  1  0  0  0  0
 11  7  1  0  0  0  0
 14 16  1  0  0  0  0
 15 22  1  0  0  0  0
 16 15  2  0  0  0  0
 16 17  1  0  0  0  0
 17 19  2  0  0  0  0
 18 17  1  0  0  0  0
 19 20  1  0  0  0  0
 19 21  1  0  0  0  0
 22 21  2  0  0  0  0
 23 24  1  0  0  0  0
 24 15  1  0  0  0  0
 24 25  2  0  0  0  0
 26 24  2  0  0  0  0
 27 32  1  0  0  0  0
 27  1  1  0  0  0  0
 28 29  1  0  0  0  0
 29 30  2  0  0  0  0
 29 36  1  0  0  0  0
 30 35  1  0  0  0  0
 31 30  1  0  0  0  0
 32 31  2  0  0  0  0
 33 32  1  0  0  0  0
 33 28  2  0  0  0  0
 34 28  1  0  0  0  0
 36 37  1  0  0  0  0
 37 38  2  0  0  0  0
 37 42  1  0  0  0  0
 38 39  1  0  0  0  0
 39 44  1  0  0  0  0
 39 40  2  0  0  0  0
 40 45  1  0  0  0  0
 41 40  1  0  0  0  0
 41 46  1  0  0  0  0
 42 41  2  0  0  0  0
 43 38  1  0  0  0  0
 46 47  1  0  0  0  0
 46 49  1  0  0  0  0
 48 46  1  0  0  0  0
M  END
>  <minimizedAffinity>
-6.18743515

$$$$

 OpenBabel03262522303D

 49 52  0  0  0  0  0  0  0  0999 V2000
   39.4850   27.5350   30.8500 C   0  0  0  0  0  0  0  0  0  0  0  0
   40.4380   27.3430   30.3240 H   0  0  0  0  0  0  0  0  0  0  0  0
   39.6790   28.2800   31.6420 H   0  0  0  0  0  0  0  0  0  0  0  0
   39.9550   27.2440   33.5350 F   0  0  0  0  0  0  0  0  0  0  0  0
   39.2860   26.2540   32.8850 C   0  0  0  0  0  0  0  0  0  0  0  0
   38.9900   26.2920   31.5280 C   0  0  0  0  0  0  0  0  0  0  0  0
   38.3110   25.2680   30.9220 C   0  0  0  0  0  0  0  0  0  0  0  0
   37.8950   24.1490   31.6570 C   0  0  0  0  0  0  0  0  0  0  0  0
   38.1790   24.0930   33.0030 C   0  0  0  0  0  0  0  0  0  0  0  0
   38.8620   25.1330   33.5910 C   0  0  0  0  0  0  0  0  0  0  0  0
   38.1410   25.4170   29.8590 H   0  0  0  0  0  0  0  0  0  0  0  0
   37.3660   23.3850   31.1080 H   0  0  0  0  0  0  0  0  0  0  0  0
   37.8580   23.2290   33.5710 H   0  0  0  0  0  0  0  0  0  0  0  0
   39.1140   25.0120   34.9490 O   0  0  0  0  0  0  0  0  0  0  0  0
   39.3980   23.4980   36.6230 C   0  0  0  0  0  0  0  0  0  0  0  0
   39.9980   24.1720   35.5520 C   0  0  0  0  0  0  0  0  0  0  0  0
   41.3220   23.8940   35.2900 C   0  0  0  0  0  0  0  0  0  0  0  0
   41.6990   24.4570   34.4520 H   0  0  0  0  0  0  0  0  0  0  0  0
   42.0200   22.9830   36.0600 C   0  0  0  0  0  0  0  0  0  0  0  0
   43.0450   22.8740   35.7320 H   0  0  0  0  0  0  0  0  0  0  0  0
   41.4170   22.3250   37.1120 C   0  0  0  0  0  3  0  0  0  0  0  0
   40.1010   22.5770   37.4030 C   0  0  0  0  0  3  0  0  0  0  0  0
   37.1670   24.7520   36.4500 H   0  0  0  0  0  0  0  0  0  0  0  0
   37.7230   23.6990   37.1330 S   0  0  0  0  0  0  0  0  0  0  0  0
   37.7210   23.9770   38.6010 O   0  0  0  0  0  0  0  0  0  0  0  0
   36.9040   22.4710   36.8860 O   0  0  0  0  0  0  0  0  0  0  0  0
   38.1770   28.0490   29.7030 S   0  0  0  0  0  0  0  0  0  0  0  0
   35.3400   29.0510   32.3900 C   0  0  0  0  0  0  0  0  0  0  0  0
   35.2050   30.4220   32.1420 C   0  0  0  0  0  0  0  0  0  0  0  0
   35.9970   30.9640   31.1580 C   0  0  0  0  0  0  0  0  0  0  0  0
   36.8560   30.1460   30.4910 N   0  0  0  0  0  0  0  0  0  0  0  0
   36.9540   28.8760   30.7480 C   0  0  0  0  0  0  0  0  0  0  0  0
   36.1940   28.2610   31.7200 N   0  0  0  0  0  0  0  0  0  0  0  0
   34.7450   28.5590   33.1540 H   0  0  0  0  0  0  0  0  0  0  0  0
   35.8950   32.0160   30.9650 H   0  0  0  0  0  0  0  0  0  0  0  0
   34.3100   31.1210   32.8810 O   0  0  0  0  0  0  0  0  0  0  0  0
   34.6180   31.4650   34.1950 C   0  0  0  0  0  0  0  0  0  0  0  0
   35.7830   32.0400   34.6490 C   0  0  0  0  0  0  0  0  0  0  0  0
   35.9020   32.3030   35.9740 C   0  0  0  0  0  0  0  0  0  0  0  0
   34.8700   31.9950   36.8190 C   0  0  0  0  0  0  0  0  0  0  0  0
   33.7010   31.4110   36.3260 C   0  0  0  0  0  0  0  0  0  0  0  0
   33.5980   31.1560   35.0040 N   0  0  0  0  0  0  0  0  0  0  0  0
   36.5210   32.2340   33.8770 H   0  0  0  0  0  0  0  0  0  0  0  0
   36.8050   32.7480   36.3230 H   0  0  0  0  0  0  0  0  0  0  0  0
   34.9040   32.1790   37.8760 H   0  0  0  0  0  0  0  0  0  0  0  0
   32.5570   31.0710   37.2700 C   0  0  0  0  0  0  0  0  0  0  0  0
   32.7200   30.0710   37.7160 H   0  0  0  0  0  0  0  0  0  0  0  0
   31.6480   30.9560   36.6140 H   0  0  0  0  0  0  0  0  0  0  0  0
   32.3800   31.8670   37.9900 H   0  0  0  0  0  0  0  0  0  0  0  0
  1  6  1  0  0  0  0
  1  3  1  0  0  0  0
  2  1  1  0  0  0  0
  5  4  1  0  0  0  0
  5 10  1  0  0  0  0
  6  5  2  0  0  0  0
  7  6  1  0  0  0  0
  7  8  2  0  0  0  0
  8  9  1  0  0  0  0
  9 13  1  0  0  0  0
  9 10  2  0  0  0  0
 10 14  1  0  0  0  0
 11  7  1  0  0  0  0
 12  8  1  0  0  0  0
 14 16  1  0  0  0  0
 15 24  1  0  0  0  0
 15 22  1  0  0  0  0
 16 15  2  0  0  0  0
 17 16  1  0  0  0  0
 17 19  2  0  0  0  0
 18 17  1  0  0  0  0
 19 21  1  0  0  0  0
 20 19  1  0  0  0  0
 21 22  2  0  0  0  0
 23 24  1  0  0  0  0
 24 25  2  0  0  0  0
 26 24  2  0  0  0  0
 27 32  1  0  0  0  0
 27  1  1  0  0  0  0
 28 34  1  0  0  0  0
 29 28  1  0  0  0  0
 29 36  1  0  0  0  0
 30 29  2  0  0  0  0
 31 32  2  0  0  0  0
 31 30  1  0  0  0  0
 32 33  1  0  0  0  0
 33 28  2  0  0  0  0
 35 30  1  0  0  0  0
 36 37  1  0  0  0  0
 37 38  2  0  0  0  0
 37 42  1  0  0  0  0
 38 39  1  0  0  0  0
 39 44  1  0  0  0  0
 39 40  2  0  0  0  0
 40 45  1  0  0  0  0
 41 40  1  0  0  0  0
 41 46  1  0  0  0  0
 42 41  2  0  0  0  0
 43 38  1  0  0  0  0
 46 47  1  0  0  0  0
 46 49  1  0  0  0  0
 48 46  1  0  0  0  0
M  END
>  <minimizedAffinity>
-6.09358692

$$$$

 OpenBabel03262522303D

 49 52  0  0  0  0  0  0  0  0999 V2000
   38.2940   26.8320   30.8520 C   0  0  0  0  0  0  0  0  0  0  0  0
   38.8020   26.8680   29.8700 H   0  0  0  0  0  0  0  0  0  0  0  0
   38.7900   27.5600   31.5180 H   0  0  0  0  0  0  0  0  0  0  0  0
   39.5380   26.6750   33.2900 F   0  0  0  0  0  0  0  0  0  0  0  0
   39.0960   25.5240   32.7150 C   0  0  0  0  0  0  0  0  0  0  0  0
   38.4520   25.4800   31.4850 C   0  0  0  0  0  0  0  0  0  0  0  0
   38.0260   24.2940   30.9500 C   0  0  0  0  0  0  0  0  0  0  0  0
   38.2280   23.0860   31.6320 C   0  0  0  0  0  0  0  0  0  0  0  0
   38.8640   23.1080   32.8530 C   0  0  0  0  0  0  0  0  0  0  0  0
   39.2850   24.3120   33.3700 C   0  0  0  0  0  0  0  0  0  0  0  0
   37.5360   24.3930   29.9840 H   0  0  0  0  0  0  0  0  0  0  0  0
   37.8630   22.1940   31.1460 H   0  0  0  0  0  0  0  0  0  0  0  0
   39.0200   22.1760   33.3800 H   0  0  0  0  0  0  0  0  0  0  0  0
   39.9180   24.2630   34.6030 O   0  0  0  0  0  0  0  0  0  0  0  0
   40.0590   23.2100   36.6150 C   0  0  0  0  0  0  0  0  0  0  0  0
   39.3360   24.1110   35.8230 C   0  0  0  0  0  0  0  0  0  0  0  0
   38.2050   24.6740   36.3750 C   0  0  0  0  0  0  0  0  0  0  0  0
   37.7140   25.3530   35.6960 H   0  0  0  0  0  0  0  0  0  0  0  0
   37.8100   24.3560   37.6600 C   0  0  0  0  0  0  0  0  0  0  0  0
   36.9080   24.8760   37.9490 H   0  0  0  0  0  0  0  0  0  0  0  0
   38.5320   23.4670   38.4300 C   0  0  0  0  0  3  0  0  0  0  0  0
   39.6620   22.8860   37.9150 C   0  0  0  0  0  3  0  0  0  0  0  0
   41.4330   22.0590   34.7810 H   0  0  0  0  0  0  0  0  0  0  0  0
   41.5280   22.3770   36.1130 S   0  0  0  0  0  0  0  0  0  0  0  0
   41.6540   21.1340   36.9330 O   0  0  0  0  0  0  0  0  0  0  0  0
   42.7530   23.2090   36.3290 O   0  0  0  0  0  0  0  0  0  0  0  0
   36.5100   27.1190   30.6950 S   0  0  0  0  0  0  0  0  0  0  0  0
   35.9340   29.1410   34.1380 C   0  0  0  0  0  0  0  0  0  0  0  0
   35.4620   30.3670   33.6560 C   0  0  0  0  0  0  0  0  0  0  0  0
   35.3460   30.5040   32.2930 C   0  0  0  0  0  0  0  0  0  0  0  0
   35.6940   29.4530   31.5010 N   0  0  0  0  0  0  0  0  0  0  0  0
   36.1290   28.3270   31.9850 C   0  0  0  0  0  0  0  0  0  0  0  0
   36.2720   28.1160   33.3400 N   0  0  0  0  0  0  0  0  0  0  0  0
   36.0500   28.9660   35.2030 H   0  0  0  0  0  0  0  0  0  0  0  0
   34.9840   31.4440   31.9190 H   0  0  0  0  0  0  0  0  0  0  0  0
   35.1520   31.3320   34.5540 O   0  0  0  0  0  0  0  0  0  0  0  0
   34.0820   31.1450   35.4270 C   0  0  0  0  0  0  0  0  0  0  0  0
   33.9710   31.6190   36.7140 C   0  0  0  0  0  0  0  0  0  0  0  0
   32.8460   31.3320   37.4150 C   0  0  0  0  0  0  0  0  0  0  0  0
   31.8580   30.5850   36.8300 C   0  0  0  0  0  0  0  0  0  0  0  0
   32.0030   30.1180   35.5230 C   0  0  0  0  0  0  0  0  0  0  0  0
   33.1300   30.4140   34.8380 N   0  0  0  0  0  0  0  0  0  0  0  0
   34.8230   32.1990   37.0570 H   0  0  0  0  0  0  0  0  0  0  0  0
   32.7620   31.7010   38.4120 H   0  0  0  0  0  0  0  0  0  0  0  0
   30.9460   30.3250   37.3340 H   0  0  0  0  0  0  0  0  0  0  0  0
   30.9020   29.2890   34.8780 C   0  0  0  0  0  0  0  0  0  0  0  0
   31.0300   28.2210   35.1420 H   0  0  0  0  0  0  0  0  0  0  0  0
   31.0930   29.3440   33.7700 H   0  0  0  0  0  0  0  0  0  0  0  0
   29.9160   29.6950   35.0920 H   0  0  0  0  0  0  0  0  0  0  0  0
  1  6  1  0  0  0  0
  1  3  1  0  0  0  0
  2  1  1  0  0  0  0
  5  4  1  0  0  0  0
  5 10  1  0  0  0  0
  6  5  2  0  0  0  0
  7  6  1  0  0  0  0
  7  8  2  0  0  0  0
  8  9  1  0  0  0  0
  9 10  2  0  0  0  0
  9 13  1  0  0  0  0
 10 14  1  0  0  0  0
 11  7  1  0  0  0  0
 12  8  1  0  0  0  0
 14 16  1  0  0  0  0
 15 22  1  0  0  0  0
 16 17  1  0  0  0  0
 16 15  2  0  0  0  0
 17 19  2  0  0  0  0
 18 17  1  0  0  0  0
 19 20  1  0  0  0  0
 19 21  1  0  0  0  0
 22 21  2  0  0  0  0
 23 24  1  0  0  0  0
 24 26  2  0  0  0  0
 24 15  1  0  0  0  0
 24 25  2  0  0  0  0
 27  1  1  0  0  0  0
 27 32  1  0  0  0  0
 28 34  1  0  0  0  0
 29 28  1  0  0  0  0
 29 36  1  0  0  0  0
 30 29  2  0  0  0  0
 31 32  2  0  0  0  0
 31 30  1  0  0  0  0
 32 33  1  0  0  0  0
 33 28  2  0  0  0  0
 35 30  1  0  0  0  0
 36 37  1  0  0  0  0
 37 38  1  0  0  0  0
 38 43  1  0  0  0  0
 38 39  2  0  0  0  0
 39 44  1  0  0  0  0
 40 45  1  0  0  0  0
 40 39  1  0  0  0  0
 41 40  2  0  0  0  0
 42 37  2  0  0  0  0
 42 41  1  0  0  0  0
 46 49  1  0  0  0  0
 46 47  1  0  0  0  0
 46 41  1  0  0  0  0
 48 46  1  0  0  0  0
M  END
>  <minimizedAffinity>
-5.98734093

$$$$

 OpenBabel03262522303D

 49 52  0  0  0  0  0  0  0  0999 V2000
   36.3070   20.8760   32.7700 C   0  0  0  0  0  0  0  0  0  0  0  0
   35.7410   21.4390   33.5360 H   0  0  0  0  0  0  0  0  0  0  0  0
   36.1170   19.8000   32.9300 H   0  0  0  0  0  0  0  0  0  0  0  0
   37.1610   22.6300   34.6950 F   0  0  0  0  0  0  0  0  0  0  0  0
   38.0960   21.9980   33.9360 C   0  0  0  0  0  0  0  0  0  0  0  0
   37.7830   21.0900   32.9330 C   0  0  0  0  0  0  0  0  0  0  0  0
   38.7640   20.4800   32.1970 C   0  0  0  0  0  0  0  0  0  0  0  0
   40.1180   20.7570   32.4380 C   0  0  0  0  0  0  0  0  0  0  0  0
   40.4490   21.6540   33.4280 C   0  0  0  0  0  0  0  0  0  0  0  0
   39.4460   22.2550   34.1540 C   0  0  0  0  0  0  0  0  0  0  0  0
   38.3910   19.7900   31.4440 H   0  0  0  0  0  0  0  0  0  0  0  0
   40.8310   20.2360   31.8170 H   0  0  0  0  0  0  0  0  0  0  0  0
   41.4930   21.8680   33.6140 H   0  0  0  0  0  0  0  0  0  0  0  0
   39.8490   23.1480   35.1350 O   0  0  0  0  0  0  0  0  0  0  0  0
   38.8980   24.8430   36.3200 C   0  0  0  0  0  0  0  0  0  0  0  0
   39.6220   24.4890   35.1740 C   0  0  0  0  0  0  0  0  0  0  0  0
   39.9720   25.5020   34.3070 C   0  0  0  0  0  0  0  0  0  0  0  0
   40.5240   25.1390   33.4560 H   0  0  0  0  0  0  0  0  0  0  0  0
   39.6190   26.8120   34.5700 C   0  0  0  0  0  0  0  0  0  0  0  0
   39.9640   27.4880   33.8010 H   0  0  0  0  0  0  0  0  0  0  0  0
   38.9070   27.1470   35.7030 C   0  0  0  0  0  3  0  0  0  0  0  0
   38.5400   26.1660   36.5880 C   0  0  0  0  0  3  0  0  0  0  0  0
   37.4840   22.8110   36.9900 H   0  0  0  0  0  0  0  0  0  0  0  0
   38.3490   23.7140   37.5560 S   0  0  0  0  0  0  0  0  0  0  0  0
   37.6540   24.4990   38.6190 O   0  0  0  0  0  0  0  0  0  0  0  0
   39.4840   22.9690   38.1890 O   0  0  0  0  0  0  0  0  0  0  0  0
   35.8920   21.4260   31.0920 S   0  0  0  0  0  0  0  0  0  0  0  0
   37.8220   24.9520   30.7390 C   0  0  0  0  0  0  0  0  0  0  0  0
   36.8070   25.8520   31.0820 C   0  0  0  0  0  0  0  0  0  0  0  0
   35.5800   25.3220   31.4050 C   0  0  0  0  0  0  0  0  0  0  0  0
   35.4260   23.9700   31.3710 N   0  0  0  0  0  0  0  0  0  0  0  0
   36.3930   23.1640   31.0470 C   0  0  0  0  0  0  0  0  0  0  0  0
   37.6500   23.6210   30.7120 N   0  0  0  0  0  0  0  0  0  0  0  0
   38.8150   25.3020   30.4730 H   0  0  0  0  0  0  0  0  0  0  0  0
   34.7980   26.0100   31.6690 H   0  0  0  0  0  0  0  0  0  0  0  0
   37.0950   27.1760   31.0750 O   0  0  0  0  0  0  0  0  0  0  0  0
   36.4630   28.0240   31.9820 C   0  0  0  0  0  0  0  0  0  0  0  0
   36.5000   27.9420   33.3550 C   0  0  0  0  0  0  0  0  0  0  0  0
   35.8170   28.8650   34.0770 C   0  0  0  0  0  0  0  0  0  0  0  0
   35.1160   29.8460   33.4280 C   0  0  0  0  0  0  0  0  0  0  0  0
   35.0990   29.9010   32.0330 C   0  0  0  0  0  0  0  0  0  0  0  0
   35.7850   28.9740   31.3290 N   0  0  0  0  0  0  0  0  0  0  0  0
   37.0920   27.1190   33.7430 H   0  0  0  0  0  0  0  0  0  0  0  0
   35.8470   28.7990   35.1410 H   0  0  0  0  0  0  0  0  0  0  0  0
   34.5560   30.6040   33.9440 H   0  0  0  0  0  0  0  0  0  0  0  0
   34.3180   30.9930   31.3180 C   0  0  0  0  0  0  0  0  0  0  0  0
   33.2620   30.6840   31.1950 H   0  0  0  0  0  0  0  0  0  0  0  0
   34.7390   31.0290   30.2740 H   0  0  0  0  0  0  0  0  0  0  0  0
   34.4570   31.9620   31.7930 H   0  0  0  0  0  0  0  0  0  0  0  0
  1  3  1  0  0  0  0
  1  6  1  0  0  0  0
  1  2  1  0  0  0  0
  5 10  1  0  0  0  0
  5  4  1  0  0  0  0
  6  5  2  0  0  0  0
  7  8  2  0  0  0  0
  7  6  1  0  0  0  0
  8  9  1  0  0  0  0
  9 13  1  0  0  0  0
  9 10  2  0  0  0  0
 10 14  1  0  0  0  0
 11  7  1  0  0  0  0
 12  8  1  0  0  0  0
 14 16  1  0  0  0  0
 15 22  1  0  0  0  0
 15 24  1  0  0  0  0
 16 15  2  0  0  0  0
 17 19  2  0  0  0  0
 17 16  1  0  0  0  0
 18 17  1  0  0  0  0
 19 21  1  0  0  0  0
 20 19  1  0  0  0  0
 21 22  2  0  0  0  0
 23 24  1  0  0  0  0
 24 26  2  0  0  0  0
 24 25  2  0  0  0  0
 27  1  1  0  0  0  0
 28 29  1  0  0  0  0
 29 30  2  0  0  0  0
 30 35  1  0  0  0  0
 31 30  1  0  0  0  0
 32 27  1  0  0  0  0
 32 31  2  0  0  0  0
 33 28  2  0  0  0  0
 33 32  1  0  0  0  0
 34 28  1  0  0  0  0
 36 29  1  0  0  0  0
 36 37  1  0  0  0  0
 37 38  1  0  0  0  0
 38 43  1  0  0  0  0
 38 39  2  0  0  0  0
 39 44  1  0  0  0  0
 40 45  1  0  0  0  0
 40 39  1  0  0  0  0
 41 40  2  0  0  0  0
 42 37  2  0  0  0  0
 42 41  1  0  0  0  0
 46 49  1  0  0  0  0
 46 41  1  0  0  0  0
 47 46  1  0  0  0  0
 48 46  1  0  0  0  0
M  END
>  <minimizedAffinity>
-5.98717737

$$$$

 OpenBabel03262522303D

 49 52  0  0  0  0  0  0  0  0999 V2000
   37.7140   26.9200   30.9090 C   0  0  0  0  0  0  0  0  0  0  0  0
   37.9830   26.8790   29.8370 H   0  0  0  0  0  0  0  0  0  0  0  0
   38.4210   27.6030   31.4110 H   0  0  0  0  0  0  0  0  0  0  0  0
   39.2040   26.7420   33.2030 F   0  0  0  0  0  0  0  0  0  0  0  0
   38.6480   25.6050   32.7040 C   0  0  0  0  0  0  0  0  0  0  0  0
   37.8740   25.5730   31.5500 C   0  0  0  0  0  0  0  0  0  0  0  0
   37.3360   24.4010   31.0900 C   0  0  0  0  0  0  0  0  0  0  0  0
   37.5520   23.1950   31.7730 C   0  0  0  0  0  0  0  0  0  0  0  0
   38.3160   23.2060   32.9180 C   0  0  0  0  0  0  0  0  0  0  0  0
   38.8470   24.3960   33.3610 C   0  0  0  0  0  0  0  0  0  0  0  0
   36.7500   24.5080   30.1800 H   0  0  0  0  0  0  0  0  0  0  0  0
   37.0950   22.3150   31.3480 H   0  0  0  0  0  0  0  0  0  0  0  0
   38.4830   22.2760   33.4450 H   0  0  0  0  0  0  0  0  0  0  0  0
   39.6060   24.3350   34.5200 O   0  0  0  0  0  0  0  0  0  0  0  0
   40.0520   23.2760   36.4840 C   0  0  0  0  0  0  0  0  0  0  0  0
   39.1630   24.1020   35.7850 C   0  0  0  0  0  0  0  0  0  0  0  0
   38.0350   24.5270   36.4530 C   0  0  0  0  0  0  0  0  0  0  0  0
   37.4100   25.1560   35.8400 H   0  0  0  0  0  0  0  0  0  0  0  0
   37.8010   24.1480   37.7610 C   0  0  0  0  0  0  0  0  0  0  0  0
   36.8780   24.5600   38.1450 H   0  0  0  0  0  0  0  0  0  0  0  0
   38.6860   23.3340   38.4380 C   0  0  0  0  0  3  0  0  0  0  0  0
   39.8190   22.8910   37.8060 C   0  0  0  0  0  3  0  0  0  0  0  0
   42.2880   23.6390   35.2790 H   0  0  0  0  0  0  0  0  0  0  0  0
   41.5500   22.6190   35.8270 S   0  0  0  0  0  0  0  0  0  0  0  0
   41.1910   21.6190   34.7780 O   0  0  0  0  0  0  0  0  0  0  0  0
   42.3720   21.9300   36.8720 O   0  0  0  0  0  0  0  0  0  0  0  0
   35.9800   27.3980   31.1460 S   0  0  0  0  0  0  0  0  0  0  0  0
   36.2900   28.9030   34.8770 C   0  0  0  0  0  0  0  0  0  0  0  0
   35.8970   30.2300   34.6670 C   0  0  0  0  0  0  0  0  0  0  0  0
   35.5570   30.5890   33.3840 C   0  0  0  0  0  0  0  0  0  0  0  0
   35.6220   29.6460   32.4050 N   0  0  0  0  0  0  0  0  0  0  0  0
   35.9920   28.4210   32.6380 C   0  0  0  0  0  0  0  0  0  0  0  0
   36.3470   27.9870   33.8970 N   0  0  0  0  0  0  0  0  0  0  0  0
   36.5720   28.5530   35.8650 H   0  0  0  0  0  0  0  0  0  0  0  0
   35.2540   31.6070   33.2190 H   0  0  0  0  0  0  0  0  0  0  0  0
   35.8770   31.0680   35.7310 O   0  0  0  0  0  0  0  0  0  0  0  0
   34.6610   31.5720   36.1890 C   0  0  0  0  0  0  0  0  0  0  0  0
   33.4100   31.0440   35.9670 C   0  0  0  0  0  0  0  0  0  0  0  0
   32.3350   31.6790   36.4980 C   0  0  0  0  0  0  0  0  0  0  0  0
   32.5210   32.8180   37.2340 C   0  0  0  0  0  0  0  0  0  0  0  0
   33.8040   33.3290   37.4400 C   0  0  0  0  0  0  0  0  0  0  0  0
   34.8630   32.6840   36.9050 N   0  0  0  0  0  0  0  0  0  0  0  0
   33.4020   30.1380   35.3690 H   0  0  0  0  0  0  0  0  0  0  0  0
   31.3680   31.2680   36.3240 H   0  0  0  0  0  0  0  0  0  0  0  0
   31.7110   33.3660   37.6790 H   0  0  0  0  0  0  0  0  0  0  0  0
   34.0040   34.5950   38.2590 C   0  0  0  0  0  0  0  0  0  0  0  0
   33.8870   35.4860   37.6120 H   0  0  0  0  0  0  0  0  0  0  0  0
   35.0880   34.5900   38.5630 H   0  0  0  0  0  0  0  0  0  0  0  0
   33.3820   34.5980   39.1520 H   0  0  0  0  0  0  0  0  0  0  0  0
  1 27  1  0  0  0  0
  1  3  1  0  0  0  0
  1  6  1  0  0  0  0
  2  1  1  0  0  0  0
  5  4  1  0  0  0  0
  5 10  1  0  0  0  0
  6  5  2  0  0  0  0
  7  6  1  0  0  0  0
  7  8  2  0  0  0  0
  8  9  1  0  0  0  0
  9 10  2  0  0  0  0
  9 13  1  0  0  0  0
 10 14  1  0  0  0  0
 11  7  1  0  0  0  0
 12  8  1  0  0  0  0
 14 16  1  0  0  0  0
 15 22  1  0  0  0  0
 16 17  1  0  0  0  0
 16 15  2  0  0  0  0
 17 19  2  0  0  0  0
 18 17  1  0  0  0  0
 19 20  1  0  0  0  0
 19 21  1  0  0  0  0
 22 21  2  0  0  0  0
 23 24  1  0  0  0  0
 24 15  1  0  0  0  0
 24 26  2  0  0  0  0
 25 24  2  0  0  0  0
 27 32  1  0  0  0  0
 28 34  1  0  0  0  0
 29 28  1  0  0  0  0
 29 36  1  0  0  0  0
 30 29  2  0  0  0  0
 31 32  2  0  0  0  0
 31 30  1  0  0  0  0
 32 33  1  0  0  0  0
 33 28  2  0  0  0  0
 35 30  1  0  0  0  0
 36 37  1  0  0  0  0
 37 42  1  0  0  0  0
 38 37  2  0  0  0  0
 38 39  1  0  0  0  0
 39 40  2  0  0  0  0
 40 41  1  0  0  0  0
 40 45  1  0  0  0  0
 41 46  1  0  0  0  0
 42 41  2  0  0  0  0
 43 38  1  0  0  0  0
 44 39  1  0  0  0  0
 46 48  1  0  0  0  0
 46 49  1  0  0  0  0
 47 46  1  0  0  0  0
M  END
>  <minimizedAffinity>
-5.97648573

$$$$

 OpenBabel03262522303D

 49 52  0  0  0  0  0  0  0  0999 V2000
   36.9770   28.3250   30.0460 C   0  0  0  0  0  0  0  0  0  0  0  0
   36.9600   28.5750   28.9680 H   0  0  0  0  0  0  0  0  0  0  0  0
   36.2050   27.5570   30.2280 H   0  0  0  0  0  0  0  0  0  0  0  0
   35.4230   27.9360   32.2700 F   0  0  0  0  0  0  0  0  0  0  0  0
   35.8230   29.2020   31.9750 C   0  0  0  0  0  0  0  0  0  0  0  0
   36.6120   29.5200   30.8760 C   0  0  0  0  0  0  0  0  0  0  0  0
   36.9880   30.8130   30.6240 C   0  0  0  0  0  0  0  0  0  0  0  0
   36.5860   31.8550   31.4720 C   0  0  0  0  0  0  0  0  0  0  0  0
   35.8050   31.5600   32.5670 C   0  0  0  0  0  0  0  0  0  0  0  0
   35.4390   30.2540   32.7990 C   0  0  0  0  0  0  0  0  0  0  0  0
   37.6040   30.9300   29.7360 H   0  0  0  0  0  0  0  0  0  0  0  0
   36.9240   32.8460   31.2060 H   0  0  0  0  0  0  0  0  0  0  0  0
   35.4950   32.3640   33.2210 H   0  0  0  0  0  0  0  0  0  0  0  0
   34.6520   30.0280   33.9180 O   0  0  0  0  0  0  0  0  0  0  0  0
   32.8000   30.6040   35.1090 C   0  0  0  0  0  0  0  0  0  0  0  0
   33.2950   29.9540   33.9710 C   0  0  0  0  0  0  0  0  0  0  0  0
   32.3760   29.3700   33.1250 C   0  0  0  0  0  0  0  0  0  0  0  0
   32.8450   28.8950   32.2790 H   0  0  0  0  0  0  0  0  0  0  0  0
   31.0230   29.4300   33.3990 C   0  0  0  0  0  0  0  0  0  0  0  0
   30.4320   28.9280   32.6460 H   0  0  0  0  0  0  0  0  0  0  0  0
   30.5490   30.0740   34.5240 C   0  0  0  0  0  3  0  0  0  0  0  0
   31.4340   30.6660   35.3890 C   0  0  0  0  0  3  0  0  0  0  0  0
   34.7790   30.5580   36.7410 H   0  0  0  0  0  0  0  0  0  0  0  0
   33.7910   31.4140   36.3210 S   0  0  0  0  0  0  0  0  0  0  0  0
   32.9060   31.7840   37.4650 O   0  0  0  0  0  0  0  0  0  0  0  0
   34.4230   32.6640   35.7920 O   0  0  0  0  0  0  0  0  0  0  0  0
   38.6300   27.8100   30.5880 S   0  0  0  0  0  0  0  0  0  0  0  0
   37.1650   24.5560   32.4690 C   0  0  0  0  0  0  0  0  0  0  0  0
   38.2220   24.2440   33.3320 C   0  0  0  0  0  0  0  0  0  0  0  0
   39.3300   25.0550   33.2880 C   0  0  0  0  0  0  0  0  0  0  0  0
   39.3360   26.1010   32.4170 N   0  0  0  0  0  0  0  0  0  0  0  0
   38.3350   26.3610   31.6290 C   0  0  0  0  0  0  0  0  0  0  0  0
   37.1900   25.5930   31.6170 N   0  0  0  0  0  0  0  0  0  0  0  0
   36.2600   23.9560   32.4520 H   0  0  0  0  0  0  0  0  0  0  0  0
   40.1430   24.8190   33.9500 H   0  0  0  0  0  0  0  0  0  0  0  0
   38.0860   23.1720   34.1500 O   0  0  0  0  0  0  0  0  0  0  0  0
   38.3680   23.3000   35.5080 C   0  0  0  0  0  0  0  0  0  0  0  0
   37.6740   24.0480   36.4310 C   0  0  0  0  0  0  0  0  0  0  0  0
   38.1020   24.0490   37.7180 C   0  0  0  0  0  0  0  0  0  0  0  0
   39.2040   23.3130   38.0630 C   0  0  0  0  0  0  0  0  0  0  0  0
   39.8860   22.5650   37.1020 C   0  0  0  0  0  0  0  0  0  0  0  0
   39.4460   22.5740   35.8250 N   0  0  0  0  0  0  0  0  0  0  0  0
   36.8200   24.5840   36.0280 H   0  0  0  0  0  0  0  0  0  0  0  0
   37.5630   24.6300   38.4310 H   0  0  0  0  0  0  0  0  0  0  0  0
   39.5910   23.2750   39.0640 H   0  0  0  0  0  0  0  0  0  0  0  0
   41.1100   21.7490   37.4920 C   0  0  0  0  0  0  0  0  0  0  0  0
   42.0150   22.3860   37.4590 H   0  0  0  0  0  0  0  0  0  0  0  0
   41.2480   20.9980   36.6630 H   0  0  0  0  0  0  0  0  0  0  0  0
   40.9580   21.2220   38.4310 H   0  0  0  0  0  0  0  0  0  0  0  0
  1  3  1  0  0  0  0
  1 27  1  0  0  0  0
  1  6  1  0  0  0  0
  2  1  1  0  0  0  0
  5  4  1  0  0  0  0
  5 10  1  0  0  0  0
  6  5  2  0  0  0  0
  7  6  1  0  0  0  0
  7  8  2  0  0  0  0
  8  9  1  0  0  0  0
  9 10  2  0  0  0  0
  9 13  1  0  0  0  0
 10 14  1  0  0  0  0
 11  7  1  0  0  0  0
 12  8  1  0  0  0  0
 14 16  1  0  0  0  0
 15 22  1  0  0  0  0
 15 24  1  0  0  0  0
 16 15  2  0  0  0  0
 17 19  2  0  0  0  0
 17 16  1  0  0  0  0
 18 17  1  0  0  0  0
 19 21  1  0  0  0  0
 20 19  1  0  0  0  0
 21 22  2  0  0  0  0
 24 23  1  0  0  0  0
 24 25  2  0  0  0  0
 26 24  2  0  0  0  0
 27 32  1  0  0  0  0
 28 29  1  0  0  0  0
 29 36  1  0  0  0  0
 30 29  2  0  0  0  0
 30 35  1  0  0  0  0
 31 30  1  0  0  0  0
 32 31  2  0  0  0  0
 33 32  1  0  0  0  0
 33 28  2  0  0  0  0
 34 28  1  0  0  0  0
 36 37  1  0  0  0  0
 37 42  2  0  0  0  0
 37 38  1  0  0  0  0
 38 39  2  0  0  0  0
 39 40  1  0  0  0  0
 39 44  1  0  0  0  0
 40 45  1  0  0  0  0
 41 46  1  0  0  0  0
 41 40  2  0  0  0  0
 42 41  1  0  0  0  0
 43 38  1  0  0  0  0
 46 49  1  0  0  0  0
 47 46  1  0  0  0  0
 48 46  1  0  0  0  0
M  END
>  <minimizedAffinity>
-5.97287083

$$$$
