REMARK  Name = 
REMARK  7 active torsions:
REMARK  status: ('A' for Active; 'I' for Inactive)
REMARK    1  A    between atoms: C_1  and  O_8
REMARK    2  A    between atoms: C_2  and  N_7
REMARK    3  A    between atoms: O_8  and  P_10
REMARK    4  A    between atoms: P_10  and  O_11
REMARK    5  A    between atoms: P_10  and  O_12
REMARK    6  A    between atoms: O_12  and  C_23
REMARK    7  A    between atoms: S_19  and  C_22
REMARK                            x       y       z     vdW  Elec       q    Type
REMARK                         _______ _______ _______ _____ _____    ______ ____
ROOT
ATOM      1  O   UNL     1      35.518  30.099  46.541  0.00  0.00    +0.000 OA
ATOM      2  P   UNL     1      34.375  30.069  47.508  0.00  0.00    +0.000 P 
ENDROOT
BRANCH   2   3
ATOM      3  O   UNL     1      33.985  28.494  48.002  0.00  0.00    +0.000 OA
ATOM      4  H   UNL     1      33.223  28.559  48.615  0.00  0.00    +0.000 HD
ENDBRANCH   2   3
BRANCH   2   5
ATOM      5  O   UNL     1      34.738  30.938  48.957  0.00  0.00    +0.000 OA
BRANCH   5   6
ATOM      6  C   UNL     1      35.950  30.800  49.617  0.00  0.00    +0.000 A 
ATOM      7  C   UNL     1      36.225  29.906  50.640  0.00  0.00    +0.000 A 
ATOM      8  C   UNL     1      37.488  29.890  51.199  0.00  0.00    +0.000 A 
ATOM      9  N   UNL     1      38.434  30.756  50.727  0.00  0.00    +0.000 NA
ATOM     10  C   UNL     1      38.133  31.628  49.714  0.00  0.00    +0.000 A 
ATOM     11  N   UNL     1      36.889  31.643  49.164  0.00  0.00    +0.000 NA
ATOM     12  H   UNL     1      37.648  29.184  51.982  0.00  0.00    +0.000 HD
ATOM     13  H   UNL     1      38.901  32.307  49.355  0.00  0.00    +0.000 HD
BRANCH   7  14
ATOM     14  N   UNL     1      35.149  29.079  51.017  0.00  0.00    +0.000 N 
ATOM     15  H   UNL     1      35.337  28.105  51.312  0.00  0.00    +0.000 HD
ATOM     16  H   UNL     1      34.160  29.425  51.007  0.00  0.00    +0.000 HD
ENDBRANCH   7  14
ENDBRANCH   5   6
ENDBRANCH   2   5
BRANCH   2  17
ATOM     17  O   UNL     1      33.083  30.819  46.726  0.00  0.00    +0.000 OA
BRANCH  17  19
ATOM     18  C   UNL     1      31.379  30.888  45.148  0.00  0.00    +0.000 A 
ATOM     19  C   UNL     1      32.428  30.145  45.703  0.00  0.00    +0.000 A 
ATOM     20  C   UNL     1      32.718  28.883  45.227  0.00  0.00    +0.000 A 
ATOM     21  H   UNL     1      33.543  28.375  45.709  0.00  0.00    +0.000 HD
ATOM     22  C   UNL     1      31.988  28.322  44.199  0.00  0.00    +0.000 A 
ATOM     23  H   UNL     1      32.250  27.327  43.856  0.00  0.00    +0.000 HD
ATOM     24  C   UNL     1      30.934  29.045  43.628  0.00  0.00    +0.000 A 
ATOM     25  C   UNL     1      30.659  30.305  44.117  0.00  0.00    +0.000 A 
BRANCH  18  27
ATOM     26  H   UNL     1      31.856  33.060  46.471  0.00  0.00    +0.000 HD
ATOM     27  S   UNL     1      30.921  32.481  45.661  0.00  0.00    +0.000 S 
ATOM     28  O   UNL     1      29.606  32.481  46.391  0.00  0.00    +0.000 OA
ATOM     29  O   UNL     1      30.734  33.405  44.466  0.00  0.00    +0.000 OA
ENDBRANCH  18  27
ENDBRANCH  17  19
ENDBRANCH   2  17
TORSDOF 7
