
 OpenBabel03272505023D

 32 34  0  0  0  0  0  0  0  0999 V2000
   37.0820   30.8590   46.4240 Cl  0  0  0  0  0  0  0  0  0  0  0  0
   38.0580   31.9800   47.3710 C   0  0  0  0  0  0  0  0  0  0  0  0
   37.9850   31.9050   48.7290 C   0  0  0  0  0  0  0  0  0  0  0  0
   38.7650   32.8320   49.4050 C   0  0  0  0  0  0  0  0  0  0  0  0
   39.5460   33.7460   48.7230 C   0  0  0  0  0  0  0  0  0  0  0  0
   39.5750   33.7680   47.3510 C   0  0  0  0  0  0  0  0  0  0  0  0
   38.8050   32.8530   46.6460 C   0  0  0  0  0  0  0  0  0  0  0  0
   38.7630   32.8410   50.4900 H   0  0  0  0  0  0  0  0  0  0  0  0
   40.1320   34.4420   49.3130 H   0  0  0  0  0  0  0  0  0  0  0  0
   40.1950   34.4950   46.8430 H   0  0  0  0  0  0  0  0  0  0  0  0
   37.7740   29.9090   50.2050 C   0  0  0  0  0  0  0  0  0  0  0  0
   37.1640   30.9420   49.4740 C   0  0  0  0  0  0  0  0  0  0  0  0
   35.7720   31.0570   49.4540 C   0  0  0  0  0  0  0  0  0  0  0  0
   35.0840   30.1210   50.1730 N   0  0  0  0  0  0  0  0  0  0  0  0
   35.6580   29.1440   50.8630 C   0  0  0  0  0  0  0  0  0  0  0  0
   36.9970   29.0340   50.8830 N   0  0  0  0  0  0  0  0  0  0  0  0
   38.8560   29.8970   50.1640 H   0  0  0  0  0  0  0  0  0  0  0  0
   35.3090   31.8500   48.8930 H   0  0  0  0  0  0  0  0  0  0  0  0
   35.0800   28.4180   51.4230 H   0  0  0  0  0  0  0  0  0  0  0  0
   38.8570   32.9030   45.2750 O   0  0  0  0  0  0  0  0  0  0  0  0
   38.6160   31.7000   43.3710 C   0  0  0  0  0  0  0  0  0  0  0  0
   39.4360   31.9420   44.4820 C   0  0  0  0  0  0  0  0  0  0  0  0
   40.5980   31.2150   44.5700 C   0  0  0  0  0  0  0  0  0  0  0  0
   41.1710   31.4710   45.4460 H   0  0  0  0  0  0  0  0  0  0  0  0
   40.9370   30.2910   43.6060 C   0  0  0  0  0  0  0  0  0  0  0  0
   41.8640   29.7710   43.7600 H   0  0  0  0  0  0  0  0  0  0  0  0
   40.1360   30.0500   42.5170 C   0  0  0  0  0  3  0  0  0  0  0  0
   38.9660   30.7640   42.4020 C   0  0  0  0  0  3  0  0  0  0  0  0
   36.8840   33.5160   43.8930 H   0  0  0  0  0  0  0  0  0  0  0  0
   37.0830   32.4910   43.0210 S   0  0  0  0  0  0  0  0  0  0  0  0
   35.9270   31.5410   43.1630 O   0  0  0  0  0  0  0  0  0  0  0  0
   37.1190   32.9950   41.6140 O   0  0  0  0  0  0  0  0  0  0  0  0
  1  2  1  0  0  0  0
  2  3  1  0  0  0  0
  3  4  2  0  0  0  0
  3 12  1  0  0  0  0
  4  8  1  0  0  0  0
  5  9  1  0  0  0  0
  5  4  1  0  0  0  0
  6  5  2  0  0  0  0
  7  6  1  0  0  0  0
  7  2  2  0  0  0  0
 10  6  1  0  0  0  0
 11 16  1  0  0  0  0
 12 11  2  0  0  0  0
 13 12  1  0  0  0  0
 13 14  2  0  0  0  0
 14 15  1  0  0  0  0
 15 16  2  0  0  0  0
 15 19  1  0  0  0  0
 17 11  1  0  0  0  0
 18 13  1  0  0  0  0
 20  7  1  0  0  0  0
 21 22  1  0  0  0  0
 22 23  2  0  0  0  0
 22 20  1  0  0  0  0
 23 24  1  0  0  0  0
 25 26  1  0  0  0  0
 25 23  1  0  0  0  0
 27 25  2  0  0  0  0
 28 27  1  0  0  0  0
 28 21  2  0  0  0  0
 30 31  2  0  0  0  0
 30 21  1  0  0  0  0
 30 29  1  0  0  0  0
 32 30  2  0  0  0  0
M  END
>  <minimizedAffinity>
-5.27393198

>  <minimizedRMSD>
1.72827673

$$$$
