
 OpenBabel03272503573D

 37 40  0  0  0  0  0  0  0  0999 V2000
   36.3610   27.6490   31.6900 C   0  0  0  0  0  0  0  0  0  0  0  0
   35.6420   28.6890   32.2810 C   0  0  0  0  0  0  0  0  0  0  0  0
   35.7730   28.8250   33.6390 C   0  0  0  0  0  0  0  0  0  0  0  0
   36.5740   27.9620   34.2800 N   0  0  0  0  0  0  0  0  0  0  0  0
   37.2660   26.9730   33.7510 C   0  0  0  0  0  0  0  0  0  0  0  0
   37.1080   26.8780   32.4490 N   0  0  0  0  0  0  0  0  0  0  0  0
   35.0650   29.3400   31.6730 H   0  0  0  0  0  0  0  0  0  0  0  0
   38.1750   25.9840   34.3200 C   0  0  0  0  0  0  0  0  0  0  0  0
   37.7330   24.8520   34.9180 N   0  0  0  0  0  0  0  0  0  0  0  0
   38.5760   23.9430   35.4190 C   0  0  0  0  0  0  0  0  0  0  0  0
   39.9110   24.0550   35.3820 N   0  0  0  0  0  0  0  0  0  0  0  0
   40.4200   25.1650   34.7990 C   0  0  0  0  0  0  0  0  0  0  0  0
   41.7860   25.3050   34.7490 C   0  0  0  0  0  0  0  0  0  0  0  0
   42.3560   26.4060   34.1720 C   0  0  0  0  0  0  0  0  0  0  0  0
   41.4940   27.3410   33.6570 C   0  0  0  0  0  0  0  0  0  0  0  0
   40.1300   27.1700   33.7240 C   0  0  0  0  0  0  0  0  0  0  0  0
   39.5380   26.0810   34.2930 C   0  0  0  0  0  0  0  0  0  0  0  0
   38.2200   23.0160   35.9080 H   0  0  0  0  0  0  0  0  0  0  0  0
   42.4100   24.5220   35.1780 H   0  0  0  0  0  0  0  0  0  0  0  0
   43.4310   26.4490   34.1690 H   0  0  0  0  0  0  0  0  0  0  0  0
   41.9880   28.2130   33.2020 H   0  0  0  0  0  0  0  0  0  0  0  0
   39.6010   27.9970   33.2800 H   0  0  0  0  0  0  0  0  0  0  0  0
   33.8710   30.1860   34.6580 C   0  0  0  0  0  0  0  0  0  0  0  0
   35.1800   29.8560   34.4650 C   0  0  0  0  0  0  0  0  0  0  0  0
   36.0550   30.6380   35.2330 C   0  0  0  0  0  0  0  0  0  0  0  0
   37.1400   30.4470   35.1500 H   0  0  0  0  0  0  0  0  0  0  0  0
   35.7320   31.6380   36.0990 C   0  0  0  0  0  0  0  0  0  0  0  0
   36.4650   32.1870   36.6470 H   0  0  0  0  0  0  0  0  0  0  0  0
   34.4030   31.9460   36.2650 C   0  0  0  0  0  3  0  0  0  0  0  0
   33.5010   31.2090   35.5380 C   0  0  0  0  0  3  0  0  0  0  0  0
   33.1310   28.0920   33.4420 H   0  0  0  0  0  0  0  0  0  0  0  0
   32.5940   29.3080   33.9050 S   0  0  0  0  0  0  0  0  0  0  0  0
   32.0340   29.9880   32.6790 O   0  0  0  0  0  0  0  0  0  0  0  0
   31.5500   28.9250   34.8950 O   0  0  0  0  0  0  0  0  0  0  0  0
   36.3080   27.4010   30.2600 N   0  0  0  0  0  0  0  0  0  0  0  0
   36.0350   26.5630   29.7260 H   0  0  0  0  0  0  0  0  0  0  0  0
   36.6180   28.2820   29.8070 H   0  0  0  0  0  0  0  0  0  0  0  0
  1  2  2  0  0  0  0
  1  6  1  0  0  0  0
  2  3  1  0  0  0  0
  3  4  2  0  0  0  0
  3 24  1  0  0  0  0
  5  4  1  0  0  0  0
  5  8  1  0  0  0  0
  6  5  2  0  0  0  0
  7  2  1  0  0  0  0
  8  9  1  0  0  0  0
  9 10  2  0  0  0  0
 10 18  1  0  0  0  0
 11 10  1  0  0  0  0
 12 11  2  0  0  0  0
 13 12  1  0  0  0  0
 13 19  1  0  0  0  0
 14 13  2  0  0  0  0
 15 16  2  0  0  0  0
 15 14  1  0  0  0  0
 16 17  1  0  0  0  0
 17  8  2  0  0  0  0
 17 12  1  0  0  0  0
 20 14  1  0  0  0  0
 21 15  1  0  0  0  0
 22 16  1  0  0  0  0
 23 30  1  0  0  0  0
 24 23  2  0  0  0  0
 24 25  1  0  0  0  0
 25 27  2  0  0  0  0
 26 25  1  0  0  0  0
 27 29  1  0  0  0  0
 27 28  1  0  0  0  0
 30 29  2  0  0  0  0
 31 32  1  0  0  0  0
 32 23  1  0  0  0  0
 32 34  2  0  0  0  0
 33 32  2  0  0  0  0
 35  1  1  0  0  0  0
 36 35  1  0  0  0  0
 37 35  1  0  0  0  0
M  END
>  <minimizedAffinity>
-6.51396084

$$$$

 OpenBabel03272503573D

 37 40  0  0  0  0  0  0  0  0999 V2000
   36.2400   29.2110   31.2710 C   0  0  0  0  0  0  0  0  0  0  0  0
   37.2290   28.2880   31.6140 C   0  0  0  0  0  0  0  0  0  0  0  0
   37.1810   27.7910   32.8910 C   0  0  0  0  0  0  0  0  0  0  0  0
   36.1970   28.2210   33.6940 N   0  0  0  0  0  0  0  0  0  0  0  0
   35.2500   29.0880   33.3990 C   0  0  0  0  0  0  0  0  0  0  0  0
   35.3370   29.5400   32.1680 N   0  0  0  0  0  0  0  0  0  0  0  0
   37.9410   27.9870   30.8860 H   0  0  0  0  0  0  0  0  0  0  0  0
   34.1260   29.6250   34.1590 C   0  0  0  0  0  0  0  0  0  0  0  0
   32.8570   29.1840   33.9850 N   0  0  0  0  0  0  0  0  0  0  0  0
   31.8380   29.6700   34.7000 C   0  0  0  0  0  0  0  0  0  0  0  0
   31.9610   30.6190   35.6380 N   0  0  0  0  0  0  0  0  0  0  0  0
   33.2040   31.1050   35.8620 C   0  0  0  0  0  0  0  0  0  0  0  0
   33.3590   32.0790   36.8170 C   0  0  0  0  0  0  0  0  0  0  0  0
   34.5920   32.6080   37.0860 C   0  0  0  0  0  0  0  0  0  0  0  0
   35.6410   32.1130   36.3540 C   0  0  0  0  0  0  0  0  0  0  0  0
   35.4510   31.1350   35.4020 C   0  0  0  0  0  0  0  0  0  0  0  0
   34.2330   30.5920   35.1180 C   0  0  0  0  0  0  0  0  0  0  0  0
   30.7990   29.3130   34.5620 H   0  0  0  0  0  0  0  0  0  0  0  0
   32.4810   32.4260   37.3600 H   0  0  0  0  0  0  0  0  0  0  0  0
   34.6380   33.3670   37.8460 H   0  0  0  0  0  0  0  0  0  0  0  0
   36.6170   32.5610   36.5950 H   0  0  0  0  0  0  0  0  0  0  0  0
   36.3740   30.8640   34.9180 H   0  0  0  0  0  0  0  0  0  0  0  0
   38.0880   25.4350   33.2640 C   0  0  0  0  0  0  0  0  0  0  0  0
   38.0540   26.7840   33.4590 C   0  0  0  0  0  0  0  0  0  0  0  0
   39.0620   27.2330   34.3260 C   0  0  0  0  0  0  0  0  0  0  0  0
   39.1220   28.3140   34.5470 H   0  0  0  0  0  0  0  0  0  0  0  0
   40.0130   26.4850   34.9520 C   0  0  0  0  0  0  0  0  0  0  0  0
   40.7470   26.9080   35.6000 H   0  0  0  0  0  0  0  0  0  0  0  0
   40.0140   25.1280   34.7350 C   0  0  0  0  0  3  0  0  0  0  0  0
   39.0490   24.6340   33.8930 C   0  0  0  0  0  3  0  0  0  0  0  0
   35.7590   25.2690   32.2850 H   0  0  0  0  0  0  0  0  0  0  0  0
   37.0180   24.6500   32.1660 S   0  0  0  0  0  0  0  0  0  0  0  0
   36.7780   23.1960   32.4920 O   0  0  0  0  0  0  0  0  0  0  0  0
   37.4350   24.8770   30.7560 O   0  0  0  0  0  0  0  0  0  0  0  0
   36.1800   29.8090   29.9490 N   0  0  0  0  0  0  0  0  0  0  0  0
   36.2020   30.7950   29.6480 H   0  0  0  0  0  0  0  0  0  0  0  0
   36.1040   29.0180   29.2810 H   0  0  0  0  0  0  0  0  0  0  0  0
  1  2  2  0  0  0  0
  1  6  1  0  0  0  0
  2  3  1  0  0  0  0
  3 24  1  0  0  0  0
  3  4  2  0  0  0  0
  5  4  1  0  0  0  0
  5  8  1  0  0  0  0
  6  5  2  0  0  0  0
  7  2  1  0  0  0  0
  8 17  1  0  0  0  0
  9  8  2  0  0  0  0
  9 10  1  0  0  0  0
 10 11  2  0  0  0  0
 11 12  1  0  0  0  0
 12 13  1  0  0  0  0
 13 14  2  0  0  0  0
 13 19  1  0  0  0  0
 14 20  1  0  0  0  0
 15 21  1  0  0  0  0
 15 14  1  0  0  0  0
 16 15  2  0  0  0  0
 17 16  1  0  0  0  0
 17 12  2  0  0  0  0
 18 10  1  0  0  0  0
 22 16  1  0  0  0  0
 23 24  2  0  0  0  0
 23 30  1  0  0  0  0
 24 25  1  0  0  0  0
 25 26  1  0  0  0  0
 25 27  2  0  0  0  0
 27 28  1  0  0  0  0
 29 27  1  0  0  0  0
 30 29  2  0  0  0  0
 32 31  1  0  0  0  0
 32 33  2  0  0  0  0
 32 23  1  0  0  0  0
 34 32  2  0  0  0  0
 35  1  1  0  0  0  0
 36 35  1  0  0  0  0
 37 35  1  0  0  0  0
M  END
>  <minimizedAffinity>
-6.3745532

$$$$

 OpenBabel03272503573D

 37 40  0  0  0  0  0  0  0  0999 V2000
   36.2020   29.7460   30.4580 C   0  0  0  0  0  0  0  0  0  0  0  0
   36.6380   28.4200   30.4840 C   0  0  0  0  0  0  0  0  0  0  0  0
   36.1280   27.6310   31.4830 C   0  0  0  0  0  0  0  0  0  0  0  0
   35.2610   28.1890   32.3410 N   0  0  0  0  0  0  0  0  0  0  0  0
   34.8310   29.4340   32.3420 C   0  0  0  0  0  0  0  0  0  0  0  0
   35.3460   30.1530   31.3690 N   0  0  0  0  0  0  0  0  0  0  0  0
   37.2990   28.0700   29.7310 H   0  0  0  0  0  0  0  0  0  0  0  0
   33.8910   30.1580   33.1910 C   0  0  0  0  0  0  0  0  0  0  0  0
   32.5700   30.2410   32.9030 N   0  0  0  0  0  0  0  0  0  0  0  0
   31.7150   30.8910   33.6980 C   0  0  0  0  0  0  0  0  0  0  0  0
   32.0650   31.5110   34.8330 N   0  0  0  0  0  0  0  0  0  0  0  0
   33.3730   31.4670   35.1800 C   0  0  0  0  0  0  0  0  0  0  0  0
   33.7600   32.0960   36.3380 C   0  0  0  0  0  0  0  0  0  0  0  0
   35.0680   32.0850   36.7380 C   0  0  0  0  0  0  0  0  0  0  0  0
   35.9490   31.4200   35.9240 C   0  0  0  0  0  0  0  0  0  0  0  0
   35.5280   30.8000   34.7690 C   0  0  0  0  0  0  0  0  0  0  0  0
   34.2300   30.7960   34.3500 C   0  0  0  0  0  0  0  0  0  0  0  0
   30.6340   30.9620   33.4680 H   0  0  0  0  0  0  0  0  0  0  0  0
   33.0050   32.6060   36.9360 H   0  0  0  0  0  0  0  0  0  0  0  0
   35.2980   32.5970   37.6550 H   0  0  0  0  0  0  0  0  0  0  0  0
   36.9920   31.4320   36.2760 H   0  0  0  0  0  0  0  0  0  0  0  0
   36.3450   30.3300   34.2460 H   0  0  0  0  0  0  0  0  0  0  0  0
   37.3500   25.5890   32.4040 C   0  0  0  0  0  0  0  0  0  0  0  0
   36.3790   26.2180   31.6820 C   0  0  0  0  0  0  0  0  0  0  0  0
   35.4830   25.3220   31.0810 C   0  0  0  0  0  0  0  0  0  0  0  0
   34.6570   25.7340   30.4750 H   0  0  0  0  0  0  0  0  0  0  0  0
   35.4970   23.9620   31.1500 C   0  0  0  0  0  0  0  0  0  0  0  0
   34.7720   23.3510   30.6600 H   0  0  0  0  0  0  0  0  0  0  0  0
   36.4910   23.3620   31.8850 C   0  0  0  0  0  3  0  0  0  0  0  0
   37.3970   24.1930   32.4960 C   0  0  0  0  0  3  0  0  0  0  0  0
   39.3250   25.5330   33.9870 H   0  0  0  0  0  0  0  0  0  0  0  0
   38.5140   26.4700   33.3190 S   0  0  0  0  0  0  0  0  0  0  0  0
   37.9080   27.3200   34.4100 O   0  0  0  0  0  0  0  0  0  0  0  0
   39.4370   27.2240   32.4280 O   0  0  0  0  0  0  0  0  0  0  0  0
   36.6660   30.6810   29.4490 N   0  0  0  0  0  0  0  0  0  0  0  0
   37.1470   31.5890   29.5350 H   0  0  0  0  0  0  0  0  0  0  0  0
   36.4150   30.2600   28.5340 H   0  0  0  0  0  0  0  0  0  0  0  0
  1  2  2  0  0  0  0
  1  6  1  0  0  0  0
  2  3  1  0  0  0  0
  3 24  1  0  0  0  0
  3  4  2  0  0  0  0
  4  5  1  0  0  0  0
  5  8  1  0  0  0  0
  6  5  2  0  0  0  0
  7  2  1  0  0  0  0
  8 17  1  0  0  0  0
  9  8  2  0  0  0  0
  9 10  1  0  0  0  0
 10 11  2  0  0  0  0
 11 12  1  0  0  0  0
 12 13  1  0  0  0  0
 13 14  2  0  0  0  0
 13 19  1  0  0  0  0
 14 20  1  0  0  0  0
 15 21  1  0  0  0  0
 15 14  1  0  0  0  0
 16 15  2  0  0  0  0
 17 16  1  0  0  0  0
 17 12  2  0  0  0  0
 18 10  1  0  0  0  0
 22 16  1  0  0  0  0
 23 30  1  0  0  0  0
 23 32  1  0  0  0  0
 24 23  2  0  0  0  0
 25 27  2  0  0  0  0
 25 24  1  0  0  0  0
 26 25  1  0  0  0  0
 27 29  1  0  0  0  0
 28 27  1  0  0  0  0
 29 30  2  0  0  0  0
 32 31  1  0  0  0  0
 32 33  2  0  0  0  0
 34 32  2  0  0  0  0
 35 36  1  0  0  0  0
 35  1  1  0  0  0  0
 37 35  1  0  0  0  0
M  END
>  <minimizedAffinity>
-6.37246466

$$$$

 OpenBabel03272503573D

 37 40  0  0  0  0  0  0  0  0999 V2000
   36.4270   29.7420   31.0750 C   0  0  0  0  0  0  0  0  0  0  0  0
   35.7110   30.4760   32.0220 C   0  0  0  0  0  0  0  0  0  0  0  0
   35.5860   29.9080   33.2640 C   0  0  0  0  0  0  0  0  0  0  0  0
   36.1570   28.7120   33.4670 N   0  0  0  0  0  0  0  0  0  0  0  0
   36.8380   27.9970   32.5960 C   0  0  0  0  0  0  0  0  0  0  0  0
   36.9310   28.5770   31.4190 N   0  0  0  0  0  0  0  0  0  0  0  0
   35.3320   31.4340   31.7670 H   0  0  0  0  0  0  0  0  0  0  0  0
   37.5170   26.7080   32.6850 C   0  0  0  0  0  0  0  0  0  0  0  0
   38.7320   26.5680   33.2660 N   0  0  0  0  0  0  0  0  0  0  0  0
   39.3370   25.3800   33.3590 C   0  0  0  0  0  0  0  0  0  0  0  0
   38.8170   24.2330   32.9000 N   0  0  0  0  0  0  0  0  0  0  0  0
   37.6030   24.3030   32.3060 C   0  0  0  0  0  0  0  0  0  0  0  0
   37.0470   23.1420   31.8250 C   0  0  0  0  0  0  0  0  0  0  0  0
   35.8230   23.1510   31.2150 C   0  0  0  0  0  0  0  0  0  0  0  0
   35.2000   24.3690   31.1170 C   0  0  0  0  0  0  0  0  0  0  0  0
   35.7850   25.5150   31.6090 C   0  0  0  0  0  0  0  0  0  0  0  0
   37.0030   25.5300   32.2220 C   0  0  0  0  0  0  0  0  0  0  0  0
   40.3300   25.2590   33.8330 H   0  0  0  0  0  0  0  0  0  0  0  0
   37.6000   22.2100   31.9380 H   0  0  0  0  0  0  0  0  0  0  0  0
   35.4510   22.2060   30.8630 H   0  0  0  0  0  0  0  0  0  0  0  0
   34.2180   24.3400   30.6200 H   0  0  0  0  0  0  0  0  0  0  0  0
   35.1670   26.3820   31.4460 H   0  0  0  0  0  0  0  0  0  0  0  0
   33.6560   30.4100   34.8560 C   0  0  0  0  0  0  0  0  0  0  0  0
   34.9460   30.4980   34.4230 C   0  0  0  0  0  0  0  0  0  0  0  0
   35.7570   31.2570   35.2800 C   0  0  0  0  0  0  0  0  0  0  0  0
   36.8210   31.3860   35.0170 H   0  0  0  0  0  0  0  0  0  0  0  0
   35.3900   31.8780   36.4350 C   0  0  0  0  0  0  0  0  0  0  0  0
   36.0740   32.4400   37.0310 H   0  0  0  0  0  0  0  0  0  0  0  0
   34.0810   31.7710   36.8390 C   0  0  0  0  0  3  0  0  0  0  0  0
   33.2430   31.0370   36.0370 C   0  0  0  0  0  3  0  0  0  0  0  0
   33.0460   28.1770   33.8320 H   0  0  0  0  0  0  0  0  0  0  0  0
   32.4850   29.4520   34.0330 S   0  0  0  0  0  0  0  0  0  0  0  0
   32.1510   29.9620   32.6510 O   0  0  0  0  0  0  0  0  0  0  0  0
   31.2850   29.2230   34.8820 O   0  0  0  0  0  0  0  0  0  0  0  0
   36.6330   30.2340   29.7240 N   0  0  0  0  0  0  0  0  0  0  0  0
   36.3890   29.8270   28.8090 H   0  0  0  0  0  0  0  0  0  0  0  0
   37.1110   31.1500   29.8250 H   0  0  0  0  0  0  0  0  0  0  0  0
  1  6  2  0  0  0  0
  1  2  1  0  0  0  0
  2  3  2  0  0  0  0
  3  4  1  0  0  0  0
  3 24  1  0  0  0  0
  5  8  1  0  0  0  0
  5  4  2  0  0  0  0
  6  5  1  0  0  0  0
  7  2  1  0  0  0  0
  8  9  1  0  0  0  0
  9 10  2  0  0  0  0
 10 18  1  0  0  0  0
 11 10  1  0  0  0  0
 12 11  2  0  0  0  0
 13 19  1  0  0  0  0
 13 12  1  0  0  0  0
 14 13  2  0  0  0  0
 15 14  1  0  0  0  0
 15 16  2  0  0  0  0
 16 17  1  0  0  0  0
 17 12  1  0  0  0  0
 17  8  2  0  0  0  0
 20 14  1  0  0  0  0
 21 15  1  0  0  0  0
 22 16  1  0  0  0  0
 23 30  1  0  0  0  0
 24 23  2  0  0  0  0
 24 25  1  0  0  0  0
 25 27  2  0  0  0  0
 26 25  1  0  0  0  0
 27 29  1  0  0  0  0
 27 28  1  0  0  0  0
 30 29  2  0  0  0  0
 31 32  1  0  0  0  0
 32 23  1  0  0  0  0
 32 34  2  0  0  0  0
 33 32  2  0  0  0  0
 35 37  1  0  0  0  0
 35  1  1  0  0  0  0
 36 35  1  0  0  0  0
M  END
>  <minimizedAffinity>
-6.3360548

$$$$

 OpenBabel03272503573D

 37 40  0  0  0  0  0  0  0  0999 V2000
   36.0100   29.9510   31.3060 C   0  0  0  0  0  0  0  0  0  0  0  0
   35.3780   30.6950   32.3040 C   0  0  0  0  0  0  0  0  0  0  0  0
   35.1880   30.0630   33.5060 C   0  0  0  0  0  0  0  0  0  0  0  0
   35.6230   28.8000   33.6250 N   0  0  0  0  0  0  0  0  0  0  0  0
   36.2220   28.0730   32.7040 C   0  0  0  0  0  0  0  0  0  0  0  0
   36.3810   28.7170   31.5690 N   0  0  0  0  0  0  0  0  0  0  0  0
   35.1080   31.7040   32.1150 H   0  0  0  0  0  0  0  0  0  0  0  0
   36.7530   26.7140   32.7040 C   0  0  0  0  0  0  0  0  0  0  0  0
   36.2040   25.7220   31.9630 N   0  0  0  0  0  0  0  0  0  0  0  0
   36.7110   24.4850   31.9560 C   0  0  0  0  0  0  0  0  0  0  0  0
   37.7850   24.1080   32.6620 N   0  0  0  0  0  0  0  0  0  0  0  0
   38.3820   25.0520   33.4250 C   0  0  0  0  0  0  0  0  0  0  0  0
   39.4860   24.6920   34.1600 C   0  0  0  0  0  0  0  0  0  0  0  0
   40.1290   25.6040   34.9510 C   0  0  0  0  0  0  0  0  0  0  0  0
   39.6120   26.8740   34.9620 C   0  0  0  0  0  0  0  0  0  0  0  0
   38.5040   27.2030   34.2130 C   0  0  0  0  0  0  0  0  0  0  0  0
   37.8460   26.3120   33.4170 C   0  0  0  0  0  0  0  0  0  0  0  0
   36.2670   23.6700   31.3520 H   0  0  0  0  0  0  0  0  0  0  0  0
   39.8410   23.6630   34.1040 H   0  0  0  0  0  0  0  0  0  0  0  0
   40.9850   25.2510   35.4980 H   0  0  0  0  0  0  0  0  0  0  0  0
   40.1540   27.5810   35.6090 H   0  0  0  0  0  0  0  0  0  0  0  0
   38.2270   28.2360   34.3400 H   0  0  0  0  0  0  0  0  0  0  0  0
   33.3650   30.5130   35.2340 C   0  0  0  0  0  0  0  0  0  0  0  0
   34.6150   30.6410   34.7050 C   0  0  0  0  0  0  0  0  0  0  0  0
   35.4600   31.4360   35.4940 C   0  0  0  0  0  0  0  0  0  0  0  0
   36.4970   31.5990   35.1520 H   0  0  0  0  0  0  0  0  0  0  0  0
   35.1580   32.0550   36.6690 C   0  0  0  0  0  0  0  0  0  0  0  0
   35.8640   32.6460   37.2090 H   0  0  0  0  0  0  0  0  0  0  0  0
   33.8870   31.9070   37.1700 C   0  0  0  0  0  3  0  0  0  0  0  0
   33.0180   31.1360   36.4380 C   0  0  0  0  0  3  0  0  0  0  0  0
   32.7860   28.2830   34.1840 H   0  0  0  0  0  0  0  0  0  0  0  0
   32.1710   29.5070   34.5060 S   0  0  0  0  0  0  0  0  0  0  0  0
   31.6450   30.0440   33.1960 O   0  0  0  0  0  0  0  0  0  0  0  0
   31.0960   29.1630   35.4750 O   0  0  0  0  0  0  0  0  0  0  0  0
   36.2710   30.5070   29.9900 N   0  0  0  0  0  0  0  0  0  0  0  0
   35.9860   30.1910   29.0510 H   0  0  0  0  0  0  0  0  0  0  0  0
   36.8480   31.3550   30.1490 H   0  0  0  0  0  0  0  0  0  0  0  0
  1  6  2  0  0  0  0
  1  2  1  0  0  0  0
  2  3  2  0  0  0  0
  3  4  1  0  0  0  0
  3 24  1  0  0  0  0
  5  8  1  0  0  0  0
  5  4  2  0  0  0  0
  6  5  1  0  0  0  0
  7  2  1  0  0  0  0
  8 17  1  0  0  0  0
  9  8  2  0  0  0  0
 10  9  1  0  0  0  0
 10 11  2  0  0  0  0
 11 12  1  0  0  0  0
 12 13  1  0  0  0  0
 13 14  2  0  0  0  0
 14 15  1  0  0  0  0
 14 20  1  0  0  0  0
 15 21  1  0  0  0  0
 16 22  1  0  0  0  0
 16 15  2  0  0  0  0
 17 12  2  0  0  0  0
 17 16  1  0  0  0  0
 18 10  1  0  0  0  0
 19 13  1  0  0  0  0
 23 30  1  0  0  0  0
 24 23  2  0  0  0  0
 24 25  1  0  0  0  0
 25 27  2  0  0  0  0
 26 25  1  0  0  0  0
 27 29  1  0  0  0  0
 27 28  1  0  0  0  0
 30 29  2  0  0  0  0
 31 32  1  0  0  0  0
 32 23  1  0  0  0  0
 32 34  2  0  0  0  0
 33 32  2  0  0  0  0
 35 37  1  0  0  0  0
 35  1  1  0  0  0  0
 36 35  1  0  0  0  0
M  END
>  <minimizedAffinity>
-6.33384943

$$$$

 OpenBabel03272503573D

 37 40  0  0  0  0  0  0  0  0999 V2000
   36.0010   29.5920   31.7830 C   0  0  0  0  0  0  0  0  0  0  0  0
   36.6010   28.3360   31.8930 C   0  0  0  0  0  0  0  0  0  0  0  0
   36.7040   27.8200   33.1600 C   0  0  0  0  0  0  0  0  0  0  0  0
   36.2240   28.5520   34.1750 N   0  0  0  0  0  0  0  0  0  0  0  0
   35.6530   29.7370   34.1030 C   0  0  0  0  0  0  0  0  0  0  0  0
   35.5770   30.1940   32.8720 N   0  0  0  0  0  0  0  0  0  0  0  0
   36.9130   27.8250   31.0170 H   0  0  0  0  0  0  0  0  0  0  0  0
   35.0790   30.6240   35.1090 C   0  0  0  0  0  0  0  0  0  0  0  0
   35.7830   31.6380   35.6680 N   0  0  0  0  0  0  0  0  0  0  0  0
   35.2420   32.4560   36.5760 C   0  0  0  0  0  0  0  0  0  0  0  0
   33.9790   32.3620   37.0150 N   0  0  0  0  0  0  0  0  0  0  0  0
   33.2200   31.3690   36.4970 C   0  0  0  0  0  0  0  0  0  0  0  0
   31.9220   31.2500   36.9310 C   0  0  0  0  0  0  0  0  0  0  0  0
   31.1080   30.2640   36.4430 C   0  0  0  0  0  0  0  0  0  0  0  0
   31.6600   29.4220   35.5120 C   0  0  0  0  0  0  0  0  0  0  0  0
   32.9650   29.5690   35.0980 C   0  0  0  0  0  0  0  0  0  0  0  0
   33.7950   30.5430   35.5700 C   0  0  0  0  0  0  0  0  0  0  0  0
   35.8120   33.2860   37.0360 H   0  0  0  0  0  0  0  0  0  0  0  0
   31.5500   31.9540   37.6740 H   0  0  0  0  0  0  0  0  0  0  0  0
   30.1040   30.2310   36.8280 H   0  0  0  0  0  0  0  0  0  0  0  0
   30.9780   28.6420   35.1420 H   0  0  0  0  0  0  0  0  0  0  0  0
   33.2410   28.8240   34.3710 H   0  0  0  0  0  0  0  0  0  0  0  0
   37.2040   25.3380   32.8410 C   0  0  0  0  0  0  0  0  0  0  0  0
   37.2290   26.5190   33.5220 C   0  0  0  0  0  0  0  0  0  0  0  0
   37.9100   26.4270   34.7450 C   0  0  0  0  0  0  0  0  0  0  0  0
   37.9890   27.3320   35.3720 H   0  0  0  0  0  0  0  0  0  0  0  0
   38.5100   25.3270   35.2800 C   0  0  0  0  0  0  0  0  0  0  0  0
   39.0100   25.3430   36.2230 H   0  0  0  0  0  0  0  0  0  0  0  0
   38.4620   24.1530   34.5670 C   0  0  0  0  0  3  0  0  0  0  0  0
   37.8080   24.1870   33.3610 C   0  0  0  0  0  3  0  0  0  0  0  0
   36.8680   26.3730   30.5550 H   0  0  0  0  0  0  0  0  0  0  0  0
   36.5130   25.2130   31.2680 S   0  0  0  0  0  0  0  0  0  0  0  0
   35.0030   25.1950   31.2710 O   0  0  0  0  0  0  0  0  0  0  0  0
   37.1150   24.0850   30.5070 O   0  0  0  0  0  0  0  0  0  0  0  0
   35.8310   30.2450   30.4970 N   0  0  0  0  0  0  0  0  0  0  0  0
   36.1570   31.1600   30.1520 H   0  0  0  0  0  0  0  0  0  0  0  0
   35.2740   29.5890   29.9170 H   0  0  0  0  0  0  0  0  0  0  0  0
  1  2  2  0  0  0  0
  1  6  1  0  0  0  0
  2  3  1  0  0  0  0
  3 24  1  0  0  0  0
  3  4  2  0  0  0  0
  5  4  1  0  0  0  0
  5  8  1  0  0  0  0
  6  5  2  0  0  0  0
  7  2  1  0  0  0  0
  8 17  2  0  0  0  0
  8  9  1  0  0  0  0
  9 10  2  0  0  0  0
 10 11  1  0  0  0  0
 10 18  1  0  0  0  0
 12 13  1  0  0  0  0
 12 11  2  0  0  0  0
 13 19  1  0  0  0  0
 14 20  1  0  0  0  0
 14 13  2  0  0  0  0
 15 14  1  0  0  0  0
 16 15  2  0  0  0  0
 16 17  1  0  0  0  0
 17 12  1  0  0  0  0
 21 15  1  0  0  0  0
 22 16  1  0  0  0  0
 23 30  2  0  0  0  0
 23 24  1  0  0  0  0
 24 25  2  0  0  0  0
 25 27  1  0  0  0  0
 25 26  1  0  0  0  0
 27 28  1  0  0  0  0
 29 27  2  0  0  0  0
 30 29  1  0  0  0  0
 31 32  1  0  0  0  0
 32 33  2  0  0  0  0
 32 23  1  0  0  0  0
 34 32  2  0  0  0  0
 35  1  1  0  0  0  0
 36 35  1  0  0  0  0
 37 35  1  0  0  0  0
M  END
>  <minimizedAffinity>
-6.31756115

$$$$

 OpenBabel03272503573D

 37 40  0  0  0  0  0  0  0  0999 V2000
   36.0000   30.2170   30.9840 C   0  0  0  0  0  0  0  0  0  0  0  0
   36.2740   28.8790   30.6940 C   0  0  0  0  0  0  0  0  0  0  0  0
   36.1480   27.9930   31.7330 C   0  0  0  0  0  0  0  0  0  0  0  0
   35.7710   28.4750   32.9260 N   0  0  0  0  0  0  0  0  0  0  0  0
   35.5040   29.7290   33.2300 C   0  0  0  0  0  0  0  0  0  0  0  0
   35.6410   30.5430   32.2060 N   0  0  0  0  0  0  0  0  0  0  0  0
   36.5280   28.5990   29.7020 H   0  0  0  0  0  0  0  0  0  0  0  0
   35.0750   30.3810   34.4620 C   0  0  0  0  0  0  0  0  0  0  0  0
   35.8960   31.1800   35.1830 N   0  0  0  0  0  0  0  0  0  0  0  0
   35.4870   31.7870   36.3020 C   0  0  0  0  0  0  0  0  0  0  0  0
   34.2530   31.6710   36.8120 N   0  0  0  0  0  0  0  0  0  0  0  0
   33.3810   30.8840   36.1400 C   0  0  0  0  0  0  0  0  0  0  0  0
   32.1100   30.7470   36.6420 C   0  0  0  0  0  0  0  0  0  0  0  0
   31.1860   29.9640   36.0060 C   0  0  0  0  0  0  0  0  0  0  0  0
   31.6030   29.3390   34.8590 C   0  0  0  0  0  0  0  0  0  0  0  0
   32.8850   29.4980   34.3820 C   0  0  0  0  0  0  0  0  0  0  0  0
   33.8230   30.2730   34.9980 C   0  0  0  0  0  0  0  0  0  0  0  0
   36.1540   32.4420   36.8950 H   0  0  0  0  0  0  0  0  0  0  0  0
   31.8480   31.2730   37.5600 H   0  0  0  0  0  0  0  0  0  0  0  0
   30.2110   29.9030   36.4560 H   0  0  0  0  0  0  0  0  0  0  0  0
   30.8350   28.7170   34.3740 H   0  0  0  0  0  0  0  0  0  0  0  0
   33.0480   28.9350   33.4780 H   0  0  0  0  0  0  0  0  0  0  0  0
   37.3740   25.7760   32.0380 C   0  0  0  0  0  0  0  0  0  0  0  0
   36.3180   26.5550   31.6670 C   0  0  0  0  0  0  0  0  0  0  0  0
   35.2340   25.8070   31.1840 C   0  0  0  0  0  0  0  0  0  0  0  0
   34.3270   26.3480   30.8600 H   0  0  0  0  0  0  0  0  0  0  0  0
   35.1490   24.4540   31.0600 C   0  0  0  0  0  0  0  0  0  0  0  0
   34.2810   23.9620   30.6800 H   0  0  0  0  0  0  0  0  0  0  0  0
   36.2330   23.7000   31.4410 C   0  0  0  0  0  3  0  0  0  0  0  0
   37.3230   24.3820   31.9230 C   0  0  0  0  0  3  0  0  0  0  0  0
   39.7030   25.3950   32.9530 H   0  0  0  0  0  0  0  0  0  0  0  0
   38.7890   26.4470   32.7550 S   0  0  0  0  0  0  0  0  0  0  0  0
   38.5520   27.0310   34.1270 O   0  0  0  0  0  0  0  0  0  0  0  0
   39.4680   27.3870   31.8230 O   0  0  0  0  0  0  0  0  0  0  0  0
   36.0950   31.2520   29.9700 N   0  0  0  0  0  0  0  0  0  0  0  0
   36.6560   32.1170   29.9340 H   0  0  0  0  0  0  0  0  0  0  0  0
   35.4490   30.9660   29.2100 H   0  0  0  0  0  0  0  0  0  0  0  0
  1  6  1  0  0  0  0
  2  1  2  0  0  0  0
  2  3  1  0  0  0  0
  3  4  2  0  0  0  0
  4  5  1  0  0  0  0
  5  8  1  0  0  0  0
  6  5  2  0  0  0  0
  7  2  1  0  0  0  0
  8 17  2  0  0  0  0
  8  9  1  0  0  0  0
  9 10  2  0  0  0  0
 10 11  1  0  0  0  0
 10 18  1  0  0  0  0
 12 13  1  0  0  0  0
 12 11  2  0  0  0  0
 13 19  1  0  0  0  0
 14 20  1  0  0  0  0
 14 13  2  0  0  0  0
 15 14  1  0  0  0  0
 16 15  2  0  0  0  0
 16 17  1  0  0  0  0
 17 12  1  0  0  0  0
 21 15  1  0  0  0  0
 22 16  1  0  0  0  0
 23 32  1  0  0  0  0
 24  3  1  0  0  0  0
 24 23  2  0  0  0  0
 25 24  1  0  0  0  0
 26 25  1  0  0  0  0
 27 25  2  0  0  0  0
 27 29  1  0  0  0  0
 28 27  1  0  0  0  0
 29 30  2  0  0  0  0
 30 23  1  0  0  0  0
 32 31  1  0  0  0  0
 32 33  2  0  0  0  0
 34 32  2  0  0  0  0
 35  1  1  0  0  0  0
 36 35  1  0  0  0  0
 37 35  1  0  0  0  0
M  END
>  <minimizedAffinity>
-6.13390875

$$$$

 OpenBabel03272503573D

 37 40  0  0  0  0  0  0  0  0999 V2000
   37.1140   27.1130   34.0750 C   0  0  0  0  0  0  0  0  0  0  0  0
   37.4780   26.8400   32.7550 C   0  0  0  0  0  0  0  0  0  0  0  0
   38.2400   25.7170   32.5550 C   0  0  0  0  0  0  0  0  0  0  0  0
   38.5670   24.9820   33.6270 N   0  0  0  0  0  0  0  0  0  0  0  0
   38.2380   25.2130   34.8820 C   0  0  0  0  0  0  0  0  0  0  0  0
   37.5110   26.2980   35.0280 N   0  0  0  0  0  0  0  0  0  0  0  0
   37.1320   27.4690   31.9740 H   0  0  0  0  0  0  0  0  0  0  0  0
   38.5070   24.4980   36.1250 C   0  0  0  0  0  0  0  0  0  0  0  0
   37.7330   24.6440   37.2270 N   0  0  0  0  0  0  0  0  0  0  0  0
   37.9780   23.9700   38.3550 C   0  0  0  0  0  0  0  0  0  0  0  0
   38.9870   23.1020   38.5090 N   0  0  0  0  0  0  0  0  0  0  0  0
   39.8000   22.9090   37.4440 C   0  0  0  0  0  0  0  0  0  0  0  0
   40.8430   22.0250   37.5750 C   0  0  0  0  0  0  0  0  0  0  0  0
   41.6980   21.7910   36.5330 C   0  0  0  0  0  0  0  0  0  0  0  0
   41.4510   22.4810   35.3740 C   0  0  0  0  0  0  0  0  0  0  0  0
   40.3960   23.3610   35.2760 C   0  0  0  0  0  0  0  0  0  0  0  0
   39.5310   23.6100   36.3000 C   0  0  0  0  0  0  0  0  0  0  0  0
   37.3490   24.0860   39.2580 H   0  0  0  0  0  0  0  0  0  0  0  0
   40.9800   21.5120   38.5260 H   0  0  0  0  0  0  0  0  0  0  0  0
   42.4920   21.0860   36.7080 H   0  0  0  0  0  0  0  0  0  0  0  0
   42.1580   22.2690   34.5580 H   0  0  0  0  0  0  0  0  0  0  0  0
   40.3490   23.8210   34.3040 H   0  0  0  0  0  0  0  0  0  0  0  0
   38.3140   24.0680   30.6090 C   0  0  0  0  0  0  0  0  0  0  0  0
   38.6880   25.1950   31.2800 C   0  0  0  0  0  0  0  0  0  0  0  0
   39.6310   25.9580   30.5750 C   0  0  0  0  0  0  0  0  0  0  0  0
   39.9960   26.8940   31.0340 H   0  0  0  0  0  0  0  0  0  0  0  0
   40.1730   25.6890   29.3550 C   0  0  0  0  0  0  0  0  0  0  0  0
   40.8890   26.3270   28.8870 H   0  0  0  0  0  0  0  0  0  0  0  0
   39.7740   24.5420   28.7100 C   0  0  0  0  0  3  0  0  0  0  0  0
   38.8510   23.7570   29.3550 C   0  0  0  0  0  3  0  0  0  0  0  0
   37.2330   22.9690   32.6170 H   0  0  0  0  0  0  0  0  0  0  0  0
   37.0960   23.0130   31.2170 S   0  0  0  0  0  0  0  0  0  0  0  0
   37.2500   21.5830   30.7580 O   0  0  0  0  0  0  0  0  0  0  0  0
   35.7360   23.5660   30.9730 O   0  0  0  0  0  0  0  0  0  0  0  0
   36.3060   28.2700   34.4190 N   0  0  0  0  0  0  0  0  0  0  0  0
   36.4880   29.0590   35.0570 H   0  0  0  0  0  0  0  0  0  0  0  0
   35.4280   28.1760   33.8740 H   0  0  0  0  0  0  0  0  0  0  0  0
  1 35  1  0  0  0  0
  1  6  1  0  0  0  0
  2  1  2  0  0  0  0
  3  2  1  0  0  0  0
  3  4  2  0  0  0  0
  4  5  1  0  0  0  0
  5  6  2  0  0  0  0
  5  8  1  0  0  0  0
  7  2  1  0  0  0  0
  8 17  2  0  0  0  0
  8  9  1  0  0  0  0
  9 10  2  0  0  0  0
 10 11  1  0  0  0  0
 10 18  1  0  0  0  0
 12 13  1  0  0  0  0
 12 11  2  0  0  0  0
 13 19  1  0  0  0  0
 14 20  1  0  0  0  0
 14 13  2  0  0  0  0
 15 14  1  0  0  0  0
 16 15  2  0  0  0  0
 16 17  1  0  0  0  0
 17 12  1  0  0  0  0
 21 15  1  0  0  0  0
 22 16  1  0  0  0  0
 23 32  1  0  0  0  0
 23 24  1  0  0  0  0
 24  3  1  0  0  0  0
 25 26  1  0  0  0  0
 25 24  2  0  0  0  0
 27 25  1  0  0  0  0
 28 27  1  0  0  0  0
 29 30  1  0  0  0  0
 29 27  2  0  0  0  0
 30 23  2  0  0  0  0
 32 31  1  0  0  0  0
 33 32  2  0  0  0  0
 34 32  2  0  0  0  0
 35 36  1  0  0  0  0
 37 35  1  0  0  0  0
M  END
>  <minimizedAffinity>
-6.06934357

$$$$

 OpenBabel03272503573D

 37 40  0  0  0  0  0  0  0  0999 V2000
   36.8060   24.0040   32.1990 C   0  0  0  0  0  0  0  0  0  0  0  0
   37.7660   23.3990   33.0120 C   0  0  0  0  0  0  0  0  0  0  0  0
   38.4120   24.2180   33.9030 C   0  0  0  0  0  0  0  0  0  0  0  0
   38.0700   25.5140   33.9230 N   0  0  0  0  0  0  0  0  0  0  0  0
   37.1700   26.1130   33.1710 C   0  0  0  0  0  0  0  0  0  0  0  0
   36.5780   25.2920   32.3310 N   0  0  0  0  0  0  0  0  0  0  0  0
   37.9320   22.3540   32.9390 H   0  0  0  0  0  0  0  0  0  0  0  0
   36.6940   27.4900   33.1010 C   0  0  0  0  0  0  0  0  0  0  0  0
   36.1060   28.1080   34.1540 N   0  0  0  0  0  0  0  0  0  0  0  0
   35.6900   29.3770   34.0840 C   0  0  0  0  0  0  0  0  0  0  0  0
   35.8090   30.1490   32.9950 N   0  0  0  0  0  0  0  0  0  0  0  0
   36.3880   29.5920   31.9060 C   0  0  0  0  0  0  0  0  0  0  0  0
   36.5210   30.3610   30.7760 C   0  0  0  0  0  0  0  0  0  0  0  0
   37.0980   29.8510   29.6450 C   0  0  0  0  0  0  0  0  0  0  0  0
   37.5250   28.5490   29.7120 C   0  0  0  0  0  0  0  0  0  0  0  0
   37.3760   27.8050   30.8610 C   0  0  0  0  0  0  0  0  0  0  0  0
   36.8060   28.2920   32.0000 C   0  0  0  0  0  0  0  0  0  0  0  0
   35.2100   29.8870   34.9410 H   0  0  0  0  0  0  0  0  0  0  0  0
   36.1590   31.3880   30.7940 H   0  0  0  0  0  0  0  0  0  0  0  0
   37.1690   30.5110   28.7990 H   0  0  0  0  0  0  0  0  0  0  0  0
   37.9820   28.1720   28.7850 H   0  0  0  0  0  0  0  0  0  0  0  0
   37.7580   26.8050   30.7430 H   0  0  0  0  0  0  0  0  0  0  0  0
   39.2350   23.3920   36.1720 C   0  0  0  0  0  0  0  0  0  0  0  0
   39.3970   23.8170   34.8860 C   0  0  0  0  0  0  0  0  0  0  0  0
   40.7390   23.8170   34.4790 C   0  0  0  0  0  0  0  0  0  0  0  0
   40.9750   24.1420   33.4510 H   0  0  0  0  0  0  0  0  0  0  0  0
   41.8290   23.4540   35.2110 C   0  0  0  0  0  0  0  0  0  0  0  0
   42.8220   23.4840   34.8220 H   0  0  0  0  0  0  0  0  0  0  0  0
   41.6290   23.0340   36.5040 C   0  0  0  0  0  3  0  0  0  0  0  0
   40.3320   23.0130   36.9550 C   0  0  0  0  0  3  0  0  0  0  0  0
   36.9020   24.3200   36.4950 H   0  0  0  0  0  0  0  0  0  0  0  0
   37.6750   23.2070   36.8770 S   0  0  0  0  0  0  0  0  0  0  0  0
   37.6870   23.2320   38.3870 O   0  0  0  0  0  0  0  0  0  0  0  0
   36.9670   22.0260   36.3130 O   0  0  0  0  0  0  0  0  0  0  0  0
   36.0510   23.2460   31.2160 N   0  0  0  0  0  0  0  0  0  0  0  0
   35.9560   23.3630   30.1960 H   0  0  0  0  0  0  0  0  0  0  0  0
   35.5720   22.4930   31.7450 H   0  0  0  0  0  0  0  0  0  0  0  0
  1  6  2  0  0  0  0
  1  2  1  0  0  0  0
  2  3  2  0  0  0  0
  3  4  1  0  0  0  0
  3 24  1  0  0  0  0
  5  4  2  0  0  0  0
  6  5  1  0  0  0  0
  7  2  1  0  0  0  0
  8  5  1  0  0  0  0
  8  9  1  0  0  0  0
 10  9  2  0  0  0  0
 10 18  1  0  0  0  0
 11 10  1  0  0  0  0
 12 17  1  0  0  0  0
 12 11  2  0  0  0  0
 13 19  1  0  0  0  0
 13 12  1  0  0  0  0
 14 15  1  0  0  0  0
 14 13  2  0  0  0  0
 15 16  2  0  0  0  0
 16 17  1  0  0  0  0
 17  8  2  0  0  0  0
 20 14  1  0  0  0  0
 21 15  1  0  0  0  0
 22 16  1  0  0  0  0
 23 32  1  0  0  0  0
 23 30  1  0  0  0  0
 24 23  2  0  0  0  0
 25 24  1  0  0  0  0
 25 27  2  0  0  0  0
 26 25  1  0  0  0  0
 27 29  1  0  0  0  0
 28 27  1  0  0  0  0
 29 30  2  0  0  0  0
 31 32  1  0  0  0  0
 32 33  2  0  0  0  0
 34 32  2  0  0  0  0
 35 37  1  0  0  0  0
 35  1  1  0  0  0  0
 36 35  1  0  0  0  0
M  END
>  <minimizedAffinity>
-6.0207057

$$$$
