
 OpenBabel03272506243D

 34 36  0  0  0  0  0  0  0  0999 V2000
   36.9290   30.5420   46.9110 C   0  0  0  0  0  0  0  0  0  0  0  0
   36.2910   29.7350   46.0060 C   0  0  0  0  0  0  0  0  0  0  0  0
   36.2180   29.9550   44.6500 C   0  0  0  0  0  0  0  0  0  0  0  0
   36.8540   31.1160   44.1390 C   0  0  0  0  0  0  0  0  0  0  0  0
   37.5020   31.9350   45.0520 C   0  0  0  0  0  0  0  0  0  0  0  0
   37.5550   31.6820   46.4000 C   0  0  0  0  0  0  0  0  0  0  0  0
   35.7720   28.8180   46.3130 H   0  0  0  0  0  0  0  0  0  0  0  0
   35.7170   29.3180   43.9530 H   0  0  0  0  0  0  0  0  0  0  0  0
   36.8380   31.3500   43.0910 H   0  0  0  0  0  0  0  0  0  0  0  0
   37.9840   32.8130   44.6630 H   0  0  0  0  0  0  0  0  0  0  0  0
   38.1400   30.1500   48.9920 C   0  0  0  0  0  0  0  0  0  0  0  0
   36.8980   30.1430   48.2980 C   0  0  0  0  0  0  0  0  0  0  0  0
   35.7660   29.7550   49.0090 C   0  0  0  0  0  0  0  0  0  0  0  0
   35.9080   29.4090   50.3110 N   0  0  0  0  0  0  0  0  0  0  0  0
   37.1030   29.4220   50.9550 C   0  0  0  0  0  0  0  0  0  0  0  0
   38.2290   29.7980   50.2820 N   0  0  0  0  0  0  0  0  0  0  0  0
   39.0420   30.4520   48.4520 H   0  0  0  0  0  0  0  0  0  0  0  0
   37.2110   29.1450   51.9920 H   0  0  0  0  0  0  0  0  0  0  0  0
   34.4180   29.7020   48.4150 C   0  0  0  0  0  0  0  0  0  0  0  0
   33.4680   29.4130   49.4170 F   0  0  0  0  0  0  0  0  0  0  0  0
   33.9990   30.8130   47.7570 F   0  0  0  0  0  0  0  0  0  0  0  0
   34.3100   28.5990   47.5630 F   0  0  0  0  0  0  0  0  0  0  0  0
   39.5250   32.9890   47.1820 C   0  0  0  0  0  0  0  0  0  0  0  0
   38.2290   32.5350   47.3650 C   0  0  0  0  0  0  0  0  0  0  0  0
   37.6100   32.9410   48.5290 C   0  0  0  0  0  0  0  0  0  0  0  0
   36.6070   32.6180   48.7210 H   0  0  0  0  0  0  0  0  0  0  0  0
   38.1640   33.7470   49.5050 C   0  0  0  0  0  0  0  0  0  0  0  0
   37.6080   34.0210   50.3920 H   0  0  0  0  0  0  0  0  0  0  0  0
   39.4610   34.1910   49.3040 C   0  0  0  0  0  0  0  0  0  0  0  0
   40.1320   33.8050   48.1380 C   0  0  0  0  0  0  0  0  0  0  0  0
   41.7290   32.9540   45.9570 H   0  0  0  0  0  0  0  0  0  0  0  0
   40.4120   32.5490   45.7610 S   0  0  0  0  0  0  0  0  0  0  0  0
   39.9510   33.2180   44.5170 O   0  0  0  0  0  0  0  0  0  0  0  0
   40.4850   31.0630   45.5530 O   0  0  0  0  0  0  0  0  0  0  0  0
  1 12  1  0  0  0  0
  2  7  1  0  0  0  0
  2  1  2  0  0  0  0
  3  2  1  0  0  0  0
  4  3  2  0  0  0  0
  4  5  1  0  0  0  0
  5  6  2  0  0  0  0
  6  1  1  0  0  0  0
  6 24  1  0  0  0  0
  8  3  1  0  0  0  0
  9  4  1  0  0  0  0
 10  5  1  0  0  0  0
 11 16  1  0  0  0  0
 12 11  2  0  0  0  0
 12 13  1  0  0  0  0
 13 14  2  0  0  0  0
 14 15  1  0  0  0  0
 15 18  1  0  0  0  0
 16 15  2  0  0  0  0
 17 11  1  0  0  0  0
 19 13  1  0  0  0  0
 19 20  1  0  0  0  0
 21 19  1  0  0  0  0
 22 19  1  0  0  0  0
 23 24  2  0  0  0  0
 23 30  1  0  0  0  0
 24 25  1  0  0  0  0
 25 26  1  0  0  0  0
 25 27  2  0  0  0  0
 27 28  1  0  0  0  0
 29 27  1  0  0  0  0
 30 29  2  0  0  0  0
 32 31  1  0  0  0  0
 32 23  1  0  0  0  0
 33 32  2  0  0  0  0
 34 32  2  0  0  0  0
M  END
>  <minimizedAffinity>
-4.99377966

>  <minimizedRMSD>
2.86845493

$$$$
