
 OpenBabel03272502373D

 33 35  0  0  1  0  0  0  0  0999 V2000
   33.7390   29.9400   46.5580 N   0  0  0  0  0  0  0  0  0  0  0  0
   34.9760   29.7340   45.8210 C   0  0  0  0  0  0  0  0  0  0  0  0
   36.0290   30.1580   46.8220 C   0  0  0  0  0  0  0  0  0  0  0  0
   35.2760   30.6110   48.0670 C   0  0  1  0  0  0  0  0  0  0  0  0
   34.0500   29.7550   47.9780 C   0  0  0  0  0  0  0  0  0  0  0  0
   35.0620   30.3980   44.9630 H   0  0  0  0  0  0  0  0  0  0  0  0
   35.0960   28.6440   45.5770 H   0  0  0  0  0  0  0  0  0  0  0  0
   36.6540   29.2880   47.1710 H   0  0  0  0  0  0  0  0  0  0  0  0
   36.6690   30.9610   46.4570 H   0  0  0  0  0  0  0  0  0  0  0  0
   34.9220   31.6610   47.9550 H   0  0  0  0  0  0  0  0  0  0  0  0
   33.2300   30.2360   48.5530 H   0  0  0  0  0  0  0  0  0  0  0  0
   34.1750   28.7000   48.2000 H   0  0  0  0  0  0  0  0  0  0  0  0
   32.4660   30.2570   46.0050 C   0  0  0  0  0  0  0  0  0  0  0  0
   32.3710   31.4010   45.2180 C   0  0  0  0  0  0  0  0  0  0  0  0
   31.1320   31.7240   44.6730 C   0  0  0  0  0  0  0  0  0  0  0  0
   30.0790   30.8840   44.9510 N   0  0  0  0  0  0  0  0  0  0  0  0
   30.2100   29.7870   45.7170 C   0  0  0  0  0  0  0  0  0  0  0  0
   31.4070   29.4650   46.2520 N   0  0  0  0  0  0  0  0  0  0  0  0
   33.1910   32.0680   44.9920 H   0  0  0  0  0  0  0  0  0  0  0  0
   31.0310   32.6030   44.0590 H   0  0  0  0  0  0  0  0  0  0  0  0
   29.3230   29.1730   45.8910 H   0  0  0  0  0  0  0  0  0  0  0  0
   37.1600   31.0990   49.5140 C   0  0  0  0  0  0  0  0  0  0  0  0
   35.9840   30.3620   49.3150 C   0  0  0  0  0  0  0  0  0  0  0  0
   35.6410   29.4890   50.3230 C   0  0  0  0  0  0  0  0  0  0  0  0
   34.7440   28.9000   50.2110 H   0  0  0  0  0  0  0  0  0  0  0  0
   36.3440   29.2820   51.4890 C   0  0  0  0  0  0  0  0  0  0  0  0
   36.0200   28.5820   52.2370 H   0  0  0  0  0  0  0  0  0  0  0  0
   37.5030   30.0020   51.6960 C   0  0  0  0  0  0  0  0  0  0  0  0
   37.8720   30.8850   50.7020 C   0  0  0  0  0  0  0  0  0  0  0  0
   36.8730   32.3900   47.2660 H   0  0  0  0  0  0  0  0  0  0  0  0
   37.7300   32.2560   48.3260 S   0  0  0  0  0  0  0  0  0  0  0  0
   38.1270   33.5660   48.9370 O   0  0  0  0  0  0  0  0  0  0  0  0
   39.0050   31.6870   47.7330 O   0  0  0  0  0  0  0  0  0  0  0  0
  1  5  1  0  0  0  0
  2  1  1  0  0  0  0
  2  3  1  0  0  0  0
  3  8  1  0  0  0  0
  3  4  1  0  0  0  0
  4 10  1  6  0  0  0
  4 23  1  0  0  0  0
  5  4  1  0  0  0  0
  5 12  1  0  0  0  0
  5 11  1  0  0  0  0
  6  2  1  0  0  0  0
  7  2  1  0  0  0  0
  9  3  1  0  0  0  0
 13 18  1  0  0  0  0
 13  1  1  0  0  0  0
 14 13  2  0  0  0  0
 15 16  2  0  0  0  0
 15 14  1  0  0  0  0
 16 17  1  0  0  0  0
 17 21  1  0  0  0  0
 17 18  2  0  0  0  0
 19 14  1  0  0  0  0
 20 15  1  0  0  0  0
 22 29  1  0  0  0  0
 23 22  2  0  0  0  0
 23 24  1  0  0  0  0
 24 26  2  0  0  0  0
 25 24  1  0  0  0  0
 26 28  1  0  0  0  0
 26 27  1  0  0  0  0
 29 28  2  0  0  0  0
 30 31  1  0  0  0  0
 31 32  2  0  0  0  0
 31 22  1  0  0  0  0
 33 31  2  0  0  0  0
M  END
>  <minimizedAffinity>
-5.50763416

>  <minimizedRMSD>
4.08989096

$$$$
