
 OpenBabel03272509213D

 49 53  0  0  0  0  0  0  0  0999 V2000
   40.0580   30.8620   44.0410 C   0  0  0  0  0  0  0  0  0  0  0  0
   39.5870   31.8000   44.9350 C   0  0  0  0  0  0  0  0  0  0  0  0
   38.6320   32.7230   44.4960 C   0  0  0  0  0  0  0  0  0  0  0  0
   38.1580   32.7040   43.1780 C   0  0  0  0  0  0  0  0  0  0  0  0
   37.2740   33.4290   42.4760 N   0  0  0  0  0  0  0  0  0  0  0  0
   37.1990   32.9670   41.2090 C   0  0  0  0  0  0  0  0  0  0  0  0
   38.0650   31.9170   41.1170 N   0  0  0  0  0  0  0  0  0  0  0  0
   38.6590   31.7460   42.3170 C   0  0  0  0  0  0  0  0  0  0  0  0
   39.6060   30.8280   42.7470 C   0  0  0  0  0  0  0  0  0  0  0  0
   40.7820   30.2040   44.4690 H   0  0  0  0  0  0  0  0  0  0  0  0
   38.1720   33.5150   45.0850 H   0  0  0  0  0  0  0  0  0  0  0  0
   36.7310   34.2320   42.8650 H   0  0  0  0  0  0  0  0  0  0  0  0
   36.5610   33.3620   40.4040 H   0  0  0  0  0  0  0  0  0  0  0  0
   39.5650   28.5790   41.6380 C   0  0  0  0  0  0  0  0  0  0  0  0
   40.1420   29.8130   41.8460 C   0  0  0  0  0  0  0  0  0  0  0  0
   41.3020   30.1510   41.1790 C   0  0  0  0  0  0  0  0  0  0  0  0
   41.8230   31.1080   41.2880 H   0  0  0  0  0  0  0  0  0  0  0  0
   41.8410   29.2160   40.3180 C   0  0  0  0  0  0  0  0  0  0  0  0
   42.7630   29.4650   39.7800 H   0  0  0  0  0  0  0  0  0  0  0  0
   41.3050   27.9490   40.0640 C   0  0  0  0  0  3  0  0  0  0  0  0
   40.1300   27.6850   40.7780 C   0  0  0  0  0  3  0  0  0  0  0  0
   37.8280   26.8590   42.5440 H   0  0  0  0  0  0  0  0  0  0  0  0
   38.0900   28.1940   42.5090 S   0  0  0  0  0  0  0  0  0  0  0  0
   38.0840   28.7910   43.8700 O   0  0  0  0  0  0  0  0  0  0  0  0
   36.9740   28.8440   41.7030 O   0  0  0  0  0  0  0  0  0  0  0  0
   39.8960   32.0100   46.2490 O   0  0  0  0  0  0  0  0  0  0  0  0
   38.0420   31.2140   47.5880 C   0  0  0  0  0  0  0  0  0  0  0  0
   37.1450   31.2720   48.6510 C   0  0  0  0  0  0  0  0  0  0  0  0
   37.3140   32.3740   49.4910 C   0  0  0  0  0  0  0  0  0  0  0  0
   38.3200   33.3370   49.2600 C   0  0  0  0  0  0  0  0  0  0  0  0
   39.1770   33.1820   48.1520 C   0  0  0  0  0  0  0  0  0  0  0  0
   39.0210   32.0890   47.3050 C   0  0  0  0  0  0  0  0  0  0  0  0
   36.6580   32.4940   50.3400 H   0  0  0  0  0  0  0  0  0  0  0  0
   38.4420   34.1810   49.9130 H   0  0  0  0  0  0  0  0  0  0  0  0
   39.9480   33.9160   47.9710 H   0  0  0  0  0  0  0  0  0  0  0  0
   34.9630   30.3020   48.1160 C   0  0  0  0  0  0  0  0  0  0  0  0
   36.1260   30.2980   48.8860 C   0  0  0  0  0  0  0  0  0  0  0  0
   36.2470   29.3140   49.8800 C   0  0  0  0  0  0  0  0  0  0  0  0
   35.2300   28.4300   50.0330 N   0  0  0  0  0  0  0  0  0  0  0  0
   34.1130   28.4710   49.2600 C   0  0  0  0  0  0  0  0  0  0  0  0
   33.9830   29.4010   48.3100 N   0  0  0  0  0  0  0  0  0  0  0  0
   34.8120   31.0450   47.3280 H   0  0  0  0  0  0  0  0  0  0  0  0
   33.4110   27.6900   49.5230 H   0  0  0  0  0  0  0  0  0  0  0  0
   37.4650   29.2610   50.7300 C   0  0  0  0  0  0  0  0  0  0  0  0
   37.7670   28.1890   50.7490 H   0  0  0  0  0  0  0  0  0  0  0  0
   38.2820   29.7790   50.1750 H   0  0  0  0  0  0  0  0  0  0  0  0
   37.3170   29.6730   51.7440 H   0  0  0  0  0  0  0  0  0  0  0  0
   37.9490   30.1400   46.6890 O   0  0  0  0  0  0  0  0  0  0  0  0
   37.0270   29.8080   46.4180 H   0  0  0  0  0  0  0  0  0  0  0  0
  1 10  1  0  0  0  0
  1  2  1  0  0  0  0
  2 26  1  0  0  0  0
  3  2  2  0  0  0  0
  3 11  1  0  0  0  0
  4  3  1  0  0  0  0
  5 12  1  0  0  0  0
  5  4  1  0  0  0  0
  6  5  1  0  0  0  0
  7  6  2  0  0  0  0
  7  8  1  0  0  0  0
  8  9  1  0  0  0  0
  8  4  2  0  0  0  0
  9  1  2  0  0  0  0
 13  6  1  0  0  0  0
 14 15  1  0  0  0  0
 14 23  1  0  0  0  0
 15  9  1  0  0  0  0
 16 17  1  0  0  0  0
 16 15  2  0  0  0  0
 18 16  1  0  0  0  0
 19 18  1  0  0  0  0
 20 18  2  0  0  0  0
 20 21  1  0  0  0  0
 21 14  2  0  0  0  0
 23 22  1  0  0  0  0
 23 24  2  0  0  0  0
 25 23  2  0  0  0  0
 26 32  1  0  0  0  0
 27 28  1  0  0  0  0
 28 37  1  0  0  0  0
 28 29  2  0  0  0  0
 29 33  1  0  0  0  0
 30 29  1  0  0  0  0
 30 34  1  0  0  0  0
 31 30  2  0  0  0  0
 32 27  2  0  0  0  0
 32 31  1  0  0  0  0
 35 31  1  0  0  0  0
 36 41  2  0  0  0  0
 36 37  1  0  0  0  0
 37 38  2  0  0  0  0
 38 39  1  0  0  0  0
 38 44  1  0  0  0  0
 40 43  1  0  0  0  0
 40 39  2  0  0  0  0
 41 40  1  0  0  0  0
 42 36  1  0  0  0  0
 44 45  1  0  0  0  0
 44 47  1  0  0  0  0
 46 44  1  0  0  0  0
 48 27  1  0  0  0  0
 49 48  1  0  0  0  0
M  END
>  <minimizedAffinity>
-7.13243294

>  <minimizedRMSD>
1.16313171

$$$$
