
     RDKit          3D

 51 55  0  0  0  0  0  0  0  0999 V2000
   38.0879   31.2976   47.7704 C   0  0  0  0  0  0  0  0  0  0  0  0
   37.0861   31.3079   48.7359 C   0  0  0  0  0  0  0  0  0  0  0  0
   37.1182   32.4112   49.5911 C   0  0  0  0  0  0  0  0  0  0  0  0
   38.0974   33.4204   49.4657 C   0  0  0  0  0  0  0  0  0  0  0  0
   39.0679   33.3119   48.4513 C   0  0  0  0  0  0  0  0  0  0  0  0
   39.0497   32.2181   47.5905 C   0  0  0  0  0  0  0  0  0  0  0  0
   34.9619   30.3051   48.0493 C   0  0  0  0  0  0  0  0  0  0  0  0
   36.0941   30.2867   48.8638 C   0  0  0  0  0  0  0  0  0  0  0  0
   36.2118   29.2421   49.7944 C   0  0  0  0  0  0  0  0  0  0  0  0
   35.2221   28.3168   49.8461 N   0  0  0  0  0  0  0  0  0  0  0  0
   34.1351   28.3732   49.0327 C   0  0  0  0  0  0  0  0  0  0  0  0
   34.0085   29.3614   48.1416 N   0  0  0  0  0  0  0  0  0  0  0  0
   37.3967   29.1725   50.6877 C   0  0  0  0  0  0  0  0  0  0  0  0
   38.1370   30.2274   46.8642 O   0  0  0  0  0  0  0  0  0  0  0  0
   40.0300   32.1869   46.6287 O   0  0  0  0  0  0  0  0  0  0  0  0
   40.5701   31.1769   44.4127 C   0  0  0  0  0  0  0  0  0  0  0  0
   39.8664   31.9759   45.2895 C   0  0  0  0  0  0  0  0  0  0  0  0
   38.7916   32.7253   44.7971 C   0  0  0  0  0  0  0  0  0  0  0  0
   38.4309   32.6716   43.4448 C   0  0  0  0  0  0  0  0  0  0  0  0
   37.4834   33.2500   42.6908 N   0  0  0  0  0  0  0  0  0  0  0  0
   37.5916   32.8329   41.4115 C   0  0  0  0  0  0  0  0  0  0  0  0
   38.6424   31.9641   41.3635 N   0  0  0  0  0  0  0  0  0  0  0  0
   39.1653   31.8568   42.6038 C   0  0  0  0  0  0  0  0  0  0  0  0
   40.2308   31.1123   43.0858 C   0  0  0  0  0  0  0  0  0  0  0  0
   36.3738   32.4947   50.3694 H   0  0  0  0  0  0  0  0  0  0  0  0
   38.1117   34.2641   50.1296 H   0  0  0  0  0  0  0  0  0  0  0  0
   39.8195   34.0814   48.3510 H   0  0  0  0  0  0  0  0  0  0  0  0
   34.8149   31.0936   47.3058 H   0  0  0  0  0  0  0  0  0  0  0  0
   33.4507   27.5535   49.2144 H   0  0  0  0  0  0  0  0  0  0  0  0
   37.7364   28.1117   50.6483 H   0  0  0  0  0  0  0  0  0  0  0  0
   38.2161   29.7534   50.2026 H   0  0  0  0  0  0  0  0  0  0  0  0
   37.1948   29.5089   51.7197 H   0  0  0  0  0  0  0  0  0  0  0  0
   37.2631   29.8552   46.4997 H   0  0  0  0  0  0  0  0  0  0  0  0
   41.3692   30.6462   44.8817 H   0  0  0  0  0  0  0  0  0  0  0  0
   38.1492   33.3952   45.3661 H   0  0  0  0  0  0  0  0  0  0  0  0
   36.7720   33.9233   43.0543 H   0  0  0  0  0  0  0  0  0  0  0  0
   36.9536   33.1358   40.5669 H   0  0  0  0  0  0  0  0  0  0  0  0
   41.0322   27.1130   44.2793 H   0  0  0  0  0  0  0  0  0  0  0  0
   40.3201   28.1344   43.7278 S   0  0  0  0  0  0  0  0  0  0  0  0
   39.9148   29.1352   44.7494 O   0  0  0  0  0  0  0  0  0  0  0  0
   39.0581   27.5250   43.1354 O   0  0  0  0  0  0  0  0  0  0  0  0
   41.1437   28.8874   42.3739 C   0  0  0  0  0  0  0  0  0  0  0  0
   41.0129   30.2488   42.2069 C   0  0  0  0  0  0  0  0  0  0  0  0
   41.6465   30.8768   41.1527 C   0  0  0  0  0  0  0  0  0  0  0  0
   41.5937   31.9520   40.9496 H   0  0  0  0  0  0  0  0  0  0  0  0
   42.3958   30.0937   40.2991 C   0  0  0  0  0  0  0  0  0  0  0  0
   42.9070   30.5733   39.4555 H   0  0  0  0  0  0  0  0  0  0  0  0
   42.5680   28.7103   40.4133 C   0  0  0  0  0  0  0  0  0  0  0  0
   41.8948   28.1514   41.5055 C   0  0  0  0  0  0  0  0  0  0  0  0
   43.1680   28.1724   39.7070 H   0  0  0  0  0  0  0  0  0  0  0  0
   42.0146   27.0759   41.6142 H   0  0  0  0  0  0  0  0  0  0  0  0
  1  2  2  0
  2  8  1  0
  2  3  1  0
  4  3  2  0
  5  4  1  0
  6  1  1  0
  6  5  2  0
  7 12  2  0
  7  8  1  0
  8  9  2  0
  9 10  1  0
  9 13  1  0
 11 10  2  0
 12 11  1  0
 14  1  1  0
 15  6  1  0
 16 17  2  0
 17 15  1  0
 18 17  1  0
 19 18  2  0
 20 19  1  0
 21 20  1  0
 22 21  2  0
 22 23  1  0
 23 24  2  0
 23 19  1  0
 24 16  1  0
  3 25  1  0
  4 26  1  0
  5 27  1  0
  7 28  1  0
 11 29  1  0
 13 30  1  0
 13 31  1  0
 13 32  1  0
 14 33  1  0
 16 34  1  0
 18 35  1  0
 20 36  1  0
 21 37  1  0
 38 39  1  0
 39 40  2  0
 39 41  2  0
 39 42  1  0
 42 43  2  0
 43 44  1  0
 44 45  1  0
 44 46  2  0
 46 47  1  0
 46 48  1  0
 48 49  2  0
 49 42  1  0
 48 50  1  0
 49 51  1  0
 24 43  1  0
M  ISO  8  25  14  26  14  27  14  28  14  29  14  30   8  31   8  32   8
M  ISO  8  33   3  34  14  35  14  36   9  37  14  38  12  45  15  47  16
M  END
>  <DihAtoms>  (1) 
22,23,42,41

>  <DihDeg>  (1) 
89.99948726322062

$$$$
