REMARK  Name = 
REMARK  3 active torsions:
REMARK  status: ('A' for Active; 'I' for Inactive)
REMARK    1  A    between atoms: C_5  and  C_9
REMARK    2  A    between atoms: C_11  and  C_25
REMARK    3  A    between atoms: S_21  and  C_24
REMARK                            x       y       z     vdW  Elec       q    Type
REMARK                         _______ _______ _______ _____ _____    ______ ____
ROOT
ATOM      1 BR   UNL     1      37.261  29.361  51.055  0.00  0.00    +0.000 Br
ATOM      2  C   UNL     1      35.950  29.319  49.660  0.00  0.00    +0.000 A 
ATOM      3  C   UNL     1      35.999  30.216  48.618  0.00  0.00    +0.000 A 
ATOM      4  C   UNL     1      35.023  30.122  47.655  0.00  0.00    +0.000 A 
ATOM      5  C   UNL     1      34.002  29.174  47.688  0.00  0.00    +0.000 A 
ATOM      6  C   UNL     1      33.999  28.305  48.747  0.00  0.00    +0.000 A 
ATOM      7  C   UNL     1      34.966  28.377  49.724  0.00  0.00    +0.000 A 
ATOM      8  H   UNL     1      35.110  30.863  46.846  0.00  0.00    +0.000 HD
ATOM      9  H   UNL     1      33.192  27.586  48.732  0.00  0.00    +0.000 HD
ATOM     10  H   UNL     1      34.908  27.657  50.540  0.00  0.00    +0.000 HD
ENDROOT
BRANCH   3  15
ATOM     11  C   UNL     1      37.989  33.165  49.439  0.00  0.00    +0.000 A 
ATOM     12  C   UNL     1      39.018  33.158  48.462  0.00  0.00    +0.000 A 
ATOM     13  C   UNL     1      39.005  32.124  47.530  0.00  0.00    +0.000 A 
ATOM     14  N   UNL     1      38.019  31.185  47.601  0.00  0.00    +0.000 NA
ATOM     15  C   UNL     1      37.054  31.226  48.547  0.00  0.00    +0.000 A 
ATOM     16  N   UNL     1      37.052  32.220  49.457  0.00  0.00    +0.000 NA
ATOM     17  H   UNL     1      37.925  33.940  50.206  0.00  0.00    +0.000 HD
ATOM     18  H   UNL     1      39.758  33.941  48.480  0.00  0.00    +0.000 HD
ATOM     19  H   UNL     1      39.780  32.090  46.770  0.00  0.00    +0.000 HD
ENDBRANCH   3  15
BRANCH   5  21
ATOM     20  C   UNL     1      33.374  29.104  45.250  0.00  0.00    +0.000 A 
ATOM     21  C   UNL     1      33.074  29.252  46.566  0.00  0.00    +0.000 A 
ATOM     22  C   UNL     1      31.733  29.506  46.874  0.00  0.00    +0.000 A 
ATOM     23  H   UNL     1      31.398  29.640  47.915  0.00  0.00    +0.000 HD
ATOM     24  C   UNL     1      30.736  29.613  45.951  0.00  0.00    +0.000 A 
ATOM     25  H   UNL     1      29.709  29.810  46.218  0.00  0.00    +0.000 HD
ATOM     26  C   UNL     1      31.044  29.463  44.623  0.00  0.00    +0.000 A 
ATOM     27  C   UNL     1      32.356  29.212  44.300  0.00  0.00    +0.000 A 
BRANCH  20  29
ATOM     28  H   UNL     1      35.692  29.941  44.610  0.00  0.00    +0.000 HD
ATOM     29  S   UNL     1      35.018  28.786  44.825  0.00  0.00    +0.000 S 
ATOM     30  O   UNL     1      35.723  27.864  45.782  0.00  0.00    +0.000 OA
ATOM     31  O   UNL     1      34.985  28.064  43.485  0.00  0.00    +0.000 OA
ENDBRANCH  20  29
ENDBRANCH   5  21
TORSDOF 3
