REMARK  Name = 
REMARK  3 active torsions:
REMARK  status: ('A' for Active; 'I' for Inactive)
REMARK    1  A    between atoms: C_2  and  C_25
REMARK    2  A    between atoms: C_3  and  C_7
REMARK    3  A    between atoms: S_21  and  C_24
REMARK                            x       y       z     vdW  Elec       q    Type
REMARK                         _______ _______ _______ _____ _____    ______ ____
ROOT
ATOM      1  C   UNL     1      37.261  30.064  51.493  0.00  0.00    +0.000 A 
ATOM      2  C   UNL     1      38.018  30.792  50.522  0.00  0.00    +0.000 A 
ATOM      3  C   UNL     1      37.647  30.627  49.185  0.00  0.00    +0.000 A 
ATOM      4  N   UNL     1      36.606  29.800  48.870  0.00  0.00    +0.000 NA
ATOM      5  C   UNL     1      35.916  29.128  49.823  0.00  0.00    +0.000 A 
ATOM      6  N   UNL     1      36.245  29.262  51.124  0.00  0.00    +0.000 NA
ATOM      7  H   UNL     1      37.469  30.126  52.538  0.00  0.00    +0.000 HD
ATOM      8  H   UNL     1      35.096  28.476  49.565  0.00  0.00    +0.000 HD
ENDROOT
BRANCH   3   9
ATOM      9  C   UNL     1      38.339  31.308  48.115  0.00  0.00    +0.000 A 
ATOM     10  C   UNL     1      38.797  32.576  48.337  0.00  0.00    +0.000 A 
ATOM     11  C   UNL     1      39.479  33.301  47.363  0.00  0.00    +0.000 A 
ATOM     12  C   UNL     1      39.678  32.674  46.133  0.00  0.00    +0.000 A 
ATOM     13  C   UNL     1      39.234  31.380  45.843  0.00  0.00    +0.000 A 
ATOM     14  C   UNL     1      38.567  30.741  46.879  0.00  0.00    +0.000 A 
ATOM     15  H   UNL     1      38.703  33.186  49.218  0.00  0.00    +0.000 HD
ATOM     16  H   UNL     1      39.867  34.302  47.470  0.00  0.00    +0.000 HD
ATOM     17  H   UNL     1      40.203  33.164  45.310  0.00  0.00    +0.000 HD
ATOM     18  H   UNL     1      39.412  30.936  44.875  0.00  0.00    +0.000 HD
ATOM     19  H   UNL     1      38.210  29.741  46.689  0.00  0.00    +0.000 HD
ENDBRANCH   3   9
BRANCH   2  21
ATOM     20  C   UNL     1      38.953  32.931  51.461  0.00  0.00    +0.000 A 
ATOM     21  C   UNL     1      39.100  31.601  51.042  0.00  0.00    +0.000 A 
ATOM     22  C   UNL     1      40.340  30.948  51.112  0.00  0.00    +0.000 A 
ATOM     23  H   UNL     1      40.469  29.939  50.797  0.00  0.00    +0.000 HD
ATOM     24  C   UNL     1      41.414  31.643  51.604  0.00  0.00    +0.000 A 
ATOM     25  H   UNL     1      42.386  31.148  51.664  0.00  0.00    +0.000 HD
ATOM     26  C   UNL     1      41.235  32.950  52.008  0.00  0.00    +0.000 A 
ATOM     27  C   UNL     1      40.036  33.627  51.955  0.00  0.00    +0.000 A 
BRANCH  20  29
ATOM     28  H   UNL     1      36.567  32.912  50.564  0.00  0.00    +0.000 HD
ATOM     29  S   UNL     1      37.380  33.669  51.342  0.00  0.00    +0.000 S 
ATOM     30  O   UNL     1      37.476  35.018  50.647  0.00  0.00    +0.000 OA
ATOM     31  O   UNL     1      36.737  33.867  52.703  0.00  0.00    +0.000 OA
ENDBRANCH  20  29
ENDBRANCH   2  21
TORSDOF 3
