
 OpenBabel03272506353D

 22 23  0  0  0  0  0  0  0  0999 V2000
   33.7600   28.9850   46.8270 C   0  0  0  0  0  0  0  0  0  0  0  0
   34.1770   28.9330   48.1420 C   0  0  0  0  0  0  0  0  0  0  0  0
   33.3560   28.2860   49.0510 C   0  0  0  0  0  0  0  0  0  0  0  0
   33.7050   28.2580   50.0830 H   0  0  0  0  0  0  0  0  0  0  0  0
   32.1590   27.7020   48.7120 C   0  0  0  0  0  0  0  0  0  0  0  0
   31.5560   27.2120   49.4500 H   0  0  0  0  0  0  0  0  0  0  0  0
   31.7180   27.7380   47.4150 C   0  0  0  0  0  3  0  0  0  0  0  0
   32.5390   28.3820   46.5110 C   0  0  0  0  0  3  0  0  0  0  0  0
   37.3040   29.4410   49.9870 C   0  0  0  0  0  0  0  0  0  0  0  0
   37.8200   30.6120   49.4340 C   0  0  0  0  0  0  0  0  0  0  0  0
   37.0980   31.2310   48.4280 C   0  0  0  0  0  0  0  0  0  0  0  0
   35.9310   30.6670   48.0340 N   0  0  0  0  0  0  0  0  0  0  0  0
   35.4360   29.5310   48.5730 C   0  0  0  0  0  0  0  0  0  0  0  0
   36.1420   28.9470   49.5410 N   0  0  0  0  0  0  0  0  0  0  0  0
   38.7460   31.0960   49.7170 H   0  0  0  0  0  0  0  0  0  0  0  0
   37.4360   32.1240   47.9650 H   0  0  0  0  0  0  0  0  0  0  0  0
   38.1180   28.9170   50.9850 O   0  0  0  0  0  0  0  0  0  0  0  0
   38.8660   28.3050   50.7270 H   0  0  0  0  0  0  0  0  0  0  0  0
   35.7640   30.4970   46.1250 H   0  0  0  0  0  0  0  0  0  0  0  0
   34.7300   29.7780   45.6100 S   0  0  0  0  0  0  0  0  0  0  0  0
   33.8050   30.6820   44.8060 O   0  0  0  0  0  0  0  0  0  0  0  0
   35.2530   28.7860   44.5800 O   0  0  0  0  0  0  0  0  0  0  0  0
  1  2  1  0  0  0  0
  2 13  1  0  0  0  0
  2  3  2  0  0  0  0
  3  4  1  0  0  0  0
  5  3  1  0  0  0  0
  5  6  1  0  0  0  0
  7  5  2  0  0  0  0
  8  1  2  0  0  0  0
  8  7  1  0  0  0  0
  9 17  1  0  0  0  0
 10 15  1  0  0  0  0
 10  9  2  0  0  0  0
 11 10  1  0  0  0  0
 12 11  2  0  0  0  0
 12 13  1  0  0  0  0
 13 14  2  0  0  0  0
 14  9  1  0  0  0  0
 16 11  1  0  0  0  0
 18 17  1  0  0  0  0
 20 19  1  0  0  0  0
 20  1  1  0  0  0  0
 21 20  2  0  0  0  0
 22 20  2  0  0  0  0
M  END
>  <minimizedAffinity>
-4.5127058

>  <minimizedRMSD>
1.53663516

$$$$
