
     RDKit          3D

 53 57  0  0  0  0  0  0  0  0999 V2000
   38.7484   32.1199   46.8524 C   0  0  1  0  0  0  0  0  0  0  0  0
   39.7671   32.9640   46.1222 C   0  0  0  0  0  0  0  0  0  0  0  0
   39.9161   31.4982   46.2158 C   0  0  2  0  0  0  0  0  0  0  0  0
   38.6782   32.3365   48.3316 C   0  0  0  0  0  0  0  0  0  0  0  0
   37.4407   30.0322   51.0177 C   0  0  0  0  0  0  0  0  0  0  0  0
   38.1437   31.0825   50.3448 C   0  0  0  0  0  0  0  0  0  0  0  0
   37.9402   31.2439   49.0052 C   0  0  0  0  0  0  0  0  0  0  0  0
   37.0856   30.4041   48.3827 N   0  0  0  0  0  0  0  0  0  0  0  0
   36.4319   29.4246   49.0179 C   0  0  0  0  0  0  0  0  0  0  0  0
   36.6185   29.2517   50.3282 N   0  0  0  0  0  0  0  0  0  0  0  0
   39.6616   30.5852   45.0712 C   0  0  0  0  0  0  0  0  0  0  0  0
   40.4795   30.9082   43.8414 C   0  0  0  0  0  0  0  0  0  0  0  0
   39.3999   28.7868   43.1553 C   0  0  0  0  0  0  0  0  0  0  0  0
   40.3528   29.7570   42.8926 C   0  0  0  0  0  0  0  0  0  0  0  0
   41.1520   29.6291   41.7654 C   0  0  0  0  0  0  0  0  0  0  0  0
   41.0323   28.5760   40.9013 C   0  0  0  0  0  0  0  0  0  0  0  0
   41.6876   28.2596   39.7732 N   0  0  0  0  0  0  0  0  0  0  0  0
   41.1483   27.1005   39.3341 C   0  0  0  0  0  0  0  0  0  0  0  0
   40.1334   26.6368   40.1625 C   0  0  0  0  0  0  0  0  0  0  0  0
   40.0868   27.6108   41.1595 C   0  0  0  0  0  0  0  0  0  0  0  0
   39.2962   27.7286   42.2661 C   0  0  0  0  0  0  0  0  0  0  0  0
   37.7480   31.9683   46.3782 H   0  0  0  0  0  0  0  0  0  0  0  0
   40.4020   33.6607   46.6819 H   0  0  0  0  0  0  0  0  0  0  0  0
   39.4330   33.3282   45.1285 H   0  0  0  0  0  0  0  0  0  0  0  0
   40.7171   31.1871   46.9501 H   0  0  0  0  0  0  0  0  0  0  0  0
   39.6756   32.4157   48.7910 H   0  0  0  0  0  0  0  0  0  0  0  0
   38.1106   33.3013   48.4790 H   0  0  0  0  0  0  0  0  0  0  0  0
   37.6649   29.9812   52.0750 H   0  0  0  0  0  0  0  0  0  0  0  0
   38.8205   31.7333   50.8846 H   0  0  0  0  0  0  0  0  0  0  0  0
   35.7519   28.7539   48.5306 H   0  0  0  0  0  0  0  0  0  0  0  0
   39.9792   29.5696   45.3858 H   0  0  0  0  0  0  0  0  0  0  0  0
   38.6050   30.6593   44.7537 H   0  0  0  0  0  0  0  0  0  0  0  0
   40.0674   31.8047   43.3313 H   0  0  0  0  0  0  0  0  0  0  0  0
   41.5370   31.0362   44.1444 H   0  0  0  0  0  0  0  0  0  0  0  0
   38.7301   28.7798   43.9894 H   0  0  0  0  0  0  0  0  0  0  0  0
   41.8945   30.4193   41.5938 H   0  0  0  0  0  0  0  0  0  0  0  0
   42.4611   28.7695   39.2925 H   0  0  0  0  0  0  0  0  0  0  0  0
   41.4742   26.5899   38.4328 H   0  0  0  0  0  0  0  0  0  0  0  0
   39.5516   25.7477   40.0369 H   0  0  0  0  0  0  0  0  0  0  0  0
   36.7892   29.2627   42.6907 H   0  0  0  0  0  0  0  0  0  0  0  0
   36.6747   28.3439   43.7057 S   0  0  0  0  0  0  0  0  0  0  0  0
   37.4861   28.7529   44.9025 O   0  0  0  0  0  0  0  0  0  0  0  0
   35.2278   28.3371   44.1199 O   0  0  0  0  0  0  0  0  0  0  0  0
   37.0764   26.7575   43.1302 C   0  0  0  0  0  0  0  0  0  0  0  0
   38.2936   26.6740   42.5099 C   0  0  0  0  0  0  0  0  0  0  0  0
   38.7415   25.4538   41.9988 C   0  0  0  0  0  0  0  0  0  0  0  0
   39.6913   25.2697   41.4865 H   0  0  0  0  0  0  0  0  0  0  0  0
   37.9768   24.3066   42.1032 C   0  0  0  0  0  0  0  0  0  0  0  0
   38.2665   23.3533   41.7337 H   0  0  0  0  0  0  0  0  0  0  0  0
   36.7494   24.4032   42.7317 C   0  0  0  0  0  0  0  0  0  0  0  0
   36.3154   25.6122   43.2332 C   0  0  0  0  0  0  0  0  0  0  0  0
   36.1171   23.5290   42.8357 H   0  0  0  0  0  0  0  0  0  0  0  0
   35.3603   25.7501   43.7371 H   0  0  0  0  0  0  0  0  0  0  0  0
  1  4  1  0
  2  3  1  0
  2  1  1  0
  3  1  1  0
  4  7  1  0
  6  5  2  0
  7  6  1  0
  8  7  2  0
  8  9  1  0
  9 10  2  0
 10  5  1  0
 11  3  1  0
 12 11  1  0
 14 13  2  0
 14 12  1  0
 15 14  1  0
 16 20  1  0
 16 15  2  0
 17 16  1  0
 18 17  1  0
 18 19  2  0
 19 20  1  0
 20 21  2  0
 21 13  1  0
  1 22  1  6
  2 23  1  0
  2 24  1  0
  3 25  1  1
  4 26  1  0
  4 27  1  0
  5 28  1  0
  6 29  1  0
  9 30  1  0
 11 31  1  0
 11 32  1  0
 12 33  1  0
 12 34  1  0
 13 35  1  0
 15 36  1  0
 17 37  1  0
 18 38  1  0
 19 39  1  0
 40 41  1  0
 41 42  2  0
 41 43  2  0
 41 44  1  0
 44 45  2  0
 45 46  1  0
 46 47  1  0
 46 48  2  0
 48 49  1  0
 48 50  1  0
 50 51  2  0
 51 44  1  0
 50 52  1  0
 51 53  1  0
 21 45  1  0
M  ISO  8  22  13  23  13  24  13  25  13  26   8  27   8  28  14  29  14
M  ISO  8  30  14  31   8  32   8  33   8  34   8  35  14  36  14  37   9
M  ISO  5  38  14  39  14  40  12  47  15  49  16
M  END
>  <DihAtoms>  (1) 
19,20,44,43

>  <DihDeg>  (1) 
89.99885498265287

$$$$
