
 OpenBabel03272507203D

 33 35  0  0  1  0  0  0  0  0999 V2000
   38.0180   31.1390   49.7550 C   0  0  0  0  0  0  0  0  0  0  0  0
   38.3460   32.4730   49.8860 C   0  0  0  0  0  0  0  0  0  0  0  0
   38.5120   33.1720   48.6940 C   0  0  0  0  0  0  0  0  0  0  0  0
   38.3470   32.5250   47.4880 N   0  0  0  0  0  0  0  0  0  0  0  0
   38.0270   31.2190   47.4320 C   0  0  0  0  0  0  0  0  0  0  0  0
   37.8570   30.4980   48.5650 N   0  0  0  0  0  0  0  0  0  0  0  0
   38.4610   32.9200   50.8620 H   0  0  0  0  0  0  0  0  0  0  0  0
   38.7680   34.2130   48.7610 H   0  0  0  0  0  0  0  0  0  0  0  0
   38.8530   31.2700   44.9960 C   0  0  0  0  0  0  0  0  0  0  0  0
   37.9690   31.0400   46.0080 C   0  0  0  0  0  0  0  0  0  0  0  0
   36.7080   30.5200   45.6900 C   0  0  0  0  0  0  0  0  0  0  0  0
   35.8070   30.2340   46.2450 H   0  0  0  0  0  0  0  0  0  0  0  0
   36.4280   30.2650   44.3420 C   0  0  0  0  0  0  0  0  0  0  0  0
   35.5120   29.8670   43.9250 H   0  0  0  0  0  0  0  0  0  0  0  0
   37.3890   30.5300   43.3910 C   0  0  0  0  0  3  0  0  0  0  0  0
   38.6350   31.0390   43.6610 C   0  0  0  0  0  3  0  0  0  0  0  0
   40.1720   32.3680   46.8670 H   0  0  0  0  0  0  0  0  0  0  0  0
   40.3580   31.9440   45.5780 S   0  0  0  0  0  0  0  0  0  0  0  0
   40.5860   33.1720   44.7000 O   0  0  0  0  0  0  0  0  0  0  0  0
   41.4880   30.9970   45.4610 O   0  0  0  0  0  0  0  0  0  0  0  0
   37.7890   30.3900   51.0340 C   0  0  1  0  0  0  0  0  0  0  0  0
   36.5440   29.6700   51.2920 C   0  0  2  0  0  0  0  0  0  0  0  0
   37.7110   28.8650   50.8110 C   0  0  0  0  0  0  0  0  0  0  0  0
   38.4530   30.6950   51.8700 H   0  0  0  0  0  0  0  0  0  0  0  0
   36.2440   29.6930   52.3860 H   0  0  0  0  0  0  0  0  0  0  0  0
   37.6700   28.4880   49.7680 H   0  0  0  0  0  0  0  0  0  0  0  0
   38.2940   28.2580   51.5190 H   0  0  0  0  0  0  0  0  0  0  0  0
   35.4820   29.9070   50.4320 O   0  0  0  0  0  0  0  0  0  0  0  0
   34.4700   29.0820   50.0630 C   0  0  0  0  0  0  0  0  0  0  0  0
   34.6730   28.0380   49.4230 O   0  0  0  0  0  0  0  0  0  0  0  0
   33.2650   29.6190   50.5190 N   0  0  0  0  0  0  0  0  0  0  0  0
   32.8830   30.5800   50.3690 H   0  0  0  0  0  0  0  0  0  0  0  0
   32.3470   29.5830   51.0300 H   0  0  0  0  0  0  0  0  0  0  0  0
  1  2  1  0  0  0  0
  1 21  1  0  0  0  0
  2  7  1  0  0  0  0
  3  8  1  0  0  0  0
  3  2  2  0  0  0  0
  4  3  1  0  0  0  0
  5  4  2  0  0  0  0
  5  6  1  0  0  0  0
  6  1  2  0  0  0  0
  9 18  1  0  0  0  0
  9 10  1  0  0  0  0
 10  5  1  0  0  0  0
 11 10  2  0  0  0  0
 11 12  1  0  0  0  0
 13 11  1  0  0  0  0
 14 13  1  0  0  0  0
 15 16  1  0  0  0  0
 15 13  2  0  0  0  0
 16  9  2  0  0  0  0
 18 17  1  0  0  0  0
 19 18  2  0  0  0  0
 20 18  2  0  0  0  0
 21 22  1  0  0  0  0
 21 24  1  1  0  0  0
 22 25  1  1  0  0  0
 23 21  1  0  0  0  0
 23 22  1  0  0  0  0
 23 27  1  0  0  0  0
 26 23  1  0  0  0  0
 28 22  1  0  0  0  0
 29 28  1  0  0  0  0
 29 31  1  0  0  0  0
 30 29  2  0  0  0  0
 31 33  1  0  0  0  0
 32 31  1  0  0  0  0
M  END
>  <minimizedAffinity>
-5.97503662

>  <minimizedRMSD>
1.5521251

$$$$
