
 OpenBabel03272509383D

 33 35  0  0  1  0  0  0  0  0999 V2000
   35.2220   30.0180   47.9120 C   0  0  0  0  0  0  0  0  0  0  0  0
   35.0530   30.3030   49.2720 C   0  0  0  0  0  0  0  0  0  0  0  0
   35.9520   31.1180   49.9750 C   0  0  0  0  0  0  0  0  0  0  0  0
   37.0570   31.6620   49.2810 C   0  0  0  0  0  0  0  0  0  0  0  0
   37.2080   31.3670   47.9290 C   0  0  0  0  0  0  0  0  0  0  0  0
   36.3080   30.5590   47.2540 C   0  0  0  0  0  0  0  0  0  0  0  0
   34.2110   29.8910   49.8100 H   0  0  0  0  0  0  0  0  0  0  0  0
   35.8130   31.3310   51.0200 H   0  0  0  0  0  0  0  0  0  0  0  0
   37.7340   32.2870   49.8480 H   0  0  0  0  0  0  0  0  0  0  0  0
   38.0830   31.8330   47.4970 H   0  0  0  0  0  0  0  0  0  0  0  0
   37.7570   30.7600   45.1170 C   0  0  0  0  0  0  0  0  0  0  0  0
   36.6470   30.4050   45.8560 C   0  0  0  0  0  0  0  0  0  0  0  0
   35.5840   29.7950   45.1760 C   0  0  0  0  0  0  0  0  0  0  0  0
   34.6310   29.4480   45.5960 H   0  0  0  0  0  0  0  0  0  0  0  0
   35.6560   29.5600   43.7980 C   0  0  0  0  0  0  0  0  0  0  0  0
   34.8600   29.0920   43.2350 H   0  0  0  0  0  0  0  0  0  0  0  0
   36.7760   29.9250   43.0820 C   0  0  0  0  0  3  0  0  0  0  0  0
   37.8140   30.5230   43.7620 C   0  0  0  0  0  3  0  0  0  0  0  0
   38.6860   31.5090   47.4180 H   0  0  0  0  0  0  0  0  0  0  0  0
   39.0190   31.4800   46.0910 S   0  0  0  0  0  0  0  0  0  0  0  0
   40.3330   30.7780   45.9530 O   0  0  0  0  0  0  0  0  0  0  0  0
   39.2350   32.9270   45.6920 O   0  0  0  0  0  0  0  0  0  0  0  0
   34.2650   29.1420   47.2640 C   0  0  1  0  0  3  0  0  0  0  0  0
   34.5500   27.8900   47.3740 O   0  0  0  0  0  1  0  0  0  0  0  0
   31.9410   31.4430   45.7090 C   0  0  0  0  0  0  0  0  0  0  0  0
   30.9320   30.6160   45.1920 C   0  0  0  0  0  0  0  0  0  0  0  0
   31.0490   29.2370   45.3860 C   0  0  0  0  0  0  0  0  0  0  0  0
   32.1360   28.7430   46.0670 N   0  0  0  0  0  0  0  0  0  0  0  0
   33.0730   29.5610   46.5420 C   0  0  0  0  0  0  0  0  0  0  0  0
   32.9590   30.8730   46.3570 N   0  0  0  0  0  0  0  0  0  0  0  0
   31.7690   32.4890   45.5130 H   0  0  0  0  0  0  0  0  0  0  0  0
   30.0390   30.9020   44.6420 H   0  0  0  0  0  0  0  0  0  0  0  0
   30.3620   28.4710   45.0520 H   0  0  0  0  0  0  0  0  0  0  0  0
  1  2  1  0  0  0  0
  2  7  1  0  0  0  0
  2  3  2  0  0  0  0
  3  8  1  0  0  0  0
  4  9  1  0  0  0  0
  4  3  1  0  0  0  0
  5  4  2  0  0  0  0
  6  1  2  0  0  0  0
  6  5  1  0  0  0  0
 10  5  1  0  0  0  0
 11 12  1  0  0  0  0
 11 20  1  0  0  0  0
 12  6  1  0  0  0  0
 13 14  1  0  0  0  0
 13 12  2  0  0  0  0
 15 13  1  0  0  0  0
 16 15  1  0  0  0  0
 17 18  1  0  0  0  0
 17 15  2  0  0  0  0
 18 11  2  0  0  0  0
 20 19  1  0  0  0  0
 21 20  2  0  0  0  0
 22 20  2  0  0  0  0
 23 24  1  1  0  0  0
 23  1  1  0  0  0  0
 25 30  1  0  0  0  0
 26 27  1  0  0  0  0
 26 25  2  0  0  0  0
 27 28  2  0  0  0  0
 28 29  1  0  0  0  0
 29 23  1  0  0  0  0
 30 29  2  0  0  0  0
 31 25  1  0  0  0  0
 32 26  1  0  0  0  0
 33 27  1  0  0  0  0
M  END
>  <minimizedAffinity>
-4.92065144

>  <minimizedRMSD>
1.55703127

$$$$
