
 OpenBabel03272510173D

 31 33  0  0  0  0  0  0  0  0999 V2000
   37.2140   29.1530   50.7780 Br  0  0  0  0  0  0  0  0  0  0  0  0
   35.9530   29.2400   49.3390 C   0  0  0  0  0  0  0  0  0  0  0  0
   36.0020   30.2600   48.4180 C   0  0  0  0  0  0  0  0  0  0  0  0
   35.0630   30.2530   47.4140 C   0  0  0  0  0  0  0  0  0  0  0  0
   34.0790   29.2740   47.2910 C   0  0  0  0  0  0  0  0  0  0  0  0
   34.0740   28.2800   48.2350 C   0  0  0  0  0  0  0  0  0  0  0  0
   35.0040   28.2640   49.2490 C   0  0  0  0  0  0  0  0  0  0  0  0
   35.1480   31.0910   46.7060 H   0  0  0  0  0  0  0  0  0  0  0  0
   33.2970   27.5410   48.1010 H   0  0  0  0  0  0  0  0  0  0  0  0
   34.9470   27.4470   49.9680 H   0  0  0  0  0  0  0  0  0  0  0  0
   37.8300   33.1690   49.6530 C   0  0  0  0  0  0  0  0  0  0  0  0
   38.9070   33.3020   48.7380 C   0  0  0  0  0  0  0  0  0  0  0  0
   38.9820   32.3740   47.7030 C   0  0  0  0  0  0  0  0  0  0  0  0
   38.0310   31.4000   47.6200 N   0  0  0  0  0  0  0  0  0  0  0  0
   37.0190   31.3070   48.5110 C   0  0  0  0  0  0  0  0  0  0  0  0
   36.9320   32.1970   49.5200 N   0  0  0  0  0  0  0  0  0  0  0  0
   37.6970   33.8540   50.4930 H   0  0  0  0  0  0  0  0  0  0  0  0
   39.6140   34.1030   48.8790 H   0  0  0  0  0  0  0  0  0  0  0  0
   39.7950   32.4480   46.9870 H   0  0  0  0  0  0  0  0  0  0  0  0
   33.5270   29.4260   44.8390 C   0  0  0  0  0  0  0  0  0  0  0  0
   33.1870   29.4580   46.1530 C   0  0  0  0  0  0  0  0  0  0  0  0
   31.8380   29.6950   46.4420 C   0  0  0  0  0  0  0  0  0  0  0  0
   31.4710   29.7380   47.4790 H   0  0  0  0  0  0  0  0  0  0  0  0
   30.8710   29.8910   45.5020 C   0  0  0  0  0  0  0  0  0  0  0  0
   29.8370   30.0720   45.7530 H   0  0  0  0  0  0  0  0  0  0  0  0
   31.2190   29.8580   44.1760 C   0  0  0  0  0  3  0  0  0  0  0  0
   32.5390   29.6260   43.8720 C   0  0  0  0  0  3  0  0  0  0  0  0
   35.9050   28.8600   45.5490 H   0  0  0  0  0  0  0  0  0  0  0  0
   35.1810   29.1340   44.4370 S   0  0  0  0  0  0  0  0  0  0  0  0
   35.3680   28.1140   43.3480 O   0  0  0  0  0  0  0  0  0  0  0  0
   35.7300   30.4450   43.8920 O   0  0  0  0  0  0  0  0  0  0  0  0
  2  1  1  0  0  0  0
  3 15  1  0  0  0  0
  3  2  2  0  0  0  0
  4  3  1  0  0  0  0
  5  4  2  0  0  0  0
  5  6  1  0  0  0  0
  6  7  2  0  0  0  0
  7  2  1  0  0  0  0
  7 10  1  0  0  0  0
  8  4  1  0  0  0  0
  9  6  1  0  0  0  0
 11 17  1  0  0  0  0
 12 18  1  0  0  0  0
 12 11  2  0  0  0  0
 13 12  1  0  0  0  0
 14 13  2  0  0  0  0
 14 15  1  0  0  0  0
 15 16  2  0  0  0  0
 16 11  1  0  0  0  0
 19 13  1  0  0  0  0
 20 21  1  0  0  0  0
 21 22  2  0  0  0  0
 21  5  1  0  0  0  0
 22 23  1  0  0  0  0
 24 25  1  0  0  0  0
 24 22  1  0  0  0  0
 26 24  2  0  0  0  0
 27 26  1  0  0  0  0
 27 20  2  0  0  0  0
 29 20  1  0  0  0  0
 29 28  1  0  0  0  0
 30 29  2  0  0  0  0
 31 29  2  0  0  0  0
M  END
>  <minimizedAffinity>
-5.4940505

>  <minimizedRMSD>
0.964812934

$$$$
