REMARK  Name = 
REMARK  4 active torsions:
REMARK  status: ('A' for Active; 'I' for Inactive)
REMARK    1  A    between atoms: C_1  and  N_7
REMARK    2  A    between atoms: C_5  and  C_13
REMARK    3  A    between atoms: C_17  and  C_37
REMARK    4  A    between atoms: S_33  and  C_36
REMARK                            x       y       z     vdW  Elec       q    Type
REMARK                         _______ _______ _______ _____ _____    ______ ____
ROOT
ATOM      1  C   UNL     1      35.117  29.627  47.563  0.00  0.00    +0.000 A 
ATOM      2  C   UNL     1      35.283  30.055  46.243  0.00  0.00    +0.000 A 
ATOM      3  C   UNL     1      34.258  29.911  45.328  0.00  0.00    +0.000 A 
ATOM      4  N   UNL     1      33.095  29.341  45.763  0.00  0.00    +0.000 NA
ATOM      5  C   UNL     1      32.958  28.935  47.041  0.00  0.00    +0.000 A 
ATOM      6  N   UNL     1      33.957  29.073  47.943  0.00  0.00    +0.000 NA
ATOM      7  H   UNL     1      36.237  30.499  45.973  0.00  0.00    +0.000 HD
ATOM      8  H   UNL     1      34.364  30.233  44.309  0.00  0.00    +0.000 HD
ENDROOT
BRANCH   1   9
ATOM      9  N   UNL     1      36.131  29.744  48.562  0.00  0.00    +0.000 N 
ATOM     10  C   UNL     1      36.190  28.889  49.721  0.00  0.00    +0.000 C 
ATOM     11  C   UNL     1      36.466  29.595  51.011  0.00  0.00    +0.000 C 
ATOM     12  N   UNL     1      37.212  30.803  50.957  0.00  0.00    +0.000 NA
ATOM     13  C   UNL     1      36.948  31.607  49.766  0.00  0.00    +0.000 C 
ATOM     14  C   UNL     1      37.203  30.681  48.580  0.00  0.00    +0.000 C 
ATOM     15  H   UNL     1      37.043  28.182  49.534  0.00  0.00    +0.000 HD
ATOM     16  H   UNL     1      35.284  28.264  49.857  0.00  0.00    +0.000 HD
ATOM     17  H   UNL     1      35.498  29.779  51.523  0.00  0.00    +0.000 HD
ATOM     18  H   UNL     1      37.012  28.883  51.678  0.00  0.00    +0.000 HD
ATOM     19  H   UNL     1      38.230  30.545  50.970  0.00  0.00    +0.000 HD
ATOM     20  H   UNL     1      35.873  31.835  49.764  0.00  0.00    +0.000 HD
ATOM     21  H   UNL     1      37.617  32.475  49.785  0.00  0.00    +0.000 HD
ATOM     22  H   UNL     1      38.182  30.186  48.765  0.00  0.00    +0.000 HD
ATOM     23  H   UNL     1      37.306  31.246  47.635  0.00  0.00    +0.000 HD
ENDBRANCH   1   9
BRANCH   5  24
ATOM     24  C   UNL     1      31.696  28.331  47.468  0.00  0.00    +0.000 A 
ATOM     25  C   UNL     1      31.646  27.438  48.500  0.00  0.00    +0.000 A 
ATOM     26  C   UNL     1      30.474  26.845  48.938  0.00  0.00    +0.000 A 
ATOM     27  N   UNL     1      29.359  27.209  48.269  0.00  0.00    +0.000 NA
ATOM     28  C   UNL     1      29.393  28.079  47.261  0.00  0.00    +0.000 A 
ATOM     29  N   UNL     1      30.556  28.632  46.868  0.00  0.00    +0.000 NA
ATOM     30  H   UNL     1      32.547  27.148  49.035  0.00  0.00    +0.000 HD
ATOM     31  H   UNL     1      30.423  26.150  49.738  0.00  0.00    +0.000 HD
BRANCH  28  33
ATOM     32  C   UNL     1      27.864  29.863  46.467  0.00  0.00    +0.000 A 
ATOM     33  C   UNL     1      28.214  28.519  46.487  0.00  0.00    +0.000 A 
ATOM     34  C   UNL     1      27.430  27.608  45.768  0.00  0.00    +0.000 A 
ATOM     35  H   UNL     1      27.712  26.564  45.791  0.00  0.00    +0.000 HD
ATOM     36  C   UNL     1      26.327  27.975  45.038  0.00  0.00    +0.000 A 
ATOM     37  H   UNL     1      25.762  27.235  44.505  0.00  0.00    +0.000 HD
ATOM     38  C   UNL     1      25.949  29.299  44.994  0.00  0.00    +0.000 A 
ATOM     39  C   UNL     1      26.731  30.180  45.707  0.00  0.00    +0.000 A 
BRANCH  32  41
ATOM     40  H   UNL     1      28.116  32.301  47.043  0.00  0.00    +0.000 HD
ATOM     41  S   UNL     1      28.757  31.093  47.321  0.00  0.00    +0.000 S 
ATOM     42  O   UNL     1      28.695  30.892  48.809  0.00  0.00    +0.000 OA
ATOM     43  O   UNL     1      30.151  31.260  46.812  0.00  0.00    +0.000 OA
ENDBRANCH  32  41
ENDBRANCH  28  33
ENDBRANCH   5  24
TORSDOF 4
