REMARK  Name = 
REMARK  3 active torsions:
REMARK  status: ('A' for Active; 'I' for Inactive)
REMARK    1  A    between atoms: C_5  and  C_7
REMARK    2  A    between atoms: C_12  and  C_25
REMARK    3  A    between atoms: S_21  and  C_24
REMARK                            x       y       z     vdW  Elec       q    Type
REMARK                         _______ _______ _______ _____ _____    ______ ____
ROOT
ATOM      1  C   UNL     1      36.102  30.136  48.602  0.00  0.00    +0.000 A 
ATOM      2  C   UNL     1      35.282  29.954  47.505  0.00  0.00    +0.000 A 
ATOM      3  C   UNL     1      34.296  28.985  47.501  0.00  0.00    +0.000 A 
ATOM      4  C   UNL     1      34.151  28.200  48.629  0.00  0.00    +0.000 A 
ATOM      5  C   UNL     1      34.965  28.359  49.756  0.00  0.00    +0.000 A 
ATOM      6  C   UNL     1      35.938  29.337  49.719  0.00  0.00    +0.000 A 
ATOM      7  H   UNL     1      35.394  30.571  46.616  0.00  0.00    +0.000 HD
ATOM      8  H   UNL     1      33.681  28.883  46.617  0.00  0.00    +0.000 HD
ATOM      9  H   UNL     1      33.345  27.459  48.539  0.00  0.00    +0.000 HD
ATOM     10  H   UNL     1      34.774  27.700  50.582  0.00  0.00    +0.000 HD
ENDROOT
BRANCH   1  15
ATOM     11  C   UNL     1      37.999  33.105  49.489  0.00  0.00    +0.000 A 
ATOM     12  C   UNL     1      38.969  33.208  48.466  0.00  0.00    +0.000 A 
ATOM     13  C   UNL     1      38.953  32.211  47.446  0.00  0.00    +0.000 A 
ATOM     14  N   UNL     1      38.014  31.245  47.535  0.00  0.00    +0.000 NA
ATOM     15  C   UNL     1      37.111  31.183  48.524  0.00  0.00    +0.000 A 
ATOM     16  N   UNL     1      37.103  32.113  49.502  0.00  0.00    +0.000 NA
ATOM     17  H   UNL     1      38.030  33.880  50.261  0.00  0.00    +0.000 HD
ATOM     18  H   UNL     1      39.698  34.009  48.446  0.00  0.00    +0.000 HD
ATOM     19  H   UNL     1      39.688  32.279  46.662  0.00  0.00    +0.000 HD
ENDBRANCH   1  15
BRANCH   6  21
ATOM     20  C   UNL     1      36.614  29.108  52.194  0.00  0.00    +0.000 A 
ATOM     21  C   UNL     1      36.800  29.503  50.884  0.00  0.00    +0.000 A 
ATOM     22  C   UNL     1      37.984  30.166  50.561  0.00  0.00    +0.000 A 
ATOM     23  H   UNL     1      38.288  30.543  49.582  0.00  0.00    +0.000 HD
ATOM     24  C   UNL     1      38.948  30.419  51.534  0.00  0.00    +0.000 A 
ATOM     25  H   UNL     1      39.883  30.926  51.344  0.00  0.00    +0.000 HD
ATOM     26  C   UNL     1      38.731  30.006  52.853  0.00  0.00    +0.000 A 
ATOM     27  C   UNL     1      37.552  29.354  53.145  0.00  0.00    +0.000 A 
BRANCH  20  29
ATOM     28  H   UNL     1      34.678  28.608  53.745  0.00  0.00    +0.000 HD
ATOM     29  S   UNL     1      35.096  28.292  52.478  0.00  0.00    +0.000 S 
ATOM     30  O   UNL     1      35.330  26.821  52.413  0.00  0.00    +0.000 OA
ATOM     31  O   UNL     1      34.047  28.651  51.479  0.00  0.00    +0.000 OA
ENDBRANCH  20  29
ENDBRANCH   6  21
TORSDOF 3
