
 OpenBabel03272510333D

 31 33  0  0  0  0  0  0  0  0999 V2000
   36.9000   30.6860   45.9890 C   0  0  0  0  0  0  0  0  0  0  0  0
   36.0870   30.1180   45.0270 C   0  0  0  0  0  0  0  0  0  0  0  0
   34.8420   29.6110   45.3510 C   0  0  0  0  0  0  0  0  0  0  0  0
   34.4310   29.6880   46.6670 C   0  0  0  0  0  0  0  0  0  0  0  0
   35.2300   30.2570   47.6650 C   0  0  0  0  0  0  0  0  0  0  0  0
   36.4670   30.7510   47.3010 C   0  0  0  0  0  0  0  0  0  0  0  0
   36.4090   30.0560   43.9900 H   0  0  0  0  0  0  0  0  0  0  0  0
   34.2450   29.1760   44.5610 H   0  0  0  0  0  0  0  0  0  0  0  0
   33.4310   29.2630   46.8330 H   0  0  0  0  0  0  0  0  0  0  0  0
   34.8220   30.2700   48.6580 H   0  0  0  0  0  0  0  0  0  0  0  0
   39.3440   32.8910   44.4510 C   0  0  0  0  0  0  0  0  0  0  0  0
   40.5820   32.2550   44.7000 C   0  0  0  0  0  0  0  0  0  0  0  0
   40.5520   31.0260   45.4240 C   0  0  0  0  0  0  0  0  0  0  0  0
   39.3460   30.5640   45.8170 N   0  0  0  0  0  0  0  0  0  0  0  0
   38.1940   31.2000   45.5610 C   0  0  0  0  0  0  0  0  0  0  0  0
   38.1920   32.3640   44.8780 N   0  0  0  0  0  0  0  0  0  0  0  0
   39.3910   33.8320   43.8950 H   0  0  0  0  0  0  0  0  0  0  0  0
   41.5200   32.6730   44.3570 H   0  0  0  0  0  0  0  0  0  0  0  0
   41.4890   30.5330   45.6200 H   0  0  0  0  0  0  0  0  0  0  0  0
   37.6500   30.8590   49.5860 C   0  0  0  0  0  0  0  0  0  0  0  0
   37.3130   31.3350   48.3350 C   0  0  0  0  0  0  0  0  0  0  0  0
   37.8400   32.5640   47.9370 C   0  0  0  0  0  0  0  0  0  0  0  0
   37.6770   33.0820   46.9900 H   0  0  0  0  0  0  0  0  0  0  0  0
   38.6830   33.2860   48.7810 C   0  0  0  0  0  0  0  0  0  0  0  0
   39.1200   34.2400   48.5280 H   0  0  0  0  0  0  0  0  0  0  0  0
   39.0060   32.7760   50.0430 C   0  0  0  0  0  3  0  0  0  0  0  0
   38.4700   31.5590   50.4100 C   0  0  0  0  0  3  0  0  0  0  0  0
   36.5350   28.7280   48.7970 H   0  0  0  0  0  0  0  0  0  0  0  0
   36.9310   29.3150   49.9720 S   0  0  0  0  0  0  0  0  0  0  0  0
   35.7200   29.5520   50.8100 O   0  0  0  0  0  0  0  0  0  0  0  0
   37.8570   28.4120   50.7170 O   0  0  0  0  0  0  0  0  0  0  0  0
  1  6  1  0  0  0  0
  2  3  1  0  0  0  0
  2  1  2  0  0  0  0
  3  4  2  0  0  0  0
  4  9  1  0  0  0  0
  4  5  1  0  0  0  0
  5 10  1  0  0  0  0
  6  5  2  0  0  0  0
  6 21  1  0  0  0  0
  7  2  1  0  0  0  0
  8  3  1  0  0  0  0
 11 12  2  0  0  0  0
 11 16  1  0  0  0  0
 12 13  1  0  0  0  0
 13 19  1  0  0  0  0
 13 14  2  0  0  0  0
 15 14  1  0  0  0  0
 15  1  1  0  0  0  0
 16 15  2  0  0  0  0
 17 11  1  0  0  0  0
 18 12  1  0  0  0  0
 20 29  1  0  0  0  0
 20 27  1  0  0  0  0
 21 20  2  0  0  0  0
 22 21  1  0  0  0  0
 22 24  2  0  0  0  0
 23 22  1  0  0  0  0
 24 26  1  0  0  0  0
 25 24  1  0  0  0  0
 26 27  2  0  0  0  0
 28 29  1  0  0  0  0
 29 31  2  0  0  0  0
 29 30  2  0  0  0  0
M  END
>  <minimizedAffinity>
-5.87197351

>  <minimizedRMSD>
3.41310167

$$$$
