REMARK  Name = 
REMARK  7 active torsions:
REMARK  status: ('A' for Active; 'I' for Inactive)
REMARK    1  A    between atoms: P_2  and  O_3
REMARK    2  A    between atoms: P_2  and  O_4
REMARK    3  A    between atoms: P_2  and  O_11
REMARK    4  A    between atoms: O_4  and  C_7
REMARK    5  A    between atoms: O_11  and  C_14
REMARK    6  A    between atoms: C_18  and  C_31
REMARK    7  A    between atoms: S_27  and  C_30
REMARK                            x       y       z     vdW  Elec       q    Type
REMARK                         _______ _______ _______ _____ _____    ______ ____
ROOT
ATOM      1 CL   UNL     1      36.622  29.440  44.041  0.00  0.00    +0.000 Cl
ATOM      2  C   UNL     1      38.257  29.827  43.485  0.00  0.00    +0.000 A 
ATOM      3  C   UNL     1      39.265  30.313  44.309  0.00  0.00    +0.000 A 
ATOM      4  C   UNL     1      40.507  30.576  43.742  0.00  0.00    +0.000 A 
ATOM      5  C   UNL     1      40.721  30.357  42.399  0.00  0.00    +0.000 A 
ATOM      6  C   UNL     1      39.744  29.881  41.578  0.00  0.00    +0.000 A 
ATOM      7  C   UNL     1      38.521  29.621  42.130  0.00  0.00    +0.000 A 
ATOM      8  H   UNL     1      41.223  30.945  44.437  0.00  0.00    +0.000 HD
ATOM      9  H   UNL     1      41.700  30.573  41.990  0.00  0.00    +0.000 HD
ATOM     10  H   UNL     1      39.970  29.728  40.527  0.00  0.00    +0.000 HD
ENDROOT
BRANCH   7  12
ATOM     11  C   UNL     1      37.682  27.776  40.878  0.00  0.00    +0.000 A 
ATOM     12  C   UNL     1      37.486  29.107  41.216  0.00  0.00    +0.000 A 
ATOM     13  C   UNL     1      36.431  29.852  40.738  0.00  0.00    +0.000 A 
ATOM     14  H   UNL     1      36.381  30.876  41.070  0.00  0.00    +0.000 HD
ATOM     15  C   UNL     1      35.509  29.291  39.886  0.00  0.00    +0.000 A 
ATOM     16  H   UNL     1      34.704  29.923  39.544  0.00  0.00    +0.000 HD
ATOM     17  C   UNL     1      35.675  27.970  39.531  0.00  0.00    +0.000 A 
ATOM     18  C   UNL     1      36.729  27.230  40.010  0.00  0.00    +0.000 A 
BRANCH  11  20
ATOM     19  H   UNL     1      38.672  26.187  42.662  0.00  0.00    +0.000 HD
ATOM     20  S   UNL     1      38.996  26.793  41.454  0.00  0.00    +0.000 S 
ATOM     21  O   UNL     1      40.300  27.498  41.526  0.00  0.00    +0.000 OA
ATOM     22  O   UNL     1      39.171  25.648  40.488  0.00  0.00    +0.000 OA
ENDBRANCH  11  20
ENDBRANCH   7  12
BRANCH   3  23
ATOM     23  O   UNL     1      38.852  30.461  45.603  0.00  0.00    +0.000 OA
BRANCH  23  25
ATOM     24  O   UNL     1      39.450  32.477  47.099  0.00  0.00    +0.000 OA
ATOM     25  P   UNL     1      38.307  31.831  46.405  0.00  0.00    +0.000 P 
BRANCH  25  26
ATOM     26  O   UNL     1      37.719  32.850  45.166  0.00  0.00    +0.000 OA
ATOM     27  H   UNL     1      37.295  32.340  44.439  0.00  0.00    +0.000 HD
ENDBRANCH  25  26
BRANCH  25  28
ATOM     28  O   UNL     1      37.031  31.399  47.434  0.00  0.00    +0.000 OA
BRANCH  28  31
ATOM     29  C   UNL     1      37.614  30.528  50.972  0.00  0.00    +0.000 A 
ATOM     30  C   UNL     1      37.707  31.292  49.805  0.00  0.00    +0.000 A 
ATOM     31  C   UNL     1      37.075  30.832  48.661  0.00  0.00    +0.000 A 
ATOM     32  N   UNL     1      36.390  29.654  48.725  0.00  0.00    +0.000 NA
ATOM     33  C   UNL     1      36.320  28.937  49.874  0.00  0.00    +0.000 A 
ATOM     34  N   UNL     1      36.937  29.383  50.994  0.00  0.00    +0.000 NA
ATOM     35  H   UNL     1      38.105  30.895  51.841  0.00  0.00    +0.000 HD
ATOM     36  H   UNL     1      38.223  32.212  49.696  0.00  0.00    +0.000 HD
ATOM     37  H   UNL     1      35.771  27.993  49.921  0.00  0.00    +0.000 HD
ENDBRANCH  28  31
ENDBRANCH  25  28
ENDBRANCH  23  25
ENDBRANCH   3  23
TORSDOF 7
