REMARK  Name = 
REMARK  3 active torsions:
REMARK  status: ('A' for Active; 'I' for Inactive)
REMARK    1  A    between atoms: C_2  and  C_7
REMARK    2  A    between atoms: C_11  and  C_24
REMARK    3  A    between atoms: S_20  and  C_23
REMARK                            x       y       z     vdW  Elec       q    Type
REMARK                         _______ _______ _______ _____ _____    ______ ____
ROOT
ATOM      1  C   UNL     1      38.075  31.983  49.023  0.00  0.00    +0.000 A 
ATOM      2  C   UNL     1      38.546  33.139  49.578  0.00  0.00    +0.000 A 
ATOM      3  C   UNL     1      39.387  34.028  48.938  0.00  0.00    +0.000 A 
ATOM      4  C   UNL     1      39.794  33.748  47.640  0.00  0.00    +0.000 A 
ATOM      5  C   UNL     1      39.317  32.587  47.091  0.00  0.00    +0.000 A 
ATOM      6  N   UNL     1      38.510  31.784  47.777  0.00  0.00    +0.000 NA
ATOM      7  H   UNL     1      38.245  33.390  50.599  0.00  0.00    +0.000 HD
ATOM      8  H   UNL     1      39.706  34.926  49.474  0.00  0.00    +0.000 HD
ATOM      9  H   UNL     1      40.446  34.500  47.232  0.00  0.00    +0.000 HD
ENDROOT
BRANCH   1  11
ATOM     10  C   UNL     1      37.519  30.436  50.932  0.00  0.00    +0.000 A 
ATOM     11  C   UNL     1      37.197  31.061  49.708  0.00  0.00    +0.000 A 
ATOM     12  C   UNL     1      35.954  30.777  49.123  0.00  0.00    +0.000 A 
ATOM     13  N   UNL     1      35.125  29.907  49.777  0.00  0.00    +0.000 NA
ATOM     14  C   UNL     1      35.484  29.331  50.955  0.00  0.00    +0.000 A 
ATOM     15  N   UNL     1      36.666  29.588  51.532  0.00  0.00    +0.000 NA
ATOM     16  H   UNL     1      38.492  30.716  51.301  0.00  0.00    +0.000 HD
ATOM     17  H   UNL     1      35.627  31.205  48.197  0.00  0.00    +0.000 HD
ATOM     18  H   UNL     1      34.815  28.644  51.460  0.00  0.00    +0.000 HD
ENDBRANCH   1  11
BRANCH   5  20
ATOM     19  C   UNL     1      38.850  32.445  44.683  0.00  0.00    +0.000 A 
ATOM     20  C   UNL     1      39.735  32.279  45.731  0.00  0.00    +0.000 A 
ATOM     21  C   UNL     1      40.994  31.819  45.414  0.00  0.00    +0.000 A 
ATOM     22  H   UNL     1      41.745  31.662  46.172  0.00  0.00    +0.000 HD
ATOM     23  C   UNL     1      41.439  31.513  44.146  0.00  0.00    +0.000 A 
ATOM     24  H   UNL     1      42.437  31.154  43.933  0.00  0.00    +0.000 HD
ATOM     25  C   UNL     1      40.562  31.676  43.096  0.00  0.00    +0.000 A 
ATOM     26  C   UNL     1      39.304  32.134  43.395  0.00  0.00    +0.000 A 
BRANCH  19  28
ATOM     27  H   UNL     1      37.221  34.203  45.549  0.00  0.00    +0.000 HD
ATOM     28  S   UNL     1      37.212  33.016  44.871  0.00  0.00    +0.000 S 
ATOM     29  O   UNL     1      36.611  33.199  43.489  0.00  0.00    +0.000 OA
ATOM     30  O   UNL     1      36.407  31.975  45.631  0.00  0.00    +0.000 OA
ENDBRANCH  19  28
ENDBRANCH   5  20
TORSDOF 3
