
 OpenBabel03272510163D

 31 33  0  0  0  0  0  0  0  0999 V2000
   37.2130   29.4470   51.0890 Br  0  0  0  0  0  0  0  0  0  0  0  0
   35.9440   29.3810   49.6570 C   0  0  0  0  0  0  0  0  0  0  0  0
   36.0260   30.2570   48.6000 C   0  0  0  0  0  0  0  0  0  0  0  0
   35.0790   30.1470   47.6110 C   0  0  0  0  0  0  0  0  0  0  0  0
   34.0550   29.2010   47.6320 C   0  0  0  0  0  0  0  0  0  0  0  0
   34.0180   28.3530   48.7060 C   0  0  0  0  0  0  0  0  0  0  0  0
   34.9560   28.4420   49.7100 C   0  0  0  0  0  0  0  0  0  0  0  0
   35.1910   30.8720   46.7910 H   0  0  0  0  0  0  0  0  0  0  0  0
   33.2110   27.6350   48.6810 H   0  0  0  0  0  0  0  0  0  0  0  0
   34.8720   27.7380   50.5380 H   0  0  0  0  0  0  0  0  0  0  0  0
   38.0180   33.1980   49.4460 C   0  0  0  0  0  0  0  0  0  0  0  0
   39.0560   33.1890   48.4780 C   0  0  0  0  0  0  0  0  0  0  0  0
   39.0490   32.1570   47.5440 C   0  0  0  0  0  0  0  0  0  0  0  0
   38.0590   31.2210   47.6040 N   0  0  0  0  0  0  0  0  0  0  0  0
   37.0850   31.2640   48.5410 C   0  0  0  0  0  0  0  0  0  0  0  0
   37.0780   32.2560   49.4530 N   0  0  0  0  0  0  0  0  0  0  0  0
   37.9490   33.9720   50.2140 H   0  0  0  0  0  0  0  0  0  0  0  0
   39.7990   33.9700   48.5050 H   0  0  0  0  0  0  0  0  0  0  0  0
   39.8310   32.1220   46.7920 H   0  0  0  0  0  0  0  0  0  0  0  0
   32.8820   28.2500   45.6150 C   0  0  0  0  0  0  0  0  0  0  0  0
   33.1610   29.2590   46.4810 C   0  0  0  0  0  0  0  0  0  0  0  0
   32.5220   30.4810   46.2410 C   0  0  0  0  0  0  0  0  0  0  0  0
   32.6890   31.3540   46.8910 H   0  0  0  0  0  0  0  0  0  0  0  0
   31.6580   30.7100   45.2120 C   0  0  0  0  0  0  0  0  0  0  0  0
   31.1800   31.6640   45.0500 H   0  0  0  0  0  0  0  0  0  0  0  0
   31.3800   29.6890   44.3400 C   0  0  0  0  0  3  0  0  0  0  0  0
   31.9970   28.4810   44.5600 C   0  0  0  0  0  3  0  0  0  0  0  0
   34.7340   26.8600   46.6730 H   0  0  0  0  0  0  0  0  0  0  0  0
   33.6470   26.7240   45.8770 S   0  0  0  0  0  0  0  0  0  0  0  0
   32.7050   25.6490   46.3480 O   0  0  0  0  0  0  0  0  0  0  0  0
   34.1730   26.2670   44.5230 O   0  0  0  0  0  0  0  0  0  0  0  0
  2  7  1  0  0  0  0
  2  1  1  0  0  0  0
  3  2  2  0  0  0  0
  4  5  2  0  0  0  0
  4  3  1  0  0  0  0
  5  6  1  0  0  0  0
  6  7  2  0  0  0  0
  7 10  1  0  0  0  0
  8  4  1  0  0  0  0
  9  6  1  0  0  0  0
 11 16  1  0  0  0  0
 11 17  1  0  0  0  0
 12 18  1  0  0  0  0
 12 11  2  0  0  0  0
 13 14  2  0  0  0  0
 13 12  1  0  0  0  0
 14 15  1  0  0  0  0
 15  3  1  0  0  0  0
 15 16  2  0  0  0  0
 19 13  1  0  0  0  0
 20 29  1  0  0  0  0
 20 21  1  0  0  0  0
 21  5  1  0  0  0  0
 22 21  2  0  0  0  0
 22 23  1  0  0  0  0
 24 22  1  0  0  0  0
 25 24  1  0  0  0  0
 26 27  1  0  0  0  0
 26 24  2  0  0  0  0
 27 20  2  0  0  0  0
 29 30  2  0  0  0  0
 29 28  1  0  0  0  0
 31 29  2  0  0  0  0
M  END
>  <minimizedAffinity>
-5.86716843

>  <minimizedRMSD>
0.953909338

$$$$
