
 OpenBabel03272509223D

 49 53  0  0  0  0  0  0  0  0999 V2000
   40.0570   30.8630   44.0410 C   0  0  0  0  0  0  0  0  0  0  0  0
   39.5840   31.8000   44.9360 C   0  0  0  0  0  0  0  0  0  0  0  0
   38.6280   32.7210   44.4990 C   0  0  0  0  0  0  0  0  0  0  0  0
   38.1530   32.7020   43.1810 C   0  0  0  0  0  0  0  0  0  0  0  0
   37.2670   33.4270   42.4800 N   0  0  0  0  0  0  0  0  0  0  0  0
   37.1930   32.9650   41.2120 C   0  0  0  0  0  0  0  0  0  0  0  0
   38.0600   31.9170   41.1200 N   0  0  0  0  0  0  0  0  0  0  0  0
   38.6550   31.7460   42.3190 C   0  0  0  0  0  0  0  0  0  0  0  0
   39.6040   30.8290   42.7470 C   0  0  0  0  0  0  0  0  0  0  0  0
   40.7820   30.2060   44.4680 H   0  0  0  0  0  0  0  0  0  0  0  0
   38.1660   33.5120   45.0880 H   0  0  0  0  0  0  0  0  0  0  0  0
   36.7230   34.2280   42.8690 H   0  0  0  0  0  0  0  0  0  0  0  0
   36.5530   33.3600   40.4080 H   0  0  0  0  0  0  0  0  0  0  0  0
   39.5660   28.5800   41.6370 C   0  0  0  0  0  0  0  0  0  0  0  0
   40.1410   29.8150   41.8460 C   0  0  0  0  0  0  0  0  0  0  0  0
   41.3020   30.1550   41.1790 C   0  0  0  0  0  0  0  0  0  0  0  0
   41.8210   31.1130   41.2880 H   0  0  0  0  0  0  0  0  0  0  0  0
   41.8400   29.2220   40.3170 C   0  0  0  0  0  0  0  0  0  0  0  0
   42.7610   29.4720   39.7770 H   0  0  0  0  0  0  0  0  0  0  0  0
   41.3060   27.9550   40.0610 C   0  0  0  0  0  3  0  0  0  0  0  0
   40.1320   27.6880   40.7750 C   0  0  0  0  0  3  0  0  0  0  0  0
   37.8320   26.8580   42.5420 H   0  0  0  0  0  0  0  0  0  0  0  0
   38.0920   28.1940   42.5080 S   0  0  0  0  0  0  0  0  0  0  0  0
   38.0860   28.7890   43.8690 O   0  0  0  0  0  0  0  0  0  0  0  0
   36.9750   28.8420   41.7030 O   0  0  0  0  0  0  0  0  0  0  0  0
   39.8940   32.0100   46.2500 O   0  0  0  0  0  0  0  0  0  0  0  0
   38.0400   31.2140   47.5900 C   0  0  0  0  0  0  0  0  0  0  0  0
   37.1440   31.2720   48.6530 C   0  0  0  0  0  0  0  0  0  0  0  0
   37.3130   32.3740   49.4920 C   0  0  0  0  0  0  0  0  0  0  0  0
   38.3190   33.3370   49.2610 C   0  0  0  0  0  0  0  0  0  0  0  0
   39.1750   33.1820   48.1530 C   0  0  0  0  0  0  0  0  0  0  0  0
   39.0190   32.0880   47.3060 C   0  0  0  0  0  0  0  0  0  0  0  0
   36.6570   32.4940   50.3420 H   0  0  0  0  0  0  0  0  0  0  0  0
   38.4400   34.1800   49.9150 H   0  0  0  0  0  0  0  0  0  0  0  0
   39.9460   33.9150   47.9720 H   0  0  0  0  0  0  0  0  0  0  0  0
   34.9620   30.3010   48.1170 C   0  0  0  0  0  0  0  0  0  0  0  0
   36.1240   30.2980   48.8880 C   0  0  0  0  0  0  0  0  0  0  0  0
   36.2450   29.3150   49.8830 C   0  0  0  0  0  0  0  0  0  0  0  0
   35.2280   28.4310   50.0360 N   0  0  0  0  0  0  0  0  0  0  0  0
   34.1120   28.4710   49.2630 C   0  0  0  0  0  0  0  0  0  0  0  0
   33.9820   29.4000   48.3110 N   0  0  0  0  0  0  0  0  0  0  0  0
   34.8110   31.0420   47.3270 H   0  0  0  0  0  0  0  0  0  0  0  0
   33.4090   27.6900   49.5260 H   0  0  0  0  0  0  0  0  0  0  0  0
   37.4620   29.2630   50.7350 C   0  0  0  0  0  0  0  0  0  0  0  0
   37.7640   28.1920   50.7560 H   0  0  0  0  0  0  0  0  0  0  0  0
   38.2790   29.7810   50.1800 H   0  0  0  0  0  0  0  0  0  0  0  0
   37.3120   29.6770   51.7480 H   0  0  0  0  0  0  0  0  0  0  0  0
   37.9470   30.1390   46.6910 O   0  0  0  0  0  0  0  0  0  0  0  0
   37.0250   29.8070   46.4200 H   0  0  0  0  0  0  0  0  0  0  0  0
  1 10  1  0  0  0  0
  1  2  1  0  0  0  0
  2 26  1  0  0  0  0
  3  2  2  0  0  0  0
  3 11  1  0  0  0  0
  4  3  1  0  0  0  0
  5 12  1  0  0  0  0
  5  4  1  0  0  0  0
  6  5  1  0  0  0  0
  7  6  2  0  0  0  0
  7  8  1  0  0  0  0
  8  9  1  0  0  0  0
  8  4  2  0  0  0  0
  9  1  2  0  0  0  0
 13  6  1  0  0  0  0
 14 15  1  0  0  0  0
 14 23  1  0  0  0  0
 15  9  1  0  0  0  0
 16 17  1  0  0  0  0
 16 15  2  0  0  0  0
 18 16  1  0  0  0  0
 19 18  1  0  0  0  0
 20 18  2  0  0  0  0
 20 21  1  0  0  0  0
 21 14  2  0  0  0  0
 23 22  1  0  0  0  0
 23 24  2  0  0  0  0
 25 23  2  0  0  0  0
 26 32  1  0  0  0  0
 27 28  1  0  0  0  0
 28 37  1  0  0  0  0
 28 29  2  0  0  0  0
 29 33  1  0  0  0  0
 30 29  1  0  0  0  0
 30 34  1  0  0  0  0
 31 30  2  0  0  0  0
 32 27  2  0  0  0  0
 32 31  1  0  0  0  0
 35 31  1  0  0  0  0
 36 41  2  0  0  0  0
 36 37  1  0  0  0  0
 37 38  2  0  0  0  0
 38 39  1  0  0  0  0
 38 44  1  0  0  0  0
 40 43  1  0  0  0  0
 40 39  2  0  0  0  0
 41 40  1  0  0  0  0
 42 36  1  0  0  0  0
 44 45  1  0  0  0  0
 44 47  1  0  0  0  0
 46 44  1  0  0  0  0
 48 27  1  0  0  0  0
 49 48  1  0  0  0  0
M  END
>  <minimizedAffinity>
-7.13505507

>  <minimizedRMSD>
1.02133465

$$$$
