
 OpenBabel03272510173D

 31 33  0  0  0  0  0  0  0  0999 V2000
   37.2230   29.4210   51.0620 Br  0  0  0  0  0  0  0  0  0  0  0  0
   35.9470   29.3670   49.6350 C   0  0  0  0  0  0  0  0  0  0  0  0
   36.0250   30.2530   48.5850 C   0  0  0  0  0  0  0  0  0  0  0  0
   35.0730   30.1510   47.5990 C   0  0  0  0  0  0  0  0  0  0  0  0
   34.0480   29.2060   47.6170 C   0  0  0  0  0  0  0  0  0  0  0  0
   34.0160   28.3490   48.6850 C   0  0  0  0  0  0  0  0  0  0  0  0
   34.9590   28.4290   49.6850 C   0  0  0  0  0  0  0  0  0  0  0  0
   35.1830   30.8830   46.7840 H   0  0  0  0  0  0  0  0  0  0  0  0
   33.2070   27.6330   48.6580 H   0  0  0  0  0  0  0  0  0  0  0  0
   34.8780   27.7180   50.5070 H   0  0  0  0  0  0  0  0  0  0  0  0
   38.0190   33.1890   49.4400 C   0  0  0  0  0  0  0  0  0  0  0  0
   39.0580   33.1830   48.4730 C   0  0  0  0  0  0  0  0  0  0  0  0
   39.0490   32.1530   47.5350 C   0  0  0  0  0  0  0  0  0  0  0  0
   38.0590   31.2180   47.5920 N   0  0  0  0  0  0  0  0  0  0  0  0
   37.0850   31.2580   48.5290 C   0  0  0  0  0  0  0  0  0  0  0  0
   37.0780   32.2480   49.4440 N   0  0  0  0  0  0  0  0  0  0  0  0
   37.9510   33.9600   50.2100 H   0  0  0  0  0  0  0  0  0  0  0  0
   39.8010   33.9620   48.5020 H   0  0  0  0  0  0  0  0  0  0  0  0
   39.8310   32.1200   46.7830 H   0  0  0  0  0  0  0  0  0  0  0  0
   32.8830   28.2800   45.5850 C   0  0  0  0  0  0  0  0  0  0  0  0
   33.1490   29.2750   46.4710 C   0  0  0  0  0  0  0  0  0  0  0  0
   32.4900   30.4910   46.2590 C   0  0  0  0  0  0  0  0  0  0  0  0
   32.6450   31.3520   46.9270 H   0  0  0  0  0  0  0  0  0  0  0  0
   31.6190   30.7290   45.2370 C   0  0  0  0  0  0  0  0  0  0  0  0
   31.1250   31.6770   45.0980 H   0  0  0  0  0  0  0  0  0  0  0  0
   31.3540   29.7210   44.3460 C   0  0  0  0  0  3  0  0  0  0  0  0
   31.9910   28.5190   44.5370 C   0  0  0  0  0  3  0  0  0  0  0  0
   34.8680   26.9270   46.4300 H   0  0  0  0  0  0  0  0  0  0  0  0
   33.6730   26.7610   45.8120 S   0  0  0  0  0  0  0  0  0  0  0  0
   32.8090   25.7220   46.4720 O   0  0  0  0  0  0  0  0  0  0  0  0
   33.9940   26.2290   44.4210 O   0  0  0  0  0  0  0  0  0  0  0  0
  2  7  1  0  0  0  0
  2  1  1  0  0  0  0
  3  2  2  0  0  0  0
  4  5  2  0  0  0  0
  4  3  1  0  0  0  0
  5  6  1  0  0  0  0
  6  7  2  0  0  0  0
  7 10  1  0  0  0  0
  8  4  1  0  0  0  0
  9  6  1  0  0  0  0
 11 16  1  0  0  0  0
 11 17  1  0  0  0  0
 12 18  1  0  0  0  0
 12 11  2  0  0  0  0
 13 14  2  0  0  0  0
 13 12  1  0  0  0  0
 14 15  1  0  0  0  0
 15  3  1  0  0  0  0
 15 16  2  0  0  0  0
 19 13  1  0  0  0  0
 20 29  1  0  0  0  0
 20 21  1  0  0  0  0
 21  5  1  0  0  0  0
 22 21  2  0  0  0  0
 22 23  1  0  0  0  0
 24 22  1  0  0  0  0
 25 24  1  0  0  0  0
 26 27  1  0  0  0  0
 26 24  2  0  0  0  0
 27 20  2  0  0  0  0
 29 28  1  0  0  0  0
 29 30  2  0  0  0  0
 31 29  2  0  0  0  0
M  END
>  <minimizedAffinity>
-5.83960629

>  <minimizedRMSD>
0.6499722

$$$$
