
 OpenBabel03272508543D

 41 44  0  0  1  0  0  0  0  0999 V2000
   39.1490   31.4750   43.4320 C   0  0  0  0  0  0  0  0  0  0  0  0
   40.1410   30.5480   43.5880 C   0  0  0  0  0  0  0  0  0  0  0  0
   40.8560   30.2100   42.4580 C   0  0  0  0  0  0  0  0  0  0  0  0
   40.5480   30.8010   41.2720 C   0  0  0  0  0  0  0  0  0  0  0  0
   39.5550   31.7360   41.1020 C   0  0  0  0  0  0  0  0  0  0  0  0
   38.9040   32.0150   42.2330 N   0  0  0  0  0  0  0  0  0  0  0  0
   40.3910   30.0750   44.5300 H   0  0  0  0  0  0  0  0  0  0  0  0
   41.6410   29.4850   42.5490 H   0  0  0  0  0  0  0  0  0  0  0  0
   41.1060   30.4670   40.4290 H   0  0  0  0  0  0  0  0  0  0  0  0
   39.3980   32.1620   38.6080 C   0  0  0  0  0  0  0  0  0  0  0  0
   39.0910   32.3980   39.9230 C   0  0  0  0  0  0  0  0  0  0  0  0
   38.2160   33.4760   40.0990 C   0  0  0  0  0  0  0  0  0  0  0  0
   37.9060   33.7540   41.1200 H   0  0  0  0  0  0  0  0  0  0  0  0
   37.6790   34.2590   39.1060 C   0  0  0  0  0  0  0  0  0  0  0  0
   37.0140   35.0670   39.3250 H   0  0  0  0  0  0  0  0  0  0  0  0
   38.0160   33.9780   37.8040 C   0  0  0  0  0  3  0  0  0  0  0  0
   38.8750   32.9270   37.5830 C   0  0  0  0  0  3  0  0  0  0  0  0
   40.6510   30.9320   36.7650 H   0  0  0  0  0  0  0  0  0  0  0  0
   40.5360   30.9450   38.1790 S   0  0  0  0  0  0  0  0  0  0  0  0
   41.9360   31.1870   38.6260 O   0  0  0  0  0  0  0  0  0  0  0  0
   40.1160   29.5430   38.4970 O   0  0  0  0  0  0  0  0  0  0  0  0
   38.3460   31.8680   44.6170 C   0  0  0  0  0  0  0  0  0  0  0  0
   37.1820   32.3420   44.4870 O   0  0  0  0  0  0  0  0  0  0  0  0
   38.9350   31.6900   45.9080 N   0  0  0  0  0  0  0  0  0  0  0  0
   39.9410   31.4660   46.0770 H   0  0  0  0  0  0  0  0  0  0  0  0
   38.4120   31.1810   48.2940 C   0  0  2  0  0  0  0  0  0  0  0  0
   38.7030   32.6220   48.2250 C   0  0  0  0  0  0  0  0  0  0  0  0
   38.0530   31.8340   47.0610 C   0  0  1  0  0  0  0  0  0  0  0  0
   39.3440   30.5570   48.3550 H   0  0  0  0  0  0  0  0  0  0  0  0
   39.7250   32.9900   48.0800 H   0  0  0  0  0  0  0  0  0  0  0  0
   38.0280   33.3630   48.6930 H   0  0  0  0  0  0  0  0  0  0  0  0
   36.9870   32.1070   46.8500 H   0  0  0  0  0  0  0  0  0  0  0  0
   35.0850   30.2070   49.5580 C   0  0  0  0  0  0  0  0  0  0  0  0
   35.4030   29.5650   50.7980 C   0  0  0  0  0  0  0  0  0  0  0  0
   36.7900   29.4960   51.1660 C   0  0  0  0  0  0  0  0  0  0  0  0
   37.7190   30.0320   50.3390 N   0  0  0  0  0  0  0  0  0  0  0  0
   37.3490   30.6280   49.1740 C   0  0  0  0  0  0  0  0  0  0  0  0
   36.0380   30.7320   48.7530 N   0  0  0  0  0  0  0  0  0  0  0  0
   34.0370   30.2500   49.2950 H   0  0  0  0  0  0  0  0  0  0  0  0
   34.6110   29.1600   51.4100 H   0  0  0  0  0  0  0  0  0  0  0  0
   37.0190   29.0170   52.0940 H   0  0  0  0  0  0  0  0  0  0  0  0
  1  2  1  0  0  0  0
  1 22  1  0  0  0  0
  2  7  1  0  0  0  0
  3  8  1  0  0  0  0
  3  2  2  0  0  0  0
  4  3  1  0  0  0  0
  5  4  2  0  0  0  0
  5  6  1  0  0  0  0
  6  1  2  0  0  0  0
  9  4  1  0  0  0  0
 10 11  1  0  0  0  0
 11 12  2  0  0  0  0
 11  5  1  0  0  0  0
 12 13  1  0  0  0  0
 14 15  1  0  0  0  0
 14 12  1  0  0  0  0
 16 14  2  0  0  0  0
 17 16  1  0  0  0  0
 17 10  2  0  0  0  0
 18 19  1  0  0  0  0
 19 21  2  0  0  0  0
 19 10  1  0  0  0  0
 19 20  2  0  0  0  0
 22 24  1  0  0  0  0
 23 22  2  0  0  0  0
 24 25  1  0  0  0  0
 24 28  1  0  0  0  0
 26 29  1  6  0  0  0
 26 37  1  0  0  0  0
 27 26  1  0  0  0  0
 27 31  1  0  0  0  0
 28 32  1  6  0  0  0
 28 27  1  0  0  0  0
 28 26  1  0  0  0  0
 30 27  1  0  0  0  0
 33 34  1  0  0  0  0
 34 35  2  0  0  0  0
 34 40  1  0  0  0  0
 35 41  1  0  0  0  0
 36 35  1  0  0  0  0
 37 36  2  0  0  0  0
 38 37  1  0  0  0  0
 38 33  2  0  0  0  0
 39 33  1  0  0  0  0
M  END
>  <minimizedAffinity>
-5.27870417

>  <minimizedRMSD>
0.264284939

$$$$
