
 OpenBabel03272507203D

 33 35  0  0  1  0  0  0  0  0999 V2000
   38.0180   31.1400   49.7540 C   0  0  0  0  0  0  0  0  0  0  0  0
   38.3450   32.4740   49.8860 C   0  0  0  0  0  0  0  0  0  0  0  0
   38.5110   33.1730   48.6930 C   0  0  0  0  0  0  0  0  0  0  0  0
   38.3470   32.5260   47.4880 N   0  0  0  0  0  0  0  0  0  0  0  0
   38.0280   31.2190   47.4310 C   0  0  0  0  0  0  0  0  0  0  0  0
   37.8570   30.4980   48.5640 N   0  0  0  0  0  0  0  0  0  0  0  0
   38.4590   32.9210   50.8610 H   0  0  0  0  0  0  0  0  0  0  0  0
   38.7670   34.2140   48.7610 H   0  0  0  0  0  0  0  0  0  0  0  0
   38.8550   31.2690   44.9960 C   0  0  0  0  0  0  0  0  0  0  0  0
   37.9700   31.0400   46.0070 C   0  0  0  0  0  0  0  0  0  0  0  0
   36.7100   30.5200   45.6890 C   0  0  0  0  0  0  0  0  0  0  0  0
   35.8090   30.2340   46.2430 H   0  0  0  0  0  0  0  0  0  0  0  0
   36.4310   30.2640   44.3400 C   0  0  0  0  0  0  0  0  0  0  0  0
   35.5150   29.8660   43.9240 H   0  0  0  0  0  0  0  0  0  0  0  0
   37.3920   30.5290   43.3910 C   0  0  0  0  0  3  0  0  0  0  0  0
   38.6380   31.0390   43.6600 C   0  0  0  0  0  3  0  0  0  0  0  0
   40.1730   32.3690   46.8670 H   0  0  0  0  0  0  0  0  0  0  0  0
   40.3600   31.9450   45.5790 S   0  0  0  0  0  0  0  0  0  0  0  0
   40.5880   33.1720   44.7010 O   0  0  0  0  0  0  0  0  0  0  0  0
   41.4900   30.9960   45.4620 O   0  0  0  0  0  0  0  0  0  0  0  0
   37.7890   30.3900   51.0330 C   0  0  1  0  0  0  0  0  0  0  0  0
   36.5440   29.6700   51.2910 C   0  0  2  0  0  0  0  0  0  0  0  0
   37.7120   28.8650   50.8100 C   0  0  0  0  0  0  0  0  0  0  0  0
   38.4520   30.6960   51.8690 H   0  0  0  0  0  0  0  0  0  0  0  0
   36.2430   29.6930   52.3840 H   0  0  0  0  0  0  0  0  0  0  0  0
   37.6710   28.4890   49.7680 H   0  0  0  0  0  0  0  0  0  0  0  0
   38.2940   28.2590   51.5190 H   0  0  0  0  0  0  0  0  0  0  0  0
   35.4820   29.9060   50.4300 O   0  0  0  0  0  0  0  0  0  0  0  0
   34.4690   29.0820   50.0620 C   0  0  0  0  0  0  0  0  0  0  0  0
   34.6730   28.0370   49.4220 O   0  0  0  0  0  0  0  0  0  0  0  0
   33.2650   29.6180   50.5180 N   0  0  0  0  0  0  0  0  0  0  0  0
   32.8830   30.5790   50.3690 H   0  0  0  0  0  0  0  0  0  0  0  0
   32.3480   29.5830   51.0310 H   0  0  0  0  0  0  0  0  0  0  0  0
  1  2  1  0  0  0  0
  1 21  1  0  0  0  0
  2  7  1  0  0  0  0
  3  8  1  0  0  0  0
  3  2  2  0  0  0  0
  4  3  1  0  0  0  0
  5  4  2  0  0  0  0
  5  6  1  0  0  0  0
  6  1  2  0  0  0  0
  9 18  1  0  0  0  0
  9 10  1  0  0  0  0
 10  5  1  0  0  0  0
 11 10  2  0  0  0  0
 11 12  1  0  0  0  0
 13 11  1  0  0  0  0
 14 13  1  0  0  0  0
 15 16  1  0  0  0  0
 15 13  2  0  0  0  0
 16  9  2  0  0  0  0
 18 17  1  0  0  0  0
 19 18  2  0  0  0  0
 20 18  2  0  0  0  0
 21 22  1  0  0  0  0
 21 24  1  1  0  0  0
 22 25  1  1  0  0  0
 23 21  1  0  0  0  0
 23 22  1  0  0  0  0
 23 27  1  0  0  0  0
 26 23  1  0  0  0  0
 28 22  1  0  0  0  0
 29 28  1  0  0  0  0
 29 31  1  0  0  0  0
 30 29  2  0  0  0  0
 31 33  1  0  0  0  0
 32 31  1  0  0  0  0
M  END
>  <minimizedAffinity>
-5.96841097

>  <minimizedRMSD>
1.19729638

$$$$
