REMARK  Name = 
REMARK  7 active torsions:
REMARK  status: ('A' for Active; 'I' for Inactive)
REMARK    1  A    between atoms: C_1  and  O_14
REMARK    2  A    between atoms: C_2  and  C_8
REMARK    3  A    between atoms: C_6  and  O_15
REMARK    4  A    between atoms: C_9  and  C_13
REMARK    5  A    between atoms: O_15  and  C_17
REMARK    6  A    between atoms: C_24  and  C_43
REMARK    7  A    between atoms: S_39  and  C_42
REMARK                            x       y       z     vdW  Elec       q    Type
REMARK                         _______ _______ _______ _____ _____    ______ ____
ROOT
ATOM      1  C   UNL     1      40.570  31.177  44.413  0.00  0.00    +0.000 A 
ATOM      2  C   UNL     1      39.866  31.976  45.289  0.00  0.00    +0.000 A 
ATOM      3  C   UNL     1      38.792  32.725  44.797  0.00  0.00    +0.000 A 
ATOM      4  C   UNL     1      38.431  32.672  43.445  0.00  0.00    +0.000 A 
ATOM      5  N   UNL     1      37.483  33.250  42.691  0.00  0.00    +0.000 N 
ATOM      6  C   UNL     1      37.592  32.833  41.411  0.00  0.00    +0.000 A 
ATOM      7  N   UNL     1      38.642  31.964  41.364  0.00  0.00    +0.000 NA
ATOM      8  C   UNL     1      39.165  31.857  42.604  0.00  0.00    +0.000 A 
ATOM      9  C   UNL     1      40.231  31.112  43.086  0.00  0.00    +0.000 A 
ATOM     10  H   UNL     1      41.369  30.646  44.882  0.00  0.00    +0.000 HD
ATOM     11  H   UNL     1      38.149  33.395  45.366  0.00  0.00    +0.000 HD
ATOM     12  H   UNL     1      36.772  33.923  43.054  0.00  0.00    +0.000 HD
ATOM     13  H   UNL     1      36.954  33.136  40.567  0.00  0.00    +0.000 HD
ENDROOT
BRANCH   9  15
ATOM     14  C   UNL     1      40.510  29.622  41.088  0.00  0.00    +0.000 A 
ATOM     15  C   UNL     1      41.013  30.249  42.207  0.00  0.00    +0.000 A 
ATOM     16  C   UNL     1      42.338  30.076  42.555  0.00  0.00    +0.000 A 
ATOM     17  H   UNL     1      42.815  30.537  43.427  0.00  0.00    +0.000 HD
ATOM     18  C   UNL     1      43.111  29.266  41.748  0.00  0.00    +0.000 A 
ATOM     19  H   UNL     1      44.165  29.115  42.008  0.00  0.00    +0.000 HD
ATOM     20  C   UNL     1      42.661  28.603  40.602  0.00  0.00    +0.000 A 
ATOM     21  C   UNL     1      41.309  28.830  40.318  0.00  0.00    +0.000 A 
BRANCH  14  23
ATOM     22  H   UNL     1      38.229  28.761  40.166  0.00  0.00    +0.000 HD
ATOM     23  S   UNL     1      38.820  29.872  40.686  0.00  0.00    +0.000 S 
ATOM     24  O   UNL     1      38.055  30.412  41.840  0.00  0.00    +0.000 OA
ATOM     25  O   UNL     1      38.826  30.926  39.588  0.00  0.00    +0.000 OA
ENDBRANCH  14  23
ENDBRANCH   9  15
BRANCH   2  26
ATOM     26  O   UNL     1      40.030  32.187  46.629  0.00  0.00    +0.000 OA
BRANCH  26  32
ATOM     27  C   UNL     1      38.088  31.298  47.770  0.00  0.00    +0.000 A 
ATOM     28  C   UNL     1      37.086  31.308  48.736  0.00  0.00    +0.000 A 
ATOM     29  C   UNL     1      37.118  32.411  49.591  0.00  0.00    +0.000 A 
ATOM     30  C   UNL     1      38.097  33.420  49.466  0.00  0.00    +0.000 A 
ATOM     31  C   UNL     1      39.068  33.312  48.451  0.00  0.00    +0.000 A 
ATOM     32  C   UNL     1      39.050  32.218  47.590  0.00  0.00    +0.000 A 
ATOM     33  H   UNL     1      36.374  32.495  50.369  0.00  0.00    +0.000 HD
ATOM     34  H   UNL     1      38.112  34.264  50.130  0.00  0.00    +0.000 HD
ATOM     35  H   UNL     1      39.819  34.081  48.351  0.00  0.00    +0.000 HD
BRANCH  28  37
ATOM     36  C   UNL     1      34.962  30.305  48.049  0.00  0.00    +0.000 A 
ATOM     37  C   UNL     1      36.094  30.287  48.864  0.00  0.00    +0.000 A 
ATOM     38  C   UNL     1      36.212  29.242  49.794  0.00  0.00    +0.000 A 
ATOM     39  N   UNL     1      35.222  28.317  49.846  0.00  0.00    +0.000 NA
ATOM     40  C   UNL     1      34.135  28.373  49.033  0.00  0.00    +0.000 A 
ATOM     41  N   UNL     1      34.008  29.361  48.142  0.00  0.00    +0.000 NA
ATOM     42  H   UNL     1      34.815  31.094  47.306  0.00  0.00    +0.000 HD
ATOM     43  H   UNL     1      33.451  27.553  49.214  0.00  0.00    +0.000 HD
BRANCH  38  44
ATOM     44  C   UNL     1      37.397  29.172  50.688  0.00  0.00    +0.000 C 
ATOM     45  H   UNL     1      37.736  28.112  50.648  0.00  0.00    +0.000 HD
ATOM     46  H   UNL     1      38.216  29.753  50.203  0.00  0.00    +0.000 HD
ATOM     47  H   UNL     1      37.195  29.509  51.720  0.00  0.00    +0.000 HD
ENDBRANCH  38  44
ENDBRANCH  28  37
BRANCH  27  48
ATOM     48  O   UNL     1      38.137  30.227  46.864  0.00  0.00    +0.000 OA
ATOM     49  H   UNL     1      37.263  29.855  46.500  0.00  0.00    +0.000 HD
ENDBRANCH  27  48
ENDBRANCH  26  32
ENDBRANCH   2  26
TORSDOF 7
