
 OpenBabel03272508543D

 41 44  0  0  1  0  0  0  0  0999 V2000
   39.0350   31.5470   43.3480 C   0  0  0  0  0  0  0  0  0  0  0  0
   40.1620   30.7880   43.4970 C   0  0  0  0  0  0  0  0  0  0  0  0
   40.8470   30.4630   42.3450 C   0  0  0  0  0  0  0  0  0  0  0  0
   40.3790   30.9040   41.1450 C   0  0  0  0  0  0  0  0  0  0  0  0
   39.2490   31.6690   40.9820 C   0  0  0  0  0  0  0  0  0  0  0  0
   38.6370   31.9430   42.1340 N   0  0  0  0  0  0  0  0  0  0  0  0
   40.5380   30.4360   44.4490 H   0  0  0  0  0  0  0  0  0  0  0  0
   41.7340   29.8690   42.4300 H   0  0  0  0  0  0  0  0  0  0  0  0
   40.9270   30.5840   40.2890 H   0  0  0  0  0  0  0  0  0  0  0  0
   37.7540   31.5240   38.9380 C   0  0  0  0  0  0  0  0  0  0  0  0
   38.6180   32.1560   39.7960 C   0  0  0  0  0  0  0  0  0  0  0  0
   38.9320   33.4610   39.3960 C   0  0  0  0  0  0  0  0  0  0  0  0
   39.6210   34.0590   40.0140 H   0  0  0  0  0  0  0  0  0  0  0  0
   38.4600   34.1060   38.2800 C   0  0  0  0  0  0  0  0  0  0  0  0
   38.7490   35.1080   38.0450 H   0  0  0  0  0  0  0  0  0  0  0  0
   37.5940   33.4280   37.4560 C   0  0  0  0  0  3  0  0  0  0  0  0
   37.2590   32.1430   37.8070 C   0  0  0  0  0  3  0  0  0  0  0  0
   36.3800   29.5140   38.1900 H   0  0  0  0  0  0  0  0  0  0  0  0
   37.3190   29.8780   39.1900 S   0  0  0  0  0  0  0  0  0  0  0  0
   38.4140   28.8860   38.9960 O   0  0  0  0  0  0  0  0  0  0  0  0
   36.5810   29.6050   40.4640 O   0  0  0  0  0  0  0  0  0  0  0  0
   38.2590   31.9160   44.5580 C   0  0  0  0  0  0  0  0  0  0  0  0
   37.0710   32.3400   44.4660 O   0  0  0  0  0  0  0  0  0  0  0  0
   38.9000   31.7770   45.8290 N   0  0  0  0  0  0  0  0  0  0  0  0
   39.9200   31.5980   45.9630 H   0  0  0  0  0  0  0  0  0  0  0  0
   38.4440   31.2040   48.2140 C   0  0  2  0  0  0  0  0  0  0  0  0
   38.7470   32.6430   48.1770 C   0  0  0  0  0  0  0  0  0  0  0  0
   38.0540   31.8950   47.0110 C   0  0  1  0  0  0  0  0  0  0  0  0
   39.3710   30.5700   48.2280 H   0  0  0  0  0  0  0  0  0  0  0  0
   39.7680   33.0060   48.0120 H   0  0  0  0  0  0  0  0  0  0  0  0
   38.0930   33.3760   48.6870 H   0  0  0  0  0  0  0  0  0  0  0  0
   36.9850   32.1840   46.8400 H   0  0  0  0  0  0  0  0  0  0  0  0
   35.1470   30.2270   49.5520 C   0  0  0  0  0  0  0  0  0  0  0  0
   35.4960   29.5420   50.7600 C   0  0  0  0  0  0  0  0  0  0  0  0
   36.8930   29.4450   51.0800 C   0  0  0  0  0  0  0  0  0  0  0  0
   37.8020   29.9970   50.2420 N   0  0  0  0  0  0  0  0  0  0  0  0
   37.4030   30.6340   49.1080 C   0  0  0  0  0  0  0  0  0  0  0  0
   36.0810   30.7670   48.7340 N   0  0  0  0  0  0  0  0  0  0  0  0
   34.0910   30.2920   49.3240 H   0  0  0  0  0  0  0  0  0  0  0  0
   34.7190   29.1270   51.3830 H   0  0  0  0  0  0  0  0  0  0  0  0
   37.1460   28.9330   51.9840 H   0  0  0  0  0  0  0  0  0  0  0  0
  1  2  1  0  0  0  0
  1 22  1  0  0  0  0
  2  7  1  0  0  0  0
  3  8  1  0  0  0  0
  3  2  2  0  0  0  0
  4  3  1  0  0  0  0
  5  4  2  0  0  0  0
  5  6  1  0  0  0  0
  6  1  2  0  0  0  0
  9  4  1  0  0  0  0
 10 19  1  0  0  0  0
 10 11  1  0  0  0  0
 11  5  1  0  0  0  0
 12 11  2  0  0  0  0
 12 13  1  0  0  0  0
 14 12  1  0  0  0  0
 15 14  1  0  0  0  0
 16 17  1  0  0  0  0
 16 14  2  0  0  0  0
 17 10  2  0  0  0  0
 18 19  1  0  0  0  0
 19 21  2  0  0  0  0
 20 19  2  0  0  0  0
 22 24  1  0  0  0  0
 23 22  2  0  0  0  0
 24 25  1  0  0  0  0
 24 28  1  0  0  0  0
 26 29  1  6  0  0  0
 26 37  1  0  0  0  0
 27 26  1  0  0  0  0
 27 31  1  0  0  0  0
 28 32  1  6  0  0  0
 28 27  1  0  0  0  0
 28 26  1  0  0  0  0
 30 27  1  0  0  0  0
 33 34  1  0  0  0  0
 34 35  2  0  0  0  0
 34 40  1  0  0  0  0
 35 41  1  0  0  0  0
 36 35  1  0  0  0  0
 37 36  2  0  0  0  0
 38 37  1  0  0  0  0
 38 33  2  0  0  0  0
 39 33  1  0  0  0  0
M  END
>  <minimizedAffinity>
-4.93810034

>  <minimizedRMSD>
0.553514123

$$$$
