
 OpenBabel03262520503D

 51 55  0  0  1  0  0  0  0  0999 V2000
   39.4470   28.7830   43.3050 C   0  0  0  0  0  0  0  0  0  0  0  0
   40.3250   29.8000   42.9720 C   0  0  0  0  0  0  0  0  0  0  0  0
   41.0630   29.6970   41.8000 C   0  0  0  0  0  0  0  0  0  0  0  0
   40.9540   28.6220   40.9610 C   0  0  0  0  0  0  0  0  0  0  0  0
   41.5590   28.3230   39.8010 N   0  0  0  0  0  0  0  0  0  0  0  0
   41.0630   27.1270   39.4130 C   0  0  0  0  0  0  0  0  0  0  0  0
   40.1270   26.6220   40.3080 C   0  0  0  0  0  0  0  0  0  0  0  0
   40.0830   27.6100   41.2910 C   0  0  0  0  0  0  0  0  0  0  0  0
   39.3530   27.7040   42.4400 C   0  0  0  0  0  0  0  0  0  0  0  0
   38.8290   28.7540   44.1780 H   0  0  0  0  0  0  0  0  0  0  0  0
   41.7480   30.5240   41.5730 H   0  0  0  0  0  0  0  0  0  0  0  0
   42.2720   28.8670   39.2670 H   0  0  0  0  0  0  0  0  0  0  0  0
   41.3640   26.6180   38.5020 H   0  0  0  0  0  0  0  0  0  0  0  0
   39.5920   25.6990   40.2310 H   0  0  0  0  0  0  0  0  0  0  0  0
   37.1050   26.4530   42.4450 C   0  0  0  0  0  0  0  0  0  0  0  0
   38.4290   26.5990   42.7600 C   0  0  0  0  0  0  0  0  0  0  0  0
   39.0930   25.6090   43.4890 C   0  0  0  0  0  0  0  0  0  0  0  0
   40.1430   25.6180   43.7950 H   0  0  0  0  0  0  0  0  0  0  0  0
   38.4390   24.4650   43.9090 C   0  0  0  0  0  0  0  0  0  0  0  0
   38.8930   23.6800   44.4640 H   0  0  0  0  0  0  0  0  0  0  0  0
   37.1020   24.3290   43.5850 C   0  0  0  0  0  0  0  0  0  0  0  0
   36.4550   25.3110   42.8640 C   0  0  0  0  0  0  0  0  0  0  0  0
   37.3490   28.2300   40.6200 H   0  0  0  0  0  0  0  0  0  0  0  0
   36.4370   27.7720   41.5390 S   0  0  0  0  0  0  0  0  0  0  0  0
   35.9400   28.8890   42.4130 O   0  0  0  0  0  0  0  0  0  0  0  0
   35.2610   27.2520   40.7560 O   0  0  0  0  0  0  0  0  0  0  0  0
   40.4410   30.9740   43.8920 C   0  0  0  0  0  0  0  0  0  0  0  0
   40.0880   31.8690   43.3350 H   0  0  0  0  0  0  0  0  0  0  0  0
   41.4840   31.0760   44.2500 H   0  0  0  0  0  0  0  0  0  0  0  0
   39.5460   30.7160   45.0840 C   0  0  0  0  0  0  0  0  0  0  0  0
   39.7190   29.6580   45.3670 H   0  0  0  0  0  0  0  0  0  0  0  0
   38.5190   30.9390   44.7390 H   0  0  0  0  0  0  0  0  0  0  0  0
   38.7710   32.2650   46.9180 C   0  0  1  0  0  0  0  0  0  0  0  0
   39.8890   33.0220   46.2410 C   0  0  0  0  0  0  0  0  0  0  0  0
   39.8760   31.5460   46.2720 C   0  0  2  0  0  0  0  0  0  0  0  0
   37.7700   32.2430   46.4240 H   0  0  0  0  0  0  0  0  0  0  0  0
   40.5860   33.6210   46.8400 H   0  0  0  0  0  0  0  0  0  0  0  0
   39.6160   33.4630   45.2600 H   0  0  0  0  0  0  0  0  0  0  0  0
   40.6250   31.1180   47.0020 H   0  0  0  0  0  0  0  0  0  0  0  0
   38.6970   32.4250   48.4050 C   0  0  0  0  0  0  0  0  0  0  0  0
   39.6940   32.4780   48.8700 H   0  0  0  0  0  0  0  0  0  0  0  0
   38.1370   33.3870   48.5870 H   0  0  0  0  0  0  0  0  0  0  0  0
   37.4460   30.0150   50.9910 C   0  0  0  0  0  0  0  0  0  0  0  0
   38.1600   31.0850   50.3620 C   0  0  0  0  0  0  0  0  0  0  0  0
   37.9480   31.3120   49.0330 C   0  0  0  0  0  0  0  0  0  0  0  0
   37.0760   30.5150   48.3790 N   0  0  0  0  0  0  0  0  0  0  0  0
   36.4120   29.5170   48.9740 C   0  0  0  0  0  0  0  0  0  0  0  0
   36.6060   29.2800   50.2720 N   0  0  0  0  0  0  0  0  0  0  0  0
   37.6780   29.9110   52.0420 H   0  0  0  0  0  0  0  0  0  0  0  0
   38.8510   31.6990   50.9260 H   0  0  0  0  0  0  0  0  0  0  0  0
   35.7180   28.8800   48.4620 H   0  0  0  0  0  0  0  0  0  0  0  0
  1 10  1  0  0  0  0
  2  1  1  0  0  0  0
  2 27  1  0  0  0  0
  3  2  2  0  0  0  0
  4  8  2  0  0  0  0
  4  3  1  0  0  0  0
  5  4  1  0  0  0  0
  6  5  1  0  0  0  0
  6  7  2  0  0  0  0
  7  8  1  0  0  0  0
  8  9  1  0  0  0  0
  9 16  1  0  0  0  0
  9  1  2  0  0  0  0
 11  3  1  0  0  0  0
 12  5  1  0  0  0  0
 13  6  1  0  0  0  0
 14  7  1  0  0  0  0
 15 16  2  0  0  0  0
 15 22  1  0  0  0  0
 16 17  1  0  0  0  0
 17 18  1  0  0  0  0
 17 19  2  0  0  0  0
 19 20  1  0  0  0  0
 21 19  1  0  0  0  0
 22 21  2  0  0  0  0
 23 24  1  0  0  0  0
 24 25  2  0  0  0  0
 24 15  1  0  0  0  0
 26 24  2  0  0  0  0
 27 29  1  0  0  0  0
 27 30  1  0  0  0  0
 28 27  1  0  0  0  0
 30 31  1  0  0  0  0
 30 35  1  0  0  0  0
 32 30  1  0  0  0  0
 33 36  1  6  0  0  0
 33 40  1  0  0  0  0
 34 35  1  0  0  0  0
 34 37  1  0  0  0  0
 34 33  1  0  0  0  0
 35 33  1  0  0  0  0
 35 39  1  1  0  0  0
 38 34  1  0  0  0  0
 40 42  1  0  0  0  0
 40 41  1  0  0  0  0
 40 45  1  0  0  0  0
 43 49  1  0  0  0  0
 44 50  1  0  0  0  0
 44 43  1  0  0  0  0
 45 44  2  0  0  0  0
 46 47  2  0  0  0  0
 46 45  1  0  0  0  0
 47 48  1  0  0  0  0
 48 43  2  0  0  0  0
 51 47  1  0  0  0  0
M  END
>  <minimizedAffinity>
-6.13165998

>  <minimizedRMSD>
0.569407344

$$$$
