
 OpenBabel03272510173D

 31 33  0  0  0  0  0  0  0  0999 V2000
   37.2130   29.4270   51.0720 Br  0  0  0  0  0  0  0  0  0  0  0  0
   35.9400   29.3710   49.6420 C   0  0  0  0  0  0  0  0  0  0  0  0
   36.0210   30.2530   48.5900 C   0  0  0  0  0  0  0  0  0  0  0  0
   35.0710   30.1490   47.6020 C   0  0  0  0  0  0  0  0  0  0  0  0
   34.0460   29.2060   47.6200 C   0  0  0  0  0  0  0  0  0  0  0  0
   34.0110   28.3510   48.6900 C   0  0  0  0  0  0  0  0  0  0  0  0
   34.9510   28.4330   49.6920 C   0  0  0  0  0  0  0  0  0  0  0  0
   35.1830   30.8790   46.7850 H   0  0  0  0  0  0  0  0  0  0  0  0
   33.2020   27.6350   48.6630 H   0  0  0  0  0  0  0  0  0  0  0  0
   34.8680   27.7250   50.5160 H   0  0  0  0  0  0  0  0  0  0  0  0
   38.0170   33.1890   49.4440 C   0  0  0  0  0  0  0  0  0  0  0  0
   39.0550   33.1810   48.4770 C   0  0  0  0  0  0  0  0  0  0  0  0
   39.0470   32.1520   47.5400 C   0  0  0  0  0  0  0  0  0  0  0  0
   38.0560   31.2170   47.5970 N   0  0  0  0  0  0  0  0  0  0  0  0
   37.0810   31.2580   48.5340 C   0  0  0  0  0  0  0  0  0  0  0  0
   37.0750   32.2480   49.4480 N   0  0  0  0  0  0  0  0  0  0  0  0
   37.9490   33.9610   50.2140 H   0  0  0  0  0  0  0  0  0  0  0  0
   39.7990   33.9610   48.5060 H   0  0  0  0  0  0  0  0  0  0  0  0
   39.8290   32.1170   46.7880 H   0  0  0  0  0  0  0  0  0  0  0  0
   32.8850   28.2750   45.5870 C   0  0  0  0  0  0  0  0  0  0  0  0
   33.1490   29.2710   46.4720 C   0  0  0  0  0  0  0  0  0  0  0  0
   32.4920   30.4870   46.2550 C   0  0  0  0  0  0  0  0  0  0  0  0
   32.6450   31.3500   46.9210 H   0  0  0  0  0  0  0  0  0  0  0  0
   31.6230   30.7220   45.2310 C   0  0  0  0  0  0  0  0  0  0  0  0
   31.1290   31.6710   45.0880 H   0  0  0  0  0  0  0  0  0  0  0  0
   31.3600   29.7130   44.3410 C   0  0  0  0  0  3  0  0  0  0  0  0
   31.9960   28.5110   44.5370 C   0  0  0  0  0  3  0  0  0  0  0  0
   34.8680   26.9230   46.4370 H   0  0  0  0  0  0  0  0  0  0  0  0
   33.6750   26.7560   45.8200 S   0  0  0  0  0  0  0  0  0  0  0  0
   32.8090   25.7200   46.4830 O   0  0  0  0  0  0  0  0  0  0  0  0
   33.9930   26.2190   44.4300 O   0  0  0  0  0  0  0  0  0  0  0  0
  2  7  1  0  0  0  0
  2  1  1  0  0  0  0
  3  2  2  0  0  0  0
  4  5  2  0  0  0  0
  4  3  1  0  0  0  0
  5  6  1  0  0  0  0
  6  7  2  0  0  0  0
  7 10  1  0  0  0  0
  8  4  1  0  0  0  0
  9  6  1  0  0  0  0
 11 16  1  0  0  0  0
 11 17  1  0  0  0  0
 12 18  1  0  0  0  0
 12 11  2  0  0  0  0
 13 14  2  0  0  0  0
 13 12  1  0  0  0  0
 14 15  1  0  0  0  0
 15  3  1  0  0  0  0
 15 16  2  0  0  0  0
 19 13  1  0  0  0  0
 20 29  1  0  0  0  0
 20 21  1  0  0  0  0
 21  5  1  0  0  0  0
 22 21  2  0  0  0  0
 22 23  1  0  0  0  0
 24 22  1  0  0  0  0
 25 24  1  0  0  0  0
 26 27  1  0  0  0  0
 26 24  2  0  0  0  0
 27 20  2  0  0  0  0
 29 28  1  0  0  0  0
 29 30  2  0  0  0  0
 31 29  2  0  0  0  0
M  END
>  <minimizedAffinity>
-5.84037876

>  <minimizedRMSD>
0.461664557

$$$$
