
 OpenBabel03272503383D

 22 23  0  0  0  0  0  0  0  0999 V2000
   37.7730   25.2560   33.9930 C   0  0  0  0  0  0  0  0  0  0  0  0
   38.2770   25.5840   35.2380 C   0  0  0  0  0  0  0  0  0  0  0  0
   38.1190   26.8520   35.7240 C   0  0  0  0  0  0  0  0  0  0  0  0
   38.4800   27.1890   36.6820 H   0  0  0  0  0  0  0  0  0  0  0  0
   37.4700   27.8520   35.0320 C   0  0  0  0  0  0  0  0  0  0  0  0
   37.3330   28.8650   35.3970 H   0  0  0  0  0  0  0  0  0  0  0  0
   36.9430   27.5720   33.7700 C   0  0  0  0  0  3  0  0  0  0  0  0
   37.1280   26.2770   33.3200 C   0  0  0  0  0  3  0  0  0  0  0  0
   39.1980   23.0280   37.8320 C   0  0  0  0  0  0  0  0  0  0  0  0
   38.4470   24.0010   37.1630 C   0  0  0  0  0  0  0  0  0  0  0  0
   38.9720   24.5630   36.0130 C   0  0  0  0  0  0  0  0  0  0  0  0
   40.1950   24.1270   35.6110 N   0  0  0  0  0  0  0  0  0  0  0  0
   40.9220   23.1850   36.2560 C   0  0  0  0  0  0  0  0  0  0  0  0
   40.3980   22.6470   37.3740 N   0  0  0  0  0  0  0  0  0  0  0  0
   37.4960   24.3030   37.5240 H   0  0  0  0  0  0  0  0  0  0  0  0
   41.8790   22.8740   35.9010 H   0  0  0  0  0  0  0  0  0  0  0  0
   38.5700   22.5280   38.9790 O   0  0  0  0  0  0  0  0  0  0  0  0
   38.2830   23.2080   39.6970 H   0  0  0  0  0  0  0  0  0  0  0  0
   38.1460   22.6880   34.1880 H   0  0  0  0  0  0  0  0  0  0  0  0
   37.9180   23.6770   33.2800 S   0  0  0  0  0  0  0  0  0  0  0  0
   36.7680   23.3620   32.3450 O   0  0  0  0  0  0  0  0  0  0  0  0
   39.1410   23.6980   32.3720 O   0  0  0  0  0  0  0  0  0  0  0  0
  1  2  1  0  0  0  0
  2  3  2  0  0  0  0
  2 11  1  0  0  0  0
  3  4  1  0  0  0  0
  5  6  1  0  0  0  0
  5  3  1  0  0  0  0
  7  5  2  0  0  0  0
  8  7  1  0  0  0  0
  8  1  2  0  0  0  0
  9 17  1  0  0  0  0
 10 15  1  0  0  0  0
 10  9  2  0  0  0  0
 11 10  1  0  0  0  0
 12 11  2  0  0  0  0
 12 13  1  0  0  0  0
 13 14  2  0  0  0  0
 14  9  1  0  0  0  0
 16 13  1  0  0  0  0
 17 18  1  0  0  0  0
 20  1  1  0  0  0  0
 20 19  1  0  0  0  0
 21 20  2  0  0  0  0
 22 20  2  0  0  0  0
M  END
>  <minimizedAffinity>
-4.89817142

$$$$

 OpenBabel03272503383D

 22 23  0  0  0  0  0  0  0  0999 V2000
   38.9450   24.8720   33.6340 C   0  0  0  0  0  0  0  0  0  0  0  0
   39.5220   25.2770   34.8240 C   0  0  0  0  0  0  0  0  0  0  0  0
   40.3180   26.3880   34.8500 C   0  0  0  0  0  0  0  0  0  0  0  0
   40.8040   26.7710   35.7330 H   0  0  0  0  0  0  0  0  0  0  0  0
   40.5890   27.1520   33.7350 C   0  0  0  0  0  0  0  0  0  0  0  0
   41.2180   28.0360   33.7330 H   0  0  0  0  0  0  0  0  0  0  0  0
   40.0310   26.7850   32.5100 C   0  0  0  0  0  3  0  0  0  0  0  0
   39.2330   25.6550   32.5320 C   0  0  0  0  0  3  0  0  0  0  0  0
   39.7200   22.7640   37.6070 C   0  0  0  0  0  0  0  0  0  0  0  0
   40.0530   23.4370   36.4270 C   0  0  0  0  0  0  0  0  0  0  0  0
   39.2670   24.5050   36.0340 C   0  0  0  0  0  0  0  0  0  0  0  0
   38.2150   24.8290   36.8320 N   0  0  0  0  0  0  0  0  0  0  0  0
   37.8920   24.1790   37.9740 C   0  0  0  0  0  0  0  0  0  0  0  0
   38.6660   23.1410   38.3430 N   0  0  0  0  0  0  0  0  0  0  0  0
   40.8870   23.1390   35.8430 H   0  0  0  0  0  0  0  0  0  0  0  0
   37.0550   24.4710   38.5680 H   0  0  0  0  0  0  0  0  0  0  0  0
   40.5820   21.7020   37.9080 O   0  0  0  0  0  0  0  0  0  0  0  0
   40.7050   20.9730   37.1910 H   0  0  0  0  0  0  0  0  0  0  0  0
   37.2250   23.1880   34.6230 H   0  0  0  0  0  0  0  0  0  0  0  0
   37.9180   23.4770   33.4870 S   0  0  0  0  0  0  0  0  0  0  0  0
   37.0320   23.5430   32.2590 O   0  0  0  0  0  0  0  0  0  0  0  0
   38.8180   22.2740   33.2320 O   0  0  0  0  0  0  0  0  0  0  0  0
  1  2  1  0  0  0  0
  2  3  2  0  0  0  0
  2 11  1  0  0  0  0
  3  4  1  0  0  0  0
  5  3  1  0  0  0  0
  6  5  1  0  0  0  0
  7  8  1  0  0  0  0
  7  5  2  0  0  0  0
  8  1  2  0  0  0  0
  9 17  1  0  0  0  0
  9 14  1  0  0  0  0
 10  9  2  0  0  0  0
 11 10  1  0  0  0  0
 11 12  2  0  0  0  0
 12 13  1  0  0  0  0
 13 14  2  0  0  0  0
 13 16  1  0  0  0  0
 15 10  1  0  0  0  0
 18 17  1  0  0  0  0
 20  1  1  0  0  0  0
 20 19  1  0  0  0  0
 21 20  2  0  0  0  0
 22 20  2  0  0  0  0
M  END
>  <minimizedAffinity>
-4.66421938

$$$$

 OpenBabel03272503383D

 22 23  0  0  0  0  0  0  0  0999 V2000
   37.9640   25.4690   34.3270 C   0  0  0  0  0  0  0  0  0  0  0  0
   38.2780   24.1240   34.3930 C   0  0  0  0  0  0  0  0  0  0  0  0
   37.8450   23.2750   33.4140 C   0  0  0  0  0  0  0  0  0  0  0  0
   38.0470   22.2160   33.3890 H   0  0  0  0  0  0  0  0  0  0  0  0
   37.0950   23.6860   32.3320 C   0  0  0  0  0  0  0  0  0  0  0  0
   36.7410   23.0310   31.5430 H   0  0  0  0  0  0  0  0  0  0  0  0
   36.7510   25.0340   32.2190 C   0  0  0  0  0  3  0  0  0  0  0  0
   37.2100   25.8550   33.2340 C   0  0  0  0  0  3  0  0  0  0  0  0
   39.3780   22.8850   37.7640 C   0  0  0  0  0  0  0  0  0  0  0  0
   38.5270   23.3490   36.7550 C   0  0  0  0  0  0  0  0  0  0  0  0
   39.0710   23.6350   35.5150 C   0  0  0  0  0  0  0  0  0  0  0  0
   40.4080   23.4440   35.3640 N   0  0  0  0  0  0  0  0  0  0  0  0
   41.2320   22.9950   36.3390 C   0  0  0  0  0  0  0  0  0  0  0  0
   40.6880   22.7210   37.5410 N   0  0  0  0  0  0  0  0  0  0  0  0
   37.4890   23.4800   36.9310 H   0  0  0  0  0  0  0  0  0  0  0  0
   42.2780   22.8590   36.1720 H   0  0  0  0  0  0  0  0  0  0  0  0
   38.7220   22.6280   38.9740 O   0  0  0  0  0  0  0  0  0  0  0  0
   38.1790   23.3960   39.3920 H   0  0  0  0  0  0  0  0  0  0  0  0
   38.2400   26.2330   36.7990 H   0  0  0  0  0  0  0  0  0  0  0  0
   38.4610   26.6350   35.5170 S   0  0  0  0  0  0  0  0  0  0  0  0
   39.8790   27.1180   35.2900 O   0  0  0  0  0  0  0  0  0  0  0  0
   37.6070   27.8810   35.3190 O   0  0  0  0  0  0  0  0  0  0  0  0
  1  2  1  0  0  0  0
  1 20  1  0  0  0  0
  2 11  1  0  0  0  0
  3  2  2  0  0  0  0
  4  3  1  0  0  0  0
  5  3  1  0  0  0  0
  6  5  1  0  0  0  0
  7  5  2  0  0  0  0
  7  8  1  0  0  0  0
  8  1  2  0  0  0  0
  9 17  1  0  0  0  0
 10 15  1  0  0  0  0
 10  9  2  0  0  0  0
 11 10  1  0  0  0  0
 12 11  2  0  0  0  0
 12 13  1  0  0  0  0
 13 14  2  0  0  0  0
 14  9  1  0  0  0  0
 16 13  1  0  0  0  0
 17 18  1  0  0  0  0
 20 19  1  0  0  0  0
 21 20  2  0  0  0  0
 22 20  2  0  0  0  0
M  END
>  <minimizedAffinity>
-4.66320848

$$$$

 OpenBabel03272503383D

 22 23  0  0  0  0  0  0  0  0999 V2000
   39.3140   23.3490   36.7050 C   0  0  0  0  0  0  0  0  0  0  0  0
   39.7870   24.2080   35.7300 C   0  0  0  0  0  0  0  0  0  0  0  0
   41.0930   24.1340   35.3340 C   0  0  0  0  0  0  0  0  0  0  0  0
   41.5410   24.7630   34.5820 H   0  0  0  0  0  0  0  0  0  0  0  0
   41.9930   23.2310   35.8590 C   0  0  0  0  0  0  0  0  0  0  0  0
   43.0340   23.1540   35.5600 H   0  0  0  0  0  0  0  0  0  0  0  0
   41.5650   22.3420   36.8460 C   0  0  0  0  0  3  0  0  0  0  0  0
   40.2360   22.4550   37.2150 C   0  0  0  0  0  3  0  0  0  0  0  0
   37.7350   27.2800   35.0560 C   0  0  0  0  0  0  0  0  0  0  0  0
   38.6270   26.4190   35.7040 C   0  0  0  0  0  0  0  0  0  0  0  0
   38.8770   25.1820   35.1400 C   0  0  0  0  0  0  0  0  0  0  0  0
   38.2300   24.8850   33.9810 N   0  0  0  0  0  0  0  0  0  0  0  0
   37.3680   25.7170   33.3520 C   0  0  0  0  0  0  0  0  0  0  0  0
   37.1340   26.9180   33.9140 N   0  0  0  0  0  0  0  0  0  0  0  0
   39.1040   26.7050   36.6090 H   0  0  0  0  0  0  0  0  0  0  0  0
   36.8830   25.4390   32.4420 H   0  0  0  0  0  0  0  0  0  0  0  0
   37.5570   28.5030   35.7150 O   0  0  0  0  0  0  0  0  0  0  0  0
   37.2570   28.4730   36.6980 H   0  0  0  0  0  0  0  0  0  0  0  0
   37.0720   24.5760   37.1960 H   0  0  0  0  0  0  0  0  0  0  0  0
   37.6740   23.3580   37.2830 S   0  0  0  0  0  0  0  0  0  0  0  0
   36.8440   22.2480   36.6700 O   0  0  0  0  0  0  0  0  0  0  0  0
   37.7120   23.0180   38.7670 O   0  0  0  0  0  0  0  0  0  0  0  0
  1  8  1  0  0  0  0
  1 20  1  0  0  0  0
  2  1  2  0  0  0  0
  3  2  1  0  0  0  0
  3  5  2  0  0  0  0
  4  3  1  0  0  0  0
  5  7  1  0  0  0  0
  6  5  1  0  0  0  0
  7  8  2  0  0  0  0
  9 10  1  0  0  0  0
  9 17  1  0  0  0  0
 10 15  1  0  0  0  0
 11 10  2  0  0  0  0
 11  2  1  0  0  0  0
 12 11  1  0  0  0  0
 13 14  1  0  0  0  0
 13 12  2  0  0  0  0
 14  9  2  0  0  0  0
 16 13  1  0  0  0  0
 17 18  1  0  0  0  0
 19 20  1  0  0  0  0
 20 22  2  0  0  0  0
 21 20  2  0  0  0  0
M  END
>  <minimizedAffinity>
-4.60058355

$$$$

 OpenBabel03272503383D

 22 23  0  0  0  0  0  0  0  0999 V2000
   36.2320   26.3730   31.7160 C   0  0  0  0  0  0  0  0  0  0  0  0
   37.0730   25.5340   32.4230 C   0  0  0  0  0  0  0  0  0  0  0  0
   36.8970   24.1800   32.3570 C   0  0  0  0  0  0  0  0  0  0  0  0
   37.5080   23.4580   32.8750 H   0  0  0  0  0  0  0  0  0  0  0  0
   35.9060   23.5810   31.6090 C   0  0  0  0  0  0  0  0  0  0  0  0
   35.7480   22.5100   31.5420 H   0  0  0  0  0  0  0  0  0  0  0  0
   35.0300   24.3840   30.8770 C   0  0  0  0  0  3  0  0  0  0  0  0
   35.2460   25.7470   30.9750 C   0  0  0  0  0  3  0  0  0  0  0  0
   39.0270   27.1550   35.1910 C   0  0  0  0  0  0  0  0  0  0  0  0
   37.9340   26.6180   34.5020 C   0  0  0  0  0  0  0  0  0  0  0  0
   38.1390   26.1150   33.2300 C   0  0  0  0  0  0  0  0  0  0  0  0
   39.4030   26.1790   32.7330 N   0  0  0  0  0  0  0  0  0  0  0  0
   40.4610   26.6970   33.3990 C   0  0  0  0  0  0  0  0  0  0  0  0
   40.2460   27.1830   34.6360 N   0  0  0  0  0  0  0  0  0  0  0  0
   36.9680   26.5950   34.9410 H   0  0  0  0  0  0  0  0  0  0  0  0
   41.4380   26.7240   32.9670 H   0  0  0  0  0  0  0  0  0  0  0  0
   38.7040   27.6330   36.4670 O   0  0  0  0  0  0  0  0  0  0  0  0
   37.9550   28.3350   36.5350 H   0  0  0  0  0  0  0  0  0  0  0  0
   37.3730   28.5690   32.5180 H   0  0  0  0  0  0  0  0  0  0  0  0
   36.3650   28.1060   31.7290 S   0  0  0  0  0  0  0  0  0  0  0  0
   36.3990   28.6890   30.3310 O   0  0  0  0  0  0  0  0  0  0  0  0
   35.0790   28.6580   32.3310 O   0  0  0  0  0  0  0  0  0  0  0  0
  1 20  1  0  0  0  0
  1  2  1  0  0  0  0
  2 11  1  0  0  0  0
  3  2  2  0  0  0  0
  3  4  1  0  0  0  0
  5  3  1  0  0  0  0
  6  5  1  0  0  0  0
  7  8  1  0  0  0  0
  7  5  2  0  0  0  0
  8  1  2  0  0  0  0
  9 17  1  0  0  0  0
 10 15  1  0  0  0  0
 10  9  2  0  0  0  0
 11 10  1  0  0  0  0
 12 11  2  0  0  0  0
 12 13  1  0  0  0  0
 13 14  2  0  0  0  0
 14  9  1  0  0  0  0
 16 13  1  0  0  0  0
 17 18  1  0  0  0  0
 20 22  2  0  0  0  0
 20 19  1  0  0  0  0
 21 20  2  0  0  0  0
M  END
>  <minimizedAffinity>
-4.50713396

$$$$

 OpenBabel03272503383D

 22 23  0  0  0  0  0  0  0  0999 V2000
   37.4340   22.5980   33.3660 C   0  0  0  0  0  0  0  0  0  0  0  0
   37.2640   21.9400   34.5710 C   0  0  0  0  0  0  0  0  0  0  0  0
   36.3400   20.9390   34.6750 C   0  0  0  0  0  0  0  0  0  0  0  0
   36.1460   20.3770   35.5740 H   0  0  0  0  0  0  0  0  0  0  0  0
   35.5430   20.5320   33.6260 C   0  0  0  0  0  0  0  0  0  0  0  0
   34.8030   19.7410   33.6860 H   0  0  0  0  0  0  0  0  0  0  0  0
   35.6760   21.1650   32.3890 C   0  0  0  0  0  3  0  0  0  0  0  0
   36.6220   22.1710   32.3310 C   0  0  0  0  0  3  0  0  0  0  0  0
   38.4940   23.4790   37.7680 C   0  0  0  0  0  0  0  0  0  0  0  0
   37.6270   23.1670   36.7160 C   0  0  0  0  0  0  0  0  0  0  0  0
   38.0820   22.3310   35.7130 C   0  0  0  0  0  0  0  0  0  0  0  0
   39.3550   21.8660   35.8220 N   0  0  0  0  0  0  0  0  0  0  0  0
   40.1950   22.1660   36.8390 C   0  0  0  0  0  0  0  0  0  0  0  0
   39.7370   22.9820   37.8080 N   0  0  0  0  0  0  0  0  0  0  0  0
   36.6410   23.5600   36.6830 H   0  0  0  0  0  0  0  0  0  0  0  0
   41.1880   21.7760   36.8820 H   0  0  0  0  0  0  0  0  0  0  0  0
   37.9290   24.3310   38.7250 O   0  0  0  0  0  0  0  0  0  0  0  0
   37.5490   25.2290   38.3960 H   0  0  0  0  0  0  0  0  0  0  0  0
   39.6980   23.7700   33.8900 H   0  0  0  0  0  0  0  0  0  0  0  0
   38.5790   23.8840   33.1230 S   0  0  0  0  0  0  0  0  0  0  0  0
   38.8910   24.1050   31.6570 O   0  0  0  0  0  0  0  0  0  0  0  0
   37.9070   25.1800   33.5590 O   0  0  0  0  0  0  0  0  0  0  0  0
  1  2  1  0  0  0  0
  2  3  2  0  0  0  0
  2 11  1  0  0  0  0
  3  4  1  0  0  0  0
  5  6  1  0  0  0  0
  5  3  1  0  0  0  0
  7  5  2  0  0  0  0
  8  7  1  0  0  0  0
  8  1  2  0  0  0  0
  9 14  1  0  0  0  0
  9 17  1  0  0  0  0
 10  9  2  0  0  0  0
 11 12  2  0  0  0  0
 11 10  1  0  0  0  0
 12 13  1  0  0  0  0
 13 16  1  0  0  0  0
 13 14  2  0  0  0  0
 15 10  1  0  0  0  0
 18 17  1  0  0  0  0
 20  1  1  0  0  0  0
 20 22  2  0  0  0  0
 20 19  1  0  0  0  0
 21 20  2  0  0  0  0
M  END
>  <minimizedAffinity>
-4.39092827

$$$$

 OpenBabel03272503383D

 22 23  0  0  0  0  0  0  0  0999 V2000
   36.4600   25.2940   31.7870 C   0  0  0  0  0  0  0  0  0  0  0  0
   37.4100   24.7420   32.6280 C   0  0  0  0  0  0  0  0  0  0  0  0
   37.4320   23.3920   32.8370 C   0  0  0  0  0  0  0  0  0  0  0  0
   38.1380   22.8830   33.4740 H   0  0  0  0  0  0  0  0  0  0  0  0
   36.5440   22.5200   32.2440 C   0  0  0  0  0  0  0  0  0  0  0  0
   36.5430   21.4450   32.3950 H   0  0  0  0  0  0  0  0  0  0  0  0
   35.5660   23.0260   31.3870 C   0  0  0  0  0  3  0  0  0  0  0  0
   35.5820   24.3980   31.2070 C   0  0  0  0  0  3  0  0  0  0  0  0
   39.1360   27.0440   35.0430 C   0  0  0  0  0  0  0  0  0  0  0  0
   38.1420   26.2180   34.5060 C   0  0  0  0  0  0  0  0  0  0  0  0
   38.3740   25.6200   33.2810 C   0  0  0  0  0  0  0  0  0  0  0  0
   39.5650   25.8800   32.6780 N   0  0  0  0  0  0  0  0  0  0  0  0
   40.5270   26.6770   33.1960 C   0  0  0  0  0  0  0  0  0  0  0  0
   40.2870   27.2530   34.3900 N   0  0  0  0  0  0  0  0  0  0  0  0
   37.2300   26.0510   35.0220 H   0  0  0  0  0  0  0  0  0  0  0  0
   41.4480   26.8510   32.6850 H   0  0  0  0  0  0  0  0  0  0  0  0
   38.7950   27.5950   36.2840 O   0  0  0  0  0  0  0  0  0  0  0  0
   37.9190   28.1320   36.3400 H   0  0  0  0  0  0  0  0  0  0  0  0
   35.3660   27.3070   30.5550 H   0  0  0  0  0  0  0  0  0  0  0  0
   36.3410   26.9960   31.4530 S   0  0  0  0  0  0  0  0  0  0  0  0
   36.2600   27.8250   32.7190 O   0  0  0  0  0  0  0  0  0  0  0  0
   37.6520   27.4270   30.8080 O   0  0  0  0  0  0  0  0  0  0  0  0
  1  2  1  0  0  0  0
  2  3  2  0  0  0  0
  2 11  1  0  0  0  0
  3  4  1  0  0  0  0
  5  6  1  0  0  0  0
  5  3  1  0  0  0  0
  7  5  2  0  0  0  0
  8  7  1  0  0  0  0
  8  1  2  0  0  0  0
  9 17  1  0  0  0  0
 10 15  1  0  0  0  0
 10  9  1  0  0  0  0
 11 10  2  0  0  0  0
 12 13  2  0  0  0  0
 12 11  1  0  0  0  0
 13 14  1  0  0  0  0
 14  9  2  0  0  0  0
 16 13  1  0  0  0  0
 17 18  1  0  0  0  0
 19 20  1  0  0  0  0
 20  1  1  0  0  0  0
 20 21  2  0  0  0  0
 22 20  2  0  0  0  0
M  END
>  <minimizedAffinity>
-4.36286259

$$$$

 OpenBabel03272503383D

 22 23  0  0  0  0  0  0  0  0999 V2000
   37.3490   23.5750   32.7130 C   0  0  0  0  0  0  0  0  0  0  0  0
   36.4570   23.1700   31.7370 C   0  0  0  0  0  0  0  0  0  0  0  0
   35.7030   24.0990   31.0760 C   0  0  0  0  0  0  0  0  0  0  0  0
   34.9880   23.8680   30.3040 H   0  0  0  0  0  0  0  0  0  0  0  0
   35.7790   25.4530   31.3270 C   0  0  0  0  0  0  0  0  0  0  0  0
   35.1910   26.2070   30.8150 H   0  0  0  0  0  0  0  0  0  0  0  0
   36.6640   25.9130   32.3030 C   0  0  0  0  0  3  0  0  0  0  0  0
   37.4040   24.9370   32.9460 C   0  0  0  0  0  3  0  0  0  0  0  0
   35.2760   19.6110   31.5350 C   0  0  0  0  0  0  0  0  0  0  0  0
   35.2950   20.9650   31.8870 C   0  0  0  0  0  0  0  0  0  0  0  0
   36.3380   21.7490   31.4310 C   0  0  0  0  0  0  0  0  0  0  0  0
   37.2840   21.1430   30.6660 N   0  0  0  0  0  0  0  0  0  0  0  0
   37.2670   19.8340   30.3240 C   0  0  0  0  0  0  0  0  0  0  0  0
   36.2450   19.0820   30.7750 N   0  0  0  0  0  0  0  0  0  0  0  0
   34.5280   21.3840   32.4890 H   0  0  0  0  0  0  0  0  0  0  0  0
   38.0330   19.4020   29.7190 H   0  0  0  0  0  0  0  0  0  0  0  0
   34.1760   18.9130   32.0490 O   0  0  0  0  0  0  0  0  0  0  0  0
   34.0290   18.9430   33.0670 H   0  0  0  0  0  0  0  0  0  0  0  0
   38.7890   21.4140   32.8870 H   0  0  0  0  0  0  0  0  0  0  0  0
   38.3550   22.4800   33.6150 S   0  0  0  0  0  0  0  0  0  0  0  0
   39.4790   23.1950   34.3360 O   0  0  0  0  0  0  0  0  0  0  0  0
   37.5030   21.8990   34.7370 O   0  0  0  0  0  0  0  0  0  0  0  0
  1  8  1  0  0  0  0
  1 20  1  0  0  0  0
  2  1  2  0  0  0  0
  3  5  2  0  0  0  0
  3  2  1  0  0  0  0
  4  3  1  0  0  0  0
  5  7  1  0  0  0  0
  6  5  1  0  0  0  0
  7  8  2  0  0  0  0
  9 10  1  0  0  0  0
  9 17  1  0  0  0  0
 10 15  1  0  0  0  0
 11  2  1  0  0  0  0
 11 10  2  0  0  0  0
 12 11  1  0  0  0  0
 13 12  2  0  0  0  0
 13 14  1  0  0  0  0
 14  9  2  0  0  0  0
 16 13  1  0  0  0  0
 17 18  1  0  0  0  0
 19 20  1  0  0  0  0
 20 21  2  0  0  0  0
 20 22  2  0  0  0  0
M  END
>  <minimizedAffinity>
-4.31144381

$$$$

 OpenBabel03272503383D

 22 23  0  0  0  0  0  0  0  0999 V2000
   39.4470   26.2050   34.0450 C   0  0  0  0  0  0  0  0  0  0  0  0
   39.9800   25.0950   34.6740 C   0  0  0  0  0  0  0  0  0  0  0  0
   41.3290   25.0070   34.8700 C   0  0  0  0  0  0  0  0  0  0  0  0
   41.8240   24.1790   35.3520 H   0  0  0  0  0  0  0  0  0  0  0  0
   42.2180   25.9820   34.4710 C   0  0  0  0  0  0  0  0  0  0  0  0
   43.2920   25.9330   34.6160 H   0  0  0  0  0  0  0  0  0  0  0  0
   41.7310   27.1220   33.8310 C   0  0  0  0  0  3  0  0  0  0  0  0
   40.3600   27.1670   33.6530 C   0  0  0  0  0  3  0  0  0  0  0  0
   37.8070   22.8420   36.7500 C   0  0  0  0  0  0  0  0  0  0  0  0
   38.6690   23.8980   36.4300 C   0  0  0  0  0  0  0  0  0  0  0  0
   39.0840   24.0340   35.1180 C   0  0  0  0  0  0  0  0  0  0  0  0
   38.6220   23.1220   34.2220 N   0  0  0  0  0  0  0  0  0  0  0  0
   37.7890   22.1010   34.5300 C   0  0  0  0  0  0  0  0  0  0  0  0
   37.3930   21.9810   35.8120 N   0  0  0  0  0  0  0  0  0  0  0  0
   38.9970   24.5810   37.1730 H   0  0  0  0  0  0  0  0  0  0  0  0
   37.4520   21.4090   33.7900 H   0  0  0  0  0  0  0  0  0  0  0  0
   37.4510   22.8020   38.1040 O   0  0  0  0  0  0  0  0  0  0  0  0
   38.2140   22.7640   38.7940 H   0  0  0  0  0  0  0  0  0  0  0  0
   37.1600   25.3440   33.1500 H   0  0  0  0  0  0  0  0  0  0  0  0
   37.7480   26.4200   33.7430 S   0  0  0  0  0  0  0  0  0  0  0  0
   37.0020   26.8920   34.9740 O   0  0  0  0  0  0  0  0  0  0  0  0
   37.6020   27.5700   32.7550 O   0  0  0  0  0  0  0  0  0  0  0  0
  1  2  1  0  0  0  0
  2  3  2  0  0  0  0
  2 11  1  0  0  0  0
  3  4  1  0  0  0  0
  5  6  1  0  0  0  0
  5  3  1  0  0  0  0
  7  5  2  0  0  0  0
  8  7  1  0  0  0  0
  8  1  2  0  0  0  0
  9 17  1  0  0  0  0
 10  9  1  0  0  0  0
 10 15  1  0  0  0  0
 11 10  2  0  0  0  0
 12 13  2  0  0  0  0
 12 11  1  0  0  0  0
 13 14  1  0  0  0  0
 14  9  2  0  0  0  0
 16 13  1  0  0  0  0
 17 18  1  0  0  0  0
 19 20  1  0  0  0  0
 20  1  1  0  0  0  0
 20 21  2  0  0  0  0
 22 20  2  0  0  0  0
M  END
>  <minimizedAffinity>
-4.29216242

$$$$
