REMARK  Name = 
REMARK  3 active torsions:
REMARK  status: ('A' for Active; 'I' for Inactive)
REMARK    1  A    between atoms: C_1  and  O_7
REMARK    2  A    between atoms: C_5  and  C_16
REMARK    3  A    between atoms: S_12  and  C_15
REMARK                            x       y       z     vdW  Elec       q    Type
REMARK                         _______ _______ _______ _____ _____    ______ ____
ROOT
ATOM      1  C   UNL     1      33.432  29.710  48.333  0.00  0.00    +0.000 A 
ATOM      2  C   UNL     1      34.048  29.539  49.556  0.00  0.00    +0.000 A 
ATOM      3  C   UNL     1      33.338  28.879  50.546  0.00  0.00    +0.000 A 
ATOM      4  H   UNL     1      33.844  28.756  51.503  0.00  0.00    +0.000 HD
ATOM      5  C   UNL     1      32.065  28.393  50.371  0.00  0.00    +0.000 A 
ATOM      6  H   UNL     1      31.553  27.888  51.166  0.00  0.00    +0.000 HD
ATOM      7  C   UNL     1      31.427  28.548  49.168  0.00  0.00    +0.000 A 
ATOM      8  C   UNL     1      32.137  29.205  48.184  0.00  0.00    +0.000 A 
ENDROOT
BRANCH   2  13
ATOM      9  C   UNL     1      37.304  29.997  51.178  0.00  0.00    +0.000 A 
ATOM     10  C   UNL     1      37.950  30.917  50.353  0.00  0.00    +0.000 A 
ATOM     11  C   UNL     1      37.272  31.383  49.239  0.00  0.00    +0.000 A 
ATOM     12  N   UNL     1      36.020  30.921  49.010  0.00  0.00    +0.000 NA
ATOM     13  C   UNL     1      35.398  30.029  49.812  0.00  0.00    +0.000 A 
ATOM     14  N   UNL     1      36.063  29.590  50.881  0.00  0.00    +0.000 NA
ATOM     15  H   UNL     1      38.948  31.311  50.498  0.00  0.00    +0.000 HD
ATOM     16  H   UNL     1      37.708  32.083  48.571  0.00  0.00    +0.000 HD
BRANCH   9  17
ATOM     17  O   UNL     1      38.086  29.607  52.259  0.00  0.00    +0.000 OA
ATOM     18  H   UNL     1      38.727  28.848  52.143  0.00  0.00    +0.000 HD
ENDBRANCH   9  17
ENDBRANCH   2  13
BRANCH   1  20
ATOM     19  H   UNL     1      34.680  31.779  47.353  0.00  0.00    +0.000 HD
ATOM     20  S   UNL     1      34.250  30.530  47.025  0.00  0.00    +0.000 S 
ATOM     21  O   UNL     1      33.284  30.594  45.850  0.00  0.00    +0.000 OA
ATOM     22  O   UNL     1      35.415  29.706  46.493  0.00  0.00    +0.000 OA
ENDBRANCH   1  20
TORSDOF 3
