
 OpenBabel03272507193D

 33 35  0  0  1  0  0  0  0  0999 V2000
   37.2030   31.1380   49.3490 C   0  0  0  0  0  0  0  0  0  0  0  0
   38.0830   32.2010   49.3230 C   0  0  0  0  0  0  0  0  0  0  0  0
   38.5140   32.5940   48.0590 C   0  0  0  0  0  0  0  0  0  0  0  0
   38.0600   31.9300   46.9400 N   0  0  0  0  0  0  0  0  0  0  0  0
   37.2020   30.8970   47.0370 C   0  0  0  0  0  0  0  0  0  0  0  0
   36.7560   30.4790   48.2450 N   0  0  0  0  0  0  0  0  0  0  0  0
   38.4000   32.6790   50.2370 H   0  0  0  0  0  0  0  0  0  0  0  0
   39.2000   33.4190   48.0030 H   0  0  0  0  0  0  0  0  0  0  0  0
   35.9940   30.1320   44.8990 C   0  0  0  0  0  0  0  0  0  0  0  0
   37.0440   30.5750   45.6470 C   0  0  0  0  0  0  0  0  0  0  0  0
   38.2740   30.7880   45.0130 C   0  0  0  0  0  0  0  0  0  0  0  0
   39.2720   31.1270   45.3140 H   0  0  0  0  0  0  0  0  0  0  0  0
   38.3530   30.5340   43.6380 C   0  0  0  0  0  0  0  0  0  0  0  0
   39.2170   30.6450   42.9980 H   0  0  0  0  0  0  0  0  0  0  0  0
   37.2350   30.0890   42.9690 C   0  0  0  0  0  3  0  0  0  0  0  0
   36.0110   29.8670   43.5520 C   0  0  0  0  0  3  0  0  0  0  0  0
   34.8490   30.2010   47.1640 H   0  0  0  0  0  0  0  0  0  0  0  0
   34.5530   29.8940   45.8630 S   0  0  0  0  0  0  0  0  0  0  0  0
   34.2860   28.3940   45.7760 O   0  0  0  0  0  0  0  0  0  0  0  0
   33.3990   30.6660   45.3570 O   0  0  0  0  0  0  0  0  0  0  0  0
   36.6960   30.7390   50.7030 C   0  0  1  0  0  0  0  0  0  0  0  0
   35.9980   29.4730   50.9210 C   0  0  2  0  0  0  0  0  0  0  0  0
   37.4530   29.5220   51.2740 C   0  0  0  0  0  0  0  0  0  0  0  0
   36.5810   31.5810   51.4170 H   0  0  0  0  0  0  0  0  0  0  0  0
   35.1880   29.5500   51.7110 H   0  0  0  0  0  0  0  0  0  0  0  0
   38.1530   28.9790   50.6080 H   0  0  0  0  0  0  0  0  0  0  0  0
   37.7630   29.6160   52.3250 H   0  0  0  0  0  0  0  0  0  0  0  0
   35.5970   28.7660   49.7970 O   0  0  0  0  0  0  0  0  0  0  0  0
   34.3520   28.3820   49.4180 C   0  0  0  0  0  0  0  0  0  0  0  0
   34.1520   27.3300   48.7880 O   0  0  0  0  0  0  0  0  0  0  0  0
   33.4350   29.3400   49.8500 N   0  0  0  0  0  0  0  0  0  0  0  0
   33.4480   30.3720   49.6880 H   0  0  0  0  0  0  0  0  0  0  0  0
   32.5660   29.6610   50.3480 H   0  0  0  0  0  0  0  0  0  0  0  0
  1 21  1  0  0  0  0
  2  1  1  0  0  0  0
  2  7  1  0  0  0  0
  3  2  2  0  0  0  0
  4  5  2  0  0  0  0
  4  3  1  0  0  0  0
  5  6  1  0  0  0  0
  6  1  2  0  0  0  0
  8  3  1  0  0  0  0
  9 10  1  0  0  0  0
  9 18  1  0  0  0  0
 10  5  1  0  0  0  0
 11 12  1  0  0  0  0
 11 10  2  0  0  0  0
 13 11  1  0  0  0  0
 14 13  1  0  0  0  0
 15 16  1  0  0  0  0
 15 13  2  0  0  0  0
 16  9  2  0  0  0  0
 18 17  1  0  0  0  0
 19 18  2  0  0  0  0
 20 18  2  0  0  0  0
 21 22  1  0  0  0  0
 21 23  1  0  0  0  0
 21 24  1  1  0  0  0
 22 23  1  0  0  0  0
 22 25  1  1  0  0  0
 23 27  1  0  0  0  0
 26 23  1  0  0  0  0
 28 22  1  0  0  0  0
 29 28  1  0  0  0  0
 29 31  1  0  0  0  0
 30 29  2  0  0  0  0
 31 33  1  0  0  0  0
 32 31  1  0  0  0  0
M  END
>  <minimizedAffinity>
-5.50390911

>  <minimizedRMSD>
0.695936263

$$$$
