
 OpenBabel03272506003D

 47 50  0  0  1  0  0  0  0  0999 V2000
   39.0500   25.6790   33.2680 C   0  0  2  0  0  0  0  0  0  0  0  0
   38.3910   27.0000   33.1710 C   0  0  0  0  0  0  0  0  0  0  0  0
   37.2880   27.0340   32.1060 C   0  0  2  0  0  0  0  0  0  0  0  0
   37.7250   26.6300   30.7660 C   0  0  0  0  0  0  0  0  0  0  0  0
   38.7240   25.4760   30.7750 C   0  0  0  0  0  0  0  0  0  0  0  0
   38.7370   24.7690   32.1010 C   0  0  0  0  0  0  0  0  0  0  0  0
   40.1780   25.7540   33.2710 H   0  0  0  0  0  0  0  0  0  0  0  0
   37.9480   27.4820   34.0060 H   0  0  0  0  0  0  0  0  0  0  0  0
   39.1690   27.7130   32.7310 H   0  0  0  0  0  0  0  0  0  0  0  0
   36.4730   26.4400   32.5210 H   0  0  0  0  0  0  0  0  0  0  0  0
   36.8250   26.3840   30.1610 H   0  0  0  0  0  0  0  0  0  0  0  0
   38.2440   27.4540   30.2460 H   0  0  0  0  0  0  0  0  0  0  0  0
   38.3530   24.7410   30.0320 H   0  0  0  0  0  0  0  0  0  0  0  0
   39.7270   25.7660   30.4360 H   0  0  0  0  0  0  0  0  0  0  0  0
   37.7440   24.3030   32.2740 H   0  0  0  0  0  0  0  0  0  0  0  0
   39.5010   23.9740   32.0390 H   0  0  0  0  0  0  0  0  0  0  0  0
   35.9050   27.9200   34.5550 Cl  0  0  0  0  0  0  0  0  0  0  0  0
   36.1510   28.9750   33.1730 C   0  0  0  0  0  0  0  0  0  0  0  0
   36.8440   28.4570   32.0930 C   0  0  0  0  0  0  0  0  0  0  0  0
   37.0100   29.3690   31.0660 C   0  0  0  0  0  0  0  0  0  0  0  0
   36.5240   30.6600   31.1320 C   0  0  0  0  0  0  0  0  0  0  0  0
   35.8370   31.1010   32.2550 C   0  0  0  0  0  0  0  0  0  0  0  0
   35.6480   30.2350   33.2960 C   0  0  0  0  0  0  0  0  0  0  0  0
   37.5480   29.0360   30.1890 H   0  0  0  0  0  0  0  0  0  0  0  0
   36.7070   31.3020   30.2720 H   0  0  0  0  0  0  0  0  0  0  0  0
   35.4650   32.1150   32.2870 H   0  0  0  0  0  0  0  0  0  0  0  0
   33.6020   30.5030   34.8110 C   0  0  0  0  0  0  0  0  0  0  0  0
   34.9290   30.6860   34.4800 C   0  0  0  0  0  0  0  0  0  0  0  0
   35.7660   31.3880   35.3440 C   0  0  0  0  0  0  0  0  0  0  0  0
   36.8330   31.5920   35.1840 H   0  0  0  0  0  0  0  0  0  0  0  0
   35.2700   31.9070   36.5420 C   0  0  0  0  0  0  0  0  0  0  0  0
   35.9250   32.4630   37.2300 H   0  0  0  0  0  0  0  0  0  0  0  0
   33.9290   31.7140   36.8610 C   0  0  0  0  0  3  0  0  0  0  0  0
   33.1090   31.0130   35.9900 C   0  0  0  0  0  3  0  0  0  0  0  0
   33.4500   28.7280   32.9430 H   0  0  0  0  0  0  0  0  0  0  0  0
   32.6870   29.6120   33.6390 S   0  0  0  0  0  0  0  0  0  0  0  0
   32.1530   30.6110   32.6440 O   0  0  0  0  0  0  0  0  0  0  0  0
   31.4920   28.9140   34.2170 O   0  0  0  0  0  0  0  0  0  0  0  0
   38.7080   24.9460   34.4980 C   0  0  0  0  0  0  0  0  0  0  0  0
   38.4630   25.7480   35.6130 C   0  0  0  0  0  0  0  0  0  0  0  0
   38.1180   25.1040   36.8100 C   0  0  0  0  0  0  0  0  0  0  0  0
   38.0380   23.7150   36.8280 N   0  0  0  0  0  0  0  0  0  0  0  0
   38.2870   22.9880   35.7190 C   0  0  0  0  0  0  0  0  0  0  0  0
   38.6130   23.6210   34.5930 N   0  0  0  0  0  0  0  0  0  0  0  0
   38.4530   26.7850   35.8960 H   0  0  0  0  0  0  0  0  0  0  0  0
   37.8840   25.4610   37.7840 H   0  0  0  0  0  0  0  0  0  0  0  0
   38.2260   21.9080   35.7280 H   0  0  0  0  0  0  0  0  0  0  0  0
  1  7  1  1  0  0  0
  1 39  1  0  0  0  0
  2  1  1  0  0  0  0
  2  8  1  0  0  0  0
  3 10  1  1  0  0  0
  3  2  1  0  0  0  0
  4  5  1  0  0  0  0
  4  3  1  0  0  0  0
  5  6  1  0  0  0  0
  6 15  1  0  0  0  0
  6  1  1  0  0  0  0
  9  2  1  0  0  0  0
 11  4  1  0  0  0  0
 12  4  1  0  0  0  0
 13  5  1  0  0  0  0
 14  5  1  0  0  0  0
 16  6  1  0  0  0  0
 18 23  1  0  0  0  0
 18 17  1  0  0  0  0
 19  3  1  0  0  0  0
 19 18  2  0  0  0  0
 20 21  2  0  0  0  0
 20 19  1  0  0  0  0
 21 22  1  0  0  0  0
 22 26  1  0  0  0  0
 22 23  2  0  0  0  0
 23 28  1  0  0  0  0
 24 20  1  0  0  0  0
 25 21  1  0  0  0  0
 27 34  1  0  0  0  0
 28 27  2  0  0  0  0
 28 29  1  0  0  0  0
 29 31  2  0  0  0  0
 30 29  1  0  0  0  0
 31 33  1  0  0  0  0
 31 32  1  0  0  0  0
 34 33  2  0  0  0  0
 35 36  1  0  0  0  0
 36 38  2  0  0  0  0
 36 27  1  0  0  0  0
 37 36  2  0  0  0  0
 39 44  2  0  0  0  0
 39 40  1  0  0  0  0
 40 45  1  0  0  0  0
 40 41  2  0  0  0  0
 41 42  1  0  0  0  0
 41 46  1  0  0  0  0
 43 47  1  0  0  0  0
 43 42  2  0  0  0  0
 44 43  1  0  0  0  0
M  END
>  <minimizedAffinity>
-6.26951599

$$$$

 OpenBabel03272506003D

 47 50  0  0  1  0  0  0  0  0999 V2000
   35.7660   28.2340   31.7760 C   0  0  2  0  0  0  0  0  0  0  0  0
   36.0590   26.8490   32.2060 C   0  0  0  0  0  0  0  0  0  0  0  0
   37.5390   26.6360   32.5460 C   0  0  2  0  0  0  0  0  0  0  0  0
   38.4670   26.9980   31.4700 C   0  0  0  0  0  0  0  0  0  0  0  0
   38.0460   28.2460   30.6990 C   0  0  0  0  0  0  0  0  0  0  0  0
   37.0080   29.0330   31.4490 C   0  0  0  0  0  0  0  0  0  0  0  0
   35.1480   28.2750   30.8310 H   0  0  0  0  0  0  0  0  0  0  0  0
   35.5480   26.3770   33.0080 H   0  0  0  0  0  0  0  0  0  0  0  0
   35.9300   26.1930   31.2790 H   0  0  0  0  0  0  0  0  0  0  0  0
   37.6960   27.1680   33.4840 H   0  0  0  0  0  0  0  0  0  0  0  0
   39.4840   27.1120   31.9050 H   0  0  0  0  0  0  0  0  0  0  0  0
   38.5330   26.2010   30.7090 H   0  0  0  0  0  0  0  0  0  0  0  0
   38.9470   28.8920   30.6410 H   0  0  0  0  0  0  0  0  0  0  0  0
   37.7580   28.0390   29.6600 H   0  0  0  0  0  0  0  0  0  0  0  0
   37.4490   29.4040   32.3970 H   0  0  0  0  0  0  0  0  0  0  0  0
   36.7340   29.8960   30.8170 H   0  0  0  0  0  0  0  0  0  0  0  0
   39.2760   25.9410   34.8250 Cl  0  0  0  0  0  0  0  0  0  0  0  0
   38.4510   24.7280   33.8600 C   0  0  0  0  0  0  0  0  0  0  0  0
   37.6350   25.1770   32.8370 C   0  0  0  0  0  0  0  0  0  0  0  0
   37.0090   24.1510   32.1520 C   0  0  0  0  0  0  0  0  0  0  0  0
   37.1940   22.8210   32.4730 C   0  0  0  0  0  0  0  0  0  0  0  0
   38.0320   22.4550   33.5170 C   0  0  0  0  0  0  0  0  0  0  0  0
   38.6730   23.4340   34.2230 C   0  0  0  0  0  0  0  0  0  0  0  0
   36.3500   24.4270   31.3390 H   0  0  0  0  0  0  0  0  0  0  0  0
   36.6560   22.0880   31.8740 H   0  0  0  0  0  0  0  0  0  0  0  0
   38.1630   21.4080   33.7520 H   0  0  0  0  0  0  0  0  0  0  0  0
   39.2850   23.0160   36.6740 C   0  0  0  0  0  0  0  0  0  0  0  0
   39.5560   23.0630   35.3220 C   0  0  0  0  0  0  0  0  0  0  0  0
   40.8240   22.7230   34.8590 C   0  0  0  0  0  0  0  0  0  0  0  0
   41.1500   22.7230   33.8110 H   0  0  0  0  0  0  0  0  0  0  0  0
   41.8240   22.3360   35.7560 C   0  0  0  0  0  0  0  0  0  0  0  0
   42.8290   22.0660   35.3970 H   0  0  0  0  0  0  0  0  0  0  0  0
   41.5350   22.2940   37.1160 C   0  0  0  0  0  3  0  0  0  0  0  0
   40.2660   22.6360   37.5600 C   0  0  0  0  0  3  0  0  0  0  0  0
   37.2230   24.5440   36.3970 H   0  0  0  0  0  0  0  0  0  0  0  0
   37.6660   23.4660   37.0980 S   0  0  0  0  0  0  0  0  0  0  0  0
   37.6840   23.8640   38.5520 O   0  0  0  0  0  0  0  0  0  0  0  0
   36.6810   22.3400   36.9820 O   0  0  0  0  0  0  0  0  0  0  0  0
   35.0020   29.0040   32.7710 C   0  0  0  0  0  0  0  0  0  0  0  0
   35.7680   29.5890   33.7800 C   0  0  0  0  0  0  0  0  0  0  0  0
   35.0950   30.3480   34.7480 C   0  0  0  0  0  0  0  0  0  0  0  0
   33.7120   30.4790   34.6570 N   0  0  0  0  0  0  0  0  0  0  0  0
   33.0200   29.8900   33.6600 C   0  0  0  0  0  0  0  0  0  0  0  0
   33.6820   29.1740   32.7510 N   0  0  0  0  0  0  0  0  0  0  0  0
   36.7920   29.6590   34.1020 H   0  0  0  0  0  0  0  0  0  0  0  0
   35.4230   30.8890   35.6020 H   0  0  0  0  0  0  0  0  0  0  0  0
   31.9460   29.9890   33.5850 H   0  0  0  0  0  0  0  0  0  0  0  0
  1  7  1  6  0  0  0
  1  2  1  0  0  0  0
  1 39  1  0  0  0  0
  2  3  1  0  0  0  0
  2  8  1  0  0  0  0
  3 19  1  0  0  0  0
  3 10  1  1  0  0  0
  4 11  1  0  0  0  0
  4  3  1  0  0  0  0
  5  6  1  0  0  0  0
  5  4  1  0  0  0  0
  6  1  1  0  0  0  0
  6 15  1  0  0  0  0
  9  2  1  0  0  0  0
 12  4  1  0  0  0  0
 13  5  1  0  0  0  0
 14  5  1  0  0  0  0
 16  6  1  0  0  0  0
 18 23  1  0  0  0  0
 18 17  1  0  0  0  0
 19 18  2  0  0  0  0
 20 21  2  0  0  0  0
 20 19  1  0  0  0  0
 21 22  1  0  0  0  0
 22 26  1  0  0  0  0
 22 23  2  0  0  0  0
 23 28  1  0  0  0  0
 24 20  1  0  0  0  0
 25 21  1  0  0  0  0
 27 36  1  0  0  0  0
 27 34  1  0  0  0  0
 28 27  2  0  0  0  0
 29 28  1  0  0  0  0
 29 31  2  0  0  0  0
 30 29  1  0  0  0  0
 31 33  1  0  0  0  0
 32 31  1  0  0  0  0
 33 34  2  0  0  0  0
 35 36  1  0  0  0  0
 36 37  2  0  0  0  0
 38 36  2  0  0  0  0
 39 40  1  0  0  0  0
 40 45  1  0  0  0  0
 40 41  2  0  0  0  0
 41 46  1  0  0  0  0
 42 41  1  0  0  0  0
 43 42  2  0  0  0  0
 44 39  2  0  0  0  0
 44 43  1  0  0  0  0
 47 43  1  0  0  0  0
M  END
>  <minimizedAffinity>
-6.16143322

$$$$

 OpenBabel03272506003D

 47 50  0  0  1  0  0  0  0  0999 V2000
   32.8430   30.2790   35.0330 C   0  0  2  0  0  0  0  0  0  0  0  0
   33.7140   29.6850   33.9950 C   0  0  0  0  0  0  0  0  0  0  0  0
   35.1920   29.6690   34.4030 C   0  0  2  0  0  0  0  0  0  0  0  0
   35.7340   30.9790   34.7730 C   0  0  0  0  0  0  0  0  0  0  0  0
   34.7490   31.8450   35.5540 C   0  0  0  0  0  0  0  0  0  0  0  0
   33.6100   31.0290   36.0980 C   0  0  0  0  0  0  0  0  0  0  0  0
   32.1250   31.0440   34.6110 H   0  0  0  0  0  0  0  0  0  0  0  0
   33.5530   28.7130   33.5990 H   0  0  0  0  0  0  0  0  0  0  0  0
   33.7160   30.4200   33.1190 H   0  0  0  0  0  0  0  0  0  0  0  0
   35.2660   28.9070   35.1780 H   0  0  0  0  0  0  0  0  0  0  0  0
   36.6780   30.8240   35.3400 H   0  0  0  0  0  0  0  0  0  0  0  0
   35.9920   31.5760   33.8800 H   0  0  0  0  0  0  0  0  0  0  0  0
   35.3060   32.2290   36.4340 H   0  0  0  0  0  0  0  0  0  0  0  0
   34.4140   32.7320   35.0010 H   0  0  0  0  0  0  0  0  0  0  0  0
   34.0060   30.2950   36.8300 H   0  0  0  0  0  0  0  0  0  0  0  0
   32.9300   31.7260   36.6190 H   0  0  0  0  0  0  0  0  0  0  0  0
   37.1670   27.5450   34.9380 Cl  0  0  0  0  0  0  0  0  0  0  0  0
   36.8680   28.1750   33.3270 C   0  0  0  0  0  0  0  0  0  0  0  0
   35.8930   29.1470   33.1940 C   0  0  0  0  0  0  0  0  0  0  0  0
   35.7120   29.5610   31.8860 C   0  0  0  0  0  0  0  0  0  0  0  0
   36.4420   29.0430   30.8360 C   0  0  0  0  0  0  0  0  0  0  0  0
   37.4050   28.0680   31.0550 C   0  0  0  0  0  0  0  0  0  0  0  0
   37.6200   27.6270   32.3300 C   0  0  0  0  0  0  0  0  0  0  0  0
   34.9610   30.3170   31.7060 H   0  0  0  0  0  0  0  0  0  0  0  0
   36.2260   29.4340   29.8420 H   0  0  0  0  0  0  0  0  0  0  0  0
   37.9660   27.6760   30.2180 H   0  0  0  0  0  0  0  0  0  0  0  0
   38.4930   25.2310   32.5490 C   0  0  0  0  0  0  0  0  0  0  0  0
   38.6280   26.6030   32.5740 C   0  0  0  0  0  0  0  0  0  0  0  0
   39.8660   27.1710   32.8650 C   0  0  0  0  0  0  0  0  0  0  0  0
   40.0880   28.2450   32.9110 H   0  0  0  0  0  0  0  0  0  0  0  0
   40.9710   26.3590   33.1310 C   0  0  0  0  0  0  0  0  0  0  0  0
   41.9520   26.8000   33.3610 H   0  0  0  0  0  0  0  0  0  0  0  0
   40.8180   24.9760   33.1020 C   0  0  0  0  0  3  0  0  0  0  0  0
   39.5790   24.4270   32.8110 C   0  0  0  0  0  3  0  0  0  0  0  0
   35.9320   25.3560   32.8480 H   0  0  0  0  0  0  0  0  0  0  0  0
   36.8960   24.6730   32.1740 S   0  0  0  0  0  0  0  0  0  0  0  0
   36.8120   23.2360   32.6250 O   0  0  0  0  0  0  0  0  0  0  0  0
   36.5910   24.6710   30.7050 O   0  0  0  0  0  0  0  0  0  0  0  0
   31.9950   29.2900   35.7190 C   0  0  0  0  0  0  0  0  0  0  0  0
   31.2960   28.4260   34.8750 C   0  0  0  0  0  0  0  0  0  0  0  0
   30.4840   27.4520   35.4730 C   0  0  0  0  0  0  0  0  0  0  0  0
   30.4150   27.3960   36.8620 N   0  0  0  0  0  0  0  0  0  0  0  0
   31.1120   28.2580   37.6310 C   0  0  0  0  0  0  0  0  0  0  0  0
   31.8770   29.1750   37.0400 N   0  0  0  0  0  0  0  0  0  0  0  0
   31.1490   28.2380   33.8270 H   0  0  0  0  0  0  0  0  0  0  0  0
   29.8600   26.6860   35.0800 H   0  0  0  0  0  0  0  0  0  0  0  0
   31.0610   28.2180   38.7100 H   0  0  0  0  0  0  0  0  0  0  0  0
  1  7  1  6  0  0  0
  1 39  1  0  0  0  0
  1  6  1  0  0  0  0
  2  3  1  0  0  0  0
  2  1  1  0  0  0  0
  3  4  1  0  0  0  0
  3 10  1  1  0  0  0
  4 11  1  0  0  0  0
  4  5  1  0  0  0  0
  5  6  1  0  0  0  0
  5 13  1  0  0  0  0
  6 16  1  0  0  0  0
  6 15  1  0  0  0  0
  8  2  1  0  0  0  0
  9  2  1  0  0  0  0
 12  4  1  0  0  0  0
 14  5  1  0  0  0  0
 18 17  1  0  0  0  0
 19 18  1  0  0  0  0
 19  3  1  0  0  0  0
 20 19  2  0  0  0  0
 21 22  2  0  0  0  0
 21 20  1  0  0  0  0
 22 23  1  0  0  0  0
 23 28  1  0  0  0  0
 23 18  2  0  0  0  0
 24 20  1  0  0  0  0
 25 21  1  0  0  0  0
 26 22  1  0  0  0  0
 27 28  2  0  0  0  0
 27 34  1  0  0  0  0
 28 29  1  0  0  0  0
 29 30  1  0  0  0  0
 29 31  2  0  0  0  0
 31 32  1  0  0  0  0
 33 31  1  0  0  0  0
 34 33  2  0  0  0  0
 36 27  1  0  0  0  0
 36 37  2  0  0  0  0
 36 35  1  0  0  0  0
 38 36  2  0  0  0  0
 39 44  1  0  0  0  0
 40 41  1  0  0  0  0
 40 39  2  0  0  0  0
 41 42  2  0  0  0  0
 42 43  1  0  0  0  0
 43 47  1  0  0  0  0
 44 43  2  0  0  0  0
 45 40  1  0  0  0  0
 46 41  1  0  0  0  0
M  END
>  <minimizedAffinity>
-6.13763189

$$$$

 OpenBabel03272506003D

 47 50  0  0  1  0  0  0  0  0999 V2000
   36.4890   28.3340   31.3450 C   0  0  2  0  0  0  0  0  0  0  0  0
   36.5520   27.0050   31.9910 C   0  0  0  0  0  0  0  0  0  0  0  0
   37.9870   26.4800   32.1250 C   0  0  2  0  0  0  0  0  0  0  0  0
   38.7330   26.4240   30.8650 C   0  0  0  0  0  0  0  0  0  0  0  0
   38.4480   27.6010   29.9360 C   0  0  0  0  0  0  0  0  0  0  0  0
   37.7830   28.7320   30.6690 C   0  0  0  0  0  0  0  0  0  0  0  0
   35.7160   28.3820   30.5210 H   0  0  0  0  0  0  0  0  0  0  0  0
   36.1240   26.8080   32.9420 H   0  0  0  0  0  0  0  0  0  0  0  0
   36.0970   26.2660   31.2460 H   0  0  0  0  0  0  0  0  0  0  0  0
   38.4440   27.0950   32.9010 H   0  0  0  0  0  0  0  0  0  0  0  0
   39.8170   26.3430   31.1000 H   0  0  0  0  0  0  0  0  0  0  0  0
   38.4660   25.5270   30.2780 H   0  0  0  0  0  0  0  0  0  0  0  0
   39.4380   27.9810   29.6080 H   0  0  0  0  0  0  0  0  0  0  0  0
   37.9170   27.3140   29.0200 H   0  0  0  0  0  0  0  0  0  0  0  0
   38.4780   29.1230   31.4420 H   0  0  0  0  0  0  0  0  0  0  0  0
   37.5820   29.5260   29.9300 H   0  0  0  0  0  0  0  0  0  0  0  0
   38.8420   26.1710   34.9300 Cl  0  0  0  0  0  0  0  0  0  0  0  0
   38.2190   24.8340   33.9780 C   0  0  0  0  0  0  0  0  0  0  0  0
   37.8180   25.1080   32.6830 C   0  0  0  0  0  0  0  0  0  0  0  0
   37.3180   23.9990   32.0230 C   0  0  0  0  0  0  0  0  0  0  0  0
   37.2390   22.7550   32.6150 C   0  0  0  0  0  0  0  0  0  0  0  0
   37.6650   22.5650   33.9220 C   0  0  0  0  0  0  0  0  0  0  0  0
   38.1660   23.6300   34.6150 C   0  0  0  0  0  0  0  0  0  0  0  0
   36.9790   24.1390   31.0050 H   0  0  0  0  0  0  0  0  0  0  0  0
   36.8300   21.9450   32.0120 H   0  0  0  0  0  0  0  0  0  0  0  0
   37.5940   21.5820   34.3670 H   0  0  0  0  0  0  0  0  0  0  0  0
   39.8360   22.9900   36.4470 C   0  0  0  0  0  0  0  0  0  0  0  0
   38.6170   23.4440   35.9890 C   0  0  0  0  0  0  0  0  0  0  0  0
   37.6230   23.7950   36.8990 C   0  0  0  0  0  0  0  0  0  0  0  0
   36.6210   24.1660   36.6490 H   0  0  0  0  0  0  0  0  0  0  0  0
   37.8540   23.6880   38.2730 C   0  0  0  0  0  0  0  0  0  0  0  0
   37.0730   23.9630   38.9980 H   0  0  0  0  0  0  0  0  0  0  0  0
   39.0890   23.2290   38.7190 C   0  0  0  0  0  3  0  0  0  0  0  0
   40.0680   22.8840   37.7990 C   0  0  0  0  0  3  0  0  0  0  0  0
   40.3780   22.0120   34.1200 H   0  0  0  0  0  0  0  0  0  0  0  0
   40.9700   22.5940   35.1980 S   0  0  0  0  0  0  0  0  0  0  0  0
   41.9260   21.5790   35.7750 O   0  0  0  0  0  0  0  0  0  0  0  0
   41.8080   23.7570   34.7570 O   0  0  0  0  0  0  0  0  0  0  0  0
   36.1310   29.4180   32.2750 C   0  0  0  0  0  0  0  0  0  0  0  0
   35.8180   29.0040   33.5700 C   0  0  0  0  0  0  0  0  0  0  0  0
   35.4840   29.9940   34.5040 C   0  0  0  0  0  0  0  0  0  0  0  0
   35.4790   31.3260   34.0990 N   0  0  0  0  0  0  0  0  0  0  0  0
   35.7880   31.6700   32.8310 C   0  0  0  0  0  0  0  0  0  0  0  0
   36.1030   30.7110   31.9620 N   0  0  0  0  0  0  0  0  0  0  0  0
   35.7330   28.1020   34.1490 H   0  0  0  0  0  0  0  0  0  0  0  0
   35.2130   29.9600   35.5320 H   0  0  0  0  0  0  0  0  0  0  0  0
   35.7860   32.7040   32.5120 H   0  0  0  0  0  0  0  0  0  0  0  0
  1  7  1  6  0  0  0
  1  2  1  0  0  0  0
  1 39  1  0  0  0  0
  2  3  1  0  0  0  0
  2  8  1  0  0  0  0
  3 19  1  0  0  0  0
  3 10  1  1  0  0  0
  4 11  1  0  0  0  0
  4  3  1  0  0  0  0
  5  6  1  0  0  0  0
  5  4  1  0  0  0  0
  6  1  1  0  0  0  0
  6 15  1  0  0  0  0
  9  2  1  0  0  0  0
 12  4  1  0  0  0  0
 13  5  1  0  0  0  0
 14  5  1  0  0  0  0
 16  6  1  0  0  0  0
 18 23  1  0  0  0  0
 18 17  1  0  0  0  0
 19 18  2  0  0  0  0
 20 21  2  0  0  0  0
 20 19  1  0  0  0  0
 21 22  1  0  0  0  0
 22 26  1  0  0  0  0
 22 23  2  0  0  0  0
 23 28  1  0  0  0  0
 24 20  1  0  0  0  0
 25 21  1  0  0  0  0
 27 34  1  0  0  0  0
 28 27  2  0  0  0  0
 28 29  1  0  0  0  0
 29 31  2  0  0  0  0
 30 29  1  0  0  0  0
 31 33  1  0  0  0  0
 31 32  1  0  0  0  0
 34 33  2  0  0  0  0
 35 36  1  0  0  0  0
 36 37  2  0  0  0  0
 36 27  1  0  0  0  0
 38 36  2  0  0  0  0
 39 40  1  0  0  0  0
 40 45  1  0  0  0  0
 40 41  2  0  0  0  0
 41 46  1  0  0  0  0
 42 41  1  0  0  0  0
 43 42  2  0  0  0  0
 44 39  2  0  0  0  0
 44 43  1  0  0  0  0
 47 43  1  0  0  0  0
M  END
>  <minimizedAffinity>
-6.1048007

$$$$

 OpenBabel03272506003D

 47 50  0  0  1  0  0  0  0  0999 V2000
   39.3740   26.0260   31.6460 C   0  0  2  0  0  0  0  0  0  0  0  0
   38.5790   27.2710   31.7200 C   0  0  0  0  0  0  0  0  0  0  0  0
   37.1430   27.0270   32.2010 C   0  0  2  0  0  0  0  0  0  0  0  0
   36.3970   26.0420   31.4130 C   0  0  0  0  0  0  0  0  0  0  0  0
   37.2470   24.8590   30.9570 C   0  0  0  0  0  0  0  0  0  0  0  0
   38.5320   24.7730   31.7330 C   0  0  0  0  0  0  0  0  0  0  0  0
   39.9310   25.9230   30.6680 H   0  0  0  0  0  0  0  0  0  0  0  0
   38.8890   28.1180   32.2790 H   0  0  0  0  0  0  0  0  0  0  0  0
   38.4140   27.6100   30.6400 H   0  0  0  0  0  0  0  0  0  0  0  0
   37.2340   26.7910   33.2620 H   0  0  0  0  0  0  0  0  0  0  0  0
   35.5180   25.7070   32.0060 H   0  0  0  0  0  0  0  0  0  0  0  0
   36.0040   26.4860   30.4810 H   0  0  0  0  0  0  0  0  0  0  0  0
   36.6680   23.9470   31.2100 H   0  0  0  0  0  0  0  0  0  0  0  0
   37.4010   24.8250   29.8710 H   0  0  0  0  0  0  0  0  0  0  0  0
   38.2990   24.5780   32.8010 H   0  0  0  0  0  0  0  0  0  0  0  0
   39.1010   23.9180   31.3280 H   0  0  0  0  0  0  0  0  0  0  0  0
   36.3000   28.2030   34.7710 Cl  0  0  0  0  0  0  0  0  0  0  0  0
   36.0250   28.9990   33.2310 C   0  0  0  0  0  0  0  0  0  0  0  0
   36.4960   28.3660   32.0940 C   0  0  0  0  0  0  0  0  0  0  0  0
   36.2550   29.0820   30.9350 C   0  0  0  0  0  0  0  0  0  0  0  0
   35.6090   30.3010   30.9340 C   0  0  0  0  0  0  0  0  0  0  0  0
   35.1660   30.8680   32.1220 C   0  0  0  0  0  0  0  0  0  0  0  0
   35.3810   30.1980   33.2930 C   0  0  0  0  0  0  0  0  0  0  0  0
   36.6000   28.6490   30.0050 H   0  0  0  0  0  0  0  0  0  0  0  0
   35.4670   30.7860   29.9690 H   0  0  0  0  0  0  0  0  0  0  0  0
   34.6620   31.8240   32.0990 H   0  0  0  0  0  0  0  0  0  0  0  0
   33.7250   30.5920   35.2060 C   0  0  0  0  0  0  0  0  0  0  0  0
   34.9220   30.7830   34.5470 C   0  0  0  0  0  0  0  0  0  0  0  0
   35.8800   31.6380   35.0870 C   0  0  0  0  0  0  0  0  0  0  0  0
   36.8620   31.8640   34.6520 H   0  0  0  0  0  0  0  0  0  0  0  0
   35.6350   32.3030   36.2910 C   0  0  0  0  0  0  0  0  0  0  0  0
   36.3870   32.9800   36.7240 H   0  0  0  0  0  0  0  0  0  0  0  0
   34.4230   32.0990   36.9430 C   0  0  0  0  0  3  0  0  0  0  0  0
   33.4800   31.2440   36.3920 C   0  0  0  0  0  3  0  0  0  0  0  0
   33.2780   28.6200   33.6010 H   0  0  0  0  0  0  0  0  0  0  0  0
   32.6350   29.5020   34.4130 S   0  0  0  0  0  0  0  0  0  0  0  0
   31.7390   30.3360   33.5330 O   0  0  0  0  0  0  0  0  0  0  0  0
   31.7310   28.7660   35.3560 O   0  0  0  0  0  0  0  0  0  0  0  0
   40.4070   25.9310   32.6910 C   0  0  0  0  0  0  0  0  0  0  0  0
   41.1340   27.1020   32.9090 C   0  0  0  0  0  0  0  0  0  0  0  0
   42.1220   27.0760   33.9030 C   0  0  0  0  0  0  0  0  0  0  0  0
   42.3280   25.8980   34.6150 N   0  0  0  0  0  0  0  0  0  0  0  0
   41.5960   24.7930   34.3620 C   0  0  0  0  0  0  0  0  0  0  0  0
   40.6630   24.8420   33.4120 N   0  0  0  0  0  0  0  0  0  0  0  0
   41.2060   28.1080   32.5370 H   0  0  0  0  0  0  0  0  0  0  0  0
   42.8040   27.8060   34.2680 H   0  0  0  0  0  0  0  0  0  0  0  0
   41.7530   23.8750   34.9130 H   0  0  0  0  0  0  0  0  0  0  0  0
  1  7  1  6  0  0  0
  1  2  1  0  0  0  0
  1  6  1  0  0  0  0
  1 39  1  0  0  0  0
  2  3  1  0  0  0  0
  2  8  1  0  0  0  0
  3 10  1  1  0  0  0
  4 11  1  0  0  0  0
  4  3  1  0  0  0  0
  5 13  1  0  0  0  0
  5  4  1  0  0  0  0
  5  6  1  0  0  0  0
  6 15  1  0  0  0  0
  9  2  1  0  0  0  0
 12  4  1  0  0  0  0
 14  5  1  0  0  0  0
 16  6  1  0  0  0  0
 18 23  1  0  0  0  0
 18 17  1  0  0  0  0
 19  3  1  0  0  0  0
 19 18  2  0  0  0  0
 20 19  1  0  0  0  0
 21 20  2  0  0  0  0
 21 22  1  0  0  0  0
 22 23  2  0  0  0  0
 23 28  1  0  0  0  0
 24 20  1  0  0  0  0
 25 21  1  0  0  0  0
 26 22  1  0  0  0  0
 27 34  1  0  0  0  0
 28 29  1  0  0  0  0
 28 27  2  0  0  0  0
 29 31  2  0  0  0  0
 30 29  1  0  0  0  0
 31 32  1  0  0  0  0
 31 33  1  0  0  0  0
 34 33  2  0  0  0  0
 35 36  1  0  0  0  0
 36 27  1  0  0  0  0
 36 38  2  0  0  0  0
 37 36  2  0  0  0  0
 39 40  2  0  0  0  0
 39 44  1  0  0  0  0
 40 41  1  0  0  0  0
 41 46  1  0  0  0  0
 41 42  2  0  0  0  0
 43 42  1  0  0  0  0
 43 47  1  0  0  0  0
 44 43  2  0  0  0  0
 45 40  1  0  0  0  0
M  END
>  <minimizedAffinity>
-6.05272102

$$$$

 OpenBabel03272506003D

 47 50  0  0  1  0  0  0  0  0999 V2000
   34.9730   31.0200   35.5810 C   0  0  2  0  0  0  0  0  0  0  0  0
   35.8490   30.3960   34.5640 C   0  0  0  0  0  0  0  0  0  0  0  0
   35.1060   30.0760   33.2610 C   0  0  2  0  0  0  0  0  0  0  0  0
   33.9160   29.2380   33.4300 C   0  0  0  0  0  0  0  0  0  0  0  0
   33.1160   29.5650   34.6880 C   0  0  0  0  0  0  0  0  0  0  0  0
   33.5010   30.9040   35.2530 C   0  0  0  0  0  0  0  0  0  0  0  0
   35.0740   30.5350   36.5980 H   0  0  0  0  0  0  0  0  0  0  0  0
   36.7530   30.8430   34.2340 H   0  0  0  0  0  0  0  0  0  0  0  0
   36.1010   29.3520   34.9570 H   0  0  0  0  0  0  0  0  0  0  0  0
   34.9230   31.0440   32.7930 H   0  0  0  0  0  0  0  0  0  0  0  0
   33.2890   29.3270   32.5160 H   0  0  0  0  0  0  0  0  0  0  0  0
   34.1840   28.1720   33.5320 H   0  0  0  0  0  0  0  0  0  0  0  0
   32.0580   29.6550   34.3670 H   0  0  0  0  0  0  0  0  0  0  0  0
   33.1360   28.7640   35.4380 H   0  0  0  0  0  0  0  0  0  0  0  0
   33.2400   31.6960   34.5200 H   0  0  0  0  0  0  0  0  0  0  0  0
   32.9070   31.0530   36.1720 H   0  0  0  0  0  0  0  0  0  0  0  0
   36.4930   27.8670   34.6360 Cl  0  0  0  0  0  0  0  0  0  0  0  0
   36.8620   28.3330   32.9840 C   0  0  0  0  0  0  0  0  0  0  0  0
   36.1220   29.3640   32.4340 C   0  0  0  0  0  0  0  0  0  0  0  0
   36.4670   29.6410   31.1230 C   0  0  0  0  0  0  0  0  0  0  0  0
   37.4540   28.9480   30.4520 C   0  0  0  0  0  0  0  0  0  0  0  0
   38.1520   27.9250   31.0790 C   0  0  0  0  0  0  0  0  0  0  0  0
   37.8470   27.6150   32.3740 C   0  0  0  0  0  0  0  0  0  0  0  0
   35.9250   30.4340   30.6250 H   0  0  0  0  0  0  0  0  0  0  0  0
   37.6530   29.2410   29.4210 H   0  0  0  0  0  0  0  0  0  0  0  0
   38.9220   27.3950   30.5360 H   0  0  0  0  0  0  0  0  0  0  0  0
   38.3380   25.1840   33.0100 C   0  0  0  0  0  0  0  0  0  0  0  0
   38.5720   26.5430   33.0440 C   0  0  0  0  0  0  0  0  0  0  0  0
   39.6300   27.0440   33.8000 C   0  0  0  0  0  0  0  0  0  0  0  0
   39.9080   28.1010   33.9000 H   0  0  0  0  0  0  0  0  0  0  0  0
   40.4520   26.1770   34.5240 C   0  0  0  0  0  0  0  0  0  0  0  0
   41.2900   26.5650   35.1240 H   0  0  0  0  0  0  0  0  0  0  0  0
   40.2030   24.8090   34.4790 C   0  0  0  0  0  3  0  0  0  0  0  0
   39.1470   24.3280   33.7210 C   0  0  0  0  0  3  0  0  0  0  0  0
   35.9160   25.5310   32.1880 H   0  0  0  0  0  0  0  0  0  0  0  0
   36.9900   24.7130   32.0280 S   0  0  0  0  0  0  0  0  0  0  0  0
   36.5680   23.3390   32.4870 O   0  0  0  0  0  0  0  0  0  0  0  0
   37.3240   24.5850   30.5720 O   0  0  0  0  0  0  0  0  0  0  0  0
   35.2610   32.4460   35.8020 C   0  0  0  0  0  0  0  0  0  0  0  0
   36.4810   32.8880   35.2880 C   0  0  0  0  0  0  0  0  0  0  0  0
   36.8020   34.2420   35.4560 C   0  0  0  0  0  0  0  0  0  0  0  0
   35.9010   35.0700   36.1180 N   0  0  0  0  0  0  0  0  0  0  0  0
   34.7340   34.5890   36.5960 C   0  0  0  0  0  0  0  0  0  0  0  0
   34.4500   33.2990   36.4250 N   0  0  0  0  0  0  0  0  0  0  0  0
   37.3400   32.5090   34.7650 H   0  0  0  0  0  0  0  0  0  0  0  0
   37.6420   34.8290   35.1700 H   0  0  0  0  0  0  0  0  0  0  0  0
   34.0300   35.2290   37.1120 H   0  0  0  0  0  0  0  0  0  0  0  0
  1 39  1  0  0  0  0
  1  7  1  1  0  0  0
  2  9  1  0  0  0  0
  2  1  1  0  0  0  0
  3 10  1  6  0  0  0
  3  4  1  0  0  0  0
  3  2  1  0  0  0  0
  4 12  1  0  0  0  0
  4  5  1  0  0  0  0
  5  6  1  0  0  0  0
  5 14  1  0  0  0  0
  6  1  1  0  0  0  0
  6 16  1  0  0  0  0
  8  2  1  0  0  0  0
 11  4  1  0  0  0  0
 13  5  1  0  0  0  0
 15  6  1  0  0  0  0
 18 17  1  0  0  0  0
 19 18  1  0  0  0  0
 19  3  1  0  0  0  0
 20 19  2  0  0  0  0
 21 22  2  0  0  0  0
 21 20  1  0  0  0  0
 22 23  1  0  0  0  0
 23 18  2  0  0  0  0
 23 28  1  0  0  0  0
 24 20  1  0  0  0  0
 25 21  1  0  0  0  0
 26 22  1  0  0  0  0
 27 28  2  0  0  0  0
 27 34  1  0  0  0  0
 28 29  1  0  0  0  0
 29 30  1  0  0  0  0
 29 31  2  0  0  0  0
 31 32  1  0  0  0  0
 33 31  1  0  0  0  0
 34 33  2  0  0  0  0
 36 35  1  0  0  0  0
 36 37  2  0  0  0  0
 36 27  1  0  0  0  0
 38 36  2  0  0  0  0
 39 44  1  0  0  0  0
 40 41  1  0  0  0  0
 40 39  2  0  0  0  0
 41 42  2  0  0  0  0
 42 43  1  0  0  0  0
 43 47  1  0  0  0  0
 44 43  2  0  0  0  0
 45 40  1  0  0  0  0
 46 41  1  0  0  0  0
M  END
>  <minimizedAffinity>
-6.00224924

$$$$

 OpenBabel03272506003D

 47 50  0  0  1  0  0  0  0  0999 V2000
   35.0240   29.7630   32.9280 C   0  0  2  0  0  0  0  0  0  0  0  0
   35.3940   28.3350   33.0310 C   0  0  0  0  0  0  0  0  0  0  0  0
   36.8680   28.0810   32.6930 C   0  0  2  0  0  0  0  0  0  0  0  0
   37.2840   28.5780   31.3790 C   0  0  0  0  0  0  0  0  0  0  0  0
   36.6490   29.9150   31.0050 C   0  0  0  0  0  0  0  0  0  0  0  0
   36.0580   30.5980   32.2070 C   0  0  0  0  0  0  0  0  0  0  0  0
   34.0720   29.9250   32.3390 H   0  0  0  0  0  0  0  0  0  0  0  0
   35.2370   27.7630   33.9120 H   0  0  0  0  0  0  0  0  0  0  0  0
   34.8570   27.8030   32.1720 H   0  0  0  0  0  0  0  0  0  0  0  0
   37.4280   28.4880   33.5350 H   0  0  0  0  0  0  0  0  0  0  0  0
   38.3950   28.6360   31.3590 H   0  0  0  0  0  0  0  0  0  0  0  0
   36.9860   27.8850   30.5720 H   0  0  0  0  0  0  0  0  0  0  0  0
   37.4770   30.5630   30.6530 H   0  0  0  0  0  0  0  0  0  0  0  0
   35.9450   29.8430   30.1660 H   0  0  0  0  0  0  0  0  0  0  0  0
   36.8720   30.8440   32.9210 H   0  0  0  0  0  0  0  0  0  0  0  0
   35.5930   31.5350   31.8530 H   0  0  0  0  0  0  0  0  0  0  0  0
   38.2780   27.0440   35.0660 Cl  0  0  0  0  0  0  0  0  0  0  0  0
   37.6740   25.9970   33.7930 C   0  0  0  0  0  0  0  0  0  0  0  0
   36.9980   26.5960   32.7440 C   0  0  0  0  0  0  0  0  0  0  0  0
   36.5390   25.6890   31.8060 C   0  0  0  0  0  0  0  0  0  0  0  0
   36.7450   24.3300   31.9220 C   0  0  0  0  0  0  0  0  0  0  0  0
   37.4360   23.8090   33.0080 C   0  0  0  0  0  0  0  0  0  0  0  0
   37.9090   24.6660   33.9610 C   0  0  0  0  0  0  0  0  0  0  0  0
   35.9950   26.0860   30.9580 H   0  0  0  0  0  0  0  0  0  0  0  0
   36.3440   23.6980   31.1300 H   0  0  0  0  0  0  0  0  0  0  0  0
   37.5870   22.7410   33.0800 H   0  0  0  0  0  0  0  0  0  0  0  0
   39.9880   23.9000   35.2440 C   0  0  0  0  0  0  0  0  0  0  0  0
   38.6360   24.1320   35.1070 C   0  0  0  0  0  0  0  0  0  0  0  0
   37.7740   23.8430   36.1620 C   0  0  0  0  0  0  0  0  0  0  0  0
   36.6860   23.9870   36.1650 H   0  0  0  0  0  0  0  0  0  0  0  0
   38.2720   23.3190   37.3580 C   0  0  0  0  0  0  0  0  0  0  0  0
   37.5970   23.0890   38.1960 H   0  0  0  0  0  0  0  0  0  0  0  0
   39.6390   23.0910   37.4800 C   0  0  0  0  0  3  0  0  0  0  0  0
   40.4830   23.3840   36.4200 C   0  0  0  0  0  3  0  0  0  0  0  0
   40.3300   23.9390   32.6860 H   0  0  0  0  0  0  0  0  0  0  0  0
   40.9320   24.3070   33.8480 S   0  0  0  0  0  0  0  0  0  0  0  0
   42.2190   23.5280   33.9430 O   0  0  0  0  0  0  0  0  0  0  0  0
   41.3200   25.7550   33.7890 O   0  0  0  0  0  0  0  0  0  0  0  0
   34.7830   30.3980   34.2340 C   0  0  0  0  0  0  0  0  0  0  0  0
   35.8990   31.0100   34.8070 C   0  0  0  0  0  0  0  0  0  0  0  0
   35.7250   31.6450   36.0450 C   0  0  0  0  0  0  0  0  0  0  0  0
   34.4650   31.6340   36.6350 N   0  0  0  0  0  0  0  0  0  0  0  0
   33.4200   31.0260   36.0370 C   0  0  0  0  0  0  0  0  0  0  0  0
   33.6080   30.4290   34.8600 N   0  0  0  0  0  0  0  0  0  0  0  0
   36.9430   31.1710   34.6090 H   0  0  0  0  0  0  0  0  0  0  0  0
   36.3860   32.1750   36.6870 H   0  0  0  0  0  0  0  0  0  0  0  0
   32.4380   31.0150   36.4920 H   0  0  0  0  0  0  0  0  0  0  0  0
  1  7  1  6  0  0  0
  1  2  1  0  0  0  0
  1 39  1  0  0  0  0
  2  8  1  0  0  0  0
  3 19  1  0  0  0  0
  3  2  1  0  0  0  0
  3 10  1  1  0  0  0
  4  3  1  0  0  0  0
  5  4  1  0  0  0  0
  5  6  1  0  0  0  0
  6 15  1  0  0  0  0
  6  1  1  0  0  0  0
  9  2  1  0  0  0  0
 11  4  1  0  0  0  0
 12  4  1  0  0  0  0
 13  5  1  0  0  0  0
 14  5  1  0  0  0  0
 16  6  1  0  0  0  0
 18 23  1  0  0  0  0
 18 17  1  0  0  0  0
 19 18  2  0  0  0  0
 20 21  2  0  0  0  0
 20 19  1  0  0  0  0
 21 22  1  0  0  0  0
 22 26  1  0  0  0  0
 22 23  2  0  0  0  0
 23 28  1  0  0  0  0
 24 20  1  0  0  0  0
 25 21  1  0  0  0  0
 27 34  1  0  0  0  0
 28 27  2  0  0  0  0
 28 29  1  0  0  0  0
 29 30  1  0  0  0  0
 29 31  2  0  0  0  0
 31 33  1  0  0  0  0
 31 32  1  0  0  0  0
 34 33  2  0  0  0  0
 35 36  1  0  0  0  0
 36 37  2  0  0  0  0
 36 27  1  0  0  0  0
 38 36  2  0  0  0  0
 39 40  2  0  0  0  0
 39 44  1  0  0  0  0
 40 41  1  0  0  0  0
 41 42  2  0  0  0  0
 41 46  1  0  0  0  0
 43 47  1  0  0  0  0
 43 42  1  0  0  0  0
 44 43  2  0  0  0  0
 45 40  1  0  0  0  0
M  END
>  <minimizedAffinity>
-5.98171377

$$$$

 OpenBabel03272506003D

 47 50  0  0  1  0  0  0  0  0999 V2000
   34.9830   29.8970   32.8700 C   0  0  2  0  0  0  0  0  0  0  0  0
   35.3670   28.4690   32.9130 C   0  0  0  0  0  0  0  0  0  0  0  0
   36.8380   28.2410   32.5470 C   0  0  2  0  0  0  0  0  0  0  0  0
   37.2320   28.7920   31.2470 C   0  0  0  0  0  0  0  0  0  0  0  0
   36.5800   30.1360   30.9340 C   0  0  0  0  0  0  0  0  0  0  0  0
   36.0010   30.7680   32.1680 C   0  0  0  0  0  0  0  0  0  0  0  0
   34.0220   30.0720   32.3010 H   0  0  0  0  0  0  0  0  0  0  0  0
   35.2270   27.8630   33.7740 H   0  0  0  0  0  0  0  0  0  0  0  0
   34.8230   27.9650   32.0430 H   0  0  0  0  0  0  0  0  0  0  0  0
   37.4060   28.6210   33.3970 H   0  0  0  0  0  0  0  0  0  0  0  0
   38.3420   28.8610   31.2150 H   0  0  0  0  0  0  0  0  0  0  0  0
   36.9290   28.1280   30.4190 H   0  0  0  0  0  0  0  0  0  0  0  0
   37.3990   30.8050   30.5950 H   0  0  0  0  0  0  0  0  0  0  0  0
   35.8660   30.0900   30.1010 H   0  0  0  0  0  0  0  0  0  0  0  0
   36.8220   30.9940   32.8800 H   0  0  0  0  0  0  0  0  0  0  0  0
   35.5230   31.7130   31.8560 H   0  0  0  0  0  0  0  0  0  0  0  0
   39.0420   27.2030   34.2090 Cl  0  0  0  0  0  0  0  0  0  0  0  0
   38.0040   26.1580   33.2540 C   0  0  0  0  0  0  0  0  0  0  0  0
   36.9820   26.7570   32.5400 C   0  0  0  0  0  0  0  0  0  0  0  0
   36.2040   25.8510   31.8410 C   0  0  0  0  0  0  0  0  0  0  0  0
   36.4420   24.4920   31.8650 C   0  0  0  0  0  0  0  0  0  0  0  0
   37.4930   23.9710   32.6090 C   0  0  0  0  0  0  0  0  0  0  0  0
   38.2890   24.8270   33.3160 C   0  0  0  0  0  0  0  0  0  0  0  0
   35.3810   26.2480   31.2620 H   0  0  0  0  0  0  0  0  0  0  0  0
   35.7730   23.8610   31.2810 H   0  0  0  0  0  0  0  0  0  0  0  0
   37.6620   22.9030   32.6150 H   0  0  0  0  0  0  0  0  0  0  0  0
   39.4190   23.9320   35.4320 C   0  0  0  0  0  0  0  0  0  0  0  0
   39.3950   24.2920   34.1010 C   0  0  0  0  0  0  0  0  0  0  0  0
   40.5450   24.1580   33.3270 C   0  0  0  0  0  0  0  0  0  0  0  0
   40.6410   24.4120   32.2640 H   0  0  0  0  0  0  0  0  0  0  0  0
   41.7230   23.6620   33.8930 C   0  0  0  0  0  0  0  0  0  0  0  0
   42.6360   23.5530   33.2870 H   0  0  0  0  0  0  0  0  0  0  0  0
   41.7310   23.3030   35.2370 C   0  0  0  0  0  3  0  0  0  0  0  0
   40.5770   23.4430   35.9920 C   0  0  0  0  0  3  0  0  0  0  0  0
   36.9090   24.5330   35.4300 H   0  0  0  0  0  0  0  0  0  0  0  0
   37.9150   24.1550   36.2640 S   0  0  0  0  0  0  0  0  0  0  0  0
   38.1170   25.2800   37.2470 O   0  0  0  0  0  0  0  0  0  0  0  0
   37.4920   22.9630   37.0690 O   0  0  0  0  0  0  0  0  0  0  0  0
   34.7540   30.4800   34.2020 C   0  0  0  0  0  0  0  0  0  0  0  0
   35.8830   31.0380   34.8040 C   0  0  0  0  0  0  0  0  0  0  0  0
   35.7220   31.6210   36.0680 C   0  0  0  0  0  0  0  0  0  0  0  0
   34.4600   31.6160   36.6550 N   0  0  0  0  0  0  0  0  0  0  0  0
   33.4020   31.0610   36.0290 C   0  0  0  0  0  0  0  0  0  0  0  0
   33.5790   30.5130   34.8270 N   0  0  0  0  0  0  0  0  0  0  0  0
   36.9320   31.1800   34.6140 H   0  0  0  0  0  0  0  0  0  0  0  0
   36.3950   32.1060   36.7340 H   0  0  0  0  0  0  0  0  0  0  0  0
   32.4200   31.0550   36.4810 H   0  0  0  0  0  0  0  0  0  0  0  0
  1  7  1  6  0  0  0
  1  2  1  0  0  0  0
  1 39  1  0  0  0  0
  2  8  1  0  0  0  0
  3  2  1  0  0  0  0
  3 10  1  1  0  0  0
  4  3  1  0  0  0  0
  5  4  1  0  0  0  0
  5  6  1  0  0  0  0
  6  1  1  0  0  0  0
  6 15  1  0  0  0  0
  9  2  1  0  0  0  0
 11  4  1  0  0  0  0
 12  4  1  0  0  0  0
 13  5  1  0  0  0  0
 14  5  1  0  0  0  0
 16  6  1  0  0  0  0
 18 23  1  0  0  0  0
 18 17  1  0  0  0  0
 19  3  1  0  0  0  0
 19 18  2  0  0  0  0
 20 21  2  0  0  0  0
 20 19  1  0  0  0  0
 21 22  1  0  0  0  0
 22 26  1  0  0  0  0
 22 23  2  0  0  0  0
 23 28  1  0  0  0  0
 24 20  1  0  0  0  0
 25 21  1  0  0  0  0
 27 34  1  0  0  0  0
 27 36  1  0  0  0  0
 28 27  2  0  0  0  0
 29 31  2  0  0  0  0
 29 28  1  0  0  0  0
 30 29  1  0  0  0  0
 31 33  1  0  0  0  0
 32 31  1  0  0  0  0
 33 34  2  0  0  0  0
 35 36  1  0  0  0  0
 36 38  2  0  0  0  0
 36 37  2  0  0  0  0
 39 40  2  0  0  0  0
 39 44  1  0  0  0  0
 40 41  1  0  0  0  0
 41 42  2  0  0  0  0
 41 46  1  0  0  0  0
 43 47  1  0  0  0  0
 43 42  1  0  0  0  0
 44 43  2  0  0  0  0
 45 40  1  0  0  0  0
M  END
>  <minimizedAffinity>
-5.90752602

$$$$

 OpenBabel03272506003D

 47 50  0  0  1  0  0  0  0  0999 V2000
   38.9250   27.3380   31.1460 C   0  0  2  0  0  0  0  0  0  0  0  0
   38.7790   25.9500   31.6380 C   0  0  0  0  0  0  0  0  0  0  0  0
   37.3300   25.6020   32.0020 C   0  0  2  0  0  0  0  0  0  0  0  0
   36.7130   26.5090   32.9740 C   0  0  0  0  0  0  0  0  0  0  0  0
   37.1060   27.9710   32.7750 C   0  0  0  0  0  0  0  0  0  0  0  0
   37.7110   28.1980   31.4180 C   0  0  0  0  0  0  0  0  0  0  0  0
   39.7770   27.8890   31.6450 H   0  0  0  0  0  0  0  0  0  0  0  0
   39.1070   25.1070   31.0830 H   0  0  0  0  0  0  0  0  0  0  0  0
   39.2960   25.9160   32.6570 H   0  0  0  0  0  0  0  0  0  0  0  0
   36.8070   25.5260   31.0490 H   0  0  0  0  0  0  0  0  0  0  0  0
   35.6100   26.3750   32.9310 H   0  0  0  0  0  0  0  0  0  0  0  0
   37.0240   26.2680   34.0050 H   0  0  0  0  0  0  0  0  0  0  0  0
   36.1600   28.5500   32.7970 H   0  0  0  0  0  0  0  0  0  0  0  0
   37.7230   28.3710   33.5900 H   0  0  0  0  0  0  0  0  0  0  0  0
   36.9480   27.9870   30.6400 H   0  0  0  0  0  0  0  0  0  0  0  0
   37.9960   29.2640   31.3630 H   0  0  0  0  0  0  0  0  0  0  0  0
   39.1630   25.3340   34.2970 Cl  0  0  0  0  0  0  0  0  0  0  0  0
   38.2800   23.9720   33.6270 C   0  0  0  0  0  0  0  0  0  0  0  0
   37.4230   24.2270   32.5720 C   0  0  0  0  0  0  0  0  0  0  0  0
   36.7540   23.0990   32.1310 C   0  0  0  0  0  0  0  0  0  0  0  0
   36.9390   21.8550   32.6990 C   0  0  0  0  0  0  0  0  0  0  0  0
   37.8200   21.6850   33.7580 C   0  0  0  0  0  0  0  0  0  0  0  0
   38.5040   22.7700   34.2290 C   0  0  0  0  0  0  0  0  0  0  0  0
   36.0620   23.2230   31.3090 H   0  0  0  0  0  0  0  0  0  0  0  0
   36.3650   21.0290   32.2810 H   0  0  0  0  0  0  0  0  0  0  0  0
   37.9500   20.7020   34.1900 H   0  0  0  0  0  0  0  0  0  0  0  0
   39.2240   22.8290   36.6850 C   0  0  0  0  0  0  0  0  0  0  0  0
   39.4330   22.6050   35.3400 C   0  0  0  0  0  0  0  0  0  0  0  0
   40.6750   22.1570   34.8980 C   0  0  0  0  0  0  0  0  0  0  0  0
   40.9520   21.9460   33.8580 H   0  0  0  0  0  0  0  0  0  0  0  0
   41.7110   21.9350   35.8100 C   0  0  0  0  0  0  0  0  0  0  0  0
   42.6950   21.5810   35.4680 H   0  0  0  0  0  0  0  0  0  0  0  0
   41.4840   22.1660   37.1630 C   0  0  0  0  0  3  0  0  0  0  0  0
   40.2410   22.6120   37.5860 C   0  0  0  0  0  3  0  0  0  0  0  0
   37.2160   24.3990   36.2770 H   0  0  0  0  0  0  0  0  0  0  0  0
   37.6300   23.3840   37.0810 S   0  0  0  0  0  0  0  0  0  0  0  0
   37.6900   23.9320   38.4850 O   0  0  0  0  0  0  0  0  0  0  0  0
   36.6020   22.2920   37.1000 O   0  0  0  0  0  0  0  0  0  0  0  0
   39.2040   27.4190   29.7030 C   0  0  0  0  0  0  0  0  0  0  0  0
   38.9190   28.6530   29.1160 C   0  0  0  0  0  0  0  0  0  0  0  0
   39.1800   28.7930   27.7460 C   0  0  0  0  0  0  0  0  0  0  0  0
   39.7020   27.7090   27.0460 N   0  0  0  0  0  0  0  0  0  0  0  0
   39.9570   26.5370   27.6650 C   0  0  0  0  0  0  0  0  0  0  0  0
   39.7020   26.4280   28.9680 N   0  0  0  0  0  0  0  0  0  0  0  0
   38.5280   29.6190   29.3780 H   0  0  0  0  0  0  0  0  0  0  0  0
   39.0620   29.6010   27.0640 H   0  0  0  0  0  0  0  0  0  0  0  0
   40.3630   25.6930   27.1250 H   0  0  0  0  0  0  0  0  0  0  0  0
  1  6  1  0  0  0  0
  1  2  1  0  0  0  0
  1  7  1  1  0  0  0
  2  3  1  0  0  0  0
  2  9  1  0  0  0  0
  3 10  1  6  0  0  0
  3 19  1  0  0  0  0
  3  4  1  0  0  0  0
  4 12  1  0  0  0  0
  5 13  1  0  0  0  0
  5  4  1  0  0  0  0
  5 14  1  0  0  0  0
  6  5  1  0  0  0  0
  8  2  1  0  0  0  0
 11  4  1  0  0  0  0
 15  6  1  0  0  0  0
 16  6  1  0  0  0  0
 18 23  1  0  0  0  0
 18 17  1  0  0  0  0
 19 18  2  0  0  0  0
 20 19  1  0  0  0  0
 20 21  2  0  0  0  0
 21 22  1  0  0  0  0
 22 26  1  0  0  0  0
 22 23  2  0  0  0  0
 23 28  1  0  0  0  0
 24 20  1  0  0  0  0
 25 21  1  0  0  0  0
 27 36  1  0  0  0  0
 27 34  1  0  0  0  0
 28 27  2  0  0  0  0
 29 28  1  0  0  0  0
 29 31  2  0  0  0  0
 30 29  1  0  0  0  0
 31 33  1  0  0  0  0
 32 31  1  0  0  0  0
 33 34  2  0  0  0  0
 35 36  1  0  0  0  0
 36 38  2  0  0  0  0
 36 37  2  0  0  0  0
 39  1  1  0  0  0  0
 40 45  1  0  0  0  0
 40 39  1  0  0  0  0
 41 40  2  0  0  0  0
 42 43  2  0  0  0  0
 42 41  1  0  0  0  0
 43 44  1  0  0  0  0
 44 39  2  0  0  0  0
 46 41  1  0  0  0  0
 47 43  1  0  0  0  0
M  END
>  <minimizedAffinity>
-5.83173084

$$$$
