
 OpenBabel03262522323D

 30 32  0  0  0  0  0  0  0  0999 V2000
   38.5450   31.5320   47.8930 C   0  0  0  0  0  0  0  0  0  0  0  0
   39.0760   32.7820   48.0410 C   0  0  0  0  0  0  0  0  0  0  0  0
   39.7170   33.4840   47.0390 C   0  0  0  0  0  0  0  0  0  0  0  0
   39.8420   32.8980   45.7860 C   0  0  0  0  0  0  0  0  0  0  0  0
   39.3070   31.6440   45.6460 C   0  0  0  0  0  0  0  0  0  0  0  0
   38.7060   31.0360   46.6640 N   0  0  0  0  0  0  0  0  0  0  0  0
   38.9950   33.2720   49.0150 H   0  0  0  0  0  0  0  0  0  0  0  0
   40.1060   34.4800   47.2640 H   0  0  0  0  0  0  0  0  0  0  0  0
   40.3550   33.5240   45.0780 H   0  0  0  0  0  0  0  0  0  0  0  0
   38.1670   30.9890   50.3230 C   0  0  0  0  0  0  0  0  0  0  0  0
   37.8800   30.8090   48.9530 C   0  0  0  0  0  0  0  0  0  0  0  0
   36.8900   29.8810   48.5970 C   0  0  0  0  0  0  0  0  0  0  0  0
   36.2600   29.2020   49.6040 N   0  0  0  0  0  0  0  0  0  0  0  0
   36.5750   29.4120   50.9100 C   0  0  0  0  0  0  0  0  0  0  0  0
   37.5170   30.2940   51.2730 N   0  0  0  0  0  0  0  0  0  0  0  0
   38.9390   31.7200   50.4960 H   0  0  0  0  0  0  0  0  0  0  0  0
   36.6070   29.6800   47.5840 H   0  0  0  0  0  0  0  0  0  0  0  0
   36.0660   28.8660   51.6960 H   0  0  0  0  0  0  0  0  0  0  0  0
   38.3000   30.7710   43.5820 C   0  0  0  0  0  0  0  0  0  0  0  0
   39.4300   31.0160   44.3390 C   0  0  0  0  0  0  0  0  0  0  0  0
   40.6370   30.6390   43.7930 C   0  0  0  0  0  0  0  0  0  0  0  0
   41.5660   30.7950   44.3170 H   0  0  0  0  0  0  0  0  0  0  0  0
   40.8090   30.0420   42.5620 C   0  0  0  0  0  0  0  0  0  0  0  0
   41.7730   29.7590   42.1650 H   0  0  0  0  0  0  0  0  0  0  0  0
   39.6870   29.7950   41.8020 C   0  0  0  0  0  3  0  0  0  0  0  0
   38.4760   30.1650   42.3310 C   0  0  0  0  0  3  0  0  0  0  0  0
   36.7240   32.2430   44.9380 H   0  0  0  0  0  0  0  0  0  0  0  0
   36.6800   31.1720   44.0900 S   0  0  0  0  0  0  0  0  0  0  0  0
   35.8640   31.5050   42.8550 O   0  0  0  0  0  0  0  0  0  0  0  0
   36.0650   29.9690   44.7840 O   0  0  0  0  0  0  0  0  0  0  0  0
  1  2  1  0  0  0  0
  1 11  1  0  0  0  0
  2  7  1  0  0  0  0
  3  8  1  0  0  0  0
  3  2  2  0  0  0  0
  4  3  1  0  0  0  0
  5  4  2  0  0  0  0
  5  6  1  0  0  0  0
  6  1  2  0  0  0  0
  9  4  1  0  0  0  0
 10 16  1  0  0  0  0
 10 15  1  0  0  0  0
 11 10  2  0  0  0  0
 12 11  1  0  0  0  0
 12 13  2  0  0  0  0
 13 14  1  0  0  0  0
 14 15  2  0  0  0  0
 14 18  1  0  0  0  0
 17 12  1  0  0  0  0
 19 28  1  0  0  0  0
 19 20  1  0  0  0  0
 20  5  1  0  0  0  0
 21 22  1  0  0  0  0
 21 20  2  0  0  0  0
 23 21  1  0  0  0  0
 24 23  1  0  0  0  0
 25 26  1  0  0  0  0
 25 23  2  0  0  0  0
 26 19  2  0  0  0  0
 28 30  2  0  0  0  0
 28 27  1  0  0  0  0
 29 28  2  0  0  0  0
M  END
>  <minimizedAffinity>
-5.59241629

>  <minimizedRMSD>
2.15861702

$$$$
