
 OpenBabel03272508123D

 37 39  0  0  0  0  0  0  0  0999 V2000
   36.6150   29.8030   44.3080 Cl  0  0  0  0  0  0  0  0  0  0  0  0
   38.2410   30.0500   43.6550 C   0  0  0  0  0  0  0  0  0  0  0  0
   39.3400   30.4230   44.4200 C   0  0  0  0  0  0  0  0  0  0  0  0
   40.5630   30.5820   43.7790 C   0  0  0  0  0  0  0  0  0  0  0  0
   40.6720   30.3730   42.4220 C   0  0  0  0  0  0  0  0  0  0  0  0
   39.6060   30.0070   41.6580 C   0  0  0  0  0  0  0  0  0  0  0  0
   38.4000   29.8490   42.2830 C   0  0  0  0  0  0  0  0  0  0  0  0
   41.3520   30.8690   44.4330 H   0  0  0  0  0  0  0  0  0  0  0  0
   41.6390   30.5060   41.9550 H   0  0  0  0  0  0  0  0  0  0  0  0
   39.7510   29.8560   40.5930 H   0  0  0  0  0  0  0  0  0  0  0  0
   36.5590   30.5400   40.9390 C   0  0  0  0  0  0  0  0  0  0  0  0
   37.2670   29.4520   41.4290 C   0  0  0  0  0  0  0  0  0  0  0  0
   36.9320   28.1490   41.1370 C   0  0  0  0  0  0  0  0  0  0  0  0
   37.5560   27.3870   41.5740 H   0  0  0  0  0  0  0  0  0  0  0  0
   35.8560   27.8680   40.3290 C   0  0  0  0  0  0  0  0  0  0  0  0
   35.6420   26.8280   40.1360 H   0  0  0  0  0  0  0  0  0  0  0  0
   35.1300   28.9260   39.8260 C   0  0  0  0  0  0  0  0  0  0  0  0
   35.4680   30.2250   40.1200 C   0  0  0  0  0  0  0  0  0  0  0  0
   38.3120   32.4170   41.2320 H   0  0  0  0  0  0  0  0  0  0  0  0
   36.9400   32.2020   41.2780 S   0  0  0  0  0  0  0  0  0  0  0  0
   36.3450   32.7210   42.5340 O   0  0  0  0  0  0  0  0  0  0  0  0
   36.3850   33.0400   40.1530 O   0  0  0  0  0  0  0  0  0  0  0  0
   39.0230   30.5810   45.7400 O   0  0  0  0  0  0  0  0  0  0  0  0
   39.4650   32.5880   47.3020 O   0  0  0  0  0  0  0  0  0  0  0  0
   38.3850   31.9130   46.5380 P   0  0  1  0  0  0  0  0  0  0  0  0
   37.8200   32.9330   45.2900 O   0  0  0  0  0  0  0  0  0  0  0  0
   37.4540   32.4220   44.5330 H   0  0  0  0  0  0  0  0  0  0  0  0
   37.0760   31.4110   47.4920 O   0  0  0  0  0  0  0  0  0  0  0  0
   37.5400   30.5160   51.0420 C   0  0  0  0  0  0  0  0  0  0  0  0
   37.6700   31.2890   49.8840 C   0  0  0  0  0  0  0  0  0  0  0  0
   37.0800   30.8350   48.7160 C   0  0  0  0  0  0  0  0  0  0  0  0
   36.3980   29.6540   48.7470 N   0  0  0  0  0  0  0  0  0  0  0  0
   36.2920   28.9280   49.8880 C   0  0  0  0  0  0  0  0  0  0  0  0
   36.8670   29.3680   51.0320 N   0  0  0  0  0  0  0  0  0  0  0  0
   37.9980   30.8790   51.9300 H   0  0  0  0  0  0  0  0  0  0  0  0
   38.1850   32.2120   49.8000 H   0  0  0  0  0  0  0  0  0  0  0  0
   35.7450   27.9820   49.9090 H   0  0  0  0  0  0  0  0  0  0  0  0
  2  1  1  0  0  0  0
  2  3  1  0  0  0  0
  3 23  1  0  0  0  0
  4  3  2  0  0  0  0
  4  8  1  0  0  0  0
  5  4  1  0  0  0  0
  6  7  1  0  0  0  0
  6  5  2  0  0  0  0
  7  2  2  0  0  0  0
  9  5  1  0  0  0  0
 10  6  1  0  0  0  0
 11 20  1  0  0  0  0
 11 12  1  0  0  0  0
 12  7  1  0  0  0  0
 13 12  2  0  0  0  0
 13 14  1  0  0  0  0
 15 13  1  0  0  0  0
 16 15  1  0  0  0  0
 17 18  1  0  0  0  0
 17 15  2  0  0  0  0
 18 11  2  0  0  0  0
 19 20  1  0  0  0  0
 20 21  2  0  0  0  0
 22 20  2  0  0  0  0
 23 25  1  0  0  0  0
 25 24  2  1  0  0  0
 25 28  1  0  0  0  0
 26 25  1  0  0  0  0
 27 26  1  0  0  0  0
 28 31  1  0  0  0  0
 29 35  1  0  0  0  0
 30 29  2  0  0  0  0
 31 32  2  0  0  0  0
 31 30  1  0  0  0  0
 32 33  1  0  0  0  0
 33 37  1  0  0  0  0
 33 34  2  0  0  0  0
 34 29  1  0  0  0  0
 36 30  1  0  0  0  0
M  END
>  <minimizedAffinity>
-4.93998241

>  <minimizedRMSD>
0.800545931

$$$$
