
     RDKit          3D

 33 35  0  0  0  0  0  0  0  0999 V2000
   37.9885   33.1653   49.4387 C   0  0  0  0  0  0  0  0  0  0  0  0
   39.0184   33.1581   48.4623 C   0  0  0  0  0  0  0  0  0  0  0  0
   39.0046   32.1236   47.5303 C   0  0  0  0  0  0  0  0  0  0  0  0
   38.0187   31.1847   47.6012 N   0  0  0  0  0  0  0  0  0  0  0  0
   37.0541   31.2260   48.5472 C   0  0  0  0  0  0  0  0  0  0  0  0
   37.0524   32.2201   49.4567 N   0  0  0  0  0  0  0  0  0  0  0  0
   37.2614   29.3608   51.0549 Br  0  0  0  0  0  0  0  0  0  0  0  0
   35.9503   29.3189   49.6598 C   0  0  0  0  0  0  0  0  0  0  0  0
   35.9993   30.2158   48.6178 C   0  0  0  0  0  0  0  0  0  0  0  0
   35.0231   30.1224   47.6548 C   0  0  0  0  0  0  0  0  0  0  0  0
   34.0025   29.1738   47.6881 C   0  0  0  0  0  0  0  0  0  0  0  0
   33.9992   28.3045   48.7466 C   0  0  0  0  0  0  0  0  0  0  0  0
   34.9656   28.3770   49.7245 C   0  0  0  0  0  0  0  0  0  0  0  0
   37.9246   33.9396   50.2061 H   0  0  0  0  0  0  0  0  0  0  0  0
   39.7584   33.9409   48.4805 H   0  0  0  0  0  0  0  0  0  0  0  0
   39.7803   32.0904   46.7696 H   0  0  0  0  0  0  0  0  0  0  0  0
   35.1097   30.8626   46.8458 H   0  0  0  0  0  0  0  0  0  0  0  0
   33.1919   27.5860   48.7320 H   0  0  0  0  0  0  0  0  0  0  0  0
   34.9079   27.6574   50.5403 H   0  0  0  0  0  0  0  0  0  0  0  0
   35.4953   30.7606   44.8292 H   0  0  0  0  0  0  0  0  0  0  0  0
   35.0671   29.4759   44.8324 S   0  0  0  0  0  0  0  0  0  0  0  0
   35.9446   28.5655   45.6475 O   0  0  0  0  0  0  0  0  0  0  0  0
   35.1756   28.9946   43.3918 O   0  0  0  0  0  0  0  0  0  0  0  0
   33.3937   29.3873   45.2530 C   0  0  0  0  0  0  0  0  0  0  0  0
   33.0742   29.2515   46.5661 C   0  0  0  0  0  0  0  0  0  0  0  0
   31.7101   29.1811   46.8707 C   0  0  0  0  0  0  0  0  0  0  0  0
   31.3579   29.0707   47.9088 H   0  0  0  0  0  0  0  0  0  0  0  0
   30.7091   29.2397   45.9473 C   0  0  0  0  0  0  0  0  0  0  0  0
   29.6642   29.1828   46.2110 H   0  0  0  0  0  0  0  0  0  0  0  0
   31.0369   29.3768   44.6230 C   0  0  0  0  0  0  0  0  0  0  0  0
   32.3717   29.4477   44.3036 C   0  0  0  0  0  0  0  0  0  0  0  0
   30.2914   29.4306   43.8295 H   0  0  0  0  0  0  0  0  0  0  0  0
   32.6685   29.5578   43.2519 H   0  0  0  0  0  0  0  0  0  0  0  0
  1  6  2  0
  2  1  1  0
  3  4  1  0
  3  2  2  0
  4  5  2  0
  5  9  1  0
  5  6  1  0
  8 13  2  0
  8  7  1  0
  9  8  1  0
 10 11  1  0
 10  9  2  0
 11 12  2  0
 12 13  1  0
  1 14  1  0
  2 15  1  0
  3 16  1  0
 10 17  1  0
 12 18  1  0
 13 19  1  0
 20 21  1  0
 21 22  2  0
 21 23  2  0
 21 24  1  0
 24 25  2  0
 25 26  1  0
 26 27  1  0
 26 28  2  0
 28 29  1  0
 28 30  1  0
 30 31  2  0
 31 24  1  0
 30 32  1  0
 31 33  1  0
 11 25  1  0
M  ISO  8  14  14  15  14  16  14  17  14  18  14  19  14  20  12  27  15
M  ISO  1  29  16
M  END
>  <DihAtoms>  (1) 
9,10,24,23

>  <DihDeg>  (1) 
-134.35822745644987

$$$$
