
 OpenBabel03272510173D

 31 33  0  0  0  0  0  0  0  0999 V2000
   37.4110   29.8880   51.4960 Br  0  0  0  0  0  0  0  0  0  0  0  0
   36.0770   29.6620   50.1420 C   0  0  0  0  0  0  0  0  0  0  0  0
   36.1070   30.4120   48.9890 C   0  0  0  0  0  0  0  0  0  0  0  0
   35.1150   30.1910   48.0630 C   0  0  0  0  0  0  0  0  0  0  0  0
   34.0960   29.2570   48.2400 C   0  0  0  0  0  0  0  0  0  0  0  0
   34.1120   28.5370   49.4050 C   0  0  0  0  0  0  0  0  0  0  0  0
   35.0950   28.7380   50.3470 C   0  0  0  0  0  0  0  0  0  0  0  0
   35.1870   30.8180   47.1620 H   0  0  0  0  0  0  0  0  0  0  0  0
   33.3050   27.8230   49.5000 H   0  0  0  0  0  0  0  0  0  0  0  0
   35.0520   28.1330   51.2530 H   0  0  0  0  0  0  0  0  0  0  0  0
   38.1340   33.4200   49.4050 C   0  0  0  0  0  0  0  0  0  0  0  0
   39.1200   33.3030   48.3920 C   0  0  0  0  0  0  0  0  0  0  0  0
   39.0660   32.1750   47.5780 C   0  0  0  0  0  0  0  0  0  0  0  0
   38.0830   31.2550   47.7900 N   0  0  0  0  0  0  0  0  0  0  0  0
   37.1590   31.4020   48.7660 C   0  0  0  0  0  0  0  0  0  0  0  0
   37.1970   32.4880   49.5640 N   0  0  0  0  0  0  0  0  0  0  0  0
   38.1030   34.2730   50.0870 H   0  0  0  0  0  0  0  0  0  0  0  0
   39.8620   34.0790   48.2950 H   0  0  0  0  0  0  0  0  0  0  0  0
   39.8080   32.0560   46.7940 H   0  0  0  0  0  0  0  0  0  0  0  0
   32.0790   28.3550   47.0300 C   0  0  0  0  0  0  0  0  0  0  0  0
   33.1490   29.1860   47.1330 C   0  0  0  0  0  0  0  0  0  0  0  0
   33.3630   30.0610   46.0630 C   0  0  0  0  0  0  0  0  0  0  0  0
   34.2060   30.7700   46.0600 H   0  0  0  0  0  0  0  0  0  0  0  0
   32.5780   30.1260   44.9500 C   0  0  0  0  0  0  0  0  0  0  0  0
   32.7670   30.8120   44.1400 H   0  0  0  0  0  0  0  0  0  0  0  0
   31.4990   29.2860   44.8510 C   0  0  0  0  0  3  0  0  0  0  0  0
   31.2720   28.4190   45.8930 C   0  0  0  0  0  3  0  0  0  0  0  0
   32.9260   26.9480   48.9760 H   0  0  0  0  0  0  0  0  0  0  0  0
   31.7770   27.2580   48.3300 S   0  0  0  0  0  0  0  0  0  0  0  0
   30.6840   27.7100   49.2610 O   0  0  0  0  0  0  0  0  0  0  0  0
   31.2890   25.9620   47.6970 O   0  0  0  0  0  0  0  0  0  0  0  0
  2  7  1  0  0  0  0
  2  1  1  0  0  0  0
  3  2  2  0  0  0  0
  4  5  2  0  0  0  0
  4  3  1  0  0  0  0
  5  6  1  0  0  0  0
  6  9  1  0  0  0  0
  6  7  2  0  0  0  0
  7 10  1  0  0  0  0
  8  4  1  0  0  0  0
 11 16  1  0  0  0  0
 11 17  1  0  0  0  0
 12 11  2  0  0  0  0
 13 14  2  0  0  0  0
 13 12  1  0  0  0  0
 14 15  1  0  0  0  0
 15  3  1  0  0  0  0
 15 16  2  0  0  0  0
 18 12  1  0  0  0  0
 19 13  1  0  0  0  0
 20 21  1  0  0  0  0
 20 29  1  0  0  0  0
 21  5  1  0  0  0  0
 22 21  2  0  0  0  0
 23 22  1  0  0  0  0
 24 22  1  0  0  0  0
 25 24  1  0  0  0  0
 26 24  2  0  0  0  0
 26 27  1  0  0  0  0
 27 20  2  0  0  0  0
 29 28  1  0  0  0  0
 29 30  2  0  0  0  0
 31 29  2  0  0  0  0
M  END
>  <minimizedAffinity>
-6.27385139

>  <minimizedRMSD>
0.672482371

$$$$
