
     RDKit          3D

 45 48  0  0  0  0  0  0  0  0999 V2000
   37.3698   31.0598   47.1452 N   0  0  0  0  0  0  0  0  0  0  0  0
   36.7845   30.7174   45.9674 C   0  0  0  0  0  0  0  0  0  0  0  0
   37.2473   31.1868   44.7496 C   0  0  0  0  0  0  0  0  0  0  0  0
   38.3625   32.0455   44.7619 C   0  0  0  0  0  0  0  0  0  0  0  0
   38.8184   32.4964   43.6858 O   0  0  0  0  0  0  0  0  0  0  0  0
   38.9453   32.3838   45.9630 N   0  0  0  0  0  0  0  0  0  0  0  0
   38.4111   31.8711   47.0542 C   0  0  0  0  0  0  0  0  0  0  0  0
   38.9745   32.2068   48.1219 O   0  0  0  0  0  0  0  0  0  0  0  0
   37.2415   29.4748   50.5018 C   0  0  0  0  0  0  0  0  0  0  0  0
   37.7395   29.9570   49.2734 C   0  0  0  0  0  0  0  0  0  0  0  0
   36.8914   30.5785   48.3630 C   0  0  0  0  0  0  0  0  0  0  0  0
   35.5978   30.6943   48.7060 N   0  0  0  0  0  0  0  0  0  0  0  0
   35.0958   30.2366   49.8852 C   0  0  0  0  0  0  0  0  0  0  0  0
   35.9422   29.6267   50.7723 N   0  0  0  0  0  0  0  0  0  0  0  0
   36.6592   30.8523   43.4713 C   0  0  0  0  0  0  0  0  0  0  0  0
   37.0027   29.7641   42.7239 C   0  0  0  0  0  0  0  0  0  0  0  0
   36.4583   29.4285   41.5105 C   0  0  0  0  0  0  0  0  0  0  0  0
   35.4666   30.2654   40.9858 C   0  0  0  0  0  0  0  0  0  0  0  0
   35.1320   31.3618   41.7561 C   0  0  0  0  0  0  0  0  0  0  0  0
   35.7180   31.5974   42.9161 N   0  0  0  0  0  0  0  0  0  0  0  0
   40.0882   33.2644   45.9694 C   0  0  0  0  0  0  0  0  0  0  0  0
   39.9654   34.2265   45.0336 F   0  0  0  0  0  0  0  0  0  0  0  0
   41.2844   32.6085   45.6899 F   0  0  0  0  0  0  0  0  0  0  0  0
   40.1647   33.8866   47.2195 F   0  0  0  0  0  0  0  0  0  0  0  0
   35.9201   30.0524   45.9519 H   0  0  0  0  0  0  0  0  0  0  0  0
   37.9344   29.0008   51.1752 H   0  0  0  0  0  0  0  0  0  0  0  0
   38.7788   29.8467   49.0336 H   0  0  0  0  0  0  0  0  0  0  0  0
   34.0574   30.3404   50.1380 H   0  0  0  0  0  0  0  0  0  0  0  0
   37.7725   29.0770   43.0877 H   0  0  0  0  0  0  0  0  0  0  0  0
   36.7561   28.5495   40.9374 H   0  0  0  0  0  0  0  0  0  0  0  0
   35.0502   30.0032   40.0512 H   0  0  0  0  0  0  0  0  0  0  0  0
   33.2040   31.3105   44.2491 H   0  0  0  0  0  0  0  0  0  0  0  0
   32.4154   31.1667   43.1382 S   0  0  0  0  0  0  0  0  0  0  0  0
   32.2854   29.7447   42.6856 O   0  0  0  0  0  0  0  0  0  0  0  0
   31.0194   31.5524   43.6118 O   0  0  0  0  0  0  0  0  0  0  0  0
   32.8289   32.2673   41.8505 C   0  0  0  0  0  0  0  0  0  0  0  0
   34.1069   32.2822   41.2780 C   0  0  0  0  0  0  0  0  0  0  0  0
   34.3261   33.1929   40.2663 C   0  0  0  0  0  0  0  0  0  0  0  0
   35.2765   33.2645   39.7797 H   0  0  0  0  0  0  0  0  0  0  0  0
   33.3884   34.0816   39.7815 C   0  0  0  0  0  0  0  0  0  0  0  0
   33.5952   34.7825   38.9862 H   0  0  0  0  0  0  0  0  0  0  0  0
   32.1288   34.0738   40.3388 C   0  0  0  0  0  0  0  0  0  0  0  0
   31.8838   33.1737   41.3511 C   0  0  0  0  0  0  0  0  0  0  0  0
   31.3422   34.7401   40.0116 H   0  0  0  0  0  0  0  0  0  0  0  0
   30.8954   33.1650   41.7909 H   0  0  0  0  0  0  0  0  0  0  0  0
  1 11  1  0
  2  1  1  0
  3  4  1  0
  3  2  2  0
  4  6  1  0
  5  4  2  0
  6 21  1  0
  6  7  1  0
  7  1  1  0
  7  8  2  0
  9 14  2  0
 10  9  1  0
 11 12  1  0
 11 10  2  0
 12 13  2  0
 13 14  1  0
 15  3  1  0
 16 15  2  0
 17 16  1  0
 18 17  2  0
 18 19  1  0
 19 20  2  0
 20 15  1  0
 21 24  1  0
 22 21  1  0
 23 21  1  0
  2 25  1  0
  9 26  1  0
 10 27  1  0
 13 28  1  0
 16 29  1  0
 17 30  1  0
 18 31  1  0
 32 33  1  0
 33 34  2  0
 33 35  2  0
 33 36  1  0
 36 37  2  0
 37 38  1  0
 38 39  1  0
 38 40  2  0
 40 41  1  0
 40 42  1  0
 42 43  2  0
 43 36  1  0
 42 44  1  0
 43 45  1  0
 19 37  1  0
M  ISO  8  25  14  26  14  27  14  28  14  29  14  30  14  31  14  32  12
M  ISO  2  39  15  41  16
M  END
>  <DihAtoms>  (1) 
17,18,36,35

>  <DihDeg>  (1) 
-179.95759116459286

$$$$
