REMARK  Name = 
REMARK  4 active torsions:
REMARK  status: ('A' for Active; 'I' for Inactive)
REMARK    1  A    between atoms: C_1  and  C_7
REMARK    2  A    between atoms: C_1  and  C_9
REMARK    3  A    between atoms: C_14  and  C_27
REMARK    4  A    between atoms: S_23  and  C_26
REMARK                            x       y       z     vdW  Elec       q    Type
REMARK                         _______ _______ _______ _____ _____    ______ ____
ROOT
ATOM      1  C   UNL     1      36.066  29.584  49.151  0.00  0.00    +0.000 A 
ATOM      2  C   UNL     1      36.271  29.706  50.530  0.00  0.00    +0.000 A 
ATOM      3  C   UNL     1      37.355  30.424  51.056  0.00  0.00    +0.000 A 
ATOM      4  C   UNL     1      38.259  31.038  50.160  0.00  0.00    +0.000 A 
ATOM      5  C   UNL     1      38.038  30.905  48.792  0.00  0.00    +0.000 A 
ATOM      6  C   UNL     1      36.961  30.191  48.294  0.00  0.00    +0.000 A 
ATOM      7  H   UNL     1      35.584  29.240  51.222  0.00  0.00    +0.000 HD
ATOM      8  H   UNL     1      37.504  30.512  52.118  0.00  0.00    +0.000 HD
ATOM      9  H   UNL     1      39.086  31.585  50.594  0.00  0.00    +0.000 HD
ATOM     10  H   UNL     1      38.787  31.412  48.199  0.00  0.00    +0.000 HD
ENDROOT
BRANCH   6  12
ATOM     11  C   UNL     1      37.480  31.029  45.899  0.00  0.00    +0.000 A 
ATOM     12  C   UNL     1      36.915  30.202  46.848  0.00  0.00    +0.000 A 
ATOM     13  C   UNL     1      36.097  29.159  46.393  0.00  0.00    +0.000 A 
ATOM     14  H   UNL     1      35.569  28.409  46.997  0.00  0.00    +0.000 HD
ATOM     15  C   UNL     1      35.867  28.973  45.025  0.00  0.00    +0.000 A 
ATOM     16  H   UNL     1      35.244  28.182  44.631  0.00  0.00    +0.000 HD
ATOM     17  C   UNL     1      36.443  29.814  44.096  0.00  0.00    +0.000 A 
ATOM     18  C   UNL     1      37.245  30.835  44.556  0.00  0.00    +0.000 A 
BRANCH  11  20
ATOM     19  H   UNL     1      38.034  32.687  47.813  0.00  0.00    +0.000 HD
ATOM     20  S   UNL     1      38.502  32.265  46.598  0.00  0.00    +0.000 S 
ATOM     21  O   UNL     1      39.920  31.819  46.771  0.00  0.00    +0.000 OA
ATOM     22  O   UNL     1      38.520  33.498  45.716  0.00  0.00    +0.000 OA
ENDBRANCH  11  20
ENDBRANCH   6  12
BRANCH   1  23
ATOM     23  C   UNL     1      34.938  28.799  48.686  0.00  0.00    +0.000 C 
ATOM     24  O   UNL     1      34.594  27.856  49.493  0.00  0.00    +0.000 OA
BRANCH  23  29
ATOM     25  C   UNL     1      32.999  30.580  46.200  0.00  0.00    +0.000 A 
ATOM     26  C   UNL     1      32.816  29.644  45.171  0.00  0.00    +0.000 A 
ATOM     27  C   UNL     1      33.367  28.370  45.336  0.00  0.00    +0.000 A 
ATOM     28  N   UNL     1      34.062  28.081  46.486  0.00  0.00    +0.000 NA
ATOM     29  C   UNL     1      34.213  28.998  47.440  0.00  0.00    +0.000 A 
ATOM     30  N   UNL     1      33.687  30.209  47.281  0.00  0.00    +0.000 NA
ATOM     31  H   UNL     1      32.541  31.533  45.988  0.00  0.00    +0.000 HD
ATOM     32  H   UNL     1      32.289  29.769  44.228  0.00  0.00    +0.000 HD
ATOM     33  H   UNL     1      33.315  27.543  44.641  0.00  0.00    +0.000 HD
ENDBRANCH  23  29
ENDBRANCH   1  23
TORSDOF 4
