
     RDKit          3D

 39 41  0  0  0  0  0  0  0  0999 V2000
   39.4502   32.4773   47.0986 O   0  0  0  0  0  0  0  0  0  0  0  0
   38.3073   31.8312   46.4050 P   0  0  2  0  0  0  0  0  0  0  0  0
   37.7193   32.8505   45.1665 O   0  0  0  0  0  0  0  0  0  0  0  0
   37.0308   31.3987   47.4342 O   0  0  0  0  0  0  0  0  0  0  0  0
   37.6145   30.5282   50.9718 C   0  0  0  0  0  0  0  0  0  0  0  0
   37.7074   31.2924   49.8052 C   0  0  0  0  0  0  0  0  0  0  0  0
   37.0749   30.8319   48.6614 C   0  0  0  0  0  0  0  0  0  0  0  0
   36.3900   29.6535   48.7250 N   0  0  0  0  0  0  0  0  0  0  0  0
   36.3203   28.9373   49.8737 C   0  0  0  0  0  0  0  0  0  0  0  0
   36.9367   29.3832   50.9941 N   0  0  0  0  0  0  0  0  0  0  0  0
   38.8524   30.4607   45.6031 O   0  0  0  0  0  0  0  0  0  0  0  0
   36.6216   29.4402   44.0415 Cl  0  0  0  0  0  0  0  0  0  0  0  0
   38.2571   29.8271   43.4851 C   0  0  0  0  0  0  0  0  0  0  0  0
   39.2651   30.3132   44.3087 C   0  0  0  0  0  0  0  0  0  0  0  0
   40.5065   30.5762   43.7418 C   0  0  0  0  0  0  0  0  0  0  0  0
   40.7209   30.3572   42.3989 C   0  0  0  0  0  0  0  0  0  0  0  0
   39.7442   29.8813   41.5782 C   0  0  0  0  0  0  0  0  0  0  0  0
   38.5207   29.6208   42.1303 C   0  0  0  0  0  0  0  0  0  0  0  0
   37.2948   32.3395   44.4393 H   0  0  0  0  0  0  0  0  0  0  0  0
   38.1053   30.8953   51.8406 H   0  0  0  0  0  0  0  0  0  0  0  0
   38.2230   32.2116   49.6961 H   0  0  0  0  0  0  0  0  0  0  0  0
   35.7706   27.9933   49.9212 H   0  0  0  0  0  0  0  0  0  0  0  0
   41.2233   30.9452   44.4374 H   0  0  0  0  0  0  0  0  0  0  0  0
   41.6998   30.5728   41.9905 H   0  0  0  0  0  0  0  0  0  0  0  0
   39.9703   29.7280   40.5273 H   0  0  0  0  0  0  0  0  0  0  0  0
   39.2484   26.2225   41.9896 H   0  0  0  0  0  0  0  0  0  0  0  0
   39.3473   27.0760   40.8970 S   0  0  0  0  0  0  0  0  0  0  0  0
   40.5288   27.9671   41.0032 O   0  0  0  0  0  0  0  0  0  0  0  0
   39.5920   26.1636   39.7217 O   0  0  0  0  0  0  0  0  0  0  0  0
   37.8462   27.9079   40.6185 C   0  0  0  0  0  0  0  0  0  0  0  0
   37.4861   29.1072   41.2162 C   0  0  0  0  0  0  0  0  0  0  0  0
   36.2856   29.7347   40.9684 C   0  0  0  0  0  0  0  0  0  0  0  0
   36.1158   30.6620   41.4906 H   0  0  0  0  0  0  0  0  0  0  0  0
   35.3751   29.1835   40.0979 C   0  0  0  0  0  0  0  0  0  0  0  0
   34.4520   29.7204   39.9435 H   0  0  0  0  0  0  0  0  0  0  0  0
   35.7023   27.9920   39.4872 C   0  0  0  0  0  0  0  0  0  0  0  0
   36.9013   27.3688   39.7370 C   0  0  0  0  0  0  0  0  0  0  0  0
   34.9661   27.5778   38.8043 H   0  0  0  0  0  0  0  0  0  0  0  0
   37.1492   26.4188   39.2430 H   0  0  0  0  0  0  0  0  0  0  0  0
  2  1  2  0
  2  4  1  1
  3  2  1  0
  4  7  1  0
  5 10  2  0
  6  5  1  0
  7  8  1  0
  7  6  2  0
  8  9  2  0
  9 10  1  0
 11  2  1  0
 13 12  1  0
 13 14  2  0
 14 11  1  0
 15 14  1  0
 16 15  2  0
 17 18  2  0
 17 16  1  0
 18 13  1  0
  3 19  1  0
  5 20  1  0
  6 21  1  0
  9 22  1  0
 15 23  1  0
 16 24  1  0
 17 25  1  0
 26 27  1  0
 27 28  2  0
 27 29  2  0
 27 30  1  0
 30 31  2  0
 31 32  1  0
 32 33  1  0
 32 34  2  0
 34 35  1  0
 34 36  1  0
 36 37  2  0
 37 30  1  0
 36 38  1  0
 37 39  1  0
 18 31  1  0
M  ISO  8  19   3  20  14  21  14  22  14  23  14  24  14  25  14  26  12
M  ISO  2  33  15  35  16
M  END
>  <DihAtoms>  (1) 
16,17,30,29

>  <DihDeg>  (1) 
89.99931667444577

$$$$
