
     RDKit          3D

 43 46  0  0  0  0  0  0  0  0999 V2000
   38.4163   31.1193   48.2192 C   0  0  2  0  0  0  0  0  0  0  0  0
   38.6785   32.5611   48.0932 C   0  0  0  0  0  0  0  0  0  0  0  0
   38.0500   31.7143   46.9588 C   0  0  1  0  0  0  0  0  0  0  0  0
   35.0942   30.2240   49.5537 C   0  0  0  0  0  0  0  0  0  0  0  0
   35.4249   29.5417   50.7691 C   0  0  0  0  0  0  0  0  0  0  0  0
   36.8184   29.4181   51.0953 C   0  0  0  0  0  0  0  0  0  0  0  0
   37.7425   29.9426   50.2548 N   0  0  0  0  0  0  0  0  0  0  0  0
   37.3596   30.5790   49.1155 C   0  0  0  0  0  0  0  0  0  0  0  0
   36.0420   30.7371   48.7350 N   0  0  0  0  0  0  0  0  0  0  0  0
   38.4035   31.8421   44.5265 C   0  0  0  0  0  0  0  0  0  0  0  0
   37.2951   32.4355   44.3988 O   0  0  0  0  0  0  0  0  0  0  0  0
   38.9413   31.5417   45.8171 N   0  0  0  0  0  0  0  0  0  0  0  0
   39.1926   31.4331   43.3369 C   0  0  0  0  0  0  0  0  0  0  0  0
   40.1590   30.4784   43.4870 C   0  0  0  0  0  0  0  0  0  0  0  0
   40.8618   30.1248   42.3542 C   0  0  0  0  0  0  0  0  0  0  0  0
   40.5669   30.7296   41.1711 C   0  0  0  0  0  0  0  0  0  0  0  0
   39.5996   31.6934   41.0079 C   0  0  0  0  0  0  0  0  0  0  0  0
   38.9597   31.9843   42.1410 N   0  0  0  0  0  0  0  0  0  0  0  0
   39.3599   30.5174   48.3092 H   0  0  0  0  0  0  0  0  0  0  0  0
   39.6932   32.9442   47.9383 H   0  0  0  0  0  0  0  0  0  0  0  0
   37.9853   33.3061   48.5279 H   0  0  0  0  0  0  0  0  0  0  0  0
   36.9797   31.9556   46.7324 H   0  0  0  0  0  0  0  0  0  0  0  0
   34.0415   30.3089   49.3215 H   0  0  0  0  0  0  0  0  0  0  0  0
   34.6373   29.1475   51.3934 H   0  0  0  0  0  0  0  0  0  0  0  0
   37.0567   28.9076   52.0039 H   0  0  0  0  0  0  0  0  0  0  0  0
   39.9155   31.2118   45.9929 H   0  0  0  0  0  0  0  0  0  0  0  0
   40.3983   29.9943   44.4263 H   0  0  0  0  0  0  0  0  0  0  0  0
   41.6257   29.3780   42.4398 H   0  0  0  0  0  0  0  0  0  0  0  0
   41.1143   30.3837   40.3245 H   0  0  0  0  0  0  0  0  0  0  0  0
   38.0571   35.8777   40.6879 H   0  0  0  0  0  0  0  0  0  0  0  0
   38.9556   34.8108   40.9514 S   0  0  0  0  0  0  0  0  0  0  0  0
   38.4867   34.2990   42.2697 O   0  0  0  0  0  0  0  0  0  0  0  0
   40.2740   35.5061   41.0957 O   0  0  0  0  0  0  0  0  0  0  0  0
   38.8569   33.6977   39.6436 C   0  0  0  0  0  0  0  0  0  0  0  0
   39.1518   32.3717   39.8327 C   0  0  0  0  0  0  0  0  0  0  0  0
   38.9370   31.5922   38.6895 C   0  0  0  0  0  0  0  0  0  0  0  0
   39.1407   30.5101   38.7330 H   0  0  0  0  0  0  0  0  0  0  0  0
   38.4839   32.0397   37.4725 C   0  0  0  0  0  0  0  0  0  0  0  0
   38.3462   31.3773   36.6456 H   0  0  0  0  0  0  0  0  0  0  0  0
   38.2062   33.3782   37.3356 C   0  0  0  0  0  0  0  0  0  0  0  0
   38.4005   34.1830   38.4332 C   0  0  0  0  0  0  0  0  0  0  0  0
   37.8509   33.8040   36.4204 H   0  0  0  0  0  0  0  0  0  0  0  0
   38.1755   35.2470   38.3110 H   0  0  0  0  0  0  0  0  0  0  0  0
  1  8  1  0
  2  1  1  0
  3  2  1  0
  3  1  1  0
  4  5  2  0
  5  6  1  0
  7  6  2  0
  8  7  1  0
  9  8  2  0
  9  4  1  0
 10 12  1  0
 11 10  2  0
 12  3  1  0
 13 14  2  0
 13 10  1  0
 15 14  1  0
 16 15  2  0
 17 16  1  0
 17 18  2  0
 18 13  1  0
  1 19  1  6
  2 20  1  0
  2 21  1  0
  3 22  1  6
  4 23  1  0
  5 24  1  0
  6 25  1  0
 12 26  1  0
 14 27  1  0
 15 28  1  0
 16 29  1  0
 30 31  1  0
 31 32  2  0
 31 33  2  0
 31 34  1  0
 34 35  2  0
 35 36  1  0
 36 37  1  0
 36 38  2  0
 38 39  1  0
 38 40  1  0
 40 41  2  0
 41 34  1  0
 40 42  1  0
 41 43  1  0
 17 35  1  0
M  ISO  8  19  13  20  13  21  13  22  13  23  14  24  14  25  14  27  14
M  ISO  5  28  14  29  14  30  12  37  15  39  16
M  END
>  <DihAtoms>  (1) 
15,16,34,33

>  <DihDeg>  (1) 
-32.29959789520249

$$$$
