
 OpenBabel03262523563D

 41 43  0  0  1  0  0  0  0  0999 V2000
   38.3340   22.5900   36.1280 C   0  0  1  0  0  0  0  0  0  0  0  0
   39.7540   22.7970   36.3870 C   0  0  0  0  0  0  0  0  0  0  0  0
   39.9920   22.7640   37.8670 C   0  0  0  0  0  0  0  0  0  0  0  0
   38.9250   23.4790   38.5920 C   0  0  0  0  0  0  0  0  0  0  0  0
   38.1280   24.4390   37.8000 C   0  0  0  0  0  0  0  0  0  0  0  0
   37.5960   23.8790   36.4820 C   0  0  1  0  0  0  0  0  0  0  0  0
   37.9150   21.8250   36.8460 H   0  0  0  0  0  0  0  0  0  0  0  0
   40.3840   21.9830   35.9230 H   0  0  0  0  0  0  0  0  0  0  0  0
   40.1700   23.7350   35.9530 H   0  0  0  0  0  0  0  0  0  0  0  0
   40.9770   23.2830   38.0430 H   0  0  0  0  0  0  0  0  0  0  0  0
   40.1650   21.7250   38.2150 H   0  0  0  0  0  0  0  0  0  0  0  0
   39.3810   24.0390   39.4330 H   0  0  0  0  0  0  0  0  0  0  0  0
   38.2510   22.7370   39.0660 H   0  0  0  0  0  0  0  0  0  0  0  0
   38.6870   25.3960   37.6290 H   0  0  0  0  0  0  0  0  0  0  0  0
   37.2420   24.7370   38.3960 H   0  0  0  0  0  0  0  0  0  0  0  0
   36.5230   23.6020   36.6070 H   0  0  0  0  0  0  0  0  0  0  0  0
   36.5080   21.1050   33.2600 C   0  0  0  0  0  0  0  0  0  0  0  0
   36.8530   21.4270   34.6010 C   0  0  0  0  0  0  0  0  0  0  0  0
   37.9530   22.2650   34.7490 C   0  0  0  0  0  0  0  0  0  0  0  0
   38.6320   22.7280   33.6400 N   0  0  0  0  0  0  0  0  0  0  0  0
   38.2690   22.3960   32.3970 C   0  0  0  0  0  0  0  0  0  0  0  0
   37.2070   21.5840   32.1920 N   0  0  0  0  0  0  0  0  0  0  0  0
   35.6380   20.4390   33.1710 H   0  0  0  0  0  0  0  0  0  0  0  0
   36.2830   21.0340   35.4290 H   0  0  0  0  0  0  0  0  0  0  0  0
   38.7800   22.7400   31.5120 H   0  0  0  0  0  0  0  0  0  0  0  0
   38.0260   26.2590   35.4260 C   0  0  0  0  0  0  0  0  0  0  0  0
   38.3930   26.6510   36.5560 O   0  0  0  0  0  0  0  0  0  0  0  0
   37.6650   24.8850   35.4550 N   0  0  0  0  0  0  0  0  0  0  0  0
   37.3540   24.3650   34.5760 H   0  0  0  0  0  0  0  0  0  0  0  0
   39.0270   26.7810   33.3400 C   0  0  0  0  0  0  0  0  0  0  0  0
   37.8990   26.8940   34.1490 C   0  0  0  0  0  0  0  0  0  0  0  0
   36.7690   27.5620   33.7220 C   0  0  0  0  0  0  0  0  0  0  0  0
   35.9150   27.6320   34.3790 H   0  0  0  0  0  0  0  0  0  0  0  0
   36.8020   28.1170   32.4480 C   0  0  0  0  0  0  0  0  0  0  0  0
   35.9340   28.6340   32.1070 H   0  0  0  0  0  0  0  0  0  0  0  0
   37.8850   28.0270   31.6290 C   0  0  0  0  0  3  0  0  0  0  0  0
   39.0130   27.3550   32.0660 C   0  0  0  0  0  3  0  0  0  0  0  0
   40.2130   25.0910   34.8480 H   0  0  0  0  0  0  0  0  0  0  0  0
   40.4790   25.9560   33.8260 S   0  0  0  0  0  0  0  0  0  0  0  0
   41.5390   26.9080   34.3340 O   0  0  0  0  0  0  0  0  0  0  0  0
   40.9680   25.1390   32.6700 O   0  0  0  0  0  0  0  0  0  0  0  0
  1  2  1  0  0  0  0
  1  6  1  0  0  0  0
  1  7  1  1  0  0  0
  2  3  1  0  0  0  0
  3 10  1  0  0  0  0
  3 11  1  0  0  0  0
  3  4  1  0  0  0  0
  4 13  1  0  0  0  0
  4 12  1  0  0  0  0
  5 15  1  0  0  0  0
  5  4  1  0  0  0  0
  6 16  1  1  0  0  0
  6  5  1  0  0  0  0
  8  2  1  0  0  0  0
  9  2  1  0  0  0  0
 14  5  1  0  0  0  0
 17 18  1  0  0  0  0
 18 19  2  0  0  0  0
 18 24  1  0  0  0  0
 19  1  1  0  0  0  0
 20 19  1  0  0  0  0
 21 20  2  0  0  0  0
 22 21  1  0  0  0  0
 22 17  2  0  0  0  0
 23 17  1  0  0  0  0
 25 21  1  0  0  0  0
 26 28  1  0  0  0  0
 26 27  2  0  0  0  0
 28  6  1  0  0  0  0
 29 28  1  0  0  0  0
 30 39  1  0  0  0  0
 30 31  1  0  0  0  0
 31 26  1  0  0  0  0
 32 31  2  0  0  0  0
 32 33  1  0  0  0  0
 34 32  1  0  0  0  0
 35 34  1  0  0  0  0
 36 37  1  0  0  0  0
 36 34  2  0  0  0  0
 37 30  2  0  0  0  0
 39 40  2  0  0  0  0
 39 38  1  0  0  0  0
 41 39  2  0  0  0  0
M  END
>  <minimizedAffinity>
-5.55704641

$$$$

 OpenBabel03262523563D

 41 43  0  0  1  0  0  0  0  0999 V2000
   37.3590   21.3820   33.1630 C   0  0  1  0  0  0  0  0  0  0  0  0
   36.0230   21.1800   33.7130 C   0  0  0  0  0  0  0  0  0  0  0  0
   35.1800   20.4640   32.7010 C   0  0  0  0  0  0  0  0  0  0  0  0
   35.4260   20.9830   31.3420 C   0  0  0  0  0  0  0  0  0  0  0  0
   36.0400   22.3240   31.2570 C   0  0  0  0  0  0  0  0  0  0  0  0
   37.2800   22.5040   32.1310 C   0  0  1  0  0  0  0  0  0  0  0  0
   37.6740   20.4770   32.5650 H   0  0  0  0  0  0  0  0  0  0  0  0
   36.0500   20.5440   34.6450 H   0  0  0  0  0  0  0  0  0  0  0  0
   35.5140   22.1150   34.0420 H   0  0  0  0  0  0  0  0  0  0  0  0
   34.1060   20.6560   32.9870 H   0  0  0  0  0  0  0  0  0  0  0  0
   35.2960   19.3650   32.7990 H   0  0  0  0  0  0  0  0  0  0  0  0
   34.4610   21.0240   30.7980 H   0  0  0  0  0  0  0  0  0  0  0  0
   36.0450   20.2530   30.7840 H   0  0  0  0  0  0  0  0  0  0  0  0
   35.2910   23.1340   31.4580 H   0  0  0  0  0  0  0  0  0  0  0  0
   36.3630   22.4970   30.2110 H   0  0  0  0  0  0  0  0  0  0  0  0
   38.1930   22.4110   31.4960 H   0  0  0  0  0  0  0  0  0  0  0  0
   39.0250   22.4220   36.3100 C   0  0  0  0  0  0  0  0  0  0  0  0
   37.9970   22.0300   35.4100 C   0  0  0  0  0  0  0  0  0  0  0  0
   38.4120   21.7670   34.1080 C   0  0  0  0  0  0  0  0  0  0  0  0
   39.7410   21.8920   33.7610 N   0  0  0  0  0  0  0  0  0  0  0  0
   40.6730   22.2650   34.6450 C   0  0  0  0  0  0  0  0  0  0  0  0
   40.3280   22.5340   35.9250 N   0  0  0  0  0  0  0  0  0  0  0  0
   38.6700   22.6260   37.3300 H   0  0  0  0  0  0  0  0  0  0  0  0
   36.9720   21.9500   35.7400 H   0  0  0  0  0  0  0  0  0  0  0  0
   41.7180   22.3730   34.4040 H   0  0  0  0  0  0  0  0  0  0  0  0
   38.1800   24.9280   32.6550 C   0  0  0  0  0  0  0  0  0  0  0  0
   39.1530   24.6870   31.9050 O   0  0  0  0  0  0  0  0  0  0  0  0
   37.2900   23.8220   32.7080 N   0  0  0  0  0  0  0  0  0  0  0  0
   36.3850   23.8530   33.2740 H   0  0  0  0  0  0  0  0  0  0  0  0
   36.9870   26.9750   32.7770 C   0  0  0  0  0  0  0  0  0  0  0  0
   37.7950   26.0580   33.4460 C   0  0  0  0  0  0  0  0  0  0  0  0
   38.1660   26.2480   34.7610 C   0  0  0  0  0  0  0  0  0  0  0  0
   38.7970   25.5170   35.2460 H   0  0  0  0  0  0  0  0  0  0  0  0
   37.6990   27.3950   35.3940 C   0  0  0  0  0  0  0  0  0  0  0  0
   37.9790   27.5520   36.4110 H   0  0  0  0  0  0  0  0  0  0  0  0
   36.9090   28.3120   34.7750 C   0  0  0  0  0  3  0  0  0  0  0  0
   36.5410   28.1120   33.4550 C   0  0  0  0  0  3  0  0  0  0  0  0
   37.4570   26.1410   30.4060 H   0  0  0  0  0  0  0  0  0  0  0  0
   36.4910   26.7890   31.1210 S   0  0  0  0  0  0  0  0  0  0  0  0
   36.2680   28.1190   30.4340 O   0  0  0  0  0  0  0  0  0  0  0  0
   35.2650   25.9300   31.0880 O   0  0  0  0  0  0  0  0  0  0  0  0
  1  7  1  6  0  0  0
  1  2  1  0  0  0  0
  1 19  1  0  0  0  0
  2  9  1  0  0  0  0
  2  8  1  0  0  0  0
  3 11  1  0  0  0  0
  3 10  1  0  0  0  0
  3  2  1  0  0  0  0
  4  3  1  0  0  0  0
  5  4  1  0  0  0  0
  5 14  1  0  0  0  0
  5  6  1  0  0  0  0
  6 16  1  6  0  0  0
  6 28  1  0  0  0  0
  6  1  1  0  0  0  0
 12  4  1  0  0  0  0
 13  4  1  0  0  0  0
 15  5  1  0  0  0  0
 17 23  1  0  0  0  0
 18 24  1  0  0  0  0
 18 17  2  0  0  0  0
 19 18  1  0  0  0  0
 20 19  2  0  0  0  0
 20 21  1  0  0  0  0
 21 22  2  0  0  0  0
 22 17  1  0  0  0  0
 25 21  1  0  0  0  0
 26 28  1  0  0  0  0
 26 31  1  0  0  0  0
 27 26  2  0  0  0  0
 28 29  1  0  0  0  0
 30 31  2  0  0  0  0
 30 37  1  0  0  0  0
 31 32  1  0  0  0  0
 32 33  1  0  0  0  0
 32 34  2  0  0  0  0
 34 35  1  0  0  0  0
 36 34  1  0  0  0  0
 37 36  2  0  0  0  0
 38 39  1  0  0  0  0
 39 30  1  0  0  0  0
 40 39  2  0  0  0  0
 41 39  2  0  0  0  0
M  END
>  <minimizedAffinity>
-5.47009945

$$$$

 OpenBabel03262523563D

 41 43  0  0  1  0  0  0  0  0999 V2000
   35.8630   21.8180   31.6460 C   0  0  1  0  0  0  0  0  0  0  0  0
   36.5460   20.7590   30.9120 C   0  0  0  0  0  0  0  0  0  0  0  0
   35.7640   19.4870   31.0450 C   0  0  0  0  0  0  0  0  0  0  0  0
   35.2540   19.3200   32.4190 C   0  0  0  0  0  0  0  0  0  0  0  0
   35.9350   20.1050   33.4690 C   0  0  0  0  0  0  0  0  0  0  0  0
   36.1010   21.5880   33.1370 C   0  0  1  0  0  0  0  0  0  0  0  0
   34.7450   21.7170   31.5250 H   0  0  0  0  0  0  0  0  0  0  0  0
   36.6210   20.9990   29.8110 H   0  0  0  0  0  0  0  0  0  0  0  0
   37.6040   20.5930   31.2210 H   0  0  0  0  0  0  0  0  0  0  0  0
   36.4770   18.6480   30.8050 H   0  0  0  0  0  0  0  0  0  0  0  0
   34.9860   19.4190   30.2570 H   0  0  0  0  0  0  0  0  0  0  0  0
   35.3340   18.2500   32.7000 H   0  0  0  0  0  0  0  0  0  0  0  0
   34.1690   19.5440   32.4310 H   0  0  0  0  0  0  0  0  0  0  0  0
   36.9190   19.6490   33.7520 H   0  0  0  0  0  0  0  0  0  0  0  0
   35.3280   20.0550   34.3950 H   0  0  0  0  0  0  0  0  0  0  0  0
   35.3170   22.1740   33.6740 H   0  0  0  0  0  0  0  0  0  0  0  0
   35.7130   25.4880   31.1240 C   0  0  0  0  0  0  0  0  0  0  0  0
   35.2890   24.1610   31.4110 C   0  0  0  0  0  0  0  0  0  0  0  0
   36.2890   23.1950   31.3720 C   0  0  0  0  0  0  0  0  0  0  0  0
   37.5880   23.5460   31.0690 N   0  0  0  0  0  0  0  0  0  0  0  0
   37.9380   24.8100   30.8040 C   0  0  0  0  0  0  0  0  0  0  0  0
   37.0080   25.7920   30.8280 N   0  0  0  0  0  0  0  0  0  0  0  0
   34.9040   26.2310   31.1590 H   0  0  0  0  0  0  0  0  0  0  0  0
   34.2570   23.9480   31.6420 H   0  0  0  0  0  0  0  0  0  0  0  0
   38.9430   25.1150   30.5630 H   0  0  0  0  0  0  0  0  0  0  0  0
   37.9640   22.2680   34.8760 C   0  0  0  0  0  0  0  0  0  0  0  0
   37.1790   21.9330   35.7910 O   0  0  0  0  0  0  0  0  0  0  0  0
   37.3810   22.0570   33.5980 N   0  0  0  0  0  0  0  0  0  0  0  0
   37.9130   22.2560   32.6950 H   0  0  0  0  0  0  0  0  0  0  0  0
   39.3630   24.1680   35.1290 C   0  0  0  0  0  0  0  0  0  0  0  0
   39.2930   22.8040   34.8570 C   0  0  0  0  0  0  0  0  0  0  0  0
   40.4260   22.0590   34.6030 C   0  0  0  0  0  0  0  0  0  0  0  0
   40.3320   21.0040   34.3930 H   0  0  0  0  0  0  0  0  0  0  0  0
   41.6450   22.7270   34.6310 C   0  0  0  0  0  0  0  0  0  0  0  0
   42.5280   22.1610   34.4380 H   0  0  0  0  0  0  0  0  0  0  0  0
   41.7540   24.0580   34.8940 C   0  0  0  0  0  3  0  0  0  0  0  0
   40.6110   24.7960   35.1470 C   0  0  0  0  0  3  0  0  0  0  0  0
   36.9700   24.4030   36.0000 H   0  0  0  0  0  0  0  0  0  0  0  0
   37.9690   25.1560   35.4520 S   0  0  0  0  0  0  0  0  0  0  0  0
   37.3990   25.7750   34.1950 O   0  0  0  0  0  0  0  0  0  0  0  0
   38.3480   26.1930   36.4640 O   0  0  0  0  0  0  0  0  0  0  0  0
  1  7  1  6  0  0  0
  1  6  1  0  0  0  0
  2  3  1  0  0  0  0
  2  9  1  0  0  0  0
  2  1  1  0  0  0  0
  3  4  1  0  0  0  0
  4 13  1  0  0  0  0
  4 12  1  0  0  0  0
  4  5  1  0  0  0  0
  5 14  1  0  0  0  0
  5 15  1  0  0  0  0
  6  5  1  0  0  0  0
  6 28  1  0  0  0  0
  6 16  1  1  0  0  0
  8  2  1  0  0  0  0
 10  3  1  0  0  0  0
 11  3  1  0  0  0  0
 17 23  1  0  0  0  0
 17 18  1  0  0  0  0
 18 24  1  0  0  0  0
 19 18  2  0  0  0  0
 19  1  1  0  0  0  0
 20 19  1  0  0  0  0
 21 22  1  0  0  0  0
 21 20  2  0  0  0  0
 22 17  2  0  0  0  0
 25 21  1  0  0  0  0
 26 27  2  0  0  0  0
 28 26  1  0  0  0  0
 29 28  1  0  0  0  0
 30 37  1  0  0  0  0
 30 39  1  0  0  0  0
 31 26  1  0  0  0  0
 31 30  2  0  0  0  0
 32 34  2  0  0  0  0
 32 31  1  0  0  0  0
 33 32  1  0  0  0  0
 34 36  1  0  0  0  0
 35 34  1  0  0  0  0
 36 37  2  0  0  0  0
 39 38  1  0  0  0  0
 39 41  2  0  0  0  0
 40 39  2  0  0  0  0
M  END
>  <minimizedAffinity>
-5.35208988

$$$$

 OpenBabel03262523563D

 41 43  0  0  1  0  0  0  0  0999 V2000
   36.9330   24.0030   31.2820 C   0  0  1  0  0  0  0  0  0  0  0  0
   35.5130   24.0710   31.6050 C   0  0  0  0  0  0  0  0  0  0  0  0
   34.9020   25.2370   30.8880 C   0  0  0  0  0  0  0  0  0  0  0  0
   35.7980   26.4100   30.9240 C   0  0  0  0  0  0  0  0  0  0  0  0
   36.8370   26.4050   31.9740 C   0  0  0  0  0  0  0  0  0  0  0  0
   37.6470   25.1110   32.0520 C   0  0  1  0  0  0  0  0  0  0  0  0
   37.0980   24.2690   30.1960 H   0  0  0  0  0  0  0  0  0  0  0  0
   34.9660   23.1420   31.2700 H   0  0  0  0  0  0  0  0  0  0  0  0
   35.2910   24.1320   32.6950 H   0  0  0  0  0  0  0  0  0  0  0  0
   33.9450   25.4800   31.4320 H   0  0  0  0  0  0  0  0  0  0  0  0
   34.5720   24.9450   29.8700 H   0  0  0  0  0  0  0  0  0  0  0  0
   35.1830   27.3210   31.0680 H   0  0  0  0  0  0  0  0  0  0  0  0
   36.2720   26.5310   29.9300 H   0  0  0  0  0  0  0  0  0  0  0  0
   36.4110   26.6690   32.9770 H   0  0  0  0  0  0  0  0  0  0  0  0
   37.5600   27.2170   31.7560 H   0  0  0  0  0  0  0  0  0  0  0  0
   38.6290   25.2620   31.5460 H   0  0  0  0  0  0  0  0  0  0  0  0
   37.5090   20.4920   32.3340 C   0  0  0  0  0  0  0  0  0  0  0  0
   36.8200   21.6880   31.9910 C   0  0  0  0  0  0  0  0  0  0  0  0
   37.6300   22.7560   31.6190 C   0  0  0  0  0  0  0  0  0  0  0  0
   39.0020   22.6190   31.5990 N   0  0  0  0  0  0  0  0  0  0  0  0
   39.6050   21.4720   31.9310 C   0  0  0  0  0  0  0  0  0  0  0  0
   38.8690   20.3990   32.3020 N   0  0  0  0  0  0  0  0  0  0  0  0
   36.8480   19.6650   32.6270 H   0  0  0  0  0  0  0  0  0  0  0  0
   35.7430   21.7350   32.0260 H   0  0  0  0  0  0  0  0  0  0  0  0
   40.6740   21.3350   31.9270 H   0  0  0  0  0  0  0  0  0  0  0  0
   38.9290   25.1340   34.3570 C   0  0  0  0  0  0  0  0  0  0  0  0
   39.7410   25.9430   33.8540 O   0  0  0  0  0  0  0  0  0  0  0  0
   37.9160   24.7800   33.4260 N   0  0  0  0  0  0  0  0  0  0  0  0
   37.1160   24.1220   33.6850 H   0  0  0  0  0  0  0  0  0  0  0  0
   39.8390   23.6130   35.9340 C   0  0  0  0  0  0  0  0  0  0  0  0
   38.8170   24.5130   35.6430 C   0  0  0  0  0  0  0  0  0  0  0  0
   37.8030   24.7680   36.5430 C   0  0  0  0  0  0  0  0  0  0  0  0
   37.0250   25.4710   36.2800 H   0  0  0  0  0  0  0  0  0  0  0  0
   37.8430   24.0900   37.7550 C   0  0  0  0  0  0  0  0  0  0  0  0
   37.0640   24.2800   38.4590 H   0  0  0  0  0  0  0  0  0  0  0  0
   38.8250   23.2040   38.0750 C   0  0  0  0  0  3  0  0  0  0  0  0
   39.8380   22.9550   37.1660 C   0  0  0  0  0  3  0  0  0  0  0  0
   40.7660   23.5170   33.5520 H   0  0  0  0  0  0  0  0  0  0  0  0
   41.1400   23.2490   34.8380 S   0  0  0  0  0  0  0  0  0  0  0  0
   41.5320   21.7880   34.8750 O   0  0  0  0  0  0  0  0  0  0  0  0
   42.2940   24.1470   35.1590 O   0  0  0  0  0  0  0  0  0  0  0  0
  1  7  1  6  0  0  0
  1  2  1  0  0  0  0
  1 19  1  0  0  0  0
  1  6  1  0  0  0  0
  2  9  1  0  0  0  0
  3  4  1  0  0  0  0
  3 10  1  0  0  0  0
  3  2  1  0  0  0  0
  4 12  1  0  0  0  0
  4  5  1  0  0  0  0
  5  6  1  0  0  0  0
  5 14  1  0  0  0  0
  6 16  1  6  0  0  0
  6 28  1  0  0  0  0
  8  2  1  0  0  0  0
 11  3  1  0  0  0  0
 13  4  1  0  0  0  0
 15  5  1  0  0  0  0
 17 23  1  0  0  0  0
 18 24  1  0  0  0  0
 18 17  2  0  0  0  0
 19 18  1  0  0  0  0
 20 19  2  0  0  0  0
 20 21  1  0  0  0  0
 21 22  2  0  0  0  0
 22 17  1  0  0  0  0
 25 21  1  0  0  0  0
 26 31  1  0  0  0  0
 27 26  2  0  0  0  0
 28 29  1  0  0  0  0
 28 26  1  0  0  0  0
 30 37  1  0  0  0  0
 31 30  2  0  0  0  0
 31 32  1  0  0  0  0
 32 34  2  0  0  0  0
 33 32  1  0  0  0  0
 34 36  1  0  0  0  0
 34 35  1  0  0  0  0
 37 36  2  0  0  0  0
 38 39  1  0  0  0  0
 39 40  2  0  0  0  0
 39 41  2  0  0  0  0
 39 30  1  0  0  0  0
M  END
>  <minimizedAffinity>
-5.31108809

$$$$

 OpenBabel03262523563D

 41 43  0  0  1  0  0  0  0  0999 V2000
   38.5640   25.7760   33.8350 C   0  0  1  0  0  0  0  0  0  0  0  0
   39.7750   25.6580   33.0300 C   0  0  0  0  0  0  0  0  0  0  0  0
   39.9850   26.9330   32.2710 C   0  0  0  0  0  0  0  0  0  0  0  0
   38.7090   27.4530   31.7420 C   0  0  0  0  0  0  0  0  0  0  0  0
   37.6030   26.4790   31.6340 C   0  0  0  0  0  0  0  0  0  0  0  0
   37.3620   25.6580   32.9000 C   0  0  1  0  0  0  0  0  0  0  0  0
   38.4810   26.8180   34.2620 H   0  0  0  0  0  0  0  0  0  0  0  0
   40.6870   25.4910   33.6740 H   0  0  0  0  0  0  0  0  0  0  0  0
   39.7800   24.7910   32.3310 H   0  0  0  0  0  0  0  0  0  0  0  0
   40.6730   26.6850   31.4130 H   0  0  0  0  0  0  0  0  0  0  0  0
   40.5590   27.6630   32.8780 H   0  0  0  0  0  0  0  0  0  0  0  0
   38.8880   27.8670   30.7300 H   0  0  0  0  0  0  0  0  0  0  0  0
   38.3880   28.3160   32.3590 H   0  0  0  0  0  0  0  0  0  0  0  0
   37.7280   25.8100   30.7440 H   0  0  0  0  0  0  0  0  0  0  0  0
   36.6640   27.0340   31.4350 H   0  0  0  0  0  0  0  0  0  0  0  0
   36.4920   26.0830   33.4530 H   0  0  0  0  0  0  0  0  0  0  0  0
   37.6410   24.2510   37.0880 C   0  0  0  0  0  0  0  0  0  0  0  0
   37.8080   25.2320   36.0730 C   0  0  0  0  0  0  0  0  0  0  0  0
   38.3670   24.7710   34.8850 C   0  0  0  0  0  0  0  0  0  0  0  0
   38.7190   23.4450   34.7480 N   0  0  0  0  0  0  0  0  0  0  0  0
   38.5430   22.5580   35.7340 C   0  0  0  0  0  0  0  0  0  0  0  0
   38.0040   22.9490   36.9120 N   0  0  0  0  0  0  0  0  0  0  0  0
   37.2010   24.6420   38.0160 H   0  0  0  0  0  0  0  0  0  0  0  0
   37.5130   26.2570   36.2390 H   0  0  0  0  0  0  0  0  0  0  0  0
   38.8090   21.5160   35.6580 H   0  0  0  0  0  0  0  0  0  0  0  0
   36.1440   23.6980   31.6220 C   0  0  0  0  0  0  0  0  0  0  0  0
   35.5500   24.5640   30.9400 O   0  0  0  0  0  0  0  0  0  0  0  0
   37.0310   24.3010   32.5530 N   0  0  0  0  0  0  0  0  0  0  0  0
   37.6480   23.7200   33.2020 H   0  0  0  0  0  0  0  0  0  0  0  0
   37.2180   21.6570   31.0670 C   0  0  0  0  0  0  0  0  0  0  0  0
   36.1110   22.2670   31.6520 C   0  0  0  0  0  0  0  0  0  0  0  0
   35.0910   21.5250   32.2120 C   0  0  0  0  0  0  0  0  0  0  0  0
   34.2460   22.0330   32.6540 H   0  0  0  0  0  0  0  0  0  0  0  0
   35.2140   20.1410   32.1700 C   0  0  0  0  0  0  0  0  0  0  0  0
   34.4320   19.5580   32.6010 H   0  0  0  0  0  0  0  0  0  0  0  0
   36.2800   19.5100   31.6070 C   0  0  0  0  0  3  0  0  0  0  0  0
   37.2980   20.2620   31.0480 C   0  0  0  0  0  3  0  0  0  0  0  0
   38.0910   23.7470   29.8800 H   0  0  0  0  0  0  0  0  0  0  0  0
   38.5300   22.5400   30.3420 S   0  0  0  0  0  0  0  0  0  0  0  0
   39.1250   21.8150   29.1550 O   0  0  0  0  0  0  0  0  0  0  0  0
   39.5540   22.8170   31.4000 O   0  0  0  0  0  0  0  0  0  0  0  0
  1  7  1  1  0  0  0
  1 19  1  0  0  0  0
  2  8  1  0  0  0  0
  2  1  1  0  0  0  0
  3 11  1  0  0  0  0
  3  2  1  0  0  0  0
  4  3  1  0  0  0  0
  4 13  1  0  0  0  0
  5  4  1  0  0  0  0
  5  6  1  0  0  0  0
  6 16  1  1  0  0  0
  6  1  1  0  0  0  0
  9  2  1  0  0  0  0
 10  3  1  0  0  0  0
 12  4  1  0  0  0  0
 14  5  1  0  0  0  0
 15  5  1  0  0  0  0
 17 23  1  0  0  0  0
 18 24  1  0  0  0  0
 18 17  2  0  0  0  0
 19 18  1  0  0  0  0
 20 19  2  0  0  0  0
 20 21  1  0  0  0  0
 21 22  2  0  0  0  0
 22 17  1  0  0  0  0
 25 21  1  0  0  0  0
 26 31  1  0  0  0  0
 26 28  1  0  0  0  0
 27 26  2  0  0  0  0
 28  6  1  0  0  0  0
 28 29  1  0  0  0  0
 30 31  1  0  0  0  0
 31 32  2  0  0  0  0
 32 33  1  0  0  0  0
 34 32  1  0  0  0  0
 34 35  1  0  0  0  0
 36 34  2  0  0  0  0
 37 30  2  0  0  0  0
 37 36  1  0  0  0  0
 38 39  1  0  0  0  0
 39 30  1  0  0  0  0
 39 41  2  0  0  0  0
 40 39  2  0  0  0  0
M  END
>  <minimizedAffinity>
-5.2856245

$$$$

 OpenBabel03262523563D

 41 43  0  0  1  0  0  0  0  0999 V2000
   38.7690   24.9410   36.3860 C   0  0  1  0  0  0  0  0  0  0  0  0
   37.6500   24.9130   37.3210 C   0  0  0  0  0  0  0  0  0  0  0  0
   38.1490   24.4930   38.6700 C   0  0  0  0  0  0  0  0  0  0  0  0
   39.1340   23.4000   38.5550 C   0  0  0  0  0  0  0  0  0  0  0  0
   39.1150   22.6340   37.2920 C   0  0  0  0  0  0  0  0  0  0  0  0
   39.1250   23.4990   36.0320 C   0  0  1  0  0  0  0  0  0  0  0  0
   39.6950   25.3360   36.8990 H   0  0  0  0  0  0  0  0  0  0  0  0
   37.1790   25.9330   37.4350 H   0  0  0  0  0  0  0  0  0  0  0  0
   36.8020   24.2620   37.0050 H   0  0  0  0  0  0  0  0  0  0  0  0
   37.2490   24.1270   39.2430 H   0  0  0  0  0  0  0  0  0  0  0  0
   38.5040   25.3700   39.2500 H   0  0  0  0  0  0  0  0  0  0  0  0
   38.9660   22.6820   39.3820 H   0  0  0  0  0  0  0  0  0  0  0  0
   40.1490   23.8110   38.7270 H   0  0  0  0  0  0  0  0  0  0  0  0
   38.2650   21.9040   37.2660 H   0  0  0  0  0  0  0  0  0  0  0  0
   40.0250   22.0030   37.2490 H   0  0  0  0  0  0  0  0  0  0  0  0
   40.1580   23.5240   35.6130 H   0  0  0  0  0  0  0  0  0  0  0  0
   39.4340   26.9340   33.3290 C   0  0  0  0  0  0  0  0  0  0  0  0
   39.6660   26.2500   34.5530 C   0  0  0  0  0  0  0  0  0  0  0  0
   38.5500   25.6340   35.1110 C   0  0  0  0  0  0  0  0  0  0  0  0
   37.3240   25.7080   34.4840 N   0  0  0  0  0  0  0  0  0  0  0  0
   37.1560   26.3650   33.3310 C   0  0  0  0  0  0  0  0  0  0  0  0
   38.2050   26.9840   32.7420 N   0  0  0  0  0  0  0  0  0  0  0  0
   40.3300   27.4150   32.9110 H   0  0  0  0  0  0  0  0  0  0  0  0
   40.6490   26.2270   34.9970 H   0  0  0  0  0  0  0  0  0  0  0  0
   36.2110   26.4420   32.8180 H   0  0  0  0  0  0  0  0  0  0  0  0
   38.4670   22.0360   33.9370 C   0  0  0  0  0  0  0  0  0  0  0  0
   39.6600   21.6630   33.8710 O   0  0  0  0  0  0  0  0  0  0  0  0
   38.2680   22.9210   35.0300 N   0  0  0  0  0  0  0  0  0  0  0  0
   37.3060   23.3200   35.2650 H   0  0  0  0  0  0  0  0  0  0  0  0
   37.2800   22.3770   31.9120 C   0  0  0  0  0  0  0  0  0  0  0  0
   37.2970   21.7570   33.1590 C   0  0  0  0  0  0  0  0  0  0  0  0
   36.2630   20.9440   33.5750 C   0  0  0  0  0  0  0  0  0  0  0  0
   36.3100   20.4830   34.5510 H   0  0  0  0  0  0  0  0  0  0  0  0
   35.2010   20.7660   32.6960 C   0  0  0  0  0  0  0  0  0  0  0  0
   34.3970   20.1380   33.0070 H   0  0  0  0  0  0  0  0  0  0  0  0
   35.1490   21.3540   31.4700 C   0  0  0  0  0  3  0  0  0  0  0  0
   36.1910   22.1680   31.0620 C   0  0  0  0  0  3  0  0  0  0  0  0
   39.1640   24.0390   32.3850 H   0  0  0  0  0  0  0  0  0  0  0  0
   38.5520   23.4150   31.3370 S   0  0  0  0  0  0  0  0  0  0  0  0
   38.0350   24.5080   30.4280 O   0  0  0  0  0  0  0  0  0  0  0  0
   39.5850   22.5660   30.6610 O   0  0  0  0  0  0  0  0  0  0  0  0
  1  7  1  1  0  0  0
  1  2  1  0  0  0  0
  2  8  1  0  0  0  0
  2  3  1  0  0  0  0
  3 10  1  0  0  0  0
  3 11  1  0  0  0  0
  4  3  1  0  0  0  0
  4 13  1  0  0  0  0
  4 12  1  0  0  0  0
  5  4  1  0  0  0  0
  6 16  1  6  0  0  0
  6  1  1  0  0  0  0
  6  5  1  0  0  0  0
  9  2  1  0  0  0  0
 14  5  1  0  0  0  0
 15  5  1  0  0  0  0
 17 18  1  0  0  0  0
 18 24  1  0  0  0  0
 18 19  2  0  0  0  0
 19  1  1  0  0  0  0
 20 19  1  0  0  0  0
 21 20  2  0  0  0  0
 22 17  2  0  0  0  0
 22 21  1  0  0  0  0
 23 17  1  0  0  0  0
 25 21  1  0  0  0  0
 26 28  1  0  0  0  0
 27 26  2  0  0  0  0
 28 29  1  0  0  0  0
 28  6  1  0  0  0  0
 30 31  1  0  0  0  0
 31 32  2  0  0  0  0
 31 26  1  0  0  0  0
 32 33  1  0  0  0  0
 34 35  1  0  0  0  0
 34 32  1  0  0  0  0
 36 34  2  0  0  0  0
 37 36  1  0  0  0  0
 37 30  2  0  0  0  0
 39 30  1  0  0  0  0
 39 38  1  0  0  0  0
 40 39  2  0  0  0  0
 41 39  2  0  0  0  0
M  END
>  <minimizedAffinity>
-5.28095245

$$$$

 OpenBabel03262523563D

 41 43  0  0  1  0  0  0  0  0999 V2000
   37.8320   24.8920   32.0820 C   0  0  1  0  0  0  0  0  0  0  0  0
   37.0230   25.7150   32.9740 C   0  0  0  0  0  0  0  0  0  0  0  0
   37.0450   27.1330   32.4860 C   0  0  0  0  0  0  0  0  0  0  0  0
   38.3960   27.5170   32.0330 C   0  0  0  0  0  0  0  0  0  0  0  0
   39.5120   26.6900   32.5340 C   0  0  0  0  0  0  0  0  0  0  0  0
   39.3020   25.1850   32.3730 C   0  0  1  0  0  0  0  0  0  0  0  0
   37.6900   25.2230   31.0120 H   0  0  0  0  0  0  0  0  0  0  0  0
   35.9460   25.3770   32.9880 H   0  0  0  0  0  0  0  0  0  0  0  0
   37.3290   25.6740   34.0440 H   0  0  0  0  0  0  0  0  0  0  0  0
   36.7470   27.7760   33.3620 H   0  0  0  0  0  0  0  0  0  0  0  0
   36.2450   27.3040   31.7370 H   0  0  0  0  0  0  0  0  0  0  0  0
   38.5900   28.5630   32.3440 H   0  0  0  0  0  0  0  0  0  0  0  0
   38.4130   27.5340   30.9250 H   0  0  0  0  0  0  0  0  0  0  0  0
   39.7700   26.9440   33.5950 H   0  0  0  0  0  0  0  0  0  0  0  0
   40.4250   26.9440   31.9580 H   0  0  0  0  0  0  0  0  0  0  0  0
   39.8750   24.8270   31.4850 H   0  0  0  0  0  0  0  0  0  0  0  0
   37.6180   21.3100   31.1400 C   0  0  0  0  0  0  0  0  0  0  0  0
   37.7940   22.7150   31.0160 C   0  0  0  0  0  0  0  0  0  0  0  0
   37.6730   23.4380   32.1990 C   0  0  0  0  0  0  0  0  0  0  0  0
   37.4000   22.7920   33.3860 N   0  0  0  0  0  0  0  0  0  0  0  0
   37.2410   21.4660   33.4530 C   0  0  0  0  0  0  0  0  0  0  0  0
   37.3480   20.7110   32.3350 N   0  0  0  0  0  0  0  0  0  0  0  0
   37.7160   20.7630   30.1920 H   0  0  0  0  0  0  0  0  0  0  0  0
   38.0060   23.1640   30.0580 H   0  0  0  0  0  0  0  0  0  0  0  0
   37.0260   20.9340   34.3650 H   0  0  0  0  0  0  0  0  0  0  0  0
   40.0250   24.8330   34.8860 C   0  0  0  0  0  0  0  0  0  0  0  0
   39.6420   26.0020   35.1190 O   0  0  0  0  0  0  0  0  0  0  0  0
   39.8140   24.4890   33.5240 N   0  0  0  0  0  0  0  0  0  0  0  0
   40.0510   23.5190   33.1440 H   0  0  0  0  0  0  0  0  0  0  0  0
   39.7620   23.2770   36.6570 C   0  0  0  0  0  0  0  0  0  0  0  0
   40.6140   23.8040   35.6900 C   0  0  0  0  0  0  0  0  0  0  0  0
   41.9060   23.3450   35.5380 C   0  0  0  0  0  0  0  0  0  0  0  0
   42.5380   23.7810   34.7780 H   0  0  0  0  0  0  0  0  0  0  0  0
   42.3250   22.3320   36.3930 C   0  0  0  0  0  0  0  0  0  0  0  0
   43.3220   21.9690   36.2840 H   0  0  0  0  0  0  0  0  0  0  0  0
   41.5230   21.7920   37.3500 C   0  0  0  0  0  3  0  0  0  0  0  0
   40.2280   22.2590   37.4940 C   0  0  0  0  0  3  0  0  0  0  0  0
   37.7670   24.6910   35.9090 H   0  0  0  0  0  0  0  0  0  0  0  0
   38.1270   23.8190   36.8970 S   0  0  0  0  0  0  0  0  0  0  0  0
   37.9510   24.5570   38.2050 O   0  0  0  0  0  0  0  0  0  0  0  0
   37.2170   22.6340   36.7950 O   0  0  0  0  0  0  0  0  0  0  0  0
  1  7  1  6  0  0  0
  1 19  1  0  0  0  0
  1  6  1  0  0  0  0
  1  2  1  0  0  0  0
  2  8  1  0  0  0  0
  2  9  1  0  0  0  0
  3  2  1  0  0  0  0
  3 10  1  0  0  0  0
  4 12  1  0  0  0  0
  4  3  1  0  0  0  0
  4  5  1  0  0  0  0
  5 14  1  0  0  0  0
  6 16  1  6  0  0  0
  6  5  1  0  0  0  0
  6 28  1  0  0  0  0
 11  3  1  0  0  0  0
 13  4  1  0  0  0  0
 15  5  1  0  0  0  0
 17 22  1  0  0  0  0
 18 17  2  0  0  0  0
 18 19  1  0  0  0  0
 19 20  2  0  0  0  0
 20 21  1  0  0  0  0
 21 25  1  0  0  0  0
 22 21  2  0  0  0  0
 23 17  1  0  0  0  0
 24 18  1  0  0  0  0
 26 27  2  0  0  0  0
 26 31  1  0  0  0  0
 28 26  1  0  0  0  0
 29 28  1  0  0  0  0
 30 39  1  0  0  0  0
 30 37  1  0  0  0  0
 31 30  2  0  0  0  0
 32 31  1  0  0  0  0
 32 34  2  0  0  0  0
 33 32  1  0  0  0  0
 34 36  1  0  0  0  0
 35 34  1  0  0  0  0
 36 37  2  0  0  0  0
 38 39  1  0  0  0  0
 39 40  2  0  0  0  0
 41 39  2  0  0  0  0
M  END
>  <minimizedAffinity>
-5.26985598

$$$$

 OpenBabel03262523563D

 41 43  0  0  1  0  0  0  0  0999 V2000
   39.2660   27.3320   33.1810 C   0  0  1  0  0  0  0  0  0  0  0  0
   38.2740   26.5730   32.4300 C   0  0  0  0  0  0  0  0  0  0  0  0
   36.9570   27.2850   32.4960 C   0  0  0  0  0  0  0  0  0  0  0  0
   36.7110   27.8210   33.8490 C   0  0  0  0  0  0  0  0  0  0  0  0
   37.4930   27.2120   34.9440 C   0  0  0  0  0  0  0  0  0  0  0  0
   38.9940   27.1210   34.6690 C   0  0  1  0  0  0  0  0  0  0  0  0
   39.1070   28.4400   33.0250 H   0  0  0  0  0  0  0  0  0  0  0  0
   38.5570   26.4830   31.3400 H   0  0  0  0  0  0  0  0  0  0  0  0
   38.1540   25.5150   32.7610 H   0  0  0  0  0  0  0  0  0  0  0  0
   36.1670   26.5210   32.2460 H   0  0  0  0  0  0  0  0  0  0  0  0
   36.8740   28.0370   31.6840 H   0  0  0  0  0  0  0  0  0  0  0  0
   35.6380   27.6880   34.0930 H   0  0  0  0  0  0  0  0  0  0  0  0
   36.8740   28.9170   33.8380 H   0  0  0  0  0  0  0  0  0  0  0  0
   37.0820   26.2120   35.2380 H   0  0  0  0  0  0  0  0  0  0  0  0
   37.3760   27.8390   35.8510 H   0  0  0  0  0  0  0  0  0  0  0  0
   39.5160   27.9500   35.2040 H   0  0  0  0  0  0  0  0  0  0  0  0
   42.3060   25.8440   31.6630 C   0  0  0  0  0  0  0  0  0  0  0  0
   40.9410   26.1970   31.8470 C   0  0  0  0  0  0  0  0  0  0  0  0
   40.6730   26.9770   32.9670 C   0  0  0  0  0  0  0  0  0  0  0  0
   41.6930   27.3580   33.8130 N   0  0  0  0  0  0  0  0  0  0  0  0
   42.9640   26.9990   33.5980 C   0  0  0  0  0  0  0  0  0  0  0  0
   43.2850   26.2410   32.5250 N   0  0  0  0  0  0  0  0  0  0  0  0
   42.4900   25.2260   30.7730 H   0  0  0  0  0  0  0  0  0  0  0  0
   40.1850   25.8690   31.1500 H   0  0  0  0  0  0  0  0  0  0  0  0
   43.7820   27.2800   34.2420 H   0  0  0  0  0  0  0  0  0  0  0  0
   39.0660   24.5340   35.1820 C   0  0  0  0  0  0  0  0  0  0  0  0
   37.9840   24.4210   34.5640 O   0  0  0  0  0  0  0  0  0  0  0  0
   39.5160   25.8820   35.1820 N   0  0  0  0  0  0  0  0  0  0  0  0
   40.4380   26.1690   35.6360 H   0  0  0  0  0  0  0  0  0  0  0  0
   39.4400   23.2110   37.1160 C   0  0  0  0  0  0  0  0  0  0  0  0
   39.9170   23.6090   35.8690 C   0  0  0  0  0  0  0  0  0  0  0  0
   41.1070   23.1270   35.3640 C   0  0  0  0  0  0  0  0  0  0  0  0
   41.4460   23.4620   34.3950 H   0  0  0  0  0  0  0  0  0  0  0  0
   41.8120   22.2250   36.1520 C   0  0  0  0  0  0  0  0  0  0  0  0
   42.7340   21.8450   35.7720 H   0  0  0  0  0  0  0  0  0  0  0  0
   41.3790   21.8130   37.3740 C   0  0  0  0  0  3  0  0  0  0  0  0
   40.1840   22.3010   37.8710 C   0  0  0  0  0  3  0  0  0  0  0  0
   37.0470   24.0610   36.8170 H   0  0  0  0  0  0  0  0  0  0  0  0
   37.9500   23.7880   37.8030 S   0  0  0  0  0  0  0  0  0  0  0  0
   38.1350   25.0710   38.5830 O   0  0  0  0  0  0  0  0  0  0  0  0
   37.3670   22.6980   38.6490 O   0  0  0  0  0  0  0  0  0  0  0  0
  1  7  1  6  0  0  0
  1  6  1  0  0  0  0
  2  3  1  0  0  0  0
  2  9  1  0  0  0  0
  2  1  1  0  0  0  0
  3  4  1  0  0  0  0
  4 12  1  0  0  0  0
  4  5  1  0  0  0  0
  5 14  1  0  0  0  0
  5 15  1  0  0  0  0
  6  5  1  0  0  0  0
  6 28  1  0  0  0  0
  6 16  1  1  0  0  0
  8  2  1  0  0  0  0
 10  3  1  0  0  0  0
 11  3  1  0  0  0  0
 13  4  1  0  0  0  0
 17 18  2  0  0  0  0
 17 22  1  0  0  0  0
 18 19  1  0  0  0  0
 19  1  1  0  0  0  0
 19 20  2  0  0  0  0
 21 20  1  0  0  0  0
 21 25  1  0  0  0  0
 22 21  2  0  0  0  0
 23 17  1  0  0  0  0
 24 18  1  0  0  0  0
 26 31  1  0  0  0  0
 27 26  2  0  0  0  0
 28 26  1  0  0  0  0
 28 29  1  0  0  0  0
 30 39  1  0  0  0  0
 30 37  1  0  0  0  0
 31 30  2  0  0  0  0
 32 31  1  0  0  0  0
 32 34  2  0  0  0  0
 33 32  1  0  0  0  0
 34 36  1  0  0  0  0
 35 34  1  0  0  0  0
 36 37  2  0  0  0  0
 38 39  1  0  0  0  0
 39 40  2  0  0  0  0
 39 41  2  0  0  0  0
M  END
>  <minimizedAffinity>
-5.26608276

$$$$

 OpenBabel03262523563D

 41 43  0  0  1  0  0  0  0  0999 V2000
   37.0120   21.4200   31.4280 C   0  0  1  0  0  0  0  0  0  0  0  0
   37.1920   19.9720   31.4240 C   0  0  0  0  0  0  0  0  0  0  0  0
   35.8470   19.3110   31.4360 C   0  0  0  0  0  0  0  0  0  0  0  0
   34.9210   20.0090   32.3490 C   0  0  0  0  0  0  0  0  0  0  0  0
   35.5430   20.8690   33.3770 C   0  0  0  0  0  0  0  0  0  0  0  0
   36.5920   21.8390   32.8350 C   0  0  1  0  0  0  0  0  0  0  0  0
   36.1330   21.7040   30.7790 H   0  0  0  0  0  0  0  0  0  0  0  0
   37.7340   19.6240   30.4960 H   0  0  0  0  0  0  0  0  0  0  0  0
   37.8180   19.5830   32.2590 H   0  0  0  0  0  0  0  0  0  0  0  0
   36.0120   18.2580   31.8020 H   0  0  0  0  0  0  0  0  0  0  0  0
   35.4610   19.1830   30.4030 H   0  0  0  0  0  0  0  0  0  0  0  0
   34.3060   19.2520   32.8760 H   0  0  0  0  0  0  0  0  0  0  0  0
   34.2030   20.6030   31.7490 H   0  0  0  0  0  0  0  0  0  0  0  0
   35.9610   20.2640   34.2230 H   0  0  0  0  0  0  0  0  0  0  0  0
   34.7510   21.4890   33.8430 H   0  0  0  0  0  0  0  0  0  0  0  0
   36.1380   22.8530   32.7370 H   0  0  0  0  0  0  0  0  0  0  0  0
   39.0690   24.2480   30.1910 C   0  0  0  0  0  0  0  0  0  0  0  0
   37.9230   23.4790   30.5300 C   0  0  0  0  0  0  0  0  0  0  0  0
   38.1860   22.2330   31.0920 C   0  0  0  0  0  0  0  0  0  0  0  0
   39.4860   21.8160   31.2860 N   0  0  0  0  0  0  0  0  0  0  0  0
   40.5330   22.5760   30.9490 C   0  0  0  0  0  0  0  0  0  0  0  0
   40.3390   23.7970   30.4000 N   0  0  0  0  0  0  0  0  0  0  0  0
   38.8340   25.2260   29.7470 H   0  0  0  0  0  0  0  0  0  0  0  0
   36.9290   23.8600   30.3540 H   0  0  0  0  0  0  0  0  0  0  0  0
   41.5600   22.2770   31.0880 H   0  0  0  0  0  0  0  0  0  0  0  0
   38.3940   23.0290   34.3500 C   0  0  0  0  0  0  0  0  0  0  0  0
   37.9120   24.1270   33.9940 O   0  0  0  0  0  0  0  0  0  0  0  0
   37.6900   21.9460   33.7590 N   0  0  0  0  0  0  0  0  0  0  0  0
   37.9380   20.9290   33.9690 H   0  0  0  0  0  0  0  0  0  0  0  0
   39.2400   22.8710   36.5610 C   0  0  0  0  0  0  0  0  0  0  0  0
   39.4800   22.6530   35.2060 C   0  0  0  0  0  0  0  0  0  0  0  0
   40.6680   22.1120   34.7610 C   0  0  0  0  0  0  0  0  0  0  0  0
   40.8190   21.9610   33.7020 H   0  0  0  0  0  0  0  0  0  0  0  0
   41.6200   21.7910   35.7220 C   0  0  0  0  0  0  0  0  0  0  0  0
   42.5420   21.3710   35.3890 H   0  0  0  0  0  0  0  0  0  0  0  0
   41.4230   21.9890   37.0530 C   0  0  0  0  0  3  0  0  0  0  0  0
   40.2270   22.5310   37.4900 C   0  0  0  0  0  3  0  0  0  0  0  0
   37.3170   24.5430   36.3520 H   0  0  0  0  0  0  0  0  0  0  0  0
   37.7640   23.5530   37.1780 S   0  0  0  0  0  0  0  0  0  0  0  0
   37.9480   24.1820   38.5420 O   0  0  0  0  0  0  0  0  0  0  0  0
   36.7180   22.4810   37.1920 O   0  0  0  0  0  0  0  0  0  0  0  0
  1  7  1  6  0  0  0
  1  6  1  0  0  0  0
  2  1  1  0  0  0  0
  2  3  1  0  0  0  0
  2  9  1  0  0  0  0
  3 10  1  0  0  0  0
  3  4  1  0  0  0  0
  4 12  1  0  0  0  0
  4  5  1  0  0  0  0
  5 15  1  0  0  0  0
  5 14  1  0  0  0  0
  6 16  1  6  0  0  0
  6  5  1  0  0  0  0
  6 28  1  0  0  0  0
  8  2  1  0  0  0  0
 11  3  1  0  0  0  0
 13  4  1  0  0  0  0
 17 22  2  0  0  0  0
 17 18  1  0  0  0  0
 18 19  2  0  0  0  0
 19 20  1  0  0  0  0
 19  1  1  0  0  0  0
 21 25  1  0  0  0  0
 21 20  2  0  0  0  0
 22 21  1  0  0  0  0
 23 17  1  0  0  0  0
 24 18  1  0  0  0  0
 26 31  1  0  0  0  0
 27 26  2  0  0  0  0
 28 29  1  0  0  0  0
 28 26  1  0  0  0  0
 30 39  1  0  0  0  0
 30 37  1  0  0  0  0
 31 30  2  0  0  0  0
 32 31  1  0  0  0  0
 32 34  2  0  0  0  0
 33 32  1  0  0  0  0
 34 36  1  0  0  0  0
 35 34  1  0  0  0  0
 36 37  2  0  0  0  0
 38 39  1  0  0  0  0
 39 41  2  0  0  0  0
 39 40  2  0  0  0  0
M  END
>  <minimizedAffinity>
-5.23872232

$$$$
