
     RDKit          3D

 43 45  0  0  0  0  0  0  0  0999 V2000
   38.1320   30.5688   47.3275 C   0  0  1  0  0  0  0  0  0  0  0  0
   37.5038   30.7477   46.0243 C   0  0  0  0  0  0  0  0  0  0  0  0
   38.5414   30.5861   44.9540 C   0  0  0  0  0  0  0  0  0  0  0  0
   39.8073   31.2391   45.3390 C   0  0  0  0  0  0  0  0  0  0  0  0
   39.7156   32.2665   46.3963 C   0  0  0  0  0  0  0  0  0  0  0  0
   38.9434   31.8249   47.6382 C   0  0  1  0  0  0  0  0  0  0  0  0
   36.9372   29.6286   50.7124 C   0  0  0  0  0  0  0  0  0  0  0  0
   37.8213   29.8379   49.6176 C   0  0  0  0  0  0  0  0  0  0  0  0
   37.2361   30.3669   48.4717 C   0  0  0  0  0  0  0  0  0  0  0  0
   35.8872   30.6527   48.4453 N   0  0  0  0  0  0  0  0  0  0  0  0
   35.0951   30.4379   49.5009 C   0  0  0  0  0  0  0  0  0  0  0  0
   35.6077   29.9255   50.6428 N   0  0  0  0  0  0  0  0  0  0  0  0
   38.2715   33.8188   49.2301 C   0  0  0  0  0  0  0  0  0  0  0  0
   39.3330   33.6203   49.8634 O   0  0  0  0  0  0  0  0  0  0  0  0
   38.1503   32.9163   48.1404 N   0  0  0  0  0  0  0  0  0  0  0  0
   38.9043   29.7461   47.2775 H   0  0  0  0  0  0  0  0  0  0  0  0
   36.7021   29.9752   45.8398 H   0  0  0  0  0  0  0  0  0  0  0  0
   36.9719   31.7189   45.8979 H   0  0  0  0  0  0  0  0  0  0  0  0
   38.1277   31.0837   44.0308 H   0  0  0  0  0  0  0  0  0  0  0  0
   38.6459   29.5201   44.6651 H   0  0  0  0  0  0  0  0  0  0  0  0
   40.2444   31.7216   44.4423 H   0  0  0  0  0  0  0  0  0  0  0  0
   40.5378   30.4610   45.6370 H   0  0  0  0  0  0  0  0  0  0  0  0
   39.3098   33.2331   45.9980 H   0  0  0  0  0  0  0  0  0  0  0  0
   40.7415   32.5151   46.7348 H   0  0  0  0  0  0  0  0  0  0  0  0
   39.6662   31.5416   48.4389 H   0  0  0  0  0  0  0  0  0  0  0  0
   37.4235   29.2083   51.6031 H   0  0  0  0  0  0  0  0  0  0  0  0
   38.8687   29.5936   49.6987 H   0  0  0  0  0  0  0  0  0  0  0  0
   34.0381   30.6499   49.5104 H   0  0  0  0  0  0  0  0  0  0  0  0
   37.3232   32.9538   47.4663 H   0  0  0  0  0  0  0  0  0  0  0  0
   35.3218   32.7455   52.0542 H   0  0  0  0  0  0  0  0  0  0  0  0
   36.1596   32.7385   50.9763 S   0  0  0  0  0  0  0  0  0  0  0  0
   37.5275   32.3565   51.4972 O   0  0  0  0  0  0  0  0  0  0  0  0
   35.6266   31.7269   50.0077 O   0  0  0  0  0  0  0  0  0  0  0  0
   36.1593   34.2953   50.1996 C   0  0  0  0  0  0  0  0  0  0  0  0
   37.1894   34.7449   49.3774 C   0  0  0  0  0  0  0  0  0  0  0  0
   37.1447   35.9875   48.7793 C   0  0  0  0  0  0  0  0  0  0  0  0
   37.9618   36.3020   48.1457 H   0  0  0  0  0  0  0  0  0  0  0  0
   36.0261   36.7747   49.0312 C   0  0  0  0  0  0  0  0  0  0  0  0
   35.9812   37.7377   48.5750 H   0  0  0  0  0  0  0  0  0  0  0  0
   35.0005   36.3697   49.8281 C   0  0  0  0  0  0  0  0  0  0  0  0
   35.0553   35.1221   50.4236 C   0  0  0  0  0  0  0  0  0  0  0  0
   34.1319   36.9633   50.0322 H   0  0  0  0  0  0  0  0  0  0  0  0
   34.2552   34.7837   51.0536 H   0  0  0  0  0  0  0  0  0  0  0  0
  1  6  1  0
  1  9  1  0
  2  1  1  0
  3  4  1  0
  3  2  1  0
  4  5  1  0
  5  6  1  0
  6 15  1  0
  8  7  2  0
  9  8  1  0
 10  9  2  0
 10 11  1  0
 11 12  2  0
 12  7  1  0
 13 14  2  0
 15 13  1  0
  1 16  1  6
  2 17  1  0
  2 18  1  0
  3 19  1  0
  3 20  1  0
  4 21  1  0
  4 22  1  0
  5 23  1  0
  5 24  1  0
  6 25  1  1
  7 26  1  0
  8 27  1  0
 11 28  1  0
 15 29  1  0
 30 31  1  0
 31 32  2  0
 31 33  2  0
 31 34  1  0
 34 35  2  0
 35 36  1  0
 36 37  1  0
 36 38  2  0
 38 39  1  0
 38 40  1  0
 40 41  2  0
 41 34  1  0
 40 42  1  0
 41 43  1  0
 13 35  1  0
M  ISO  8  16  13  17  13  18  13  19  13  20  13  21  13  22  13  23  13
M  ISO  8  24  13  25  13  26  14  27  14  28  14  30  12  37  15  39  16
M  END
>  <DihAtoms>  (1) 
13,12,34,33

>  <DihDeg>  (1) 
45.58365297690329

$$$$
