
     RDKit          3D

 37 39  0  0  0  0  0  0  0  0999 V2000
   38.1118   31.1791   47.8959 C   0  0  0  0  0  0  0  0  0  0  0  0
   38.3945   30.3861   46.7888 C   0  0  0  0  0  0  0  0  0  0  0  0
   39.1783   30.8134   45.7276 C   0  0  0  0  0  0  0  0  0  0  0  0
   39.7142   32.1314   45.7829 C   0  0  0  0  0  0  0  0  0  0  0  0
   39.4203   32.8864   46.8806 C   0  0  0  0  0  0  0  0  0  0  0  0
   38.6552   32.4607   47.9185 C   0  0  0  0  0  0  0  0  0  0  0  0
   37.8522   29.9693   49.9742 C   0  0  0  0  0  0  0  0  0  0  0  0
   37.2328   30.5993   48.8819 C   0  0  0  0  0  0  0  0  0  0  0  0
   35.8306   30.5980   48.8649 C   0  0  0  0  0  0  0  0  0  0  0  0
   35.1312   30.0192   49.8513 N   0  0  0  0  0  0  0  0  0  0  0  0
   35.7524   29.4153   50.8985 C   0  0  0  0  0  0  0  0  0  0  0  0
   37.0963   29.3993   50.9433 N   0  0  0  0  0  0  0  0  0  0  0  0
   39.3484   34.2946   49.2206 C   0  0  0  0  0  0  0  0  0  0  0  0
   40.3650   34.3086   48.4417 O   0  0  0  0  0  0  0  0  0  0  0  0
   38.3858   33.2434   49.0454 N   0  0  0  0  0  0  0  0  0  0  0  0
   37.9871   29.3675   46.7356 H   0  0  0  0  0  0  0  0  0  0  0  0
   39.3326   30.0950   44.9046 H   0  0  0  0  0  0  0  0  0  0  0  0
   40.2912   32.3024   44.8880 H   0  0  0  0  0  0  0  0  0  0  0  0
   39.8889   33.8224   46.6595 H   0  0  0  0  0  0  0  0  0  0  0  0
   38.9090   29.8892   50.1272 H   0  0  0  0  0  0  0  0  0  0  0  0
   35.4031   31.0983   47.9992 H   0  0  0  0  0  0  0  0  0  0  0  0
   35.0521   29.0084   51.5884 H   0  0  0  0  0  0  0  0  0  0  0  0
   37.6006   33.0844   49.6608 H   0  0  0  0  0  0  0  0  0  0  0  0
   41.5990   37.8229   49.4118 H   0  0  0  0  0  0  0  0  0  0  0  0
   40.5115   37.1306   48.8910 S   0  0  0  0  0  0  0  0  0  0  0  0
   40.9600   36.0651   47.9793 O   0  0  0  0  0  0  0  0  0  0  0  0
   39.6751   38.1473   48.1299 O   0  0  0  0  0  0  0  0  0  0  0  0
   39.5870   36.6041   50.2614 C   0  0  0  0  0  0  0  0  0  0  0  0
   39.1320   35.3041   50.2748 C   0  0  0  0  0  0  0  0  0  0  0  0
   38.3977   34.8785   51.3630 C   0  0  0  0  0  0  0  0  0  0  0  0
   37.9808   33.8780   51.4983 H   0  0  0  0  0  0  0  0  0  0  0  0
   38.1339   35.7553   52.4102 C   0  0  0  0  0  0  0  0  0  0  0  0
   37.5726   35.4897   53.2793 H   0  0  0  0  0  0  0  0  0  0  0  0
   38.5930   37.0562   52.3888 C   0  0  0  0  0  0  0  0  0  0  0  0
   39.3318   37.4819   51.2924 C   0  0  0  0  0  0  0  0  0  0  0  0
   38.4054   37.7719   53.1905 H   0  0  0  0  0  0  0  0  0  0  0  0
   39.7315   38.5041   51.2018 H   0  0  0  0  0  0  0  0  0  0  0  0
  1  6  1  0
  1  8  1  0
  2  1  2  0
  3  4  2  0
  3  2  1  0
  4  5  1  0
  5  6  2  0
  6 15  1  0
  7 12  2  0
  8  9  2  0
  8  7  1  0
  9 10  1  0
 10 11  2  0
 11 12  1  0
 14 13  2  0
 15 13  1  0
  2 16  1  0
  3 17  1  0
  4 18  1  0
  5 19  1  0
  7 20  1  0
  9 21  1  0
 11 22  1  0
 15 23  1  0
 24 25  1  0
 25 26  2  0
 25 27  2  0
 25 28  1  0
 28 29  2  0
 29 30  1  0
 30 31  1  0
 30 32  2  0
 32 33  1  0
 32 34  1  0
 34 35  2  0
 35 28  1  0
 34 36  1  0
 35 37  1  0
 13 29  1  0
M  ISO  8  16  14  17  14  18  14  19  14  20  14  21  14  22  14  24  12
M  ISO  2  31  15  33  16
M  END
>  <DihAtoms>  (1) 
13,12,28,27

>  <DihDeg>  (1) 
-62.16937031518014

$$$$
