REMARK  Name = 
REMARK  4 active torsions:
REMARK  status: ('A' for Active; 'I' for Inactive)
REMARK    1  A    between atoms: N_1  and  C_6
REMARK    2  A    between atoms: C_2  and  C_12
REMARK    3  A    between atoms: C_12  and  C_29
REMARK    4  A    between atoms: S_25  and  C_28
REMARK                            x       y       z     vdW  Elec       q    Type
REMARK                         _______ _______ _______ _____ _____    ______ ____
ROOT
ATOM      1  N   UNL     1      36.544  29.768  49.176  0.00  0.00    +0.000 N 
ATOM      2  C   UNL     1      37.311  30.877  48.740  0.00  0.00    +0.000 C 
ATOM      3  C   UNL     1      37.981  31.401  50.005  0.00  0.00    +0.000 C 
ATOM      4  C   UNL     1      37.482  30.444  51.115  0.00  0.00    +0.000 C 
ATOM      5  C   UNL     1      37.256  29.198  50.289  0.00  0.00    +0.000 C 
ATOM      6  H   UNL     1      36.559  31.756  48.519  0.00  0.00    +0.000 HD
ATOM      7  H   UNL     1      37.776  32.443  50.231  0.00  0.00    +0.000 HD
ATOM      8  H   UNL     1      39.066  31.184  49.877  0.00  0.00    +0.000 HD
ATOM      9  H   UNL     1      38.255  30.312  51.889  0.00  0.00    +0.000 HD
ATOM     10  H   UNL     1      36.518  30.818  51.455  0.00  0.00    +0.000 HD
ATOM     11  H   UNL     1      36.629  28.503  50.877  0.00  0.00    +0.000 HD
ATOM     12  H   UNL     1      38.209  28.738  49.961  0.00  0.00    +0.000 HD
ENDROOT
BRANCH   1  13
ATOM     13  C   UNL     1      35.306  29.324  48.627  0.00  0.00    +0.000 A 
ATOM     14  C   UNL     1      34.712  30.102  47.617  0.00  0.00    +0.000 A 
ATOM     15  C   UNL     1      33.509  29.661  47.055  0.00  0.00    +0.000 A 
ATOM     16  N   UNL     1      32.990  28.489  47.535  0.00  0.00    +0.000 NA
ATOM     17  C   UNL     1      33.589  27.765  48.508  0.00  0.00    +0.000 A 
ATOM     18  N   UNL     1      34.761  28.191  49.059  0.00  0.00    +0.000 NA
ATOM     19  H   UNL     1      35.129  31.013  47.255  0.00  0.00    +0.000 HD
ATOM     20  H   UNL     1      33.027  30.236  46.277  0.00  0.00    +0.000 HD
ATOM     21  H   UNL     1      33.094  26.855  48.813  0.00  0.00    +0.000 HD
ENDBRANCH   1  13
BRANCH   2  22
ATOM     22  C   UNL     1      38.127  30.742  47.574  0.00  0.00    +0.000 C 
ATOM     23  O   UNL     1      39.039  31.564  47.458  0.00  0.00    +0.000 OA
BRANCH  22  25
ATOM     24  C   UNL     1      37.715  30.270  45.163  0.00  0.00    +0.000 A 
ATOM     25  C   UNL     1      38.348  29.990  46.348  0.00  0.00    +0.000 A 
ATOM     26  C   UNL     1      39.253  28.955  46.312  0.00  0.00    +0.000 A 
ATOM     27  H   UNL     1      39.864  28.585  47.108  0.00  0.00    +0.000 HD
ATOM     28  C   UNL     1      39.583  28.183  45.222  0.00  0.00    +0.000 A 
ATOM     29  H   UNL     1      40.274  27.365  45.124  0.00  0.00    +0.000 HD
ATOM     30  C   UNL     1      38.932  28.486  44.047  0.00  0.00    +0.000 A 
ATOM     31  C   UNL     1      38.017  29.507  44.013  0.00  0.00    +0.000 A 
BRANCH  24  33
ATOM     32  H   UNL     1      37.065  32.735  45.292  0.00  0.00    +0.000 HD
ATOM     33  S   UNL     1      36.533  31.534  44.970  0.00  0.00    +0.000 S 
ATOM     34  O   UNL     1      35.295  31.165  45.732  0.00  0.00    +0.000 OA
ATOM     35  O   UNL     1      36.124  31.641  43.509  0.00  0.00    +0.000 OA
ENDBRANCH  24  33
ENDBRANCH  22  25
ENDBRANCH   2  22
TORSDOF 4
