
 OpenBabel03272509303D

 41 43  0  0  1  0  0  0  0  0999 V2000
   35.8990   30.5090   48.8110 C   0  0  2  0  0  0  0  0  0  0  0  0
   37.0830   31.1910   49.4310 C   0  0  0  0  0  0  0  0  0  0  0  0
   37.9670   30.2370   50.2120 C   0  0  0  0  0  0  0  0  0  0  0  0
   37.1460   29.5340   51.2940 C   0  0  0  0  0  0  0  0  0  0  0  0
   35.7540   29.1690   50.8660 C   0  0  0  0  0  0  0  0  0  0  0  0
   35.7140   29.1270   49.3290 C   0  0  1  0  0  0  0  0  0  0  0  0
   34.9240   31.0610   48.9870 H   0  0  0  0  0  0  0  0  0  0  0  0
   36.6270   31.8500   50.2490 H   0  0  0  0  0  0  0  0  0  0  0  0
   37.6410   31.8680   48.8170 H   0  0  0  0  0  0  0  0  0  0  0  0
   38.4220   29.4540   49.5960 H   0  0  0  0  0  0  0  0  0  0  0  0
   38.7210   30.8510   50.7190 H   0  0  0  0  0  0  0  0  0  0  0  0
   37.0580   30.1890   52.1870 H   0  0  0  0  0  0  0  0  0  0  0  0
   37.7000   28.6110   51.5520 H   0  0  0  0  0  0  0  0  0  0  0  0
   34.9600   29.8130   51.2570 H   0  0  0  0  0  0  0  0  0  0  0  0
   35.5130   28.1300   51.1760 H   0  0  0  0  0  0  0  0  0  0  0  0
   36.5490   28.5070   49.1410 H   0  0  0  0  0  0  0  0  0  0  0  0
   36.0340   30.4540   47.3320 C   0  0  0  0  0  0  0  0  0  0  0  0
   37.3130   30.7500   46.8200 C   0  0  0  0  0  0  0  0  0  0  0  0
   37.4520   30.7010   45.4310 C   0  0  0  0  0  0  0  0  0  0  0  0
   36.3570   30.3720   44.6580 N   0  0  0  0  0  0  0  0  0  0  0  0
   35.1310   30.0910   45.2120 C   0  0  0  0  0  0  0  0  0  0  0  0
   34.9960   30.1400   46.5480 N   0  0  0  0  0  0  0  0  0  0  0  0
   38.2280   31.0020   47.3240 H   0  0  0  0  0  0  0  0  0  0  0  0
   38.3700   30.9050   44.8950 H   0  0  0  0  0  0  0  0  0  0  0  0
   34.3730   29.8490   44.4930 H   0  0  0  0  0  0  0  0  0  0  0  0
   33.2680   28.4270   49.2670 C   0  0  0  0  0  0  0  0  0  0  0  0
   32.7320   29.0250   50.2380 O   0  0  0  0  0  0  0  0  0  0  0  0
   34.6020   28.4250   48.7850 N   0  0  0  0  0  0  0  0  0  0  0  0
   34.6660   27.7980   47.9260 H   0  0  0  0  0  0  0  0  0  0  0  0
   32.2810   26.6580   47.7320 C   0  0  0  0  0  0  0  0  0  0  0  0
   32.1710   27.6600   48.6670 C   0  0  0  0  0  0  0  0  0  0  0  0
   30.9210   28.0310   49.1400 C   0  0  0  0  0  0  0  0  0  0  0  0
   30.7590   28.8120   49.8720 H   0  0  0  0  0  0  0  0  0  0  0  0
   29.7960   27.3940   48.6690 C   0  0  0  0  0  0  0  0  0  0  0  0
   28.7800   27.6250   48.9930 H   0  0  0  0  0  0  0  0  0  0  0  0
   29.8730   26.3870   47.7310 C   0  0  0  0  0  3  0  0  0  0  0  0
   31.1320   26.0290   47.2700 C   0  0  0  0  0  3  0  0  0  0  0  0
   34.8480   26.6230   48.1120 H   0  0  0  0  0  0  0  0  0  0  0  0
   33.9050   26.2680   47.1980 S   0  0  0  0  0  0  0  0  0  0  0  0
   33.9990   24.7680   47.0390 O   0  0  0  0  0  0  0  0  0  0  0  0
   34.1660   26.8490   45.8260 O   0  0  0  0  0  0  0  0  0  0  0  0
  1  7  1  1  0  0  0
  1  6  1  0  0  0  0
  1  2  1  0  0  0  0
  2  3  1  0  0  0  0
  2  8  1  0  0  0  0
  3 11  1  0  0  0  0
  3  4  1  0  0  0  0
  4 13  1  0  0  0  0
  4 12  1  0  0  0  0
  5 15  1  0  0  0  0
  5 14  1  0  0  0  0
  5  4  1  0  0  0  0
  6 16  1  6  0  0  0
  6  5  1  0  0  0  0
  9  2  1  0  0  0  0
 10  3  1  0  0  0  0
 17  1  1  0  0  0  0
 18 23  1  0  0  0  0
 18 17  1  0  0  0  0
 19 18  2  0  0  0  0
 20 21  2  0  0  0  0
 20 19  1  0  0  0  0
 21 22  1  0  0  0  0
 22 17  2  0  0  0  0
 24 19  1  0  0  0  0
 25 21  1  0  0  0  0
 26 27  2  0  0  0  0
 28 26  1  0  0  0  0
 28  6  1  0  0  0  0
 29 28  1  0  0  0  0
 30 31  1  0  0  0  0
 31 32  2  0  0  0  0
 31 26  1  0  0  0  0
 32 33  1  0  0  0  0
 34 35  1  0  0  0  0
 34 32  1  0  0  0  0
 36 34  2  0  0  0  0
 37 36  1  0  0  0  0
 37 30  2  0  0  0  0
 39 30  1  0  0  0  0
 39 38  1  0  0  0  0
 40 39  2  0  0  0  0
 41 39  2  0  0  0  0
M  END
>  <minimizedAffinity>
-5.42157269

>  <minimizedRMSD>
1.01476502

$$$$
