
 OpenBabel03272509303D

 41 43  0  0  1  0  0  0  0  0999 V2000
   36.5540   30.8610   48.8700 C   0  0  2  0  0  0  0  0  0  0  0  0
   37.4100   31.5630   49.8820 C   0  0  0  0  0  0  0  0  0  0  0  0
   38.0310   30.6110   50.8870 C   0  0  0  0  0  0  0  0  0  0  0  0
   36.9350   29.8140   51.5960 C   0  0  0  0  0  0  0  0  0  0  0  0
   35.7980   29.4090   50.7040 C   0  0  0  0  0  0  0  0  0  0  0  0
   36.2890   29.4450   49.2460 C   0  0  1  0  0  0  0  0  0  0  0  0
   35.5450   31.3570   48.7180 H   0  0  0  0  0  0  0  0  0  0  0  0
   36.6620   32.1560   50.5150 H   0  0  0  0  0  0  0  0  0  0  0  0
   38.1010   32.2970   49.5210 H   0  0  0  0  0  0  0  0  0  0  0  0
   38.7170   29.8840   50.4400 H   0  0  0  0  0  0  0  0  0  0  0  0
   38.5270   31.2320   51.6430 H   0  0  0  0  0  0  0  0  0  0  0  0
   36.5070   30.4160   52.4260 H   0  0  0  0  0  0  0  0  0  0  0  0
   37.4230   28.9060   51.9980 H   0  0  0  0  0  0  0  0  0  0  0  0
   34.8800   29.9930   50.8190 H   0  0  0  0  0  0  0  0  0  0  0  0
   35.5310   28.3450   50.8760 H   0  0  0  0  0  0  0  0  0  0  0  0
   37.1740   28.8760   49.3360 H   0  0  0  0  0  0  0  0  0  0  0  0
   37.1890   30.8900   47.5270 C   0  0  0  0  0  0  0  0  0  0  0  0
   38.5680   31.1830   47.5050 C   0  0  0  0  0  0  0  0  0  0  0  0
   39.1760   31.2130   46.2480 C   0  0  0  0  0  0  0  0  0  0  0  0
   38.4120   30.9590   45.1270 N   0  0  0  0  0  0  0  0  0  0  0  0
   37.0690   30.6770   45.2060 C   0  0  0  0  0  0  0  0  0  0  0  0
   36.4830   30.6500   46.4160 N   0  0  0  0  0  0  0  0  0  0  0  0
   39.2540   31.3810   48.3080 H   0  0  0  0  0  0  0  0  0  0  0  0
   40.2220   31.4250   46.0740 H   0  0  0  0  0  0  0  0  0  0  0  0
   36.6040   30.4980   44.2580 H   0  0  0  0  0  0  0  0  0  0  0  0
   34.1130   28.3620   48.4910 C   0  0  0  0  0  0  0  0  0  0  0  0
   33.2960   28.5830   49.4260 O   0  0  0  0  0  0  0  0  0  0  0  0
   35.4750   28.7230   48.3290 N   0  0  0  0  0  0  0  0  0  0  0  0
   35.8270   28.3620   47.3900 H   0  0  0  0  0  0  0  0  0  0  0  0
   32.6840   28.0900   46.4080 C   0  0  0  0  0  0  0  0  0  0  0  0
   33.3380   27.5950   47.5110 C   0  0  0  0  0  0  0  0  0  0  0  0
   33.3060   26.2340   47.7830 C   0  0  0  0  0  0  0  0  0  0  0  0
   33.7940   25.7750   48.6330 H   0  0  0  0  0  0  0  0  0  0  0  0
   32.6180   25.3880   46.9430 C   0  0  0  0  0  0  0  0  0  0  0  0
   32.5490   24.3070   47.0860 H   0  0  0  0  0  0  0  0  0  0  0  0
   31.9530   25.8530   45.8300 C   0  0  0  0  0  3  0  0  0  0  0  0
   31.9970   27.2170   45.5740 C   0  0  0  0  0  3  0  0  0  0  0  0
   33.4960   30.4450   47.1330 H   0  0  0  0  0  0  0  0  0  0  0  0
   32.7850   29.8220   46.1560 S   0  0  0  0  0  0  0  0  0  0  0  0
   33.5230   30.0670   44.8600 O   0  0  0  0  0  0  0  0  0  0  0  0
   31.4050   30.4110   45.9680 O   0  0  0  0  0  0  0  0  0  0  0  0
  1  7  1  6  0  0  0
  1  6  1  0  0  0  0
  1  2  1  0  0  0  0
  2  8  1  0  0  0  0
  2  3  1  0  0  0  0
  3  4  1  0  0  0  0
  3 11  1  0  0  0  0
  4 13  1  0  0  0  0
  4 12  1  0  0  0  0
  5 14  1  0  0  0  0
  5 15  1  0  0  0  0
  5  4  1  0  0  0  0
  6 16  1  6  0  0  0
  6  5  1  0  0  0  0
  9  2  1  0  0  0  0
 10  3  1  0  0  0  0
 17  1  1  0  0  0  0
 18 17  1  0  0  0  0
 18 23  1  0  0  0  0
 19 18  2  0  0  0  0
 20 21  2  0  0  0  0
 20 19  1  0  0  0  0
 21 22  1  0  0  0  0
 22 17  2  0  0  0  0
 24 19  1  0  0  0  0
 25 21  1  0  0  0  0
 26 27  2  0  0  0  0
 28 26  1  0  0  0  0
 28  6  1  0  0  0  0
 29 28  1  0  0  0  0
 30 31  1  0  0  0  0
 31 32  2  0  0  0  0
 31 26  1  0  0  0  0
 32 33  1  0  0  0  0
 34 35  1  0  0  0  0
 34 32  1  0  0  0  0
 36 34  2  0  0  0  0
 37 36  1  0  0  0  0
 37 30  2  0  0  0  0
 39 30  1  0  0  0  0
 39 38  1  0  0  0  0
 40 39  2  0  0  0  0
 41 39  2  0  0  0  0
M  END
>  <minimizedAffinity>
-5.92683172

>  <minimizedRMSD>
1.33316052

$$$$
