
     RDKit          3D

 37 39  0  0  0  0  0  0  0  0999 V2000
   36.5440   29.7679   49.1758 N   0  0  0  0  0  0  0  0  0  0  0  0
   37.3111   30.8766   48.7400 C   0  0  1  0  0  0  0  0  0  0  0  0
   37.9810   31.4015   50.0053 C   0  0  0  0  0  0  0  0  0  0  0  0
   37.4818   30.4435   51.1148 C   0  0  0  0  0  0  0  0  0  0  0  0
   37.2562   29.1979   50.2887 C   0  0  0  0  0  0  0  0  0  0  0  0
   35.3055   29.3244   48.6267 C   0  0  0  0  0  0  0  0  0  0  0  0
   34.7115   30.1023   47.6173 C   0  0  0  0  0  0  0  0  0  0  0  0
   33.5093   29.6614   47.0553 C   0  0  0  0  0  0  0  0  0  0  0  0
   32.9902   28.4890   47.5345 N   0  0  0  0  0  0  0  0  0  0  0  0
   33.5892   27.7653   48.5081 C   0  0  0  0  0  0  0  0  0  0  0  0
   34.7611   28.1912   49.0587 N   0  0  0  0  0  0  0  0  0  0  0  0
   38.1273   30.7422   47.5742 C   0  0  0  0  0  0  0  0  0  0  0  0
   39.0389   31.5638   47.4575 O   0  0  0  0  0  0  0  0  0  0  0  0
   36.5588   31.7556   48.5193 H   0  0  0  0  0  0  0  0  0  0  0  0
   37.7761   32.4433   50.2311 H   0  0  0  0  0  0  0  0  0  0  0  0
   39.0656   31.1840   49.8775 H   0  0  0  0  0  0  0  0  0  0  0  0
   38.2551   30.3119   51.8895 H   0  0  0  0  0  0  0  0  0  0  0  0
   36.5178   30.8179   51.4547 H   0  0  0  0  0  0  0  0  0  0  0  0
   36.6293   28.5033   50.8766 H   0  0  0  0  0  0  0  0  0  0  0  0
   38.2087   28.7376   49.9607 H   0  0  0  0  0  0  0  0  0  0  0  0
   35.1285   31.0134   47.2551 H   0  0  0  0  0  0  0  0  0  0  0  0
   33.0267   30.2361   46.2772 H   0  0  0  0  0  0  0  0  0  0  0  0
   33.0939   26.8548   48.8126 H   0  0  0  0  0  0  0  0  0  0  0  0
   36.3648   32.3333   45.4124 H   0  0  0  0  0  0  0  0  0  0  0  0
   36.0742   31.0305   45.1969 S   0  0  0  0  0  0  0  0  0  0  0  0
   35.0577   30.4445   46.1313 O   0  0  0  0  0  0  0  0  0  0  0  0
   35.4661   30.9672   43.8039 O   0  0  0  0  0  0  0  0  0  0  0  0
   37.5208   30.0626   45.2551 C   0  0  0  0  0  0  0  0  0  0  0  0
   38.3478   29.9898   46.3482 C   0  0  0  0  0  0  0  0  0  0  0  0
   39.4461   29.1740   46.2124 C   0  0  0  0  0  0  0  0  0  0  0  0
   40.2224   28.9877   46.9256 H   0  0  0  0  0  0  0  0  0  0  0  0
   39.7945   28.4327   45.1066 C   0  0  0  0  0  0  0  0  0  0  0  0
   40.6308   27.7795   44.9340 H   0  0  0  0  0  0  0  0  0  0  0  0
   38.9462   28.5250   44.0254 C   0  0  0  0  0  0  0  0  0  0  0  0
   37.8323   29.3215   44.0935 C   0  0  0  0  0  0  0  0  0  0  0  0
   39.0902   28.0028   43.0907 H   0  0  0  0  0  0  0  0  0  0  0  0
   37.1694   29.3924   43.2463 H   0  0  0  0  0  0  0  0  0  0  0  0
  1  5  1  0
  2  1  1  0
  2  3  1  0
  3  4  1  0
  5  4  1  0
  6 11  1  0
  6  1  1  0
  7  6  2  0
  8  9  2  0
  8  7  1  0
  9 10  1  0
 10 11  2  0
 12  2  1  0
 13 12  2  0
  2 14  1  6
  3 15  1  0
  3 16  1  0
  4 17  1  0
  4 18  1  0
  5 19  1  0
  5 20  1  0
  7 21  1  0
  8 22  1  0
 10 23  1  0
 24 25  1  0
 25 26  2  0
 25 27  2  0
 25 28  1  0
 28 29  2  0
 29 30  1  0
 30 31  1  0
 30 32  2  0
 32 33  1  0
 32 34  1  0
 34 35  2  0
 35 28  1  0
 34 36  1  0
 35 37  1  0
 12 29  1  0
M  ISO  8  14  13  15  13  16  13  17  13  18  13  19  13  20  13  21  14
M  ISO  5  22  14  23  14  24  12  31  15  33  16
M  END
>  <DihAtoms>  (1) 
1,11,28,27

>  <DihDeg>  (1) 
176.12096124312828

$$$$
