
     RDKit          3D

 37 39  0  0  0  0  0  0  0  0999 V2000
   38.4560   30.4375   47.3017 F   0  0  0  0  0  0  0  0  0  0  0  0
   38.7490   31.6615   47.7874 C   0  0  0  0  0  0  0  0  0  0  0  0
   38.2351   32.0830   48.9929 C   0  0  0  0  0  0  0  0  0  0  0  0
   38.5768   33.3351   49.4231 C   0  0  0  0  0  0  0  0  0  0  0  0
   39.4014   34.1737   48.7062 C   0  0  0  0  0  0  0  0  0  0  0  0
   39.9136   33.7388   47.4925 C   0  0  0  0  0  0  0  0  0  0  0  0
   39.5777   32.4782   47.0456 C   0  0  0  0  0  0  0  0  0  0  0  0
   36.9287   29.6020   51.5420 C   0  0  0  0  0  0  0  0  0  0  0  0
   37.7767   30.4887   50.8622 C   0  0  0  0  0  0  0  0  0  0  0  0
   37.3621   31.1504   49.7167 C   0  0  0  0  0  0  0  0  0  0  0  0
   36.0867   30.9004   49.2763 N   0  0  0  0  0  0  0  0  0  0  0  0
   35.2886   30.0448   49.9437 C   0  0  0  0  0  0  0  0  0  0  0  0
   35.6902   29.4180   51.0345 N   0  0  0  0  0  0  0  0  0  0  0  0
   39.1923   32.1692   44.6795 C   0  0  0  0  0  0  0  0  0  0  0  0
   38.0762   32.7160   44.9786 O   0  0  0  0  0  0  0  0  0  0  0  0
   40.0969   32.0057   45.7894 N   0  0  0  0  0  0  0  0  0  0  0  0
   38.1638   33.6601   50.3813 H   0  0  0  0  0  0  0  0  0  0  0  0
   39.6609   35.1480   49.0511 H   0  0  0  0  0  0  0  0  0  0  0  0
   40.5702   34.3445   46.8725 H   0  0  0  0  0  0  0  0  0  0  0  0
   37.4215   29.1812   52.4103 H   0  0  0  0  0  0  0  0  0  0  0  0
   38.8033   30.7283   51.1667 H   0  0  0  0  0  0  0  0  0  0  0  0
   34.2743   29.8523   49.5829 H   0  0  0  0  0  0  0  0  0  0  0  0
   41.0448   31.6110   45.8409 H   0  0  0  0  0  0  0  0  0  0  0  0
   37.5760   30.3314   44.7988 H   0  0  0  0  0  0  0  0  0  0  0  0
   38.2182   29.4605   43.9629 S   0  0  0  0  0  0  0  0  0  0  0  0
   37.2518   28.7237   43.0819 O   0  0  0  0  0  0  0  0  0  0  0  0
   39.0505   28.5068   44.7945 O   0  0  0  0  0  0  0  0  0  0  0  0
   39.3296   30.4078   42.9949 C   0  0  0  0  0  0  0  0  0  0  0  0
   39.7306   31.6739   43.4167 C   0  0  0  0  0  0  0  0  0  0  0  0
   40.5996   32.4946   42.7268 C   0  0  0  0  0  0  0  0  0  0  0  0
   40.8604   33.4665   43.1264 H   0  0  0  0  0  0  0  0  0  0  0  0
   41.1067   32.0048   41.5153 C   0  0  0  0  0  0  0  0  0  0  0  0
   41.7978   32.6328   40.9465 H   0  0  0  0  0  0  0  0  0  0  0  0
   40.7194   30.7482   41.0793 C   0  0  0  0  0  0  0  0  0  0  0  0
   39.8475   29.9360   41.7815 C   0  0  0  0  0  0  0  0  0  0  0  0
   41.1180   30.3624   40.1268 H   0  0  0  0  0  0  0  0  0  0  0  0
   39.5520   28.9563   41.4325 H   0  0  0  0  0  0  0  0  0  0  0  0
  1  2  1  0
  2  3  2  0
  3  4  1  0
  3 10  1  0
  5  4  2  0
  6  5  1  0
  7  6  2  0
  7  2  1  0
  9  8  2  0
 10  9  1  0
 11 10  2  0
 11 12  1  0
 12 13  2  0
 13  8  1  0
 14 15  2  0
 14 16  1  0
 16  7  1  0
  4 17  1  0
  5 18  1  0
  6 19  1  0
  8 20  1  0
  9 21  1  0
 12 22  1  0
 16 23  1  0
 24 25  1  0
 25 26  2  0
 25 27  2  0
 25 28  1  0
 28 29  2  0
 29 30  1  0
 30 31  1  0
 30 32  2  0
 32 33  1  0
 32 34  1  0
 34 35  2  0
 35 28  1  0
 34 36  1  0
 35 37  1  0
 14 29  1  0
M  ISO  8  17  14  18  14  19  14  20  14  21  14  22  14  24  12  31  15
M  ISO  1  33  16
M  END
>  <DihAtoms>  (1) 
14,13,28,27

>  <DihDeg>  (1) 
83.97526998304379

$$$$
