
 OpenBabel03272509303D

 41 43  0  0  1  0  0  0  0  0999 V2000
   35.8980   30.5100   48.8100 C   0  0  2  0  0  0  0  0  0  0  0  0
   37.0820   31.1920   49.4300 C   0  0  0  0  0  0  0  0  0  0  0  0
   37.9670   30.2390   50.2120 C   0  0  0  0  0  0  0  0  0  0  0  0
   37.1460   29.5350   51.2940 C   0  0  0  0  0  0  0  0  0  0  0  0
   35.7540   29.1700   50.8660 C   0  0  0  0  0  0  0  0  0  0  0  0
   35.7140   29.1270   49.3290 C   0  0  1  0  0  0  0  0  0  0  0  0
   34.9230   31.0610   48.9860 H   0  0  0  0  0  0  0  0  0  0  0  0
   36.6260   31.8510   50.2480 H   0  0  0  0  0  0  0  0  0  0  0  0
   37.6400   31.8700   48.8170 H   0  0  0  0  0  0  0  0  0  0  0  0
   38.4220   29.4560   49.5960 H   0  0  0  0  0  0  0  0  0  0  0  0
   38.7210   30.8540   50.7180 H   0  0  0  0  0  0  0  0  0  0  0  0
   37.0580   30.1900   52.1870 H   0  0  0  0  0  0  0  0  0  0  0  0
   37.7000   28.6130   51.5520 H   0  0  0  0  0  0  0  0  0  0  0  0
   34.9600   29.8130   51.2570 H   0  0  0  0  0  0  0  0  0  0  0  0
   35.5140   28.1310   51.1760 H   0  0  0  0  0  0  0  0  0  0  0  0
   36.5490   28.5080   49.1410 H   0  0  0  0  0  0  0  0  0  0  0  0
   36.0330   30.4550   47.3320 C   0  0  0  0  0  0  0  0  0  0  0  0
   37.3130   30.7500   46.8190 C   0  0  0  0  0  0  0  0  0  0  0  0
   37.4520   30.7000   45.4310 C   0  0  0  0  0  0  0  0  0  0  0  0
   36.3570   30.3720   44.6580 N   0  0  0  0  0  0  0  0  0  0  0  0
   35.1300   30.0920   45.2110 C   0  0  0  0  0  0  0  0  0  0  0  0
   34.9950   30.1420   46.5480 N   0  0  0  0  0  0  0  0  0  0  0  0
   38.2280   31.0000   47.3240 H   0  0  0  0  0  0  0  0  0  0  0  0
   38.3700   30.9030   44.8950 H   0  0  0  0  0  0  0  0  0  0  0  0
   34.3720   29.8510   44.4930 H   0  0  0  0  0  0  0  0  0  0  0  0
   33.2690   28.4270   49.2660 C   0  0  0  0  0  0  0  0  0  0  0  0
   32.7310   29.0260   50.2370 O   0  0  0  0  0  0  0  0  0  0  0  0
   34.6020   28.4250   48.7850 N   0  0  0  0  0  0  0  0  0  0  0  0
   34.6670   27.7970   47.9260 H   0  0  0  0  0  0  0  0  0  0  0  0
   32.2830   26.6580   47.7300 C   0  0  0  0  0  0  0  0  0  0  0  0
   32.1720   27.6590   48.6670 C   0  0  0  0  0  0  0  0  0  0  0  0
   30.9220   28.0290   49.1420 C   0  0  0  0  0  0  0  0  0  0  0  0
   30.7590   28.8090   49.8740 H   0  0  0  0  0  0  0  0  0  0  0  0
   29.7970   27.3900   48.6700 C   0  0  0  0  0  0  0  0  0  0  0  0
   28.7810   27.6190   48.9970 H   0  0  0  0  0  0  0  0  0  0  0  0
   29.8750   26.3840   47.7320 C   0  0  0  0  0  3  0  0  0  0  0  0
   31.1350   26.0280   47.2690 C   0  0  0  0  0  3  0  0  0  0  0  0
   34.8500   26.6290   48.1070 H   0  0  0  0  0  0  0  0  0  0  0  0
   33.9060   26.2710   47.1950 S   0  0  0  0  0  0  0  0  0  0  0  0
   34.0030   24.7710   47.0380 O   0  0  0  0  0  0  0  0  0  0  0  0
   34.1640   26.8520   45.8220 O   0  0  0  0  0  0  0  0  0  0  0  0
  1  7  1  1  0  0  0
  1  6  1  0  0  0  0
  1  2  1  0  0  0  0
  2  3  1  0  0  0  0
  2  8  1  0  0  0  0
  3 11  1  0  0  0  0
  3  4  1  0  0  0  0
  4 13  1  0  0  0  0
  4 12  1  0  0  0  0
  5 15  1  0  0  0  0
  5 14  1  0  0  0  0
  5  4  1  0  0  0  0
  6 16  1  6  0  0  0
  6  5  1  0  0  0  0
  9  2  1  0  0  0  0
 10  3  1  0  0  0  0
 17  1  1  0  0  0  0
 18 23  1  0  0  0  0
 18 17  1  0  0  0  0
 19 18  2  0  0  0  0
 20 21  2  0  0  0  0
 20 19  1  0  0  0  0
 21 22  1  0  0  0  0
 22 17  2  0  0  0  0
 24 19  1  0  0  0  0
 25 21  1  0  0  0  0
 26 27  2  0  0  0  0
 28 26  1  0  0  0  0
 28  6  1  0  0  0  0
 29 28  1  0  0  0  0
 30 31  1  0  0  0  0
 31 32  2  0  0  0  0
 31 26  1  0  0  0  0
 32 33  1  0  0  0  0
 34 35  1  0  0  0  0
 34 32  1  0  0  0  0
 36 34  2  0  0  0  0
 37 30  2  0  0  0  0
 37 36  1  0  0  0  0
 39 30  1  0  0  0  0
 39 38  1  0  0  0  0
 40 39  2  0  0  0  0
 41 39  2  0  0  0  0
M  END
>  <minimizedAffinity>
-5.41961432

>  <minimizedRMSD>
0.993373454

$$$$
