
 OpenBabel03272501293D

 23 24  0  0  0  0  0  0  0  0999 V2000
   38.6070   31.1740   45.6770 C   0  0  0  0  0  0  0  0  0  0  0  0
   37.4640   31.0780   46.4450 C   0  0  0  0  0  0  0  0  0  0  0  0
   36.3300   30.4930   45.9170 C   0  0  0  0  0  0  0  0  0  0  0  0
   35.4670   30.4410   46.5480 H   0  0  0  0  0  0  0  0  0  0  0  0
   36.2650   29.9920   44.6460 C   0  0  0  0  0  0  0  0  0  0  0  0
   35.3260   29.5500   44.3190 H   0  0  0  0  0  0  0  0  0  0  0  0
   37.4060   30.0820   43.8660 C   0  0  0  0  0  3  0  0  0  0  0  0
   38.5630   30.6710   44.3870 C   0  0  0  0  0  3  0  0  0  0  0  0
   40.3250   31.9670   47.4590 H   0  0  0  0  0  0  0  0  0  0  0  0
   40.1330   31.8590   46.1240 S   0  0  0  0  0  0  0  0  0  0  0  0
   40.2380   33.2360   45.4910 O   0  0  0  0  0  0  0  0  0  0  0  0
   41.2860   31.0710   45.5170 O   0  0  0  0  0  0  0  0  0  0  0  0
   37.5860   31.6290   47.7920 C   0  0  0  0  0  0  0  0  0  0  0  0
   38.1250   32.7440   47.9350 O   0  0  0  0  0  0  0  0  0  0  0  0
   37.3720   29.4080   50.7930 C   0  0  0  0  0  0  0  0  0  0  0  0
   37.9240   30.1640   49.7560 C   0  0  0  0  0  0  0  0  0  0  0  0
   37.0640   30.8270   48.8900 C   0  0  0  0  0  0  0  0  0  0  0  0
   35.7420   30.6840   49.1220 N   0  0  0  0  0  0  0  0  0  0  0  0
   35.2260   29.9580   50.1170 C   0  0  0  0  0  0  0  0  0  0  0  0
   36.0330   29.3160   50.9600 N   0  0  0  0  0  0  0  0  0  0  0  0
   37.9710   28.8740   51.4960 H   0  0  0  0  0  0  0  0  0  0  0  0
   39.0090   30.2220   49.6460 H   0  0  0  0  0  0  0  0  0  0  0  0
   34.1330   29.9070   50.2210 H   0  0  0  0  0  0  0  0  0  0  0  0
  1 10  1  0  0  0  0
  1  2  1  0  0  0  0
  2 13  1  0  0  0  0
  3  2  2  0  0  0  0
  3  4  1  0  0  0  0
  5  3  1  0  0  0  0
  6  5  1  0  0  0  0
  7  8  1  0  0  0  0
  7  5  2  0  0  0  0
  8  1  2  0  0  0  0
 10  9  1  0  0  0  0
 11 10  2  0  0  0  0
 12 10  2  0  0  0  0
 13 14  2  0  0  0  0
 13 17  1  0  0  0  0
 15 20  1  0  0  0  0
 15 21  1  0  0  0  0
 16 15  2  0  0  0  0
 17 18  2  0  0  0  0
 17 16  1  0  0  0  0
 18 19  1  0  0  0  0
 19 23  1  0  0  0  0
 19 20  2  0  0  0  0
 22 16  1  0  0  0  0
M  END
>  <minimizedAffinity>
-4.66659737

>  <minimizedRMSD>
1.87430739

$$$$
