REMARK  Name = 
REMARK  3 active torsions:
REMARK  status: ('A' for Active; 'I' for Inactive)
REMARK    1  A    between atoms: C_2  and  C_7
REMARK    2  A    between atoms: C_7  and  C_17
REMARK    3  A    between atoms: S_13  and  C_16
REMARK                            x       y       z     vdW  Elec       q    Type
REMARK                         _______ _______ _______ _____ _____    ______ ____
ROOT
ATOM      1  C   UNL     1      38.615  34.533  51.106  0.00  0.00    +0.000 A 
ATOM      2  C   UNL     1      37.717  33.766  50.421  0.00  0.00    +0.000 A 
ATOM      3  C   UNL     1      36.386  33.828  50.779  0.00  0.00    +0.000 A 
ATOM      4  H   UNL     1      35.696  33.193  50.201  0.00  0.00    +0.000 HD
ATOM      5  C   UNL     1      35.928  34.626  51.792  0.00  0.00    +0.000 A 
ATOM      6  H   UNL     1      34.865  34.589  51.978  0.00  0.00    +0.000 HD
ATOM      7  C   UNL     1      36.848  35.406  52.486  0.00  0.00    +0.000 A 
ATOM      8  C   UNL     1      38.201  35.359  52.142  0.00  0.00    +0.000 A 
ENDROOT
BRANCH   1  10
ATOM      9  H   UNL     1      40.580  35.595  49.886  0.00  0.00    +0.000 HD
ATOM     10  S   UNL     1      40.314  34.554  50.765  0.00  0.00    +0.000 S 
ATOM     11  O   UNL     1      41.129  34.855  52.006  0.00  0.00    +0.000 OA
ATOM     12  O   UNL     1      40.820  33.276  50.219  0.00  0.00    +0.000 OA
ENDBRANCH   1  10
BRANCH   2  13
ATOM     13  C   UNL     1      38.180  32.905  49.336  0.00  0.00    +0.000 C 
ATOM     14  O   UNL     1      38.945  33.036  48.382  0.00  0.00    +0.000 OA
BRANCH  13  16
ATOM     15  C   UNL     1      37.844  30.761  50.591  0.00  0.00    +0.000 A 
ATOM     16  C   UNL     1      37.556  31.562  49.445  0.00  0.00    +0.000 A 
ATOM     17  C   UNL     1      36.692  31.042  48.471  0.00  0.00    +0.000 A 
ATOM     18  N   UNL     1      36.179  29.810  48.668  0.00  0.00    +0.000 NA
ATOM     19  C   UNL     1      36.470  29.078  49.760  0.00  0.00    +0.000 A 
ATOM     20  N   UNL     1      37.290  29.537  50.715  0.00  0.00    +0.000 NA
ATOM     21  H   UNL     1      38.511  31.147  51.356  0.00  0.00    +0.000 HD
ATOM     22  H   UNL     1      36.494  31.674  47.615  0.00  0.00    +0.000 HD
ATOM     23  H   UNL     1      36.025  28.082  49.871  0.00  0.00    +0.000 HD
ENDBRANCH  13  16
ENDBRANCH   2  13
TORSDOF 3
