
     RDKit          3D

 25 26  0  0  0  0  0  0  0  0999 V2000
   37.8436   30.7605   50.5906 C   0  0  0  0  0  0  0  0  0  0  0  0
   37.5557   31.5619   49.4454 C   0  0  0  0  0  0  0  0  0  0  0  0
   36.6921   31.0420   48.4707 C   0  0  0  0  0  0  0  0  0  0  0  0
   36.1790   29.8097   48.6684 N   0  0  0  0  0  0  0  0  0  0  0  0
   36.4701   29.0785   49.7597 C   0  0  0  0  0  0  0  0  0  0  0  0
   37.2901   29.5369   50.7148 N   0  0  0  0  0  0  0  0  0  0  0  0
   38.1797   32.9050   49.3357 C   0  0  0  0  0  0  0  0  0  0  0  0
   38.9447   33.0365   48.3818 O   0  0  0  0  0  0  0  0  0  0  0  0
   38.5105   31.1472   51.3557 H   0  0  0  0  0  0  0  0  0  0  0  0
   36.4939   31.6739   47.6149 H   0  0  0  0  0  0  0  0  0  0  0  0
   36.0253   28.0821   49.8706 H   0  0  0  0  0  0  0  0  0  0  0  0
   40.0511   36.0348   49.3120 H   0  0  0  0  0  0  0  0  0  0  0  0
   40.1276   35.0534   50.2899 S   0  0  0  0  0  0  0  0  0  0  0  0
   41.0373   35.6193   51.3605 O   0  0  0  0  0  0  0  0  0  0  0  0
   40.7927   33.8445   49.7567 O   0  0  0  0  0  0  0  0  0  0  0  0
   38.5337   34.7489   50.9002 C   0  0  0  0  0  0  0  0  0  0  0  0
   37.7171   33.7657   50.4210 C   0  0  0  0  0  0  0  0  0  0  0  0
   36.4661   33.6132   50.9828 C   0  0  0  0  0  0  0  0  0  0  0  0
   35.8399   32.8089   50.5671 H   0  0  0  0  0  0  0  0  0  0  0  0
   36.0099   34.4070   52.0003 C   0  0  0  0  0  0  0  0  0  0  0  0
   35.0140   34.1908   52.3568 H   0  0  0  0  0  0  0  0  0  0  0  0
   36.8475   35.4076   52.4842 C   0  0  0  0  0  0  0  0  0  0  0  0
   38.1179   35.5803   51.9310 C   0  0  0  0  0  0  0  0  0  0  0  0
   36.4216   35.9946   53.2869 H   0  0  0  0  0  0  0  0  0  0  0  0
   38.7034   36.3821   52.3671 H   0  0  0  0  0  0  0  0  0  0  0  0
  1  6  2  0
  2  1  1  0
  3  4  1  0
  3  2  2  0
  4  5  2  0
  5  6  1  0
  7  2  1  0
  8  7  2  0
  1  9  1  0
  3 10  1  0
  5 11  1  0
 12 13  1  0
 13 14  2  0
 13 15  2  0
 13 16  1  0
 16 17  2  0
 17 18  1  0
 18 19  1  0
 18 20  2  0
 20 21  1  0
 20 22  1  0
 22 23  2  0
 23 16  1  0
 22 24  1  0
 23 25  1  0
  7 17  1  0
M  ISO  6   9  14  10  14  11  14  12  12  19  15  21  16
M  END
>  <DihAtoms>  (1) 
1,6,16,15

>  <DihDeg>  (1) 
134.99529619926932

$$$$
