
     RDKit          3D

 25 26  0  0  0  0  0  0  0  0999 V2000
   37.3536   30.2303   51.3648 C   0  0  0  0  0  0  0  0  0  0  0  0
   38.0138   30.7641   50.2556 C   0  0  0  0  0  0  0  0  0  0  0  0
   37.5597   30.4215   48.9881 C   0  0  0  0  0  0  0  0  0  0  0  0
   36.5009   29.5875   48.9290 N   0  0  0  0  0  0  0  0  0  0  0  0
   35.8777   29.0833   49.9967 C   0  0  0  0  0  0  0  0  0  0  0  0
   36.2969   29.3990   51.2219 N   0  0  0  0  0  0  0  0  0  0  0  0
   38.2114   30.9495   47.7965 C   0  0  0  0  0  0  0  0  0  0  0  0
   39.0450   31.8757   47.8094 O   0  0  0  0  0  0  0  0  0  0  0  0
   37.6469   30.4494   52.3684 H   0  0  0  0  0  0  0  0  0  0  0  0
   38.8644   31.4329   50.4014 H   0  0  0  0  0  0  0  0  0  0  0  0
   35.0220   28.4107   49.8410 H   0  0  0  0  0  0  0  0  0  0  0  0
   40.2221   32.4322   46.6068 H   0  0  0  0  0  0  0  0  0  0  0  0
   39.6632   32.1683   45.4027 S   0  0  0  0  0  0  0  0  0  0  0  0
   38.9766   33.4205   44.8843 O   0  0  0  0  0  0  0  0  0  0  0  0
   40.7677   31.8900   44.3916 O   0  0  0  0  0  0  0  0  0  0  0  0
   38.5017   30.8845   45.4244 C   0  0  0  0  0  0  0  0  0  0  0  0
   37.8541   30.3448   46.5170 C   0  0  0  0  0  0  0  0  0  0  0  0
   36.9511   29.3149   46.3404 C   0  0  0  0  0  0  0  0  0  0  0  0
   36.4732   28.9281   47.2158 H   0  0  0  0  0  0  0  0  0  0  0  0
   36.6495   28.7813   45.1177 C   0  0  0  0  0  0  0  0  0  0  0  0
   35.9242   27.9709   45.0796 H   0  0  0  0  0  0  0  0  0  0  0  0
   37.2928   29.3142   44.0133 C   0  0  0  0  0  0  0  0  0  0  0  0
   38.2103   30.3577   44.1753 C   0  0  0  0  0  0  0  0  0  0  0  0
   37.0568   28.8948   43.0457 H   0  0  0  0  0  0  0  0  0  0  0  0
   38.6524   30.6951   43.2395 H   0  0  0  0  0  0  0  0  0  0  0  0
  2  1  2  0
  3  2  1  0
  4  3  2  0
  4  5  1  0
  5  6  2  0
  6  1  1  0
  7  3  1  0
  8  7  2  0
  1  9  1  0
  2 10  1  0
  5 11  1  0
 12 13  1  0
 13 14  2  0
 13 15  2  0
 13 16  1  0
 16 17  2  0
 17 18  1  0
 18 19  1  0
 18 20  2  0
 20 21  1  0
 20 22  1  0
 22 23  2  0
 23 16  1  0
 22 24  1  0
 23 25  1  0
  7 17  1  0
M  ISO  6   9  14  10  14  11  14  12  12  19  15  21  16
M  END
>  <DihAtoms>  (1) 
2,6,16,15

>  <DihDeg>  (1) 
-135.0021187446883

$$$$
